
  -OEChem-04052322473D

 89 99  0     1  0  0  0  0  0999 V2000
  -27.4261  -33.1056   26.6275 C   0  0  0  0  0  0  0  0  0  0  0  0
  -27.6974  -32.0027   25.8242 C   0  0  0  0  0  0  0  0  0  0  0  0
  -23.7687  -10.7596   22.6461 C   0  0  0  0  0  0  0  0  0  0  0  0
  -24.5642   -8.8910   21.3373 C   0  0  0  0  0  0  0  0  0  0  0  0
  -26.1194  -33.3601   27.0420 C   0  0  0  0  0  0  0  0  0  0  0  0
  -26.6623  -31.1529   25.4358 C   0  0  0  0  0  0  0  0  0  0  0  0
  -26.8921  -29.9286   20.5273 C   0  0  0  0  0  0  0  0  0  0  0  0
  -22.5631  -10.0931   22.8648 C   0  0  0  0  0  0  0  0  0  0  0  0
  -23.3586   -8.2245   21.5561 C   0  0  0  0  0  0  0  0  0  0  0  0
  -27.8198  -28.9563   20.1564 C   0  0  0  0  0  0  0  0  0  0  0  0
  -20.6288   -5.8789   22.0706 C   0  0  0  0  0  0  0  0  0  0  0  0
  -20.6869   -4.5296   22.4193 C   0  0  0  0  0  0  0  0  0  0  0  0
  -26.0610  -27.3061   20.1055 C   0  0  0  0  0  0  0  0  0  0  0  0
  -29.7717  -22.0550   22.4201 C   0  0  0  0  0  0  0  0  0  0  0  0
  -21.9691   -5.0935   24.3878 C   0  0  0  0  0  0  0  0  0  0  0  0
  -29.3274  -21.8614   20.2213 C   0  0  0  0  0  0  0  0  0  0  0  0
  -24.7693  -10.1586   21.8822 C   0  0  0  0  0  0  0  0  0  0  0  0
  -27.1763  -10.7858   22.4482 C   0  0  0  0  0  0  0  0  0  0  0  0
  -25.0663  -32.5184   26.6505 C   0  0  0  0  0  0  0  0  0  0  0  0
  -25.5414  -29.5941   20.7011 C   0  0  0  0  0  0  0  0  0  0  0  0
  -25.3406  -31.3956   25.8466 C   0  0  0  0  0  0  0  0  0  0  0  0
  -25.1177  -28.2765   20.4762 C   0  0  0  0  0  0  0  0  0  0  0  0
  -29.5888  -21.1326   21.3605 C   0  0  0  0  0  0  0  0  0  0  0  0
  -22.3580   -8.8256   22.3199 C   0  0  0  0  0  0  0  0  0  0  0  0
  -27.4049  -27.6442   19.9482 C   0  0  0  0  0  0  0  0  0  0  0  0
  -21.2410   -6.8355   22.8805 C   0  0  0  0  0  0  0  0  0  0  0  0
  -21.3570   -4.1369   23.5779 C   0  0  0  0  0  0  0  0  0  0  0  0
  -21.9111   -6.4428   24.0391 C   0  0  0  0  0  0  0  0  0  0  0  0
  -26.0146  -10.8468   21.6554 C   0  0  0  0  0  0  0  0  0  0  0  0
  -29.6162  -23.3195   21.8962 C   0  0  0  0  0  0  0  0  0  0  0  0
  -28.0704  -11.6113   21.8114 C   0  0  0  0  0  0  0  0  0  0  0  0
  -27.4250  -10.0486   23.6526 C   0  0  0  0  0  0  0  0  0  0  0  0
  -23.5099  -29.6628   23.1449 C   0  0  0  0  0  0  0  0  0  0  0  0
  -21.3533  -28.8265   20.8707 C   0  0  0  0  0  0  0  0  0  0  0  0
  -20.7559  -27.3918   17.8323 C   0  0  0  0  0  0  0  0  0  0  0  0
  -29.3985  -16.2263   19.1733 C   0  0  0  0  0  0  0  0  0  0  0  0
  -23.6774  -32.8074   27.1625 C   0  0  0  0  0  0  0  0  0  0  0  0
  -24.5485  -30.6601   21.0755 C   0  0  0  0  0  0  0  0  0  0  0  0
  -23.6756  -27.8701   20.6298 C   0  0  0  0  0  0  0  0  0  0  0  0
  -22.5809  -32.0698   26.3983 C   0  0  0  0  0  0  0  0  0  0  0  0
  -27.8957  -13.7772   17.2518 C   0  0  0  0  0  0  0  0  0  0  0  0
  -22.9559  -30.6033   26.2093 C   0  0  0  0  0  0  0  0  0  0  0  0
  -27.3636  -12.7820   18.2828 C   0  0  0  0  0  0  0  0  0  0  0  0
  -28.3263  -18.9498   21.1100 C   0  0  0  0  0  0  0  0  0  0  0  0
  -30.8042  -19.0430   20.5993 C   0  0  0  0  0  0  0  0  0  0  0  0
  -27.7849  -24.3459   18.8991 C   0  0  0  0  0  0  0  0  0  0  0  0
  -27.6739  -15.2127   17.7141 C   0  0  0  0  0  0  0  0  0  0  0  0
  -28.4209  -17.4230   21.1815 C   0  0  0  0  0  0  0  0  0  0  0  0
  -30.8456  -17.5216   20.7084 C   0  0  0  0  0  0  0  0  0  0  0  0
  -27.7519  -14.5295   20.0900 C   0  0  0  0  0  0  0  0  0  0  0  0
  -29.6665  -19.6209   21.4605 C   0  0  0  0  0  0  0  0  0  0  0  0
  -24.2409  -30.4645   25.3840 C   0  0  1  0  0  0  0  0  0  0  0  0
  -23.2868  -30.1000   21.7248 C   0  0  1  0  0  0  0  0  0  0  0  0
  -27.9570  -13.0583   19.6756 C   0  0  1  0  0  0  0  0  0  0  0  0
  -28.0707  -25.3263   19.9956 C   0  0  1  0  0  0  0  0  0  1  0  0
  -29.1141  -24.2775   19.6299 C   0  0  2  0  0  0  0  0  0  0  0  0
  -30.5776  -23.8727   17.6442 C   0  0  0  0  0  0  0  0  0  0  0  0
  -18.8882  -26.8202   16.2568 C   0  0  0  0  0  0  0  0  0  0  0  0
  -20.5717  -26.4770   22.6536 C   0  0  0  0  0  0  0  0  0  0  0  0
  -19.4396  -25.4421   20.6748 C   0  0  0  0  0  0  0  0  0  0  0  0
  -18.6483  -27.6380   21.5549 C   0  0  0  0  0  0  0  0  0  0  0  0
  -30.3805  -25.9034   24.6035 C   0  0  0  0  0  0  0  0  0  0  0  0
  -21.8741  -29.1113   15.6987 C   0  0  0  0  0  0  0  0  0  0  0  0
  -29.7029  -24.6364   22.5604 C   0  0  0  0  0  0  0  0  0  0  0  0
  -30.3451  -24.7022   18.8742 C   0  0  0  0  0  0  0  0  0  0  0  0
  -20.8446  -27.5212   20.3081 C   0  0  1  0  0  0  0  0  0  0  0  0
  -19.9330  -27.8553   16.6439 C   0  0  2  0  0  0  0  0  0  0  0  0
  -19.9036  -26.7765   21.2968 C   0  0  0  0  0  0  0  0  0  0  0  0
  -26.1550  -11.6480   20.5959 N   0  0  0  0  0  0  0  0  0  0  0  0
  -29.3462  -23.1895   20.5589 N   0  0  0  0  0  0  0  0  0  0  0  0
  -27.4153  -12.0980   20.7187 N   0  0  0  0  0  0  0  0  0  0  0  0
  -22.7439  -28.9472   21.0034 N   0  0  0  0  0  0  0  0  0  0  0  0
  -28.2483  -15.4338   19.0411 N   0  0  0  0  0  0  0  0  0  0  0  0
  -29.5481  -16.9344   20.3752 N   0  0  0  0  0  0  0  0  0  0  0  0
  -29.3451  -11.9613   22.0853 N   0  0  0  0  0  0  0  0  0  0  0  0
  -26.3972   -9.2490   24.1708 N   0  0  0  0  0  0  0  0  0  0  0  0
  -23.9632  -30.6675   23.9783 N   0  0  0  0  0  0  0  0  0  0  0  0
  -20.2296  -27.8419   19.0247 N   0  0  0  0  0  0  0  0  0  0  0  0
  -30.3435  -24.5921   23.9101 N   0  3  0  0  0  0  0  0  0  0  0  0
  -20.8139  -28.0969   15.4664 N   0  3  0  0  0  0  0  0  0  0  0  0
  -28.5205  -10.1104   24.2604 O   0  0  0  0  0  0  0  0  0  0  0  0
  -23.2860  -28.5003   23.4614 O   0  0  0  0  0  0  0  0  0  0  0  0
  -20.5470  -29.7093   21.1742 O   0  0  0  0  0  0  0  0  0  0  0  0
  -21.7627  -26.6967   17.7149 O   0  0  0  0  0  0  0  0  0  0  0  0
  -30.2428  -16.2969   18.2715 O   0  0  0  0  0  0  0  0  0  0  0  0
  -21.1818   -8.1748   22.5334 O   0  0  0  0  0  0  0  0  0  0  0  0
  -28.3215  -26.6794   19.5815 O   0  0  0  0  0  0  0  0  0  1  0  0
  -21.4114   -2.8412   23.9135 F   0  0  0  0  0  0  0  0  0  0  0  0
  -22.5001   -7.3574   24.8217 F   0  0  0  0  0  0  0  0  0  0  0  0
  1  2  1  0  0  0  0
  1  5  2  0  0  0  0
  2  6  2  0  0  0  0
  3  8  2  0  0  0  0
  3 17  1  0  0  0  0
  4  9  1  0  0  0  0
  4 17  2  0  0  0  0
  5 19  1  0  0  0  0
  6 21  1  0  0  0  0
  7 10  2  0  0  0  0
  7 20  1  0  0  0  0
  8 24  1  0  0  0  0
  9 24  2  0  0  0  0
 10 25  1  0  0  0  0
 11 12  2  0  0  0  0
 11 26  1  0  0  0  0
 12 27  1  0  0  0  0
 13 22  1  0  0  0  0
 13 25  2  0  0  0  0
 14 23  1  0  0  0  0
 14 30  2  0  0  0  0
 15 27  2  0  0  0  0
 15 28  1  0  0  0  0
 16 23  2  0  0  0  0
 16 70  1  0  0  0  0
 17 29  1  0  0  0  0
 18 29  1  0  0  0  0
 18 31  2  0  0  0  0
 18 32  1  0  0  0  0
 19 21  2  0  0  0  0
 19 37  1  0  0  0  0
 20 22  2  0  0  0  0
 20 38  1  0  0  0  0
 21 52  1  0  0  0  0
 22 39  1  0  0  0  0
 23 51  1  0  0  0  0
 24 86  1  0  0  0  0
 25 87  1  0  0  0  0
 26 28  2  0  0  0  0
 26 86  1  0  0  0  0
 27 88  1  0  0  0  0
 28 89  1  0  0  0  0
 29 69  2  0  0  0  0
 30 64  1  0  0  0  0
 30 70  1  0  0  0  0
 31 71  1  0  0  0  0
 31 75  1  0  0  0  0
 32 76  1  0  0  0  0
 32 81  2  0  0  0  0
 33 53  1  0  0  0  0
 33 77  1  0  0  0  0
 33 82  2  0  0  0  0
 34 66  1  0  0  0  0
 34 72  1  0  0  0  0
 34 83  2  0  0  0  0
 35 67  1  0  0  0  0
 35 78  1  0  0  0  0
 35 84  2  0  0  0  0
 36 73  1  0  0  0  0
 36 74  1  0  0  0  0
 36 85  2  0  0  0  0
 37 40  1  0  0  0  0
 38 53  1  0  0  0  0
 39 72  1  0  0  0  0
 40 42  1  0  0  0  0
 41 43  1  0  0  0  0
 41 47  1  0  0  0  0
 42 52  1  0  0  0  0
 43 54  1  0  0  0  0
 44 48  1  0  0  0  0
 44 51  1  0  0  0  0
 45 49  1  0  0  0  0
 45 51  1  0  0  0  0
 46 55  1  0  0  0  0
 46 56  1  0  0  0  0
 47 73  1  0  0  0  0
 48 74  1  0  0  0  0
 49 74  1  0  0  0  0
 50 54  1  0  0  0  0
 50 73  1  0  0  0  0
 52 77  1  0  0  0  0
 53 72  1  0  0  0  0
 54 71  1  0  0  0  0
 55 56  1  0  0  0  0
 55 87  1  0  0  0  0
 56 65  1  0  0  0  0
 56 70  1  0  0  0  0
 57 65  1  0  0  0  0
 58 67  1  0  0  0  0
 59 68  1  0  0  0  0
 60 68  1  0  0  0  0
 61 68  1  0  0  0  0
 62 79  1  0  0  0  0
 63 80  1  0  0  0  0
 64 79  1  0  0  0  0
 66 68  1  0  0  0  0
 66 78  1  0  0  0  0
 67 80  1  0  0  0  0
 69 71  1  0  0  0  0
M  CHG  2  79   1  80   1
M  ISO  4  36 100  55 101  74 100  87 101
M  END
> <Batch ID>
0175

> <Smiles>
CCC1(n2cc(C3CC[100N:0]([100C:0](=O)N4CCCC(n5nc(-c6ccc(Oc7ccc(F)cc7F)cc6)c(C(N)=O)c5N)C4)CC3)cc2CNC)C[101CH:1]1[101O:1]c1ccc2c(c1)CN(C(=O)C(NC(=O)C(C)NC)C(C)(C)C)C(C(=O)NC1CCCc3ccccc31)C2

> <Shape>
0.337

> <Color>
0.092

> <Negative vol penalty>
0.000

$$$$

  -OEChem-04052322473D

 86 95  0     1  0  0  0  0  0999 V2000
  -17.8106  -32.9503   23.4502 C   0  0  0  0  0  0  0  0  0  0  0  0
  -19.0205  -33.1702   22.7997 C   0  0  0  0  0  0  0  0  0  0  0  0
  -23.7426  -11.8761   19.2195 C   0  0  0  0  0  0  0  0  0  0  0  0
  -25.1747  -11.5146   21.1314 C   0  0  0  0  0  0  0  0  0  0  0  0
  -17.6502  -31.8271   24.2605 C   0  0  0  0  0  0  0  0  0  0  0  0
  -20.0712  -32.2675   22.9600 C   0  0  0  0  0  0  0  0  0  0  0  0
  -25.6203  -29.4695   19.3971 C   0  0  0  0  0  0  0  0  0  0  0  0
  -23.7569  -10.5076   18.9500 C   0  0  0  0  0  0  0  0  0  0  0  0
  -25.1890  -10.1461   20.8620 C   0  0  0  0  0  0  0  0  0  0  0  0
  -26.9940  -29.2702   19.5276 C   0  0  0  0  0  0  0  0  0  0  0  0
  -25.3094   -6.5125   20.8892 C   0  0  0  0  0  0  0  0  0  0  0  0
  -25.1317   -5.6378   21.9610 C   0  0  0  0  0  0  0  0  0  0  0  0
  -26.5761  -27.3230   20.8889 C   0  0  0  0  0  0  0  0  0  0  0  0
  -22.9679   -6.6180   22.4020 C   0  0  0  0  0  0  0  0  0  0  0  0
  -32.2272  -21.7815   19.4433 C   0  0  0  0  0  0  0  0  0  0  0  0
  -24.4516  -12.3796   20.3102 C   0  0  0  0  0  0  0  0  0  0  0  0
  -23.5257  -14.4901   21.4038 C   0  0  0  0  0  0  0  0  0  0  0  0
  -18.6962  -30.9051   24.4231 C   0  0  0  0  0  0  0  0  0  0  0  0
  -24.7128  -28.6019   20.0216 C   0  0  0  0  0  0  0  0  0  0  0  0
  -19.9250  -31.1316   23.7743 C   0  0  0  0  0  0  0  0  0  0  0  0
  -25.1914  -27.5120   20.7627 C   0  0  0  0  0  0  0  0  0  0  0  0
  -31.2465  -21.3119   20.2930 C   0  0  0  0  0  0  0  0  0  0  0  0
  -24.4801   -9.6426   19.7713 C   0  0  0  0  0  0  0  0  0  0  0  0
  -27.4722  -28.1985   20.2760 C   0  0  0  0  0  0  0  0  0  0  0  0
  -24.3164   -7.4400   20.5737 C   0  0  0  0  0  0  0  0  0  0  0  0
  -23.9609   -5.6905   22.7175 C   0  0  0  0  0  0  0  0  0  0  0  0
  -23.1456   -7.4927   21.3301 C   0  0  0  0  0  0  0  0  0  0  0  0
  -24.4377  -13.7932   20.5887 C   0  0  0  0  0  0  0  0  0  0  0  0
  -30.4673  -22.2776   20.8968 C   0  0  0  0  0  0  0  0  0  0  0  0
  -23.9400  -15.7982   21.3419 C   0  0  0  0  0  0  0  0  0  0  0  0
  -31.6145  -23.9335   19.8437 C   0  0  0  0  0  0  0  0  0  0  0  0
  -22.4045  -13.9990   22.1503 C   0  0  0  0  0  0  0  0  0  0  0  0
  -22.4679  -28.9275   22.2484 C   0  0  0  0  0  0  0  0  0  0  0  0
  -21.8383  -25.8317   21.5121 C   0  0  0  0  0  0  0  0  0  0  0  0
  -22.9615  -22.8692   20.2438 C   0  0  0  0  0  0  0  0  0  0  0  0
  -29.2274  -18.2039   20.2876 C   0  0  0  0  0  0  0  0  0  0  0  0
  -18.4915  -29.7305   25.3468 C   0  0  0  0  0  0  0  0  0  0  0  0
  -23.2339  -28.8150   19.8491 C   0  0  0  0  0  0  0  0  0  0  0  0
  -24.2586  -26.5400   21.4361 C   0  0  0  0  0  0  0  0  0  0  0  0
  -19.5289  -28.6254   25.1660 C   0  0  0  0  0  0  0  0  0  0  0  0
  -26.1838  -18.8829   18.4510 C   0  0  0  0  0  0  0  0  0  0  0  0
  -20.9334  -29.2169   25.1021 C   0  0  0  0  0  0  0  0  0  0  0  0
  -25.3026  -17.7074   18.8774 C   0  0  0  0  0  0  0  0  0  0  0  0
  -30.5606  -26.0768   19.0647 C   0  0  0  0  0  0  0  0  0  0  0  0
  -27.6383  -18.4521   18.2862 C   0  0  0  0  0  0  0  0  0  0  0  0
  -27.3500  -16.6286   19.9187 C   0  0  0  0  0  0  0  0  0  0  0  0
  -32.0903  -26.1687   20.8814 C   0  0  0  0  0  0  0  0  0  0  0  0
  -21.0799  -30.1622   23.9036 C   0  0  1  0  0  0  0  0  0  0  0  0
  -31.8176  -25.3851   19.5944 C   0  0  1  0  0  0  0  0  0  0  0  0
  -22.4040  -28.1679   20.9536 C   0  0  1  0  0  0  0  0  0  0  0  0
  -25.8712  -17.0042   20.1242 C   0  0  2  0  0  0  0  0  0  0  0  0
  -30.8714  -27.5531   19.2678 C   0  0  1  0  0  0  0  0  0  0  0  0
  -29.3745  -21.8867   21.8362 C   0  0  0  0  0  0  0  0  0  0  0  0
  -22.2290  -20.5089   19.8078 C   0  0  0  0  0  0  0  0  0  0  0  0
  -22.1177  -25.1987   24.4838 C   0  0  0  0  0  0  0  0  0  0  0  0
  -22.3266  -22.7786   23.8773 C   0  0  0  0  0  0  0  0  0  0  0  0
  -20.2316  -24.0211   23.3392 C   0  0  0  0  0  0  0  0  0  0  0  0
  -32.6844  -28.6147   20.6723 C   0  0  0  0  0  0  0  0  0  0  0  0
  -23.3934  -23.1505   17.3295 C   0  0  0  0  0  0  0  0  0  0  0  0
  -31.0627  -19.8567   20.5256 C   0  0  0  0  0  0  0  0  0  0  0  0
  -29.6392  -28.4306   19.3241 C   0  0  0  0  0  0  0  0  0  1  0  0
  -22.3291  -24.4934   22.0091 C   0  0  1  0  0  0  0  0  0  0  0  0
  -22.3555  -21.9115   19.2338 C   0  0  2  0  0  0  0  0  0  0  0  0
  -21.7691  -24.1422   23.4164 C   0  0  0  0  0  0  0  0  0  0  0  0
  -32.4399  -23.0904   19.1946 N   0  0  0  0  0  0  0  0  0  0  0  0
  -25.3615  -14.5924   20.0485 N   0  0  0  0  0  0  0  0  0  0  0  0
  -30.6244  -23.6022   20.6943 N   0  0  0  0  0  0  0  0  0  0  0  0
  -25.0321  -15.8051   20.5250 N   0  0  0  0  0  0  0  0  0  0  0  0
  -22.8214  -26.7945   21.2432 N   0  0  0  0  0  0  0  0  0  0  0  0
  -28.1241  -17.8068   19.5140 N   0  0  0  0  0  0  0  0  0  0  0  0
  -23.4729  -16.9317   21.9070 N   0  0  0  0  0  0  0  0  0  0  0  0
  -22.1196  -12.6275   22.1034 N   0  0  0  0  0  0  0  0  0  0  0  0
  -21.2459  -29.4061   22.6808 N   0  0  0  0  0  0  0  0  0  0  0  0
  -21.9912  -23.5241   20.9725 N   0  0  0  0  0  0  0  0  0  0  0  0
  -29.9107  -19.3248   19.8321 N   0  0  0  0  0  0  0  0  0  0  0  0
  -31.6019  -27.5804   20.6003 N   0  3  2  0  0  0  0  0  0  0  0  0
  -23.2039  -21.8439   18.0104 N   0  3  0  0  0  0  0  0  0  0  0  0
  -21.6669  -14.7564   22.8253 O   0  0  0  0  0  0  0  0  0  0  0  0
  -23.5459  -29.0677   22.8141 O   0  0  0  0  0  0  0  0  0  0  0  0
  -20.6276  -26.0137   21.3609 O   0  0  0  0  0  0  0  0  0  0  0  0
  -24.1742  -23.0184   20.3759 O   0  0  0  0  0  0  0  0  0  0  0  0
  -29.5748  -17.6068   21.3123 O   0  0  0  0  0  0  0  0  0  0  0  0
  -24.4940   -8.3071   19.5088 O   0  0  0  0  0  0  0  0  0  0  0  0
  -28.8125  -28.0021   20.4055 O   0  0  0  0  0  0  0  0  0  1  0  0
  -23.7897   -4.8495   23.7458 F   0  0  0  0  0  0  0  0  0  0  0  0
  -22.1876   -8.3807   21.0312 F   0  0  0  0  0  0  0  0  0  0  0  0
  1  2  1  0  0  0  0
  1  5  2  0  0  0  0
  2  6  2  0  0  0  0
  3  8  2  0  0  0  0
  3 16  1  0  0  0  0
  4  9  1  0  0  0  0
  4 16  2  0  0  0  0
  5 18  1  0  0  0  0
  6 20  1  0  0  0  0
  7 10  2  0  0  0  0
  7 19  1  0  0  0  0
  8 23  1  0  0  0  0
  9 23  2  0  0  0  0
 10 24  1  0  0  0  0
 11 12  2  0  0  0  0
 11 25  1  0  0  0  0
 12 26  1  0  0  0  0
 13 21  1  0  0  0  0
 13 24  2  0  0  0  0
 14 26  2  0  0  0  0
 14 27  1  0  0  0  0
 15 22  1  0  0  0  0
 15 65  2  0  0  0  0
 16 28  1  0  0  0  0
 17 28  1  0  0  0  0
 17 30  2  0  0  0  0
 17 32  1  0  0  0  0
 18 20  2  0  0  0  0
 18 37  1  0  0  0  0
 19 21  2  0  0  0  0
 19 38  1  0  0  0  0
 20 48  1  0  0  0  0
 21 39  1  0  0  0  0
 22 29  2  0  0  0  0
 22 60  1  0  0  0  0
 23 83  1  0  0  0  0
 24 84  1  0  0  0  0
 25 27  2  0  0  0  0
 25 83  1  0  0  0  0
 26 85  1  0  0  0  0
 27 86  1  0  0  0  0
 28 66  2  0  0  0  0
 29 53  1  0  0  0  0
 29 67  1  0  0  0  0
 30 68  1  0  0  0  0
 30 71  1  0  0  0  0
 31 49  1  0  0  0  0
 31 65  1  0  0  0  0
 31 67  2  0  0  0  0
 32 72  1  0  0  0  0
 32 78  2  0  0  0  0
 33 50  1  0  0  0  0
 33 73  1  0  0  0  0
 33 79  2  0  0  0  0
 34 62  1  0  0  0  0
 34 69  1  0  0  0  0
 34 80  2  0  0  0  0
 35 63  1  0  0  0  0
 35 74  1  0  0  0  0
 35 81  2  0  0  0  0
 36 70  1  0  0  0  0
 36 75  1  0  0  0  0
 36 82  2  0  0  0  0
 37 40  1  0  0  0  0
 38 50  1  0  0  0  0
 39 69  1  0  0  0  0
 40 42  1  0  0  0  0
 41 43  1  0  0  0  0
 41 45  1  0  0  0  0
 42 48  1  0  0  0  0
 43 51  1  0  0  0  0
 44 49  1  0  0  0  0
 44 52  1  0  0  0  0
 45 70  1  0  0  0  0
 46 51  1  0  0  0  0
 46 70  1  0  0  0  0
 47 49  1  0  0  0  0
 47 76  1  0  0  0  0
 48 73  1  0  0  0  0
 50 69  1  0  0  0  0
 51 68  1  0  0  0  0
 52 61  1  0  0  0  0
 52 76  1  0  0  0  0
 54 63  1  0  0  0  0
 55 64  1  0  0  0  0
 56 64  1  0  0  0  0
 57 64  1  0  0  0  0
 58 76  1  0  0  0  0
 59 77  1  0  0  0  0
 60 75  1  0  0  0  0
 61 84  1  0  0  0  0
 62 64  1  0  0  0  0
 62 74  1  0  0  0  0
 63 77  1  0  0  0  0
 66 68  1  0  0  0  0
M  CHG  2  76   1  77   1
M  ISO  4  36 100  61 101  75 100  84 101
M  END
> <Batch ID>
0175

> <Smiles>
CNC(C)C(=O)NC(C(=O)N1Cc2cc([101O:1][101CH2:1]C3CC(c4ncc(C[100NH:0][100C:0](=O)N5CCCC(n6nc(-c7ccc(Oc8ccc(F)cc8F)cc7)c(C(N)=O)c6N)C5)c(C)n4)CN3C)ccc2CC1C(=O)NC1CCCc2ccccc21)C(C)(C)C

> <Shape>
0.235

> <Color>
0.082

> <Negative vol penalty>
0.000

$$$$

  -OEChem-04052322473D

 88 98  0     1  0  0  0  0  0999 V2000
  -36.0777  -25.4969   20.7432 C   0  0  0  0  0  0  0  0  0  0  0  0
  -34.8085  -24.9602   20.5525 C   0  0  0  0  0  0  0  0  0  0  0  0
  -23.0986   -9.8786   21.3698 C   0  0  0  0  0  0  0  0  0  0  0  0
  -23.8755  -10.6786   23.5131 C   0  0  0  0  0  0  0  0  0  0  0  0
  -36.2644  -26.5356   21.6544 C   0  0  0  0  0  0  0  0  0  0  0  0
  -33.7253  -25.4610   21.2739 C   0  0  0  0  0  0  0  0  0  0  0  0
  -29.6333  -26.1874   18.3803 C   0  0  0  0  0  0  0  0  0  0  0  0
  -22.3767   -8.8700   22.0080 C   0  0  0  0  0  0  0  0  0  0  0  0
  -23.1535   -9.6700   24.1512 C   0  0  0  0  0  0  0  0  0  0  0  0
  -28.8814  -25.0617   18.0467 C   0  0  0  0  0  0  0  0  0  0  0  0
  -23.0084   -5.8585   23.4065 C   0  0  0  0  0  0  0  0  0  0  0  0
  -23.0859   -4.5713   22.8748 C   0  0  0  0  0  0  0  0  0  0  0  0
  -28.8318  -19.5068   23.0996 C   0  0  0  0  0  0  0  0  0  0  0  0
  -27.2974  -25.6135   19.7805 C   0  0  0  0  0  0  0  0  0  0  0  0
  -20.6963   -4.5744   22.5186 C   0  0  0  0  0  0  0  0  0  0  0  0
  -23.8481  -10.7828   22.1224 C   0  0  0  0  0  0  0  0  0  0  0  0
  -24.1454  -13.1197   21.1434 C   0  0  0  0  0  0  0  0  0  0  0  0
  -35.1813  -27.0559   22.3802 C   0  0  0  0  0  0  0  0  0  0  0  0
  -29.2280  -27.0300   19.4254 C   0  0  0  0  0  0  0  0  0  0  0  0
  -33.8980  -26.5067   22.1966 C   0  0  0  0  0  0  0  0  0  0  0  0
  -28.2129  -20.3888   22.2138 C   0  0  0  0  0  0  0  0  0  0  0  0
  -28.0446  -26.7506   20.1236 C   0  0  0  0  0  0  0  0  0  0  0  0
  -28.4113  -20.2512   20.8400 C   0  0  0  0  0  0  0  0  0  0  0  0
  -29.6493  -18.4873   22.6117 C   0  0  0  0  0  0  0  0  0  0  0  0
  -29.2287  -19.2317   20.3520 C   0  0  0  0  0  0  0  0  0  0  0  0
  -29.8477  -18.3497   21.2379 C   0  0  0  0  0  0  0  0  0  0  0  0
  -22.4041   -8.7658   23.3986 C   0  0  0  0  0  0  0  0  0  0  0  0
  -27.7148  -24.7730   18.7487 C   0  0  0  0  0  0  0  0  0  0  0  0
  -21.7748   -6.5037   23.4943 C   0  0  0  0  0  0  0  0  0  0  0  0
  -21.9299   -3.9293   22.4309 C   0  0  0  0  0  0  0  0  0  0  0  0
  -20.6188   -5.8616   23.0503 C   0  0  0  0  0  0  0  0  0  0  0  0
  -24.5945  -11.8245   21.4638 C   0  0  0  0  0  0  0  0  0  0  0  0
  -25.2216  -13.7149   20.5320 C   0  0  0  0  0  0  0  0  0  0  0  0
  -22.8693  -13.7301   21.3775 C   0  0  0  0  0  0  0  0  0  0  0  0
  -30.4788  -27.9075   22.2127 C   0  0  0  0  0  0  0  0  0  0  0  0
  -27.9198  -29.8993   22.2912 C   0  0  0  0  0  0  0  0  0  0  0  0
  -24.7472  -30.5831   21.2358 C   0  0  0  0  0  0  0  0  0  0  0  0
  -30.6882  -14.8118   20.2901 C   0  0  0  0  0  0  0  0  0  0  0  0
  -35.4404  -28.1471   23.3887 C   0  0  0  0  0  0  0  0  0  0  0  0
  -30.0360  -28.2551   19.7553 C   0  0  0  0  0  0  0  0  0  0  0  0
  -27.5553  -27.6347   21.2406 C   0  0  0  0  0  0  0  0  0  0  0  0
  -34.1755  -28.8735   23.8386 C   0  0  0  0  0  0  0  0  0  0  0  0
  -29.5740  -11.7404   18.8754 C   0  0  0  0  0  0  0  0  0  0  0  0
  -27.9360  -22.8342   22.9994 C   0  0  0  0  0  0  0  0  0  0  0  0
  -27.5816  -21.9629   24.1637 C   0  0  0  0  0  0  0  0  0  0  0  0
  -26.7573  -20.5339   18.9041 C   0  0  0  0  0  0  0  0  0  0  0  0
  -33.0748  -27.8716   24.1728 C   0  0  0  0  0  0  0  0  0  0  0  0
  -28.1452  -11.5925   19.4012 C   0  0  0  0  0  0  0  0  0  0  0  0
  -26.6992  -21.4186   17.6531 C   0  0  0  0  0  0  0  0  0  0  0  0
  -28.6510  -22.0051   18.9325 C   0  0  0  0  0  0  0  0  0  0  0  0
  -30.4962  -12.3705   19.9168 C   0  0  0  0  0  0  0  0  0  0  0  0
  -28.5926  -13.5050   20.9952 C   0  0  0  0  0  0  0  0  0  0  0  0
  -27.3425  -21.4716   22.7610 C   0  0  0  0  0  0  0  0  0  0  0  0
  -27.7393  -21.2091   19.8789 C   0  0  2  0  0  0  0  0  0  0  0  0
  -32.6938  -27.0398   22.9422 C   0  0  1  0  0  0  0  0  0  0  0  0
  -29.8031  -28.7597   21.1760 C   0  0  1  0  0  0  0  0  0  0  0  0
  -27.6128  -12.9255   19.9606 C   0  0  2  0  0  0  0  0  0  0  0  0
  -27.6832  -22.5568   17.8947 C   0  0  2  0  0  0  0  0  0  1  0  0
  -30.3013  -17.5568   23.5812 C   0  0  0  0  0  0  0  0  0  0  0  0
  -29.4428  -19.0834   18.8787 C   0  0  0  0  0  0  0  0  0  0  0  0
  -22.9023  -32.2635   21.5005 C   0  0  0  0  0  0  0  0  0  0  0  0
  -27.2548  -28.7339   25.0316 C   0  0  0  0  0  0  0  0  0  0  0  0
  -24.9621  -29.7163   24.8158 C   0  0  0  0  0  0  0  0  0  0  0  0
  -26.9591  -31.2107   24.8516 C   0  0  0  0  0  0  0  0  0  0  0  0
  -24.7967  -31.2639   18.3560 C   0  0  0  0  0  0  0  0  0  0  0  0
  -30.7262  -17.2562   20.7178 C   0  0  0  0  0  0  0  0  0  0  0  0
  -26.5032  -29.8002   22.8036 C   0  0  1  0  0  0  0  0  0  0  0  0
  -24.1196  -31.8519   20.6872 C   0  0  2  0  0  0  0  0  0  0  0  0
  -26.4297  -29.8474   24.3559 C   0  0  0  0  0  0  0  0  0  0  0  0
  -25.8577  -11.6089   21.0869 N   0  0  0  0  0  0  0  0  0  0  0  0
  -26.2114  -12.7766   20.5234 N   0  0  0  0  0  0  0  0  0  0  0  0
  -28.3833  -28.8172   21.5298 N   0  0  0  0  0  0  0  0  0  0  0  0
  -29.9347  -13.6321   20.4056 N   0  0  0  0  0  0  0  0  0  0  0  0
  -25.4085  -14.9442   20.0062 N   0  0  0  0  0  0  0  0  0  0  0  0
  -21.8758  -12.9770   22.0179 N   0  0  0  0  0  0  0  0  0  0  0  0
  -31.8480  -27.8088   22.0545 N   0  0  0  0  0  0  0  0  0  0  0  0
  -25.7531  -30.8595   22.1374 N   0  0  0  0  0  0  0  0  0  0  0  0
  -30.0795  -15.9641   20.7723 N   0  0  0  0  0  0  0  0  0  0  0  0
  -23.6938  -31.6497   19.2734 N   0  3  0  0  0  0  0  0  0  0  0  0
  -22.6123  -14.9030   21.0145 O   0  0  0  0  0  0  0  0  0  0  0  0
  -29.8079  -27.3799   23.0920 O   0  0  0  0  0  0  0  0  0  0  0  0
  -28.5879  -30.9032   22.5509 O   0  0  0  0  0  0  0  0  0  0  0  0
  -24.3791  -29.4593   20.9010 O   0  0  0  0  0  0  0  0  0  0  0  0
  -31.8175  -14.8374   19.7891 O   0  0  0  0  0  0  0  0  0  0  0  0
  -21.6996   -7.7819   24.0217 O   0  0  0  0  0  0  0  0  0  0  0  0
  -26.9794  -23.6746   18.4257 O   0  0  0  0  0  0  0  0  0  1  0  0
  -22.0048   -2.6938   21.9189 F   0  0  0  0  0  0  0  0  0  0  0  0
  -19.4310   -6.4769   23.1310 F   0  0  0  0  0  0  0  0  0  0  0  0
  1  2  1  0  0  0  0
  1  5  2  0  0  0  0
  2  6  2  0  0  0  0
  3  8  2  0  0  0  0
  3 16  1  0  0  0  0
  4  9  1  0  0  0  0
  4 16  2  0  0  0  0
  5 18  1  0  0  0  0
  6 20  1  0  0  0  0
  7 10  2  0  0  0  0
  7 19  1  0  0  0  0
  8 27  1  0  0  0  0
  9 27  2  0  0  0  0
 10 28  1  0  0  0  0
 11 12  2  0  0  0  0
 11 29  1  0  0  0  0
 12 30  1  0  0  0  0
 13 21  2  0  0  0  0
 13 24  1  0  0  0  0
 14 22  1  0  0  0  0
 14 28  2  0  0  0  0
 15 30  2  0  0  0  0
 15 31  1  0  0  0  0
 16 32  1  0  0  0  0
 17 32  1  0  0  0  0
 17 33  2  0  0  0  0
 17 34  1  0  0  0  0
 18 20  2  0  0  0  0
 18 39  1  0  0  0  0
 19 22  2  0  0  0  0
 19 40  1  0  0  0  0
 20 55  1  0  0  0  0
 21 23  1  0  0  0  0
 21 53  1  0  0  0  0
 22 41  1  0  0  0  0
 23 25  2  0  0  0  0
 23 54  1  0  0  0  0
 24 26  2  0  0  0  0
 24 59  1  0  0  0  0
 25 26  1  0  0  0  0
 25 60  1  0  0  0  0
 26 66  1  0  0  0  0
 27 85  1  0  0  0  0
 28 86  1  0  0  0  0
 29 31  2  0  0  0  0
 29 85  1  0  0  0  0
 30 87  1  0  0  0  0
 31 88  1  0  0  0  0
 32 70  2  0  0  0  0
 33 71  1  0  0  0  0
 33 74  1  0  0  0  0
 34 75  1  0  0  0  0
 34 80  2  0  0  0  0
 35 56  1  0  0  0  0
 35 76  1  0  0  0  0
 35 81  2  0  0  0  0
 36 67  1  0  0  0  0
 36 72  1  0  0  0  0
 36 82  2  0  0  0  0
 37 68  1  0  0  0  0
 37 77  1  0  0  0  0
 37 83  2  0  0  0  0
 38 73  1  0  0  0  0
 38 78  1  0  0  0  0
 38 84  2  0  0  0  0
 39 42  1  0  0  0  0
 40 56  1  0  0  0  0
 41 72  1  0  0  0  0
 42 47  1  0  0  0  0
 43 48  1  0  0  0  0
 43 51  1  0  0  0  0
 44 45  1  0  0  0  0
 44 53  1  0  0  0  0
 45 53  1  0  0  0  0
 46 49  1  0  0  0  0
 46 54  1  0  0  0  0
 47 55  1  0  0  0  0
 48 57  1  0  0  0  0
 49 58  1  0  0  0  0
 50 54  1  0  0  0  0
 50 58  1  0  0  0  0
 51 73  1  0  0  0  0
 52 57  1  0  0  0  0
 52 73  1  0  0  0  0
 55 76  1  0  0  0  0
 56 72  1  0  0  0  0
 57 71  1  0  0  0  0
 58 86  1  0  0  0  0
 61 68  1  0  0  0  0
 62 69  1  0  0  0  0
 63 69  1  0  0  0  0
 64 69  1  0  0  0  0
 65 79  1  0  0  0  0
 66 78  1  0  0  0  0
 67 69  1  0  0  0  0
 67 77  1  0  0  0  0
 68 79  1  0  0  0  0
 70 71  1  0  0  0  0
M  CHG  1  79   1
M  ISO  4  38 100  58 101  78 100  86 101
M  END
> <Batch ID>
0175

> <Smiles>
CNC(C)C(=O)NC(C(=O)N1Cc2cc([101O:1][101CH:1]3CCC(c4c(C5CC5)cc(C)c(C[100NH:0][100C:0](=O)N5CCCC(n6nc(-c7ccc(Oc8ccc(F)cc8F)cc7)c(C(N)=O)c6N)C5)c4C)C3)ccc2CC1C(=O)NC1CCCc2ccccc21)C(C)(C)C

> <Shape>
0.315

> <Color>
0.158

> <Negative vol penalty>
0.000

$$$$

  -OEChem-04052322473D

 86 96  0     1  0  0  0  0  0999 V2000
  -17.2712  -22.1971   26.0220 C   0  0  0  0  0  0  0  0  0  0  0  0
  -18.6030  -22.1345   25.6247 C   0  0  0  0  0  0  0  0  0  0  0  0
  -22.9983   -9.8994   19.9801 C   0  0  0  0  0  0  0  0  0  0  0  0
  -23.7334   -9.9413   22.2812 C   0  0  0  0  0  0  0  0  0  0  0  0
  -16.3536  -22.9272   25.2677 C   0  0  0  0  0  0  0  0  0  0  0  0
  -19.0178  -22.8010   24.4722 C   0  0  0  0  0  0  0  0  0  0  0  0
  -23.3576  -25.3232   25.1422 C   0  0  0  0  0  0  0  0  0  0  0  0
  -22.2333   -8.7636   20.2452 C   0  0  0  0  0  0  0  0  0  0  0  0
  -22.9682   -8.8055   22.5463 C   0  0  0  0  0  0  0  0  0  0  0  0
  -24.5360  -24.5782   25.1266 C   0  0  0  0  0  0  0  0  0  0  0  0
  -23.2115   -5.4686   22.0599 C   0  0  0  0  0  0  0  0  0  0  0  0
  -23.8025   -4.4486   22.8054 C   0  0  0  0  0  0  0  0  0  0  0  0
  -24.9257  -25.2537   22.8438 C   0  0  0  0  0  0  0  0  0  0  0  0
  -28.7647  -18.1926   22.1737 C   0  0  0  0  0  0  0  0  0  0  0  0
  -22.0857   -4.6842   24.4889 C   0  0  0  0  0  0  0  0  0  0  0  0
  -29.6707  -18.8556   24.7239 C   0  0  0  0  0  0  0  0  0  0  0  0
  -23.7484  -10.4883   20.9981 C   0  0  0  0  0  0  0  0  0  0  0  0
  -24.1323  -13.0046   20.8306 C   0  0  0  0  0  0  0  0  0  0  0  0
  -16.7593  -23.6110   24.1108 C   0  0  0  0  0  0  0  0  0  0  0  0
  -22.9482  -26.0314   24.0032 C   0  0  0  0  0  0  0  0  0  0  0  0
  -18.1044  -23.5398   23.7011 C   0  0  0  0  0  0  0  0  0  0  0  0
  -23.7431  -26.0090   22.8483 C   0  0  0  0  0  0  0  0  0  0  0  0
  -28.0232  -19.0125   22.9909 C   0  0  0  0  0  0  0  0  0  0  0  0
  -28.4744  -19.3483   24.2749 C   0  0  0  0  0  0  0  0  0  0  0  0
  -22.2182   -8.2167   21.5282 C   0  0  0  0  0  0  0  0  0  0  0  0
  -25.3187  -24.5410   23.9764 C   0  0  0  0  0  0  0  0  0  0  0  0
  -22.0576   -6.0966   22.5289 C   0  0  0  0  0  0  0  0  0  0  0  0
  -23.2396   -4.0563   24.0199 C   0  0  0  0  0  0  0  0  0  0  0  0
  -21.4947   -5.7043   23.7434 C   0  0  0  0  0  0  0  0  0  0  0  0
  -24.5394  -11.6612   20.7249 C   0  0  0  0  0  0  0  0  0  0  0  0
  -29.9614  -17.7363   22.7111 C   0  0  0  0  0  0  0  0  0  0  0  0
  -25.2403  -13.7290   20.4644 C   0  0  0  0  0  0  0  0  0  0  0  0
  -22.8659  -13.5491   21.2248 C   0  0  0  0  0  0  0  0  0  0  0  0
  -20.4230  -25.9140   22.0762 C   0  0  0  0  0  0  0  0  0  0  0  0
  -21.7834  -28.5547   20.7730 C   0  0  0  0  0  0  0  0  0  0  0  0
  -24.6081  -30.3924   20.2340 C   0  0  0  0  0  0  0  0  0  0  0  0
  -30.7374  -14.6642   20.6932 C   0  0  0  0  0  0  0  0  0  0  0  0
  -15.7216  -24.3483   23.3019 C   0  0  0  0  0  0  0  0  0  0  0  0
  -21.6882  -26.8519   24.0448 C   0  0  0  0  0  0  0  0  0  0  0  0
  -23.3582  -26.7682   21.6058 C   0  0  0  0  0  0  0  0  0  0  0  0
  -16.3175  -25.3341   22.3003 C   0  0  0  0  0  0  0  0  0  0  0  0
  -29.5874  -12.2497   18.3429 C   0  0  0  0  0  0  0  0  0  0  0  0
  -17.4615  -24.6847   21.5281 C   0  0  0  0  0  0  0  0  0  0  0  0
  -28.1408  -11.9878   18.7656 C   0  0  0  0  0  0  0  0  0  0  0  0
  -26.1995  -19.6111   24.2734 C   0  0  0  0  0  0  0  0  0  0  0  0
  -26.9636  -21.2375   22.6905 C   0  0  0  0  0  0  0  0  0  0  0  0
  -30.4949  -12.4804   19.5492 C   0  0  0  0  0  0  0  0  0  0  0  0
  -28.5903  -13.2700   20.8993 C   0  0  0  0  0  0  0  0  0  0  0  0
  -27.4562  -20.2789   24.8826 C   0  0  2  0  0  0  0  0  0  0  0  0
  -18.5977  -24.2697   22.4706 C   0  0  1  0  0  0  0  0  0  0  0  0
  -21.1033  -27.1192   22.6614 C   0  0  1  0  0  0  0  0  0  0  0  0
  -27.6263  -13.0868   19.7147 C   0  0  2  0  0  0  0  0  0  0  0  0
  -26.6911  -19.7104   22.8116 C   0  0  1  0  0  0  0  0  0  0  0  0
  -27.4832  -21.6438   24.1181 C   0  0  1  0  0  0  0  0  0  0  0  0
  -25.7531  -19.1384   21.7733 C   0  0  0  0  0  0  0  0  0  0  0  0
  -28.8774  -22.2872   24.0550 C   0  0  0  0  0  0  0  0  0  0  0  0
  -25.4121  -32.4831   19.1025 C   0  0  0  0  0  0  0  0  0  0  0  0
  -21.6218  -27.1505   18.0690 C   0  0  0  0  0  0  0  0  0  0  0  0
  -23.2553  -28.8263   17.1793 C   0  0  0  0  0  0  0  0  0  0  0  0
  -21.0308  -29.5800   18.0197 C   0  0  0  0  0  0  0  0  0  0  0  0
  -25.5177  -31.5668   22.7937 C   0  0  0  0  0  0  0  0  0  0  0  0
  -30.8246  -16.8384   21.8868 C   0  0  0  0  0  0  0  0  0  0  0  0
  -26.5312  -22.6586   24.7778 C   0  0  0  0  0  0  0  0  0  1  0  0
  -22.7832  -28.8090   19.6709 C   0  0  1  0  0  0  0  0  0  0  0  0
  -24.8914  -31.8750   20.3955 C   0  0  2  0  0  0  0  0  0  0  0  0
  -22.1793  -28.5755   18.2574 C   0  0  0  0  0  0  0  0  0  0  0  0
  -30.4314  -18.0424   23.9560 N   0  0  0  0  0  0  0  0  0  0  0  0
  -25.8070  -11.5366   20.3227 N   0  0  0  0  0  0  0  0  0  0  0  0
  -26.2060  -12.8112   20.1726 N   0  0  0  0  0  0  0  0  0  0  0  0
  -22.1143  -27.5507   21.6940 N   0  0  0  0  0  0  0  0  0  0  0  0
  -29.9515  -13.5356   20.4079 N   0  0  0  0  0  0  0  0  0  0  0  0
  -25.4730  -15.0552   20.3667 N   0  0  0  0  0  0  0  0  0  0  0  0
  -21.8358  -12.6633   21.5691 N   0  0  0  0  0  0  0  0  0  0  0  0
  -19.3877  -25.4222   22.8480 N   0  0  0  0  0  0  0  0  0  0  0  0
  -23.2944  -30.1583   19.8868 N   0  0  0  0  0  0  0  0  0  0  0  0
  -30.1443  -15.6195   21.5095 N   0  0  0  0  0  0  0  0  0  0  0  0
  -25.9094  -32.0948   21.4615 N   0  3  0  0  0  0  0  0  0  0  0  0
  -22.6489  -14.7843   21.2544 O   0  0  0  0  0  0  0  0  0  0  0  0
  -20.8080  -25.4645   21.0031 O   0  0  0  0  0  0  0  0  0  0  0  0
  -20.7503  -29.2272   20.8193 O   0  0  0  0  0  0  0  0  0  0  0  0
  -25.4674  -29.5286   20.3957 O   0  0  0  0  0  0  0  0  0  0  0  0
  -31.8809  -14.8122   20.2488 O   0  0  0  0  0  0  0  0  0  0  0  0
  -21.4715   -7.1086   21.7873 O   0  0  0  0  0  0  0  0  0  0  0  0
  -26.4811  -23.8065   23.9581 O   0  0  0  0  0  0  0  0  0  1  0  0
  -23.8064   -3.0757   24.7349 F   0  0  0  0  0  0  0  0  0  0  0  0
  -20.3856   -6.3031   24.1986 F   0  0  0  0  0  0  0  0  0  0  0  0
  1  2  1  0  0  0  0
  1  5  2  0  0  0  0
  2  6  2  0  0  0  0
  3  8  2  0  0  0  0
  3 17  1  0  0  0  0
  4  9  1  0  0  0  0
  4 17  2  0  0  0  0
  5 19  1  0  0  0  0
  6 21  1  0  0  0  0
  7 10  2  0  0  0  0
  7 20  1  0  0  0  0
  8 25  1  0  0  0  0
  9 25  2  0  0  0  0
 10 26  1  0  0  0  0
 11 12  2  0  0  0  0
 11 27  1  0  0  0  0
 12 28  1  0  0  0  0
 13 22  1  0  0  0  0
 13 26  2  0  0  0  0
 14 23  1  0  0  0  0
 14 31  2  0  0  0  0
 15 28  2  0  0  0  0
 15 29  1  0  0  0  0
 16 24  1  0  0  0  0
 16 67  2  0  0  0  0
 17 30  1  0  0  0  0
 18 30  1  0  0  0  0
 18 32  2  0  0  0  0
 18 33  1  0  0  0  0
 19 21  2  0  0  0  0
 19 38  1  0  0  0  0
 20 22  2  0  0  0  0
 20 39  1  0  0  0  0
 21 50  1  0  0  0  0
 22 40  1  0  0  0  0
 23 24  2  0  0  0  0
 23 53  1  0  0  0  0
 24 49  1  0  0  0  0
 25 83  1  0  0  0  0
 26 84  1  0  0  0  0
 27 29  2  0  0  0  0
 27 83  1  0  0  0  0
 28 85  1  0  0  0  0
 29 86  1  0  0  0  0
 30 68  2  0  0  0  0
 31 62  1  0  0  0  0
 31 67  1  0  0  0  0
 32 69  1  0  0  0  0
 32 72  1  0  0  0  0
 33 73  1  0  0  0  0
 33 78  2  0  0  0  0
 34 51  1  0  0  0  0
 34 74  1  0  0  0  0
 34 79  2  0  0  0  0
 35 64  1  0  0  0  0
 35 70  1  0  0  0  0
 35 80  2  0  0  0  0
 36 65  1  0  0  0  0
 36 75  1  0  0  0  0
 36 81  2  0  0  0  0
 37 71  1  0  0  0  0
 37 76  1  0  0  0  0
 37 82  2  0  0  0  0
 38 41  1  0  0  0  0
 39 51  1  0  0  0  0
 40 70  1  0  0  0  0
 41 43  1  0  0  0  0
 42 44  1  0  0  0  0
 42 47  1  0  0  0  0
 43 50  1  0  0  0  0
 44 52  1  0  0  0  0
 45 49  1  0  0  0  0
 45 53  1  0  0  0  0
 46 53  1  0  0  0  0
 46 54  1  0  0  0  0
 47 71  1  0  0  0  0
 48 52  1  0  0  0  0
 48 71  1  0  0  0  0
 49 54  1  0  0  0  0
 50 74  1  0  0  0  0
 51 70  1  0  0  0  0
 52 69  1  0  0  0  0
 53 55  1  0  0  0  0
 54 56  1  0  0  0  0
 54 63  1  0  0  0  0
 57 65  1  0  0  0  0
 58 66  1  0  0  0  0
 59 66  1  0  0  0  0
 60 66  1  0  0  0  0
 61 77  1  0  0  0  0
 62 76  1  0  0  0  0
 63 84  1  0  0  0  0
 64 66  1  0  0  0  0
 64 75  1  0  0  0  0
 65 77  1  0  0  0  0
 68 69  1  0  0  0  0
M  CHG  1  77   1
M  ISO  4  37 100  63 101  76 100  84 101
M  END
> <Batch ID>
0175

> <Smiles>
CNC(C)C(=O)NC(C(=O)N1Cc2cc([101O:1][101CH2:1]C3(C)CC4(C)CC3c3cnc(C[100NH:0][100C:0](=O)N5CCCC(n6nc(-c7ccc(Oc8ccc(F)cc8F)cc7)c(C(N)=O)c6N)C5)cc34)ccc2CC1C(=O)NC1CCCc2ccccc21)C(C)(C)C

> <Shape>
0.263

> <Color>
0.177

> <Negative vol penalty>
0.000

$$$$

  -OEChem-04052322473D

 83 92  0     1  0  0  0  0  0999 V2000
  -31.2545  -32.8489   23.8729 C   0  0  0  0  0  0  0  0  0  0  0  0
  -30.6130  -31.6432   23.6082 C   0  0  0  0  0  0  0  0  0  0  0  0
  -24.0181   -8.9757   21.4512 C   0  0  0  0  0  0  0  0  0  0  0  0
  -25.1266  -10.0660   23.3004 C   0  0  0  0  0  0  0  0  0  0  0  0
  -30.5183  -33.9457   24.3191 C   0  0  0  0  0  0  0  0  0  0  0  0
  -29.2349  -31.5332   23.7905 C   0  0  0  0  0  0  0  0  0  0  0  0
  -28.0415  -21.4298   20.5587 C   0  0  0  0  0  0  0  0  0  0  0  0
  -26.9513  -29.1499   19.9499 C   0  0  0  0  0  0  0  0  0  0  0  0
  -28.1241  -22.8222   20.5583 C   0  0  0  0  0  0  0  0  0  0  0  0
  -23.7081   -7.8936   22.2750 C   0  0  0  0  0  0  0  0  0  0  0  0
  -24.8166   -8.9840   24.1242 C   0  0  0  0  0  0  0  0  0  0  0  0
  -27.0502  -27.7597   19.9143 C   0  0  0  0  0  0  0  0  0  0  0  0
  -21.4311   -7.1525   24.6622 C   0  0  0  0  0  0  0  0  0  0  0  0
  -20.1345   -6.6420   24.6014 C   0  0  0  0  0  0  0  0  0  0  0  0
  -24.8356  -27.5840   20.8543 C   0  0  0  0  0  0  0  0  0  0  0  0
  -26.2086  -22.9356   19.0904 C   0  0  0  0  0  0  0  0  0  0  0  0
  -21.0114   -4.4950   23.9245 C   0  0  0  0  0  0  0  0  0  0  0  0
  -24.7274  -10.0619   21.9639 C   0  0  0  0  0  0  0  0  0  0  0  0
  -24.1446  -12.0150   20.4298 C   0  0  0  0  0  0  0  0  0  0  0  0
  -29.1291  -33.8519   24.4977 C   0  0  0  0  0  0  0  0  0  0  0  0
  -25.7961  -29.7687   20.4490 C   0  0  0  0  0  0  0  0  0  0  0  0
  -28.4796  -32.6294   24.2407 C   0  0  0  0  0  0  0  0  0  0  0  0
  -27.0424  -20.7903   19.8248 C   0  0  0  0  0  0  0  0  0  0  0  0
  -24.7235  -28.9822   20.8929 C   0  0  0  0  0  0  0  0  0  0  0  0
  -27.2077  -23.5751   19.8242 C   0  0  0  0  0  0  0  0  0  0  0  0
  -24.1073   -7.8978   23.6115 C   0  0  0  0  0  0  0  0  0  0  0  0
  -25.9935  -26.9765   20.3692 C   0  0  0  0  0  0  0  0  0  0  0  0
  -22.5180   -6.3342   24.3541 C   0  0  0  0  0  0  0  0  0  0  0  0
  -19.9246   -5.3133   24.2326 C   0  0  0  0  0  0  0  0  0  0  0  0
  -22.3081   -5.0054   23.9853 C   0  0  0  0  0  0  0  0  0  0  0  0
  -26.1259  -21.5431   19.0907 C   0  0  0  0  0  0  0  0  0  0  0  0
  -25.0485  -11.1797   21.1132 C   0  0  0  0  0  0  0  0  0  0  0  0
  -24.9427  -12.9153   19.7674 C   0  0  0  0  0  0  0  0  0  0  0  0
  -22.7116  -11.9802   20.3968 C   0  0  0  0  0  0  0  0  0  0  0  0
  -25.1674  -31.7174   22.8803 C   0  0  0  0  0  0  0  0  0  0  0  0
  -22.2094  -31.7884   21.5509 C   0  0  0  0  0  0  0  0  0  0  0  0
  -19.8812  -30.2578   19.5803 C   0  0  0  0  0  0  0  0  0  0  0  0
  -29.3120  -16.3800   19.7079 C   0  0  0  0  0  0  0  0  0  0  0  0
  -28.3826  -35.0508   25.0271 C   0  0  0  0  0  0  0  0  0  0  0  0
  -25.6944  -31.2693   20.4559 C   0  0  0  0  0  0  0  0  0  0  0  0
  -23.4535  -29.5975   21.4192 C   0  0  0  0  0  0  0  0  0  0  0  0
  -26.8708  -34.9600   24.8362 C   0  0  0  0  0  0  0  0  0  0  0  0
  -29.9220  -12.9752   18.9885 C   0  0  0  0  0  0  0  0  0  0  0  0
  -26.3607  -33.5865   25.2604 C   0  0  0  0  0  0  0  0  0  0  0  0
  -28.6543  -12.2604   19.4483 C   0  0  0  0  0  0  0  0  0  0  0  0
  -26.8345  -18.6155   21.2307 C   0  0  0  0  0  0  0  0  0  0  0  0
  -30.2729  -14.1161   19.9341 C   0  0  0  0  0  0  0  0  0  0  0  0
  -27.2192  -17.1674   20.9588 C   0  0  0  0  0  0  0  0  0  0  0  0
  -28.2517  -18.5849   19.3258 C   0  0  0  0  0  0  0  0  0  0  0  0
  -27.8855  -14.4395   20.5221 C   0  0  0  0  0  0  0  0  0  0  0  0
  -26.9875  -19.2788   19.8523 C   0  0  2  0  0  0  0  0  0  0  0  0
  -26.9826  -32.4779   24.4027 C   0  0  1  0  0  0  0  0  0  0  0  0
  -24.6755  -31.7945   21.4627 C   0  0  1  0  0  0  0  0  0  0  0  0
  -27.4973  -13.2588   19.6083 C   0  0  2  0  0  0  0  0  0  0  0  0
  -17.5442  -30.5401   18.7106 C   0  0  0  0  0  0  0  0  0  0  0  0
  -21.1004  -30.9937   24.2800 C   0  0  0  0  0  0  0  0  0  0  0  0
  -18.9542  -30.3735   23.1498 C   0  0  0  0  0  0  0  0  0  0  0  0
  -19.7641  -32.7318   23.0769 C   0  0  0  0  0  0  0  0  0  0  0  0
  -20.8062  -30.2828   16.7691 C   0  0  0  0  0  0  0  0  0  0  0  0
  -27.2973  -25.0640   19.8230 C   0  0  0  0  0  0  0  0  0  1  0  0
  -20.9492  -30.9713   21.7027 C   0  0  1  0  0  0  0  0  0  0  0  0
  -19.0217  -30.7820   18.4441 C   0  0  2  0  0  0  0  0  0  0  0  0
  -20.2165  -31.2557   23.0443 C   0  0  0  0  0  0  0  0  0  0  0  0
  -26.3233  -11.5190   20.9041 N   0  0  0  0  0  0  0  0  0  0  0  0
  -26.2262  -12.5775   20.0818 N   0  0  0  0  0  0  0  0  0  0  0  0
  -23.4047  -31.0689   21.4116 N   0  0  0  0  0  0  0  0  0  0  0  0
  -29.1552  -15.0466   20.1021 N   0  0  0  0  0  0  0  0  0  0  0  0
  -28.2464  -17.2532   19.9228 N   0  0  0  0  0  0  0  0  0  0  0  0
  -24.6649  -13.9550   18.9524 N   0  0  0  0  0  0  0  0  0  0  0  0
  -22.0031  -12.7170   21.3556 N   0  0  0  0  0  0  0  0  0  0  0  0
  -26.3367  -32.4173   23.1090 N   0  0  0  0  0  0  0  0  0  0  0  0
  -20.1450  -31.2368   20.5148 N   0  0  0  0  0  0  0  0  0  0  0  0
  -19.3853  -30.1075   17.1658 N   0  3  0  0  0  0  0  0  0  0  0  0
  -22.0783  -11.3023   19.5524 O   0  0  0  0  0  0  0  0  0  0  0  0
  -24.5323  -31.0718   23.7059 O   0  0  0  0  0  0  0  0  0  0  0  0
  -22.1352  -33.0197   21.5485 O   0  0  0  0  0  0  0  0  0  0  0  0
  -20.2757  -29.0951   19.6354 O   0  0  0  0  0  0  0  0  0  0  0  0
  -30.3761  -16.7855   19.2210 O   0  0  0  0  0  0  0  0  0  0  0  0
  -23.8048   -6.8422   24.4157 O   0  0  0  0  0  0  0  0  0  0  0  0
  -26.0883  -25.6099   20.3359 O   0  0  0  0  0  0  0  0  0  1  0  0
  -18.6795   -4.8228   24.1758 F   0  0  0  0  0  0  0  0  0  0  0  0
  -23.3483   -4.2141   23.6893 F   0  0  0  0  0  0  0  0  0  0  0  0
  -24.8775  -20.7852   18.1707 Cl  0  0  0  0  0  0  0  0  0  0  0  0
  1  2  1  0  0  0  0
  1  5  2  0  0  0  0
  2  6  2  0  0  0  0
  3 10  2  0  0  0  0
  3 18  1  0  0  0  0
  4 11  1  0  0  0  0
  4 18  2  0  0  0  0
  5 20  1  0  0  0  0
  6 22  1  0  0  0  0
  7  9  2  0  0  0  0
  7 23  1  0  0  0  0
  8 12  2  0  0  0  0
  8 21  1  0  0  0  0
  9 25  1  0  0  0  0
 10 26  1  0  0  0  0
 11 26  2  0  0  0  0
 12 27  1  0  0  0  0
 13 14  2  0  0  0  0
 13 28  1  0  0  0  0
 14 29  1  0  0  0  0
 15 24  1  0  0  0  0
 15 27  2  0  0  0  0
 16 25  2  0  0  0  0
 16 31  1  0  0  0  0
 17 29  2  0  0  0  0
 17 30  1  0  0  0  0
 18 32  1  0  0  0  0
 19 32  1  0  0  0  0
 19 33  2  0  0  0  0
 19 34  1  0  0  0  0
 20 22  2  0  0  0  0
 20 39  1  0  0  0  0
 21 24  2  0  0  0  0
 21 40  1  0  0  0  0
 22 52  1  0  0  0  0
 23 31  2  0  0  0  0
 23 51  1  0  0  0  0
 24 41  1  0  0  0  0
 25 60  1  0  0  0  0
 26 79  1  0  0  0  0
 27 80  1  0  0  0  0
 28 30  2  0  0  0  0
 28 79  1  0  0  0  0
 29 81  1  0  0  0  0
 30 82  1  0  0  0  0
 31 83  1  0  0  0  0
 32 64  2  0  0  0  0
 33 65  1  0  0  0  0
 33 69  1  0  0  0  0
 34 70  1  0  0  0  0
 34 74  2  0  0  0  0
 35 53  1  0  0  0  0
 35 71  1  0  0  0  0
 35 75  2  0  0  0  0
 36 61  1  0  0  0  0
 36 66  1  0  0  0  0
 36 76  2  0  0  0  0
 37 62  1  0  0  0  0
 37 72  1  0  0  0  0
 37 77  2  0  0  0  0
 38 67  1  0  0  0  0
 38 68  1  0  0  0  0
 38 78  2  0  0  0  0
 39 42  1  0  0  0  0
 40 53  1  0  0  0  0
 41 66  1  0  0  0  0
 42 44  1  0  0  0  0
 43 45  1  0  0  0  0
 43 47  1  0  0  0  0
 44 52  1  0  0  0  0
 45 54  1  0  0  0  0
 46 48  1  0  0  0  0
 46 51  1  0  0  0  0
 47 67  1  0  0  0  0
 48 68  1  0  0  0  0
 49 51  1  0  0  0  0
 49 68  1  0  0  0  0
 50 54  1  0  0  0  0
 50 67  1  0  0  0  0
 52 71  1  0  0  0  0
 53 66  1  0  0  0  0
 54 65  1  0  0  0  0
 55 62  1  0  0  0  0
 56 63  1  0  0  0  0
 57 63  1  0  0  0  0
 58 63  1  0  0  0  0
 59 73  1  0  0  0  0
 60 80  1  0  0  0  0
 61 63  1  0  0  0  0
 61 72  1  0  0  0  0
 62 73  1  0  0  0  0
 64 65  1  0  0  0  0
M  CHG  1  73   1
M  ISO  4  38 100  60 101  68 100  80 101
M  END
> <Batch ID>
0175

> <Smiles>
CNC(C)C(=O)NC(C(=O)N1Cc2cc([101O:1][101CH2:1]c3ccc(C4CC[100N:0]([100C:0](=O)N5CCCC(n6nc(-c7ccc(Oc8ccc(F)cc8F)cc7)c(C(N)=O)c6N)C5)C4)c(Cl)c3)ccc2CC1C(=O)NC1CCCc2ccccc21)C(C)(C)C

> <Shape>
0.286

> <Color>
0.104

> <Negative vol penalty>
0.000

$$$$

  -OEChem-04052322473D

 91102  0     1  0  0  0  0  0999 V2000
  -23.8502  -15.8635   28.1171 C   0  0  0  0  0  0  0  0  0  0  0  0
  -24.2453  -16.7630   27.1321 C   0  0  0  0  0  0  0  0  0  0  0  0
  -22.1613  -28.5455   21.3265 C   0  0  0  0  0  0  0  0  0  0  0  0
  -23.1492  -27.6551   23.3435 C   0  0  0  0  0  0  0  0  0  0  0  0
  -24.3578  -14.5649   28.1178 C   0  0  0  0  0  0  0  0  0  0  0  0
  -25.1491  -16.3647   26.1478 C   0  0  0  0  0  0  0  0  0  0  0  0
  -25.2437  -18.1596   20.2933 C   0  0  0  0  0  0  0  0  0  0  0  0
  -20.8884  -28.3120   21.8469 C   0  0  0  0  0  0  0  0  0  0  0  0
  -21.8763  -27.4217   23.8639 C   0  0  0  0  0  0  0  0  0  0  0  0
  -25.9939  -19.1223   19.6193 C   0  0  0  0  0  0  0  0  0  0  0  0
  -18.7933  -29.7802   24.0578 C   0  0  0  0  0  0  0  0  0  0  0  0
  -17.8433  -30.7930   23.9260 C   0  0  0  0  0  0  0  0  0  0  0  0
  -27.5546  -17.4161   18.9320 C   0  0  0  0  0  0  0  0  0  0  0  0
  -16.4267  -29.2994   22.6612 C   0  0  0  0  0  0  0  0  0  0  0  0
  -23.2917  -28.2170   22.0748 C   0  0  0  0  0  0  0  0  0  0  0  0
  -25.3806  -29.6255   21.6745 C   0  0  0  0  0  0  0  0  0  0  0  0
  -25.2608  -14.1476   27.1273 C   0  0  0  0  0  0  0  0  0  0  0  0
  -25.6499  -16.8174   20.3007 C   0  0  0  0  0  0  0  0  0  0  0  0
  -25.6702  -15.0597   26.1359 C   0  0  0  0  0  0  0  0  0  0  0  0
  -26.8064  -16.4379   19.6046 C   0  0  0  0  0  0  0  0  0  0  0  0
  -20.7458  -27.7501   23.1156 C   0  0  0  0  0  0  0  0  0  0  0  0
  -27.1511  -18.7511   18.9410 C   0  0  0  0  0  0  0  0  0  0  0  0
  -18.5601  -28.5271   23.4913 C   0  0  0  0  0  0  0  0  0  0  0  0
  -16.6600  -30.5526   23.2277 C   0  0  0  0  0  0  0  0  0  0  0  0
  -17.3768  -28.2867   22.7930 C   0  0  0  0  0  0  0  0  0  0  0  0
  -24.6069  -28.4574   21.5376 C   0  0  0  0  0  0  0  0  0  0  0  0
  -26.5385  -29.3528   20.9880 C   0  0  0  0  0  0  0  0  0  0  0  0
  -31.0048  -19.5354   22.0608 C   0  0  0  0  0  0  0  0  0  0  0  0
  -31.2545  -18.4543   21.2878 C   0  0  0  0  0  0  0  0  0  0  0  0
  -30.1977  -20.6156   21.4106 C   0  0  0  0  0  0  0  0  0  0  0  0
  -30.6669  -18.3961   19.9027 C   0  0  0  0  0  0  0  0  0  0  0  0
  -25.0796  -30.8477   22.3610 C   0  0  0  0  0  0  0  0  0  0  0  0
  -26.5177  -14.7490   22.5529 C   0  0  0  0  0  0  0  0  0  0  0  0
  -26.5247  -12.6530   20.0772 C   0  0  0  0  0  0  0  0  0  0  0  0
  -26.7764  -12.1450   16.7118 C   0  0  0  0  0  0  0  0  0  0  0  0
  -29.4106  -24.4309   19.5978 C   0  0  0  0  0  0  0  0  0  0  0  0
  -25.8186  -12.7480   27.1967 C   0  0  0  0  0  0  0  0  0  0  0  0
  -24.8151  -15.7867   21.0101 C   0  0  0  0  0  0  0  0  0  0  0  0
  -27.2745  -15.0069   19.5651 C   0  0  0  0  0  0  0  0  0  0  0  0
  -26.4837  -12.2925   25.9004 C   0  0  0  0  0  0  0  0  0  0  0  0
  -28.2298  -26.7726   17.3461 C   0  0  0  0  0  0  0  0  0  0  0  0
  -27.4105  -13.3794   25.3652 C   0  0  0  0  0  0  0  0  0  0  0  0
  -30.4986  -19.9686   24.5225 C   0  0  0  0  0  0  0  0  0  0  0  0
  -31.1726  -18.6311   24.4390 C   0  0  0  0  0  0  0  0  0  0  0  0
  -33.2489  -16.9042   20.9359 C   0  0  0  0  0  0  0  0  0  0  0  0
  -33.4476  -17.5865   22.2569 C   0  0  0  0  0  0  0  0  0  0  0  0
  -27.2303  -27.5887   18.1638 C   0  0  0  0  0  0  0  0  0  0  0  0
  -28.4402  -22.1086   22.3573 C   0  0  0  0  0  0  0  0  0  0  0  0
  -28.1153  -25.2892   17.6742 C   0  0  0  0  0  0  0  0  0  0  0  0
  -28.0570  -22.9023   21.1175 C   0  0  0  0  0  0  0  0  0  0  0  0
  -27.3234  -25.7928   19.9673 C   0  0  0  0  0  0  0  0  0  0  0  0
  -26.6296  -14.6577   25.0368 C   0  0  1  0  0  0  0  0  0  0  0  0
  -31.5005  -19.6990   23.4557 C   0  0  0  0  0  0  0  0  0  0  0  0
  -32.0772  -17.2991   21.7597 C   0  0  0  0  0  0  0  0  0  0  0  0
  -29.9374  -21.8660   22.1977 C   0  0  2  0  0  0  0  0  0  0  0  0
  -25.6016  -14.5334   21.3816 C   0  0  1  0  0  0  0  0  0  0  0  0
  -27.3915  -27.3045   19.6668 C   0  0  2  0  0  0  0  0  0  0  0  0
  -30.4443  -23.0964   21.4353 C   0  0  2  0  0  0  0  0  0  0  0  0
  -31.0192  -24.1511   22.3790 C   0  0  0  0  0  0  0  0  0  0  0  0
  -26.7828  -10.3193   14.9903 C   0  0  0  0  0  0  0  0  0  0  0  0
  -29.8520  -20.6792   17.3589 C   0  0  0  0  0  0  0  0  0  0  0  0
  -29.3777  -11.9179   20.8709 C   0  0  0  0  0  0  0  0  0  0  0  0
  -29.6527  -10.8477   18.6243 C   0  0  0  0  0  0  0  0  0  0  0  0
  -27.9433   -9.9761   20.2182 C   0  0  0  0  0  0  0  0  0  0  0  0
  -24.3758  -13.2410   15.3721 C   0  0  0  0  0  0  0  0  0  0  0  0
  -27.5495  -12.1931   19.0686 C   0  0  1  0  0  0  0  0  0  0  0  0
  -25.9338  -11.3258   15.7510 C   0  0  2  0  0  0  0  0  0  0  0  0
  -29.3018  -19.5046   18.1563 C   0  0  1  0  0  0  0  0  0  1  0  0
  -28.6233  -11.2611   19.6977 C   0  0  0  0  0  0  0  0  0  0  0  0
  -25.2214  -27.5130   20.8203 N   0  0  0  0  0  0  0  0  0  0  0  0
  -29.6921  -20.5756   20.2249 N   0  0  0  0  0  0  0  0  0  0  0  0
  -26.3935  -28.0873   20.5003 N   0  0  0  0  0  0  0  0  0  0  0  0
  -29.9122  -19.4714   19.4761 N   0  0  0  0  0  0  0  0  0  0  0  0
  -26.4277  -14.0371   20.2791 N   0  0  0  0  0  0  0  0  0  0  0  0
  -28.2520  -25.0459   19.1095 N   0  0  0  0  0  0  0  0  0  0  0  0
  -29.2682  -23.6280   20.7341 N   0  0  0  0  0  0  0  0  0  0  0  0
  -27.6564  -30.0744   20.7598 N   0  0  0  0  0  0  0  0  0  0  0  0
  -23.8449  -30.9604   23.0145 N   0  0  0  0  0  0  0  0  0  0  0  0
  -25.9275  -14.5121   23.7797 N   0  0  0  0  0  0  0  0  0  0  0  0
  -26.8007  -11.5876   17.9728 N   0  0  0  0  0  0  0  0  0  0  0  0
  -25.2620  -12.2162   14.7626 N   0  3  0  0  0  0  0  0  0  0  0  0
  -30.8745  -17.3980   19.2092 O   0  0  0  0  0  0  0  0  0  0  0  0
  -25.8750  -31.8175   22.3799 O   0  0  0  0  0  0  0  0  0  0  0  0
  -27.6747  -15.1025   22.3580 O   0  0  0  0  0  0  0  0  0  0  0  0
  -25.8306  -11.8155   20.6590 O   0  0  0  0  0  0  0  0  0  0  0  0
  -27.3582  -13.1744   16.3764 O   0  0  0  0  0  0  0  0  0  0  0  0
  -30.5019  -24.5671   19.0316 O   0  0  0  0  0  0  0  0  0  0  0  0
  -19.5039  -27.5224   23.6238 O   0  0  0  0  0  0  0  0  0  0  0  0
  -27.8901  -19.6947   18.2788 O   0  0  0  0  0  0  0  0  0  1  0  0
  -15.7471  -31.5248   23.1025 F   0  0  0  0  0  0  0  0  0  0  0  0
  -17.1466  -27.0844   22.2476 F   0  0  0  0  0  0  0  0  0  0  0  0
  1  2  1  0  0  0  0
  1  5  2  0  0  0  0
  2  6  2  0  0  0  0
  3  8  2  0  0  0  0
  3 15  1  0  0  0  0
  4  9  1  0  0  0  0
  4 15  2  0  0  0  0
  5 17  1  0  0  0  0
  6 19  1  0  0  0  0
  7 10  2  0  0  0  0
  7 18  1  0  0  0  0
  8 21  1  0  0  0  0
  9 21  2  0  0  0  0
 10 22  1  0  0  0  0
 11 12  2  0  0  0  0
 11 23  1  0  0  0  0
 12 24  1  0  0  0  0
 13 20  1  0  0  0  0
 13 22  2  0  0  0  0
 14 24  2  0  0  0  0
 14 25  1  0  0  0  0
 15 26  1  0  0  0  0
 16 26  1  0  0  0  0
 16 27  2  0  0  0  0
 16 32  1  0  0  0  0
 17 19  2  0  0  0  0
 17 37  1  0  0  0  0
 18 20  2  0  0  0  0
 18 38  1  0  0  0  0
 19 52  1  0  0  0  0
 20 39  1  0  0  0  0
 21 88  1  0  0  0  0
 22 89  1  0  0  0  0
 23 25  2  0  0  0  0
 23 88  1  0  0  0  0
 24 90  1  0  0  0  0
 25 91  1  0  0  0  0
 26 70  2  0  0  0  0
 27 72  1  0  0  0  0
 27 77  1  0  0  0  0
 28 29  2  0  0  0  0
 28 30  1  0  0  0  0
 28 53  1  0  0  0  0
 29 31  1  0  0  0  0
 29 54  1  0  0  0  0
 30 55  1  0  0  0  0
 30 71  2  0  0  0  0
 31 73  1  0  0  0  0
 31 82  2  0  0  0  0
 32 78  1  0  0  0  0
 32 83  2  0  0  0  0
 33 56  1  0  0  0  0
 33 79  1  0  0  0  0
 33 84  2  0  0  0  0
 34 66  1  0  0  0  0
 34 74  1  0  0  0  0
 34 85  2  0  0  0  0
 35 67  1  0  0  0  0
 35 80  1  0  0  0  0
 35 86  2  0  0  0  0
 36 75  1  0  0  0  0
 36 76  1  0  0  0  0
 36 87  2  0  0  0  0
 37 40  1  0  0  0  0
 38 56  1  0  0  0  0
 39 74  1  0  0  0  0
 40 42  1  0  0  0  0
 41 47  1  0  0  0  0
 41 49  1  0  0  0  0
 42 52  1  0  0  0  0
 43 44  1  0  0  0  0
 43 53  1  0  0  0  0
 44 53  1  0  0  0  0
 45 46  1  0  0  0  0
 45 54  1  0  0  0  0
 46 54  1  0  0  0  0
 47 57  1  0  0  0  0
 48 50  1  0  0  0  0
 48 55  1  0  0  0  0
 49 75  1  0  0  0  0
 50 76  1  0  0  0  0
 51 57  1  0  0  0  0
 51 75  1  0  0  0  0
 52 79  1  0  0  0  0
 55 58  1  0  0  0  0
 56 74  1  0  0  0  0
 57 72  1  0  0  0  0
 58 59  1  0  0  0  0
 58 76  1  0  0  0  0
 60 67  1  0  0  0  0
 61 68  1  0  0  0  0
 62 69  1  0  0  0  0
 63 69  1  0  0  0  0
 64 69  1  0  0  0  0
 65 81  1  0  0  0  0
 66 69  1  0  0  0  0
 66 80  1  0  0  0  0
 67 81  1  0  0  0  0
 68 73  1  0  0  0  0
 68 89  1  0  0  0  0
 70 72  1  0  0  0  0
 71 73  1  0  0  0  0
M  CHG  1  81   1
M  ISO  4  36 100  68 101  76 100  89 101
M  END
> <Batch ID>
0175

> <Smiles>
CNC(C)C(=O)NC(C(=O)N1Cc2cc([101O:1][101CH:1](C)n3nc(C4CC[100N:0]([100C:0](=O)N5CCCC(n6nc(-c7ccc(Oc8ccc(F)cc8F)cc7)c(C(N)=O)c6N)C5)C4C)c(C4CC4)c(C4CC4)c3=O)ccc2CC1C(=O)NC1CCCc2ccccc21)C(C)(C)C

> <Shape>
0.262

> <Color>
0.075

> <Negative vol penalty>
0.000

$$$$

  -OEChem-04052322473D

 81 90  0     1  0  0  0  0  0999 V2000
  -39.8178  -22.2461   15.9274 C   0  0  0  0  0  0  0  0  0  0  0  0
  -38.5939  -21.9387   16.5131 C   0  0  0  0  0  0  0  0  0  0  0  0
  -23.0755   -9.8640   19.9329 C   0  0  0  0  0  0  0  0  0  0  0  0
  -23.8441   -9.8571   22.2234 C   0  0  0  0  0  0  0  0  0  0  0  0
  -40.4132  -23.4836   16.1678 C   0  0  0  0  0  0  0  0  0  0  0  0
  -37.9653  -22.8684   17.3407 C   0  0  0  0  0  0  0  0  0  0  0  0
  -33.0145  -23.3011   16.3670 C   0  0  0  0  0  0  0  0  0  0  0  0
  -22.3369   -8.7063   20.1772 C   0  0  0  0  0  0  0  0  0  0  0  0
  -23.1054   -8.6993   22.4677 C   0  0  0  0  0  0  0  0  0  0  0  0
  -32.1781  -22.3031   16.8650 C   0  0  0  0  0  0  0  0  0  0  0  0
  -19.8826   -7.8849   23.0766 C   0  0  0  0  0  0  0  0  0  0  0  0
  -19.1303   -7.8335   24.2500 C   0  0  0  0  0  0  0  0  0  0  0  0
  -31.5656  -23.7415   18.7021 C   0  0  0  0  0  0  0  0  0  0  0  0
  -20.3818   -5.8954   24.9675 C   0  0  0  0  0  0  0  0  0  0  0  0
  -23.8291  -10.4394   20.9560 C   0  0  0  0  0  0  0  0  0  0  0  0
  -24.1610  -12.9667   20.8533 C   0  0  0  0  0  0  0  0  0  0  0  0
  -39.7868  -24.4327   16.9909 C   0  0  0  0  0  0  0  0  0  0  0  0
  -33.1414  -24.5249   17.0399 C   0  0  0  0  0  0  0  0  0  0  0  0
  -38.5535  -24.1194   17.5934 C   0  0  0  0  0  0  0  0  0  0  0  0
  -32.4024  -24.7544   18.2092 C   0  0  0  0  0  0  0  0  0  0  0  0
  -22.3518   -8.1239   21.4446 C   0  0  0  0  0  0  0  0  0  0  0  0
  -31.4557  -22.5221   18.0343 C   0  0  0  0  0  0  0  0  0  0  0  0
  -20.8845   -6.9415   22.8485 C   0  0  0  0  0  0  0  0  0  0  0  0
  -19.3799   -6.8388   25.1955 C   0  0  0  0  0  0  0  0  0  0  0  0
  -21.1341   -5.9468   23.7940 C   0  0  0  0  0  0  0  0  0  0  0  0
  -24.5927  -11.6351   20.7041 C   0  0  0  0  0  0  0  0  0  0  0  0
  -25.2489  -13.7229   20.4914 C   0  0  0  0  0  0  0  0  0  0  0  0
  -22.8902  -13.4746   21.2808 C   0  0  0  0  0  0  0  0  0  0  0  0
  -35.5365  -26.0785   18.4375 C   0  0  0  0  0  0  0  0  0  0  0  0
  -33.3214  -28.4292   18.7373 C   0  0  0  0  0  0  0  0  0  0  0  0
  -30.0260  -29.3011   18.9008 C   0  0  0  0  0  0  0  0  0  0  0  0
  -30.7295  -14.7613   20.6665 C   0  0  0  0  0  0  0  0  0  0  0  0
  -40.4917  -25.7388   17.2593 C   0  0  0  0  0  0  0  0  0  0  0  0
  -34.0274  -25.6012   16.4752 C   0  0  0  0  0  0  0  0  0  0  0  0
  -32.4877  -26.0583   18.9582 C   0  0  0  0  0  0  0  0  0  0  0  0
  -39.5806  -26.8128   17.8481 C   0  0  0  0  0  0  0  0  0  0  0  0
  -29.5918  -12.3901   18.2666 C   0  0  0  0  0  0  0  0  0  0  0  0
  -38.7396  -26.2363   18.9826 C   0  0  0  0  0  0  0  0  0  0  0  0
  -28.1571  -12.0878   18.7028 C   0  0  0  0  0  0  0  0  0  0  0  0
  -28.9410  -18.3127   20.8043 C   0  0  0  0  0  0  0  0  0  0  0  0
  -29.0076  -19.3400   19.6639 C   0  0  0  0  0  0  0  0  0  0  0  0
  -30.8182  -17.7893   19.4079 C   0  0  0  0  0  0  0  0  0  0  0  0
  -30.5126  -12.6056   19.4656 C   0  0  0  0  0  0  0  0  0  0  0  0
  -28.6134  -13.3192   20.8647 C   0  0  0  0  0  0  0  0  0  0  0  0
  -37.8285  -25.1111   18.4772 C   0  0  1  0  0  0  0  0  0  0  0  0
  -34.4742  -26.6174   17.5217 C   0  0  1  0  0  0  0  0  0  0  0  0
  -27.6354  -13.1496   19.6895 C   0  0  2  0  0  0  0  0  0  0  0  0
  -30.4378  -17.9658   20.9178 C   0  0  1  0  0  0  0  0  0  0  0  0
  -30.5262  -19.3290   19.4040 C   0  0  2  0  0  0  0  0  0  0  0  0
  -31.2493  -19.3428   20.8318 C   0  0  0  0  0  0  0  0  0  0  0  0
  -30.8358  -20.4549   21.8090 C   0  0  0  0  0  0  0  0  0  0  0  0
  -32.7879  -19.2723   20.8581 C   0  0  0  0  0  0  0  0  0  0  0  0
  -28.5272  -31.2934   19.1863 C   0  0  0  0  0  0  0  0  0  0  0  0
  -33.9623  -28.4808   21.7200 C   0  0  0  0  0  0  0  0  0  0  0  0
  -31.8366  -29.7524   22.0838 C   0  0  0  0  0  0  0  0  0  0  0  0
  -33.6507  -30.7341   20.6809 C   0  0  0  0  0  0  0  0  0  0  0  0
  -28.7673  -28.8789   16.2557 C   0  0  0  0  0  0  0  0  0  0  0  0
  -30.7919  -16.9030   21.9189 C   0  0  0  0  0  0  0  0  0  0  0  0
  -31.0093  -20.1969   18.2582 C   0  0  0  0  0  0  0  0  0  1  0  0
  -32.2927  -28.8025   19.7771 C   0  0  1  0  0  0  0  0  0  0  0  0
  -29.2346  -30.3856   18.1923 C   0  0  2  0  0  0  0  0  0  0  0  0
  -32.9352  -29.4171   21.0526 C   0  0  0  0  0  0  0  0  0  0  0  0
  -25.8563  -11.5471   20.2804 N   0  0  0  0  0  0  0  0  0  0  0  0
  -26.2279  -12.8330   20.1601 N   0  0  0  0  0  0  0  0  0  0  0  0
  -33.3725  -27.0772   18.3696 N   0  0  0  0  0  0  0  0  0  0  0  0
  -29.9616  -13.6255   20.3612 N   0  0  0  0  0  0  0  0  0  0  0  0
  -25.4540  -15.0557   20.4274 N   0  0  0  0  0  0  0  0  0  0  0  0
  -21.8830  -12.5591   21.6152 N   0  0  0  0  0  0  0  0  0  0  0  0
  -36.6818  -25.6611   17.7866 N   0  0  0  0  0  0  0  0  0  0  0  0
  -31.3359  -29.6780   19.1089 N   0  0  0  0  0  0  0  0  0  0  0  0
  -30.1300  -15.6817   21.5176 N   0  0  0  0  0  0  0  0  0  0  0  0
  -28.2088  -29.7780   17.2982 N   0  3  0  0  0  0  0  0  0  0  0  0
  -22.6495  -14.7038   21.3480 O   0  0  0  0  0  0  0  0  0  0  0  0
  -35.3328  -26.0452   19.6455 O   0  0  0  0  0  0  0  0  0  0  0  0
  -34.0480  -29.3063   18.2634 O   0  0  0  0  0  0  0  0  0  0  0  0
  -29.5307  -28.2284   19.2393 O   0  0  0  0  0  0  0  0  0  0  0  0
  -31.8630  -14.9444   20.2099 O   0  0  0  0  0  0  0  0  0  0  0  0
  -21.6311   -6.9943   21.6834 O   0  0  0  0  0  0  0  0  0  0  0  0
  -30.6390  -21.5493   18.5228 O   0  0  0  0  0  0  0  0  0  1  0  0
  -18.6584   -6.7905   26.3230 F   0  0  0  0  0  0  0  0  0  0  0  0
  -22.0961   -5.0384   23.5811 F   0  0  0  0  0  0  0  0  0  0  0  0
  1  2  1  0  0  0  0
  1  5  2  0  0  0  0
  2  6  2  0  0  0  0
  3  8  2  0  0  0  0
  3 15  1  0  0  0  0
  4  9  1  0  0  0  0
  4 15  2  0  0  0  0
  5 17  1  0  0  0  0
  6 19  1  0  0  0  0
  7 10  2  0  0  0  0
  7 18  1  0  0  0  0
  8 21  1  0  0  0  0
  9 21  2  0  0  0  0
 10 22  1  0  0  0  0
 11 12  2  0  0  0  0
 11 23  1  0  0  0  0
 12 24  1  0  0  0  0
 13 20  1  0  0  0  0
 13 22  2  0  0  0  0
 14 24  2  0  0  0  0
 14 25  1  0  0  0  0
 15 26  1  0  0  0  0
 16 26  1  0  0  0  0
 16 27  2  0  0  0  0
 16 28  1  0  0  0  0
 17 19  2  0  0  0  0
 17 33  1  0  0  0  0
 18 20  2  0  0  0  0
 18 34  1  0  0  0  0
 19 45  1  0  0  0  0
 20 35  1  0  0  0  0
 21 78  1  0  0  0  0
 22 79  1  0  0  0  0
 23 25  2  0  0  0  0
 23 78  1  0  0  0  0
 24 80  1  0  0  0  0
 25 81  1  0  0  0  0
 26 63  2  0  0  0  0
 27 64  1  0  0  0  0
 27 67  1  0  0  0  0
 28 68  1  0  0  0  0
 28 73  2  0  0  0  0
 29 46  1  0  0  0  0
 29 69  1  0  0  0  0
 29 74  2  0  0  0  0
 30 60  1  0  0  0  0
 30 65  1  0  0  0  0
 30 75  2  0  0  0  0
 31 61  1  0  0  0  0
 31 70  1  0  0  0  0
 31 76  2  0  0  0  0
 32 66  1  0  0  0  0
 32 71  1  0  0  0  0
 32 77  2  0  0  0  0
 33 36  1  0  0  0  0
 34 46  1  0  0  0  0
 35 65  1  0  0  0  0
 36 38  1  0  0  0  0
 37 39  1  0  0  0  0
 37 43  1  0  0  0  0
 38 45  1  0  0  0  0
 39 47  1  0  0  0  0
 40 41  1  0  0  0  0
 40 48  1  0  0  0  0
 41 49  1  0  0  0  0
 42 48  1  0  0  0  0
 42 49  1  0  0  0  0
 43 66  1  0  0  0  0
 44 47  1  0  0  0  0
 44 66  1  0  0  0  0
 45 69  1  0  0  0  0
 46 65  1  0  0  0  0
 47 64  1  0  0  0  0
 48 50  1  0  0  0  0
 48 58  1  0  0  0  0
 49 50  1  0  0  0  0
 49 59  1  0  0  0  0
 50 51  1  0  0  0  0
 50 52  1  0  0  0  0
 53 61  1  0  0  0  0
 54 62  1  0  0  0  0
 55 62  1  0  0  0  0
 56 62  1  0  0  0  0
 57 72  1  0  0  0  0
 58 71  1  0  0  0  0
 59 79  1  0  0  0  0
 60 62  1  0  0  0  0
 60 70  1  0  0  0  0
 61 72  1  0  0  0  0
 63 64  1  0  0  0  0
M  CHG  1  72   1
M  ISO  4  32 100  59 101  71 100  79 101
M  END
> <Batch ID>
0175

> <Smiles>
CNC(C)C(=O)NC(C(=O)N1Cc2cc([101O:1][101CH2:1]C34CCC(C[100NH:0][100C:0](=O)N5CCCC(n6nc(-c7ccc(Oc8ccc(F)cc8F)cc7)c(C(N)=O)c6N)C5)(C3)C4(C)C)ccc2CC1C(=O)NC1CCCc2ccccc21)C(C)(C)C

> <Shape>
0.215

> <Color>
0.174

> <Negative vol penalty>
0.000

$$$$

  -OEChem-04052322473D

 85 94  0     1  0  0  0  0  0999 V2000
  -18.4726  -27.4450   18.7500 C   0  0  0  0  0  0  0  0  0  0  0  0
  -19.5839  -26.7185   19.1657 C   0  0  0  0  0  0  0  0  0  0  0  0
  -23.5818   -9.6420   21.2374 C   0  0  0  0  0  0  0  0  0  0  0  0
  -24.2642  -10.5434   23.3725 C   0  0  0  0  0  0  0  0  0  0  0  0
  -18.3910  -28.8096   19.0240 C   0  0  0  0  0  0  0  0  0  0  0  0
  -20.6147  -27.3565   19.8546 C   0  0  0  0  0  0  0  0  0  0  0  0
  -28.8084  -20.4691   21.8751 C   0  0  0  0  0  0  0  0  0  0  0  0
  -22.2005  -24.7066   23.8681 C   0  0  0  0  0  0  0  0  0  0  0  0
  -28.1005  -21.6201   22.2214 C   0  0  0  0  0  0  0  0  0  0  0  0
  -23.0188   -8.5407   21.8823 C   0  0  0  0  0  0  0  0  0  0  0  0
  -23.7012   -9.4422   24.0174 C   0  0  0  0  0  0  0  0  0  0  0  0
  -23.0440  -23.6238   23.6233 C   0  0  0  0  0  0  0  0  0  0  0  0
  -20.1888   -7.8338   23.5923 C   0  0  0  0  0  0  0  0  0  0  0  0
  -18.9196   -7.4230   23.1849 C   0  0  0  0  0  0  0  0  0  0  0  0
  -24.9469  -24.9768   24.2297 C   0  0  0  0  0  0  0  0  0  0  0  0
  -19.8122   -5.2594   22.5856 C   0  0  0  0  0  0  0  0  0  0  0  0
  -24.2046  -10.6433   21.9825 C   0  0  0  0  0  0  0  0  0  0  0  0
  -24.1539  -12.9991   21.0051 C   0  0  0  0  0  0  0  0  0  0  0  0
  -19.4169  -29.4627   19.7250 C   0  0  0  0  0  0  0  0  0  0  0  0
  -22.7259  -25.9379   24.2857 C   0  0  0  0  0  0  0  0  0  0  0  0
  -20.5474  -28.7315   20.1370 C   0  0  0  0  0  0  0  0  0  0  0  0
  -28.8033  -19.3645   22.7269 C   0  0  0  0  0  0  0  0  0  0  0  0
  -24.1077  -26.0729   24.4816 C   0  0  0  0  0  0  0  0  0  0  0  0
  -27.3877  -21.6665   23.4194 C   0  0  0  0  0  0  0  0  0  0  0  0
  -27.3827  -20.5619   24.2713 C   0  0  0  0  0  0  0  0  0  0  0  0
  -23.0785   -8.4408   23.2723 C   0  0  0  0  0  0  0  0  0  0  0  0
  -24.4177  -23.7597   23.8013 C   0  0  0  0  0  0  0  0  0  0  0  0
  -21.2698   -6.9574   23.4963 C   0  0  0  0  0  0  0  0  0  0  0  0
  -18.7313   -6.1358   22.6816 C   0  0  0  0  0  0  0  0  0  0  0  0
  -21.0815   -5.6702   22.9930 C   0  0  0  0  0  0  0  0  0  0  0  0
  -28.0905  -19.4109   23.9250 C   0  0  0  0  0  0  0  0  0  0  0  0
  -24.7868  -11.7809   21.3169 C   0  0  0  0  0  0  0  0  0  0  0  0
  -25.1268  -13.7417   20.3816 C   0  0  0  0  0  0  0  0  0  0  0  0
  -22.8072  -13.4217   21.2566 C   0  0  0  0  0  0  0  0  0  0  0  0
  -22.7679  -28.8813   23.0866 C   0  0  0  0  0  0  0  0  0  0  0  0
  -24.1207  -29.6069   25.9441 C   0  0  0  0  0  0  0  0  0  0  0  0
  -25.8839  -28.5474   28.6673 C   0  0  0  0  0  0  0  0  0  0  0  0
  -30.4738  -15.5463   20.2790 C   0  0  0  0  0  0  0  0  0  0  0  0
  -19.3060  -30.9489   19.9564 C   0  0  0  0  0  0  0  0  0  0  0  0
  -21.8000  -27.0884   24.5713 C   0  0  0  0  0  0  0  0  0  0  0  0
  -24.7197  -27.3676   24.9481 C   0  0  0  0  0  0  0  0  0  0  0  0
  -20.2680  -31.4734   21.0194 C   0  0  0  0  0  0  0  0  0  0  0  0
  -29.6715  -12.4482   18.6387 C   0  0  0  0  0  0  0  0  0  0  0  0
  -21.6685  -30.9121   20.7954 C   0  0  0  0  0  0  0  0  0  0  0  0
  -28.3061  -12.0664   19.2005 C   0  0  0  0  0  0  0  0  0  0  0  0
  -30.5168  -13.1499   19.6933 C   0  0  0  0  0  0  0  0  0  0  0  0
  -28.8512  -16.7878   21.9179 C   0  0  0  0  0  0  0  0  0  0  0  0
  -30.2257  -18.0169   20.8723 C   0  0  0  0  0  0  0  0  0  0  0  0
  -28.4836  -14.0346   20.8056 C   0  0  0  0  0  0  0  0  0  0  0  0
  -29.6208  -18.0772   22.2938 C   0  0  0  0  0  0  0  0  0  0  0  0
  -21.6746  -29.3829   20.9085 C   0  0  1  0  0  0  0  0  0  0  0  0
  -22.4931  -28.4455   24.4980 C   0  0  1  0  0  0  0  0  0  0  0  0
  -27.5989  -13.3008   19.7783 C   0  0  2  0  0  0  0  0  0  0  0  0
  -27.5179  -20.4931   26.7874 C   0  0  0  0  0  0  0  0  0  0  0  0
  -25.4783  -19.5943   25.6096 C   0  0  0  0  0  0  0  0  0  0  0  0
  -26.8718  -29.3778   30.8194 C   0  0  0  0  0  0  0  0  0  0  0  0
  -26.4034  -30.9069   24.3919 C   0  0  0  0  0  0  0  0  0  0  0  0
  -27.7667  -30.8569   26.4913 C   0  0  0  0  0  0  0  0  0  0  0  0
  -25.6546  -32.1817   26.4090 C   0  0  0  0  0  0  0  0  0  0  0  0
  -24.1984  -26.7251   30.2789 C   0  0  0  0  0  0  0  0  0  0  0  0
  -26.6395  -22.9123   23.7645 C   0  0  0  0  0  0  0  0  0  1  0  0
  -26.6112  -20.6331   25.5529 C   0  0  0  0  0  0  0  0  0  0  0  0
  -25.5324  -29.6573   26.4766 C   0  0  1  0  0  0  0  0  0  0  0  0
  -25.6572  -28.7487   30.1547 C   0  0  2  0  0  0  0  0  0  0  0  0
  -26.3282  -30.8767   25.9315 C   0  0  0  0  0  0  0  0  0  0  0  0
  -26.0629  -11.7473   20.9238 N   0  0  0  0  0  0  0  0  0  0  0  0
  -26.2397  -12.9536   20.3585 N   0  0  0  0  0  0  0  0  0  0  0  0
  -23.7736  -28.4653   25.2080 N   0  0  0  0  0  0  0  0  0  0  0  0
  -29.8268  -14.3055   20.2745 N   0  0  0  0  0  0  0  0  0  0  0  0
  -29.8290  -16.6142   20.8572 N   0  0  0  0  0  0  0  0  0  0  0  0
  -25.1301  -14.9852   19.8563 N   0  0  0  0  0  0  0  0  0  0  0  0
  -21.9391  -12.5347   21.9077 N   0  0  0  0  0  0  0  0  0  0  0  0
  -21.6376  -28.9786   22.2976 N   0  0  0  0  0  0  0  0  0  0  0  0
  -25.4219  -29.6176   27.9308 N   0  0  0  0  0  0  0  0  0  0  0  0
  -25.3820  -27.4429   30.8182 N   0  3  0  0  0  0  0  0  0  0  0  0
  -22.3813  -14.5463   20.8995 O   0  0  0  0  0  0  0  0  0  0  0  0
  -23.9200  -29.1137   22.7394 O   0  0  0  0  0  0  0  0  0  0  0  0
  -23.3521  -30.5427   26.1790 O   0  0  0  0  0  0  0  0  0  0  0  0
  -26.4207  -27.5430   28.2052 O   0  0  0  0  0  0  0  0  0  0  0  0
  -31.6090  -15.6927   19.8069 O   0  0  0  0  0  0  0  0  0  0  0  0
  -22.5291   -7.3664   23.9019 O   0  0  0  0  0  0  0  0  0  0  0  0
  -25.2492  -22.6971   23.5608 O   0  0  0  0  0  0  0  0  0  1  0  0
  -17.5121   -5.7409   22.2918 F   0  0  0  0  0  0  0  0  0  0  0  0
  -22.1159   -4.8234   22.8995 F   0  0  0  0  0  0  0  0  0  0  0  0
  -28.0892  -18.0361   24.9770 Cl  0  0  0  0  0  0  0  0  0  0  0  0
  1  2  1  0  0  0  0
  1  5  2  0  0  0  0
  2  6  2  0  0  0  0
  3 10  2  0  0  0  0
  3 17  1  0  0  0  0
  4 11  1  0  0  0  0
  4 17  2  0  0  0  0
  5 19  1  0  0  0  0
  6 21  1  0  0  0  0
  7  9  2  0  0  0  0
  7 22  1  0  0  0  0
  8 12  2  0  0  0  0
  8 20  1  0  0  0  0
  9 24  1  0  0  0  0
 10 26  1  0  0  0  0
 11 26  2  0  0  0  0
 12 27  1  0  0  0  0
 13 14  2  0  0  0  0
 13 28  1  0  0  0  0
 14 29  1  0  0  0  0
 15 23  1  0  0  0  0
 15 27  2  0  0  0  0
 16 29  2  0  0  0  0
 16 30  1  0  0  0  0
 17 32  1  0  0  0  0
 18 32  1  0  0  0  0
 18 33  2  0  0  0  0
 18 34  1  0  0  0  0
 19 21  2  0  0  0  0
 19 39  1  0  0  0  0
 20 23  2  0  0  0  0
 20 40  1  0  0  0  0
 21 51  1  0  0  0  0
 22 31  2  0  0  0  0
 22 50  1  0  0  0  0
 23 41  1  0  0  0  0
 24 25  2  0  0  0  0
 24 61  1  0  0  0  0
 25 31  1  0  0  0  0
 25 62  1  0  0  0  0
 26 81  1  0  0  0  0
 27 82  1  0  0  0  0
 28 30  2  0  0  0  0
 28 81  1  0  0  0  0
 29 83  1  0  0  0  0
 30 84  1  0  0  0  0
 31 85  1  0  0  0  0
 32 66  2  0  0  0  0
 33 67  1  0  0  0  0
 33 71  1  0  0  0  0
 34 72  1  0  0  0  0
 34 76  2  0  0  0  0
 35 52  1  0  0  0  0
 35 73  1  0  0  0  0
 35 77  2  0  0  0  0
 36 63  1  0  0  0  0
 36 68  1  0  0  0  0
 36 78  2  0  0  0  0
 37 64  1  0  0  0  0
 37 74  1  0  0  0  0
 37 79  2  0  0  0  0
 38 69  1  0  0  0  0
 38 70  1  0  0  0  0
 38 80  2  0  0  0  0
 39 42  1  0  0  0  0
 40 52  1  0  0  0  0
 41 68  1  0  0  0  0
 42 44  1  0  0  0  0
 43 45  1  0  0  0  0
 43 46  1  0  0  0  0
 44 51  1  0  0  0  0
 45 53  1  0  0  0  0
 46 69  1  0  0  0  0
 47 50  1  0  0  0  0
 47 70  1  0  0  0  0
 48 50  1  0  0  0  0
 48 70  1  0  0  0  0
 49 53  1  0  0  0  0
 49 69  1  0  0  0  0
 51 73  1  0  0  0  0
 52 68  1  0  0  0  0
 53 67  1  0  0  0  0
 54 62  1  0  0  0  0
 55 62  1  0  0  0  0
 56 64  1  0  0  0  0
 57 65  1  0  0  0  0
 58 65  1  0  0  0  0
 59 65  1  0  0  0  0
 60 75  1  0  0  0  0
 61 82  1  0  0  0  0
 63 65  1  0  0  0  0
 63 74  1  0  0  0  0
 64 75  1  0  0  0  0
 66 67  1  0  0  0  0
M  CHG  1  75   1
M  ISO  4  38 100  61 101  70 100  82 101
M  END
> <Batch ID>
0175

> <Smiles>
CNC(C)C(=O)NC(C(=O)N1Cc2cc([101O:1][101CH2:1]c3ccc(C4C[100N:0]([100C:0](=O)N5CCCC(n6nc(-c7ccc(Oc8ccc(F)cc8F)cc7)c(C(N)=O)c6N)C5)C4)c(Cl)c3C(C)C)ccc2CC1C(=O)NC1CCCc2ccccc21)C(C)(C)C

> <Shape>
0.231

> <Color>
0.180

> <Negative vol penalty>
0.000

$$$$

  -OEChem-04052322473D

 83 92  0     1  0  0  0  0  0999 V2000
  -30.5152  -34.0214   22.9951 C   0  0  0  0  0  0  0  0  0  0  0  0
  -30.1754  -32.6761   22.8946 C   0  0  0  0  0  0  0  0  0  0  0  0
  -23.1694  -11.6375   21.6144 C   0  0  0  0  0  0  0  0  0  0  0  0
  -24.3567   -9.5376   21.4805 C   0  0  0  0  0  0  0  0  0  0  0  0
  -29.5489  -34.9579   23.3602 C   0  0  0  0  0  0  0  0  0  0  0  0
  -28.8693  -32.2663   23.1603 C   0  0  0  0  0  0  0  0  0  0  0  0
  -27.1261  -28.9825   19.7218 C   0  0  0  0  0  0  0  0  0  0  0  0
  -29.2683  -21.7913   21.5551 C   0  0  0  0  0  0  0  0  0  0  0  0
  -21.9588  -10.9484   21.6873 C   0  0  0  0  0  0  0  0  0  0  0  0
  -23.1461   -8.8485   21.5535 C   0  0  0  0  0  0  0  0  0  0  0  0
  -27.5551  -27.6604   19.8293 C   0  0  0  0  0  0  0  0  0  0  0  0
  -20.9301   -7.9560   23.9437 C   0  0  0  0  0  0  0  0  0  0  0  0
  -20.8618   -6.8580   24.8012 C   0  0  0  0  0  0  0  0  0  0  0  0
  -29.0215  -23.1544   21.4350 C   0  0  0  0  0  0  0  0  0  0  0  0
  -25.4726  -27.0780   20.8986 C   0  0  0  0  0  0  0  0  0  0  0  0
  -20.3279   -5.4284   22.9281 C   0  0  0  0  0  0  0  0  0  0  0  0
  -28.8775  -21.5677   19.2198 C   0  0  0  0  0  0  0  0  0  0  0  0
  -24.3683  -10.9321   21.5109 C   0  0  0  0  0  0  0  0  0  0  0  0
  -26.4390  -12.0382   22.5090 C   0  0  0  0  0  0  0  0  0  0  0  0
  -29.1969  -20.9759   20.4312 C   0  0  0  0  0  0  0  0  0  0  0  0
  -28.2280  -34.5607   23.6211 C   0  0  0  0  0  0  0  0  0  0  0  0
  -25.8695  -29.3652   20.2126 C   0  0  0  0  0  0  0  0  0  0  0  0
  -27.8848  -33.1982   23.5305 C   0  0  0  0  0  0  0  0  0  0  0  0
  -25.0290  -28.4051   20.7938 C   0  0  0  0  0  0  0  0  0  0  0  0
  -21.9472   -9.5539   21.6569 C   0  0  0  0  0  0  0  0  0  0  0  0
  -26.7295  -26.7084   20.4203 C   0  0  0  0  0  0  0  0  0  0  0  0
  -20.6972   -7.7902   22.5784 C   0  0  0  0  0  0  0  0  0  0  0  0
  -20.5607   -5.5942   24.2934 C   0  0  0  0  0  0  0  0  0  0  0  0
  -20.3962   -6.5264   22.0706 C   0  0  0  0  0  0  0  0  0  0  0  0
  -25.6191  -11.6433   21.4350 C   0  0  0  0  0  0  0  0  0  0  0  0
  -28.7101  -23.6487   20.1786 C   0  0  0  0  0  0  0  0  0  0  0  0
  -27.5006  -12.6754   21.9144 C   0  0  0  0  0  0  0  0  0  0  0  0
  -26.2574  -11.8462   23.9182 C   0  0  0  0  0  0  0  0  0  0  0  0
  -24.8544  -31.3796   22.4522 C   0  0  0  0  0  0  0  0  0  0  0  0
  -21.9325  -30.5966   21.2811 C   0  0  0  0  0  0  0  0  0  0  0  0
  -19.9897  -28.3421   19.6108 C   0  0  0  0  0  0  0  0  0  0  0  0
  -29.6712  -16.0968   18.2261 C   0  0  0  0  0  0  0  0  0  0  0  0
  -27.2295  -35.6029   24.0584 C   0  0  0  0  0  0  0  0  0  0  0  0
  -25.4105  -30.7900   20.0649 C   0  0  0  0  0  0  0  0  0  0  0  0
  -23.6625  -28.7605   21.3181 C   0  0  0  0  0  0  0  0  0  0  0  0
  -25.7793  -35.1369   23.9585 C   0  0  0  0  0  0  0  0  0  0  0  0
  -28.9060  -12.9305   17.0697 C   0  0  0  0  0  0  0  0  0  0  0  0
  -25.6251  -33.7406   24.5530 C   0  0  0  0  0  0  0  0  0  0  0  0
  -28.0490  -12.3334   18.1856 C   0  0  0  0  0  0  0  0  0  0  0  0
  -28.2227  -18.6541   20.1443 C   0  0  0  0  0  0  0  0  0  0  0  0
  -30.6809  -19.0585   19.6933 C   0  0  0  0  0  0  0  0  0  0  0  0
  -28.5457  -14.3917   16.8274 C   0  0  0  0  0  0  0  0  0  0  0  0
  -28.5053  -17.1507   20.2138 C   0  0  0  0  0  0  0  0  0  0  0  0
  -30.9092  -17.5534   19.7991 C   0  0  0  0  0  0  0  0  0  0  0  0
  -27.8030  -14.6657   19.1708 C   0  0  0  0  0  0  0  0  0  0  0  0
  -29.4602  -19.4850   20.5288 C   0  0  0  0  0  0  0  0  0  0  0  0
  -26.4727  -32.7180   23.7866 C   0  0  1  0  0  0  0  0  0  0  0  0
  -24.3218  -31.1735   21.0624 C   0  0  1  0  0  0  0  0  0  0  0  0
  -28.1312  -13.1874   19.4632 C   0  0  1  0  0  0  0  0  0  0  0  0
  -17.6316  -27.9626   18.8409 C   0  0  0  0  0  0  0  0  0  0  0  0
  -21.1180  -29.8852   24.1343 C   0  0  0  0  0  0  0  0  0  0  0  0
  -19.1550  -28.6497   23.1917 C   0  0  0  0  0  0  0  0  0  0  0  0
  -19.3726  -31.1076   22.8252 C   0  0  0  0  0  0  0  0  0  0  0  0
  -20.8084  -28.2579   16.7680 C   0  0  0  0  0  0  0  0  0  0  0  0
  -28.4398  -25.1069   20.0129 C   0  0  0  0  0  0  0  0  0  1  0  0
  -20.9097  -29.5287   21.5856 C   0  0  1  0  0  0  0  0  0  0  0  0
  -19.0004  -28.5134   18.4723 C   0  0  2  0  0  0  0  0  0  0  0  0
  -20.1653  -29.7862   22.9262 C   0  0  0  0  0  0  0  0  0  0  0  0
  -28.6314  -22.8878   19.0640 N   0  0  0  0  0  0  0  0  0  0  0  0
  -26.1169  -11.9999   20.2480 N   0  0  0  0  0  0  0  0  0  0  0  0
  -27.2611  -12.6256   20.5726 N   0  0  0  0  0  0  0  0  0  0  0  0
  -23.2616  -30.1678   21.1562 N   0  0  0  0  0  0  0  0  0  0  0  0
  -28.6323  -15.1680   18.0642 N   0  0  0  0  0  0  0  0  0  0  0  0
  -29.7032  -16.8110   19.4333 N   0  0  0  0  0  0  0  0  0  0  0  0
  -28.6061  -13.2678   22.4136 N   0  0  0  0  0  0  0  0  0  0  0  0
  -25.1109  -11.1708   24.3582 N   0  0  0  0  0  0  0  0  0  0  0  0
  -25.8269  -32.3571   22.5428 N   0  0  0  0  0  0  0  0  0  0  0  0
  -20.0348  -29.4574   20.4204 N   0  0  0  0  0  0  0  0  0  0  0  0
  -19.4820  -27.7999   17.2558 N   0  3  0  0  0  0  0  0  0  0  0  0
  -27.0791  -12.2757   24.7632 O   0  0  0  0  0  0  0  0  0  0  0  0
  -24.4146  -30.7029   23.3743 O   0  0  0  0  0  0  0  0  0  0  0  0
  -21.5647  -31.7668   21.1515 O   0  0  0  0  0  0  0  0  0  0  0  0
  -20.6532  -27.3197   19.7686 O   0  0  0  0  0  0  0  0  0  0  0  0
  -30.5210  -16.2774   17.3450 O   0  0  0  0  0  0  0  0  0  0  0  0
  -20.7661   -8.8812   21.7283 O   0  0  0  0  0  0  0  0  0  0  0  0
  -27.1490  -25.4083   20.5278 O   0  0  0  0  0  0  0  0  0  1  0  0
  -20.4967   -4.5396   25.1167 F   0  0  0  0  0  0  0  0  0  0  0  0
  -20.1726   -6.3608   20.7597 F   0  0  0  0  0  0  0  0  0  0  0  0
  1  2  1  0  0  0  0
  1  5  2  0  0  0  0
  2  6  2  0  0  0  0
  3  9  2  0  0  0  0
  3 18  1  0  0  0  0
  4 10  1  0  0  0  0
  4 18  2  0  0  0  0
  5 21  1  0  0  0  0
  6 23  1  0  0  0  0
  7 11  2  0  0  0  0
  7 22  1  0  0  0  0
  8 14  2  0  0  0  0
  8 20  1  0  0  0  0
  9 25  1  0  0  0  0
 10 25  2  0  0  0  0
 11 26  1  0  0  0  0
 12 13  2  0  0  0  0
 12 27  1  0  0  0  0
 13 28  1  0  0  0  0
 14 31  1  0  0  0  0
 15 24  1  0  0  0  0
 15 26  2  0  0  0  0
 16 28  2  0  0  0  0
 16 29  1  0  0  0  0
 17 20  2  0  0  0  0
 17 64  1  0  0  0  0
 18 30  1  0  0  0  0
 19 30  1  0  0  0  0
 19 32  2  0  0  0  0
 19 33  1  0  0  0  0
 20 51  1  0  0  0  0
 21 23  2  0  0  0  0
 21 38  1  0  0  0  0
 22 24  2  0  0  0  0
 22 39  1  0  0  0  0
 23 52  1  0  0  0  0
 24 40  1  0  0  0  0
 25 80  1  0  0  0  0
 26 81  1  0  0  0  0
 27 29  2  0  0  0  0
 27 80  1  0  0  0  0
 28 82  1  0  0  0  0
 29 83  1  0  0  0  0
 30 65  2  0  0  0  0
 31 60  1  0  0  0  0
 31 64  2  0  0  0  0
 32 66  1  0  0  0  0
 32 70  1  0  0  0  0
 33 71  1  0  0  0  0
 33 75  2  0  0  0  0
 34 53  1  0  0  0  0
 34 72  1  0  0  0  0
 34 76  2  0  0  0  0
 35 61  1  0  0  0  0
 35 67  1  0  0  0  0
 35 77  2  0  0  0  0
 36 62  1  0  0  0  0
 36 73  1  0  0  0  0
 36 78  2  0  0  0  0
 37 68  1  0  0  0  0
 37 69  1  0  0  0  0
 37 79  2  0  0  0  0
 38 41  1  0  0  0  0
 39 53  1  0  0  0  0
 40 67  1  0  0  0  0
 41 43  1  0  0  0  0
 42 44  1  0  0  0  0
 42 47  1  0  0  0  0
 43 52  1  0  0  0  0
 44 54  1  0  0  0  0
 45 48  1  0  0  0  0
 45 51  1  0  0  0  0
 46 49  1  0  0  0  0
 46 51  1  0  0  0  0
 47 68  1  0  0  0  0
 48 69  1  0  0  0  0
 49 69  1  0  0  0  0
 50 54  1  0  0  0  0
 50 68  1  0  0  0  0
 52 72  1  0  0  0  0
 53 67  1  0  0  0  0
 54 66  1  0  0  0  0
 55 62  1  0  0  0  0
 56 63  1  0  0  0  0
 57 63  1  0  0  0  0
 58 63  1  0  0  0  0
 59 74  1  0  0  0  0
 60 81  1  0  0  0  0
 61 63  1  0  0  0  0
 61 73  1  0  0  0  0
 62 74  1  0  0  0  0
 65 66  1  0  0  0  0
M  CHG  1  74   1
M  ISO  4  37 100  60 101  69 100  81 101
M  END
> <Batch ID>
0175

> <Smiles>
CNC(C)C(=O)NC(C(=O)N1Cc2cc([101O:1][101CH2:1]c3ccc(C4CC[100N:0]([100C:0](=O)N5CCCC(n6nc(-c7ccc(Oc8ccc(F)cc8F)cc7)c(C(N)=O)c6N)C5)CC4)cn3)ccc2CC1C(=O)NC1CCCc2ccccc21)C(C)(C)C

> <Shape>
0.313

> <Color>
0.076

> <Negative vol penalty>
0.000

$$$$

  -OEChem-04052322473D

 87 96  0     1  0  0  0  0  0999 V2000
  -26.4163  -34.8212   24.6723 C   0  0  0  0  0  0  0  0  0  0  0  0
  -26.9039  -33.6079   24.1976 C   0  0  0  0  0  0  0  0  0  0  0  0
  -23.2201  -14.0652   19.7535 C   0  0  0  0  0  0  0  0  0  0  0  0
  -24.6318  -14.8755   21.5389 C   0  0  0  0  0  0  0  0  0  0  0  0
  -25.1057  -34.9096   25.1397 C   0  0  0  0  0  0  0  0  0  0  0  0
  -26.0815  -32.4818   24.1910 C   0  0  0  0  0  0  0  0  0  0  0  0
  -26.3788  -29.8843   19.8540 C   0  0  0  0  0  0  0  0  0  0  0  0
  -23.7621  -12.7888   19.9041 C   0  0  0  0  0  0  0  0  0  0  0  0
  -25.1738  -13.5991   21.6895 C   0  0  0  0  0  0  0  0  0  0  0  0
  -27.4920  -29.0635   19.6785 C   0  0  0  0  0  0  0  0  0  0  0  0
  -24.5144   -9.2357   20.0609 C   0  0  0  0  0  0  0  0  0  0  0  0
  -23.6342   -8.1537   20.0648 C   0  0  0  0  0  0  0  0  0  0  0  0
  -26.1695  -27.1461   20.3060 C   0  0  0  0  0  0  0  0  0  0  0  0
  -22.5128   -9.0729   21.9973 C   0  0  0  0  0  0  0  0  0  0  0  0
  -31.3657  -22.7231   20.4351 C   0  0  0  0  0  0  0  0  0  0  0  0
  -23.6549  -15.1085   20.5708 C   0  0  0  0  0  0  0  0  0  0  0  0
  -21.9662  -16.9543   21.0696 C   0  0  0  0  0  0  0  0  0  0  0  0
  -24.2637  -33.7863   25.1299 C   0  0  0  0  0  0  0  0  0  0  0  0
  -25.1533  -29.3429   20.2681 C   0  0  0  0  0  0  0  0  0  0  0  0
  -24.7588  -32.5549   24.6600 C   0  0  0  0  0  0  0  0  0  0  0  0
  -25.0416  -27.9618   20.4835 C   0  0  0  0  0  0  0  0  0  0  0  0
  -24.7390  -12.5558   20.8721 C   0  0  0  0  0  0  0  0  0  0  0  0
  -27.3882  -27.6945   19.9073 C   0  0  0  0  0  0  0  0  0  0  0  0
  -24.3938  -10.2363   21.0252 C   0  0  0  0  0  0  0  0  0  0  0  0
  -22.6334   -8.0722   21.0329 C   0  0  0  0  0  0  0  0  0  0  0  0
  -23.3930  -10.1549   21.9934 C   0  0  0  0  0  0  0  0  0  0  0  0
  -23.0958  -16.4273   20.4153 C   0  0  0  0  0  0  0  0  0  0  0  0
  -30.0700  -23.1972   20.4618 C   0  0  0  0  0  0  0  0  0  0  0  0
  -32.3503  -23.6637   20.6591 C   0  0  0  0  0  0  0  0  0  0  0  0
  -21.8517  -18.2329   20.5810 C   0  0  0  0  0  0  0  0  0  0  0  0
  -30.7974  -25.3071   20.8933 C   0  0  0  0  0  0  0  0  0  0  0  0
  -21.0980  -16.3428   22.0330 C   0  0  0  0  0  0  0  0  0  0  0  0
  -23.2708  -29.7303   22.7997 C   0  0  0  0  0  0  0  0  0  0  0  0
  -21.2742  -27.8005   21.1229 C   0  0  0  0  0  0  0  0  0  0  0  0
  -20.8990  -25.4088   18.7176 C   0  0  0  0  0  0  0  0  0  0  0  0
  -25.8153  -22.0266   18.1941 C   0  0  0  0  0  0  0  0  0  0  0  0
  -22.8694  -33.9193   25.6892 C   0  0  0  0  0  0  0  0  0  0  0  0
  -23.9551  -30.2380   20.4270 C   0  0  0  0  0  0  0  0  0  0  0  0
  -23.7433  -27.3282   20.9095 C   0  0  0  0  0  0  0  0  0  0  0  0
  -21.9447  -32.7689   25.2999 C   0  0  0  0  0  0  0  0  0  0  0  0
  -22.8050  -20.8866   16.7377 C   0  0  0  0  0  0  0  0  0  0  0  0
  -22.6450  -31.4290   25.5025 C   0  0  0  0  0  0  0  0  0  0  0  0
  -22.4424  -19.6443   17.5466 C   0  0  0  0  0  0  0  0  0  0  0  0
  -29.1842  -21.0614   19.2771 C   0  0  0  0  0  0  0  0  0  0  0  0
  -24.3115  -20.9809   16.5372 C   0  0  0  0  0  0  0  0  0  0  0  0
  -27.7819  -20.5675   18.9479 C   0  0  0  0  0  0  0  0  0  0  0  0
  -27.6843  -22.8775   19.5778 C   0  0  0  0  0  0  0  0  0  0  0  0
  -24.7280  -19.7773   18.6651 C   0  0  0  0  0  0  0  0  0  0  0  0
  -23.8896  -31.3170   24.6137 C   0  0  1  0  0  0  0  0  0  0  0  0
  -28.9214  -22.2412   20.2271 C   0  0  2  0  0  0  0  0  0  0  0  0
  -22.8896  -29.6522   21.3484 C   0  0  1  0  0  0  0  0  0  0  0  0
  -23.2080  -19.6227   18.8787 C   0  0  2  0  0  0  0  0  0  0  0  0
  -29.6960  -26.9435   22.4653 C   0  0  0  0  0  0  0  0  0  0  0  0
  -19.1511  -24.0003   17.5958 C   0  0  0  0  0  0  0  0  0  0  0  0
  -30.5615  -27.4747   18.6816 C   0  0  0  0  0  0  0  0  0  0  0  0
  -21.1444  -26.0042   23.5859 C   0  0  0  0  0  0  0  0  0  0  0  0
  -20.2023  -24.1967   22.1321 C   0  0  0  0  0  0  0  0  0  0  0  0
  -18.9563  -26.3383   22.4220 C   0  0  0  0  0  0  0  0  0  0  0  0
  -21.4882  -26.5836   16.0658 C   0  0  0  0  0  0  0  0  0  0  0  0
  -34.6349  -24.2842   20.8855 C   0  0  0  0  0  0  0  0  0  0  0  0
  -30.4818  -26.7420   21.1478 C   0  0  2  0  0  0  0  0  0  0  0  0
  -21.0623  -26.3091   21.0235 C   0  0  1  0  0  0  0  0  0  0  0  0
  -19.9393  -25.2999   17.5464 C   0  0  2  0  0  0  0  0  0  0  0  0
  -29.7552  -27.4745   19.9766 C   0  0  2  0  0  0  0  0  0  1  0  0
  -20.3664  -25.7240   22.2847 C   0  0  0  0  0  0  0  0  0  0  0  0
  -23.6587  -17.2997   19.5750 N   0  0  0  0  0  0  0  0  0  0  0  0
  -29.7485  -24.4877   20.6888 N   0  0  0  0  0  0  0  0  0  0  0  0
  -32.1010  -24.9690   20.8922 N   0  0  0  0  0  0  0  0  0  0  0  0
  -22.8795  -18.3878   19.6979 N   0  0  0  0  0  0  0  0  0  0  0  0
  -22.6019  -28.2462   21.0576 N   0  0  0  0  0  0  0  0  0  0  0  0
  -25.0338  -20.9314   17.8098 N   0  0  0  0  0  0  0  0  0  0  0  0
  -26.9620  -21.7773   18.9472 N   0  0  0  0  0  0  0  0  0  0  0  0
  -20.9732  -19.2284   20.8248 N   0  0  0  0  0  0  0  0  0  0  0  0
  -21.3591  -15.0227   22.4247 N   0  0  0  0  0  0  0  0  0  0  0  0
  -23.5111  -31.0145   23.2500 N   0  0  0  0  0  0  0  0  0  0  0  0
  -20.3340  -26.0823   19.7798 N   0  0  0  0  0  0  0  0  0  0  0  0
  -20.6869  -25.3475   16.2580 N   0  3  0  0  0  0  0  0  0  0  0  0
  -20.1101  -16.9436   22.5194 O   0  0  0  0  0  0  0  0  0  0  0  0
  -23.3401  -28.7019   23.4624 O   0  0  0  0  0  0  0  0  0  0  0  0
  -20.2971  -28.5432   21.2466 O   0  0  0  0  0  0  0  0  0  0  0  0
  -22.0348  -24.9398   18.6939 O   0  0  0  0  0  0  0  0  0  0  0  0
  -25.5242  -23.1784   17.8442 O   0  0  0  0  0  0  0  0  0  0  0  0
  -25.2680  -11.3104   21.0196 O   0  0  0  0  0  0  0  0  0  0  0  0
  -28.4799  -26.8863   19.7363 O   0  0  0  0  0  0  0  0  0  1  0  0
  -33.6629  -23.2724   20.6487 O   0  0  0  0  0  0  0  0  0  0  0  0
  -21.7873   -7.0339   21.0356 F   0  0  0  0  0  0  0  0  0  0  0  0
  -23.2715  -11.1137   22.9217 F   0  0  0  0  0  0  0  0  0  0  0  0
  1  2  1  0  0  0  0
  1  5  2  0  0  0  0
  2  6  2  0  0  0  0
  3  8  2  0  0  0  0
  3 16  1  0  0  0  0
  4  9  1  0  0  0  0
  4 16  2  0  0  0  0
  5 18  1  0  0  0  0
  6 20  1  0  0  0  0
  7 10  2  0  0  0  0
  7 19  1  0  0  0  0
  8 22  1  0  0  0  0
  9 22  2  0  0  0  0
 10 23  1  0  0  0  0
 11 12  2  0  0  0  0
 11 24  1  0  0  0  0
 12 25  1  0  0  0  0
 13 21  1  0  0  0  0
 13 23  2  0  0  0  0
 14 25  2  0  0  0  0
 14 26  1  0  0  0  0
 15 28  2  0  0  0  0
 15 29  1  0  0  0  0
 16 27  1  0  0  0  0
 17 27  1  0  0  0  0
 17 30  2  0  0  0  0
 17 32  1  0  0  0  0
 18 20  2  0  0  0  0
 18 37  1  0  0  0  0
 19 21  2  0  0  0  0
 19 38  1  0  0  0  0
 20 49  1  0  0  0  0
 21 39  1  0  0  0  0
 22 83  1  0  0  0  0
 23 84  1  0  0  0  0
 24 26  2  0  0  0  0
 24 83  1  0  0  0  0
 25 86  1  0  0  0  0
 26 87  1  0  0  0  0
 27 66  2  0  0  0  0
 28 50  1  0  0  0  0
 28 67  1  0  0  0  0
 29 68  2  0  0  0  0
 29 85  1  0  0  0  0
 30 69  1  0  0  0  0
 30 73  1  0  0  0  0
 31 61  1  0  0  0  0
 31 67  2  0  0  0  0
 31 68  1  0  0  0  0
 32 74  1  0  0  0  0
 32 78  2  0  0  0  0
 33 51  1  0  0  0  0
 33 75  1  0  0  0  0
 33 79  2  0  0  0  0
 34 62  1  0  0  0  0
 34 70  1  0  0  0  0
 34 80  2  0  0  0  0
 35 63  1  0  0  0  0
 35 76  1  0  0  0  0
 35 81  2  0  0  0  0
 36 71  1  0  0  0  0
 36 72  1  0  0  0  0
 36 82  2  0  0  0  0
 37 40  1  0  0  0  0
 38 51  1  0  0  0  0
 39 70  1  0  0  0  0
 40 42  1  0  0  0  0
 41 43  1  0  0  0  0
 41 45  1  0  0  0  0
 42 49  1  0  0  0  0
 43 52  1  0  0  0  0
 44 46  1  0  0  0  0
 44 50  1  0  0  0  0
 45 71  1  0  0  0  0
 46 72  1  0  0  0  0
 47 50  1  0  0  0  0
 47 72  1  0  0  0  0
 48 52  1  0  0  0  0
 48 71  1  0  0  0  0
 49 75  1  0  0  0  0
 51 70  1  0  0  0  0
 52 69  1  0  0  0  0
 53 61  1  0  0  0  0
 54 63  1  0  0  0  0
 55 64  1  0  0  0  0
 56 65  1  0  0  0  0
 57 65  1  0  0  0  0
 58 65  1  0  0  0  0
 59 77  1  0  0  0  0
 60 85  1  0  0  0  0
 61 64  1  0  0  0  0
 62 65  1  0  0  0  0
 62 76  1  0  0  0  0
 63 77  1  0  0  0  0
 64 84  1  0  0  0  0
 66 69  1  0  0  0  0
M  CHG  1  77   1
M  ISO  4  36 100  64 101  72 100  84 101
M  END
> <Batch ID>
0175

> <Smiles>
CNC(C)C(=O)NC(C(=O)N1Cc2cc([101O:1][101CH:1](C)C(C)c3nc(OC)cc(C4CC[100N:0]([100C:0](=O)N5CCCC(n6nc(-c7ccc(Oc8ccc(F)cc8F)cc7)c(C(N)=O)c6N)C5)C4)n3)ccc2CC1C(=O)NC1CCCc2ccccc21)C(C)(C)C

> <Shape>
0.247

> <Color>
0.080

> <Negative vol penalty>
0.000

$$$$

  -OEChem-04052322473D

 87 96  0     1  0  0  0  0  0999 V2000
  -22.1541  -21.1129   26.8278 C   0  0  0  0  0  0  0  0  0  0  0  0
  -23.3396  -21.1739   26.1023 C   0  0  0  0  0  0  0  0  0  0  0  0
  -26.2140  -13.7191   18.6493 C   0  0  0  0  0  0  0  0  0  0  0  0
  -25.5697  -13.9436   20.9670 C   0  0  0  0  0  0  0  0  0  0  0  0
  -21.0767  -21.9222   26.4698 C   0  0  0  0  0  0  0  0  0  0  0  0
  -23.4479  -22.0434   25.0176 C   0  0  0  0  0  0  0  0  0  0  0  0
  -28.4511  -25.0854   23.2231 C   0  0  0  0  0  0  0  0  0  0  0  0
  -25.2507  -12.7251   18.4778 C   0  0  0  0  0  0  0  0  0  0  0  0
  -24.6063  -12.9496   20.7955 C   0  0  0  0  0  0  0  0  0  0  0  0
  -29.3977  -24.8320   22.2313 C   0  0  0  0  0  0  0  0  0  0  0  0
  -24.5117   -9.5740   20.6300 C   0  0  0  0  0  0  0  0  0  0  0  0
  -24.4194   -8.5851   21.6093 C   0  0  0  0  0  0  0  0  0  0  0  0
  -28.1968  -26.2821   20.7232 C   0  0  0  0  0  0  0  0  0  0  0  0
  -22.1309   -9.2273   22.0422 C   0  0  0  0  0  0  0  0  0  0  0  0
  -26.3736  -14.3284   19.8940 C   0  0  0  0  0  0  0  0  0  0  0  0
  -28.7590  -15.2325   19.8860 C   0  0  0  0  0  0  0  0  0  0  0  0
  -21.1751  -22.8091   25.3861 C   0  0  0  0  0  0  0  0  0  0  0  0
  -27.3626  -25.9319   22.9685 C   0  0  0  0  0  0  0  0  0  0  0  0
  -22.3703  -22.8643   24.6439 C   0  0  0  0  0  0  0  0  0  0  0  0
  -27.2393  -26.5467   21.7143 C   0  0  0  0  0  0  0  0  0  0  0  0
  -28.1021  -23.9693   16.0945 C   0  0  0  0  0  0  0  0  0  0  0  0
  -24.4468  -12.3403   19.5508 C   0  0  0  0  0  0  0  0  0  0  0  0
  -29.2690  -25.4281   20.9802 C   0  0  0  0  0  0  0  0  0  0  0  0
  -23.4136  -10.3897   20.3568 C   0  0  0  0  0  0  0  0  0  0  0  0
  -23.2290   -8.4116   22.3154 C   0  0  0  0  0  0  0  0  0  0  0  0
  -22.2232  -10.2162   21.0629 C   0  0  0  0  0  0  0  0  0  0  0  0
  -27.3689  -15.3549   20.0720 C   0  0  0  0  0  0  0  0  0  0  0  0
  -27.9811  -23.1996   17.2335 C   0  0  0  0  0  0  0  0  0  0  0  0
  -29.3881  -24.3402   15.7585 C   0  0  0  0  0  0  0  0  0  0  0  0
  -29.2557  -16.4789   20.1797 C   0  0  0  0  0  0  0  0  0  0  0  0
  -30.2301  -23.2408   17.5611 C   0  0  0  0  0  0  0  0  0  0  0  0
  -29.5321  -14.0940   19.4837 C   0  0  0  0  0  0  0  0  0  0  0  0
  -24.2044  -25.5742   22.9276 C   0  0  0  0  0  0  0  0  0  0  0  0
  -24.2370  -28.7875   22.4846 C   0  0  0  0  0  0  0  0  0  0  0  0
  -25.9361  -31.5478   21.4167 C   0  0  0  0  0  0  0  0  0  0  0  0
  -26.8531  -21.9616   20.0437 C   0  0  0  0  0  0  0  0  0  0  0  0
  -19.9677  -23.6297   25.0077 C   0  0  0  0  0  0  0  0  0  0  0  0
  -26.3648  -26.2162   24.0575 C   0  0  0  0  0  0  0  0  0  0  0  0
  -26.1001  -27.4794   21.3969 C   0  0  0  0  0  0  0  0  0  0  0  0
  -20.2910  -24.7954   24.0766 C   0  0  0  0  0  0  0  0  0  0  0  0
  -28.3364  -20.3431   22.8468 C   0  0  0  0  0  0  0  0  0  0  0  0
  -21.1968  -24.3348   22.9391 C   0  0  0  0  0  0  0  0  0  0  0  0
  -28.3820  -18.8701   22.4367 C   0  0  0  0  0  0  0  0  0  0  0  0
  -31.1500  -21.9612   19.6487 C   0  0  0  0  0  0  0  0  0  0  0  0
  -30.6712  -22.9379   20.7273 C   0  0  0  0  0  0  0  0  0  0  0  0
  -32.1213  -24.0389   19.0914 C   0  0  0  0  0  0  0  0  0  0  0  0
  -27.0765  -21.0341   22.3298 C   0  0  0  0  0  0  0  0  0  0  0  0
  -26.8945  -19.4290   20.4685 C   0  0  0  0  0  0  0  0  0  0  0  0
  -22.5349  -23.8128   23.4762 C   0  0  1  0  0  0  0  0  0  0  0  0
  -25.0162  -26.6893   23.5237 C   0  0  1  0  0  0  0  0  0  0  0  0
  -28.1740  -18.7038   20.9194 C   0  0  2  0  0  0  0  0  0  0  0  0
  -31.4477  -22.8239   18.4003 C   0  0  2  0  0  0  0  0  0  0  0  0
  -31.2658  -24.3020   20.3431 C   0  0  2  0  0  0  0  0  0  1  0  0
  -26.9162  -24.3682   15.2876 C   0  0  0  0  0  0  0  0  0  0  0  0
  -32.4415  -22.0815   17.4896 C   0  0  0  0  0  0  0  0  0  0  0  0
  -32.0649  -24.9380   21.4738 C   0  0  0  0  0  0  0  0  0  0  0  0
  -25.6887  -34.0300   21.1438 C   0  0  0  0  0  0  0  0  0  0  0  0
  -22.4881  -28.3402   20.0246 C   0  0  0  0  0  0  0  0  0  0  0  0
  -23.0603  -30.6616   19.2817 C   0  0  0  0  0  0  0  0  0  0  0  0
  -21.8350  -30.3063   21.4253 C   0  0  0  0  0  0  0  0  0  0  0  0
  -28.1834  -32.0918   23.2640 C   0  0  0  0  0  0  0  0  0  0  0  0
  -26.6383  -22.7381   17.6964 C   0  0  0  0  0  0  0  0  0  0  0  0
  -24.2855  -29.7006   21.2834 C   0  0  1  0  0  0  0  0  0  0  0  0
  -26.1541  -32.9067   22.0572 C   0  0  2  0  0  0  0  0  0  0  0  0
  -22.9378  -29.7331   20.5088 C   0  0  0  0  0  0  0  0  0  0  0  0
  -27.0059  -16.5821   20.4544 N   0  0  0  0  0  0  0  0  0  0  0  0
  -29.0277  -22.8157   17.9934 N   0  0  0  0  0  0  0  0  0  0  0  0
  -30.4792  -23.9926   16.4719 N   0  0  0  0  0  0  0  0  0  0  0  0
  -28.1751  -17.2422   20.5111 N   0  0  0  0  0  0  0  0  0  0  0  0
  -25.1468  -27.7207   22.4926 N   0  0  0  0  0  0  0  0  0  0  0  0
  -26.9389  -20.8396   20.8844 N   0  0  0  0  0  0  0  0  0  0  0  0
  -29.5778  -25.1316   14.5988 N   0  0  0  0  0  0  0  0  0  0  0  0
  -30.5070  -16.9854   20.1843 N   0  0  0  0  0  0  0  0  0  0  0  0
  -30.0212  -13.2340   20.4763 N   0  0  0  0  0  0  0  0  0  0  0  0
  -23.3993  -24.9158   23.8375 N   0  0  0  0  0  0  0  0  0  0  0  0
  -24.7223  -31.0020   21.7773 N   0  0  0  0  0  0  0  0  0  0  0  0
  -26.7310  -21.6887   18.6868 N   0  0  0  0  0  0  0  0  0  0  0  0
  -27.5995  -33.1126   22.3562 N   0  3  0  0  0  0  0  0  0  0  0  0
  -29.7956  -13.8558   18.2806 O   0  0  0  0  0  0  0  0  0  0  0  0
  -24.3002  -25.3303   21.7305 O   0  0  0  0  0  0  0  0  0  0  0  0
  -23.4266  -29.0165   23.3859 O   0  0  0  0  0  0  0  0  0  0  0  0
  -26.7586  -31.0245   20.6682 O   0  0  0  0  0  0  0  0  0  0  0  0
  -26.8885  -23.1208   20.4703 O   0  0  0  0  0  0  0  0  0  0  0  0
  -23.5065  -11.3705   19.3837 O   0  0  0  0  0  0  0  0  0  0  0  0
  -30.1911  -25.1819   20.0102 O   0  0  0  0  0  0  0  0  0  1  0  0
  -23.1401   -7.4609   23.2547 F   0  0  0  0  0  0  0  0  0  0  0  0
  -21.1645  -10.9960   20.8041 F   0  0  0  0  0  0  0  0  0  0  0  0
  1  2  1  0  0  0  0
  1  5  2  0  0  0  0
  2  6  2  0  0  0  0
  3  8  2  0  0  0  0
  3 15  1  0  0  0  0
  4  9  1  0  0  0  0
  4 15  2  0  0  0  0
  5 17  1  0  0  0  0
  6 19  1  0  0  0  0
  7 10  2  0  0  0  0
  7 18  1  0  0  0  0
  8 22  1  0  0  0  0
  9 22  2  0  0  0  0
 10 23  1  0  0  0  0
 11 12  2  0  0  0  0
 11 24  1  0  0  0  0
 12 25  1  0  0  0  0
 13 20  1  0  0  0  0
 13 23  2  0  0  0  0
 14 25  2  0  0  0  0
 14 26  1  0  0  0  0
 15 27  1  0  0  0  0
 16 27  1  0  0  0  0
 16 30  2  0  0  0  0
 16 32  1  0  0  0  0
 17 19  2  0  0  0  0
 17 37  1  0  0  0  0
 18 20  2  0  0  0  0
 18 38  1  0  0  0  0
 19 49  1  0  0  0  0
 20 39  1  0  0  0  0
 21 28  2  0  0  0  0
 21 29  1  0  0  0  0
 21 54  1  0  0  0  0
 22 84  1  0  0  0  0
 23 85  1  0  0  0  0
 24 26  2  0  0  0  0
 24 84  1  0  0  0  0
 25 86  1  0  0  0  0
 26 87  1  0  0  0  0
 27 66  2  0  0  0  0
 28 62  1  0  0  0  0
 28 67  1  0  0  0  0
 29 68  2  0  0  0  0
 29 72  1  0  0  0  0
 30 69  1  0  0  0  0
 30 73  1  0  0  0  0
 31 52  1  0  0  0  0
 31 67  2  0  0  0  0
 31 68  1  0  0  0  0
 32 74  1  0  0  0  0
 32 79  2  0  0  0  0
 33 50  1  0  0  0  0
 33 75  1  0  0  0  0
 33 80  2  0  0  0  0
 34 63  1  0  0  0  0
 34 70  1  0  0  0  0
 34 81  2  0  0  0  0
 35 64  1  0  0  0  0
 35 76  1  0  0  0  0
 35 82  2  0  0  0  0
 36 71  1  0  0  0  0
 36 77  1  0  0  0  0
 36 83  2  0  0  0  0
 37 40  1  0  0  0  0
 38 50  1  0  0  0  0
 39 70  1  0  0  0  0
 40 42  1  0  0  0  0
 41 43  1  0  0  0  0
 41 47  1  0  0  0  0
 42 49  1  0  0  0  0
 43 51  1  0  0  0  0
 44 45  1  0  0  0  0
 44 52  1  0  0  0  0
 45 53  1  0  0  0  0
 46 52  1  0  0  0  0
 46 53  1  0  0  0  0
 47 71  1  0  0  0  0
 48 51  1  0  0  0  0
 48 71  1  0  0  0  0
 49 75  1  0  0  0  0
 50 70  1  0  0  0  0
 51 69  1  0  0  0  0
 52 55  1  0  0  0  0
 53 56  1  0  0  0  0
 53 85  1  0  0  0  0
 57 64  1  0  0  0  0
 58 65  1  0  0  0  0
 59 65  1  0  0  0  0
 60 65  1  0  0  0  0
 61 78  1  0  0  0  0
 62 77  1  0  0  0  0
 63 65  1  0  0  0  0
 63 76  1  0  0  0  0
 64 78  1  0  0  0  0
 66 69  1  0  0  0  0
M  CHG  1  78   1
M  ISO  4  36 100  53 101  77 100  85 101
M  END
> <Batch ID>
0175

> <Smiles>
CNC(C)C(=O)NC(C(=O)N1Cc2cc([101O:1][101C:1]3(C)CCC(C)(c4nc(N)c(C)c(C[100NH:0][100C:0](=O)N5CCCC(n6nc(-c7ccc(Oc8ccc(F)cc8F)cc7)c(C(N)=O)c6N)C5)n4)C3)ccc2CC1C(=O)NC1CCCc2ccccc21)C(C)(C)C

> <Shape>
0.221

> <Color>
0.067

> <Negative vol penalty>
0.000

$$$$

  -OEChem-04052322473D

 86 95  0     1  0  0  0  0  0999 V2000
  -27.5913  -24.8654   16.3233 C   0  0  0  0  0  0  0  0  0  0  0  0
  -26.4128  -25.1234   17.0162 C   0  0  0  0  0  0  0  0  0  0  0  0
  -25.8615  -14.2844   18.5492 C   0  0  0  0  0  0  0  0  0  0  0  0
  -24.0757  -14.5740   20.1505 C   0  0  0  0  0  0  0  0  0  0  0  0
  -28.8179  -25.2317   16.8759 C   0  0  0  0  0  0  0  0  0  0  0  0
  -26.4604  -25.7468   18.2626 C   0  0  0  0  0  0  0  0  0  0  0  0
  -22.9960  -29.4101   18.7358 C   0  0  0  0  0  0  0  0  0  0  0  0
  -26.1469  -13.0325   19.0939 C   0  0  0  0  0  0  0  0  0  0  0  0
  -24.3611  -13.3220   20.6952 C   0  0  0  0  0  0  0  0  0  0  0  0
  -21.6833  -29.0158   18.9911 C   0  0  0  0  0  0  0  0  0  0  0  0
  -24.3854  -10.0476   22.2750 C   0  0  0  0  0  0  0  0  0  0  0  0
  -23.3128   -9.1996   22.5505 C   0  0  0  0  0  0  0  0  0  0  0  0
  -21.9941  -29.5169   21.3302 C   0  0  0  0  0  0  0  0  0  0  0  0
  -20.6527  -22.9204   20.8592 C   0  0  0  0  0  0  0  0  0  0  0  0
  -22.6873   -9.2327   20.2171 C   0  0  0  0  0  0  0  0  0  0  0  0
  -21.1998  -25.5644   21.2538 C   0  0  0  0  0  0  0  0  0  0  0  0
  -24.8259  -15.0553   19.0775 C   0  0  0  0  0  0  0  0  0  0  0  0
  -23.6369  -16.6363   17.4669 C   0  0  0  0  0  0  0  0  0  0  0  0
  -28.8798  -25.8686   18.1253 C   0  0  0  0  0  0  0  0  0  0  0  0
  -23.8224  -29.8511   19.7793 C   0  0  0  0  0  0  0  0  0  0  0  0
  -27.6890  -26.1207   18.8330 C   0  0  0  0  0  0  0  0  0  0  0  0
  -23.3161  -29.9186   21.0852 C   0  0  0  0  0  0  0  0  0  0  0  0
  -19.8806  -25.1482   21.3339 C   0  0  0  0  0  0  0  0  0  0  0  0
  -19.6103  -23.7994   21.1316 C   0  0  0  0  0  0  0  0  0  0  0  0
  -25.3967  -12.5513   20.1669 C   0  0  0  0  0  0  0  0  0  0  0  0
  -21.1830  -29.0665   20.2889 C   0  0  0  0  0  0  0  0  0  0  0  0
  -24.6090  -10.4883   20.9705 C   0  0  0  0  0  0  0  0  0  0  0  0
  -22.4637   -8.7921   21.5215 C   0  0  0  0  0  0  0  0  0  0  0  0
  -23.7599  -10.0808   19.9416 C   0  0  0  0  0  0  0  0  0  0  0  0
  -24.5309  -16.3488   18.5156 C   0  0  0  0  0  0  0  0  0  0  0  0
  -21.9373  -23.4364   20.8001 C   0  0  0  0  0  0  0  0  0  0  0  0
  -23.7170  -17.9986   17.3111 C   0  0  0  0  0  0  0  0  0  0  0  0
  -22.8080  -15.7512   16.7020 C   0  0  0  0  0  0  0  0  0  0  0  0
  -26.5515  -28.8419   21.0588 C   0  0  0  0  0  0  0  0  0  0  0  0
  -26.3185  -31.5931   22.7614 C   0  0  0  0  0  0  0  0  0  0  0  0
  -24.3251  -34.0578   24.0257 C   0  0  0  0  0  0  0  0  0  0  0  0
  -24.3514  -22.8284   20.4145 C   0  0  0  0  0  0  0  0  0  0  0  0
  -30.2321  -26.2032   18.7033 C   0  0  0  0  0  0  0  0  0  0  0  0
  -25.2277  -30.2982   19.4832 C   0  0  0  0  0  0  0  0  0  0  0  0
  -24.1561  -30.4037   22.2373 C   0  0  0  0  0  0  0  0  0  0  0  0
  -30.1710  -27.1976   19.8599 C   0  0  0  0  0  0  0  0  0  0  0  0
  -27.0412  -21.4558   18.5282 C   0  0  0  0  0  0  0  0  0  0  0  0
  -29.0769  -26.8024   20.8466 C   0  0  0  0  0  0  0  0  0  0  0  0
  -26.5822  -20.0268   18.2292 C   0  0  0  0  0  0  0  0  0  0  0  0
  -18.8733  -26.8961   22.9379 C   0  0  0  0  0  0  0  0  0  0  0  0
  -17.8468  -25.8204   22.7668 C   0  0  0  0  0  0  0  0  0  0  0  0
  -26.6074  -21.9112   19.9204 C   0  0  0  0  0  0  0  0  0  0  0  0
  -24.7152  -20.3338   19.9046 C   0  0  0  0  0  0  0  0  0  0  0  0
  -27.6978  -26.8175   20.1763 C   0  0  1  0  0  0  0  0  0  0  0  0
  -26.1419  -30.2431   20.7033 C   0  0  1  0  0  0  0  0  0  0  0  0
  -25.0727  -19.8539   18.4884 C   0  0  2  0  0  0  0  0  0  0  0  0
  -18.8010  -26.1322   21.6279 C   0  0  0  0  0  0  0  0  0  0  0  0
  -18.0609  -22.1786   22.2535 C   0  0  0  0  0  0  0  0  0  0  0  0
  -24.4166  -36.1508   25.4070 C   0  0  0  0  0  0  0  0  0  0  0  0
  -17.1377  -27.8429   20.8582 C   0  0  0  0  0  0  0  0  0  0  0  0
  -17.6281  -25.8559   19.4420 C   0  0  0  0  0  0  0  0  0  0  0  0
  -26.6312  -29.9097   25.2869 C   0  0  0  0  0  0  0  0  0  0  0  0
  -25.7772  -31.8579   26.6074 C   0  0  0  0  0  0  0  0  0  0  0  0
  -27.8962  -32.0669   25.3079 C   0  0  0  0  0  0  0  0  0  0  0  0
  -23.2777  -35.7086   21.8038 C   0  0  0  0  0  0  0  0  0  0  0  0
  -18.2147  -23.2735   21.2020 C   0  0  0  0  0  0  0  0  0  0  0  0
  -19.3474  -27.6765   19.6934 C   0  0  0  0  0  0  0  0  0  1  0  0
  -25.6897  -31.9867   24.0762 C   0  0  1  0  0  0  0  0  0  0  0  0
  -24.4554  -35.5701   24.0021 C   0  0  2  0  0  0  0  0  0  0  0  0
  -18.2370  -26.8664   20.3990 C   0  0  0  0  0  0  0  0  0  0  0  0
  -26.4831  -31.4443   25.2984 C   0  0  0  0  0  0  0  0  0  0  0  0
  -22.2388  -24.7404   20.9912 N   0  0  0  0  0  0  0  0  0  0  0  0
  -25.1348  -17.4407   18.9923 N   0  0  0  0  0  0  0  0  0  0  0  0
  -24.6193  -18.4275   18.2396 N   0  0  0  0  0  0  0  0  0  0  0  0
  -25.5257  -30.8239   21.8979 N   0  0  0  0  0  0  0  0  0  0  0  0
  -25.1654  -21.7219   20.0923 N   0  0  0  0  0  0  0  0  0  0  0  0
  -23.1031  -18.8595   16.4718 N   0  0  0  0  0  0  0  0  0  0  0  0
  -22.8475  -14.3807   16.9928 N   0  0  0  0  0  0  0  0  0  0  0  0
  -22.9927  -22.5332   20.5206 N   0  0  0  0  0  0  0  0  0  0  0  0
  -27.2141  -28.1753   20.0459 N   0  0  0  0  0  0  0  0  0  0  0  0
  -25.5573  -33.4392   24.0467 N   0  0  0  0  0  0  0  0  0  0  0  0
  -23.3444  -36.1735   23.2132 N   0  3  0  0  0  0  0  0  0  0  0  0
  -22.0670  -16.1613   15.7767 O   0  0  0  0  0  0  0  0  0  0  0  0
  -26.2874  -28.3988   22.1704 O   0  0  0  0  0  0  0  0  0  0  0  0
  -27.4681  -31.9608   22.5067 O   0  0  0  0  0  0  0  0  0  0  0  0
  -23.2389  -33.4828   24.0291 O   0  0  0  0  0  0  0  0  0  0  0  0
  -24.8214  -23.9602   20.5570 O   0  0  0  0  0  0  0  0  0  0  0  0
  -25.6748  -11.3295   20.6985 O   0  0  0  0  0  0  0  0  0  0  0  0
  -19.9023  -28.6817   20.5409 O   0  0  0  0  0  0  0  0  0  1  0  0
  -21.4346   -7.9765   21.7860 F   0  0  0  0  0  0  0  0  0  0  0  0
  -23.9704  -10.4998   18.6862 F   0  0  0  0  0  0  0  0  0  0  0  0
  1  2  1  0  0  0  0
  1  5  2  0  0  0  0
  2  6  2  0  0  0  0
  3  8  2  0  0  0  0
  3 17  1  0  0  0  0
  4  9  1  0  0  0  0
  4 17  2  0  0  0  0
  5 19  1  0  0  0  0
  6 21  1  0  0  0  0
  7 10  2  0  0  0  0
  7 20  1  0  0  0  0
  8 25  1  0  0  0  0
  9 25  2  0  0  0  0
 10 26  1  0  0  0  0
 11 12  2  0  0  0  0
 11 27  1  0  0  0  0
 12 28  1  0  0  0  0
 13 22  1  0  0  0  0
 13 26  2  0  0  0  0
 14 24  1  0  0  0  0
 14 31  2  0  0  0  0
 15 28  2  0  0  0  0
 15 29  1  0  0  0  0
 16 23  1  0  0  0  0
 16 67  2  0  0  0  0
 17 30  1  0  0  0  0
 18 30  1  0  0  0  0
 18 32  2  0  0  0  0
 18 33  1  0  0  0  0
 19 21  2  0  0  0  0
 19 38  1  0  0  0  0
 20 22  2  0  0  0  0
 20 39  1  0  0  0  0
 21 49  1  0  0  0  0
 22 40  1  0  0  0  0
 23 24  2  0  0  0  0
 23 52  1  0  0  0  0
 24 61  1  0  0  0  0
 25 83  1  0  0  0  0
 26 84  1  0  0  0  0
 27 29  2  0  0  0  0
 27 83  1  0  0  0  0
 28 85  1  0  0  0  0
 29 86  1  0  0  0  0
 30 68  2  0  0  0  0
 31 67  1  0  0  0  0
 31 74  1  0  0  0  0
 32 69  1  0  0  0  0
 32 72  1  0  0  0  0
 33 73  1  0  0  0  0
 33 78  2  0  0  0  0
 34 50  1  0  0  0  0
 34 75  1  0  0  0  0
 34 79  2  0  0  0  0
 35 63  1  0  0  0  0
 35 70  1  0  0  0  0
 35 80  2  0  0  0  0
 36 64  1  0  0  0  0
 36 76  1  0  0  0  0
 36 81  2  0  0  0  0
 37 71  1  0  0  0  0
 37 74  1  0  0  0  0
 37 82  2  0  0  0  0
 38 41  1  0  0  0  0
 39 50  1  0  0  0  0
 40 70  1  0  0  0  0
 41 43  1  0  0  0  0
 42 44  1  0  0  0  0
 42 47  1  0  0  0  0
 43 49  1  0  0  0  0
 44 51  1  0  0  0  0
 45 46  1  0  0  0  0
 45 52  1  0  0  0  0
 46 52  1  0  0  0  0
 47 71  1  0  0  0  0
 48 51  1  0  0  0  0
 48 71  1  0  0  0  0
 49 75  1  0  0  0  0
 50 70  1  0  0  0  0
 51 69  1  0  0  0  0
 52 65  1  0  0  0  0
 53 61  1  0  0  0  0
 54 64  1  0  0  0  0
 55 65  1  0  0  0  0
 56 65  1  0  0  0  0
 57 66  1  0  0  0  0
 58 66  1  0  0  0  0
 59 66  1  0  0  0  0
 60 77  1  0  0  0  0
 62 65  1  0  0  0  0
 62 84  1  0  0  0  0
 63 66  1  0  0  0  0
 63 76  1  0  0  0  0
 64 77  1  0  0  0  0
 68 69  1  0  0  0  0
M  CHG  1  77   1
M  ISO  4  37 100  62 101  74 100  84 101
M  END
> <Batch ID>
0175

> <Smiles>
CCc1cc([100NH:0][100C:0](=O)N2CCCC(n3nc(-c4ccc(Oc5ccc(F)cc5F)cc4)c(C(N)=O)c3N)C2)ncc1C1(C(C)(C)[101CH2:1][101O:1]c2ccc3c(c2)CN(C(=O)C(NC(=O)C(C)NC)C(C)(C)C)C(C(=O)NC2CCCc4ccccc42)C3)CC1

> <Shape>
0.278

> <Color>
0.085

> <Negative vol penalty>
0.000

$$$$

  -OEChem-04052322473D

 96108  0     1  0  0  0  0  0999 V2000
  -19.4062  -32.2676   15.6960 C   0  0  0  0  0  0  0  0  0  0  0  0
  -20.4069  -31.3066   15.7989 C   0  0  0  0  0  0  0  0  0  0  0  0
  -24.4845  -14.9447   18.5793 C   0  0  0  0  0  0  0  0  0  0  0  0
  -26.5280  -13.8280   17.9357 C   0  0  0  0  0  0  0  0  0  0  0  0
  -19.5340  -33.4805   16.3716 C   0  0  0  0  0  0  0  0  0  0  0  0
  -21.5366  -31.5585   16.5767 C   0  0  0  0  0  0  0  0  0  0  0  0
  -24.7094  -27.4968   19.8845 C   0  0  0  0  0  0  0  0  0  0  0  0
  -24.7248  -15.9340   17.6259 C   0  0  0  0  0  0  0  0  0  0  0  0
  -26.7682  -14.8173   16.9821 C   0  0  0  0  0  0  0  0  0  0  0  0
  -25.8881  -26.7968   19.6310 C   0  0  0  0  0  0  0  0  0  0  0  0
  -24.9846  -18.9473   15.6069 C   0  0  0  0  0  0  0  0  0  0  0  0
  -24.7981  -20.2761   15.9877 C   0  0  0  0  0  0  0  0  0  0  0  0
  -27.1366  -28.4762   20.8310 C   0  0  0  0  0  0  0  0  0  0  0  0
  -26.4757  -20.0189   17.7071 C   0  0  0  0  0  0  0  0  0  0  0  0
  -25.3862  -13.8917   18.7343 C   0  0  0  0  0  0  0  0  0  0  0  0
  -24.0275  -12.0086   19.7905 C   0  0  0  0  0  0  0  0  0  0  0  0
  -20.6613  -33.7436   17.1657 C   0  0  0  0  0  0  0  0  0  0  0  0
  -24.7368  -28.6995   20.6051 C   0  0  0  0  0  0  0  0  0  0  0  0
  -21.6802  -32.7767   17.2624 C   0  0  0  0  0  0  0  0  0  0  0  0
  -25.9565  -29.1883   21.0946 C   0  0  0  0  0  0  0  0  0  0  0  0
  -29.6770  -23.0953   20.1206 C   0  0  0  0  0  0  0  0  0  0  0  0
  -29.5196  -22.8972   21.4878 C   0  0  0  0  0  0  0  0  0  0  0  0
  -29.7094  -21.6299   22.0273 C   0  0  0  0  0  0  0  0  0  0  0  0
  -25.8666  -15.8703   16.8272 C   0  0  0  0  0  0  0  0  0  0  0  0
  -27.1023  -27.2879   20.1017 C   0  0  0  0  0  0  0  0  0  0  0  0
  -25.9166  -18.1542   16.2763 C   0  0  0  0  0  0  0  0  0  0  0  0
  -25.5436  -20.8119   17.0378 C   0  0  0  0  0  0  0  0  0  0  0  0
  -26.6622  -18.6900   17.3263 C   0  0  0  0  0  0  0  0  0  0  0  0
  -25.1389  -12.8698   19.7195 C   0  0  0  0  0  0  0  0  0  0  0  0
  -30.0531  -20.6022   21.1638 C   0  0  0  0  0  0  0  0  0  0  0  0
  -30.0223  -22.0021   19.3425 C   0  0  0  0  0  0  0  0  0  0  0  0
  -24.2655  -11.2315   20.8977 C   0  0  0  0  0  0  0  0  0  0  0  0
  -22.8825  -11.9191   18.9322 C   0  0  0  0  0  0  0  0  0  0  0  0
  -23.9659  -31.7161   19.9649 C   0  0  0  0  0  0  0  0  0  0  0  0
  -24.6032  -32.1388   23.1173 C   0  0  0  0  0  0  0  0  0  0  0  0
  -26.2318  -31.0568   25.9144 C   0  0  0  0  0  0  0  0  0  0  0  0
  -29.2655  -13.0930   22.2703 C   0  0  0  0  0  0  0  0  0  0  0  0
  -20.7770  -35.0880   17.8393 C   0  0  0  0  0  0  0  0  0  0  0  0
  -23.4532  -29.4288   20.8932 C   0  0  0  0  0  0  0  0  0  0  0  0
  -26.0373  -30.4643   21.8907 C   0  0  0  0  0  0  0  0  0  0  0  0
  -21.8303  -35.1275   18.9435 C   0  0  0  0  0  0  0  0  0  0  0  0
  -26.7855  -11.9137   24.9602 C   0  0  0  0  0  0  0  0  0  0  0  0
  -23.1268  -34.4796   18.4679 C   0  0  0  0  0  0  0  0  0  0  0  0
  -28.9684  -18.3927   21.7439 C   0  0  0  0  0  0  0  0  0  0  0  0
  -31.0306  -20.3859   26.4289 C   0  0  0  0  0  0  0  0  0  0  0  0
  -31.7659  -21.6676   26.7055 C   0  0  0  0  0  0  0  0  0  0  0  0
  -25.6786  -11.8094   23.9184 C   0  0  0  0  0  0  0  0  0  0  0  0
  -29.2150  -17.0109   22.3385 C   0  0  0  0  0  0  0  0  0  0  0  0
  -31.8434  -15.6111   23.2745 C   0  0  0  0  0  0  0  0  0  0  0  0
  -28.5017  -24.5974   18.3774 C   0  0  0  0  0  0  0  0  0  0  0  0
  -27.9513  -12.7320   24.4123 C   0  0  0  0  0  0  0  0  0  0  0  0
  -27.7140  -11.1690   22.4788 C   0  0  0  0  0  0  0  0  0  0  0  0
  -32.3831  -16.8667   22.5945 C   0  0  0  0  0  0  0  0  0  0  0  0
  -31.3341  -18.4558   20.8737 C   0  0  0  0  0  0  0  0  0  0  0  0
  -29.4820  -24.4345   19.5154 C   0  0  1  0  0  0  0  0  0  0  0  0
  -22.9089  -33.0030   18.1162 C   0  0  1  0  0  0  0  0  0  0  0  0
  -30.2747  -19.1959   21.6935 C   0  0  1  0  0  0  0  0  0  0  0  0
  -23.6622  -30.9094   21.1957 C   0  0  1  0  0  0  0  0  0  0  0  0
  -30.5731  -21.6678   25.7900 C   0  0  0  0  0  0  0  0  0  0  0  0
  -26.1794  -11.1264   22.6301 C   0  0  2  0  0  0  0  0  0  0  0  0
  -30.8435  -15.0104   22.2886 C   0  0  2  0  0  0  0  0  0  0  0  0
  -30.2702  -16.2214   21.5557 C   0  0  2  0  0  0  0  0  0  0  0  0
  -28.1700  -25.1578   19.7266 C   0  0  1  0  0  0  0  0  0  1  0  0
  -29.1489  -24.0418   22.3769 C   0  0  0  0  0  0  0  0  0  0  0  0
  -30.2072  -22.1517   17.8675 C   0  0  0  0  0  0  0  0  0  0  0  0
  -26.5891  -31.6296   28.3313 C   0  0  0  0  0  0  0  0  0  0  0  0
  -26.5160  -34.3722   22.3028 C   0  0  0  0  0  0  0  0  0  0  0  0
  -27.5219  -34.2508   24.5923 C   0  0  0  0  0  0  0  0  0  0  0  0
  -25.1225  -34.8753   24.3176 C   0  0  0  0  0  0  0  0  0  0  0  0
  -25.0414  -28.5016   26.8159 C   0  0  0  0  0  0  0  0  0  0  0  0
  -29.5475  -21.3854   23.4904 C   0  0  0  0  0  0  0  0  0  0  0  0
  -30.7549  -21.8870   24.2964 C   0  0  0  0  0  0  0  0  0  0  0  0
  -25.8332  -32.4813   23.9228 C   0  0  1  0  0  0  0  0  0  0  0  0
  -25.7523  -30.8384   27.3381 C   0  0  2  0  0  0  0  0  0  0  0  0
  -26.2475  -33.9718   23.7672 C   0  0  0  0  0  0  0  0  0  0  0  0
  -26.0175  -12.6599   20.7034 N   0  0  0  0  0  0  0  0  0  0  0  0
  -30.2150  -20.7562   19.8306 N   0  0  0  0  0  0  0  0  0  0  0  0
  -25.4583  -11.6580   21.4031 N   0  0  0  0  0  0  0  0  0  0  0  0
  -24.7557  -31.1444   22.1408 N   0  0  0  0  0  0  0  0  0  0  0  0
  -28.3157  -12.3839   23.0321 N   0  0  0  0  0  0  0  0  0  0  0  0
  -23.5687  -10.2317   21.4785 N   0  0  0  0  0  0  0  0  0  0  0  0
  -22.9401  -11.0564   17.8291 N   0  0  0  0  0  0  0  0  0  0  0  0
  -22.8446  -32.2011   19.3193 N   0  0  0  0  0  0  0  0  0  0  0  0
  -25.5463  -32.0811   25.2961 N   0  0  0  0  0  0  0  0  0  0  0  0
  -29.8510  -14.1740   22.9240 N   0  0  0  0  0  0  0  0  0  0  0  0
  -31.5244  -17.0498   21.3606 N   0  3  2  0  0  0  0  0  0  0  0  0
  -25.8369  -29.3946   27.6973 N   0  3  0  0  0  0  0  0  0  0  0  0
  -21.8451  -12.5966   19.1282 O   0  0  0  0  0  0  0  0  0  0  0  0
  -25.1313  -31.8871   19.6270 O   0  0  0  0  0  0  0  0  0  0  0  0
  -23.5443  -32.7268   23.3509 O   0  0  0  0  0  0  0  0  0  0  0  0
  -27.1276  -30.3884   25.4033 O   0  0  0  0  0  0  0  0  0  0  0  0
  -29.5628  -12.7900   21.1109 O   0  0  0  0  0  0  0  0  0  0  0  0
  -26.1012  -16.8353   15.8965 O   0  0  0  0  0  0  0  0  0  0  0  0
  -28.2544  -26.6070   19.8550 O   0  0  0  0  0  0  0  0  0  1  0  0
  -25.3655  -22.0885   17.4023 F   0  0  0  0  0  0  0  0  0  0  0  0
  -27.5599  -17.9334   17.9724 F   0  0  0  0  0  0  0  0  0  0  0  0
  1  2  1  0  0  0  0
  1  5  2  0  0  0  0
  2  6  2  0  0  0  0
  3  8  2  0  0  0  0
  3 15  1  0  0  0  0
  4  9  1  0  0  0  0
  4 15  2  0  0  0  0
  5 17  1  0  0  0  0
  6 19  1  0  0  0  0
  7 10  2  0  0  0  0
  7 18  1  0  0  0  0
  8 24  1  0  0  0  0
  9 24  2  0  0  0  0
 10 25  1  0  0  0  0
 11 12  2  0  0  0  0
 11 26  1  0  0  0  0
 12 27  1  0  0  0  0
 13 20  1  0  0  0  0
 13 25  2  0  0  0  0
 14 27  2  0  0  0  0
 14 28  1  0  0  0  0
 15 29  1  0  0  0  0
 16 29  1  0  0  0  0
 16 32  2  0  0  0  0
 16 33  1  0  0  0  0
 17 19  2  0  0  0  0
 17 38  1  0  0  0  0
 18 20  2  0  0  0  0
 18 39  1  0  0  0  0
 19 56  1  0  0  0  0
 20 40  1  0  0  0  0
 21 22  2  0  0  0  0
 21 31  1  0  0  0  0
 21 55  1  0  0  0  0
 22 23  1  0  0  0  0
 22 64  1  0  0  0  0
 23 30  2  0  0  0  0
 23 71  1  0  0  0  0
 24 93  1  0  0  0  0
 25 94  1  0  0  0  0
 26 28  2  0  0  0  0
 26 93  1  0  0  0  0
 27 95  1  0  0  0  0
 28 96  1  0  0  0  0
 29 76  2  0  0  0  0
 30 57  1  0  0  0  0
 30 77  1  0  0  0  0
 31 65  1  0  0  0  0
 31 77  2  0  0  0  0
 32 78  1  0  0  0  0
 32 81  1  0  0  0  0
 33 82  1  0  0  0  0
 33 88  2  0  0  0  0
 34 58  1  0  0  0  0
 34 83  1  0  0  0  0
 34 89  2  0  0  0  0
 35 73  1  0  0  0  0
 35 79  1  0  0  0  0
 35 90  2  0  0  0  0
 36 74  1  0  0  0  0
 36 84  1  0  0  0  0
 36 91  2  0  0  0  0
 37 80  1  0  0  0  0
 37 85  1  0  0  0  0
 37 92  2  0  0  0  0
 38 41  1  0  0  0  0
 39 58  1  0  0  0  0
 40 79  1  0  0  0  0
 41 43  1  0  0  0  0
 42 47  1  0  0  0  0
 42 51  1  0  0  0  0
 43 56  1  0  0  0  0
 44 48  1  0  0  0  0
 44 57  1  0  0  0  0
 45 46  1  0  0  0  0
 45 59  1  0  0  0  0
 46 59  1  0  0  0  0
 47 60  1  0  0  0  0
 48 62  1  0  0  0  0
 49 53  1  0  0  0  0
 49 61  1  0  0  0  0
 50 55  1  0  0  0  0
 50 63  1  0  0  0  0
 51 80  1  0  0  0  0
 52 60  1  0  0  0  0
 52 80  1  0  0  0  0
 53 86  1  0  0  0  0
 54 57  1  0  0  0  0
 54 86  1  0  0  0  0
 55 63  1  0  0  0  0
 56 83  1  0  0  0  0
 58 79  1  0  0  0  0
 59 72  1  0  0  0  0
 60 78  1  0  0  0  0
 61 62  1  0  0  0  0
 61 85  1  0  0  0  0
 62 86  1  0  0  0  0
 63 94  1  0  0  0  0
 66 74  1  0  0  0  0
 67 75  1  0  0  0  0
 68 75  1  0  0  0  0
 69 75  1  0  0  0  0
 70 87  1  0  0  0  0
 71 72  1  0  0  0  0
 73 75  1  0  0  0  0
 73 84  1  0  0  0  0
 74 87  1  0  0  0  0
 76 78  1  0  0  0  0
M  CHG  2  86   1  87   1
M  ISO  4  37 100  63 101  85 100  94 101
M  END
> <Batch ID>
0175

> <Smiles>
CNC(C)C(=O)NC(C(=O)N1Cc2cc([101O:1][101CH:1]3CC3c3c(C)nc(C4CCC5C([100NH:0][100C:0](=O)N6CCCC(n7nc(-c8ccc(Oc9ccc(F)cc9F)cc8)c(C(N)=O)c7N)C6)CCN5C4)c(CCC4CC4)c3C)ccc2CC1C(=O)NC1CCCc2ccccc21)C(C)(C)C

> <Shape>
0.258

> <Color>
0.088

> <Negative vol penalty>
0.000

$$$$

  -OEChem-04052322473D

 87 96  0     1  0  0  0  0  0999 V2000
  -19.3774  -30.0104   16.0037 C   0  0  0  0  0  0  0  0  0  0  0  0
  -20.5182  -29.2524   15.7602 C   0  0  0  0  0  0  0  0  0  0  0  0
  -23.2715  -10.2714   22.2544 C   0  0  0  0  0  0  0  0  0  0  0  0
  -23.6568   -9.5019   19.9969 C   0  0  0  0  0  0  0  0  0  0  0  0
  -19.3471  -30.8963   17.0799 C   0  0  0  0  0  0  0  0  0  0  0  0
  -21.6299  -29.3807   16.5921 C   0  0  0  0  0  0  0  0  0  0  0  0
  -25.5409  -24.9575   18.2186 C   0  0  0  0  0  0  0  0  0  0  0  0
  -22.5474   -9.1107   22.5265 C   0  0  0  0  0  0  0  0  0  0  0  0
  -22.9327   -8.3412   20.2689 C   0  0  0  0  0  0  0  0  0  0  0  0
  -26.8007  -24.5975   17.7421 C   0  0  0  0  0  0  0  0  0  0  0  0
  -19.4439   -7.9135   21.9269 C   0  0  0  0  0  0  0  0  0  0  0  0
  -18.2345   -8.0498   22.6083 C   0  0  0  0  0  0  0  0  0  0  0  0
  -27.8284  -25.8995   19.4936 C   0  0  0  0  0  0  0  0  0  0  0  0
  -29.1602  -18.8000   20.7676 C   0  0  0  0  0  0  0  0  0  0  0  0
  -19.0798   -6.6520   24.3884 C   0  0  0  0  0  0  0  0  0  0  0  0
  -23.8262  -10.4671   20.9896 C   0  0  0  0  0  0  0  0  0  0  0  0
  -24.1092  -12.9933   20.7759 C   0  0  0  0  0  0  0  0  0  0  0  0
  -20.4555  -31.0284   17.9312 C   0  0  0  0  0  0  0  0  0  0  0  0
  -25.4152  -25.8014   19.3314 C   0  0  0  0  0  0  0  0  0  0  0  0
  -21.6149  -30.2702   17.6799 C   0  0  0  0  0  0  0  0  0  0  0  0
  -26.5659  -26.2666   19.9838 C   0  0  0  0  0  0  0  0  0  0  0  0
  -30.0546  -20.1132   18.9620 C   0  0  0  0  0  0  0  0  0  0  0  0
  -28.9936  -19.7820   19.7974 C   0  0  0  0  0  0  0  0  0  0  0  0
  -22.3781   -8.1456   21.5338 C   0  0  0  0  0  0  0  0  0  0  0  0
  -27.9447  -25.0709   18.3779 C   0  0  0  0  0  0  0  0  0  0  0  0
  -20.4713   -7.1464   22.4763 C   0  0  0  0  0  0  0  0  0  0  0  0
  -18.0524   -7.4190   23.8390 C   0  0  0  0  0  0  0  0  0  0  0  0
  -20.2893   -6.5157   23.7070 C   0  0  0  0  0  0  0  0  0  0  0  0
  -24.5738  -11.6661   20.7077 C   0  0  0  0  0  0  0  0  0  0  0  0
  -30.3978  -18.1839   20.8610 C   0  0  0  0  0  0  0  0  0  0  0  0
  -31.2522  -19.4385   19.1364 C   0  0  0  0  0  0  0  0  0  0  0  0
  -25.1941  -13.7556   20.4175 C   0  0  0  0  0  0  0  0  0  0  0  0
  -22.8130  -13.4924   21.1315 C   0  0  0  0  0  0  0  0  0  0  0  0
  -24.1588  -28.6774   19.8351 C   0  0  0  0  0  0  0  0  0  0  0  0
  -24.8674  -28.0158   22.9306 C   0  0  0  0  0  0  0  0  0  0  0  0
  -26.7704  -26.2634   25.1564 C   0  0  0  0  0  0  0  0  0  0  0  0
  -30.6415  -14.9243   20.7418 C   0  0  0  0  0  0  0  0  0  0  0  0
  -20.3929  -32.0338   19.0537 C   0  0  0  0  0  0  0  0  0  0  0  0
  -24.0490  -26.1588   19.8492 C   0  0  0  0  0  0  0  0  0  0  0  0
  -26.4851  -27.1588   21.1946 C   0  0  0  0  0  0  0  0  0  0  0  0
  -21.4771  -31.8357   20.1099 C   0  0  0  0  0  0  0  0  0  0  0  0
  -29.6441  -12.4158   18.4204 C   0  0  0  0  0  0  0  0  0  0  0  0
  -22.8349  -31.6235   19.4479 C   0  0  0  0  0  0  0  0  0  0  0  0
  -28.2006  -12.1025   18.8181 C   0  0  0  0  0  0  0  0  0  0  0  0
  -30.7319  -23.2167   16.8334 C   0  0  0  0  0  0  0  0  0  0  0  0
  -31.1901  -21.9481   17.5545 C   0  0  0  0  0  0  0  0  0  0  0  0
  -28.9495  -22.3300   18.2552 C   0  0  0  0  0  0  0  0  0  0  0  0
  -30.5146  -12.7092   19.6403 C   0  0  0  0  0  0  0  0  0  0  0  0
  -28.5498  -13.4462   20.9327 C   0  0  0  0  0  0  0  0  0  0  0  0
  -22.8319  -30.3631   18.5746 C   0  0  1  0  0  0  0  0  0  0  0  0
  -24.0403  -27.4394   20.6782 C   0  0  1  0  0  0  0  0  0  0  0  0
  -27.6204  -13.1984   19.7322 C   0  0  2  0  0  0  0  0  0  0  0  0
  -29.2921  -23.4582   17.2804 C   0  0  1  0  0  0  0  0  0  1  0  0
  -29.9018  -21.1783   17.8931 C   0  0  2  0  0  0  0  0  0  0  0  0
  -27.6715  -20.4649   19.6755 C   0  0  0  0  0  0  0  0  0  0  0  0
  -33.5316  -18.7042   18.3936 C   0  0  0  0  0  0  0  0  0  0  0  0
  -27.1457  -25.9629   27.6194 C   0  0  0  0  0  0  0  0  0  0  0  0
  -26.3726  -30.6683   23.0224 C   0  0  0  0  0  0  0  0  0  0  0  0
  -27.4893  -29.8822   25.1208 C   0  0  0  0  0  0  0  0  0  0  0  0
  -25.0122  -30.1698   25.0608 C   0  0  0  0  0  0  0  0  0  0  0  0
  -26.0319  -23.3999   25.0374 C   0  0  0  0  0  0  0  0  0  0  0  0
  -32.4275  -19.7494   18.2682 C   0  0  0  0  0  0  0  0  0  0  0  0
  -30.6125  -17.1245   21.8897 C   0  0  0  0  0  0  0  0  0  0  0  0
  -26.0654  -28.2331   23.8231 C   0  0  1  0  0  0  0  0  0  0  0  0
  -26.3964  -25.4660   26.3929 C   0  0  2  0  0  0  0  0  0  0  0  0
  -26.2367  -29.7231   24.2328 C   0  0  0  0  0  0  0  0  0  0  0  0
  -25.8539  -11.5864   20.3352 N   0  0  0  0  0  0  0  0  0  0  0  0
  -31.4518  -18.4789   20.0675 N   0  0  0  0  0  0  0  0  0  0  0  0
  -26.2031  -12.8731   20.1660 N   0  0  0  0  0  0  0  0  0  0  0  0
  -25.1267  -27.4852   21.6590 N   0  0  0  0  0  0  0  0  0  0  0  0
  -29.9093  -13.7582   20.4644 N   0  0  0  0  0  0  0  0  0  0  0  0
  -25.3738  -15.0881   20.2962 N   0  0  0  0  0  0  0  0  0  0  0  0
  -21.8131  -12.5716   21.4731 N   0  0  0  0  0  0  0  0  0  0  0  0
  -22.9475  -29.1780   19.3972 N   0  0  0  0  0  0  0  0  0  0  0  0
  -25.9072  -27.3183   24.9486 N   0  0  0  0  0  0  0  0  0  0  0  0
  -29.9916  -15.8707   21.5245 N   0  0  0  0  0  0  0  0  0  0  0  0
  -26.7195  -24.0244   26.1969 N   0  3  0  0  0  0  0  0  0  0  0  0
  -22.5446  -14.7177   21.1299 O   0  0  0  0  0  0  0  0  0  0  0  0
  -25.2670  -29.1449   19.6004 O   0  0  0  0  0  0  0  0  0  0  0  0
  -23.7422  -28.2996   23.3490 O   0  0  0  0  0  0  0  0  0  0  0  0
  -27.7343  -25.9810   24.4481 O   0  0  0  0  0  0  0  0  0  0  0  0
  -31.7874  -15.1108   20.3184 O   0  0  0  0  0  0  0  0  0  0  0  0
  -29.4240  -20.5057   16.7247 O   0  0  0  0  0  0  0  0  0  0  0  0
  -21.6718   -7.0127   21.7990 O   0  0  0  0  0  0  0  0  0  0  0  0
  -29.1756  -24.7216   17.9145 O   0  0  0  0  0  0  0  0  0  1  0  0
  -16.8915   -7.5513   24.4939 F   0  0  0  0  0  0  0  0  0  0  0  0
  -21.2730   -5.7784   24.2403 F   0  0  0  0  0  0  0  0  0  0  0  0
  1  2  1  0  0  0  0
  1  5  2  0  0  0  0
  2  6  2  0  0  0  0
  3  8  2  0  0  0  0
  3 16  1  0  0  0  0
  4  9  1  0  0  0  0
  4 16  2  0  0  0  0
  5 18  1  0  0  0  0
  6 20  1  0  0  0  0
  7 10  2  0  0  0  0
  7 19  1  0  0  0  0
  8 24  1  0  0  0  0
  9 24  2  0  0  0  0
 10 25  1  0  0  0  0
 11 12  2  0  0  0  0
 11 26  1  0  0  0  0
 12 27  1  0  0  0  0
 13 21  1  0  0  0  0
 13 25  2  0  0  0  0
 14 23  2  0  0  0  0
 14 30  1  0  0  0  0
 15 27  2  0  0  0  0
 15 28  1  0  0  0  0
 16 29  1  0  0  0  0
 17 29  1  0  0  0  0
 17 32  2  0  0  0  0
 17 33  1  0  0  0  0
 18 20  2  0  0  0  0
 18 38  1  0  0  0  0
 19 21  2  0  0  0  0
 19 39  1  0  0  0  0
 20 50  1  0  0  0  0
 21 40  1  0  0  0  0
 22 23  1  0  0  0  0
 22 31  2  0  0  0  0
 22 54  1  0  0  0  0
 23 55  1  0  0  0  0
 24 84  1  0  0  0  0
 25 85  1  0  0  0  0
 26 28  2  0  0  0  0
 26 84  1  0  0  0  0
 27 86  1  0  0  0  0
 28 87  1  0  0  0  0
 29 67  2  0  0  0  0
 30 63  1  0  0  0  0
 30 68  2  0  0  0  0
 31 62  1  0  0  0  0
 31 68  1  0  0  0  0
 32 69  1  0  0  0  0
 32 72  1  0  0  0  0
 33 73  1  0  0  0  0
 33 78  2  0  0  0  0
 34 51  1  0  0  0  0
 34 74  1  0  0  0  0
 34 79  2  0  0  0  0
 35 64  1  0  0  0  0
 35 70  1  0  0  0  0
 35 80  2  0  0  0  0
 36 65  1  0  0  0  0
 36 75  1  0  0  0  0
 36 81  2  0  0  0  0
 37 71  1  0  0  0  0
 37 76  1  0  0  0  0
 37 82  2  0  0  0  0
 38 41  1  0  0  0  0
 39 51  1  0  0  0  0
 40 70  1  0  0  0  0
 41 43  1  0  0  0  0
 42 44  1  0  0  0  0
 42 48  1  0  0  0  0
 43 50  1  0  0  0  0
 44 52  1  0  0  0  0
 45 46  1  0  0  0  0
 45 53  1  0  0  0  0
 46 54  1  0  0  0  0
 47 53  1  0  0  0  0
 47 54  1  0  0  0  0
 48 71  1  0  0  0  0
 49 52  1  0  0  0  0
 49 71  1  0  0  0  0
 50 74  1  0  0  0  0
 51 70  1  0  0  0  0
 52 69  1  0  0  0  0
 53 85  1  0  0  0  0
 54 83  1  0  0  0  0
 56 62  1  0  0  0  0
 57 65  1  0  0  0  0
 58 66  1  0  0  0  0
 59 66  1  0  0  0  0
 60 66  1  0  0  0  0
 61 77  1  0  0  0  0
 63 76  1  0  0  0  0
 64 66  1  0  0  0  0
 64 75  1  0  0  0  0
 65 77  1  0  0  0  0
 67 69  1  0  0  0  0
M  CHG  1  77   1
M  ISO  4  37 100  53 101  76 100  85 101
M  END
> <Batch ID>
0175

> <Smiles>
CCc1nc(C[100NH:0][100C:0](=O)N2CCCC(n3nc(-c4ccc(Oc5ccc(F)cc5F)cc4)c(C(N)=O)c3N)C2)cc(C)c1C1(O)CC[101CH:1]([101O:1]c2ccc3c(c2)CN(C(=O)C(NC(=O)C(C)NC)C(C)(C)C)C(C(=O)NC2CCCc4ccccc42)C3)C1

> <Shape>
0.283

> <Color>
0.200

> <Negative vol penalty>
0.000

$$$$

  -OEChem-04052322473D

 94105  0     1  0  0  0  0  0999 V2000
  -25.9078  -16.2623   23.8430 C   0  0  0  0  0  0  0  0  0  0  0  0
  -26.3708  -17.5374   24.1514 C   0  0  0  0  0  0  0  0  0  0  0  0
  -26.3230  -12.9153   21.6201 C   0  0  0  0  0  0  0  0  0  0  0  0
  -26.0734  -13.6067   19.3186 C   0  0  0  0  0  0  0  0  0  0  0  0
  -24.8128  -16.1059   22.9942 C   0  0  0  0  0  0  0  0  0  0  0  0
  -25.7399  -18.6569   23.6102 C   0  0  0  0  0  0  0  0  0  0  0  0
  -27.3746  -29.4384   21.7500 C   0  0  0  0  0  0  0  0  0  0  0  0
  -24.1372  -25.4620   25.1716 C   0  0  0  0  0  0  0  0  0  0  0  0
  -26.0005  -29.4891   21.9840 C   0  0  0  0  0  0  0  0  0  0  0  0
  -25.0954  -12.2563   21.5553 C   0  0  0  0  0  0  0  0  0  0  0  0
  -24.8458  -12.9476   19.2538 C   0  0  0  0  0  0  0  0  0  0  0  0
  -24.2629  -26.7465   24.6442 C   0  0  0  0  0  0  0  0  0  0  0  0
  -23.8959   -9.3385   20.3386 C   0  0  0  0  0  0  0  0  0  0  0  0
  -23.8209   -8.0535   20.8759 C   0  0  0  0  0  0  0  0  0  0  0  0
  -27.0913  -27.3700   20.5340 C   0  0  0  0  0  0  0  0  0  0  0  0
  -22.3309  -26.3578   23.2529 C   0  0  0  0  0  0  0  0  0  0  0  0
  -22.1217   -8.7996   22.4230 C   0  0  0  0  0  0  0  0  0  0  0  0
  -26.8120  -13.5906   20.5018 C   0  0  0  0  0  0  0  0  0  0  0  0
  -29.3482  -13.7389   20.2704 C   0  0  0  0  0  0  0  0  0  0  0  0
  -27.9200  -28.3788   21.0250 C   0  0  0  0  0  0  0  0  0  0  0  0
  -24.1621  -17.2244   22.4500 C   0  0  0  0  0  0  0  0  0  0  0  0
  -23.1121  -24.6105   24.7350 C   0  0  0  0  0  0  0  0  0  0  0  0
  -24.6360  -18.5154   22.7522 C   0  0  0  0  0  0  0  0  0  0  0  0
  -22.1928  -25.0639   23.7783 C   0  0  0  0  0  0  0  0  0  0  0  0
  -25.1717  -28.4803   21.4930 C   0  0  0  0  0  0  0  0  0  0  0  0
  -24.3568  -12.2724   20.3721 C   0  0  0  0  0  0  0  0  0  0  0  0
  -23.3615  -27.1935   23.6826 C   0  0  0  0  0  0  0  0  0  0  0  0
  -23.0839  -10.3541   20.8435 C   0  0  0  0  0  0  0  0  0  0  0  0
  -25.7171  -27.4207   20.7680 C   0  0  0  0  0  0  0  0  0  0  0  0
  -22.9338   -7.7840   21.9181 C   0  0  0  0  0  0  0  0  0  0  0  0
  -22.1968  -10.0847   21.8857 C   0  0  0  0  0  0  0  0  0  0  0  0
  -28.0798  -14.2721   20.5683 C   0  0  0  0  0  0  0  0  0  0  0  0
  -30.2178  -14.7796   20.4878 C   0  0  0  0  0  0  0  0  0  0  0  0
  -29.7082  -12.4209   19.8359 C   0  0  0  0  0  0  0  0  0  0  0  0
  -23.0094  -21.7928   23.2675 C   0  0  0  0  0  0  0  0  0  0  0  0
  -19.8235  -22.0617   23.8151 C   0  0  0  0  0  0  0  0  0  0  0  0
  -17.1455  -24.0953   24.3978 C   0  0  0  0  0  0  0  0  0  0  0  0
  -29.4745  -20.6332   20.2903 C   0  0  0  0  0  0  0  0  0  0  0  0
  -23.0118  -17.0040   21.4997 C   0  0  0  0  0  0  0  0  0  0  0  0
  -22.9740  -23.2374   25.3333 C   0  0  0  0  0  0  0  0  0  0  0  0
  -21.0625  -24.1960   23.2908 C   0  0  0  0  0  0  0  0  0  0  0  0
  -22.1665  -18.2535   21.2663 C   0  0  0  0  0  0  0  0  0  0  0  0
  -30.7265  -18.7481   23.1145 C   0  0  0  0  0  0  0  0  0  0  0  0
  -23.0603  -19.4606   21.0002 C   0  0  0  0  0  0  0  0  0  0  0  0
  -30.9286  -24.9229   17.4859 C   0  0  0  0  0  0  0  0  0  0  0  0
  -30.3032  -17.3259   22.7427 C   0  0  0  0  0  0  0  0  0  0  0  0
  -29.8440  -25.6504   18.2906 C   0  0  0  0  0  0  0  0  0  0  0  0
  -31.5127  -23.0748   19.2704 C   0  0  0  0  0  0  0  0  0  0  0  0
  -29.9373  -24.3406   20.5495 C   0  0  0  0  0  0  0  0  0  0  0  0
  -29.6686  -19.7662   22.6993 C   0  0  0  0  0  0  0  0  0  0  0  0
  -28.8802  -18.3008   20.8814 C   0  0  0  0  0  0  0  0  0  0  0  0
  -30.3417  -28.3086   21.9569 C   0  0  0  0  0  0  0  0  0  0  0  0
  -23.9627  -19.7551   22.2046 C   0  0  1  0  0  0  0  0  0  0  0  0
  -29.3880  -28.3250   20.7748 C   0  0  1  0  0  0  0  0  0  0  0  0
  -22.2014  -22.2715   24.4404 C   0  0  1  0  0  0  0  0  0  0  0  0
  -31.6441  -24.5217   18.7920 C   0  0  2  0  0  0  0  0  0  0  0  0
  -29.9181  -17.2269   21.2547 C   0  0  2  0  0  0  0  0  0  0  0  0
  -30.1044  -22.9926   19.8505 C   0  0  2  0  0  0  0  0  0  0  0  0
  -30.6124  -25.3473   19.6040 C   0  0  1  0  0  0  0  0  0  0  0  0
  -23.1038  -30.0039   19.7395 C   0  0  0  0  0  0  0  0  0  0  0  0
  -14.6640  -24.0280   24.7657 C   0  0  0  0  0  0  0  0  0  0  0  0
  -32.3606  -26.2734   21.1725 C   0  0  0  0  0  0  0  0  0  0  0  0
  -19.3969  -21.5779   20.8329 C   0  0  0  0  0  0  0  0  0  0  0  0
  -17.0653  -22.4513   21.0956 C   0  0  0  0  0  0  0  0  0  0  0  0
  -17.7721  -20.3984   22.3239 C   0  0  0  0  0  0  0  0  0  0  0  0
  -17.3950  -25.2987   27.0902 C   0  0  0  0  0  0  0  0  0  0  0  0
  -25.5624  -25.3828   19.5519 C   0  0  0  0  0  0  0  0  0  0  0  0
  -23.0267  -29.8420   21.2504 C   0  0  0  0  0  0  0  0  0  0  0  0
  -23.6857  -28.5512   21.7571 C   0  0  2  0  0  0  0  0  0  1  0  0
  -18.6551  -22.6498   23.0615 C   0  0  1  0  0  0  0  0  0  0  0  0
  -16.0329  -24.0253   25.4283 C   0  0  2  0  0  0  0  0  0  0  0  0
  -31.1431  -26.5813   20.3157 C   0  0  2  0  0  0  0  0  0  0  0  0
  -18.2447  -21.7852   21.8360 C   0  0  0  0  0  0  0  0  0  0  0  0
  -28.1343  -15.5520   20.9463 N   0  0  0  0  0  0  0  0  0  0  0  0
  -29.4474  -15.8318   20.8875 N   0  0  0  0  0  0  0  0  0  0  0  0
  -20.9733  -22.8593   23.9014 N   0  0  0  0  0  0  0  0  0  0  0  0
  -29.3610  -19.6313   21.2684 N   0  0  0  0  0  0  0  0  0  0  0  0
  -31.5586  -14.8882   20.3742 N   0  0  0  0  0  0  0  0  0  0  0  0
  -28.6902  -11.4732   19.6624 N   0  0  0  0  0  0  0  0  0  0  0  0
  -23.2137  -20.4263   23.2452 N   0  0  0  0  0  0  0  0  0  0  0  0
  -17.5913  -22.8401   24.0415 N   0  0  0  0  0  0  0  0  0  0  0  0
  -29.9303  -21.8662   20.7404 N   0  0  0  0  0  0  0  0  0  0  0  0
  -30.0856  -27.1083   21.1832 N   0  3  1  0  0  0  0  0  0  0  0  0
  -16.1095  -25.1912   26.3533 N   0  3  0  0  0  0  0  0  0  0  0  0
  -30.8990  -12.0884   19.6240 O   0  0  0  0  0  0  0  0  0  0  0  0
  -23.4161  -22.6030   22.4429 O   0  0  0  0  0  0  0  0  0  0  0  0
  -19.7173  -20.9391   24.3151 O   0  0  0  0  0  0  0  0  0  0  0  0
  -17.5735  -25.1571   23.9508 O   0  0  0  0  0  0  0  0  0  0  0  0
  -29.1954  -20.4415   19.1018 O   0  0  0  0  0  0  0  0  0  0  0  0
  -23.1590  -11.6291   20.3084 O   0  0  0  0  0  0  0  0  0  0  0  0
  -24.9217  -26.4273   20.2818 O   0  0  0  0  0  0  0  0  0  0  0  0
  -23.4824  -28.4465   23.1657 O   0  0  0  0  0  0  0  0  0  1  0  0
  -22.8607   -6.5496   22.4330 F   0  0  0  0  0  0  0  0  0  0  0  0
  -21.4134  -11.0560   22.3741 F   0  0  0  0  0  0  0  0  0  0  0  0
  1  2  1  0  0  0  0
  1  5  2  0  0  0  0
  2  6  2  0  0  0  0
  3 10  2  0  0  0  0
  3 18  1  0  0  0  0
  4 11  1  0  0  0  0
  4 18  2  0  0  0  0
  5 21  1  0  0  0  0
  6 23  1  0  0  0  0
  7  9  2  0  0  0  0
  7 20  1  0  0  0  0
  8 12  2  0  0  0  0
  8 22  1  0  0  0  0
  9 25  1  0  0  0  0
 10 26  1  0  0  0  0
 11 26  2  0  0  0  0
 12 27  1  0  0  0  0
 13 14  2  0  0  0  0
 13 28  1  0  0  0  0
 14 30  1  0  0  0  0
 15 20  2  0  0  0  0
 15 29  1  0  0  0  0
 16 24  1  0  0  0  0
 16 27  2  0  0  0  0
 17 30  2  0  0  0  0
 17 31  1  0  0  0  0
 18 32  1  0  0  0  0
 19 32  1  0  0  0  0
 19 33  2  0  0  0  0
 19 34  1  0  0  0  0
 20 54  1  0  0  0  0
 21 23  2  0  0  0  0
 21 39  1  0  0  0  0
 22 24  2  0  0  0  0
 22 40  1  0  0  0  0
 23 53  1  0  0  0  0
 24 41  1  0  0  0  0
 25 29  2  0  0  0  0
 25 69  1  0  0  0  0
 26 90  1  0  0  0  0
 27 92  1  0  0  0  0
 28 31  2  0  0  0  0
 28 90  1  0  0  0  0
 29 91  1  0  0  0  0
 30 93  1  0  0  0  0
 31 94  1  0  0  0  0
 32 74  2  0  0  0  0
 33 75  1  0  0  0  0
 33 78  1  0  0  0  0
 34 79  1  0  0  0  0
 34 85  2  0  0  0  0
 35 55  1  0  0  0  0
 35 80  1  0  0  0  0
 35 86  2  0  0  0  0
 36 70  1  0  0  0  0
 36 76  1  0  0  0  0
 36 87  2  0  0  0  0
 37 71  1  0  0  0  0
 37 81  1  0  0  0  0
 37 88  2  0  0  0  0
 38 77  1  0  0  0  0
 38 82  1  0  0  0  0
 38 89  2  0  0  0  0
 39 42  1  0  0  0  0
 40 55  1  0  0  0  0
 41 76  1  0  0  0  0
 42 44  1  0  0  0  0
 43 46  1  0  0  0  0
 43 50  1  0  0  0  0
 44 53  1  0  0  0  0
 45 47  1  0  0  0  0
 45 56  1  0  0  0  0
 46 57  1  0  0  0  0
 47 59  1  0  0  0  0
 48 56  1  0  0  0  0
 48 58  1  0  0  0  0
 49 58  1  0  0  0  0
 49 59  1  0  0  0  0
 50 77  1  0  0  0  0
 51 57  1  0  0  0  0
 51 77  1  0  0  0  0
 52 54  1  0  0  0  0
 52 83  1  0  0  0  0
 53 80  1  0  0  0  0
 54 83  1  0  0  0  0
 55 76  1  0  0  0  0
 56 59  1  0  0  0  0
 57 75  1  0  0  0  0
 58 82  1  0  0  0  0
 59 72  1  0  0  0  0
 60 68  1  0  0  0  0
 61 71  1  0  0  0  0
 62 72  1  0  0  0  0
 63 73  1  0  0  0  0
 64 73  1  0  0  0  0
 65 73  1  0  0  0  0
 66 84  1  0  0  0  0
 67 91  1  0  0  0  0
 68 69  1  0  0  0  0
 69 92  1  0  0  0  0
 70 73  1  0  0  0  0
 70 81  1  0  0  0  0
 71 84  1  0  0  0  0
 72 83  1  0  0  0  0
 74 75  1  0  0  0  0
M  CHG  2  83   1  84   1
M  ISO  4  38 100  69 101  82 100  92 101
M  END
> <Batch ID>
0175

> <Smiles>
CC[101CH:1](c1ccc(C2CN2C(C)C23CCC2CC([100NH:0][100C:0](=O)N2CCCC(n4nc(-c5ccc(Oc6ccc(F)cc6F)cc5)c(C(N)=O)c4N)C2)C3)cc1OC)[101O:1]c1ccc2c(c1)CN(C(=O)C(NC(=O)C(C)NC)C(C)(C)C)C(C(=O)NC1CCCc3ccccc31)C2

> <Shape>
0.254

> <Color>
0.068

> <Negative vol penalty>
0.000

$$$$

  -OEChem-04052322473D

 83 92  0     1  0  0  0  0  0999 V2000
  -39.7373  -29.1131   15.9266 C   0  0  0  0  0  0  0  0  0  0  0  0
  -38.6377  -28.4436   15.3992 C   0  0  0  0  0  0  0  0  0  0  0  0
  -23.1274   -9.8829   19.9014 C   0  0  0  0  0  0  0  0  0  0  0  0
  -23.9787   -9.8094   22.1613 C   0  0  0  0  0  0  0  0  0  0  0  0
  -40.0007  -29.0492   17.2943 C   0  0  0  0  0  0  0  0  0  0  0  0
  -37.8015  -27.7089   16.2391 C   0  0  0  0  0  0  0  0  0  0  0  0
  -30.9393  -25.8023   17.0079 C   0  0  0  0  0  0  0  0  0  0  0  0
  -22.4447   -8.6863   20.1197 C   0  0  0  0  0  0  0  0  0  0  0  0
  -23.2960   -8.6128   22.3796 C   0  0  0  0  0  0  0  0  0  0  0  0
  -30.1505  -24.6667   17.1866 C   0  0  0  0  0  0  0  0  0  0  0  0
  -21.4869   -5.7254   23.6478 C   0  0  0  0  0  0  0  0  0  0  0  0
  -20.7814   -5.5892   24.8433 C   0  0  0  0  0  0  0  0  0  0  0  0
  -30.6583  -24.6925   19.5447 C   0  0  0  0  0  0  0  0  0  0  0  0
  -19.4257   -7.5025   24.2612 C   0  0  0  0  0  0  0  0  0  0  0  0
  -23.8945  -10.4444   20.9222 C   0  0  0  0  0  0  0  0  0  0  0  0
  -24.1219  -12.9853   20.9201 C   0  0  0  0  0  0  0  0  0  0  0  0
  -39.1618  -28.3213   18.1528 C   0  0  0  0  0  0  0  0  0  0  0  0
  -31.6034  -26.3861   18.0962 C   0  0  0  0  0  0  0  0  0  0  0  0
  -38.0547  -27.6341   17.6193 C   0  0  0  0  0  0  0  0  0  0  0  0
  -31.4528  -25.8370   19.3776 C   0  0  0  0  0  0  0  0  0  0  0  0
  -22.5290   -8.0512   21.3587 C   0  0  0  0  0  0  0  0  0  0  0  0
  -30.0122  -24.1099   18.4547 C   0  0  0  0  0  0  0  0  0  0  0  0
  -21.1619   -6.7502   22.7590 C   0  0  0  0  0  0  0  0  0  0  0  0
  -19.7508   -6.4777   25.1500 C   0  0  0  0  0  0  0  0  0  0  0  0
  -20.1313   -7.6387   23.0657 C   0  0  0  0  0  0  0  0  0  0  0  0
  -24.6004  -11.6802   20.6972 C   0  0  0  0  0  0  0  0  0  0  0  0
  -25.1651  -13.8005   20.5545 C   0  0  0  0  0  0  0  0  0  0  0  0
  -22.8484  -13.4216   21.4135 C   0  0  0  0  0  0  0  0  0  0  0  0
  -34.6472  -26.9072   18.8495 C   0  0  0  0  0  0  0  0  0  0  0  0
  -33.3480  -28.5070   21.3545 C   0  0  0  0  0  0  0  0  0  0  0  0
  -30.6827  -28.9535   23.4386 C   0  0  0  0  0  0  0  0  0  0  0  0
  -30.7614  -14.7136   21.0096 C   0  0  0  0  0  0  0  0  0  0  0  0
  -39.5139  -28.2426   19.6172 C   0  0  0  0  0  0  0  0  0  0  0  0
  -32.4290  -27.6266   17.8913 C   0  0  0  0  0  0  0  0  0  0  0  0
  -32.1285  -26.4377   20.5822 C   0  0  0  0  0  0  0  0  0  0  0  0
  -38.3656  -27.7502   20.4942 C   0  0  0  0  0  0  0  0  0  0  0  0
  -29.4691  -12.7814   18.1221 C   0  0  0  0  0  0  0  0  0  0  0  0
  -37.7102  -26.5201   19.8745 C   0  0  0  0  0  0  0  0  0  0  0  0
  -28.0762  -12.3711   18.5965 C   0  0  0  0  0  0  0  0  0  0  0  0
  -31.4779  -18.0906   21.3545 C   0  0  0  0  0  0  0  0  0  0  0  0
  -29.3089  -17.7902   20.0947 C   0  0  0  0  0  0  0  0  0  0  0  0
  -31.1328  -22.2034   19.8716 C   0  0  0  0  0  0  0  0  0  0  0  0
  -30.4313  -12.9743   19.2899 C   0  0  0  0  0  0  0  0  0  0  0  0
  -31.1259  -16.8615   22.1882 C   0  0  0  0  0  0  0  0  0  0  0  0
  -29.0115  -16.5471   20.9383 C   0  0  0  0  0  0  0  0  0  0  0  0
  -28.5461  -13.5199   20.7968 C   0  0  0  0  0  0  0  0  0  0  0  0
  -31.4862  -20.9182   20.5853 C   0  0  0  0  0  0  0  0  0  0  0  0
  -37.1102  -26.8471   18.5017 C   0  0  1  0  0  0  0  0  0  0  0  0
  -33.4738  -27.8361   18.9831 C   0  0  1  0  0  0  0  0  0  0  0  0
  -27.5415  -13.3609   19.6457 C   0  0  2  0  0  0  0  0  0  0  0  0
  -30.2046  -18.7681   20.8521 C   0  0  0  0  0  0  0  0  0  0  0  0
  -29.3754  -20.6366   19.3361 C   0  0  1  0  0  0  0  0  0  0  0  0
  -29.6198  -22.1179   19.6851 C   0  0  1  0  0  0  0  0  0  1  0  0
  -29.3317  -20.3163   17.8446 C   0  0  0  0  0  0  0  0  0  0  0  0
  -28.8663  -22.5359   20.9518 C   0  0  0  0  0  0  0  0  0  0  0  0
  -29.9309  -30.3083   25.4127 C   0  0  0  0  0  0  0  0  0  0  0  0
  -35.0873  -26.7967   23.1874 C   0  0  0  0  0  0  0  0  0  0  0  0
  -33.6364  -27.4984   25.1034 C   0  0  0  0  0  0  0  0  0  0  0  0
  -34.9414  -29.2070   23.8383 C   0  0  0  0  0  0  0  0  0  0  0  0
  -28.4359  -30.1365   21.9182 C   0  0  0  0  0  0  0  0  0  0  0  0
  -32.9232  -28.1367   22.7550 C   0  0  1  0  0  0  0  0  0  0  0  0
  -29.9603  -30.2081   23.8955 C   0  0  2  0  0  0  0  0  0  0  0  0
  -34.1358  -27.8970   23.6982 C   0  0  0  0  0  0  0  0  0  0  0  0
  -25.8502  -11.6626   20.2263 N   0  0  0  0  0  0  0  0  0  0  0  0
  -26.1658  -12.9667   20.1503 N   0  0  0  0  0  0  0  0  0  0  0  0
  -32.9301  -27.6464   20.3294 N   0  0  0  0  0  0  0  0  0  0  0  0
  -29.8814  -13.8820   20.2970 N   0  0  0  0  0  0  0  0  0  0  0  0
  -30.2566  -15.9491   21.4426 N   0  0  0  0  0  0  0  0  0  0  0  0
  -25.3147  -15.1421   20.5425 N   0  0  0  0  0  0  0  0  0  0  0  0
  -21.8912  -12.4519   21.7418 N   0  0  0  0  0  0  0  0  0  0  0  0
  -35.8544  -27.5503   18.6535 N   0  0  0  0  0  0  0  0  0  0  0  0
  -32.0196  -29.1921   23.2000 N   0  0  0  0  0  0  0  0  0  0  0  0
  -30.5776  -19.8959   19.9414 N   0  3  1  0  0  0  0  0  0  0  0  0
  -28.5558  -30.2077   23.3972 N   0  3  0  0  0  0  0  0  0  0  0  0
  -22.5618  -14.6359   21.5435 O   0  0  0  0  0  0  0  0  0  0  0  0
  -34.4706  -25.6966   18.9206 O   0  0  0  0  0  0  0  0  0  0  0  0
  -34.0195  -29.5261   21.1757 O   0  0  0  0  0  0  0  0  0  0  0  0
  -30.1182  -27.8693   23.3101 O   0  0  0  0  0  0  0  0  0  0  0  0
  -31.9278  -14.3723   21.2421 O   0  0  0  0  0  0  0  0  0  0  0  0
  -21.8628   -6.8837   21.5721 O   0  0  0  0  0  0  0  0  0  0  0  0
  -29.2392  -22.9951   18.6328 O   0  0  0  0  0  0  0  0  0  1  0  0
  -19.0723   -6.3458   26.2974 F   0  0  0  0  0  0  0  0  0  0  0  0
  -19.8137   -8.6245   22.2153 F   0  0  0  0  0  0  0  0  0  0  0  0
  1  2  1  0  0  0  0
  1  5  2  0  0  0  0
  2  6  2  0  0  0  0
  3  8  2  0  0  0  0
  3 15  1  0  0  0  0
  4  9  1  0  0  0  0
  4 15  2  0  0  0  0
  5 17  1  0  0  0  0
  6 19  1  0  0  0  0
  7 10  2  0  0  0  0
  7 18  1  0  0  0  0
  8 21  1  0  0  0  0
  9 21  2  0  0  0  0
 10 22  1  0  0  0  0
 11 12  2  0  0  0  0
 11 23  1  0  0  0  0
 12 24  1  0  0  0  0
 13 20  1  0  0  0  0
 13 22  2  0  0  0  0
 14 24  2  0  0  0  0
 14 25  1  0  0  0  0
 15 26  1  0  0  0  0
 16 26  1  0  0  0  0
 16 27  2  0  0  0  0
 16 28  1  0  0  0  0
 17 19  2  0  0  0  0
 17 33  1  0  0  0  0
 18 20  2  0  0  0  0
 18 34  1  0  0  0  0
 19 48  1  0  0  0  0
 20 35  1  0  0  0  0
 21 80  1  0  0  0  0
 22 81  1  0  0  0  0
 23 25  2  0  0  0  0
 23 80  1  0  0  0  0
 24 82  1  0  0  0  0
 25 83  1  0  0  0  0
 26 64  2  0  0  0  0
 27 65  1  0  0  0  0
 27 69  1  0  0  0  0
 28 70  1  0  0  0  0
 28 75  2  0  0  0  0
 29 49  1  0  0  0  0
 29 71  1  0  0  0  0
 29 76  2  0  0  0  0
 30 61  1  0  0  0  0
 30 66  1  0  0  0  0
 30 77  2  0  0  0  0
 31 62  1  0  0  0  0
 31 72  1  0  0  0  0
 31 78  2  0  0  0  0
 32 67  1  0  0  0  0
 32 68  1  0  0  0  0
 32 79  2  0  0  0  0
 33 36  1  0  0  0  0
 34 49  1  0  0  0  0
 35 66  1  0  0  0  0
 36 38  1  0  0  0  0
 37 39  1  0  0  0  0
 37 43  1  0  0  0  0
 38 48  1  0  0  0  0
 39 50  1  0  0  0  0
 40 44  1  0  0  0  0
 40 51  1  0  0  0  0
 41 45  1  0  0  0  0
 41 51  1  0  0  0  0
 42 47  1  0  0  0  0
 42 53  1  0  0  0  0
 43 67  1  0  0  0  0
 44 68  1  0  0  0  0
 45 68  1  0  0  0  0
 46 50  1  0  0  0  0
 46 67  1  0  0  0  0
 47 73  1  0  0  0  0
 48 71  1  0  0  0  0
 49 66  1  0  0  0  0
 50 65  1  0  0  0  0
 51 73  1  0  0  0  0
 52 53  1  0  0  0  0
 52 54  1  0  0  0  0
 52 73  1  0  0  0  0
 53 55  1  0  0  0  0
 53 81  1  0  0  0  0
 56 62  1  0  0  0  0
 57 63  1  0  0  0  0
 58 63  1  0  0  0  0
 59 63  1  0  0  0  0
 60 74  1  0  0  0  0
 61 63  1  0  0  0  0
 61 72  1  0  0  0  0
 62 74  1  0  0  0  0
 64 65  1  0  0  0  0
M  CHG  2  73   1  74   1
M  ISO  4  32 100  53 101  68 100  81 101
M  END
> <Batch ID>
0175

> <Smiles>
CNC(C)C(=O)NC(C(=O)N1Cc2cc([101O:1][101C:1]3(C)CCN(C4CC[100N:0]([100C:0](=O)N5CCCC(n6nc(-c7ccc(Oc8ccc(F)cc8F)cc7)c(C(N)=O)c6N)C5)CC4)C3C)ccc2CC1C(=O)NC1CCCc2ccccc21)C(C)(C)C

> <Shape>
0.264

> <Color>
0.190

> <Negative vol penalty>
0.000

$$$$

  -OEChem-04052322473D

 85 94  0     1  0  0  0  0  0999 V2000
  -24.4836   -9.6432   27.3868 C   0  0  0  0  0  0  0  0  0  0  0  0
  -25.1827  -10.3213   28.3790 C   0  0  0  0  0  0  0  0  0  0  0  0
  -23.1603   -9.8507   19.9156 C   0  0  0  0  0  0  0  0  0  0  0  0
  -23.8277   -9.9030   22.2370 C   0  0  0  0  0  0  0  0  0  0  0  0
  -25.1627   -8.7885   26.5211 C   0  0  0  0  0  0  0  0  0  0  0  0
  -26.5628  -10.1540   28.4983 C   0  0  0  0  0  0  0  0  0  0  0  0
  -33.7193  -11.4091   26.7165 C   0  0  0  0  0  0  0  0  0  0  0  0
  -22.4315   -8.6850   20.1514 C   0  0  0  0  0  0  0  0  0  0  0  0
  -23.0987   -8.7374   22.4729 C   0  0  0  0  0  0  0  0  0  0  0  0
  -34.5057  -11.2625   25.5746 C   0  0  0  0  0  0  0  0  0  0  0  0
  -19.4450   -7.8435   21.4952 C   0  0  0  0  0  0  0  0  0  0  0  0
  -18.1598   -7.7630   20.9591 C   0  0  0  0  0  0  0  0  0  0  0  0
  -32.9166  -12.5731   24.3192 C   0  0  0  0  0  0  0  0  0  0  0  0
  -18.8126   -5.8159   19.6864 C   0  0  0  0  0  0  0  0  0  0  0  0
  -23.8585  -10.4597   20.9584 C   0  0  0  0  0  0  0  0  0  0  0  0
  -24.1517  -12.9899   20.8180 C   0  0  0  0  0  0  0  0  0  0  0  0
  -26.5499   -8.6016   26.6385 C   0  0  0  0  0  0  0  0  0  0  0  0
  -32.5181  -12.1309   26.6656 C   0  0  0  0  0  0  0  0  0  0  0  0
  -27.2699   -9.3142   27.6190 C   0  0  0  0  0  0  0  0  0  0  0  0
  -32.1180  -12.7296   25.4624 C   0  0  0  0  0  0  0  0  0  0  0  0
  -22.4007   -8.1284   21.4300 C   0  0  0  0  0  0  0  0  0  0  0  0
  -34.1029  -11.8421   24.3751 C   0  0  0  0  0  0  0  0  0  0  0  0
  -20.4141   -6.9102   21.1268 C   0  0  0  0  0  0  0  0  0  0  0  0
  -17.8436   -6.7492   20.0548 C   0  0  0  0  0  0  0  0  0  0  0  0
  -20.0979   -5.8964   20.2225 C   0  0  0  0  0  0  0  0  0  0  0  0
  -24.6120  -11.6635   20.7154 C   0  0  0  0  0  0  0  0  0  0  0  0
  -35.3280  -15.1373   21.1353 C   0  0  0  0  0  0  0  0  0  0  0  0
  -36.2392  -16.1153   21.4683 C   0  0  0  0  0  0  0  0  0  0  0  0
  -37.6571  -14.5168   22.2834 C   0  0  0  0  0  0  0  0  0  0  0  0
  -36.7455  -13.5390   21.9511 C   0  0  0  0  0  0  0  0  0  0  0  0
  -25.2415  -13.7580   20.4883 C   0  0  0  0  0  0  0  0  0  0  0  0
  -22.8549  -13.4834   21.1792 C   0  0  0  0  0  0  0  0  0  0  0  0
  -29.4563  -11.4277   27.1502 C   0  0  0  0  0  0  0  0  0  0  0  0
  -29.0650  -14.6255   26.7713 C   0  0  0  0  0  0  0  0  0  0  0  0
  -30.2493  -17.5572   25.4871 C   0  0  0  0  0  0  0  0  0  0  0  0
  -30.5775  -14.8856   21.1029 C   0  0  0  0  0  0  0  0  0  0  0  0
  -27.2359   -7.6707   25.6700 C   0  0  0  0  0  0  0  0  0  0  0  0
  -31.6946  -12.3025   27.9125 C   0  0  0  0  0  0  0  0  0  0  0  0
  -30.8473  -13.5316   25.3598 C   0  0  0  0  0  0  0  0  0  0  0  0
  -28.6105   -7.2187   26.1522 C   0  0  0  0  0  0  0  0  0  0  0  0
  -29.6808  -12.5110   18.4644 C   0  0  0  0  0  0  0  0  0  0  0  0
  -29.4282   -8.4231   26.5941 C   0  0  0  0  0  0  0  0  0  0  0  0
  -28.2582  -12.1414   18.8712 C   0  0  0  0  0  0  0  0  0  0  0  0
  -30.5789  -12.7858   19.6708 C   0  0  0  0  0  0  0  0  0  0  0  0
  -32.9383  -14.2234   20.2851 C   0  0  0  0  0  0  0  0  0  0  0  0
  -28.5877  -13.4195   21.0160 C   0  0  0  0  0  0  0  0  0  0  0  0
  -28.7666   -9.1244   27.7872 C   0  0  1  0  0  0  0  0  0  0  0  0
  -33.9206  -15.4054   20.4493 C   0  0  1  0  0  0  0  0  0  0  0  0
  -30.2318  -12.6247   27.6229 C   0  0  1  0  0  0  0  0  0  0  0  0
  -27.6703  -13.2116   19.8031 C   0  0  2  0  0  0  0  0  0  0  0  0
  -32.8073  -16.1134   21.2650 C   0  0  1  0  0  0  0  0  0  0  0  0
  -35.9561  -17.5525   21.1984 C   0  0  0  0  0  0  0  0  0  0  0  0
  -38.9583  -14.1797   22.9277 C   0  0  0  0  0  0  0  0  0  0  0  0
  -32.4736  -17.5335   20.8544 C   0  0  0  0  0  0  0  0  0  0  0  0
  -29.6917  -19.9974   25.3086 C   0  0  0  0  0  0  0  0  0  0  0  0
  -26.9832  -13.9909   24.6328 C   0  0  0  0  0  0  0  0  0  0  0  0
  -27.1663  -16.3619   23.8500 C   0  0  0  0  0  0  0  0  0  0  0  0
  -26.3680  -15.8717   26.1620 C   0  0  0  0  0  0  0  0  0  0  0  0
  -32.7050  -18.3434   26.9398 C   0  0  0  0  0  0  0  0  0  0  0  0
  -37.0186  -12.0984   22.2184 C   0  0  0  0  0  0  0  0  0  0  0  0
  -36.2756  -11.5662   23.4481 C   0  0  0  0  0  0  0  0  0  1  0  0
  -28.8099  -15.5396   25.5974 C   0  0  1  0  0  0  0  0  0  0  0  0
  -30.4242  -18.9312   26.1083 C   0  0  2  0  0  0  0  0  0  0  0  0
  -27.3549  -15.4244   25.0617 C   0  0  0  0  0  0  0  0  0  0  0  0
  -25.8943  -11.5896   20.3489 N   0  0  0  0  0  0  0  0  0  0  0  0
  -35.5648  -13.8316   21.3708 N   0  0  0  0  0  0  0  0  0  0  0  0
  -37.4201  -15.8226   22.0482 N   0  0  0  0  0  0  0  0  0  0  0  0
  -26.2490  -12.8793   20.2184 N   0  0  0  0  0  0  0  0  0  0  0  0
  -30.0732  -13.6654   26.6050 N   0  0  0  0  0  0  0  0  0  0  0  0
  -29.9630  -13.7280   20.6114 N   0  0  0  0  0  0  0  0  0  0  0  0
  -31.8739  -15.1384   20.6899 N   0  0  0  0  0  0  0  0  0  0  0  0
  -25.4266  -15.0927   20.4057 N   0  0  0  0  0  0  0  0  0  0  0  0
  -21.8496  -12.5570   21.4883 N   0  0  0  0  0  0  0  0  0  0  0  0
  -29.4529  -10.3718   28.0415 N   0  0  0  0  0  0  0  0  0  0  0  0
  -29.1806  -16.8807   26.0362 N   0  0  0  0  0  0  0  0  0  0  0  0
  -31.8685  -19.2946   26.1636 N   0  3  0  0  0  0  0  0  0  0  0  0
  -22.5907  -14.7093   21.2105 O   0  0  0  0  0  0  0  0  0  0  0  0
  -28.9009  -11.4603   26.0584 O   0  0  0  0  0  0  0  0  0  0  0  0
  -28.3993  -14.7629   27.8007 O   0  0  0  0  0  0  0  0  0  0  0  0
  -30.9847  -17.1284   24.6006 O   0  0  0  0  0  0  0  0  0  0  0  0
  -30.0097  -15.6461   21.8963 O   0  0  0  0  0  0  0  0  0  0  0  0
  -21.6893   -6.9911   21.6605 O   0  0  0  0  0  0  0  0  0  0  0  0
  -34.8737  -11.6989   23.2511 O   0  0  0  0  0  0  0  0  0  1  0  0
  -16.6089   -6.6710   19.5413 F   0  0  0  0  0  0  0  0  0  0  0  0
  -21.0243   -4.9963   19.8658 F   0  0  0  0  0  0  0  0  0  0  0  0
  1  2  1  0  0  0  0
  1  5  2  0  0  0  0
  2  6  2  0  0  0  0
  3  8  2  0  0  0  0
  3 15  1  0  0  0  0
  4  9  1  0  0  0  0
  4 15  2  0  0  0  0
  5 17  1  0  0  0  0
  6 19  1  0  0  0  0
  7 10  2  0  0  0  0
  7 18  1  0  0  0  0
  8 21  1  0  0  0  0
  9 21  2  0  0  0  0
 10 22  1  0  0  0  0
 11 12  2  0  0  0  0
 11 23  1  0  0  0  0
 12 24  1  0  0  0  0
 13 20  1  0  0  0  0
 13 22  2  0  0  0  0
 14 24  2  0  0  0  0
 14 25  1  0  0  0  0
 15 26  1  0  0  0  0
 16 26  1  0  0  0  0
 16 31  2  0  0  0  0
 16 32  1  0  0  0  0
 17 19  2  0  0  0  0
 17 37  1  0  0  0  0
 18 20  2  0  0  0  0
 18 38  1  0  0  0  0
 19 47  1  0  0  0  0
 20 39  1  0  0  0  0
 21 82  1  0  0  0  0
 22 83  1  0  0  0  0
 23 25  2  0  0  0  0
 23 82  1  0  0  0  0
 24 84  1  0  0  0  0
 25 85  1  0  0  0  0
 26 65  2  0  0  0  0
 27 28  1  0  0  0  0
 27 48  1  0  0  0  0
 27 66  2  0  0  0  0
 28 52  1  0  0  0  0
 28 67  2  0  0  0  0
 29 30  2  0  0  0  0
 29 53  1  0  0  0  0
 29 67  1  0  0  0  0
 30 60  1  0  0  0  0
 30 66  1  0  0  0  0
 31 68  1  0  0  0  0
 31 72  1  0  0  0  0
 32 73  1  0  0  0  0
 32 77  2  0  0  0  0
 33 49  1  0  0  0  0
 33 74  1  0  0  0  0
 33 78  2  0  0  0  0
 34 62  1  0  0  0  0
 34 69  1  0  0  0  0
 34 79  2  0  0  0  0
 35 63  1  0  0  0  0
 35 75  1  0  0  0  0
 35 80  2  0  0  0  0
 36 70  1  0  0  0  0
 36 71  1  0  0  0  0
 36 81  2  0  0  0  0
 37 40  1  0  0  0  0
 38 49  1  0  0  0  0
 39 69  1  0  0  0  0
 40 42  1  0  0  0  0
 41 43  1  0  0  0  0
 41 44  1  0  0  0  0
 42 47  1  0  0  0  0
 43 50  1  0  0  0  0
 44 70  1  0  0  0  0
 45 48  1  0  0  0  0
 45 71  1  0  0  0  0
 46 50  1  0  0  0  0
 46 70  1  0  0  0  0
 47 74  1  0  0  0  0
 48 51  1  0  0  0  0
 49 69  1  0  0  0  0
 50 68  1  0  0  0  0
 51 54  1  0  0  0  0
 51 71  1  0  0  0  0
 55 63  1  0  0  0  0
 56 64  1  0  0  0  0
 57 64  1  0  0  0  0
 58 64  1  0  0  0  0
 59 76  1  0  0  0  0
 60 61  1  0  0  0  0
 61 83  1  0  0  0  0
 62 64  1  0  0  0  0
 62 75  1  0  0  0  0
 63 76  1  0  0  0  0
 65 68  1  0  0  0  0
M  CHG  1  76   1
M  ISO  4  36 100  61 101  71 100  83 101
M  END
> <Batch ID>
0175

> <Smiles>
CNC(C)C(=O)NC(C(=O)N1Cc2cc([101O:1][101CH2:1]Cc3nc(C4C[100N:0]([100C:0](=O)N5CCCC(n6nc(-c7ccc(Oc8ccc(F)cc8F)cc7)c(C(N)=O)c6N)C5)C4C)c(C)nc3C)ccc2CC1C(=O)NC1CCCc2ccccc21)C(C)(C)C

> <Shape>
0.137

> <Color>
0.170

> <Negative vol penalty>
0.000

$$$$

  -OEChem-04052322473D

 85 95  0     1  0  0  0  0  0999 V2000
  -27.5464  -26.3424   18.2562 C   0  0  0  0  0  0  0  0  0  0  0  0
  -28.1483  -25.6334   19.2909 C   0  0  0  0  0  0  0  0  0  0  0  0
  -23.2062   -9.8533   19.9471 C   0  0  0  0  0  0  0  0  0  0  0  0
  -23.9108   -9.9294   22.2569 C   0  0  0  0  0  0  0  0  0  0  0  0
  -27.6883  -25.9069   16.9394 C   0  0  0  0  0  0  0  0  0  0  0  0
  -28.8916  -24.4877   19.0093 C   0  0  0  0  0  0  0  0  0  0  0  0
  -33.9136  -22.5478   21.9286 C   0  0  0  0  0  0  0  0  0  0  0  0
  -22.5142   -8.6684   20.1973 C   0  0  0  0  0  0  0  0  0  0  0  0
  -23.2187   -8.7445   22.5071 C   0  0  0  0  0  0  0  0  0  0  0  0
  -34.1090  -21.5933   22.9259 C   0  0  0  0  0  0  0  0  0  0  0  0
  -20.0202   -7.7967   23.0477 C   0  0  0  0  0  0  0  0  0  0  0  0
  -19.2389   -7.7356   24.2015 C   0  0  0  0  0  0  0  0  0  0  0  0
  -32.7578  -17.1039   24.9741 C   0  0  0  0  0  0  0  0  0  0  0  0
  -34.6771  -19.9605   21.2435 C   0  0  0  0  0  0  0  0  0  0  0  0
  -20.5561   -5.8721   24.9949 C   0  0  0  0  0  0  0  0  0  0  0  0
  -31.7310  -15.8009   26.7054 C   0  0  0  0  0  0  0  0  0  0  0  0
  -23.9046  -10.4838   20.9769 C   0  0  0  0  0  0  0  0  0  0  0  0
  -24.1249  -13.0209   20.8270 C   0  0  0  0  0  0  0  0  0  0  0  0
  -28.4418  -24.7607   16.6406 C   0  0  0  0  0  0  0  0  0  0  0  0
  -34.0882  -22.2122   20.5783 C   0  0  0  0  0  0  0  0  0  0  0  0
  -29.0427  -24.0356   17.6873 C   0  0  0  0  0  0  0  0  0  0  0  0
  -31.7955  -16.1747   25.3636 C   0  0  0  0  0  0  0  0  0  0  0  0
  -33.5962  -17.6190   25.9438 C   0  0  0  0  0  0  0  0  0  0  0  0
  -34.4858  -20.9132   20.2312 C   0  0  0  0  0  0  0  0  0  0  0  0
  -22.5203   -8.1140   21.4772 C   0  0  0  0  0  0  0  0  0  0  0  0
  -34.4880  -20.2987   22.5833 C   0  0  0  0  0  0  0  0  0  0  0  0
  -21.0696   -6.8954   22.8674 C   0  0  0  0  0  0  0  0  0  0  0  0
  -19.5068   -6.7733   25.1751 C   0  0  0  0  0  0  0  0  0  0  0  0
  -21.3375   -5.9332   23.8410 C   0  0  0  0  0  0  0  0  0  0  0  0
  -24.6202  -11.7075   20.7190 C   0  0  0  0  0  0  0  0  0  0  0  0
  -33.4523  -17.1774   27.2567 C   0  0  0  0  0  0  0  0  0  0  0  0
  -25.1873  -13.8183   20.4776 C   0  0  0  0  0  0  0  0  0  0  0  0
  -22.8212  -13.4790   21.2091 C   0  0  0  0  0  0  0  0  0  0  0  0
  -32.2016  -22.1482   18.0208 C   0  0  0  0  0  0  0  0  0  0  0  0
  -34.9713  -21.4631   16.4775 C   0  0  0  0  0  0  0  0  0  0  0  0
  -38.1441  -20.2161   16.6355 C   0  0  0  0  0  0  0  0  0  0  0  0
  -30.9482  -14.0106   20.9803 C   0  0  0  0  0  0  0  0  0  0  0  0
  -28.5276  -24.3019   15.2065 C   0  0  0  0  0  0  0  0  0  0  0  0
  -33.8995  -23.2605   19.5162 C   0  0  0  0  0  0  0  0  0  0  0  0
  -34.7061  -20.5077   18.7975 C   0  0  0  0  0  0  0  0  0  0  0  0
  -34.4784  -17.8133   28.1506 C   0  0  0  0  0  0  0  0  0  0  0  0
  -29.6432  -23.2903   14.9563 C   0  0  0  0  0  0  0  0  0  0  0  0
  -34.8914  -19.0228   27.2997 C   0  0  0  0  0  0  0  0  0  0  0  0
  -29.3574  -13.1804   17.9368 C   0  0  0  0  0  0  0  0  0  0  0  0
  -29.6306  -22.2056   16.0287 C   0  0  0  0  0  0  0  0  0  0  0  0
  -27.9348  -12.8080   18.3452 C   0  0  0  0  0  0  0  0  0  0  0  0
  -30.3785  -14.1349   24.6016 C   0  0  0  0  0  0  0  0  0  0  0  0
  -30.3621  -12.6957   18.9734 C   0  0  0  0  0  0  0  0  0  0  0  0
  -29.8032  -13.7206   23.2539 C   0  0  0  0  0  0  0  0  0  0  0  0
  -31.4132  -15.4656   22.9293 C   0  0  0  0  0  0  0  0  0  0  0  0
  -28.6760  -12.8877   20.7818 C   0  0  0  0  0  0  0  0  0  0  0  0
  -30.8435  -15.5785   24.3504 C   0  0  2  0  0  0  0  0  0  0  0  0
  -34.7313  -18.5914   25.8252 C   0  0  2  0  0  0  0  0  0  0  0  0
  -29.8775  -22.8021   17.4196 C   0  0  1  0  0  0  0  0  0  0  0  0
  -33.6053  -22.6708   18.1403 C   0  0  1  0  0  0  0  0  0  0  0  0
  -27.6188  -13.3380   19.7524 C   0  0  2  0  0  0  0  0  0  0  0  0
  -40.1518  -19.7517   15.2034 C   0  0  0  0  0  0  0  0  0  0  0  0
  -33.5701  -19.0166   15.3109 C   0  0  0  0  0  0  0  0  0  0  0  0
  -35.8202  -18.1089   14.6932 C   0  0  0  0  0  0  0  0  0  0  0  0
  -35.0259  -20.2534   13.6968 C   0  0  0  0  0  0  0  0  0  0  0  0
  -39.8422  -22.0525   18.2177 C   0  0  0  0  0  0  0  0  0  0  0  0
  -34.4754  -19.7726   24.9025 C   0  0  0  0  0  0  0  0  0  1  0  0
  -35.7158  -20.1970   16.1285 C   0  0  1  0  0  0  0  0  0  0  0  0
  -39.4652  -20.7550   16.1170 C   0  0  2  0  0  0  0  0  0  0  0  0
  -35.0270  -19.4008   14.9843 C   0  0  0  0  0  0  0  0  0  0  0  0
  -32.5463  -16.2781   27.6757 N   0  0  0  0  0  0  0  0  0  0  0  0
  -25.8977  -11.6685   20.3312 N   0  0  0  0  0  0  0  0  0  0  0  0
  -26.2142  -12.9672   20.1923 N   0  0  0  0  0  0  0  0  0  0  0  0
  -34.5029  -21.5666   17.7949 N   0  0  0  0  0  0  0  0  0  0  0  0
  -30.0370  -13.1827   20.3153 N   0  0  0  0  0  0  0  0  0  0  0  0
  -30.6322  -14.4207   22.2749 N   0  0  0  0  0  0  0  0  0  0  0  0
  -25.3338  -15.1574   20.3895 N   0  0  0  0  0  0  0  0  0  0  0  0
  -21.8474  -12.5258   21.5368 N   0  0  0  0  0  0  0  0  0  0  0  0
  -31.2834  -23.0924   17.6028 N   0  0  0  0  0  0  0  0  0  0  0  0
  -37.0877  -20.5977   15.8358 N   0  0  0  0  0  0  0  0  0  0  0  0
  -40.3813  -21.0606   17.2521 N   0  3  0  0  0  0  0  0  0  0  0  0
  -22.5236  -14.6972   21.2427 O   0  0  0  0  0  0  0  0  0  0  0  0
  -31.9692  -20.9747   18.2867 O   0  0  0  0  0  0  0  0  0  0  0  0
  -34.8175  -22.3315   15.6150 O   0  0  0  0  0  0  0  0  0  0  0  0
  -38.0584  -19.5227   17.6467 O   0  0  0  0  0  0  0  0  0  0  0  0
  -32.0213  -14.3376   20.4555 O   0  0  0  0  0  0  0  0  0  0  0  0
  -21.8449   -6.9579   21.7217 O   0  0  0  0  0  0  0  0  0  0  0  0
  -34.6804  -19.3570   23.5629 O   0  0  0  0  0  0  0  0  0  1  0  0
  -18.7573   -6.7157   26.2838 F   0  0  0  0  0  0  0  0  0  0  0  0
  -22.3450   -5.0655   23.6740 F   0  0  0  0  0  0  0  0  0  0  0  0
  1  2  1  0  0  0  0
  1  5  2  0  0  0  0
  2  6  2  0  0  0  0
  3  8  2  0  0  0  0
  3 17  1  0  0  0  0
  4  9  1  0  0  0  0
  4 17  2  0  0  0  0
  5 19  1  0  0  0  0
  6 21  1  0  0  0  0
  7 10  2  0  0  0  0
  7 20  1  0  0  0  0
  8 25  1  0  0  0  0
  9 25  2  0  0  0  0
 10 26  1  0  0  0  0
 11 12  2  0  0  0  0
 11 27  1  0  0  0  0
 12 28  1  0  0  0  0
 13 22  2  0  0  0  0
 13 23  1  0  0  0  0
 14 24  1  0  0  0  0
 14 26  2  0  0  0  0
 15 28  2  0  0  0  0
 15 29  1  0  0  0  0
 16 22  1  0  0  0  0
 16 66  2  0  0  0  0
 17 30  1  0  0  0  0
 18 30  1  0  0  0  0
 18 32  2  0  0  0  0
 18 33  1  0  0  0  0
 19 21  2  0  0  0  0
 19 38  1  0  0  0  0
 20 24  2  0  0  0  0
 20 39  1  0  0  0  0
 21 54  1  0  0  0  0
 22 52  1  0  0  0  0
 23 31  2  0  0  0  0
 23 53  1  0  0  0  0
 24 40  1  0  0  0  0
 25 82  1  0  0  0  0
 26 83  1  0  0  0  0
 27 29  2  0  0  0  0
 27 82  1  0  0  0  0
 28 84  1  0  0  0  0
 29 85  1  0  0  0  0
 30 67  2  0  0  0  0
 31 41  1  0  0  0  0
 31 66  1  0  0  0  0
 32 68  1  0  0  0  0
 32 72  1  0  0  0  0
 33 73  1  0  0  0  0
 33 77  2  0  0  0  0
 34 55  1  0  0  0  0
 34 74  1  0  0  0  0
 34 78  2  0  0  0  0
 35 63  1  0  0  0  0
 35 69  1  0  0  0  0
 35 79  2  0  0  0  0
 36 64  1  0  0  0  0
 36 75  1  0  0  0  0
 36 80  2  0  0  0  0
 37 70  1  0  0  0  0
 37 71  1  0  0  0  0
 37 81  2  0  0  0  0
 38 42  1  0  0  0  0
 39 55  1  0  0  0  0
 40 69  1  0  0  0  0
 41 43  1  0  0  0  0
 42 45  1  0  0  0  0
 43 53  1  0  0  0  0
 44 46  1  0  0  0  0
 44 48  1  0  0  0  0
 45 54  1  0  0  0  0
 46 56  1  0  0  0  0
 47 49  1  0  0  0  0
 47 52  1  0  0  0  0
 48 70  1  0  0  0  0
 49 71  1  0  0  0  0
 50 52  1  0  0  0  0
 50 71  1  0  0  0  0
 51 56  1  0  0  0  0
 51 70  1  0  0  0  0
 53 62  1  0  0  0  0
 54 74  1  0  0  0  0
 55 69  1  0  0  0  0
 56 68  1  0  0  0  0
 57 64  1  0  0  0  0
 58 65  1  0  0  0  0
 59 65  1  0  0  0  0
 60 65  1  0  0  0  0
 61 76  1  0  0  0  0
 62 83  1  0  0  0  0
 63 65  1  0  0  0  0
 63 75  1  0  0  0  0
 64 76  1  0  0  0  0
 67 68  1  0  0  0  0
M  CHG  1  76   1
M  ISO  4  37 100  62 101  71 100  83 101
M  END
> <Batch ID>
0175

> <Smiles>
CNC(C)C(=O)NC(C(=O)N1Cc2cc([101O:1][101CH2:1]C3CCc4ncc(C5CC[100N:0]([100C:0](=O)N6CCCC(n7nc(-c8ccc(Oc9ccc(F)cc9F)cc8)c(C(N)=O)c7N)C6)C5)cc43)ccc2CC1C(=O)NC1CCCc2ccccc21)C(C)(C)C

> <Shape>
0.184

> <Color>
0.186

> <Negative vol penalty>
0.000

$$$$

  -OEChem-04052322473D

 86 95  0     1  0  0  0  0  0999 V2000
  -29.7332  -36.5415   22.8741 C   0  0  0  0  0  0  0  0  0  0  0  0
  -29.8251  -35.5216   21.9324 C   0  0  0  0  0  0  0  0  0  0  0  0
  -24.6077   -8.9465   21.3709 C   0  0  0  0  0  0  0  0  0  0  0  0
  -23.2670  -10.9377   21.6444 C   0  0  0  0  0  0  0  0  0  0  0  0
  -29.1483  -36.2924   24.1149 C   0  0  0  0  0  0  0  0  0  0  0  0
  -29.3331  -34.2516   22.2314 C   0  0  0  0  0  0  0  0  0  0  0  0
  -25.3679  -20.7588   19.4756 C   0  0  0  0  0  0  0  0  0  0  0  0
  -26.2343  -28.5903   19.1228 C   0  0  0  0  0  0  0  0  0  0  0  0
  -25.1031  -22.1004   19.7537 C   0  0  0  0  0  0  0  0  0  0  0  0
  -23.8848   -8.3202   22.3862 C   0  0  0  0  0  0  0  0  0  0  0  0
  -22.5441  -10.3114   22.6597 C   0  0  0  0  0  0  0  0  0  0  0  0
  -26.3856  -27.2094   19.0048 C   0  0  0  0  0  0  0  0  0  0  0  0
  -22.1553   -6.0715   24.6593 C   0  0  0  0  0  0  0  0  0  0  0  0
  -21.7369   -4.7587   24.4425 C   0  0  0  0  0  0  0  0  0  0  0  0
  -26.8983  -22.1166   21.3579 C   0  0  0  0  0  0  0  0  0  0  0  0
  -25.3241  -26.9159   21.1511 C   0  0  0  0  0  0  0  0  0  0  0  0
  -20.4685   -5.4808   22.5172 C   0  0  0  0  0  0  0  0  0  0  0  0
  -24.2989  -10.2552   21.0000 C   0  0  0  0  0  0  0  0  0  0  0  0
  -24.7564  -10.8976   18.5740 C   0  0  0  0  0  0  0  0  0  0  0  0
  -28.6401  -35.0212   24.4258 C   0  0  0  0  0  0  0  0  0  0  0  0
  -25.6356  -29.1460   20.2626 C   0  0  0  0  0  0  0  0  0  0  0  0
  -28.7420  -33.9849   23.4781 C   0  0  0  0  0  0  0  0  0  0  0  0
  -26.4151  -20.0773   20.1206 C   0  0  0  0  0  0  0  0  0  0  0  0
  -27.1665  -20.7628   21.0961 C   0  0  0  0  0  0  0  0  0  0  0  0
  -25.1641  -28.3040   21.2799 C   0  0  0  0  0  0  0  0  0  0  0  0
  -25.8723  -22.7812   20.6901 C   0  0  0  0  0  0  0  0  0  0  0  0
  -22.8530   -9.0027   23.0305 C   0  0  0  0  0  0  0  0  0  0  0  0
  -25.9331  -26.3721   20.0204 C   0  0  0  0  0  0  0  0  0  0  0  0
  -21.7303   -7.0890   23.8050 C   0  0  0  0  0  0  0  0  0  0  0  0
  -20.8935   -4.4633   23.3715 C   0  0  0  0  0  0  0  0  0  0  0  0
  -20.8869   -6.7937   22.7340 C   0  0  0  0  0  0  0  0  0  0  0  0
  -25.0456  -10.9029   19.9517 C   0  0  0  0  0  0  0  0  0  0  0  0
  -25.7575  -11.6502   18.0101 C   0  0  0  0  0  0  0  0  0  0  0  0
  -23.6791  -10.2688   17.8672 C   0  0  0  0  0  0  0  0  0  0  0  0
  -26.5912  -31.1242   22.5598 C   0  0  0  0  0  0  0  0  0  0  0  0
  -23.4800  -30.9554   23.4622 C   0  0  0  0  0  0  0  0  0  0  0  0
  -20.5468  -29.2111   23.4376 C   0  0  0  0  0  0  0  0  0  0  0  0
  -29.2954  -15.9842   20.1435 C   0  0  0  0  0  0  0  0  0  0  0  0
  -28.0592  -34.7873   25.7978 C   0  0  0  0  0  0  0  0  0  0  0  0
  -25.4557  -30.6360   20.3625 C   0  0  0  0  0  0  0  0  0  0  0  0
  -28.2923  -20.0957   21.8446 C   0  0  0  0  0  0  0  0  0  0  0  0
  -24.4961  -28.8494   22.5147 C   0  0  0  0  0  0  0  0  0  0  0  0
  -27.2245  -33.5130   25.8966 C   0  0  0  0  0  0  0  0  0  0  0  0
  -28.2106  -18.5719   21.8111 C   0  0  0  0  0  0  0  0  0  0  0  0
  -30.3253  -12.9075   18.6771 C   0  0  0  0  0  0  0  0  0  0  0  0
  -27.9578  -32.3429   25.2486 C   0  0  0  0  0  0  0  0  0  0  0  0
  -29.0629  -12.0444   18.7132 C   0  0  0  0  0  0  0  0  0  0  0  0
  -30.4361  -13.7974   19.9132 C   0  0  0  0  0  0  0  0  0  0  0  0
  -27.9905  -13.7732   20.2165 C   0  0  0  0  0  0  0  0  0  0  0  0
  -28.1975  -32.6006   23.7561 C   0  0  1  0  0  0  0  0  0  0  0  0
  -26.6663  -18.6103   19.8227 C   0  0  2  0  0  0  0  0  0  0  0  0
  -25.2954  -31.1235   21.7992 C   0  0  1  0  0  0  0  0  0  0  0  0
  -27.8061  -12.8993   18.9640 C   0  0  2  0  0  0  0  0  0  0  0  0
  -28.0102  -18.0947   20.3741 C   0  0  2  0  0  0  0  0  0  0  0  0
  -26.2300  -16.5781   16.6294 C   0  0  0  0  0  0  0  0  0  0  0  0
  -18.1895  -29.3090   24.2925 C   0  0  0  0  0  0  0  0  0  0  0  0
  -24.4593  -30.1749   26.2446 C   0  0  0  0  0  0  0  0  0  0  0  0
  -22.1428  -29.3774   26.7601 C   0  0  0  0  0  0  0  0  0  0  0  0
  -22.5424  -31.7810   26.2258 C   0  0  0  0  0  0  0  0  0  0  0  0
  -19.4297  -29.2091   20.6970 C   0  0  0  0  0  0  0  0  0  0  0  0
  -27.8930  -18.7048   17.6577 C   0  0  0  0  0  0  0  0  0  0  0  0
  -25.5937  -24.2255   20.9862 C   0  0  0  0  0  0  0  0  0  1  0  0
  -26.3246  -16.8264   18.1189 C   0  0  0  0  0  0  0  0  0  0  0  0
  -22.6794  -30.0611   24.3778 C   0  0  1  0  0  0  0  0  0  0  0  0
  -19.1220  -29.6406   23.1379 C   0  0  2  0  0  0  0  0  0  0  0  0
  -22.9703  -30.3381   25.8798 C   0  0  0  0  0  0  0  0  0  0  0  0
  -26.1445  -11.6031   20.2452 N   0  0  0  0  0  0  0  0  0  0  0  0
  -26.5547  -12.0448   19.0440 N   0  0  0  0  0  0  0  0  0  0  0  0
  -24.3491  -30.3133   22.5687 N   0  0  0  0  0  0  0  0  0  0  0  0
  -29.2128  -14.5828   20.0934 N   0  0  0  0  0  0  0  0  0  0  0  0
  -26.0249  -12.0062   16.7357 N   0  0  0  0  0  0  0  0  0  0  0  0
  -22.7379   -9.5335   18.6005 N   0  0  0  0  0  0  0  0  0  0  0  0
  -26.9831  -32.3732   23.0025 N   0  0  0  0  0  0  0  0  0  0  0  0
  -21.2816  -30.2346   23.9979 N   0  0  0  0  0  0  0  0  0  0  0  0
  -28.0885  -16.6523   20.3102 N   0  0  0  0  0  0  0  0  0  0  0  0
  -18.6197  -28.9518   21.9154 N   0  3  0  0  0  0  0  0  0  0  0  0
  -26.6353  -18.2767   18.3601 N   0  3  1  0  0  0  0  0  0  0  0  0
  -23.5639  -10.3428   16.6203 O   0  0  0  0  0  0  0  0  0  0  0  0
  -27.1904  -30.0694   22.7336 O   0  0  0  0  0  0  0  0  0  0  0  0
  -23.3343  -32.1783   23.5321 O   0  0  0  0  0  0  0  0  0  0  0  0
  -20.9651  -28.0797   23.2019 O   0  0  0  0  0  0  0  0  0  0  0  0
  -30.3647  -16.5949   20.0415 O   0  0  0  0  0  0  0  0  0  0  0  0
  -22.1472   -8.3918   24.0211 O   0  0  0  0  0  0  0  0  0  0  0  0
  -26.0802  -25.0239   19.9081 O   0  0  0  0  0  0  0  0  0  1  0  0
  -20.4931   -3.2023   23.1625 F   0  0  0  0  0  0  0  0  0  0  0  0
  -20.4762   -7.7668   21.9093 F   0  0  0  0  0  0  0  0  0  0  0  0
  1  2  1  0  0  0  0
  1  5  2  0  0  0  0
  2  6  2  0  0  0  0
  3 10  2  0  0  0  0
  3 18  1  0  0  0  0
  4 11  1  0  0  0  0
  4 18  2  0  0  0  0
  5 20  1  0  0  0  0
  6 22  1  0  0  0  0
  7  9  2  0  0  0  0
  7 23  1  0  0  0  0
  8 12  2  0  0  0  0
  8 21  1  0  0  0  0
  9 26  1  0  0  0  0
 10 27  1  0  0  0  0
 11 27  2  0  0  0  0
 12 28  1  0  0  0  0
 13 14  2  0  0  0  0
 13 29  1  0  0  0  0
 14 30  1  0  0  0  0
 15 24  1  0  0  0  0
 15 26  2  0  0  0  0
 16 25  1  0  0  0  0
 16 28  2  0  0  0  0
 17 30  2  0  0  0  0
 17 31  1  0  0  0  0
 18 32  1  0  0  0  0
 19 32  1  0  0  0  0
 19 33  2  0  0  0  0
 19 34  1  0  0  0  0
 20 22  2  0  0  0  0
 20 39  1  0  0  0  0
 21 25  2  0  0  0  0
 21 40  1  0  0  0  0
 22 50  1  0  0  0  0
 23 24  2  0  0  0  0
 23 51  1  0  0  0  0
 24 41  1  0  0  0  0
 25 42  1  0  0  0  0
 26 62  1  0  0  0  0
 27 83  1  0  0  0  0
 28 84  1  0  0  0  0
 29 31  2  0  0  0  0
 29 83  1  0  0  0  0
 30 85  1  0  0  0  0
 31 86  1  0  0  0  0
 32 67  2  0  0  0  0
 33 68  1  0  0  0  0
 33 71  1  0  0  0  0
 34 72  1  0  0  0  0
 34 78  2  0  0  0  0
 35 52  1  0  0  0  0
 35 73  1  0  0  0  0
 35 79  2  0  0  0  0
 36 64  1  0  0  0  0
 36 69  1  0  0  0  0
 36 80  2  0  0  0  0
 37 65  1  0  0  0  0
 37 74  1  0  0  0  0
 37 81  2  0  0  0  0
 38 70  1  0  0  0  0
 38 75  1  0  0  0  0
 38 82  2  0  0  0  0
 39 43  1  0  0  0  0
 40 52  1  0  0  0  0
 41 44  1  0  0  0  0
 42 69  1  0  0  0  0
 43 46  1  0  0  0  0
 44 54  1  0  0  0  0
 45 47  1  0  0  0  0
 45 48  1  0  0  0  0
 46 50  1  0  0  0  0
 47 53  1  0  0  0  0
 48 70  1  0  0  0  0
 49 53  1  0  0  0  0
 49 70  1  0  0  0  0
 50 73  1  0  0  0  0
 51 54  1  0  0  0  0
 51 77  1  0  0  0  0
 52 69  1  0  0  0  0
 53 68  1  0  0  0  0
 54 75  1  0  0  0  0
 55 63  1  0  0  0  0
 56 65  1  0  0  0  0
 57 66  1  0  0  0  0
 58 66  1  0  0  0  0
 59 66  1  0  0  0  0
 60 76  1  0  0  0  0
 61 77  1  0  0  0  0
 62 84  1  0  0  0  0
 63 77  1  0  0  0  0
 64 66  1  0  0  0  0
 64 74  1  0  0  0  0
 65 76  1  0  0  0  0
 67 68  1  0  0  0  0
M  CHG  2  76   1  77   1
M  ISO  4  38 100  62 101  75 100  84 101
M  END
> <Batch ID>
0175

> <Smiles>
CCN(C)C1c2ccc([101CH2:1][101O:1]c3ccc4c(c3)CN(C(=O)C(NC(=O)C(C)NC)C(C)(C)C)C(C(=O)NC3CCCc5ccccc53)C4)cc2CCC1[100NH:0][100C:0](=O)N1CCCC(n2nc(-c3ccc(Oc4ccc(F)cc4F)cc3)c(C(N)=O)c2N)C1

> <Shape>
0.281

> <Color>
0.100

> <Negative vol penalty>
0.000

$$$$

  -OEChem-04052322473D

 87 97  0     1  0  0  0  0  0999 V2000
  -30.5880  -35.1040   23.9359 C   0  0  0  0  0  0  0  0  0  0  0  0
  -30.5914  -34.1540   22.9196 C   0  0  0  0  0  0  0  0  0  0  0  0
  -23.0865   -9.9856   21.5630 C   0  0  0  0  0  0  0  0  0  0  0  0
  -23.7432  -11.0656   23.6220 C   0  0  0  0  0  0  0  0  0  0  0  0
  -29.8627  -34.8712   25.1037 C   0  0  0  0  0  0  0  0  0  0  0  0
  -29.8705  -32.9700   23.0710 C   0  0  0  0  0  0  0  0  0  0  0  0
  -26.1587  -28.1682   19.2655 C   0  0  0  0  0  0  0  0  0  0  0  0
  -22.3493   -9.0500   22.2888 C   0  0  0  0  0  0  0  0  0  0  0  0
  -23.0059  -10.1300   24.3479 C   0  0  0  0  0  0  0  0  0  0  0  0
  -26.0878  -26.7940   19.0411 C   0  0  0  0  0  0  0  0  0  0  0  0
  -22.9569   -6.2528   24.0862 C   0  0  0  0  0  0  0  0  0  0  0  0
  -23.0807   -4.9109   23.7263 C   0  0  0  0  0  0  0  0  0  0  0  0
  -24.8074  -26.5350   21.0691 C   0  0  0  0  0  0  0  0  0  0  0  0
  -29.5100  -18.4475   20.6623 C   0  0  0  0  0  0  0  0  0  0  0  0
  -20.7120   -4.8176   23.2595 C   0  0  0  0  0  0  0  0  0  0  0  0
  -23.7835  -10.9934   22.2296 C   0  0  0  0  0  0  0  0  0  0  0  0
  -24.0931  -13.1943   20.9775 C   0  0  0  0  0  0  0  0  0  0  0  0
  -29.1247  -33.6881   25.2655 C   0  0  0  0  0  0  0  0  0  0  0  0
  -25.5628  -28.7357   20.4010 C   0  0  0  0  0  0  0  0  0  0  0  0
  -29.1358  -32.7206   24.2427 C   0  0  0  0  0  0  0  0  0  0  0  0
  -24.8700  -27.9170   21.3043 C   0  0  0  0  0  0  0  0  0  0  0  0
  -29.9687  -19.7366   20.4789 C   0  0  0  0  0  0  0  0  0  0  0  0
  -31.2516  -19.9695   19.9799 C   0  0  0  0  0  0  0  0  0  0  0  0
  -22.3089   -9.1222   23.6812 C   0  0  0  0  0  0  0  0  0  0  0  0
  -25.4146  -25.9768   19.9445 C   0  0  0  0  0  0  0  0  0  0  0  0
  -21.7106   -6.8771   24.0329 C   0  0  0  0  0  0  0  0  0  0  0  0
  -21.9583   -4.1933   23.3129 C   0  0  0  0  0  0  0  0  0  0  0  0
  -20.5882   -6.1595   23.6194 C   0  0  0  0  0  0  0  0  0  0  0  0
  -24.5457  -11.9598   21.4805 C   0  0  0  0  0  0  0  0  0  0  0  0
  -32.0535  -18.8963   19.6703 C   0  0  0  0  0  0  0  0  0  0  0  0
  -30.3839  -17.4285   20.3106 C   0  0  0  0  0  0  0  0  0  0  0  0
  -25.1892  -13.7309   20.3474 C   0  0  0  0  0  0  0  0  0  0  0  0
  -22.7977  -13.8016   21.0716 C   0  0  0  0  0  0  0  0  0  0  0  0
  -26.6282  -30.3485   22.9244 C   0  0  0  0  0  0  0  0  0  0  0  0
  -23.4651  -30.6558   23.5744 C   0  0  0  0  0  0  0  0  0  0  0  0
  -20.2962  -29.4514   23.1815 C   0  0  0  0  0  0  0  0  0  0  0  0
  -30.6262  -14.9233   20.2035 C   0  0  0  0  0  0  0  0  0  0  0  0
  -28.3944  -33.4601   26.5652 C   0  0  0  0  0  0  0  0  0  0  0  0
  -25.6253  -30.2232   20.6148 C   0  0  0  0  0  0  0  0  0  0  0  0
  -31.5547  -21.4298   19.9123 C   0  0  0  0  0  0  0  0  0  0  0  0
  -24.1959  -28.4795   22.5281 C   0  0  0  0  0  0  0  0  0  0  0  0
  -27.3538  -32.3456   26.4918 C   0  0  0  0  0  0  0  0  0  0  0  0
  -30.1361  -22.0224   19.9681 C   0  0  0  0  0  0  0  0  0  0  0  0
  -29.6542  -11.6580   19.1688 C   0  0  0  0  0  0  0  0  0  0  0  0
  -27.9363  -31.1160   25.8022 C   0  0  0  0  0  0  0  0  0  0  0  0
  -28.2012  -11.5470   19.6366 C   0  0  0  0  0  0  0  0  0  0  0  0
  -25.8832  -21.4867   21.7288 C   0  0  0  0  0  0  0  0  0  0  0  0
  -30.5113  -12.4413   20.1616 C   0  0  0  0  0  0  0  0  0  0  0  0
  -28.5342  -13.6527   20.9939 C   0  0  0  0  0  0  0  0  0  0  0  0
  -26.9134  -20.4347   21.3515 C   0  0  0  0  0  0  0  0  0  0  0  0
  -27.3881  -22.5671   20.2552 C   0  0  0  0  0  0  0  0  0  0  0  0
  -28.3461  -31.4349   24.3594 C   0  0  1  0  0  0  0  0  0  0  0  0
  -29.2970  -21.0348   20.7995 C   0  0  1  0  0  0  0  0  0  0  0  0
  -25.4225  -30.6265   22.0720 C   0  0  1  0  0  0  0  0  0  0  0  0
  -25.9034  -22.4594   20.5580 C   0  0  2  0  0  0  0  0  0  0  0  0
  -27.6175  -12.9277   19.9950 C   0  0  2  0  0  0  0  0  0  0  0  0
  -33.4363  -19.0982   19.1537 C   0  0  0  0  0  0  0  0  0  0  0  0
  -17.9221  -29.8937   23.8636 C   0  0  0  0  0  0  0  0  0  0  0  0
  -24.0518  -29.5198   26.3448 C   0  0  0  0  0  0  0  0  0  0  0  0
  -21.5986  -29.0999   26.6158 C   0  0  0  0  0  0  0  0  0  0  0  0
  -22.4382  -31.4303   26.3210 C   0  0  0  0  0  0  0  0  0  0  0  0
  -19.4402  -29.8396   20.3752 C   0  0  0  0  0  0  0  0  0  0  0  0
  -25.2671  -23.7949   20.8790 C   0  0  0  0  0  0  0  0  0  1  0  0
  -22.4493  -29.8500   24.3476 C   0  0  1  0  0  0  0  0  0  0  0  0
  -18.9947  -30.1412   22.8144 C   0  0  2  0  0  0  0  0  0  0  0  0
  -22.6487  -29.9638   25.8854 C   0  0  0  0  0  0  0  0  0  0  0  0
  -25.8292  -11.7258   21.1944 N   0  0  0  0  0  0  0  0  0  0  0  0
  -31.6390  -17.6175   19.8202 N   0  0  0  0  0  0  0  0  0  0  0  0
  -26.1925  -12.8206   20.5048 N   0  0  0  0  0  0  0  0  0  0  0  0
  -24.2904  -29.9390   22.6964 N   0  0  0  0  0  0  0  0  0  0  0  0
  -29.8986  -13.7398   20.4503 N   0  0  0  0  0  0  0  0  0  0  0  0
  -25.3830  -14.8880   19.6796 N   0  0  0  0  0  0  0  0  0  0  0  0
  -21.7853  -13.1138   21.7543 N   0  0  0  0  0  0  0  0  0  0  0  0
  -29.9294  -16.0978   20.4854 N   0  0  0  0  0  0  0  0  0  0  0  0
  -27.1820  -31.4758   23.5006 N   0  0  0  0  0  0  0  0  0  0  0  0
  -21.1388  -30.2894   23.8809 N   0  0  0  0  0  0  0  0  0  0  0  0
  -27.8728  -21.1419   20.4120 N   0  3  1  0  0  0  0  0  0  0  0  0
  -18.4945  -29.6393   21.5033 N   0  3  0  0  0  0  0  0  0  0  0  0
  -22.5411  -14.9137   20.5510 O   0  0  0  0  0  0  0  0  0  0  0  0
  -27.0258  -29.1963   23.0512 O   0  0  0  0  0  0  0  0  0  0  0  0
  -23.5193  -31.8773   23.7380 O   0  0  0  0  0  0  0  0  0  0  0  0
  -20.5394  -28.2846   22.8815 O   0  0  0  0  0  0  0  0  0  0  0  0
  -31.7724  -14.8973   19.7480 O   0  0  0  0  0  0  0  0  0  0  0  0
  -21.5895   -8.2096   24.3898 O   0  0  0  0  0  0  0  0  0  0  0  0
  -25.3445  -24.6351   19.7281 O   0  0  0  0  0  0  0  0  0  1  0  0
  -22.0776   -2.9051   22.9658 F   0  0  0  0  0  0  0  0  0  0  0  0
  -19.3885   -6.7542   23.5650 F   0  0  0  0  0  0  0  0  0  0  0  0
  1  2  1  0  0  0  0
  1  5  2  0  0  0  0
  2  6  2  0  0  0  0
  3  8  2  0  0  0  0
  3 16  1  0  0  0  0
  4  9  1  0  0  0  0
  4 16  2  0  0  0  0
  5 18  1  0  0  0  0
  6 20  1  0  0  0  0
  7 10  2  0  0  0  0
  7 19  1  0  0  0  0
  8 24  1  0  0  0  0
  9 24  2  0  0  0  0
 10 25  1  0  0  0  0
 11 12  2  0  0  0  0
 11 26  1  0  0  0  0
 12 27  1  0  0  0  0
 13 21  1  0  0  0  0
 13 25  2  0  0  0  0
 14 22  2  0  0  0  0
 14 31  1  0  0  0  0
 15 27  2  0  0  0  0
 15 28  1  0  0  0  0
 16 29  1  0  0  0  0
 17 29  1  0  0  0  0
 17 32  2  0  0  0  0
 17 33  1  0  0  0  0
 18 20  2  0  0  0  0
 18 38  1  0  0  0  0
 19 21  2  0  0  0  0
 19 39  1  0  0  0  0
 20 52  1  0  0  0  0
 21 41  1  0  0  0  0
 22 23  1  0  0  0  0
 22 53  1  0  0  0  0
 23 30  2  0  0  0  0
 23 40  1  0  0  0  0
 24 84  1  0  0  0  0
 25 85  1  0  0  0  0
 26 28  2  0  0  0  0
 26 84  1  0  0  0  0
 27 86  1  0  0  0  0
 28 87  1  0  0  0  0
 29 67  2  0  0  0  0
 30 57  1  0  0  0  0
 30 68  1  0  0  0  0
 31 68  2  0  0  0  0
 31 74  1  0  0  0  0
 32 69  1  0  0  0  0
 32 72  1  0  0  0  0
 33 73  1  0  0  0  0
 33 79  2  0  0  0  0
 34 54  1  0  0  0  0
 34 75  1  0  0  0  0
 34 80  2  0  0  0  0
 35 64  1  0  0  0  0
 35 70  1  0  0  0  0
 35 81  2  0  0  0  0
 36 65  1  0  0  0  0
 36 76  1  0  0  0  0
 36 82  2  0  0  0  0
 37 71  1  0  0  0  0
 37 74  1  0  0  0  0
 37 83  2  0  0  0  0
 38 42  1  0  0  0  0
 39 54  1  0  0  0  0
 40 43  1  0  0  0  0
 41 70  1  0  0  0  0
 42 45  1  0  0  0  0
 43 53  1  0  0  0  0
 44 46  1  0  0  0  0
 44 48  1  0  0  0  0
 45 52  1  0  0  0  0
 46 56  1  0  0  0  0
 47 50  1  0  0  0  0
 47 55  1  0  0  0  0
 48 71  1  0  0  0  0
 49 56  1  0  0  0  0
 49 71  1  0  0  0  0
 50 77  1  0  0  0  0
 51 55  1  0  0  0  0
 51 77  1  0  0  0  0
 52 75  1  0  0  0  0
 53 77  1  0  0  0  0
 54 70  1  0  0  0  0
 55 63  1  0  0  0  0
 56 69  1  0  0  0  0
 58 65  1  0  0  0  0
 59 66  1  0  0  0  0
 60 66  1  0  0  0  0
 61 66  1  0  0  0  0
 62 78  1  0  0  0  0
 63 85  1  0  0  0  0
 64 66  1  0  0  0  0
 64 76  1  0  0  0  0
 65 78  1  0  0  0  0
 67 69  1  0  0  0  0
M  CHG  2  77   1  78   1
M  ISO  4  37 100  63 101  74 100  85 101
M  END
> <Batch ID>
0175

> <Smiles>
CNC(C)C(=O)NC(C(=O)N1Cc2cc([101O:1][101CH2:1]C3CCN(C4CCc5c4cc([100NH:0][100C:0](=O)N4CCCC(n6nc(-c7ccc(Oc8ccc(F)cc8F)cc7)c(C(N)=O)c6N)C4)nc5C)C3)ccc2CC1C(=O)NC1CCCc2ccccc21)C(C)(C)C

> <Shape>
0.324

> <Color>
0.173

> <Negative vol penalty>
0.000

$$$$

  -OEChem-04052322473D

 89 98  0     1  0  0  0  0  0999 V2000
  -28.4470  -38.3269   20.9615 C   0  0  0  0  0  0  0  0  0  0  0  0
  -28.8384  -37.0680   20.5172 C   0  0  0  0  0  0  0  0  0  0  0  0
  -26.6026  -12.5226   20.4040 C   0  0  0  0  0  0  0  0  0  0  0  0
  -25.0303  -14.3562   20.3487 C   0  0  0  0  0  0  0  0  0  0  0  0
  -27.7699  -38.4578   22.1732 C   0  0  0  0  0  0  0  0  0  0  0  0
  -28.5539  -35.9393   21.2851 C   0  0  0  0  0  0  0  0  0  0  0  0
  -27.1650  -30.3410   19.2270 C   0  0  0  0  0  0  0  0  0  0  0  0
  -25.5553  -11.6191   20.2241 C   0  0  0  0  0  0  0  0  0  0  0  0
  -23.9830  -13.4526   20.1686 C   0  0  0  0  0  0  0  0  0  0  0  0
  -27.9288  -29.1865   19.0607 C   0  0  0  0  0  0  0  0  0  0  0  0
  -23.1421  -10.1952   22.1144 C   0  0  0  0  0  0  0  0  0  0  0  0
  -23.1255   -9.0551   22.9177 C   0  0  0  0  0  0  0  0  0  0  0  0
  -27.1753  -28.3859   21.2079 C   0  0  0  0  0  0  0  0  0  0  0  0
  -29.0529  -22.6702   21.3690 C   0  0  0  0  0  0  0  0  0  0  0  0
  -23.2374   -7.6639   20.9455 C   0  0  0  0  0  0  0  0  0  0  0  0
  -26.3401  -13.8912   20.4664 C   0  0  0  0  0  0  0  0  0  0  0  0
  -28.1864  -15.4510   19.6505 C   0  0  0  0  0  0  0  0  0  0  0  0
  -27.4684  -37.3292   22.9517 C   0  0  0  0  0  0  0  0  0  0  0  0
  -26.4079  -30.5318   20.3918 C   0  0  0  0  0  0  0  0  0  0  0  0
  -27.8733  -36.0554   22.5090 C   0  0  0  0  0  0  0  0  0  0  0  0
  -26.4007  -29.5425   21.3854 C   0  0  0  0  0  0  0  0  0  0  0  0
  -29.0731  -22.4412   19.9977 C   0  0  0  0  0  0  0  0  0  0  0  0
  -30.0826  -22.1809   22.1651 C   0  0  0  0  0  0  0  0  0  0  0  0
  -24.2455  -12.0841   20.1063 C   0  0  0  0  0  0  0  0  0  0  0  0
  -27.9363  -28.2101   20.0525 C   0  0  0  0  0  0  0  0  0  0  0  0
  -23.2062  -10.0698   20.7266 C   0  0  0  0  0  0  0  0  0  0  0  0
  -23.1732   -7.7894   22.3333 C   0  0  0  0  0  0  0  0  0  0  0  0
  -23.2539   -8.8041   20.1422 C   0  0  0  0  0  0  0  0  0  0  0  0
  -27.4214  -14.8250   20.6529 C   0  0  0  0  0  0  0  0  0  0  0  0
  -30.1368  -21.7231   19.4757 C   0  0  0  0  0  0  0  0  0  0  0  0
  -31.1010  -21.4743   21.5461 C   0  0  0  0  0  0  0  0  0  0  0  0
  -29.0776  -16.2371   20.3393 C   0  0  0  0  0  0  0  0  0  0  0  0
  -28.0992  -15.3326   18.2243 C   0  0  0  0  0  0  0  0  0  0  0  0
  -26.4104  -32.6705   22.7434 C   0  0  0  0  0  0  0  0  0  0  0  0
  -23.7463  -31.0717   23.6755 C   0  0  0  0  0  0  0  0  0  0  0  0
  -21.9380  -28.1778   23.6258 C   0  0  0  0  0  0  0  0  0  0  0  0
  -29.3958  -19.5113   25.1029 C   0  0  0  0  0  0  0  0  0  0  0  0
  -26.7764  -37.5254   24.2773 C   0  0  0  0  0  0  0  0  0  0  0  0
  -25.5683  -31.7705   20.5441 C   0  0  0  0  0  0  0  0  0  0  0  0
  -25.5892  -29.6901   22.6456 C   0  0  0  0  0  0  0  0  0  0  0  0
  -26.1829  -36.2412   24.8506 C   0  0  0  0  0  0  0  0  0  0  0  0
  -30.8553  -16.2673   24.9524 C   0  0  0  0  0  0  0  0  0  0  0  0
  -27.1914  -35.1003   24.7604 C   0  0  0  0  0  0  0  0  0  0  0  0
  -29.4719  -20.2597   17.4533 C   0  0  0  0  0  0  0  0  0  0  0  0
  -30.9673  -20.2560   17.5171 C   0  0  0  0  0  0  0  0  0  0  0  0
  -30.1897  -15.6228   23.7352 C   0  0  0  0  0  0  0  0  0  0  0  0
  -29.8840  -17.1622   25.7190 C   0  0  0  0  0  0  0  0  0  0  0  0
  -28.5468  -17.5456   23.6846 C   0  0  0  0  0  0  0  0  0  0  0  0
  -27.5610  -34.8047   23.3018 C   0  0  1  0  0  0  0  0  0  0  0  0
  -30.2003  -21.4542   18.0070 C   0  0  0  0  0  0  0  0  0  0  0  0
  -25.2397  -32.0945   21.9982 C   0  0  1  0  0  0  0  0  0  0  0  0
  -29.5024  -16.6780   22.8478 C   0  0  2  0  0  0  0  0  0  0  0  0
  -32.2350  -20.9287   22.3508 C   0  0  0  0  0  0  0  0  0  0  0  0
  -30.1510  -23.9271   23.9735 C   0  0  0  0  0  0  0  0  0  0  0  0
  -26.5861  -22.4395   19.5422 C   0  0  0  0  0  0  0  0  0  0  0  0
  -19.8204  -27.1627   24.5107 C   0  0  0  0  0  0  0  0  0  0  0  0
  -25.0456  -30.7585   26.4184 C   0  0  0  0  0  0  0  0  0  0  0  0
  -23.3656  -28.9750   26.9334 C   0  0  0  0  0  0  0  0  0  0  0  0
  -22.6062  -31.3067   26.4760 C   0  0  0  0  0  0  0  0  0  0  0  0
  -20.8756  -27.7316   20.8998 C   0  0  0  0  0  0  0  0  0  0  0  0
  -28.8371  -21.8088   24.3489 C   0  0  0  0  0  0  0  0  0  0  0  0
  -29.0972  -25.1211   18.5655 C   0  0  0  0  0  0  0  0  0  0  0  0
  -28.8851  -26.6222   18.5578 C   0  0  0  0  0  0  0  0  0  1  0  0
  -30.0663  -22.4234   23.6347 C   0  0  1  0  0  0  0  0  0  0  0  0
  -27.9559  -22.9721   19.1294 C   0  0  1  0  0  0  0  0  0  0  0  0
  -23.4680  -29.8875   24.5695 C   0  0  1  0  0  0  0  0  0  0  0  0
  -20.4674  -27.9134   23.3572 C   0  0  2  0  0  0  0  0  0  0  0  0
  -23.6383  -30.2297   26.0765 C   0  0  0  0  0  0  0  0  0  0  0  0
  -27.7941  -15.1824   21.8847 N   0  0  0  0  0  0  0  0  0  0  0  0
  -31.1550  -21.2320   20.2172 N   0  0  0  0  0  0  0  0  0  0  0  0
  -28.8031  -16.0415   21.6609 N   0  0  0  0  0  0  0  0  0  0  0  0
  -24.7895  -30.9218   22.7508 N   0  0  0  0  0  0  0  0  0  0  0  0
  -29.2676  -18.1413   24.8205 N   0  0  0  0  0  0  0  0  0  0  0  0
  -30.0614  -17.0695   19.9374 N   0  0  0  0  0  0  0  0  0  0  0  0
  -27.1265  -14.4811   17.6828 N   0  0  0  0  0  0  0  0  0  0  0  0
  -26.5102  -34.0460   22.6579 N   0  0  0  0  0  0  0  0  0  0  0  0
  -22.1366  -29.4100   24.2119 N   0  0  0  0  0  0  0  0  0  0  0  0
  -28.7873  -20.3717   24.1973 N   0  0  0  0  0  0  0  0  0  0  0  0
  -20.3050  -27.1015   22.1181 N   0  3  0  0  0  0  0  0  0  0  0  0
  -27.8909  -24.4586   19.1225 N   0  3  0  0  0  0  0  0  0  0  0  0
  -28.8721  -15.9505   17.4534 O   0  0  0  0  0  0  0  0  0  0  0  0
  -27.1663  -31.9224   23.3523 O   0  0  0  0  0  0  0  0  0  0  0  0
  -23.0585  -32.0894   23.7884 O   0  0  0  0  0  0  0  0  0  0  0  0
  -22.8216  -27.3703   23.3472 O   0  0  0  0  0  0  0  0  0  0  0  0
  -30.0118  -19.9364   26.0862 O   0  0  0  0  0  0  0  0  0  0  0  0
  -23.2233  -11.2027   19.9305 O   0  0  0  0  0  0  0  0  0  0  0  0
  -28.6814  -27.0826   19.8930 O   0  0  0  0  0  0  0  0  0  1  0  0
  -23.1589   -6.6946   23.1049 F   0  0  0  0  0  0  0  0  0  0  0  0
  -23.3168   -8.6773   18.8096 F   0  0  0  0  0  0  0  0  0  0  0  0
  1  2  1  0  0  0  0
  1  5  2  0  0  0  0
  2  6  2  0  0  0  0
  3  8  2  0  0  0  0
  3 16  1  0  0  0  0
  4  9  1  0  0  0  0
  4 16  2  0  0  0  0
  5 18  1  0  0  0  0
  6 20  1  0  0  0  0
  7 10  2  0  0  0  0
  7 19  1  0  0  0  0
  8 24  1  0  0  0  0
  9 24  2  0  0  0  0
 10 25  1  0  0  0  0
 11 12  2  0  0  0  0
 11 26  1  0  0  0  0
 12 27  1  0  0  0  0
 13 21  1  0  0  0  0
 13 25  2  0  0  0  0
 14 22  1  0  0  0  0
 14 23  2  0  0  0  0
 15 27  2  0  0  0  0
 15 28  1  0  0  0  0
 16 29  1  0  0  0  0
 17 29  1  0  0  0  0
 17 32  2  0  0  0  0
 17 33  1  0  0  0  0
 18 20  2  0  0  0  0
 18 38  1  0  0  0  0
 19 21  2  0  0  0  0
 19 39  1  0  0  0  0
 20 49  1  0  0  0  0
 21 40  1  0  0  0  0
 22 30  2  0  0  0  0
 22 65  1  0  0  0  0
 23 31  1  0  0  0  0
 23 64  1  0  0  0  0
 24 86  1  0  0  0  0
 25 87  1  0  0  0  0
 26 28  2  0  0  0  0
 26 86  1  0  0  0  0
 27 88  1  0  0  0  0
 28 89  1  0  0  0  0
 29 69  2  0  0  0  0
 30 50  1  0  0  0  0
 30 70  1  0  0  0  0
 31 53  1  0  0  0  0
 31 70  2  0  0  0  0
 32 71  1  0  0  0  0
 32 74  1  0  0  0  0
 33 75  1  0  0  0  0
 33 81  2  0  0  0  0
 34 51  1  0  0  0  0
 34 76  1  0  0  0  0
 34 82  2  0  0  0  0
 35 66  1  0  0  0  0
 35 72  1  0  0  0  0
 35 83  2  0  0  0  0
 36 67  1  0  0  0  0
 36 77  1  0  0  0  0
 36 84  2  0  0  0  0
 37 73  1  0  0  0  0
 37 78  1  0  0  0  0
 37 85  2  0  0  0  0
 38 41  1  0  0  0  0
 39 51  1  0  0  0  0
 40 72  1  0  0  0  0
 41 43  1  0  0  0  0
 42 46  1  0  0  0  0
 42 47  1  0  0  0  0
 43 49  1  0  0  0  0
 44 45  1  0  0  0  0
 44 50  1  0  0  0  0
 45 50  1  0  0  0  0
 46 52  1  0  0  0  0
 47 73  1  0  0  0  0
 48 52  1  0  0  0  0
 48 73  1  0  0  0  0
 49 76  1  0  0  0  0
 51 72  1  0  0  0  0
 52 71  1  0  0  0  0
 54 64  1  0  0  0  0
 55 65  1  0  0  0  0
 56 67  1  0  0  0  0
 57 68  1  0  0  0  0
 58 68  1  0  0  0  0
 59 68  1  0  0  0  0
 60 79  1  0  0  0  0
 61 64  1  0  0  0  0
 61 78  1  0  0  0  0
 62 63  1  0  0  0  0
 62 80  1  0  0  0  0
 63 87  1  0  0  0  0
 65 80  1  0  0  0  0
 66 68  1  0  0  0  0
 66 77  1  0  0  0  0
 67 79  1  0  0  0  0
 69 71  1  0  0  0  0
M  CHG  2  79   1  80   1
M  ISO  4  37 100  63 101  78 100  87 101
M  END
> <Batch ID>
0175

> <Smiles>
CNC(C)C(=O)NC(C(=O)N1Cc2cc([101O:1][101CH2:1]CNC(C)c3cc(C(C)C[100NH:0][100C:0](=O)N4CCCC(n5nc(-c6ccc(Oc7ccc(F)cc7F)cc6)c(C(N)=O)c5N)C4)c(C)nc3C3CC3)ccc2CC1C(=O)NC1CCCc2ccccc21)C(C)(C)C

> <Shape>
0.278

> <Color>
0.079

> <Negative vol penalty>
0.000

$$$$

  -OEChem-04052322473D

 85 95  0     1  0  0  0  0  0999 V2000
  -28.2243  -19.5976   26.3194 C   0  0  0  0  0  0  0  0  0  0  0  0
  -28.1190  -20.5106   25.2751 C   0  0  0  0  0  0  0  0  0  0  0  0
  -26.3643  -13.0868   21.2962 C   0  0  0  0  0  0  0  0  0  0  0  0
  -26.2440  -13.4297   18.9077 C   0  0  0  0  0  0  0  0  0  0  0  0
  -27.1448  -18.7736   26.6350 C   0  0  0  0  0  0  0  0  0  0  0  0
  -26.9343  -20.5995   24.5450 C   0  0  0  0  0  0  0  0  0  0  0  0
  -25.4968  -25.3897   23.7499 C   0  0  0  0  0  0  0  0  0  0  0  0
  -25.1467  -12.4074   21.2600 C   0  0  0  0  0  0  0  0  0  0  0  0
  -25.0263  -12.7502   18.8715 C   0  0  0  0  0  0  0  0  0  0  0  0
  -26.1596  -26.0952   22.7465 C   0  0  0  0  0  0  0  0  0  0  0  0
  -24.0379   -9.3254   20.4203 C   0  0  0  0  0  0  0  0  0  0  0  0
  -23.9399   -8.1321   21.1357 C   0  0  0  0  0  0  0  0  0  0  0  0
  -24.3159  -25.6825   21.2467 C   0  0  0  0  0  0  0  0  0  0  0  0
  -29.3075  -26.7627   19.6022 C   0  0  0  0  0  0  0  0  0  0  0  0
  -28.6806  -24.8330   18.3108 C   0  0  0  0  0  0  0  0  0  0  0  0
  -22.1495   -9.0718   22.4580 C   0  0  0  0  0  0  0  0  0  0  0  0
  -26.9129  -13.5980   20.1201 C   0  0  0  0  0  0  0  0  0  0  0  0
  -29.4573  -13.7481   20.0126 C   0  0  0  0  0  0  0  0  0  0  0  0
  -25.9430  -18.8591   25.9146 C   0  0  0  0  0  0  0  0  0  0  0  0
  -24.2413  -24.8150   23.5054 C   0  0  0  0  0  0  0  0  0  0  0  0
  -25.8381  -19.7749   24.8504 C   0  0  0  0  0  0  0  0  0  0  0  0
  -23.6381  -24.9724   22.2495 C   0  0  0  0  0  0  0  0  0  0  0  0
  -28.4093  -26.1220   18.7560 C   0  0  0  0  0  0  0  0  0  0  0  0
  -24.4777  -12.2390   20.0477 C   0  0  0  0  0  0  0  0  0  0  0  0
  -25.5705  -26.2392   21.4938 C   0  0  0  0  0  0  0  0  0  0  0  0
  -23.1917  -10.3920   20.7237 C   0  0  0  0  0  0  0  0  0  0  0  0
  -22.9957   -8.0052   22.1545 C   0  0  0  0  0  0  0  0  0  0  0  0
  -22.2475  -10.2652   21.7425 C   0  0  0  0  0  0  0  0  0  0  0  0
  -28.1704  -14.3005   20.1569 C   0  0  0  0  0  0  0  0  0  0  0  0
  -30.4534  -26.0766   19.9711 C   0  0  0  0  0  0  0  0  0  0  0  0
  -29.8547  -24.2334   18.7373 C   0  0  0  0  0  0  0  0  0  0  0  0
  -30.3063  -14.8221   20.1231 C   0  0  0  0  0  0  0  0  0  0  0  0
  -29.8500  -12.3861   19.7977 C   0  0  0  0  0  0  0  0  0  0  0  0
  -23.0913  -21.8517   23.5107 C   0  0  0  0  0  0  0  0  0  0  0  0
  -20.2602  -23.3661   23.0482 C   0  0  0  0  0  0  0  0  0  0  0  0
  -18.6035  -26.1364   21.9404 C   0  0  0  0  0  0  0  0  0  0  0  0
  -29.5390  -20.5720   19.0251 C   0  0  0  0  0  0  0  0  0  0  0  0
  -24.8196  -17.9146   26.2620 C   0  0  0  0  0  0  0  0  0  0  0  0
  -23.5275  -24.0799   24.6066 C   0  0  0  0  0  0  0  0  0  0  0  0
  -22.2826  -24.3920   21.9424 C   0  0  0  0  0  0  0  0  0  0  0  0
  -23.4710  -18.3325   25.6816 C   0  0  0  0  0  0  0  0  0  0  0  0
  -30.6372  -19.1397   22.1619 C   0  0  0  0  0  0  0  0  0  0  0  0
  -23.6186  -18.7196   24.2135 C   0  0  0  0  0  0  0  0  0  0  0  0
  -31.8272  -26.0575   22.1588 C   0  0  0  0  0  0  0  0  0  0  0  0
  -30.9556  -27.2734   22.2058 C   0  0  0  0  0  0  0  0  0  0  0  0
  -30.2451  -17.6723   21.9801 C   0  0  0  0  0  0  0  0  0  0  0  0
  -26.9483  -27.0412   16.8422 C   0  0  0  0  0  0  0  0  0  0  0  0
  -27.2888  -28.2010   17.7247 C   0  0  0  0  0  0  0  0  0  0  0  0
  -29.5987  -20.0703   21.5425 C   0  0  0  0  0  0  0  0  0  0  0  0
  -28.9260  -18.3429   19.9185 C   0  0  0  0  0  0  0  0  0  0  0  0
  -24.5611  -19.9182   24.0511 C   0  0  1  0  0  0  0  0  0  0  0  0
  -31.4314  -26.7445   20.8785 C   0  0  0  0  0  0  0  0  0  0  0  0
  -22.4816  -23.0974   24.0888 C   0  0  1  0  0  0  0  0  0  0  0  0
  -29.9473  -17.3506   20.5036 C   0  0  2  0  0  0  0  0  0  0  0  0
  -27.1610  -26.8138   18.3280 C   0  0  0  0  0  0  0  0  0  0  0  0
  -16.2899  -27.0658   21.6562 C   0  0  0  0  0  0  0  0  0  0  0  0
  -19.8411  -21.5725   20.6156 C   0  0  0  0  0  0  0  0  0  0  0  0
  -18.0501  -23.1461   19.8511 C   0  0  0  0  0  0  0  0  0  0  0  0
  -17.7982  -21.9284   22.0136 C   0  0  0  0  0  0  0  0  0  0  0  0
  -19.1676  -28.4069   23.7530 C   0  0  0  0  0  0  0  0  0  0  0  0
  -30.1784  -22.8505   18.2792 C   0  0  0  0  0  0  0  0  0  0  0  0
  -25.9626  -26.5277   19.1660 C   0  0  0  0  0  0  0  0  0  1  0  0
  -19.4726  -23.8149   21.8411 C   0  0  1  0  0  0  0  0  0  0  0  0
  -17.5020  -26.9702   22.5697 C   0  0  2  0  0  0  0  0  0  0  0  0
  -18.8169  -22.6249   21.0852 C   0  0  0  0  0  0  0  0  0  0  0  0
  -28.1949  -15.6226   20.3450 N   0  0  0  0  0  0  0  0  0  0  0  0
  -30.7512  -24.8240   19.5589 N   0  0  0  0  0  0  0  0  0  0  0  0
  -29.5075  -15.9100   20.3197 N   0  0  0  0  0  0  0  0  0  0  0  0
  -21.6275  -23.6765   23.0499 N   0  0  0  0  0  0  0  0  0  0  0  0
  -29.3753  -19.7227   20.1320 N   0  0  0  0  0  0  0  0  0  0  0  0
  -31.6507  -14.9326   20.0705 N   0  0  0  0  0  0  0  0  0  0  0  0
  -28.8498  -11.4084   19.7085 N   0  0  0  0  0  0  0  0  0  0  0  0
  -23.8807  -21.1471   24.3994 N   0  0  0  0  0  0  0  0  0  0  0  0
  -18.5235  -24.8136   22.3212 N   0  0  0  0  0  0  0  0  0  0  0  0
  -29.9602  -21.8642   19.3139 N   0  0  0  0  0  0  0  0  0  0  0  0
  -17.9913  -28.3502   22.8474 N   0  3  0  0  0  0  0  0  0  0  0  0
  -31.0532  -12.0437   19.7044 O   0  0  0  0  0  0  0  0  0  0  0  0
  -22.8613  -21.5513   22.3452 O   0  0  0  0  0  0  0  0  0  0  0  0
  -19.6821  -22.7685   23.9594 O   0  0  0  0  0  0  0  0  0  0  0  0
  -19.4479  -26.6104   21.1836 O   0  0  0  0  0  0  0  0  0  0  0  0
  -29.3303  -20.2042   17.8639 O   0  0  0  0  0  0  0  0  0  0  0  0
  -23.2896  -11.5759   20.0120 O   0  0  0  0  0  0  0  0  0  0  0  0
  -26.2155  -26.9267   20.5125 O   0  0  0  0  0  0  0  0  0  1  0  0
  -22.9007   -6.8586   22.8405 F   0  0  0  0  0  0  0  0  0  0  0  0
  -21.4310  -11.2860   22.0378 F   0  0  0  0  0  0  0  0  0  0  0  0
  1  2  1  0  0  0  0
  1  5  2  0  0  0  0
  2  6  2  0  0  0  0
  3  8  2  0  0  0  0
  3 17  1  0  0  0  0
  4  9  1  0  0  0  0
  4 17  2  0  0  0  0
  5 19  1  0  0  0  0
  6 21  1  0  0  0  0
  7 10  2  0  0  0  0
  7 20  1  0  0  0  0
  8 24  1  0  0  0  0
  9 24  2  0  0  0  0
 10 25  1  0  0  0  0
 11 12  2  0  0  0  0
 11 26  1  0  0  0  0
 12 27  1  0  0  0  0
 13 22  1  0  0  0  0
 13 25  2  0  0  0  0
 14 23  2  0  0  0  0
 14 30  1  0  0  0  0
 15 23  1  0  0  0  0
 15 31  2  0  0  0  0
 16 27  2  0  0  0  0
 16 28  1  0  0  0  0
 17 29  1  0  0  0  0
 18 29  1  0  0  0  0
 18 32  2  0  0  0  0
 18 33  1  0  0  0  0
 19 21  2  0  0  0  0
 19 38  1  0  0  0  0
 20 22  2  0  0  0  0
 20 39  1  0  0  0  0
 21 51  1  0  0  0  0
 22 40  1  0  0  0  0
 23 55  1  0  0  0  0
 24 82  1  0  0  0  0
 25 83  1  0  0  0  0
 26 28  2  0  0  0  0
 26 82  1  0  0  0  0
 27 84  1  0  0  0  0
 28 85  1  0  0  0  0
 29 66  2  0  0  0  0
 30 52  1  0  0  0  0
 30 67  2  0  0  0  0
 31 61  1  0  0  0  0
 31 67  1  0  0  0  0
 32 68  1  0  0  0  0
 32 71  1  0  0  0  0
 33 72  1  0  0  0  0
 33 77  2  0  0  0  0
 34 53  1  0  0  0  0
 34 73  1  0  0  0  0
 34 78  2  0  0  0  0
 35 63  1  0  0  0  0
 35 69  1  0  0  0  0
 35 79  2  0  0  0  0
 36 64  1  0  0  0  0
 36 74  1  0  0  0  0
 36 80  2  0  0  0  0
 37 70  1  0  0  0  0
 37 75  1  0  0  0  0
 37 81  2  0  0  0  0
 38 41  1  0  0  0  0
 39 53  1  0  0  0  0
 40 69  1  0  0  0  0
 41 43  1  0  0  0  0
 42 46  1  0  0  0  0
 42 49  1  0  0  0  0
 43 51  1  0  0  0  0
 44 45  1  0  0  0  0
 44 52  1  0  0  0  0
 45 52  1  0  0  0  0
 46 54  1  0  0  0  0
 47 48  1  0  0  0  0
 47 55  1  0  0  0  0
 48 55  1  0  0  0  0
 49 70  1  0  0  0  0
 50 54  1  0  0  0  0
 50 70  1  0  0  0  0
 51 73  1  0  0  0  0
 53 69  1  0  0  0  0
 54 68  1  0  0  0  0
 55 62  1  0  0  0  0
 56 64  1  0  0  0  0
 57 65  1  0  0  0  0
 58 65  1  0  0  0  0
 59 65  1  0  0  0  0
 60 76  1  0  0  0  0
 61 75  1  0  0  0  0
 62 83  1  0  0  0  0
 63 65  1  0  0  0  0
 63 74  1  0  0  0  0
 64 76  1  0  0  0  0
 66 68  1  0  0  0  0
M  CHG  1  76   1
M  ISO  4  37 100  62 101  75 100  83 101
M  END
> <Batch ID>
0175

> <Smiles>
CNC(C)C(=O)NC(C(=O)N1Cc2cc([101O:1][101CH2:1]C3(c4cc(C[100NH:0][100C:0](=O)N5CCCC(n6nc(-c7ccc(Oc8ccc(F)cc8F)cc7)c(C(N)=O)c6N)C5)nc(C5CC5)c4)CC3)ccc2CC1C(=O)NC1CCCc2ccccc21)C(C)(C)C

> <Shape>
0.241

> <Color>
0.062

> <Negative vol penalty>
0.000

$$$$

  -OEChem-04052322473D

 87 97  0     1  0  0  0  0  0999 V2000
  -17.6829  -25.2757   25.3208 C   0  0  0  0  0  0  0  0  0  0  0  0
  -18.6174  -24.3141   24.9499 C   0  0  0  0  0  0  0  0  0  0  0  0
  -29.5318  -20.6193   20.9536 C   0  0  0  0  0  0  0  0  0  0  0  0
  -30.2341  -19.7686   18.8042 C   0  0  0  0  0  0  0  0  0  0  0  0
  -17.6652  -26.5131   24.6786 C   0  0  0  0  0  0  0  0  0  0  0  0
  -19.5340  -24.5890   23.9357 C   0  0  0  0  0  0  0  0  0  0  0  0
  -24.2372  -23.1329   25.1208 C   0  0  0  0  0  0  0  0  0  0  0  0
  -29.3485  -21.8835   20.3935 C   0  0  0  0  0  0  0  0  0  0  0  0
  -30.0508  -21.0329   18.2440 C   0  0  0  0  0  0  0  0  0  0  0  0
  -24.5307  -21.7746   25.0080 C   0  0  0  0  0  0  0  0  0  0  0  0
  -31.7179  -23.9720   18.1281 C   0  0  0  0  0  0  0  0  0  0  0  0
  -32.7152  -24.4566   17.2819 C   0  0  0  0  0  0  0  0  0  0  0  0
  -21.4544  -15.1886   23.6174 C   0  0  0  0  0  0  0  0  0  0  0  0
  -25.5910  -22.1866   22.8807 C   0  0  0  0  0  0  0  0  0  0  0  0
  -31.1132  -24.6059   15.4795 C   0  0  0  0  0  0  0  0  0  0  0  0
  -29.9746  -19.5619   20.1590 C   0  0  0  0  0  0  0  0  0  0  0  0
  -31.0348  -17.9100   21.7884 C   0  0  0  0  0  0  0  0  0  0  0  0
  -18.5883  -26.8068   23.6626 C   0  0  0  0  0  0  0  0  0  0  0  0
  -24.6094  -24.0281   24.1076 C   0  0  0  0  0  0  0  0  0  0  0  0
  -19.5278  -25.8310   23.2784 C   0  0  0  0  0  0  0  0  0  0  0  0
  -22.2521  -14.1070   23.2607 C   0  0  0  0  0  0  0  0  0  0  0  0
  -21.9613  -16.4799   23.5239 C   0  0  0  0  0  0  0  0  0  0  0  0
  -25.3033  -23.5561   22.9843 C   0  0  0  0  0  0  0  0  0  0  0  0
  -29.6080  -22.0903   19.0386 C   0  0  0  0  0  0  0  0  0  0  0  0
  -25.2051  -21.3008   23.8865 C   0  0  0  0  0  0  0  0  0  0  0  0
  -30.4182  -23.8042   17.6500 C   0  0  0  0  0  0  0  0  0  0  0  0
  -32.4128  -24.7736   15.9576 C   0  0  0  0  0  0  0  0  0  0  0  0
  -30.1159  -24.1212   16.3258 C   0  0  0  0  0  0  0  0  0  0  0  0
  -30.1646  -18.2558   20.7372 C   0  0  0  0  0  0  0  0  0  0  0  0
  -23.5395  -14.3681   22.8200 C   0  0  0  0  0  0  0  0  0  0  0  0
  -23.2618  -16.6348   23.0717 C   0  0  0  0  0  0  0  0  0  0  0  0
  -30.8442  -16.5609   21.9621 C   0  0  0  0  0  0  0  0  0  0  0  0
  -31.9348  -18.7344   22.5406 C   0  0  0  0  0  0  0  0  0  0  0  0
  -23.0374  -25.9569   22.1297 C   0  0  0  0  0  0  0  0  0  0  0  0
  -26.0263  -26.9232   21.3204 C   0  0  0  0  0  0  0  0  0  0  0  0
  -29.3595  -26.2076   21.1637 C   0  0  0  0  0  0  0  0  0  0  0  0
  -26.2573  -12.9035   20.7644 C   0  0  0  0  0  0  0  0  0  0  0  0
  -18.4999  -28.1410   22.9649 C   0  0  0  0  0  0  0  0  0  0  0  0
  -24.3091  -25.4943   24.2569 C   0  0  0  0  0  0  0  0  0  0  0  0
  -25.7428  -24.4790   21.8781 C   0  0  0  0  0  0  0  0  0  0  0  0
  -19.7473  -28.4899   22.1572 C   0  0  0  0  0  0  0  0  0  0  0  0
  -29.5956  -12.6159   19.5603 C   0  0  0  0  0  0  0  0  0  0  0  0
  -21.1647  -12.2391   24.6758 C   0  0  0  0  0  0  0  0  0  0  0  0
  -22.4677  -11.6994   24.1746 C   0  0  0  0  0  0  0  0  0  0  0  0
  -21.6289  -18.6151   24.9397 C   0  0  0  0  0  0  0  0  0  0  0  0
  -20.5015  -17.6909   25.2792 C   0  0  0  0  0  0  0  0  0  0  0  0
  -20.1880  -27.2976   21.3140 C   0  0  0  0  0  0  0  0  0  0  0  0
  -30.1985  -13.9975   19.8202 C   0  0  0  0  0  0  0  0  0  0  0  0
  -28.1272  -12.7087   19.1513 C   0  0  0  0  0  0  0  0  0  0  0  0
  -27.8754  -14.8525   20.3407 C   0  0  0  0  0  0  0  0  0  0  0  0
  -21.7169  -12.7199   23.3588 C   0  0  0  0  0  0  0  0  0  0  0  0
  -21.1174  -17.6468   23.9043 C   0  0  0  0  0  0  0  0  0  0  0  0
  -20.5544  -26.1007   22.1998 C   0  0  1  0  0  0  0  0  0  0  0  0
  -24.2813  -26.2372   22.9247 C   0  0  1  0  0  0  0  0  0  0  0  0
  -29.3395  -14.8069   20.8103 C   0  0  2  0  0  0  0  0  0  0  0  0
  -31.5500  -27.1790   20.4183 C   0  0  0  0  0  0  0  0  0  0  0  0
  -25.2917  -26.3447   18.4160 C   0  0  0  0  0  0  0  0  0  0  0  0
  -27.7317  -26.4101   17.8588 C   0  0  0  0  0  0  0  0  0  0  0  0
  -26.6053  -28.4446   18.7615 C   0  0  0  0  0  0  0  0  0  0  0  0
  -30.4706  -26.1044   23.9049 C   0  0  0  0  0  0  0  0  0  0  0  0
  -24.4415  -13.2460   22.4211 C   0  0  0  0  0  0  0  0  0  0  0  0
  -25.5557  -19.4347   22.4545 C   0  0  0  0  0  0  0  0  0  1  0  0
  -25.1385  -17.9774   22.4961 C   0  0  0  0  0  0  0  0  0  0  0  0
  -27.0509  -26.4887   20.3004 C   0  0  1  0  0  0  0  0  0  0  0  0
  -30.5819  -27.0065   21.5784 C   0  0  2  0  0  0  0  0  0  0  0  0
  -26.6601  -26.9041   18.8539 C   0  0  0  0  0  0  0  0  0  0  0  0
  -29.4728  -17.2108   20.2754 N   0  0  0  0  0  0  0  0  0  0  0  0
  -24.0668  -15.6086   22.7159 N   0  0  0  0  0  0  0  0  0  0  0  0
  -29.9082  -16.1949   21.0400 N   0  0  0  0  0  0  0  0  0  0  0  0
  -25.4203  -25.9030   22.0673 N   0  0  0  0  0  0  0  0  0  0  0  0
  -27.3677  -13.4873   20.1327 N   0  0  0  0  0  0  0  0  0  0  0  0
  -31.3877  -15.6638   22.8119 N   0  0  0  0  0  0  0  0  0  0  0  0
  -33.2480  -18.8875   22.0753 N   0  0  0  0  0  0  0  0  0  0  0  0
  -21.8656  -26.2866   22.7835 N   0  0  0  0  0  0  0  0  0  0  0  0
  -28.3297  -27.0266   20.7516 N   0  0  0  0  0  0  0  0  0  0  0  0
  -25.5975  -13.7078   21.6855 N   0  0  0  0  0  0  0  0  0  0  0  0
  -31.2979  -26.3185   22.6897 N   0  3  0  0  0  0  0  0  0  0  0  0
  -31.5896  -19.3050   23.6031 O   0  0  0  0  0  0  0  0  0  0  0  0
  -23.1338  -25.4783   21.0057 O   0  0  0  0  0  0  0  0  0  0  0  0
  -25.7783  -28.1240   21.4548 O   0  0  0  0  0  0  0  0  0  0  0  0
  -29.3233  -24.9796   21.1982 O   0  0  0  0  0  0  0  0  0  0  0  0
  -25.8849  -11.7489   20.5292 O   0  0  0  0  0  0  0  0  0  0  0  0
  -29.4291  -23.3237   18.4916 O   0  0  0  0  0  0  0  0  0  0  0  0
  -25.4922  -19.9754   23.7736 O   0  0  0  0  0  0  0  0  0  1  0  0
  -23.7990  -17.8908   22.9669 O   0  0  0  0  0  0  0  0  0  0  0  0
  -33.3703  -25.2405   15.1455 F   0  0  0  0  0  0  0  0  0  0  0  0
  -28.8689  -23.9633   15.8611 F   0  0  0  0  0  0  0  0  0  0  0  0
  1  2  1  0  0  0  0
  1  5  2  0  0  0  0
  2  6  2  0  0  0  0
  3  8  2  0  0  0  0
  3 16  1  0  0  0  0
  4  9  1  0  0  0  0
  4 16  2  0  0  0  0
  5 18  1  0  0  0  0
  6 20  1  0  0  0  0
  7 10  2  0  0  0  0
  7 19  1  0  0  0  0
  8 24  1  0  0  0  0
  9 24  2  0  0  0  0
 10 25  1  0  0  0  0
 11 12  2  0  0  0  0
 11 26  1  0  0  0  0
 12 27  1  0  0  0  0
 13 21  2  0  0  0  0
 13 22  1  0  0  0  0
 14 23  1  0  0  0  0
 14 25  2  0  0  0  0
 15 27  2  0  0  0  0
 15 28  1  0  0  0  0
 16 29  1  0  0  0  0
 17 29  1  0  0  0  0
 17 32  2  0  0  0  0
 17 33  1  0  0  0  0
 18 20  2  0  0  0  0
 18 38  1  0  0  0  0
 19 23  2  0  0  0  0
 19 39  1  0  0  0  0
 20 53  1  0  0  0  0
 21 30  1  0  0  0  0
 21 51  1  0  0  0  0
 22 31  2  0  0  0  0
 22 52  1  0  0  0  0
 23 40  1  0  0  0  0
 24 83  1  0  0  0  0
 25 84  1  0  0  0  0
 26 28  2  0  0  0  0
 26 83  1  0  0  0  0
 27 86  1  0  0  0  0
 28 87  1  0  0  0  0
 29 67  2  0  0  0  0
 30 61  1  0  0  0  0
 30 68  2  0  0  0  0
 31 68  1  0  0  0  0
 31 85  1  0  0  0  0
 32 69  1  0  0  0  0
 32 72  1  0  0  0  0
 33 73  1  0  0  0  0
 33 78  2  0  0  0  0
 34 54  1  0  0  0  0
 34 74  1  0  0  0  0
 34 79  2  0  0  0  0
 35 64  1  0  0  0  0
 35 70  1  0  0  0  0
 35 80  2  0  0  0  0
 36 65  1  0  0  0  0
 36 75  1  0  0  0  0
 36 81  2  0  0  0  0
 37 71  1  0  0  0  0
 37 76  1  0  0  0  0
 37 82  2  0  0  0  0
 38 41  1  0  0  0  0
 39 54  1  0  0  0  0
 40 70  1  0  0  0  0
 41 47  1  0  0  0  0
 42 48  1  0  0  0  0
 42 49  1  0  0  0  0
 43 44  1  0  0  0  0
 43 51  1  0  0  0  0
 44 51  1  0  0  0  0
 45 46  1  0  0  0  0
 45 52  1  0  0  0  0
 46 52  1  0  0  0  0
 47 53  1  0  0  0  0
 48 55  1  0  0  0  0
 49 71  1  0  0  0  0
 50 55  1  0  0  0  0
 50 71  1  0  0  0  0
 53 74  1  0  0  0  0
 54 70  1  0  0  0  0
 55 69  1  0  0  0  0
 56 65  1  0  0  0  0
 57 66  1  0  0  0  0
 58 66  1  0  0  0  0
 59 66  1  0  0  0  0
 60 77  1  0  0  0  0
 61 76  1  0  0  0  0
 62 63  1  0  0  0  0
 62 84  1  0  0  0  0
 63 85  1  0  0  0  0
 64 66  1  0  0  0  0
 64 75  1  0  0  0  0
 65 77  1  0  0  0  0
 67 69  1  0  0  0  0
M  CHG  1  77   1
M  ISO  4  37 100  62 101  76 100  84 101
M  END
> <Batch ID>
0175

> <Smiles>
CNC(C)C(=O)NC(C(=O)N1Cc2cc([101O:1][101CH2:1]COc3nc(C[100NH:0][100C:0](=O)N4CCCC(n5nc(-c6ccc(Oc7ccc(F)cc7F)cc6)c(C(N)=O)c5N)C4)c(C4CC4)cc3C3CC3)ccc2CC1C(=O)NC1CCCc2ccccc21)C(C)(C)C

> <Shape>
0.215

> <Color>
0.058

> <Negative vol penalty>
0.000

$$$$

  -OEChem-04052322473D

 87 97  0     1  0  0  0  0  0999 V2000
  -17.4400  -11.7021   24.8739 C   0  0  0  0  0  0  0  0  0  0  0  0
  -18.7646  -12.0463   25.1236 C   0  0  0  0  0  0  0  0  0  0  0  0
  -23.2861   -9.8003   19.9139 C   0  0  0  0  0  0  0  0  0  0  0  0
  -23.7339   -9.9425   22.2837 C   0  0  0  0  0  0  0  0  0  0  0  0
  -16.4271  -12.6378   25.0802 C   0  0  0  0  0  0  0  0  0  0  0  0
  -19.0772  -13.3268   25.5786 C   0  0  0  0  0  0  0  0  0  0  0  0
  -22.4165  -13.2744   29.3854 C   0  0  0  0  0  0  0  0  0  0  0  0
  -22.5585   -8.6286   20.1216 C   0  0  0  0  0  0  0  0  0  0  0  0
  -23.0063   -8.7707   22.4915 C   0  0  0  0  0  0  0  0  0  0  0  0
  -23.7558  -13.0727   29.0548 C   0  0  0  0  0  0  0  0  0  0  0  0
  -20.8852   -5.4030   19.9837 C   0  0  0  0  0  0  0  0  0  0  0  0
  -21.1103   -4.3354   19.1148 C   0  0  0  0  0  0  0  0  0  0  0  0
  -24.1505  -15.4459   29.2314 C   0  0  0  0  0  0  0  0  0  0  0  0
  -30.0576  -12.4173   28.1092 C   0  0  0  0  0  0  0  0  0  0  0  0
  -23.4324   -4.2837   19.7798 C   0  0  0  0  0  0  0  0  0  0  0  0
  -23.8739  -10.4573   20.9949 C   0  0  0  0  0  0  0  0  0  0  0  0
  -24.1356  -12.9869   20.7947 C   0  0  0  0  0  0  0  0  0  0  0  0
  -16.7265  -13.9273   25.5472 C   0  0  0  0  0  0  0  0  0  0  0  0
  -21.9309  -14.5667   29.6312 C   0  0  0  0  0  0  0  0  0  0  0  0
  -18.0675  -14.2810   25.7900 C   0  0  0  0  0  0  0  0  0  0  0  0
  -22.8052  -15.6610   29.5674 C   0  0  0  0  0  0  0  0  0  0  0  0
  -28.8822  -12.2235   28.8760 C   0  0  0  0  0  0  0  0  0  0  0  0
  -22.4186   -8.1138   21.4104 C   0  0  0  0  0  0  0  0  0  0  0  0
  -24.6224  -14.1588   28.9749 C   0  0  0  0  0  0  0  0  0  0  0  0
  -21.9337   -5.9111   20.7507 C   0  0  0  0  0  0  0  0  0  0  0  0
  -22.3838   -3.7757   19.0129 C   0  0  0  0  0  0  0  0  0  0  0  0
  -23.2073   -5.3514   20.6488 C   0  0  0  0  0  0  0  0  0  0  0  0
  -24.6261  -11.6674   20.7809 C   0  0  0  0  0  0  0  0  0  0  0  0
  -27.8145  -12.6134   28.0980 C   0  0  0  0  0  0  0  0  0  0  0  0
  -29.6724  -12.9198   26.8859 C   0  0  0  0  0  0  0  0  0  0  0  0
  -25.2381  -13.7657   20.5405 C   0  0  0  0  0  0  0  0  0  0  0  0
  -22.8027  -13.4658   21.0174 C   0  0  0  0  0  0  0  0  0  0  0  0
  -19.7446  -16.4363   28.2789 C   0  0  0  0  0  0  0  0  0  0  0  0
  -20.4011  -18.3679   30.8009 C   0  0  0  0  0  0  0  0  0  0  0  0
  -22.6114  -19.3259   33.2183 C   0  0  0  0  0  0  0  0  0  0  0  0
  -31.1073  -12.9185   21.3684 C   0  0  0  0  0  0  0  0  0  0  0  0
  -15.6024  -14.9196   25.7100 C   0  0  0  0  0  0  0  0  0  0  0  0
  -20.4895  -14.7645   30.0128 C   0  0  0  0  0  0  0  0  0  0  0  0
  -22.3381  -17.0663   29.8421 C   0  0  0  0  0  0  0  0  0  0  0  0
  -15.9808  -16.1360   26.5512 C   0  0  0  0  0  0  0  0  0  0  0  0
  -29.4630  -13.6568   18.2979 C   0  0  0  0  0  0  0  0  0  0  0  0
  -28.1284  -12.5090   31.3705 C   0  0  0  0  0  0  0  0  0  0  0  0
  -29.6192  -12.3770   31.3875 C   0  0  0  0  0  0  0  0  0  0  0  0
  -17.3323  -16.6897   26.1113 C   0  0  0  0  0  0  0  0  0  0  0  0
  -27.9926  -13.3497   18.5874 C   0  0  0  0  0  0  0  0  0  0  0  0
  -30.3945  -12.6772   19.0083 C   0  0  0  0  0  0  0  0  0  0  0  0
  -28.7053  -12.2506   20.7513 C   0  0  0  0  0  0  0  0  0  0  0  0
  -31.2826  -12.3604   25.0446 C   0  0  0  0  0  0  0  0  0  0  0  0
  -30.4301  -14.6272   25.2104 C   0  0  0  0  0  0  0  0  0  0  0  0
  -28.8190  -11.6850   30.2975 C   0  0  0  0  0  0  0  0  0  0  0  0
  -18.4442  -15.6521   26.3080 C   0  0  1  0  0  0  0  0  0  0  0  0
  -19.9877  -16.1790   29.7392 C   0  0  1  0  0  0  0  0  0  0  0  0
  -27.7290  -13.2461   20.1016 C   0  0  2  0  0  0  0  0  0  0  0  0
  -31.6662  -13.1336   23.7768 C   0  0  2  0  0  0  0  0  0  0  0  0
  -31.5833  -14.5964   24.2059 C   0  0  2  0  0  0  0  0  0  0  0  0
  -22.8806  -20.9560   35.1072 C   0  0  0  0  0  0  0  0  0  0  0  0
  -20.9128  -20.6071   28.7923 C   0  0  0  0  0  0  0  0  0  0  0  0
  -22.0689  -21.8804   30.6118 C   0  0  0  0  0  0  0  0  0  0  0  0
  -19.6516  -21.3065   30.8355 C   0  0  0  0  0  0  0  0  0  0  0  0
  -27.5002  -13.5268   25.7919 C   0  0  0  0  0  0  0  0  0  0  0  0
  -22.8923  -17.1526   35.2074 C   0  0  0  0  0  0  0  0  0  0  0  0
  -26.3463  -12.6220   28.4073 C   0  0  0  0  0  0  0  0  0  1  0  0
  -21.3855  -19.4811   31.0671 C   0  0  1  0  0  0  0  0  0  0  0  0
  -22.4366  -19.5572   34.7084 C   0  0  2  0  0  0  0  0  0  0  0  0
  -21.0134  -20.7926   30.3196 C   0  0  0  0  0  0  0  0  0  0  0  0
  -25.9380  -11.6075   20.5371 N   0  0  0  0  0  0  0  0  0  0  0  0
  -28.3068  -13.0351   26.8905 N   0  0  0  0  0  0  0  0  0  0  0  0
  -26.2812  -12.8991   20.3953 N   0  0  0  0  0  0  0  0  0  0  0  0
  -30.4164  -13.2806   25.7819 N   0  0  3  0  0  0  0  0  0  0  0  0
  -20.9184  -17.2090   30.2051 N   0  0  0  0  0  0  0  0  0  0  0  0
  -30.0933  -12.6272   20.4410 N   0  0  0  0  0  0  0  0  0  0  0  0
  -25.4073  -15.1004   20.4292 N   0  0  0  0  0  0  0  0  0  0  0  0
  -21.7890  -12.5299   21.2643 N   0  0  0  0  0  0  0  0  0  0  0  0
  -18.8269  -15.5795   27.7018 N   0  0  0  0  0  0  0  0  0  0  0  0
  -21.4612  -19.6209   32.5174 N   0  0  0  0  0  0  0  0  0  0  0  0
  -30.7358  -12.8543   22.7058 N   0  0  0  0  0  0  0  0  0  0  0  0
  -32.8430  -14.9743   24.9095 N   0  3  0  0  0  0  0  0  0  0  0  0
  -23.2404  -18.5702   35.4835 N   0  3  0  0  0  0  0  0  0  0  0  0
  -22.5159  -14.6864   20.9817 O   0  0  0  0  0  0  0  0  0  0  0  0
  -20.3442  -17.3459   27.7177 O   0  0  0  0  0  0  0  0  0  0  0  0
  -19.2182  -18.5184   31.1166 O   0  0  0  0  0  0  0  0  0  0  0  0
  -23.6641  -18.9273   32.7250 O   0  0  0  0  0  0  0  0  0  0  0  0
  -32.2570  -13.2190   21.0295 O   0  0  0  0  0  0  0  0  0  0  0  0
  -21.7084   -6.9705   21.6135 O   0  0  0  0  0  0  0  0  0  0  0  0
  -25.9300  -13.9649   28.6518 O   0  0  0  0  0  0  0  0  0  1  0  0
  -22.5995   -2.7494   18.1795 F   0  0  0  0  0  0  0  0  0  0  0  0
  -24.2182   -5.8344   21.3839 F   0  0  0  0  0  0  0  0  0  0  0  0
  1  2  1  0  0  0  0
  1  5  2  0  0  0  0
  2  6  2  0  0  0  0
  3  8  2  0  0  0  0
  3 16  1  0  0  0  0
  4  9  1  0  0  0  0
  4 16  2  0  0  0  0
  5 18  1  0  0  0  0
  6 20  1  0  0  0  0
  7 10  2  0  0  0  0
  7 19  1  0  0  0  0
  8 23  1  0  0  0  0
  9 23  2  0  0  0  0
 10 24  1  0  0  0  0
 11 12  2  0  0  0  0
 11 25  1  0  0  0  0
 12 26  1  0  0  0  0
 13 21  1  0  0  0  0
 13 24  2  0  0  0  0
 14 22  1  0  0  0  0
 14 30  2  0  0  0  0
 15 26  2  0  0  0  0
 15 27  1  0  0  0  0
 16 28  1  0  0  0  0
 17 28  1  0  0  0  0
 17 31  2  0  0  0  0
 17 32  1  0  0  0  0
 18 20  2  0  0  0  0
 18 37  1  0  0  0  0
 19 21  2  0  0  0  0
 19 38  1  0  0  0  0
 20 51  1  0  0  0  0
 21 39  1  0  0  0  0
 22 29  2  0  0  0  0
 22 50  1  0  0  0  0
 23 84  1  0  0  0  0
 24 85  1  0  0  0  0
 25 27  2  0  0  0  0
 25 84  1  0  0  0  0
 26 86  1  0  0  0  0
 27 87  1  0  0  0  0
 28 66  2  0  0  0  0
 29 62  1  0  0  0  0
 29 67  1  0  0  0  0
 30 67  1  0  0  0  0
 30 69  1  0  0  0  0
 31 68  1  0  0  0  0
 31 72  1  0  0  0  0
 32 73  1  0  0  0  0
 32 79  2  0  0  0  0
 33 52  1  0  0  0  0
 33 74  1  0  0  0  0
 33 80  2  0  0  0  0
 34 63  1  0  0  0  0
 34 70  1  0  0  0  0
 34 81  2  0  0  0  0
 35 64  1  0  0  0  0
 35 75  1  0  0  0  0
 35 82  2  0  0  0  0
 36 71  1  0  0  0  0
 36 76  1  0  0  0  0
 36 83  2  0  0  0  0
 37 40  1  0  0  0  0
 38 52  1  0  0  0  0
 39 70  1  0  0  0  0
 40 44  1  0  0  0  0
 41 45  1  0  0  0  0
 41 46  1  0  0  0  0
 42 43  1  0  0  0  0
 42 50  1  0  0  0  0
 43 50  1  0  0  0  0
 44 51  1  0  0  0  0
 45 53  1  0  0  0  0
 46 71  1  0  0  0  0
 47 53  1  0  0  0  0
 47 71  1  0  0  0  0
 48 54  1  0  0  0  0
 48 69  1  0  0  0  0
 49 55  1  0  0  0  0
 49 69  1  0  0  0  0
 51 74  1  0  0  0  0
 52 70  1  0  0  0  0
 53 68  1  0  0  0  0
 54 55  1  0  0  0  0
 54 76  1  0  0  0  0
 55 77  1  0  0  0  0
 56 64  1  0  0  0  0
 57 65  1  0  0  0  0
 58 65  1  0  0  0  0
 59 65  1  0  0  0  0
 60 67  1  0  0  0  0
 61 78  1  0  0  0  0
 62 85  1  0  0  0  0
 63 65  1  0  0  0  0
 63 75  1  0  0  0  0
 64 78  1  0  0  0  0
 66 68  1  0  0  0  0
M  CHG  2  77   1  78   1
M  ISO  4  36 100  62 101  76 100  85 101
M  END
> <Batch ID>
0175

> <Smiles>
CNC(C)C(=O)NC(C(=O)N1Cc2cc([101O:1][101CH2:1]c3c(C4CC4)cc(N4CC(N)C([100NH:0][100C:0](=O)N5CCCC(n6nc(-c7ccc(Oc8ccc(F)cc8F)cc7)c(C(N)=O)c6N)C5)C4)n3C)ccc2CC1C(=O)NC1CCCc2ccccc21)C(C)(C)C

> <Shape>
0.119

> <Color>
0.170

> <Negative vol penalty>
0.000

$$$$

  -OEChem-04052322473D

 87 97  0     1  0  0  0  0  0999 V2000
  -29.9481  -34.5696   25.6070 C   0  0  0  0  0  0  0  0  0  0  0  0
  -29.4855  -33.2853   25.3389 C   0  0  0  0  0  0  0  0  0  0  0  0
  -23.2693  -10.1783   21.9940 C   0  0  0  0  0  0  0  0  0  0  0  0
  -24.8570   -8.6546   20.9968 C   0  0  0  0  0  0  0  0  0  0  0  0
  -29.0461  -35.6286   25.7018 C   0  0  0  0  0  0  0  0  0  0  0  0
  -28.1204  -33.0590   25.1665 C   0  0  0  0  0  0  0  0  0  0  0  0
  -27.1321  -30.0736   21.1972 C   0  0  0  0  0  0  0  0  0  0  0  0
  -22.2593   -9.2294   21.8359 C   0  0  0  0  0  0  0  0  0  0  0  0
  -23.8470   -7.7056   20.8388 C   0  0  0  0  0  0  0  0  0  0  0  0
  -27.3305  -28.7039   21.3656 C   0  0  0  0  0  0  0  0  0  0  0  0
  -21.7631   -4.7456   20.5017 C   0  0  0  0  0  0  0  0  0  0  0  0
  -22.0497   -3.4272   20.8556 C   0  0  0  0  0  0  0  0  0  0  0  0
  -24.9609  -28.4088   21.7076 C   0  0  0  0  0  0  0  0  0  0  0  0
  -26.0889  -22.4142   23.6579 C   0  0  0  0  0  0  0  0  0  0  0  0
  -22.5070   -4.1345   23.1201 C   0  0  0  0  0  0  0  0  0  0  0  0
  -24.5682   -9.8910   21.5744 C   0  0  0  0  0  0  0  0  0  0  0  0
  -26.4626  -11.0307   22.8471 C   0  0  0  0  0  0  0  0  0  0  0  0
  -27.6702  -35.4168   25.5209 C   0  0  0  0  0  0  0  0  0  0  0  0
  -25.8457  -30.6236   21.2937 C   0  0  0  0  0  0  0  0  0  0  0  0
  -27.1990  -34.1159   25.2603 C   0  0  0  0  0  0  0  0  0  0  0  0
  -24.7484  -29.7854   21.5374 C   0  0  0  0  0  0  0  0  0  0  0  0
  -25.7099  -23.7437   23.5096 C   0  0  0  0  0  0  0  0  0  0  0  0
  -25.6828  -24.3158   22.2426 C   0  0  0  0  0  0  0  0  0  0  0  0
  -22.5481   -7.9931   21.2583 C   0  0  0  0  0  0  0  0  0  0  0  0
  -26.2452  -27.8717   21.6237 C   0  0  0  0  0  0  0  0  0  0  0  0
  -21.8485   -5.7585   21.4569 C   0  0  0  0  0  0  0  0  0  0  0  0
  -22.4216   -3.1217   22.1648 C   0  0  0  0  0  0  0  0  0  0  0  0
  -22.2204   -5.4530   22.7661 C   0  0  0  0  0  0  0  0  0  0  0  0
  -25.6118  -10.8710   21.7369 C   0  0  0  0  0  0  0  0  0  0  0  0
  -26.4287  -21.7055   22.5169 C   0  0  0  0  0  0  0  0  0  0  0  0
  -26.0410  -23.5221   21.1649 C   0  0  0  0  0  0  0  0  0  0  0  0
  -27.2698  -12.0901   22.5115 C   0  0  0  0  0  0  0  0  0  0  0  0
  -26.5184  -10.2878   24.0721 C   0  0  0  0  0  0  0  0  0  0  0  0
  -24.4503  -32.7435   23.2075 C   0  0  0  0  0  0  0  0  0  0  0  0
  -21.9669  -32.3821   21.1522 C   0  0  0  0  0  0  0  0  0  0  0  0
  -20.3703  -30.4312   18.8518 C   0  0  0  0  0  0  0  0  0  0  0  0
  -28.1258  -17.0693   20.3912 C   0  0  0  0  0  0  0  0  0  0  0  0
  -26.7290  -36.5846   25.6796 C   0  0  0  0  0  0  0  0  0  0  0  0
  -25.6450  -32.0993   21.0830 C   0  0  0  0  0  0  0  0  0  0  0  0
  -23.3447  -30.3234   21.6303 C   0  0  0  0  0  0  0  0  0  0  0  0
  -25.3356  -36.3251   25.1127 C   0  0  0  0  0  0  0  0  0  0  0  0
  -27.9213  -14.4804   18.1100 C   0  0  0  0  0  0  0  0  0  0  0  0
  -26.0580  -25.8262   24.9983 C   0  0  0  0  0  0  0  0  0  0  0  0
  -26.3159  -24.6300   25.8603 C   0  0  0  0  0  0  0  0  0  0  0  0
  -24.8232  -34.9596   25.5595 C   0  0  0  0  0  0  0  0  0  0  0  0
  -27.3732  -13.3142   18.9320 C   0  0  0  0  0  0  0  0  0  0  0  0
  -25.8836  -19.3090   21.8992 C   0  0  0  0  0  0  0  0  0  0  0  0
  -28.2961  -20.0275   22.1699 C   0  0  0  0  0  0  0  0  0  0  0  0
  -27.2218  -15.7837   18.4779 C   0  0  0  0  0  0  0  0  0  0  0  0
  -26.3304  -17.8478   22.0010 C   0  0  0  0  0  0  0  0  0  0  0  0
  -28.6813  -18.5560   22.2912 C   0  0  0  0  0  0  0  0  0  0  0  0
  -26.7591  -14.9664   20.7661 C   0  0  0  0  0  0  0  0  0  0  0  0
  -25.3375  -24.5339   24.7200 C   0  0  0  0  0  0  0  0  0  0  0  0
  -25.7281  -33.8347   25.0426 C   0  0  1  0  0  0  0  0  0  0  0  0
  -26.8477  -20.2526   22.6405 C   0  0  0  0  0  0  0  0  0  0  0  0
  -24.3580  -32.6232   21.7126 C   0  0  1  0  0  0  0  0  0  0  0  0
  -27.4381  -13.6209   20.4387 C   0  0  1  0  0  0  0  0  0  0  0  0
  -26.0308  -24.0811   19.7797 C   0  0  0  0  0  0  0  0  0  0  0  0
  -18.3439  -30.3884   17.3721 C   0  0  0  0  0  0  0  0  0  0  0  0
  -20.2144  -31.7705   23.5739 C   0  0  0  0  0  0  0  0  0  0  0  0
  -18.5029  -30.8264   22.0094 C   0  0  0  0  0  0  0  0  0  0  0  0
  -19.1412  -33.2327   21.8521 C   0  0  0  0  0  0  0  0  0  0  0  0
  -22.0203  -30.2543   16.4013 C   0  0  0  0  0  0  0  0  0  0  0  0
  -25.2808  -25.7402   22.0509 C   0  0  0  0  0  0  0  0  0  1  0  0
  -20.7709  -31.4646   21.0713 C   0  0  1  0  0  0  0  0  0  0  0  0
  -19.8185  -30.7464   17.4732 C   0  0  2  0  0  0  0  0  0  0  0  0
  -19.6839  -31.8134   22.1269 C   0  0  0  0  0  0  0  0  0  0  0  0
  -25.8557  -11.7580   20.7686 N   0  0  0  0  0  0  0  0  0  0  0  0
  -26.4145  -22.2270   21.2697 N   0  0  0  0  0  0  0  0  0  0  0  0
  -26.8688  -12.4854   21.2693 N   0  0  0  0  0  0  0  0  0  0  0  0
  -23.2008  -31.7739   21.4233 N   0  0  0  0  0  0  0  0  0  0  0  0
  -27.3023  -16.0374   19.9163 N   0  0  0  0  0  0  0  0  0  0  0  0
  -27.7305  -17.7025   21.5792 N   0  0  0  0  0  0  0  0  0  0  0  0
  -28.2763  -12.7128   23.1608 N   0  0  0  0  0  0  0  0  0  0  0  0
  -25.6166   -9.2304   24.2539 N   0  0  0  0  0  0  0  0  0  0  0  0
  -25.4635  -33.5758   23.6435 N   0  0  0  0  0  0  0  0  0  0  0  0
  -20.3036  -31.5237   19.6905 N   0  0  0  0  0  0  0  0  0  0  0  0
  -20.5603  -29.9815   16.4312 N   0  3  0  0  0  0  0  0  0  0  0  0
  -27.3325  -10.5642   24.9855 O   0  0  0  0  0  0  0  0  0  0  0  0
  -23.6598  -32.1279   23.9131 O   0  0  0  0  0  0  0  0  0  0  0  0
  -21.8133  -33.5930   20.9740 O   0  0  0  0  0  0  0  0  0  0  0  0
  -20.8125  -29.3255   19.1556 O   0  0  0  0  0  0  0  0  0  0  0  0
  -29.1540  -17.4052   19.7903 O   0  0  0  0  0  0  0  0  0  0  0  0
  -21.5628   -7.0668   21.1041 O   0  0  0  0  0  0  0  0  0  0  0  0
  -26.4375  -26.5252   21.7903 O   0  0  0  0  0  0  0  0  0  1  0  0
  -22.6953   -1.8553   22.5049 F   0  0  0  0  0  0  0  0  0  0  0  0
  -22.3030   -6.4216   23.6884 F   0  0  0  0  0  0  0  0  0  0  0  0
  1  2  1  0  0  0  0
  1  5  2  0  0  0  0
  2  6  2  0  0  0  0
  3  8  2  0  0  0  0
  3 16  1  0  0  0  0
  4  9  1  0  0  0  0
  4 16  2  0  0  0  0
  5 18  1  0  0  0  0
  6 20  1  0  0  0  0
  7 10  2  0  0  0  0
  7 19  1  0  0  0  0
  8 24  1  0  0  0  0
  9 24  2  0  0  0  0
 10 25  1  0  0  0  0
 11 12  2  0  0  0  0
 11 26  1  0  0  0  0
 12 27  1  0  0  0  0
 13 21  1  0  0  0  0
 13 25  2  0  0  0  0
 14 22  2  0  0  0  0
 14 30  1  0  0  0  0
 15 27  2  0  0  0  0
 15 28  1  0  0  0  0
 16 29  1  0  0  0  0
 17 29  1  0  0  0  0
 17 32  2  0  0  0  0
 17 33  1  0  0  0  0
 18 20  2  0  0  0  0
 18 38  1  0  0  0  0
 19 21  2  0  0  0  0
 19 39  1  0  0  0  0
 20 54  1  0  0  0  0
 21 40  1  0  0  0  0
 22 23  1  0  0  0  0
 22 53  1  0  0  0  0
 23 31  2  0  0  0  0
 23 64  1  0  0  0  0
 24 84  1  0  0  0  0
 25 85  1  0  0  0  0
 26 28  2  0  0  0  0
 26 84  1  0  0  0  0
 27 86  1  0  0  0  0
 28 87  1  0  0  0  0
 29 68  2  0  0  0  0
 30 55  1  0  0  0  0
 30 69  2  0  0  0  0
 31 58  1  0  0  0  0
 31 69  1  0  0  0  0
 32 70  1  0  0  0  0
 32 74  1  0  0  0  0
 33 75  1  0  0  0  0
 33 79  2  0  0  0  0
 34 56  1  0  0  0  0
 34 76  1  0  0  0  0
 34 80  2  0  0  0  0
 35 65  1  0  0  0  0
 35 71  1  0  0  0  0
 35 81  2  0  0  0  0
 36 66  1  0  0  0  0
 36 77  1  0  0  0  0
 36 82  2  0  0  0  0
 37 72  1  0  0  0  0
 37 73  1  0  0  0  0
 37 83  2  0  0  0  0
 38 41  1  0  0  0  0
 39 56  1  0  0  0  0
 40 71  1  0  0  0  0
 41 45  1  0  0  0  0
 42 46  1  0  0  0  0
 42 49  1  0  0  0  0
 43 44  1  0  0  0  0
 43 53  1  0  0  0  0
 44 53  1  0  0  0  0
 45 54  1  0  0  0  0
 46 57  1  0  0  0  0
 47 50  1  0  0  0  0
 47 55  1  0  0  0  0
 48 51  1  0  0  0  0
 48 55  1  0  0  0  0
 49 72  1  0  0  0  0
 50 73  1  0  0  0  0
 51 73  1  0  0  0  0
 52 57  1  0  0  0  0
 52 72  1  0  0  0  0
 54 76  1  0  0  0  0
 56 71  1  0  0  0  0
 57 70  1  0  0  0  0
 59 66  1  0  0  0  0
 60 67  1  0  0  0  0
 61 67  1  0  0  0  0
 62 67  1  0  0  0  0
 63 78  1  0  0  0  0
 64 85  1  0  0  0  0
 65 67  1  0  0  0  0
 65 77  1  0  0  0  0
 66 78  1  0  0  0  0
 68 70  1  0  0  0  0
M  CHG  1  78   1
M  ISO  4  37 100  64 101  73 100  85 101
M  END
> <Batch ID>
0175

> <Smiles>
CNC(C)C(=O)NC(C(=O)N1Cc2cc([101O:1][101CH2:1]c3c(C4CC4)cc(C4CC[100N:0]([100C:0](=O)N5CCCC(n6nc(-c7ccc(Oc8ccc(F)cc8F)cc7)c(C(N)=O)c6N)C5)CC4)nc3C)ccc2CC1C(=O)NC1CCCc2ccccc21)C(C)(C)C

> <Shape>
0.214

> <Color>
0.096

> <Negative vol penalty>
0.000

$$$$

  -OEChem-04052322473D

 88 97  0     1  0  0  0  0  0999 V2000
  -19.4366  -27.6413   26.2529 C   0  0  0  0  0  0  0  0  0  0  0  0
  -20.8185  -27.7333   26.1214 C   0  0  0  0  0  0  0  0  0  0  0  0
  -24.9677  -15.4191   21.7505 C   0  0  0  0  0  0  0  0  0  0  0  0
  -25.4927  -14.1474   19.7645 C   0  0  0  0  0  0  0  0  0  0  0  0
  -18.6491  -27.3545   25.1386 C   0  0  0  0  0  0  0  0  0  0  0  0
  -21.4138  -27.5374   24.8758 C   0  0  0  0  0  0  0  0  0  0  0  0
  -24.9613  -31.0032   23.8515 C   0  0  0  0  0  0  0  0  0  0  0  0
  -30.2322  -27.4949   24.2236 C   0  0  0  0  0  0  0  0  0  0  0  0
  -23.9142  -14.5485   22.0295 C   0  0  0  0  0  0  0  0  0  0  0  0
  -24.4392  -13.2768   20.0435 C   0  0  0  0  0  0  0  0  0  0  0  0
  -26.2040  -30.8422   24.4627 C   0  0  0  0  0  0  0  0  0  0  0  0
  -30.1894  -26.2503   23.5953 C   0  0  0  0  0  0  0  0  0  0  0  0
  -23.8487  -10.6634   22.1031 C   0  0  0  0  0  0  0  0  0  0  0  0
  -24.0909   -9.2952   21.9809 C   0  0  0  0  0  0  0  0  0  0  0  0
  -27.0751  -29.8869   22.4261 C   0  0  0  0  0  0  0  0  0  0  0  0
  -28.9547  -26.6058   26.0716 C   0  0  0  0  0  0  0  0  0  0  0  0
  -22.3580   -9.1380   20.3049 C   0  0  0  0  0  0  0  0  0  0  0  0
  -25.7569  -15.2186   20.6179 C   0  0  0  0  0  0  0  0  0  0  0  0
  -28.1810  -16.0009   20.7566 C   0  0  0  0  0  0  0  0  0  0  0  0
  -19.2343  -27.1646   23.8768 C   0  0  0  0  0  0  0  0  0  0  0  0
  -24.7628  -30.5965   22.5242 C   0  0  0  0  0  0  0  0  0  0  0  0
  -20.6335  -27.2465   23.7439 C   0  0  0  0  0  0  0  0  0  0  0  0
  -25.8297  -30.0462   21.7995 C   0  0  0  0  0  0  0  0  0  0  0  0
  -29.6149  -27.6726   25.4618 C   0  0  0  0  0  0  0  0  0  0  0  0
  -28.9119  -25.3613   25.4432 C   0  0  0  0  0  0  0  0  0  0  0  0
  -23.6500  -13.4774   21.1761 C   0  0  0  0  0  0  0  0  0  0  0  0
  -27.2603  -30.2813   23.7509 C   0  0  0  0  0  0  0  0  0  0  0  0
  -29.5292  -25.1835   24.2050 C   0  0  0  0  0  0  0  0  0  0  0  0
  -22.8610  -11.2689   21.3263 C   0  0  0  0  0  0  0  0  0  0  0  0
  -23.3456   -8.5325   21.0818 C   0  0  0  0  0  0  0  0  0  0  0  0
  -22.1157  -10.5063   20.4271 C   0  0  0  0  0  0  0  0  0  0  0  0
  -26.8449  -16.1179   20.3288 C   0  0  0  0  0  0  0  0  0  0  0  0
  -28.8106  -17.0973   20.2200 C   0  0  0  0  0  0  0  0  0  0  0  0
  -28.7979  -14.9915   21.5667 C   0  0  0  0  0  0  0  0  0  0  0  0
  -22.8937  -28.4648   21.0868 C   0  0  0  0  0  0  0  0  0  0  0  0
  -24.1149  -29.7913   18.3902 C   0  0  0  0  0  0  0  0  0  0  0  0
  -26.6524  -31.5262   16.9076 C   0  0  0  0  0  0  0  0  0  0  0  0
  -28.7624  -22.6474   19.1900 C   0  0  0  0  0  0  0  0  0  0  0  0
  -18.3460  -26.8099   22.7107 C   0  0  0  0  0  0  0  0  0  0  0  0
  -23.4236  -30.8016   21.8709 C   0  0  0  0  0  0  0  0  0  0  0  0
  -25.6741  -29.6121   20.3657 C   0  0  0  0  0  0  0  0  0  0  0  0
  -19.0228  -26.9862   21.3538 C   0  0  0  0  0  0  0  0  0  0  0  0
  -27.2820  -20.4347   16.7726 C   0  0  0  0  0  0  0  0  0  0  0  0
  -20.4191  -26.3724   21.3699 C   0  0  0  0  0  0  0  0  0  0  0  0
  -27.0924  -19.1235   17.5280 C   0  0  0  0  0  0  0  0  0  0  0  0
  -27.0829  -21.6284   17.6969 C   0  0  0  0  0  0  0  0  0  0  0  0
  -27.8516  -20.3067   19.6509 C   0  0  0  0  0  0  0  0  0  0  0  0
  -29.8255  -23.9920   21.0782 C   0  0  0  0  0  0  0  0  0  0  0  0
  -28.4005  -22.5765   21.7803 C   0  0  0  0  0  0  0  0  0  0  0  0
  -21.3143  -27.0649   22.4046 C   0  0  1  0  0  0  0  0  0  0  0  0
  -23.1934  -29.8792   20.6777 C   0  0  1  0  0  0  0  0  0  0  0  0
  -28.0220  -19.0681   18.7488 C   0  0  1  0  0  0  0  0  0  0  0  0
  -28.8731  -23.9504   22.2802 C   0  0  0  0  0  0  0  0  0  0  0  0
  -24.5280  -24.8082   25.2727 C   0  0  0  0  0  0  0  0  0  0  0  0
  -28.7678  -23.8915   27.4954 C   0  0  0  0  0  0  0  0  0  0  0  0
  -27.3861  -32.4273   14.6834 C   0  0  0  0  0  0  0  0  0  0  0  0
  -24.9041  -26.9774   17.5134 C   0  0  0  0  0  0  0  0  0  0  0  0
  -26.4280  -28.0090   15.8158 C   0  0  0  0  0  0  0  0  0  0  0  0
  -23.9697  -28.4140   15.6921 C   0  0  0  0  0  0  0  0  0  0  0  0
  -26.6492  -34.3127   17.9049 C   0  0  0  0  0  0  0  0  0  0  0  0
  -29.6622  -29.0031   26.1338 C   0  0  0  0  0  0  0  0  0  0  0  0
  -26.0020  -24.6137   24.9920 C   0  0  0  0  0  0  0  0  0  0  0  0
  -28.4846  -29.9065   25.7550 C   0  0  0  0  0  0  0  0  0  1  0  0
  -28.2019  -24.2299   26.1107 C   0  0  1  0  0  0  0  0  0  0  0  0
  -25.3186  -29.5257   17.5187 C   0  0  1  0  0  0  0  0  0  0  0  0
  -26.6434  -32.7252   15.9766 C   0  0  2  0  0  0  0  0  0  0  0  0
  -25.1578  -28.2378   16.6626 C   0  0  0  0  0  0  0  0  0  0  0  0
  -26.6369  -17.2030   19.5784 N   0  0  0  0  0  0  0  0  0  0  0  0
  -27.8506  -17.7780   19.5305 N   0  0  0  0  0  0  0  0  0  0  0  0
  -24.3437  -29.8275   19.7731 N   0  0  0  0  0  0  0  0  0  0  0  0
  -27.9410  -21.5568   18.8835 N   0  0  0  0  0  0  0  0  0  0  0  0
  -29.0332  -22.9060   20.5140 N   0  0  0  0  0  0  0  0  0  0  0  0
  -30.0861  -17.5360   20.2753 N   0  0  0  0  0  0  0  0  0  0  0  0
  -28.0058  -13.9344   22.0351 N   0  0  0  0  0  0  0  0  0  0  0  0
  -21.7820  -28.3372   21.8975 N   0  0  0  0  0  0  0  0  0  0  0  0
  -25.5329  -30.7393   16.7379 N   0  0  0  0  0  0  0  0  0  0  0  0
  -27.2925  -33.8953   16.6326 N   0  3  0  0  0  0  0  0  0  0  0  0
  -26.7272  -24.4663   26.2744 N   0  3  0  0  0  0  0  0  0  0  0  0
  -30.0118  -15.0346   21.8798 O   0  0  0  0  0  0  0  0  0  0  0  0
  -23.6168  -27.5564   20.6948 O   0  0  0  0  0  0  0  0  0  0  0  0
  -23.0137  -29.9675   17.8632 O   0  0  0  0  0  0  0  0  0  0  0  0
  -27.5633  -31.3075   17.7032 O   0  0  0  0  0  0  0  0  0  0  0  0
  -29.2171  -23.3903   18.3098 O   0  0  0  0  0  0  0  0  0  0  0  0
  -22.6222  -12.6275   21.4482 O   0  0  0  0  0  0  0  0  0  0  0  0
  -29.4958  -23.9746   23.5760 O   0  0  0  0  0  0  0  0  0  0  0  0
  -28.4827  -30.1213   24.3494 O   0  0  0  0  0  0  0  0  0  1  0  0
  -23.5794   -7.2189   20.9634 F   0  0  0  0  0  0  0  0  0  0  0  0
  -21.1663  -11.0826   19.6772 F   0  0  0  0  0  0  0  0  0  0  0  0
  1  2  1  0  0  0  0
  1  5  2  0  0  0  0
  2  6  2  0  0  0  0
  3  9  2  0  0  0  0
  3 18  1  0  0  0  0
  4 10  1  0  0  0  0
  4 18  2  0  0  0  0
  5 20  1  0  0  0  0
  6 22  1  0  0  0  0
  7 11  2  0  0  0  0
  7 21  1  0  0  0  0
  8 12  2  0  0  0  0
  8 24  1  0  0  0  0
  9 26  1  0  0  0  0
 10 26  2  0  0  0  0
 11 27  1  0  0  0  0
 12 28  1  0  0  0  0
 13 14  2  0  0  0  0
 13 29  1  0  0  0  0
 14 30  1  0  0  0  0
 15 23  1  0  0  0  0
 15 27  2  0  0  0  0
 16 24  2  0  0  0  0
 16 25  1  0  0  0  0
 17 30  2  0  0  0  0
 17 31  1  0  0  0  0
 18 32  1  0  0  0  0
 19 32  1  0  0  0  0
 19 33  2  0  0  0  0
 19 34  1  0  0  0  0
 20 22  2  0  0  0  0
 20 39  1  0  0  0  0
 21 23  2  0  0  0  0
 21 40  1  0  0  0  0
 22 50  1  0  0  0  0
 23 41  1  0  0  0  0
 24 61  1  0  0  0  0
 25 28  2  0  0  0  0
 25 64  1  0  0  0  0
 26 84  1  0  0  0  0
 27 86  1  0  0  0  0
 28 85  1  0  0  0  0
 29 31  2  0  0  0  0
 29 84  1  0  0  0  0
 30 87  1  0  0  0  0
 31 88  1  0  0  0  0
 32 68  2  0  0  0  0
 33 69  1  0  0  0  0
 33 73  1  0  0  0  0
 34 74  1  0  0  0  0
 34 79  2  0  0  0  0
 35 51  1  0  0  0  0
 35 75  1  0  0  0  0
 35 80  2  0  0  0  0
 36 65  1  0  0  0  0
 36 70  1  0  0  0  0
 36 81  2  0  0  0  0
 37 66  1  0  0  0  0
 37 76  1  0  0  0  0
 37 82  2  0  0  0  0
 38 71  1  0  0  0  0
 38 72  1  0  0  0  0
 38 83  2  0  0  0  0
 39 42  1  0  0  0  0
 40 51  1  0  0  0  0
 41 70  1  0  0  0  0
 42 44  1  0  0  0  0
 43 45  1  0  0  0  0
 43 46  1  0  0  0  0
 44 50  1  0  0  0  0
 45 52  1  0  0  0  0
 46 71  1  0  0  0  0
 47 52  1  0  0  0  0
 47 71  1  0  0  0  0
 48 53  1  0  0  0  0
 48 72  1  0  0  0  0
 49 53  1  0  0  0  0
 49 72  1  0  0  0  0
 50 75  1  0  0  0  0
 51 70  1  0  0  0  0
 52 69  1  0  0  0  0
 53 85  1  0  0  0  0
 54 62  1  0  0  0  0
 55 64  1  0  0  0  0
 56 66  1  0  0  0  0
 57 67  1  0  0  0  0
 58 67  1  0  0  0  0
 59 67  1  0  0  0  0
 60 77  1  0  0  0  0
 61 63  1  0  0  0  0
 62 78  1  0  0  0  0
 63 86  1  0  0  0  0
 64 78  1  0  0  0  0
 65 67  1  0  0  0  0
 65 76  1  0  0  0  0
 66 77  1  0  0  0  0
 68 69  1  0  0  0  0
M  CHG  2  77   1  78   1
M  ISO  4  38 100  63 101  72 100  86 101
M  END
> <Batch ID>
0175

> <Smiles>
CCNC(C)c1cc(C[101CH2:1][101O:1]c2ccc3c(c2)CN(C(=O)C(NC(=O)C(C)NC)C(C)(C)C)C(C(=O)NC2CCCc4ccccc42)C3)ccc1OC1C[100N:0]([100C:0](=O)N2CCCC(n3nc(-c4ccc(Oc5ccc(F)cc5F)cc4)c(C(N)=O)c3N)C2)C1

> <Shape>
0.264

> <Color>
0.071

> <Negative vol penalty>
0.000

$$$$

  -OEChem-04052322473D

 84 94  0     1  0  0  0  0  0999 V2000
  -22.8351   -7.4394   22.1145 C   0  0  0  0  0  0  0  0  0  0  0  0
  -23.9161   -8.0568   22.7355 C   0  0  0  0  0  0  0  0  0  0  0  0
  -24.7790  -32.2554   23.8433 C   0  0  0  0  0  0  0  0  0  0  0  0
  -24.7090  -32.3622   21.4306 C   0  0  0  0  0  0  0  0  0  0  0  0
  -22.3967   -7.8904   20.8702 C   0  0  0  0  0  0  0  0  0  0  0  0
  -24.5601   -9.1249   22.1120 C   0  0  0  0  0  0  0  0  0  0  0  0
  -27.9898  -15.2291   23.6261 C   0  0  0  0  0  0  0  0  0  0  0  0
  -25.6147  -33.3719   23.8685 C   0  0  0  0  0  0  0  0  0  0  0  0
  -25.5447  -33.4788   21.4558 C   0  0  0  0  0  0  0  0  0  0  0  0
  -29.1887  -15.8869   23.3544 C   0  0  0  0  0  0  0  0  0  0  0  0
  -25.3003  -36.7259   23.5775 C   0  0  0  0  0  0  0  0  0  0  0  0
  -25.0140  -37.7291   24.5032 C   0  0  0  0  0  0  0  0  0  0  0  0
  -28.2942  -16.6316   21.2415 C   0  0  0  0  0  0  0  0  0  0  0  0
  -27.1868  -37.4178   25.5126 C   0  0  0  0  0  0  0  0  0  0  0  0
  -30.8646  -21.0934   18.7881 C   0  0  0  0  0  0  0  0  0  0  0  0
  -24.3262  -31.7505   22.6243 C   0  0  0  0  0  0  0  0  0  0  0  0
  -22.0561  -30.5867   22.6378 C   0  0  0  0  0  0  0  0  0  0  0  0
  -23.0295   -8.9709   20.2355 C   0  0  0  0  0  0  0  0  0  0  0  0
  -26.9363  -15.2586   22.7012 C   0  0  0  0  0  0  0  0  0  0  0  0
  -24.1306   -9.5900   20.8574 C   0  0  0  0  0  0  0  0  0  0  0  0
  -27.0820  -15.9756   21.5050 C   0  0  0  0  0  0  0  0  0  0  0  0
  -25.9976  -33.9836   22.6748 C   0  0  0  0  0  0  0  0  0  0  0  0
  -29.3420  -16.5859   22.1607 C   0  0  0  0  0  0  0  0  0  0  0  0
  -26.5298  -36.0685   23.6193 C   0  0  0  0  0  0  0  0  0  0  0  0
  -25.9572  -38.0752   25.4708 C   0  0  0  0  0  0  0  0  0  0  0  0
  -27.4731  -36.4145   24.5868 C   0  0  0  0  0  0  0  0  0  0  0  0
  -23.4633  -30.5969   22.5976 C   0  0  0  0  0  0  0  0  0  0  0  0
  -30.1927  -20.3250   19.7168 C   0  0  0  0  0  0  0  0  0  0  0  0
  -30.1598  -22.1641   18.2771 C   0  0  0  0  0  0  0  0  0  0  0  0
  -21.7209  -29.2557   22.5878 C   0  0  0  0  0  0  0  0  0  0  0  0
  -28.3501  -21.6457   19.5511 C   0  0  0  0  0  0  0  0  0  0  0  0
  -21.1345  -31.6824   22.7135 C   0  0  0  0  0  0  0  0  0  0  0  0
  -25.3721  -13.0667   21.0122 C   0  0  0  0  0  0  0  0  0  0  0  0
  -23.5120  -15.5929   20.1871 C   0  0  0  0  0  0  0  0  0  0  0  0
  -23.2146  -18.9720   19.8132 C   0  0  0  0  0  0  0  0  0  0  0  0
  -24.7008  -24.6248   20.3382 C   0  0  0  0  0  0  0  0  0  0  0  0
  -22.5497   -9.3925   18.8693 C   0  0  0  0  0  0  0  0  0  0  0  0
  -25.6399  -14.5662   23.0211 C   0  0  0  0  0  0  0  0  0  0  0  0
  -25.9740  -16.0549   20.4879 C   0  0  0  0  0  0  0  0  0  0  0  0
  -23.0501  -10.7714   18.4467 C   0  0  0  0  0  0  0  0  0  0  0  0
  -23.3282  -24.9256   23.7353 C   0  0  0  0  0  0  0  0  0  0  0  0
  -24.5437  -10.9060   18.7259 C   0  0  0  0  0  0  0  0  0  0  0  0
  -23.1522  -26.4359   23.8468 C   0  0  0  0  0  0  0  0  0  0  0  0
  -31.7798  -19.3563   21.5109 C   0  0  0  0  0  0  0  0  0  0  0  0
  -24.5300  -24.5399   22.8725 C   0  0  0  0  0  0  0  0  0  0  0  0
  -26.6298  -23.0521   21.0829 C   0  0  0  0  0  0  0  0  0  0  0  0
  -25.9691  -22.8218   19.0768 C   0  0  0  0  0  0  0  0  0  0  0  0
  -24.3402  -26.6923   21.6419 C   0  0  0  0  0  0  0  0  0  0  0  0
  -24.8395  -10.7675   20.2242 C   0  0  1  0  0  0  0  0  0  0  0  0
  -30.8803  -19.1552   20.3138 C   0  0  1  0  0  0  0  0  0  0  0  0
  -26.8648  -21.9717   20.0014 C   0  0  0  0  0  0  0  0  0  0  0  0
  -24.8179  -14.2335   21.7797 C   0  0  1  0  0  0  0  0  0  0  0  0
  -23.0925  -27.0722   22.4506 C   0  0  2  0  0  0  0  0  0  0  0  0
  -30.4596  -18.6696   21.6836 C   0  0  1  0  0  0  0  0  0  1  0  0
  -30.8031  -23.0530   17.2663 C   0  0  0  0  0  0  0  0  0  0  0  0
  -21.5866  -20.7378   19.0858 C   0  0  0  0  0  0  0  0  0  0  0  0
  -24.0094  -14.8466   17.2707 C   0  0  0  0  0  0  0  0  0  0  0  0
  -23.1897  -17.1214   16.6214 C   0  0  0  0  0  0  0  0  0  0  0  0
  -21.6601  -15.5319   17.7861 C   0  0  0  0  0  0  0  0  0  0  0  0
  -23.2428  -20.2600   22.4777 C   0  0  0  0  0  0  0  0  0  0  0  0
  -23.5358  -16.6228   19.0836 C   0  0  1  0  0  0  0  0  0  0  0  0
  -22.1376  -19.9440   20.2601 C   0  0  2  0  0  0  0  0  0  0  0  0
  -23.1205  -16.0277   17.7085 C   0  0  0  0  0  0  0  0  0  0  0  0
  -23.9860  -29.3698   22.5276 N   0  0  0  0  0  0  0  0  0  0  0  0
  -28.9302  -20.5733   20.1228 N   0  0  0  0  0  0  0  0  0  0  0  0
  -28.8963  -22.4706   18.6374 N   0  0  0  0  0  0  0  0  0  0  0  0
  -22.9016  -28.5761   22.5235 N   0  0  0  0  0  0  0  0  0  0  0  0
  -24.7280  -15.3562   20.8438 N   0  0  0  0  0  0  0  0  0  0  0  0
  -24.5350  -25.2397   21.5837 N   0  0  0  0  0  0  0  0  0  0  0  0
  -25.4965  -23.4981   20.2815 N   0  0  0  0  0  0  0  0  0  0  0  0
  -20.5342  -28.6121   22.5930 N   0  0  0  0  0  0  0  0  0  0  0  0
  -21.6481  -32.9857   22.7571 N   0  0  0  0  0  0  0  0  0  0  0  0
  -24.5079  -11.9924   20.9201 N   0  0  0  0  0  0  0  0  0  0  0  0
  -22.6945  -17.7255   19.5361 N   0  0  0  0  0  0  0  0  0  0  0  0
  -22.6878  -20.9034   21.2590 N   0  3  0  0  0  0  0  0  0  0  0  0
  -19.8928  -31.5101   22.7583 O   0  0  0  0  0  0  0  0  0  0  0  0
  -26.4997  -13.1365   20.5374 O   0  0  0  0  0  0  0  0  0  0  0  0
  -22.4520  -15.0247   20.4612 O   0  0  0  0  0  0  0  0  0  0  0  0
  -24.3983  -19.2881   19.7158 O   0  0  0  0  0  0  0  0  0  0  0  0
  -24.1881  -25.0794   19.3076 O   0  0  0  0  0  0  0  0  0  0  0  0
  -26.8129  -35.0732   22.6990 O   0  0  0  0  0  0  0  0  0  0  0  0
  -30.5114  -17.2282   21.8927 O   0  0  0  0  0  0  0  0  0  1  0  0
  -25.6828  -39.0397   26.3587 F   0  0  0  0  0  0  0  0  0  0  0  0
  -28.6565  -35.7873   24.6312 F   0  0  0  0  0  0  0  0  0  0  0  0
  1  2  1  0  0  0  0
  1  5  2  0  0  0  0
  2  6  2  0  0  0  0
  3  8  2  0  0  0  0
  3 16  1  0  0  0  0
  4  9  1  0  0  0  0
  4 16  2  0  0  0  0
  5 18  1  0  0  0  0
  6 20  1  0  0  0  0
  7 10  2  0  0  0  0
  7 19  1  0  0  0  0
  8 22  1  0  0  0  0
  9 22  2  0  0  0  0
 10 23  1  0  0  0  0
 11 12  2  0  0  0  0
 11 24  1  0  0  0  0
 12 25  1  0  0  0  0
 13 21  1  0  0  0  0
 13 23  2  0  0  0  0
 14 25  2  0  0  0  0
 14 26  1  0  0  0  0
 15 28  1  0  0  0  0
 15 29  2  0  0  0  0
 16 27  1  0  0  0  0
 17 27  1  0  0  0  0
 17 30  2  0  0  0  0
 17 32  1  0  0  0  0
 18 20  2  0  0  0  0
 18 37  1  0  0  0  0
 19 21  2  0  0  0  0
 19 38  1  0  0  0  0
 20 49  1  0  0  0  0
 21 39  1  0  0  0  0
 22 81  1  0  0  0  0
 23 82  1  0  0  0  0
 24 26  2  0  0  0  0
 24 81  1  0  0  0  0
 25 83  1  0  0  0  0
 26 84  1  0  0  0  0
 27 64  2  0  0  0  0
 28 50  1  0  0  0  0
 28 65  2  0  0  0  0
 29 55  1  0  0  0  0
 29 66  1  0  0  0  0
 30 67  1  0  0  0  0
 30 71  1  0  0  0  0
 31 51  1  0  0  0  0
 31 65  1  0  0  0  0
 31 66  2  0  0  0  0
 32 72  1  0  0  0  0
 32 76  2  0  0  0  0
 33 52  1  0  0  0  0
 33 73  1  0  0  0  0
 33 77  2  0  0  0  0
 34 61  1  0  0  0  0
 34 68  1  0  0  0  0
 34 78  2  0  0  0  0
 35 62  1  0  0  0  0
 35 74  1  0  0  0  0
 35 79  2  0  0  0  0
 36 69  1  0  0  0  0
 36 70  1  0  0  0  0
 36 80  2  0  0  0  0
 37 40  1  0  0  0  0
 38 52  1  0  0  0  0
 39 68  1  0  0  0  0
 40 42  1  0  0  0  0
 41 43  1  0  0  0  0
 41 45  1  0  0  0  0
 42 49  1  0  0  0  0
 43 53  1  0  0  0  0
 44 50  1  0  0  0  0
 44 54  1  0  0  0  0
 45 69  1  0  0  0  0
 46 51  1  0  0  0  0
 46 70  1  0  0  0  0
 47 51  1  0  0  0  0
 47 70  1  0  0  0  0
 48 53  1  0  0  0  0
 48 69  1  0  0  0  0
 49 73  1  0  0  0  0
 50 54  1  0  0  0  0
 52 68  1  0  0  0  0
 53 67  1  0  0  0  0
 54 82  1  0  0  0  0
 56 62  1  0  0  0  0
 57 63  1  0  0  0  0
 58 63  1  0  0  0  0
 59 63  1  0  0  0  0
 60 75  1  0  0  0  0
 61 63  1  0  0  0  0
 61 74  1  0  0  0  0
 62 75  1  0  0  0  0
 64 67  1  0  0  0  0
M  CHG  1  75   1
M  ISO  4  36 100  54 101  70 100  82 101
M  END
> <Batch ID>
0175

> <Smiles>
CNC(C)C(=O)NC(C(=O)N1Cc2cc([101O:1][101CH:1]3CC3c3cc(C)nc(C4C[100N:0]([100C:0](=O)N5CCCC(n6nc(-c7ccc(Oc8ccc(F)cc8F)cc7)c(C(N)=O)c6N)C5)C4)n3)ccc2CC1C(=O)NC1CCCc2ccccc21)C(C)(C)C

> <Shape>
0.241

> <Color>
0.084

> <Negative vol penalty>
0.000

$$$$

  -OEChem-04052322473D

 88 98  0     1  0  0  0  0  0999 V2000
  -29.9454  -34.5663   25.6155 C   0  0  0  0  0  0  0  0  0  0  0  0
  -29.4839  -33.2823   25.3436 C   0  0  0  0  0  0  0  0  0  0  0  0
  -23.2686  -10.1825   21.9924 C   0  0  0  0  0  0  0  0  0  0  0  0
  -24.8576   -8.6565   21.0007 C   0  0  0  0  0  0  0  0  0  0  0  0
  -29.0426  -35.6243   25.7128 C   0  0  0  0  0  0  0  0  0  0  0  0
  -28.1191  -33.0555   25.1699 C   0  0  0  0  0  0  0  0  0  0  0  0
  -27.1348  -30.0805   21.1918 C   0  0  0  0  0  0  0  0  0  0  0  0
  -22.2586   -9.2337   21.8341 C   0  0  0  0  0  0  0  0  0  0  0  0
  -23.8476   -7.7076   20.8424 C   0  0  0  0  0  0  0  0  0  0  0  0
  -27.3342  -28.7105   21.3564 C   0  0  0  0  0  0  0  0  0  0  0  0
  -21.7633   -4.7477   20.5066 C   0  0  0  0  0  0  0  0  0  0  0  0
  -22.0489   -3.4298   20.8633 C   0  0  0  0  0  0  0  0  0  0  0  0
  -24.9647  -28.4126   21.6965 C   0  0  0  0  0  0  0  0  0  0  0  0
  -26.0894  -22.4199   23.6407 C   0  0  0  0  0  0  0  0  0  0  0  0
  -22.5022   -4.1409   23.1273 C   0  0  0  0  0  0  0  0  0  0  0  0
  -24.5682   -9.8940   21.5756 C   0  0  0  0  0  0  0  0  0  0  0  0
  -26.4607  -11.0352   22.8498 C   0  0  0  0  0  0  0  0  0  0  0  0
  -27.6670  -35.4119   25.5308 C   0  0  0  0  0  0  0  0  0  0  0  0
  -25.8480  -30.6293   21.2892 C   0  0  0  0  0  0  0  0  0  0  0  0
  -27.1968  -34.1114   25.2663 C   0  0  0  0  0  0  0  0  0  0  0  0
  -24.7512  -29.7895   21.5301 C   0  0  0  0  0  0  0  0  0  0  0  0
  -25.7117  -23.7495   23.4898 C   0  0  0  0  0  0  0  0  0  0  0  0
  -25.6875  -24.3199   22.2219 C   0  0  0  0  0  0  0  0  0  0  0  0
  -22.5480   -7.9962   21.2591 C   0  0  0  0  0  0  0  0  0  0  0  0
  -26.2495  -27.8767   21.6117 C   0  0  0  0  0  0  0  0  0  0  0  0
  -21.8473   -5.7622   21.4602 C   0  0  0  0  0  0  0  0  0  0  0  0
  -22.4183   -3.1264   22.1736 C   0  0  0  0  0  0  0  0  0  0  0  0
  -22.2167   -5.4588   22.7706 C   0  0  0  0  0  0  0  0  0  0  0  0
  -25.6119  -10.8739   21.7384 C   0  0  0  0  0  0  0  0  0  0  0  0
  -26.4310  -21.7094   22.5013 C   0  0  0  0  0  0  0  0  0  0  0  0
  -26.0473  -23.5244   21.1461 C   0  0  0  0  0  0  0  0  0  0  0  0
  -27.2689  -12.0937   22.5139 C   0  0  0  0  0  0  0  0  0  0  0  0
  -26.5140  -10.2944   24.0762 C   0  0  0  0  0  0  0  0  0  0  0  0
  -24.4501  -32.7426   23.2085 C   0  0  0  0  0  0  0  0  0  0  0  0
  -21.9678  -32.3851   21.1511 C   0  0  0  0  0  0  0  0  0  0  0  0
  -20.3737  -30.4395   18.8445 C   0  0  0  0  0  0  0  0  0  0  0  0
  -28.1304  -17.0691   20.3867 C   0  0  0  0  0  0  0  0  0  0  0  0
  -26.7247  -36.5785   25.6923 C   0  0  0  0  0  0  0  0  0  0  0  0
  -25.6462  -32.1054   21.0826 C   0  0  0  0  0  0  0  0  0  0  0  0
  -23.3471  -30.3262   21.6240 C   0  0  0  0  0  0  0  0  0  0  0  0
  -25.3318  -36.3196   25.1241 C   0  0  0  0  0  0  0  0  0  0  0  0
  -25.8361  -25.4066   26.6820 C   0  0  0  0  0  0  0  0  0  0  0  0
  -27.9292  -14.4764   18.1095 C   0  0  0  0  0  0  0  0  0  0  0  0
  -25.5547  -23.9766   26.1830 C   0  0  0  0  0  0  0  0  0  0  0  0
  -26.2509  -25.7453   25.2372 C   0  0  0  0  0  0  0  0  0  0  0  0
  -24.8203  -34.9524   25.5668 C   0  0  0  0  0  0  0  0  0  0  0  0
  -27.3792  -13.3117   18.9325 C   0  0  0  0  0  0  0  0  0  0  0  0
  -25.8862  -19.3121   21.8868 C   0  0  0  0  0  0  0  0  0  0  0  0
  -28.2985  -20.0302   22.1606 C   0  0  0  0  0  0  0  0  0  0  0  0
  -27.2294  -15.7805   18.4739 C   0  0  0  0  0  0  0  0  0  0  0  0
  -26.3323  -17.8509   21.9918 C   0  0  0  0  0  0  0  0  0  0  0  0
  -28.6830  -18.5588   22.2851 C   0  0  0  0  0  0  0  0  0  0  0  0
  -26.7623  -14.9673   20.7627 C   0  0  0  0  0  0  0  0  0  0  0  0
  -25.3130  -24.5911   24.7710 C   0  0  0  0  0  0  0  0  0  0  0  0
  -25.7262  -33.8296   25.0471 C   0  0  1  0  0  0  0  0  0  0  0  0
  -26.8493  -20.2567   22.6282 C   0  0  0  0  0  0  0  0  0  0  0  0
  -24.3585  -32.6265   21.7132 C   0  0  1  0  0  0  0  0  0  0  0  0
  -27.4415  -13.6210   20.4388 C   0  0  1  0  0  0  0  0  0  0  0  0
  -26.0395  -24.0817   19.7599 C   0  0  0  0  0  0  0  0  0  0  0  0
  -18.3480  -30.3993   17.3639 C   0  0  0  0  0  0  0  0  0  0  0  0
  -20.2148  -31.7653   23.5703 C   0  0  0  0  0  0  0  0  0  0  0  0
  -18.5047  -30.8243   22.0025 C   0  0  0  0  0  0  0  0  0  0  0  0
  -19.1411  -33.2315   21.8522 C   0  0  0  0  0  0  0  0  0  0  0  0
  -22.0249  -30.2708   16.3942 C   0  0  0  0  0  0  0  0  0  0  0  0
  -25.2860  -25.7435   22.0325 C   0  0  0  0  0  0  0  0  0  1  0  0
  -20.7726  -31.4669   21.0671 C   0  0  1  0  0  0  0  0  0  0  0  0
  -19.8223  -30.7581   17.4665 C   0  0  2  0  0  0  0  0  0  0  0  0
  -19.6849  -31.8118   22.1232 C   0  0  0  0  0  0  0  0  0  0  0  0
  -25.8578  -11.7592   20.7690 N   0  0  0  0  0  0  0  0  0  0  0  0
  -26.4197  -22.2292   21.2534 N   0  0  0  0  0  0  0  0  0  0  0  0
  -26.8702  -12.4870   21.2702 N   0  0  0  0  0  0  0  0  0  0  0  0
  -23.2021  -31.7771   21.4210 N   0  0  0  0  0  0  0  0  0  0  0  0
  -27.3075  -16.0366   19.9120 N   0  0  0  0  0  0  0  0  0  0  0  0
  -27.7332  -17.7044   21.5729 N   0  0  0  0  0  0  0  0  0  0  0  0
  -28.2744  -12.7172   23.1639 N   0  0  0  0  0  0  0  0  0  0  0  0
  -25.6115   -9.2376   24.2581 N   0  0  0  0  0  0  0  0  0  0  0  0
  -25.4625  -33.5745   23.6472 N   0  0  0  0  0  0  0  0  0  0  0  0
  -20.3059  -31.5295   19.6863 N   0  0  0  0  0  0  0  0  0  0  0  0
  -20.5651  -29.9968   16.4227 N   0  3  0  0  0  0  0  0  0  0  0  0
  -27.3265  -10.5721   24.9906 O   0  0  0  0  0  0  0  0  0  0  0  0
  -23.6598  -32.1244   23.9120 O   0  0  0  0  0  0  0  0  0  0  0  0
  -21.8133  -33.5964   20.9763 O   0  0  0  0  0  0  0  0  0  0  0  0
  -20.8166  -29.3332   19.1454 O   0  0  0  0  0  0  0  0  0  0  0  0
  -29.1598  -17.4036   19.7871 O   0  0  0  0  0  0  0  0  0  0  0  0
  -21.5627   -7.0700   21.1047 O   0  0  0  0  0  0  0  0  0  0  0  0
  -26.4427  -26.5301   21.7746 O   0  0  0  0  0  0  0  0  0  1  0  0
  -22.6910   -1.8606   22.5164 F   0  0  0  0  0  0  0  0  0  0  0  0
  -22.2979   -6.4290   23.6914 F   0  0  0  0  0  0  0  0  0  0  0  0
  1  2  1  0  0  0  0
  1  5  2  0  0  0  0
  2  6  2  0  0  0  0
  3  8  2  0  0  0  0
  3 16  1  0  0  0  0
  4  9  1  0  0  0  0
  4 16  2  0  0  0  0
  5 18  1  0  0  0  0
  6 20  1  0  0  0  0
  7 10  2  0  0  0  0
  7 19  1  0  0  0  0
  8 24  1  0  0  0  0
  9 24  2  0  0  0  0
 10 25  1  0  0  0  0
 11 12  2  0  0  0  0
 11 26  1  0  0  0  0
 12 27  1  0  0  0  0
 13 21  1  0  0  0  0
 13 25  2  0  0  0  0
 14 22  2  0  0  0  0
 14 30  1  0  0  0  0
 15 27  2  0  0  0  0
 15 28  1  0  0  0  0
 16 29  1  0  0  0  0
 17 29  1  0  0  0  0
 17 32  2  0  0  0  0
 17 33  1  0  0  0  0
 18 20  2  0  0  0  0
 18 38  1  0  0  0  0
 19 21  2  0  0  0  0
 19 39  1  0  0  0  0
 20 55  1  0  0  0  0
 21 40  1  0  0  0  0
 22 23  1  0  0  0  0
 22 54  1  0  0  0  0
 23 31  2  0  0  0  0
 23 65  1  0  0  0  0
 24 85  1  0  0  0  0
 25 86  1  0  0  0  0
 26 28  2  0  0  0  0
 26 85  1  0  0  0  0
 27 87  1  0  0  0  0
 28 88  1  0  0  0  0
 29 69  2  0  0  0  0
 30 56  1  0  0  0  0
 30 70  2  0  0  0  0
 31 59  1  0  0  0  0
 31 70  1  0  0  0  0
 32 71  1  0  0  0  0
 32 75  1  0  0  0  0
 33 76  1  0  0  0  0
 33 80  2  0  0  0  0
 34 57  1  0  0  0  0
 34 77  1  0  0  0  0
 34 81  2  0  0  0  0
 35 66  1  0  0  0  0
 35 72  1  0  0  0  0
 35 82  2  0  0  0  0
 36 67  1  0  0  0  0
 36 78  1  0  0  0  0
 36 83  2  0  0  0  0
 37 73  1  0  0  0  0
 37 74  1  0  0  0  0
 37 84  2  0  0  0  0
 38 41  1  0  0  0  0
 39 57  1  0  0  0  0
 40 72  1  0  0  0  0
 41 46  1  0  0  0  0
 42 44  1  0  0  0  0
 42 45  1  0  0  0  0
 43 47  1  0  0  0  0
 43 50  1  0  0  0  0
 44 54  1  0  0  0  0
 45 54  1  0  0  0  0
 46 55  1  0  0  0  0
 47 58  1  0  0  0  0
 48 51  1  0  0  0  0
 48 56  1  0  0  0  0
 49 52  1  0  0  0  0
 49 56  1  0  0  0  0
 50 73  1  0  0  0  0
 51 74  1  0  0  0  0
 52 74  1  0  0  0  0
 53 58  1  0  0  0  0
 53 73  1  0  0  0  0
 55 77  1  0  0  0  0
 57 72  1  0  0  0  0
 58 71  1  0  0  0  0
 60 67  1  0  0  0  0
 61 68  1  0  0  0  0
 62 68  1  0  0  0  0
 63 68  1  0  0  0  0
 64 79  1  0  0  0  0
 65 86  1  0  0  0  0
 66 68  1  0  0  0  0
 66 78  1  0  0  0  0
 67 79  1  0  0  0  0
 69 71  1  0  0  0  0
M  CHG  1  79   1
M  ISO  4  37 100  65 101  74 100  86 101
M  END
> <Batch ID>
0175

> <Smiles>
CNC(C)C(=O)NC(C(=O)N1Cc2cc([101O:1][101CH2:1]c3c(C4CCC4)cc(C4CC[100N:0]([100C:0](=O)N5CCCC(n6nc(-c7ccc(Oc8ccc(F)cc8F)cc7)c(C(N)=O)c6N)C5)CC4)nc3C)ccc2CC1C(=O)NC1CCCc2ccccc21)C(C)(C)C

> <Shape>
0.214

> <Color>
0.094

> <Negative vol penalty>
0.000

$$$$

  -OEChem-04052322473D

 92101  0     1  0  0  0  0  0999 V2000
  -27.8984  -17.1818   18.4466 C   0  0  0  0  0  0  0  0  0  0  0  0
  -26.9246  -18.1617   18.2825 C   0  0  0  0  0  0  0  0  0  0  0  0
  -24.5946  -15.3802   19.3372 C   0  0  0  0  0  0  0  0  0  0  0  0
  -23.6293  -14.6118   21.4144 C   0  0  0  0  0  0  0  0  0  0  0  0
  -28.9355  -17.3770   19.3578 C   0  0  0  0  0  0  0  0  0  0  0  0
  -26.9868  -19.3370   19.0303 C   0  0  0  0  0  0  0  0  0  0  0  0
  -25.4427  -26.3187   18.5962 C   0  0  0  0  0  0  0  0  0  0  0  0
  -25.4519  -14.2799   19.3286 C   0  0  0  0  0  0  0  0  0  0  0  0
  -24.4866  -13.5115   21.4058 C   0  0  0  0  0  0  0  0  0  0  0  0
  -24.7535  -27.3144   19.2872 C   0  0  0  0  0  0  0  0  0  0  0  0
  -28.3285  -13.3524   20.8417 C   0  0  0  0  0  0  0  0  0  0  0  0
  -29.6698  -13.5794   20.5337 C   0  0  0  0  0  0  0  0  0  0  0  0
  -22.3006  -23.2575   26.7570 C   0  0  0  0  0  0  0  0  0  0  0  0
  -26.6351  -27.5765   20.7739 C   0  0  0  0  0  0  0  0  0  0  0  0
  -22.4863  -22.7184   29.1048 C   0  0  0  0  0  0  0  0  0  0  0  0
  -29.4861  -12.0925   18.6383 C   0  0  0  0  0  0  0  0  0  0  0  0
  -23.6833  -15.5461   20.3801 C   0  0  0  0  0  0  0  0  0  0  0  0
  -21.5120  -16.7635   19.8224 C   0  0  0  0  0  0  0  0  0  0  0  0
  -29.0158  -18.5594   20.1101 C   0  0  0  0  0  0  0  0  0  0  0  0
  -26.7311  -25.9362   18.9962 C   0  0  0  0  0  0  0  0  0  0  0  0
  -28.0253  -19.5476   19.9534 C   0  0  0  0  0  0  0  0  0  0  0  0
  -20.9252  -23.4350   26.9065 C   0  0  0  0  0  0  0  0  0  0  0  0
  -27.3395  -26.5775   20.0847 C   0  0  0  0  0  0  0  0  0  0  0  0
  -23.0812  -22.8992   27.8561 C   0  0  0  0  0  0  0  0  0  0  0  0
  -21.1108  -22.8960   29.2543 C   0  0  0  0  0  0  0  0  0  0  0  0
  -20.3303  -23.2543   28.1551 C   0  0  0  0  0  0  0  0  0  0  0  0
  -25.3979  -13.3456   20.3629 C   0  0  0  0  0  0  0  0  0  0  0  0
  -25.3486  -27.9414   20.3780 C   0  0  0  0  0  0  0  0  0  0  0  0
  -27.5659  -12.4954   20.0480 C   0  0  0  0  0  0  0  0  0  0  0  0
  -30.2486  -12.9494   19.4319 C   0  0  0  0  0  0  0  0  0  0  0  0
  -28.1448  -11.8655   18.9463 C   0  0  0  0  0  0  0  0  0  0  0  0
  -22.7978  -16.6827   20.3898 C   0  0  0  0  0  0  0  0  0  0  0  0
  -21.0932  -18.0415   20.1015 C   0  0  0  0  0  0  0  0  0  0  0  0
  -20.7631  -15.7720   19.1071 C   0  0  0  0  0  0  0  0  0  0  0  0
  -28.0443  -23.2412   20.0529 C   0  0  0  0  0  0  0  0  0  0  0  0
  -30.7919  -24.9511   19.8314 C   0  0  0  0  0  0  0  0  0  0  0  0
  -32.3047  -28.0098   19.7806 C   0  0  0  0  0  0  0  0  0  0  0  0
  -20.6225  -21.9780   24.0960 C   0  0  0  0  0  0  0  0  0  0  0  0
  -30.1292  -18.7049   21.1170 C   0  0  0  0  0  0  0  0  0  0  0  0
  -27.4717  -24.8791   18.2238 C   0  0  0  0  0  0  0  0  0  0  0  0
  -28.7287  -26.2176   20.5418 C   0  0  0  0  0  0  0  0  0  0  0  0
  -30.3313  -20.1393   21.5987 C   0  0  0  0  0  0  0  0  0  0  0  0
  -23.6268  -22.0262   21.9031 C   0  0  0  0  0  0  0  0  0  0  0  0
  -28.9918  -20.7770   21.9534 C   0  0  0  0  0  0  0  0  0  0  0  0
  -23.5893  -20.6152   21.3142 C   0  0  0  0  0  0  0  0  0  0  0  0
  -19.9820  -25.3472   25.5292 C   0  0  0  0  0  0  0  0  0  0  0  0
  -22.9951  -22.0565   23.2887 C   0  0  0  0  0  0  0  0  0  0  0  0
  -21.5480  -20.1325   22.7458 C   0  0  0  0  0  0  0  0  0  0  0  0
  -20.0989  -23.8238   25.6950 C   0  0  1  0  0  0  0  0  0  0  0  0
  -28.0722  -20.8467   20.7283 C   0  0  1  0  0  0  0  0  0  0  0  0
  -28.5768  -24.2101   19.0354 C   0  0  1  0  0  0  0  0  0  0  0  0
  -22.1611  -20.0406   21.3380 C   0  0  2  0  0  0  0  0  0  0  0  0
  -21.0116  -25.6612   24.4500 C   0  0  1  0  0  0  0  0  0  0  0  0
  -20.9383  -24.4622   23.4999 C   0  0  2  0  0  0  0  0  0  0  0  0
  -24.5519  -22.7104   27.6968 C   0  0  0  0  0  0  0  0  0  0  0  0
  -20.4985  -22.6964   30.6021 C   0  0  0  0  0  0  0  0  0  0  0  0
  -18.8555  -23.4446   28.3155 C   0  0  0  0  0  0  0  0  0  0  0  0
  -19.8410  -24.5453   22.4334 C   0  0  0  0  0  0  0  0  0  0  0  0
  -34.5661  -29.0867   19.6267 C   0  0  0  0  0  0  0  0  0  0  0  0
  -19.3682  -29.8668   23.8893 C   0  0  0  0  0  0  0  0  0  0  0  0
  -31.3391  -24.2124   22.7408 C   0  0  0  0  0  0  0  0  0  0  0  0
  -33.0486  -26.0402   22.8106 C   0  0  0  0  0  0  0  0  0  0  0  0
  -33.3422  -24.1194   21.2464 C   0  0  0  0  0  0  0  0  0  0  0  0
  -31.5935  -29.4145   17.2746 C   0  0  0  0  0  0  0  0  0  0  0  0
  -22.7476  -29.4146   22.3907 C   0  0  0  0  0  0  0  0  0  0  0  0
  -21.1209  -28.1527   24.6009 C   0  0  0  0  0  0  0  0  0  0  0  0
  -23.2553  -28.8207   21.0858 C   0  0  0  0  0  0  0  0  0  1  0  0
  -31.5675  -25.8533   20.7606 C   0  0  1  0  0  0  0  0  0  0  0  0
  -33.3505  -28.6011   18.8526 C   0  0  2  0  0  0  0  0  0  0  0  0
  -20.8338  -29.4459   23.8387 C   0  0  1  0  0  0  0  0  0  0  0  0
  -32.2974  -25.0620   21.8825 C   0  0  0  0  0  0  0  0  0  0  0  0
  -23.1713  -17.8190   20.9843 N   0  0  0  0  0  0  0  0  0  0  0  0
  -22.1140  -18.6259   20.7919 N   0  0  0  0  0  0  0  0  0  0  0  0
  -29.4095  -25.1736   19.7582 N   0  0  0  0  0  0  0  0  0  0  0  0
  -21.6409  -21.4967   23.2654 N   0  0  0  0  0  0  0  0  0  0  0  0
  -20.6677  -23.3374   24.4248 N   0  0  0  0  0  0  0  0  0  0  0  0
  -19.9550  -18.7112   19.8211 N   0  0  0  0  0  0  0  0  0  0  0  0
  -21.3423  -14.5112   18.9090 N   0  0  0  0  0  0  0  0  0  0  0  0
  -28.4645  -21.9386   19.8633 N   0  0  0  0  0  0  0  0  0  0  0  0
  -32.4537  -26.6456   19.9148 N   0  0  0  0  0  0  0  0  0  0  0  0
  -21.2899  -29.3578   22.4712 N   0  0  0  0  0  0  0  0  0  0  0  0
  -20.7233  -26.9535   23.8050 N   0  3  0  0  0  0  0  0  0  0  0  0
  -32.7818  -29.7541   18.0990 N   0  3  0  0  0  0  0  0  0  0  0  0
  -19.6209  -16.0026   18.6426 O   0  0  0  0  0  0  0  0  0  0  0  0
  -27.3079  -23.6458   20.9450 O   0  0  0  0  0  0  0  0  0  0  0  0
  -31.3915  -24.0857   19.1886 O   0  0  0  0  0  0  0  0  0  0  0  0
  -31.4442  -28.6906   20.3343 O   0  0  0  0  0  0  0  0  0  0  0  0
  -19.7101  -21.2434   24.4937 O   0  0  0  0  0  0  0  0  0  0  0  0
  -26.2342  -12.2718   20.3547 O   0  0  0  0  0  0  0  0  0  0  0  0
  -24.6731  -28.9201   21.0595 O   0  0  0  0  0  0  0  0  0  1  0  0
  -31.5363  -13.1687   19.1354 F   0  0  0  0  0  0  0  0  0  0  0  0
  -27.4169  -11.0421   18.1795 F   0  0  0  0  0  0  0  0  0  0  0  0
  1  2  1  0  0  0  0
  1  5  2  0  0  0  0
  2  6  2  0  0  0  0
  3  8  2  0  0  0  0
  3 17  1  0  0  0  0
  4  9  1  0  0  0  0
  4 17  2  0  0  0  0
  5 19  1  0  0  0  0
  6 21  1  0  0  0  0
  7 10  2  0  0  0  0
  7 20  1  0  0  0  0
  8 27  1  0  0  0  0
  9 27  2  0  0  0  0
 10 28  1  0  0  0  0
 11 12  2  0  0  0  0
 11 29  1  0  0  0  0
 12 30  1  0  0  0  0
 13 22  1  0  0  0  0
 13 24  2  0  0  0  0
 14 23  1  0  0  0  0
 14 28  2  0  0  0  0
 15 24  1  0  0  0  0
 15 25  2  0  0  0  0
 16 30  2  0  0  0  0
 16 31  1  0  0  0  0
 17 32  1  0  0  0  0
 18 32  1  0  0  0  0
 18 33  2  0  0  0  0
 18 34  1  0  0  0  0
 19 21  2  0  0  0  0
 19 39  1  0  0  0  0
 20 23  2  0  0  0  0
 20 40  1  0  0  0  0
 21 50  1  0  0  0  0
 22 26  2  0  0  0  0
 22 49  1  0  0  0  0
 23 41  1  0  0  0  0
 24 55  1  0  0  0  0
 25 26  1  0  0  0  0
 25 56  1  0  0  0  0
 26 57  1  0  0  0  0
 27 89  1  0  0  0  0
 28 90  1  0  0  0  0
 29 31  2  0  0  0  0
 29 89  1  0  0  0  0
 30 91  1  0  0  0  0
 31 92  1  0  0  0  0
 32 72  2  0  0  0  0
 33 73  1  0  0  0  0
 33 77  1  0  0  0  0
 34 78  1  0  0  0  0
 34 84  2  0  0  0  0
 35 51  1  0  0  0  0
 35 79  1  0  0  0  0
 35 85  2  0  0  0  0
 36 68  1  0  0  0  0
 36 74  1  0  0  0  0
 36 86  2  0  0  0  0
 37 69  1  0  0  0  0
 37 80  1  0  0  0  0
 37 87  2  0  0  0  0
 38 75  1  0  0  0  0
 38 76  1  0  0  0  0
 38 88  2  0  0  0  0
 39 42  1  0  0  0  0
 40 51  1  0  0  0  0
 41 74  1  0  0  0  0
 42 44  1  0  0  0  0
 43 45  1  0  0  0  0
 43 47  1  0  0  0  0
 44 50  1  0  0  0  0
 45 52  1  0  0  0  0
 46 49  1  0  0  0  0
 46 53  1  0  0  0  0
 47 75  1  0  0  0  0
 48 52  1  0  0  0  0
 48 75  1  0  0  0  0
 49 76  1  0  0  0  0
 50 79  1  0  0  0  0
 51 74  1  0  0  0  0
 52 73  1  0  0  0  0
 53 54  1  0  0  0  0
 53 82  1  0  0  0  0
 54 58  1  0  0  0  0
 54 76  1  0  0  0  0
 59 69  1  0  0  0  0
 60 70  1  0  0  0  0
 61 71  1  0  0  0  0
 62 71  1  0  0  0  0
 63 71  1  0  0  0  0
 64 83  1  0  0  0  0
 65 67  1  0  0  0  0
 65 81  1  0  0  0  0
 66 70  1  0  0  0  0
 66 82  1  0  0  0  0
 67 90  1  0  0  0  0
 68 71  1  0  0  0  0
 68 80  1  0  0  0  0
 69 83  1  0  0  0  0
 70 81  1  0  0  0  0
 72 73  1  0  0  0  0
M  CHG  2  82   1  83   1
M  ISO  4  38 100  67 101  76 100  90 101
M  END
> <Batch ID>
0175

> <Smiles>
CNC(C)C(=O)NC(C(=O)N1Cc2cc([101O:1][101CH2:1]CNC(C)CNC3CC(c4cc(C)cc(C)c4C)[100N:0]([100C:0](=O)N4CCCC(n5nc(-c6ccc(Oc7ccc(F)cc7F)cc6)c(C(N)=O)c5N)C4)C3C)ccc2CC1C(=O)NC1CCCc2ccccc21)C(C)(C)C

> <Shape>
0.229

> <Color>
0.052

> <Negative vol penalty>
0.000

$$$$

  -OEChem-04052322473D

 83 92  0     1  0  0  0  0  0999 V2000
  -30.7531  -35.5063   23.6848 C   0  0  0  0  0  0  0  0  0  0  0  0
  -30.6896  -34.6027   22.6289 C   0  0  0  0  0  0  0  0  0  0  0  0
  -24.7907  -13.5583   21.4939 C   0  0  0  0  0  0  0  0  0  0  0  0
  -26.3356  -12.0505   20.4088 C   0  0  0  0  0  0  0  0  0  0  0  0
  -30.0698  -35.2401   24.8707 C   0  0  0  0  0  0  0  0  0  0  0  0
  -29.9436  -33.4318   22.7586 C   0  0  0  0  0  0  0  0  0  0  0  0
  -25.9516  -28.9000   18.9059 C   0  0  0  0  0  0  0  0  0  0  0  0
  -23.7247  -12.7500   21.0993 C   0  0  0  0  0  0  0  0  0  0  0  0
  -25.2695  -11.2421   20.0143 C   0  0  0  0  0  0  0  0  0  0  0  0
  -25.8345  -27.5394   18.6251 C   0  0  0  0  0  0  0  0  0  0  0  0
  -23.2698   -8.9028   21.4105 C   0  0  0  0  0  0  0  0  0  0  0  0
  -23.4073   -7.5248   21.5767 C   0  0  0  0  0  0  0  0  0  0  0  0
  -24.6308  -27.2227   20.6915 C   0  0  0  0  0  0  0  0  0  0  0  0
  -23.1243   -7.2097   19.1981 C   0  0  0  0  0  0  0  0  0  0  0  0
  -26.0962  -13.2086   21.1486 C   0  0  0  0  0  0  0  0  0  0  0  0
  -27.9420  -13.9484   22.7466 C   0  0  0  0  0  0  0  0  0  0  0  0
  -29.3072  -34.0700   25.0115 C   0  0  0  0  0  0  0  0  0  0  0  0
  -25.4179  -29.4311   20.0889 C   0  0  0  0  0  0  0  0  0  0  0  0
  -29.2505  -33.1491   23.9479 C   0  0  0  0  0  0  0  0  0  0  0  0
  -24.7403  -28.5908   20.9838 C   0  0  0  0  0  0  0  0  0  0  0  0
  -26.0915  -22.4974   18.6305 C   0  0  0  0  0  0  0  0  0  0  0  0
  -25.8386  -21.1324   18.4305 C   0  0  0  0  0  0  0  0  0  0  0  0
  -25.3817  -23.4397   17.8833 C   0  0  0  0  0  0  0  0  0  0  0  0
  -23.9640  -11.5919   20.3596 C   0  0  0  0  0  0  0  0  0  0  0  0
  -25.1765  -26.7000   19.5193 C   0  0  0  0  0  0  0  0  0  0  0  0
  -23.0595   -9.4343   20.1381 C   0  0  0  0  0  0  0  0  0  0  0  0
  -23.3346   -6.6782   20.4705 C   0  0  0  0  0  0  0  0  0  0  0  0
  -22.9868   -8.5878   19.0319 C   0  0  0  0  0  0  0  0  0  0  0  0
  -27.1978  -14.0435   21.5553 C   0  0  0  0  0  0  0  0  0  0  0  0
  -24.8540  -20.7890   17.5086 C   0  0  0  0  0  0  0  0  0  0  0  0
  -24.4295  -22.9841   16.9858 C   0  0  0  0  0  0  0  0  0  0  0  0
  -28.8666  -14.9599   22.6555 C   0  0  0  0  0  0  0  0  0  0  0  0
  -27.8093  -13.0279   23.8378 C   0  0  0  0  0  0  0  0  0  0  0  0
  -26.6281  -30.9023   22.6335 C   0  0  0  0  0  0  0  0  0  0  0  0
  -23.5034  -31.2603   23.4276 C   0  0  0  0  0  0  0  0  0  0  0  0
  -20.2897  -30.1551   23.1152 C   0  0  0  0  0  0  0  0  0  0  0  0
  -29.0380  -20.1183   19.7962 C   0  0  0  0  0  0  0  0  0  0  0  0
  -28.6242  -33.8028   26.3294 C   0  0  0  0  0  0  0  0  0  0  0  0
  -25.5293  -30.9056   20.3644 C   0  0  0  0  0  0  0  0  0  0  0  0
  -27.1527  -22.9501   19.6008 C   0  0  0  0  0  0  0  0  0  0  0  0
  -24.1319  -29.1150   22.2580 C   0  0  0  0  0  0  0  0  0  0  0  0
  -26.5663  -20.0625   19.2042 C   0  0  0  0  0  0  0  0  0  0  0  0
  -27.5517  -32.7194   26.2510 C   0  0  0  0  0  0  0  0  0  0  0  0
  -31.3257  -17.5221   19.4624 C   0  0  0  0  0  0  0  0  0  0  0  0
  -28.0722  -31.5074   25.4849 C   0  0  0  0  0  0  0  0  0  0  0  0
  -30.6074  -16.3174   20.0683 C   0  0  0  0  0  0  0  0  0  0  0  0
  -27.4897  -21.8643   20.6187 C   0  0  0  0  0  0  0  0  0  0  0  0
  -30.3634  -18.3744   18.6438 C   0  0  0  0  0  0  0  0  0  0  0  0
  -28.4458  -17.6605   20.0355 C   0  0  0  0  0  0  0  0  0  0  0  0
  -28.4316  -31.8799   24.0414 C   0  0  1  0  0  0  0  0  0  0  0  0
  -25.3968  -31.2485   21.8450 C   0  0  1  0  0  0  0  0  0  0  0  0
  -29.3749  -16.7605   20.8756 C   0  0  1  0  0  0  0  0  0  0  0  0
  -24.5035  -19.3567   17.2634 C   0  0  0  0  0  0  0  0  0  0  0  0
  -23.6408  -23.9518   16.1649 C   0  0  0  0  0  0  0  0  0  0  0  0
  -17.9581  -30.6265   23.9143 C   0  0  0  0  0  0  0  0  0  0  0  0
  -24.1710  -29.9874   26.1191 C   0  0  0  0  0  0  0  0  0  0  0  0
  -21.7203  -29.6180   26.4736 C   0  0  0  0  0  0  0  0  0  0  0  0
  -22.6102  -31.9372   26.2458 C   0  0  0  0  0  0  0  0  0  0  0  0
  -19.3314  -30.6896   20.3666 C   0  0  0  0  0  0  0  0  0  0  0  0
  -25.6371  -24.9040   18.0300 C   0  0  0  0  0  0  0  0  0  1  0  0
  -22.4984  -30.4467   24.2067 C   0  0  1  0  0  0  0  0  0  0  0  0
  -18.9936  -30.8933   22.8330 C   0  0  2  0  0  0  0  0  0  0  0  0
  -22.7630  -30.4868   25.7383 C   0  0  0  0  0  0  0  0  0  0  0  0
  -27.6137  -15.0371   20.7656 N   0  0  0  0  0  0  0  0  0  0  0  0
  -24.1442  -21.6804   16.7812 N   0  0  0  0  0  0  0  0  0  0  0  0
  -28.6291  -15.5757   21.4620 N   0  0  0  0  0  0  0  0  0  0  0  0
  -24.2727  -30.5627   22.4856 N   0  0  0  0  0  0  0  0  0  0  0  0
  -27.7244  -20.5894   19.9431 N   0  0  0  0  0  0  0  0  0  0  0  0
  -29.2004  -18.7723   19.4375 N   0  0  0  0  0  0  0  0  0  0  0  0
  -29.8514  -15.3739   23.4808 N   0  0  0  0  0  0  0  0  0  0  0  0
  -26.8067  -12.0509   23.7696 N   0  0  0  0  0  0  0  0  0  0  0  0
  -27.2351  -31.9884   23.2345 N   0  0  0  0  0  0  0  0  0  0  0  0
  -21.1824  -30.9395   23.8146 N   0  0  0  0  0  0  0  0  0  0  0  0
  -18.4272  -30.4633   21.5234 N   0  3  0  0  0  0  0  0  0  0  0  0
  -28.5470  -13.0808   24.8509 O   0  0  0  0  0  0  0  0  0  0  0  0
  -26.9991  -29.7359   22.6933 O   0  0  0  0  0  0  0  0  0  0  0  0
  -23.5974  -32.4715   23.6418 O   0  0  0  0  0  0  0  0  0  0  0  0
  -20.4888  -28.9971   22.7548 O   0  0  0  0  0  0  0  0  0  0  0  0
  -30.0121  -20.8623   19.9671 O   0  0  0  0  0  0  0  0  0  0  0  0
  -22.9240  -10.8028   19.9746 O   0  0  0  0  0  0  0  0  0  0  0  0
  -25.0605  -25.3620   19.2460 O   0  0  0  0  0  0  0  0  0  1  0  0
  -23.4681   -5.3550   20.6300 F   0  0  0  0  0  0  0  0  0  0  0  0
  -22.7861   -9.0926   17.8069 F   0  0  0  0  0  0  0  0  0  0  0  0
  1  2  1  0  0  0  0
  1  5  2  0  0  0  0
  2  6  2  0  0  0  0
  3  8  2  0  0  0  0
  3 15  1  0  0  0  0
  4  9  1  0  0  0  0
  4 15  2  0  0  0  0
  5 17  1  0  0  0  0
  6 19  1  0  0  0  0
  7 10  2  0  0  0  0
  7 18  1  0  0  0  0
  8 24  1  0  0  0  0
  9 24  2  0  0  0  0
 10 25  1  0  0  0  0
 11 12  2  0  0  0  0
 11 26  1  0  0  0  0
 12 27  1  0  0  0  0
 13 20  1  0  0  0  0
 13 25  2  0  0  0  0
 14 27  2  0  0  0  0
 14 28  1  0  0  0  0
 15 29  1  0  0  0  0
 16 29  1  0  0  0  0
 16 32  2  0  0  0  0
 16 33  1  0  0  0  0
 17 19  2  0  0  0  0
 17 38  1  0  0  0  0
 18 20  2  0  0  0  0
 18 39  1  0  0  0  0
 19 50  1  0  0  0  0
 20 41  1  0  0  0  0
 21 22  1  0  0  0  0
 21 23  2  0  0  0  0
 21 40  1  0  0  0  0
 22 30  2  0  0  0  0
 22 42  1  0  0  0  0
 23 31  1  0  0  0  0
 23 60  1  0  0  0  0
 24 80  1  0  0  0  0
 25 81  1  0  0  0  0
 26 28  2  0  0  0  0
 26 80  1  0  0  0  0
 27 82  1  0  0  0  0
 28 83  1  0  0  0  0
 29 64  2  0  0  0  0
 30 53  1  0  0  0  0
 30 65  1  0  0  0  0
 31 54  1  0  0  0  0
 31 65  2  0  0  0  0
 32 66  1  0  0  0  0
 32 70  1  0  0  0  0
 33 71  1  0  0  0  0
 33 75  2  0  0  0  0
 34 51  1  0  0  0  0
 34 72  1  0  0  0  0
 34 76  2  0  0  0  0
 35 61  1  0  0  0  0
 35 67  1  0  0  0  0
 35 77  2  0  0  0  0
 36 62  1  0  0  0  0
 36 73  1  0  0  0  0
 36 78  2  0  0  0  0
 37 68  1  0  0  0  0
 37 69  1  0  0  0  0
 37 79  2  0  0  0  0
 38 43  1  0  0  0  0
 39 51  1  0  0  0  0
 40 47  1  0  0  0  0
 41 67  1  0  0  0  0
 42 68  1  0  0  0  0
 43 45  1  0  0  0  0
 44 46  1  0  0  0  0
 44 48  1  0  0  0  0
 45 50  1  0  0  0  0
 46 52  1  0  0  0  0
 47 68  1  0  0  0  0
 48 69  1  0  0  0  0
 49 52  1  0  0  0  0
 49 69  1  0  0  0  0
 50 72  1  0  0  0  0
 51 67  1  0  0  0  0
 52 66  1  0  0  0  0
 55 62  1  0  0  0  0
 56 63  1  0  0  0  0
 57 63  1  0  0  0  0
 58 63  1  0  0  0  0
 59 74  1  0  0  0  0
 60 81  1  0  0  0  0
 61 63  1  0  0  0  0
 61 73  1  0  0  0  0
 62 74  1  0  0  0  0
 64 66  1  0  0  0  0
M  CHG  1  74   1
M  ISO  4  37 100  60 101  68 100  81 101
M  END
> <Batch ID>
0175

> <Smiles>
CNC(C)C(=O)NC(C(=O)N1Cc2cc([101O:1][101CH2:1]c3c(C)nc(C)c4c3CC[100N:0]([100C:0](=O)N3CCCC(n5nc(-c6ccc(Oc7ccc(F)cc7F)cc6)c(C(N)=O)c5N)C3)C4)ccc2CC1C(=O)NC1CCCc2ccccc21)C(C)(C)C

> <Shape>
0.248

> <Color>
0.074

> <Negative vol penalty>
0.000

$$$$

  -OEChem-04052322473D

 85 94  0     1  0  0  0  0  0999 V2000
  -26.7489  -35.1835   23.8280 C   0  0  0  0  0  0  0  0  0  0  0  0
  -27.2256  -33.8988   23.5879 C   0  0  0  0  0  0  0  0  0  0  0  0
  -23.7615  -10.1615   21.8636 C   0  0  0  0  0  0  0  0  0  0  0  0
  -25.1220   -8.1727   22.0388 C   0  0  0  0  0  0  0  0  0  0  0  0
  -25.4016  -35.3813   24.1274 C   0  0  0  0  0  0  0  0  0  0  0  0
  -26.3554  -32.8109   23.6481 C   0  0  0  0  0  0  0  0  0  0  0  0
  -26.5444  -27.7503   20.2041 C   0  0  0  0  0  0  0  0  0  0  0  0
  -22.6221   -9.3696   21.7221 C   0  0  0  0  0  0  0  0  0  0  0  0
  -23.9825   -7.3807   21.8974 C   0  0  0  0  0  0  0  0  0  0  0  0
  -27.0549  -26.4744   20.4390 C   0  0  0  0  0  0  0  0  0  0  0  0
  -21.4186   -6.3392   23.8370 C   0  0  0  0  0  0  0  0  0  0  0  0
  -21.2731   -5.2551   24.7025 C   0  0  0  0  0  0  0  0  0  0  0  0
  -24.8594  -25.7240   21.0991 C   0  0  0  0  0  0  0  0  0  0  0  0
  -28.8945  -20.7783   22.6638 C   0  0  0  0  0  0  0  0  0  0  0  0
  -21.2417   -3.7504   22.8126 C   0  0  0  0  0  0  0  0  0  0  0  0
  -25.0115   -9.5631   22.0219 C   0  0  0  0  0  0  0  0  0  0  0  0
  -26.7442  -10.8657   23.3668 C   0  0  0  0  0  0  0  0  0  0  0  0
  -24.5125  -34.2963   24.1818 C   0  0  0  0  0  0  0  0  0  0  0  0
  -25.1874  -28.0259   20.4257 C   0  0  0  0  0  0  0  0  0  0  0  0
  -24.9952  -32.9942   23.9498 C   0  0  0  0  0  0  0  0  0  0  0  0
  -24.3336  -27.0036   20.8638 C   0  0  0  0  0  0  0  0  0  0  0  0
  -28.5634  -22.1110   22.4454 C   0  0  0  0  0  0  0  0  0  0  0  0
  -28.4567  -22.5909   21.1448 C   0  0  0  0  0  0  0  0  0  0  0  0
  -22.7325   -7.9792   21.7390 C   0  0  0  0  0  0  0  0  0  0  0  0
  -26.2130  -25.4617   20.8893 C   0  0  0  0  0  0  0  0  0  0  0  0
  -21.4755   -6.1289   22.4592 C   0  0  0  0  0  0  0  0  0  0  0  0
  -21.1847   -3.9607   24.1904 C   0  0  0  0  0  0  0  0  0  0  0  0
  -21.3871   -4.8345   21.9470 C   0  0  0  0  0  0  0  0  0  0  0  0
  -26.1891  -10.3806   22.1675 C   0  0  0  0  0  0  0  0  0  0  0  0
  -29.1072  -19.9731   21.5566 C   0  0  0  0  0  0  0  0  0  0  0  0
  -28.6892  -21.7045   20.1055 C   0  0  0  0  0  0  0  0  0  0  0  0
  -27.8459  -11.5833   22.9696 C   0  0  0  0  0  0  0  0  0  0  0  0
  -26.3034  -10.6839   24.7189 C   0  0  0  0  0  0  0  0  0  0  0  0
  -23.5804  -29.9776   22.3524 C   0  0  0  0  0  0  0  0  0  0  0  0
  -21.0263  -28.9136   20.6593 C   0  0  0  0  0  0  0  0  0  0  0  0
  -19.6529  -26.4647   18.7194 C   0  0  0  0  0  0  0  0  0  0  0  0
  -30.4127  -15.1160   19.6601 C   0  0  0  0  0  0  0  0  0  0  0  0
  -23.0744  -34.5543   24.5558 C   0  0  0  0  0  0  0  0  0  0  0  0
  -24.6469  -29.4006   20.1421 C   0  0  0  0  0  0  0  0  0  0  0  0
  -22.8650  -27.2426   21.0976 C   0  0  0  0  0  0  0  0  0  0  0  0
  -22.1423  -33.3897   24.2316 C   0  0  0  0  0  0  0  0  0  0  0  0
  -30.1576  -11.8741   18.4882 C   0  0  0  0  0  0  0  0  0  0  0  0
  -22.7517  -32.0720   24.6996 C   0  0  0  0  0  0  0  0  0  0  0  0
  -29.1490  -11.2238   19.4349 C   0  0  0  0  0  0  0  0  0  0  0  0
  -28.4054  -17.5695   21.1662 C   0  0  0  0  0  0  0  0  0  0  0  0
  -30.8620  -18.1813   21.1916 C   0  0  0  0  0  0  0  0  0  0  0  0
  -29.7324  -13.2930   18.1288 C   0  0  0  0  0  0  0  0  0  0  0  0
  -28.7925  -16.0984   21.3425 C   0  0  0  0  0  0  0  0  0  0  0  0
  -31.1890  -16.7045   21.3930 C   0  0  0  0  0  0  0  0  0  0  0  0
  -28.5198  -13.5427   20.2701 C   0  0  0  0  0  0  0  0  0  0  0  0
  -24.0774  -31.7914   23.9816 C   0  0  1  0  0  0  0  0  0  0  0  0
  -29.4688  -18.5133   21.7562 C   0  0  0  0  0  0  0  0  0  0  0  0
  -23.3534  -29.7007   20.8932 C   0  0  1  0  0  0  0  0  0  0  0  0
  -28.9051  -12.1047   20.6730 C   0  0  1  0  0  0  0  0  0  0  0  0
  -28.3311  -23.0030   23.6199 C   0  0  0  0  0  0  0  0  0  0  0  0
  -28.5880  -22.1611   18.6867 C   0  0  0  0  0  0  0  0  0  0  0  0
  -17.5353  -25.8603   17.5160 C   0  0  0  0  0  0  0  0  0  0  0  0
  -19.7263  -28.1797   23.3204 C   0  0  0  0  0  0  0  0  0  0  0  0
  -18.1019  -26.7559   22.0546 C   0  0  0  0  0  0  0  0  0  0  0  0
  -18.1771  -29.2168   21.6535 C   0  0  0  0  0  0  0  0  0  0  0  0
  -21.0228  -26.4069   16.0967 C   0  0  0  0  0  0  0  0  0  0  0  0
  -28.1006  -24.0151   20.8801 C   0  0  0  0  0  0  0  0  0  1  0  0
  -20.0585  -27.7629   20.7942 C   0  0  1  0  0  0  0  0  0  0  0  0
  -18.8978  -26.5265   17.4039 C   0  0  2  0  0  0  0  0  0  0  0  0
  -19.0440  -27.9745   21.9532 C   0  0  0  0  0  0  0  0  0  0  0  0
  -26.8810  -10.7582   21.0892 N   0  0  0  0  0  0  0  0  0  0  0  0
  -29.0127  -20.4033   20.2785 N   0  0  0  0  0  0  0  0  0  0  0  0
  -27.8821  -11.4884   21.6095 N   0  0  0  0  0  0  0  0  0  0  0  0
  -22.3854  -28.6049   20.8121 N   0  0  0  0  0  0  0  0  0  0  0  0
  -29.5073  -14.0962   19.3305 N   0  0  0  0  0  0  0  0  0  0  0  0
  -30.1454  -15.8519   20.8243 N   0  0  0  0  0  0  0  0  0  0  0  0
  -28.7774  -12.2800   23.6546 N   0  0  0  0  0  0  0  0  0  0  0  0
  -25.1525   -9.9178   24.9492 N   0  0  0  0  0  0  0  0  0  0  0  0
  -23.8328  -31.3053   22.6405 N   0  0  0  0  0  0  0  0  0  0  0  0
  -19.4412  -27.5929   19.4833 N   0  0  0  0  0  0  0  0  0  0  0  0
  -19.6702  -25.8390   16.3306 N   0  3  0  0  0  0  0  0  0  0  0  0
  -26.9027  -11.1995   25.6928 O   0  0  0  0  0  0  0  0  0  0  0  0
  -23.5290  -29.0552   23.1576 O   0  0  0  0  0  0  0  0  0  0  0  0
  -20.5929  -30.0434   20.4200 O   0  0  0  0  0  0  0  0  0  0  0  0
  -20.3568  -25.5093   19.0392 O   0  0  0  0  0  0  0  0  0  0  0  0
  -31.4023  -15.3550   18.9567 O   0  0  0  0  0  0  0  0  0  0  0  0
  -21.6208   -7.2062   21.6012 O   0  0  0  0  0  0  0  0  0  0  0  0
  -26.7123  -24.2070   21.1216 O   0  0  0  0  0  0  0  0  0  1  0  0
  -21.0466   -2.9196   25.0217 F   0  0  0  0  0  0  0  0  0  0  0  0
  -21.4424   -4.6261   20.6244 F   0  0  0  0  0  0  0  0  0  0  0  0
  1  2  1  0  0  0  0
  1  5  2  0  0  0  0
  2  6  2  0  0  0  0
  3  8  2  0  0  0  0
  3 16  1  0  0  0  0
  4  9  1  0  0  0  0
  4 16  2  0  0  0  0
  5 18  1  0  0  0  0
  6 20  1  0  0  0  0
  7 10  2  0  0  0  0
  7 19  1  0  0  0  0
  8 24  1  0  0  0  0
  9 24  2  0  0  0  0
 10 25  1  0  0  0  0
 11 12  2  0  0  0  0
 11 26  1  0  0  0  0
 12 27  1  0  0  0  0
 13 21  1  0  0  0  0
 13 25  2  0  0  0  0
 14 22  2  0  0  0  0
 14 30  1  0  0  0  0
 15 27  2  0  0  0  0
 15 28  1  0  0  0  0
 16 29  1  0  0  0  0
 17 29  1  0  0  0  0
 17 32  2  0  0  0  0
 17 33  1  0  0  0  0
 18 20  2  0  0  0  0
 18 38  1  0  0  0  0
 19 21  2  0  0  0  0
 19 39  1  0  0  0  0
 20 51  1  0  0  0  0
 21 40  1  0  0  0  0
 22 23  1  0  0  0  0
 22 55  1  0  0  0  0
 23 31  2  0  0  0  0
 23 62  1  0  0  0  0
 24 82  1  0  0  0  0
 25 83  1  0  0  0  0
 26 28  2  0  0  0  0
 26 82  1  0  0  0  0
 27 84  1  0  0  0  0
 28 85  1  0  0  0  0
 29 66  2  0  0  0  0
 30 52  1  0  0  0  0
 30 67  2  0  0  0  0
 31 56  1  0  0  0  0
 31 67  1  0  0  0  0
 32 68  1  0  0  0  0
 32 72  1  0  0  0  0
 33 73  1  0  0  0  0
 33 77  2  0  0  0  0
 34 53  1  0  0  0  0
 34 74  1  0  0  0  0
 34 78  2  0  0  0  0
 35 63  1  0  0  0  0
 35 69  1  0  0  0  0
 35 79  2  0  0  0  0
 36 64  1  0  0  0  0
 36 75  1  0  0  0  0
 36 80  2  0  0  0  0
 37 70  1  0  0  0  0
 37 71  1  0  0  0  0
 37 81  2  0  0  0  0
 38 41  1  0  0  0  0
 39 53  1  0  0  0  0
 40 69  1  0  0  0  0
 41 43  1  0  0  0  0
 42 44  1  0  0  0  0
 42 47  1  0  0  0  0
 43 51  1  0  0  0  0
 44 54  1  0  0  0  0
 45 48  1  0  0  0  0
 45 52  1  0  0  0  0
 46 49  1  0  0  0  0
 46 52  1  0  0  0  0
 47 70  1  0  0  0  0
 48 71  1  0  0  0  0
 49 71  1  0  0  0  0
 50 54  1  0  0  0  0
 50 70  1  0  0  0  0
 51 74  1  0  0  0  0
 53 69  1  0  0  0  0
 54 68  1  0  0  0  0
 57 64  1  0  0  0  0
 58 65  1  0  0  0  0
 59 65  1  0  0  0  0
 60 65  1  0  0  0  0
 61 76  1  0  0  0  0
 62 83  1  0  0  0  0
 63 65  1  0  0  0  0
 63 75  1  0  0  0  0
 64 76  1  0  0  0  0
 66 68  1  0  0  0  0
M  CHG  1  76   1
M  ISO  4  37 100  62 101  71 100  83 101
M  END
> <Batch ID>
0175

> <Smiles>
CNC(C)C(=O)NC(C(=O)N1Cc2cc([101O:1][101CH2:1]c3c(C)cc(C4CC[100N:0]([100C:0](=O)N5CCCC(n6nc(-c7ccc(Oc8ccc(F)cc8F)cc7)c(C(N)=O)c6N)C5)CC4)nc3C)ccc2CC1C(=O)NC1CCCc2ccccc21)C(C)(C)C

> <Shape>
0.322

> <Color>
0.100

> <Negative vol penalty>
0.000

$$$$

  -OEChem-04052322473D

 86 95  0     1  0  0  0  0  0999 V2000
  -26.7995  -32.9988   19.1366 C   0  0  0  0  0  0  0  0  0  0  0  0
  -27.0931  -31.6420   19.2281 C   0  0  0  0  0  0  0  0  0  0  0  0
  -23.2585   -9.8583   19.8785 C   0  0  0  0  0  0  0  0  0  0  0  0
  -23.7480   -9.9037   22.2440 C   0  0  0  0  0  0  0  0  0  0  0  0
  -25.7955  -33.5489   19.9323 C   0  0  0  0  0  0  0  0  0  0  0  0
  -26.3834  -30.8347   20.1164 C   0  0  0  0  0  0  0  0  0  0  0  0
  -24.9644  -26.4402   18.0380 C   0  0  0  0  0  0  0  0  0  0  0  0
  -22.5244   -8.6851   20.0529 C   0  0  0  0  0  0  0  0  0  0  0  0
  -23.0139   -8.7305   22.4184 C   0  0  0  0  0  0  0  0  0  0  0  0
  -25.9361  -25.4470   17.9230 C   0  0  0  0  0  0  0  0  0  0  0  0
  -19.7622   -7.8406   22.6532 C   0  0  0  0  0  0  0  0  0  0  0  0
  -18.8766   -7.7860   23.7294 C   0  0  0  0  0  0  0  0  0  0  0  0
  -25.0616  -24.3712   19.8971 C   0  0  0  0  0  0  0  0  0  0  0  0
  -30.6424  -20.3632   17.6839 C   0  0  0  0  0  0  0  0  0  0  0  0
  -20.0802   -5.8917   24.6238 C   0  0  0  0  0  0  0  0  0  0  0  0
  -23.8703  -10.4675   20.9740 C   0  0  0  0  0  0  0  0  0  0  0  0
  -24.1505  -13.0009   20.8683 C   0  0  0  0  0  0  0  0  0  0  0  0
  -25.0665  -32.7460   20.8237 C   0  0  0  0  0  0  0  0  0  0  0  0
  -24.0392  -26.4122   19.0914 C   0  0  0  0  0  0  0  0  0  0  0  0
  -25.3695  -31.3748   20.9257 C   0  0  0  0  0  0  0  0  0  0  0  0
  -24.0775  -25.3638   20.0218 C   0  0  0  0  0  0  0  0  0  0  0  0
  -28.3441  -21.0732   17.5552 C   0  0  0  0  0  0  0  0  0  0  0  0
  -29.2907  -20.0532   17.5698 C   0  0  0  0  0  0  0  0  0  0  0  0
  -22.4021   -8.1212   21.3228 C   0  0  0  0  0  0  0  0  0  0  0  0
  -25.9867  -24.4140   18.8543 C   0  0  0  0  0  0  0  0  0  0  0  0
  -20.8068   -6.9206   22.5621 C   0  0  0  0  0  0  0  0  0  0  0  0
  -19.0356   -6.8116   24.7147 C   0  0  0  0  0  0  0  0  0  0  0  0
  -20.9658   -5.9462   23.5475 C   0  0  0  0  0  0  0  0  0  0  0  0
  -24.6292  -11.6791   20.7944 C   0  0  0  0  0  0  0  0  0  0  0  0
  -31.0166  -21.6959   17.7815 C   0  0  0  0  0  0  0  0  0  0  0  0
  -28.7764  -22.3879   17.6561 C   0  0  0  0  0  0  0  0  0  0  0  0
  -25.2551  -13.7802   20.6256 C   0  0  0  0  0  0  0  0  0  0  0  0
  -22.8258  -13.4813   21.1328 C   0  0  0  0  0  0  0  0  0  0  0  0
  -23.3534  -28.3371   21.5262 C   0  0  0  0  0  0  0  0  0  0  0  0
  -20.9166  -26.2459   21.9862 C   0  0  0  0  0  0  0  0  0  0  0  0
  -19.6732  -23.1005   21.5310 C   0  0  0  0  0  0  0  0  0  0  0  0
  -29.7580  -14.6041   17.2830 C   0  0  0  0  0  0  0  0  0  0  0  0
  -24.0224  -33.3948   21.6975 C   0  0  0  0  0  0  0  0  0  0  0  0
  -22.9805  -27.4763   19.1862 C   0  0  0  0  0  0  0  0  0  0  0  0
  -23.0945  -25.2769   21.1595 C   0  0  0  0  0  0  0  0  0  0  0  0
  -23.0628  -32.3980   22.3424 C   0  0  0  0  0  0  0  0  0  0  0  0
  -30.1598  -12.5969   20.3643 C   0  0  0  0  0  0  0  0  0  0  0  0
  -23.8338  -31.2262   22.9419 C   0  0  0  0  0  0  0  0  0  0  0  0
  -28.7169  -12.2313   20.7118 C   0  0  0  0  0  0  0  0  0  0  0  0
  -30.3479  -12.8049   18.8641 C   0  0  0  0  0  0  0  0  0  0  0  0
  -28.7964  -18.0938   16.1509 C   0  0  0  0  0  0  0  0  0  0  0  0
  -29.5587  -16.7734   16.1504 C   0  0  0  0  0  0  0  0  0  0  0  0
  -27.9691  -13.4205   18.6149 C   0  0  0  0  0  0  0  0  0  0  0  0
  -28.2903  -16.4389   18.2614 C   0  0  0  0  0  0  0  0  0  0  0  0
  -24.6050  -30.4616   21.8593 C   0  0  1  0  0  0  0  0  0  0  0  0
  -22.4116  -27.6297   20.5934 C   0  0  1  0  0  0  0  0  0  0  0  0
  -27.7332  -13.2583   20.1235 C   0  0  1  0  0  0  0  0  0  0  0  0
  -28.7058  -17.8690   18.6613 C   0  0  2  0  0  0  0  0  0  0  0  0
  -26.8874  -20.7662   17.4337 C   0  0  0  0  0  0  0  0  0  0  0  0
  -32.4379  -22.1089   17.9060 C   0  0  0  0  0  0  0  0  0  0  0  0
  -27.6146  -18.4437   19.5728 C   0  0  0  0  0  0  0  0  0  0  0  0
  -17.6721  -21.6789   22.0522 C   0  0  0  0  0  0  0  0  0  0  0  0
  -21.8796  -25.9506   24.8664 C   0  0  0  0  0  0  0  0  0  0  0  0
  -20.4902  -23.8756   25.0446 C   0  0  0  0  0  0  0  0  0  0  0  0
  -19.3955  -26.0735   24.6043 C   0  0  0  0  0  0  0  0  0  0  0  0
  -19.0740  -22.6883   18.6622 C   0  0  0  0  0  0  0  0  0  0  0  0
  -27.8454  -23.5473   17.6502 C   0  0  0  0  0  0  0  0  0  1  0  0
  -20.7382  -24.9678   22.7694 C   0  0  1  0  0  0  0  0  0  0  0  0
  -18.3212  -22.6128   21.0426 C   0  0  2  0  0  0  0  0  0  0  0  0
  -20.6458  -25.2193   24.3010 C   0  0  0  0  0  0  0  0  0  0  0  0
  -25.9362  -11.6183   20.5256 N   0  0  0  0  0  0  0  0  0  0  0  0
  -26.2881  -12.9117   20.4284 N   0  0  0  0  0  0  0  0  0  0  0  0
  -30.0843  -22.6582   17.7650 N   0  3  0  0  0  0  0  0  0  0  0  0
  -28.9044  -18.7177   17.4711 N   0  0  3  0  0  0  0  0  0  0  0  0
  -22.0821  -26.3444   21.2130 N   0  0  0  0  0  0  0  0  0  0  0  0
  -29.3714  -13.7543   18.3299 N   0  0  0  0  0  0  0  0  0  0  0  0
  -29.1519  -15.8696   17.2211 N   0  0  0  0  0  0  0  0  0  0  0  0
  -25.4340  -15.1169   20.5637 N   0  0  0  0  0  0  0  0  0  0  0  0
  -21.8084  -12.5446   21.3605 N   0  0  0  0  0  0  0  0  0  0  0  0
  -23.7100  -29.6057   21.1104 N   0  0  0  0  0  0  0  0  0  0  0  0
  -19.5713  -24.3008   22.2019 N   0  0  0  0  0  0  0  0  0  0  0  0
  -18.4695  -21.8809   19.7530 N   0  3  0  0  0  0  0  0  0  0  0  0
  -22.5490  -14.7047   21.1499 O   0  0  0  0  0  0  0  0  0  0  0  0
  -23.7277  -27.7742   22.5484 O   0  0  0  0  0  0  0  0  0  0  0  0
  -20.0504  -27.1216   22.0522 O   0  0  0  0  0  0  0  0  0  0  0  0
  -20.7150  -22.4771   21.3399 O   0  0  0  0  0  0  0  0  0  0  0  0
  -30.6130  -14.2595   16.4566 O   0  0  0  0  0  0  0  0  0  0  0  0
  -21.6856   -6.9766   21.4934 O   0  0  0  0  0  0  0  0  0  0  0  0
  -26.9406  -23.4375   18.7440 O   0  0  0  0  0  0  0  0  0  1  0  0
  -18.1860   -6.7603   25.7490 F   0  0  0  0  0  0  0  0  0  0  0  0
  -21.9681   -5.0605   23.4661 F   0  0  0  0  0  0  0  0  0  0  0  0
  1  2  1  0  0  0  0
  1  5  2  0  0  0  0
  2  6  2  0  0  0  0
  3  8  2  0  0  0  0
  3 16  1  0  0  0  0
  4  9  1  0  0  0  0
  4 16  2  0  0  0  0
  5 18  1  0  0  0  0
  6 20  1  0  0  0  0
  7 10  2  0  0  0  0
  7 19  1  0  0  0  0
  8 24  1  0  0  0  0
  9 24  2  0  0  0  0
 10 25  1  0  0  0  0
 11 12  2  0  0  0  0
 11 26  1  0  0  0  0
 12 27  1  0  0  0  0
 13 21  1  0  0  0  0
 13 25  2  0  0  0  0
 14 23  2  0  0  0  0
 14 30  1  0  0  0  0
 15 27  2  0  0  0  0
 15 28  1  0  0  0  0
 16 29  1  0  0  0  0
 17 29  1  0  0  0  0
 17 32  2  0  0  0  0
 17 33  1  0  0  0  0
 18 20  2  0  0  0  0
 18 38  1  0  0  0  0
 19 21  2  0  0  0  0
 19 39  1  0  0  0  0
 20 50  1  0  0  0  0
 21 40  1  0  0  0  0
 22 23  1  0  0  0  0
 22 31  2  0  0  0  0
 22 54  1  0  0  0  0
 23 69  1  0  0  0  0
 24 83  1  0  0  0  0
 25 84  1  0  0  0  0
 26 28  2  0  0  0  0
 26 83  1  0  0  0  0
 27 85  1  0  0  0  0
 28 86  1  0  0  0  0
 29 66  2  0  0  0  0
 30 55  1  0  0  0  0
 30 68  2  0  0  0  0
 31 62  1  0  0  0  0
 31 68  1  0  0  0  0
 32 67  1  0  0  0  0
 32 73  1  0  0  0  0
 33 74  1  0  0  0  0
 33 78  2  0  0  0  0
 34 51  1  0  0  0  0
 34 75  1  0  0  0  0
 34 79  2  0  0  0  0
 35 63  1  0  0  0  0
 35 70  1  0  0  0  0
 35 80  2  0  0  0  0
 36 64  1  0  0  0  0
 36 76  1  0  0  0  0
 36 81  2  0  0  0  0
 37 71  1  0  0  0  0
 37 72  1  0  0  0  0
 37 82  2  0  0  0  0
 38 41  1  0  0  0  0
 39 51  1  0  0  0  0
 40 70  1  0  0  0  0
 41 43  1  0  0  0  0
 42 44  1  0  0  0  0
 42 45  1  0  0  0  0
 43 50  1  0  0  0  0
 44 52  1  0  0  0  0
 45 71  1  0  0  0  0
 46 47  1  0  0  0  0
 46 69  1  0  0  0  0
 47 72  1  0  0  0  0
 48 52  1  0  0  0  0
 48 71  1  0  0  0  0
 49 53  1  0  0  0  0
 49 72  1  0  0  0  0
 50 75  1  0  0  0  0
 51 70  1  0  0  0  0
 52 67  1  0  0  0  0
 53 56  1  0  0  0  0
 53 69  1  0  0  0  0
 57 64  1  0  0  0  0
 58 65  1  0  0  0  0
 59 65  1  0  0  0  0
 60 65  1  0  0  0  0
 61 77  1  0  0  0  0
 62 84  1  0  0  0  0
 63 65  1  0  0  0  0
 63 76  1  0  0  0  0
 64 77  1  0  0  0  0
 66 67  1  0  0  0  0
M  CHG  2  68   1  77   1
M  ISO  4  37 100  62 101  72 100  84 101
M  END
> <Batch ID>
0175

> <Smiles>
CNC(C)C(=O)NC(C(=O)N1Cc2cc([101O:1][101CH2:1]c3nc(C)cc(N4CC[100N:0]([100C:0](=O)N5CCCC(n6nc(-c7ccc(Oc8ccc(F)cc8F)cc7)c(C(N)=O)c6N)C5)CC4C)c3C)ccc2CC1C(=O)NC1CCCc2ccccc21)C(C)(C)C

> <Shape>
0.251

> <Color>
0.180

> <Negative vol penalty>
0.000

$$$$

  -OEChem-04052322473D

 84 93  0     1  0  0  0  0  0999 V2000
  -27.4028  -37.6602   23.6471 C   0  0  0  0  0  0  0  0  0  0  0  0
  -27.9741  -36.7155   22.8006 C   0  0  0  0  0  0  0  0  0  0  0  0
  -25.1968  -11.1939   22.8824 C   0  0  0  0  0  0  0  0  0  0  0  0
  -25.4934  -11.7504   20.5501 C   0  0  0  0  0  0  0  0  0  0  0  0
  -26.5589  -37.2505   24.6785 C   0  0  0  0  0  0  0  0  0  0  0  0
  -27.7026  -35.3603   22.9857 C   0  0  0  0  0  0  0  0  0  0  0  0
  -26.9010  -29.2723   19.2965 C   0  0  0  0  0  0  0  0  0  0  0  0
  -23.9300  -10.6833   22.5995 C   0  0  0  0  0  0  0  0  0  0  0  0
  -24.2266  -11.2397   20.2672 C   0  0  0  0  0  0  0  0  0  0  0  0
  -27.3726  -27.9606   19.2672 C   0  0  0  0  0  0  0  0  0  0  0  0
  -20.8263  -11.8953   22.0314 C   0  0  0  0  0  0  0  0  0  0  0  0
  -19.7814  -12.2456   22.8864 C   0  0  0  0  0  0  0  0  0  0  0  0
  -25.8368  -27.3755   21.0330 C   0  0  0  0  0  0  0  0  0  0  0  0
  -19.4254   -9.9133   23.4069 C   0  0  0  0  0  0  0  0  0  0  0  0
  -25.9785  -11.7275   21.8577 C   0  0  0  0  0  0  0  0  0  0  0  0
  -28.5083  -11.5556   22.1375 C   0  0  0  0  0  0  0  0  0  0  0  0
  -26.2692  -35.8904   24.8704 C   0  0  0  0  0  0  0  0  0  0  0  0
  -25.8997  -29.6486   20.2033 C   0  0  0  0  0  0  0  0  0  0  0  0
  -26.8550  -34.9319   24.0215 C   0  0  0  0  0  0  0  0  0  0  0  0
  -25.3524  -28.6919   21.0700 C   0  0  0  0  0  0  0  0  0  0  0  0
  -23.4449  -10.7062   21.2919 C   0  0  0  0  0  0  0  0  0  0  0  0
  -26.8425  -27.0127   20.1375 C   0  0  0  0  0  0  0  0  0  0  0  0
  -21.1707  -10.5539   21.8641 C   0  0  0  0  0  0  0  0  0  0  0  0
  -19.0810  -11.2547   23.5742 C   0  0  0  0  0  0  0  0  0  0  0  0
  -20.4703   -9.5630   22.5519 C   0  0  0  0  0  0  0  0  0  0  0  0
  -27.2870  -12.2557   22.1494 C   0  0  0  0  0  0  0  0  0  0  0  0
  -29.4472  -12.4975   22.4807 C   0  0  0  0  0  0  0  0  0  0  0  0
  -28.2823  -23.9768   18.8251 C   0  0  0  0  0  0  0  0  0  0  0  0
  -28.7706  -10.1773   21.8424 C   0  0  0  0  0  0  0  0  0  0  0  0
  -25.7187  -31.7086   22.6173 C   0  0  0  0  0  0  0  0  0  0  0  0
  -22.5915  -30.8468   22.6069 C   0  0  0  0  0  0  0  0  0  0  0  0
  -20.2312  -28.5160   21.8050 C   0  0  0  0  0  0  0  0  0  0  0  0
  -30.0975  -18.0956   20.9774 C   0  0  0  0  0  0  0  0  0  0  0  0
  -25.3887  -35.4920   26.0282 C   0  0  0  0  0  0  0  0  0  0  0  0
  -25.3831  -31.0613   20.2040 C   0  0  0  0  0  0  0  0  0  0  0  0
  -24.2617  -29.0402   22.0486 C   0  0  0  0  0  0  0  0  0  0  0  0
  -24.8543  -34.0658   25.9246 C   0  0  0  0  0  0  0  0  0  0  0  0
  -29.0218  -17.1345   24.4058 C   0  0  0  0  0  0  0  0  0  0  0  0
  -25.9744  -33.1023   25.5455 C   0  0  0  0  0  0  0  0  0  0  0  0
  -25.9202  -24.1292   18.9338 C   0  0  0  0  0  0  0  0  0  0  0  0
  -28.3554  -15.8459   23.9115 C   0  0  0  0  0  0  0  0  0  0  0  0
  -26.3689  -22.8349   19.6097 C   0  0  0  0  0  0  0  0  0  0  0  0
  -29.8510  -21.1619   19.3884 C   0  0  0  0  0  0  0  0  0  0  0  0
  -30.1170  -17.6430   23.4684 C   0  0  0  0  0  0  0  0  0  0  0  0
  -30.7205  -20.4177   20.3964 C   0  0  0  0  0  0  0  0  0  0  0  0
  -28.7919  -20.0610   21.8977 C   0  0  0  0  0  0  0  0  0  0  0  0
  -29.7890  -15.8076   21.8306 C   0  0  0  0  0  0  0  0  0  0  0  0
  -26.5650  -33.4546   24.1749 C   0  0  1  0  0  0  0  0  0  0  0  0
  -27.1713  -24.9985   18.9032 C   0  0  1  0  0  0  0  0  0  1  0  0
  -24.7225  -31.4552   21.5214 C   0  0  1  0  0  0  0  0  0  0  0  0
  -28.6438  -21.8189   20.0774 C   0  0  2  0  0  0  0  0  0  0  0  0
  -27.8462  -20.7988   20.9276 C   0  0  1  0  0  0  0  0  0  0  0  0
  -29.3261  -15.0092   23.0639 C   0  0  2  0  0  0  0  0  0  0  0  0
  -27.7789  -22.5595   19.0577 C   0  0  2  0  0  0  0  0  0  0  0  0
  -27.0425  -19.7915   20.0944 C   0  0  0  0  0  0  0  0  0  0  0  0
  -27.7401  -21.8114   17.7247 C   0  0  0  0  0  0  0  0  0  0  0  0
  -17.7649  -28.0777   21.9546 C   0  0  0  0  0  0  0  0  0  0  0  0
  -22.8884  -30.2028   25.5746 C   0  0  0  0  0  0  0  0  0  0  0  0
  -20.7485  -28.9105   25.4368 C   0  0  0  0  0  0  0  0  0  0  0  0
  -20.7565  -31.3602   24.9664 C   0  0  0  0  0  0  0  0  0  0  0  0
  -19.9619  -28.3651   18.8616 C   0  0  0  0  0  0  0  0  0  0  0  0
  -21.7765  -29.7719   23.2846 C   0  0  1  0  0  0  0  0  0  0  0  0
  -18.8916  -28.6396   21.1017 C   0  0  2  0  0  0  0  0  0  0  0  0
  -21.5643  -30.0549   24.7986 C   0  0  0  0  0  0  0  0  0  0  0  0
  -27.4336  -13.5428   22.4746 N   0  0  0  0  0  0  0  0  0  0  0  0
  -28.7581  -13.6590   22.6703 N   0  0  0  0  0  0  0  0  0  0  0  0
  -23.7944  -30.4359   22.0153 N   0  0  0  0  0  0  0  0  0  0  0  0
  -29.8775  -17.2501   22.0766 N   0  0  0  0  0  0  0  0  0  0  0  0
  -29.9336  -19.4718   21.1854 N   0  0  0  0  0  0  0  0  0  0  0  0
  -30.7869  -12.4370   22.6359 N   0  0  0  0  0  0  0  0  0  0  0  0
  -27.6910   -9.3484   21.5082 N   0  0  0  0  0  0  0  0  0  0  0  0
  -25.6915  -32.9972   23.1155 N   0  0  0  0  0  0  0  0  0  0  0  0
  -20.5398  -29.6540   22.5197 N   0  0  0  0  0  0  0  0  0  0  0  0
  -18.9156  -27.9000   19.8081 N   0  3  0  0  0  0  0  0  0  0  0  0
  -29.4541  -24.2685   18.6170 O   0  0  0  0  0  0  0  0  0  0  0  0
  -29.9260   -9.6912   21.8903 O   0  0  0  0  0  0  0  0  0  0  0  0
  -26.4564  -30.8017   22.9848 O   0  0  0  0  0  0  0  0  0  0  0  0
  -22.1726  -32.0070   22.5964 O   0  0  0  0  0  0  0  0  0  0  0  0
  -20.9320  -27.5090   21.7310 O   0  0  0  0  0  0  0  0  0  0  0  0
  -30.4194  -17.6422   19.8716 O   0  0  0  0  0  0  0  0  0  0  0  0
  -22.2089  -10.2078   21.0155 O   0  0  0  0  0  0  0  0  0  0  0  0
  -27.3076  -25.7147   20.1111 O   0  0  0  0  0  0  0  0  0  1  0  0
  -18.0786  -11.5914   24.3964 F   0  0  0  0  0  0  0  0  0  0  0  0
  -20.7973   -8.2728   22.3961 F   0  0  0  0  0  0  0  0  0  0  0  0
  1  2  1  0  0  0  0
  1  5  2  0  0  0  0
  2  6  2  0  0  0  0
  3  8  2  0  0  0  0
  3 15  1  0  0  0  0
  4  9  1  0  0  0  0
  4 15  2  0  0  0  0
  5 17  1  0  0  0  0
  6 19  1  0  0  0  0
  7 10  2  0  0  0  0
  7 18  1  0  0  0  0
  8 21  1  0  0  0  0
  9 21  2  0  0  0  0
 10 22  1  0  0  0  0
 11 12  2  0  0  0  0
 11 23  1  0  0  0  0
 12 24  1  0  0  0  0
 13 20  1  0  0  0  0
 13 22  2  0  0  0  0
 14 24  2  0  0  0  0
 14 25  1  0  0  0  0
 15 26  1  0  0  0  0
 16 26  1  0  0  0  0
 16 27  2  0  0  0  0
 16 29  1  0  0  0  0
 17 19  2  0  0  0  0
 17 34  1  0  0  0  0
 18 20  2  0  0  0  0
 18 35  1  0  0  0  0
 19 48  1  0  0  0  0
 20 36  1  0  0  0  0
 21 81  1  0  0  0  0
 22 82  1  0  0  0  0
 23 25  2  0  0  0  0
 23 81  1  0  0  0  0
 24 83  1  0  0  0  0
 25 84  1  0  0  0  0
 26 65  2  0  0  0  0
 27 66  1  0  0  0  0
 27 70  1  0  0  0  0
 28 49  1  0  0  0  0
 28 54  1  0  0  0  0
 28 75  2  0  0  0  0
 29 71  1  0  0  0  0
 29 76  2  0  0  0  0
 30 50  1  0  0  0  0
 30 72  1  0  0  0  0
 30 77  2  0  0  0  0
 31 62  1  0  0  0  0
 31 67  1  0  0  0  0
 31 78  2  0  0  0  0
 32 63  1  0  0  0  0
 32 73  1  0  0  0  0
 32 79  2  0  0  0  0
 33 68  1  0  0  0  0
 33 69  1  0  0  0  0
 33 80  2  0  0  0  0
 34 37  1  0  0  0  0
 35 50  1  0  0  0  0
 36 67  1  0  0  0  0
 37 39  1  0  0  0  0
 38 41  1  0  0  0  0
 38 44  1  0  0  0  0
 39 48  1  0  0  0  0
 40 42  1  0  0  0  0
 40 49  1  0  0  0  0
 41 53  1  0  0  0  0
 42 54  1  0  0  0  0
 43 45  1  0  0  0  0
 43 51  1  0  0  0  0
 44 68  1  0  0  0  0
 45 69  1  0  0  0  0
 46 52  1  0  0  0  0
 46 69  1  0  0  0  0
 47 53  1  0  0  0  0
 47 68  1  0  0  0  0
 48 72  1  0  0  0  0
 49 82  1  0  0  0  0
 50 67  1  0  0  0  0
 51 52  1  0  0  0  0
 51 54  1  0  0  0  0
 52 55  1  0  0  0  0
 53 66  1  0  0  0  0
 54 56  1  0  0  0  0
 57 63  1  0  0  0  0
 58 64  1  0  0  0  0
 59 64  1  0  0  0  0
 60 64  1  0  0  0  0
 61 74  1  0  0  0  0
 62 64  1  0  0  0  0
 62 73  1  0  0  0  0
 63 74  1  0  0  0  0
 65 66  1  0  0  0  0
M  CHG  1  74   1
M  ISO  4  33 100  49 101  69 100  82 101
M  END
> <Batch ID>
0175

> <Smiles>
CNC(C)C(=O)NC(C(=O)N1Cc2cc([101O:1][101CH:1]3CCC(C)(C4CC[100N:0]([100C:0](=O)N5CCCC(n6nc(-c7ccc(Oc8ccc(F)cc8F)cc7)c(C(N)=O)c6N)C5)CC4C)C3=O)ccc2CC1C(=O)NC1CCCc2ccccc21)C(C)(C)C

> <Shape>
0.285

> <Color>
0.073

> <Negative vol penalty>
0.000

$$$$

  -OEChem-04052322473D

 87 96  0     1  0  0  0  0  0999 V2000
  -39.4394  -27.8473   20.0566 C   0  0  0  0  0  0  0  0  0  0  0  0
  -39.0889  -26.5710   20.4851 C   0  0  0  0  0  0  0  0  0  0  0  0
  -23.0484   -9.8840   20.0678 C   0  0  0  0  0  0  0  0  0  0  0  0
  -23.7864  -10.0143   22.3646 C   0  0  0  0  0  0  0  0  0  0  0  0
  -38.4987  -28.8757   20.0907 C   0  0  0  0  0  0  0  0  0  0  0  0
  -37.7975  -26.3226   20.9489 C   0  0  0  0  0  0  0  0  0  0  0  0
  -35.8546  -22.0341   19.0839 C   0  0  0  0  0  0  0  0  0  0  0  0
  -22.2660   -8.7729   20.3822 C   0  0  0  0  0  0  0  0  0  0  0  0
  -23.0040   -8.9032   22.6790 C   0  0  0  0  0  0  0  0  0  0  0  0
  -36.2831  -20.8382   19.6584 C   0  0  0  0  0  0  0  0  0  0  0  0
  -20.9209   -6.3202   24.1645 C   0  0  0  0  0  0  0  0  0  0  0  0
  -20.1526   -6.3752   25.3274 C   0  0  0  0  0  0  0  0  0  0  0  0
  -34.2599  -20.7498   20.9691 C   0  0  0  0  0  0  0  0  0  0  0  0
  -18.9770   -8.2993   24.4597 C   0  0  0  0  0  0  0  0  0  0  0  0
  -23.8086  -10.5048   21.0590 C   0  0  0  0  0  0  0  0  0  0  0  0
  -24.2314  -13.0052   20.7822 C   0  0  0  0  0  0  0  0  0  0  0  0
  -37.1923  -28.6376   20.5461 C   0  0  0  0  0  0  0  0  0  0  0  0
  -34.6284  -22.6034   19.4564 C   0  0  0  0  0  0  0  0  0  0  0  0
  -36.8388  -27.3492   20.9904 C   0  0  0  0  0  0  0  0  0  0  0  0
  -33.8169  -21.9516   20.3959 C   0  0  0  0  0  0  0  0  0  0  0  0
  -36.9708  -15.7392   19.7643 C   0  0  0  0  0  0  0  0  0  0  0  0
  -22.2438   -8.2825   21.6878 C   0  0  0  0  0  0  0  0  0  0  0  0
  -35.4871  -20.1974   20.6033 C   0  0  0  0  0  0  0  0  0  0  0  0
  -20.7173   -7.2548   23.1492 C   0  0  0  0  0  0  0  0  0  0  0  0
  -19.1807   -7.3647   25.4750 C   0  0  0  0  0  0  0  0  0  0  0  0
  -19.7453   -8.2443   23.2968 C   0  0  0  0  0  0  0  0  0  0  0  0
  -24.6174  -11.6523   20.7347 C   0  0  0  0  0  0  0  0  0  0  0  0
  -38.2793  -15.6716   19.3310 C   0  0  0  0  0  0  0  0  0  0  0  0
  -36.0994  -14.8471   19.1735 C   0  0  0  0  0  0  0  0  0  0  0  0
  -25.3501  -13.6957   20.3844 C   0  0  0  0  0  0  0  0  0  0  0  0
  -37.7691  -13.9861   17.8937 C   0  0  0  0  0  0  0  0  0  0  0  0
  -22.9740  -13.5859   21.1528 C   0  0  0  0  0  0  0  0  0  0  0  0
  -33.7462  -25.3340   20.8235 C   0  0  0  0  0  0  0  0  0  0  0  0
  -30.7611  -24.2414   20.1770 C   0  0  0  0  0  0  0  0  0  0  0  0
  -28.7201  -21.5739   19.5723 C   0  0  0  0  0  0  0  0  0  0  0  0
  -30.6254  -14.7004   20.4584 C   0  0  0  0  0  0  0  0  0  0  0  0
  -36.2237  -29.7919   20.6089 C   0  0  0  0  0  0  0  0  0  0  0  0
  -34.1681  -23.8800   18.8076 C   0  0  0  0  0  0  0  0  0  0  0  0
  -32.4827  -22.5109   20.8150 C   0  0  0  0  0  0  0  0  0  0  0  0
  -34.7682  -29.3581   20.7626 C   0  0  0  0  0  0  0  0  0  0  0  0
  -29.6691  -12.0806   18.3225 C   0  0  0  0  0  0  0  0  0  0  0  0
  -34.6409  -28.2902   21.8444 C   0  0  0  0  0  0  0  0  0  0  0  0
  -28.2264  -11.8389   18.7654 C   0  0  0  0  0  0  0  0  0  0  0  0
  -30.5952  -12.3511   19.5094 C   0  0  0  0  0  0  0  0  0  0  0  0
  -33.8094  -15.7346   18.8632 C   0  0  0  0  0  0  0  0  0  0  0  0
  -34.2068  -13.6478   20.1797 C   0  0  0  0  0  0  0  0  0  0  0  0
  -32.5754  -16.0160   19.7163 C   0  0  0  0  0  0  0  0  0  0  0  0
  -32.9745  -13.9724   21.0168 C   0  0  0  0  0  0  0  0  0  0  0  0
  -28.6900  -13.2013   20.8381 C   0  0  0  0  0  0  0  0  0  0  0  0
  -35.4408  -27.0346   21.4770 C   0  0  1  0  0  0  0  0  0  0  0  0
  -33.1373  -24.6357   19.6406 C   0  0  1  0  0  0  0  0  0  0  0  0
  -27.7247  -12.9844   19.6624 C   0  0  2  0  0  0  0  0  0  0  0  0
  -39.3132  -16.5877   19.8984 C   0  0  0  0  0  0  0  0  0  0  0  0
  -38.2124  -13.0125   16.8550 C   0  0  0  0  0  0  0  0  0  0  0  0
  -37.2412  -16.4768   22.1548 C   0  0  0  0  0  0  0  0  0  0  0  0
  -26.3218  -20.9917   19.1179 C   0  0  0  0  0  0  0  0  0  0  0  0
  -30.1011  -24.6702   23.1249 C   0  0  0  0  0  0  0  0  0  0  0  0
  -28.0841  -23.2203   22.8124 C   0  0  0  0  0  0  0  0  0  0  0  0
  -28.2918  -25.3560   21.5403 C   0  0  0  0  0  0  0  0  0  0  0  0
  -29.3815  -20.4113   16.9322 C   0  0  0  0  0  0  0  0  0  0  0  0
  -36.7363  -18.1870   20.3711 C   0  0  0  0  0  0  0  0  0  1  0  0
  -36.5377  -16.7147   20.8023 C   0  0  1  0  0  0  0  0  0  0  0  0
  -29.7520  -23.3907   20.9098 C   0  0  1  0  0  0  0  0  0  0  0  0
  -27.6707  -21.3306   18.5027 C   0  0  2  0  0  0  0  0  0  0  0  0
  -29.0832  -24.1495   22.0906 C   0  0  0  0  0  0  0  0  0  0  0  0
  -25.8825  -11.4907   20.3378 N   0  0  0  0  0  0  0  0  0  0  0  0
  -38.7147  -14.8041   18.3939 N   0  0  0  0  0  0  0  0  0  0  0  0
  -36.4658  -13.9536   18.2312 N   0  0  0  0  0  0  0  0  0  0  0  0
  -26.3011  -12.7511   20.1323 N   0  0  0  0  0  0  0  0  0  0  0  0
  -34.7567  -14.8673   19.5719 N   0  0  0  0  0  0  0  0  0  0  0  0
  -32.0795  -23.7646   20.1569 N   0  0  0  0  0  0  0  0  0  0  0  0
  -30.0555  -13.4225   20.3573 N   0  0  0  0  0  0  0  0  0  0  0  0
  -32.0141  -14.7918   20.2749 N   0  0  0  0  0  0  0  0  0  0  0  0
  -25.6033  -15.0126   20.2291 N   0  0  0  0  0  0  0  0  0  0  0  0
  -21.9306  -12.7320   21.5358 N   0  0  0  0  0  0  0  0  0  0  0  0
  -34.7263  -26.2502   20.4928 N   0  0  0  0  0  0  0  0  0  0  0  0
  -28.8143  -22.9097   19.9010 N   0  0  0  0  0  0  0  0  0  0  0  0
  -28.0819  -20.2019   17.6207 N   0  3  0  0  0  0  0  0  0  0  0  0
  -22.7763  -14.8244   21.1289 O   0  0  0  0  0  0  0  0  0  0  0  0
  -33.3546  -25.0628   21.9526 O   0  0  0  0  0  0  0  0  0  0  0  0
  -30.3918  -25.2866   19.6360 O   0  0  0  0  0  0  0  0  0  0  0  0
  -29.3869  -20.6689   20.0693 O   0  0  0  0  0  0  0  0  0  0  0  0
  -29.9369  -15.7008   20.6949 O   0  0  0  0  0  0  0  0  0  0  0  0
  -21.4804   -7.1984   21.9950 O   0  0  0  0  0  0  0  0  0  0  0  0
  -35.9060  -19.0227   21.1698 O   0  0  0  0  0  0  0  0  0  1  0  0
  -18.4419   -7.4164   26.5911 F   0  0  0  0  0  0  0  0  0  0  0  0
  -19.5444   -9.1442   22.3244 F   0  0  0  0  0  0  0  0  0  0  0  0
  1  2  1  0  0  0  0
  1  5  2  0  0  0  0
  2  6  2  0  0  0  0
  3  8  2  0  0  0  0
  3 15  1  0  0  0  0
  4  9  1  0  0  0  0
  4 15  2  0  0  0  0
  5 17  1  0  0  0  0
  6 19  1  0  0  0  0
  7 10  2  0  0  0  0
  7 18  1  0  0  0  0
  8 22  1  0  0  0  0
  9 22  2  0  0  0  0
 10 23  1  0  0  0  0
 11 12  2  0  0  0  0
 11 24  1  0  0  0  0
 12 25  1  0  0  0  0
 13 20  1  0  0  0  0
 13 23  2  0  0  0  0
 14 25  2  0  0  0  0
 14 26  1  0  0  0  0
 15 27  1  0  0  0  0
 16 27  1  0  0  0  0
 16 30  2  0  0  0  0
 16 32  1  0  0  0  0
 17 19  2  0  0  0  0
 17 37  1  0  0  0  0
 18 20  2  0  0  0  0
 18 38  1  0  0  0  0
 19 50  1  0  0  0  0
 20 39  1  0  0  0  0
 21 28  1  0  0  0  0
 21 29  2  0  0  0  0
 21 62  1  0  0  0  0
 22 84  1  0  0  0  0
 23 85  1  0  0  0  0
 24 26  2  0  0  0  0
 24 84  1  0  0  0  0
 25 86  1  0  0  0  0
 26 87  1  0  0  0  0
 27 66  2  0  0  0  0
 28 53  1  0  0  0  0
 28 67  2  0  0  0  0
 29 68  1  0  0  0  0
 29 70  1  0  0  0  0
 30 69  1  0  0  0  0
 30 74  1  0  0  0  0
 31 54  1  0  0  0  0
 31 67  1  0  0  0  0
 31 68  2  0  0  0  0
 32 75  1  0  0  0  0
 32 79  2  0  0  0  0
 33 51  1  0  0  0  0
 33 76  1  0  0  0  0
 33 80  2  0  0  0  0
 34 63  1  0  0  0  0
 34 71  1  0  0  0  0
 34 81  2  0  0  0  0
 35 64  1  0  0  0  0
 35 77  1  0  0  0  0
 35 82  2  0  0  0  0
 36 72  1  0  0  0  0
 36 73  1  0  0  0  0
 36 83  2  0  0  0  0
 37 40  1  0  0  0  0
 38 51  1  0  0  0  0
 39 71  1  0  0  0  0
 40 42  1  0  0  0  0
 41 43  1  0  0  0  0
 41 44  1  0  0  0  0
 42 50  1  0  0  0  0
 43 52  1  0  0  0  0
 44 72  1  0  0  0  0
 45 47  1  0  0  0  0
 45 70  1  0  0  0  0
 46 48  1  0  0  0  0
 46 70  1  0  0  0  0
 47 73  1  0  0  0  0
 48 73  1  0  0  0  0
 49 52  1  0  0  0  0
 49 72  1  0  0  0  0
 50 76  1  0  0  0  0
 51 71  1  0  0  0  0
 52 69  1  0  0  0  0
 55 62  1  0  0  0  0
 56 64  1  0  0  0  0
 57 65  1  0  0  0  0
 58 65  1  0  0  0  0
 59 65  1  0  0  0  0
 60 78  1  0  0  0  0
 61 62  1  0  0  0  0
 61 85  1  0  0  0  0
 63 65  1  0  0  0  0
 63 77  1  0  0  0  0
 64 78  1  0  0  0  0
 66 69  1  0  0  0  0
M  CHG  1  78   1
M  ISO  4  36 100  61 101  73 100  85 101
M  END
> <Batch ID>
0175

> <Smiles>
CNC(C)C(=O)NC(C(=O)N1Cc2cc([101O:1][101CH2:1]C(C)c3c(C)nc(C)nc3N3CC[100N:0]([100C:0](=O)N4CCCC(n5nc(-c6ccc(Oc7ccc(F)cc7F)cc6)c(C(N)=O)c5N)C4)CC3)ccc2CC1C(=O)NC1CCCc2ccccc21)C(C)(C)C

> <Shape>
0.186

> <Color>
0.198

> <Negative vol penalty>
0.000

$$$$

  -OEChem-04052322473D

 90100  0     1  0  0  0  0  0999 V2000
  -28.1496  -37.3300   23.5749 C   0  0  0  0  0  0  0  0  0  0  0  0
  -28.6333  -36.1805   22.9583 C   0  0  0  0  0  0  0  0  0  0  0  0
  -23.7978   -9.4782   17.2754 C   0  0  0  0  0  0  0  0  0  0  0  0
  -25.0443   -7.6095   18.1650 C   0  0  0  0  0  0  0  0  0  0  0  0
  -27.1261  -37.2363   24.5170 C   0  0  0  0  0  0  0  0  0  0  0  0
  -28.0944  -34.9365   23.2843 C   0  0  0  0  0  0  0  0  0  0  0  0
  -27.3050  -30.1670   19.5246 C   0  0  0  0  0  0  0  0  0  0  0  0
  -23.2132   -8.6373   16.3284 C   0  0  0  0  0  0  0  0  0  0  0  0
  -24.4596   -6.7687   17.2181 C   0  0  0  0  0  0  0  0  0  0  0  0
  -28.0559  -29.0136   19.3023 C   0  0  0  0  0  0  0  0  0  0  0  0
  -23.0233   -4.0583   15.2664 C   0  0  0  0  0  0  0  0  0  0  0  0
  -22.5504   -2.8202   15.7014 C   0  0  0  0  0  0  0  0  0  0  0  0
  -26.6419  -27.8045   20.8380 C   0  0  0  0  0  0  0  0  0  0  0  0
  -26.5674  -21.2334   19.8649 C   0  0  0  0  0  0  0  0  0  0  0  0
  -21.0380   -3.9322   17.2223 C   0  0  0  0  0  0  0  0  0  0  0  0
  -24.7135   -8.9643   18.1937 C   0  0  0  0  0  0  0  0  0  0  0  0
  -24.8368  -10.1253   20.4618 C   0  0  0  0  0  0  0  0  0  0  0  0
  -26.5677  -35.9914   24.8476 C   0  0  0  0  0  0  0  0  0  0  0  0
  -26.2218  -30.1506   20.4150 C   0  0  0  0  0  0  0  0  0  0  0  0
  -27.0634  -34.8258   24.2326 C   0  0  0  0  0  0  0  0  0  0  0  0
  -25.8773  -28.9584   21.0678 C   0  0  0  0  0  0  0  0  0  0  0  0
  -26.8286  -22.5407   19.4699 C   0  0  0  0  0  0  0  0  0  0  0  0
  -28.1418  -22.9937   19.4100 C   0  0  0  0  0  0  0  0  0  0  0  0
  -23.5440   -7.2826   16.2998 C   0  0  0  0  0  0  0  0  0  0  0  0
  -27.7262  -27.8328   19.9612 C   0  0  0  0  0  0  0  0  0  0  0  0
  -22.5036   -5.2334   15.8094 C   0  0  0  0  0  0  0  0  0  0  0  0
  -21.5578   -2.7572   16.6793 C   0  0  0  0  0  0  0  0  0  0  0  0
  -21.5109   -5.1703   16.7874 C   0  0  0  0  0  0  0  0  0  0  0  0
  -25.3182   -9.8325   19.1717 C   0  0  0  0  0  0  0  0  0  0  0  0
  -27.6459  -20.4255   20.1871 C   0  0  0  0  0  0  0  0  0  0  0  0
  -29.1498  -22.1071   19.7528 C   0  0  0  0  0  0  0  0  0  0  0  0
  -25.7642  -10.9923   20.9858 C   0  0  0  0  0  0  0  0  0  0  0  0
  -23.6568   -9.6554   21.1271 C   0  0  0  0  0  0  0  0  0  0  0  0
  -25.5259  -31.6524   23.1287 C   0  0  0  0  0  0  0  0  0  0  0  0
  -22.6684  -30.1603   22.7669 C   0  0  0  0  0  0  0  0  0  0  0  0
  -20.9047  -27.5647   21.4258 C   0  0  0  0  0  0  0  0  0  0  0  0
  -29.1512  -15.2846   20.6319 C   0  0  0  0  0  0  0  0  0  0  0  0
  -25.4953  -35.9350   25.9065 C   0  0  0  0  0  0  0  0  0  0  0  0
  -25.4054  -31.3966   20.6235 C   0  0  0  0  0  0  0  0  0  0  0  0
  -24.7113  -28.8830   22.0182 C   0  0  0  0  0  0  0  0  0  0  0  0
  -24.7218  -34.6191   25.9205 C   0  0  0  0  0  0  0  0  0  0  0  0
  -30.3516  -12.3135   19.3358 C   0  0  0  0  0  0  0  0  0  0  0  0
  -24.3999  -22.8217   18.6354 C   0  0  0  0  0  0  0  0  0  0  0  0
  -25.2763  -23.5603   17.6728 C   0  0  0  0  0  0  0  0  0  0  0  0
  -25.6808  -33.4352   25.8453 C   0  0  0  0  0  0  0  0  0  0  0  0
  -29.1156  -11.4159   19.2798 C   0  0  0  0  0  0  0  0  0  0  0  0
  -27.3281  -18.0298   19.4246 C   0  0  0  0  0  0  0  0  0  0  0  0
  -28.4450  -18.5124   21.6448 C   0  0  0  0  0  0  0  0  0  0  0  0
  -30.0132  -13.7354   18.9034 C   0  0  0  0  0  0  0  0  0  0  0  0
  -27.1110  -16.5819   19.8735 C   0  0  0  0  0  0  0  0  0  0  0  0
  -28.1791  -17.0656   22.0502 C   0  0  0  0  0  0  0  0  0  0  0  0
  -27.6697  -13.4756   19.6506 C   0  0  0  0  0  0  0  0  0  0  0  0
  -25.6877  -23.4359   19.1157 C   0  0  0  0  0  0  0  0  0  0  0  0
  -26.4876  -33.4608   24.5414 C   0  0  1  0  0  0  0  0  0  0  0  0
  -27.3989  -18.9935   20.6229 C   0  0  0  0  0  0  0  0  0  0  0  0
  -24.6396  -31.3953   21.9430 C   0  0  1  0  0  0  0  0  0  0  0  0
  -27.9539  -12.0236   20.0857 C   0  0  1  0  0  0  0  0  0  0  0  0
  -30.5799  -22.5364   19.7073 C   0  0  0  0  0  0  0  0  0  0  0  0
  -18.5935  -26.5911   21.3368 C   0  0  0  0  0  0  0  0  0  0  0  0
  -23.0225  -29.0677   25.5937 C   0  0  0  0  0  0  0  0  0  0  0  0
  -21.2262  -27.3958   25.0975 C   0  0  0  0  0  0  0  0  0  0  0  0
  -20.7040  -29.8347   25.0545 C   0  0  0  0  0  0  0  0  0  0  0  0
  -28.7583  -23.8052   16.5811 C   0  0  0  0  0  0  0  0  0  0  0  0
  -20.7528  -27.8957   18.4887 C   0  0  0  0  0  0  0  0  0  0  0  0
  -27.7772  -25.4569   19.8677 C   0  0  0  0  0  0  0  0  0  1  0  0
  -28.4543  -24.3912   18.9900 C   0  0  2  0  0  0  0  0  0  0  0  0
  -22.0942  -28.8318   23.1961 C   0  0  1  0  0  0  0  0  0  0  0  0
  -19.5899  -27.5252   20.6680 C   0  0  2  0  0  0  0  0  0  0  0  0
  -21.7849  -28.7841   24.7191 C   0  0  0  0  0  0  0  0  0  0  0  0
  -26.4625  -10.4625   18.8931 N   0  0  0  0  0  0  0  0  0  0  0  0
  -28.9350  -20.8301   20.1411 N   0  0  0  0  0  0  0  0  0  0  0  0
  -26.7078  -11.1599   20.0154 N   0  0  0  0  0  0  0  0  0  0  0  0
  -23.9476  -30.1294   22.1936 N   0  0  0  0  0  0  0  0  0  0  0  0
  -28.9038  -14.2755   19.6891 N   0  0  0  0  0  0  0  0  0  0  0  0
  -28.1116  -16.1941   20.8775 N   0  0  0  0  0  0  0  0  0  0  0  0
  -25.8564  -11.6202   22.1773 N   0  0  0  0  0  0  0  0  0  0  0  0
  -22.8132   -8.7686   20.4443 N   0  0  0  0  0  0  0  0  0  0  0  0
  -25.6787  -32.9907   23.4373 N   0  0  0  0  0  0  0  0  0  0  0  0
  -20.9347  -28.5936   22.3432 N   0  0  0  0  0  0  0  0  0  0  0  0
  -28.0709  -24.6737   17.5618 N   0  3  0  0  0  0  0  0  0  0  0  0
  -19.8109  -27.0546   19.2714 N   0  3  0  0  0  0  0  0  0  0  0  0
  -23.3508  -10.0243   22.2863 O   0  0  0  0  0  0  0  0  0  0  0  0
  -26.0324  -30.7066   23.7208 O   0  0  0  0  0  0  0  0  0  0  0  0
  -22.0035  -31.1868   22.9276 O   0  0  0  0  0  0  0  0  0  0  0  0
  -21.8127  -26.7607   21.2266 O   0  0  0  0  0  0  0  0  0  0  0  0
  -30.2365  -15.3683   21.2205 O   0  0  0  0  0  0  0  0  0  0  0  0
  -22.9735   -6.4618   15.3760 O   0  0  0  0  0  0  0  0  0  0  0  0
  -28.4626  -26.6982   19.7452 O   0  0  0  0  0  0  0  0  0  1  0  0
  -21.1027   -1.5682   17.0958 F   0  0  0  0  0  0  0  0  0  0  0  0
  -21.0070   -6.2958   17.3119 F   0  0  0  0  0  0  0  0  0  0  0  0
  1  2  1  0  0  0  0
  1  5  2  0  0  0  0
  2  6  2  0  0  0  0
  3  8  2  0  0  0  0
  3 16  1  0  0  0  0
  4  9  1  0  0  0  0
  4 16  2  0  0  0  0
  5 18  1  0  0  0  0
  6 20  1  0  0  0  0
  7 10  2  0  0  0  0
  7 19  1  0  0  0  0
  8 24  1  0  0  0  0
  9 24  2  0  0  0  0
 10 25  1  0  0  0  0
 11 12  2  0  0  0  0
 11 26  1  0  0  0  0
 12 27  1  0  0  0  0
 13 21  1  0  0  0  0
 13 25  2  0  0  0  0
 14 22  2  0  0  0  0
 14 30  1  0  0  0  0
 15 27  2  0  0  0  0
 15 28  1  0  0  0  0
 16 29  1  0  0  0  0
 17 29  1  0  0  0  0
 17 32  2  0  0  0  0
 17 33  1  0  0  0  0
 18 20  2  0  0  0  0
 18 38  1  0  0  0  0
 19 21  2  0  0  0  0
 19 39  1  0  0  0  0
 20 54  1  0  0  0  0
 21 40  1  0  0  0  0
 22 23  1  0  0  0  0
 22 53  1  0  0  0  0
 23 31  2  0  0  0  0
 23 66  1  0  0  0  0
 24 87  1  0  0  0  0
 25 88  1  0  0  0  0
 26 28  2  0  0  0  0
 26 87  1  0  0  0  0
 27 89  1  0  0  0  0
 28 90  1  0  0  0  0
 29 70  2  0  0  0  0
 30 55  1  0  0  0  0
 30 71  2  0  0  0  0
 31 58  1  0  0  0  0
 31 71  1  0  0  0  0
 32 72  1  0  0  0  0
 32 76  1  0  0  0  0
 33 77  1  0  0  0  0
 33 82  2  0  0  0  0
 34 56  1  0  0  0  0
 34 78  1  0  0  0  0
 34 83  2  0  0  0  0
 35 67  1  0  0  0  0
 35 73  1  0  0  0  0
 35 84  2  0  0  0  0
 36 68  1  0  0  0  0
 36 79  1  0  0  0  0
 36 85  2  0  0  0  0
 37 74  1  0  0  0  0
 37 75  1  0  0  0  0
 37 86  2  0  0  0  0
 38 41  1  0  0  0  0
 39 56  1  0  0  0  0
 40 73  1  0  0  0  0
 41 45  1  0  0  0  0
 42 46  1  0  0  0  0
 42 49  1  0  0  0  0
 43 44  1  0  0  0  0
 43 53  1  0  0  0  0
 44 53  1  0  0  0  0
 45 54  1  0  0  0  0
 46 57  1  0  0  0  0
 47 50  1  0  0  0  0
 47 55  1  0  0  0  0
 48 51  1  0  0  0  0
 48 55  1  0  0  0  0
 49 74  1  0  0  0  0
 50 75  1  0  0  0  0
 51 75  1  0  0  0  0
 52 57  1  0  0  0  0
 52 74  1  0  0  0  0
 54 78  1  0  0  0  0
 56 73  1  0  0  0  0
 57 72  1  0  0  0  0
 59 68  1  0  0  0  0
 60 69  1  0  0  0  0
 61 69  1  0  0  0  0
 62 69  1  0  0  0  0
 63 80  1  0  0  0  0
 64 81  1  0  0  0  0
 65 66  1  0  0  0  0
 65 88  1  0  0  0  0
 66 80  1  0  0  0  0
 67 69  1  0  0  0  0
 67 79  1  0  0  0  0
 68 81  1  0  0  0  0
 70 72  1  0  0  0  0
M  CHG  2  80   1  81   1
M  ISO  4  37 100  65 101  75 100  88 101
M  END
> <Batch ID>
0175

> <Smiles>
CNC(C)C(=O)NC(C(=O)N1Cc2cc([101O:1][101CH2:1]C(NC)c3c(C4CC4)cc(C4CC[100N:0]([100C:0](=O)N5CCCC(n6nc(-c7ccc(Oc8ccc(F)cc8F)cc7)c(C(N)=O)c6N)C5)CC4)nc3C)ccc2CC1C(=O)NC1CCCc2ccccc21)C(C)(C)C

> <Shape>
0.292

> <Color>
0.084

> <Negative vol penalty>
0.000

$$$$

  -OEChem-04052322473D

 98111  0     1  0  0  0  0  0999 V2000
  -16.6539  -29.9725   23.9314 C   0  0  0  0  0  0  0  0  0  0  0  0
  -17.7864  -30.5095   24.5350 C   0  0  0  0  0  0  0  0  0  0  0  0
  -24.3073  -12.7010   21.6579 C   0  0  0  0  0  0  0  0  0  0  0  0
  -26.3931  -13.1678   20.5316 C   0  0  0  0  0  0  0  0  0  0  0  0
  -16.7783  -28.9029   23.0456 C   0  0  0  0  0  0  0  0  0  0  0  0
  -19.0439  -29.9765   24.2541 C   0  0  0  0  0  0  0  0  0  0  0  0
  -25.9084  -31.9153   23.5935 C   0  0  0  0  0  0  0  0  0  0  0  0
  -24.1355  -11.5639   20.8686 C   0  0  0  0  0  0  0  0  0  0  0  0
  -26.2213  -12.0307   19.7423 C   0  0  0  0  0  0  0  0  0  0  0  0
  -27.1749  -31.5710   24.0639 C   0  0  0  0  0  0  0  0  0  0  0  0
  -23.3261   -8.3394   19.3981 C   0  0  0  0  0  0  0  0  0  0  0  0
  -22.9182   -7.1657   20.0317 C   0  0  0  0  0  0  0  0  0  0  0  0
  -27.2768  -29.7749   22.4568 C   0  0  0  0  0  0  0  0  0  0  0  0
  -24.9022   -7.2200   21.4095 C   0  0  0  0  0  0  0  0  0  0  0  0
  -25.4361  -13.5030   21.4894 C   0  0  0  0  0  0  0  0  0  0  0  0
  -26.2677  -14.7591   23.5482 C   0  0  0  0  0  0  0  0  0  0  0  0
  -18.0390  -28.3628   22.7463 C   0  0  0  0  0  0  0  0  0  0  0  0
  -25.3111  -31.1839   22.5569 C   0  0  0  0  0  0  0  0  0  0  0  0
  -19.1852  -28.8979   23.3646 C   0  0  0  0  0  0  0  0  0  0  0  0
  -26.0038  -30.1135   21.9734 C   0  0  0  0  0  0  0  0  0  0  0  0
  -25.0925  -11.2287   19.9108 C   0  0  0  0  0  0  0  0  0  0  0  0
  -27.8581  -30.4989   23.4975 C   0  0  0  0  0  0  0  0  0  0  0  0
  -24.5221   -8.9534   19.7700 C   0  0  0  0  0  0  0  0  0  0  0  0
  -23.7062   -6.6060   21.0374 C   0  0  0  0  0  0  0  0  0  0  0  0
  -25.3101   -8.3937   20.7757 C   0  0  0  0  0  0  0  0  0  0  0  0
  -25.6138  -14.6781   22.3041 C   0  0  0  0  0  0  0  0  0  0  0  0
  -26.1651  -16.0815   23.9045 C   0  0  0  0  0  0  0  0  0  0  0  0
  -26.9103  -13.7308   24.3132 C   0  0  0  0  0  0  0  0  0  0  0  0
  -22.6784  -29.4242   22.2812 C   0  0  0  0  0  0  0  0  0  0  0  0
  -23.5406  -29.3252   19.1557 C   0  0  0  0  0  0  0  0  0  0  0  0
  -26.0235  -29.5612   16.8263 C   0  0  0  0  0  0  0  0  0  0  0  0
  -25.4717  -21.1157   20.7380 C   0  0  0  0  0  0  0  0  0  0  0  0
  -18.1187  -27.1762   21.8189 C   0  0  0  0  0  0  0  0  0  0  0  0
  -23.9555  -31.5848   22.0428 C   0  0  0  0  0  0  0  0  0  0  0  0
  -25.4149  -29.3091   20.8444 C   0  0  0  0  0  0  0  0  0  0  0  0
  -19.5250  -26.9123   21.2870 C   0  0  0  0  0  0  0  0  0  0  0  0
  -23.3500  -19.9071   23.3292 C   0  0  0  0  0  0  0  0  0  0  0  0
  -20.5445  -26.9728   22.4201 C   0  0  0  0  0  0  0  0  0  0  0  0
  -27.9940  -24.6460   21.1758 C   0  0  0  0  0  0  0  0  0  0  0  0
  -23.7486  -18.4373   23.4726 C   0  0  0  0  0  0  0  0  0  0  0  0
  -28.2042  -26.0282   20.5584 C   0  0  0  0  0  0  0  0  0  0  0  0
  -30.3522  -23.7961   18.2864 C   0  0  0  0  0  0  0  0  0  0  0  0
  -28.8160  -21.8958   17.3309 C   0  0  0  0  0  0  0  0  0  0  0  0
  -29.7429  -21.2474   20.6373 C   0  0  0  0  0  0  0  0  0  0  0  0
  -30.8274  -28.4271   24.5001 C   0  0  0  0  0  0  0  0  0  0  0  0
  -30.8948  -21.2809   18.3450 C   0  0  0  0  0  0  0  0  0  0  0  0
  -23.4016  -20.3665   21.8738 C   0  0  0  0  0  0  0  0  0  0  0  0
  -25.0837  -18.6479   21.3344 C   0  0  0  0  0  0  0  0  0  0  0  0
  -31.7684  -28.0401   20.1410 C   0  0  0  0  0  0  0  0  0  0  0  0
  -20.5691  -28.3632   23.0663 C   0  0  1  0  0  0  0  0  0  0  0  0
  -23.2272  -30.4496   21.3299 C   0  0  1  0  0  0  0  0  0  0  0  0
  -29.0225  -23.7051   20.5222 C   0  0  2  0  0  0  0  0  0  0  0  0
  -29.1714  -24.3124   19.1192 C   0  0  1  0  0  0  0  0  0  0  0  0
  -28.4601  -21.0224   18.5433 C   0  0  2  0  0  0  0  0  0  0  0  0
  -28.5796  -22.2397   20.6730 C   0  0  1  0  0  0  0  0  0  0  0  0
  -30.6887  -28.4751   23.0036 C   0  0  2  0  0  0  0  0  0  0  0  0
  -31.4508  -27.1579   18.9139 C   0  0  2  0  0  0  0  0  0  0  0  0
  -25.1008  -18.1539   22.7911 C   0  0  2  0  0  0  0  0  0  0  0  0
  -27.6020  -21.7136   19.6139 C   0  0  2  0  0  0  0  0  0  0  0  0
  -30.6095  -26.3115   19.9050 C   0  0  2  0  0  0  0  0  0  0  0  0
  -29.5017  -28.7752   23.8794 C   0  0  2  0  0  0  0  0  0  1  0  0
  -29.2256  -25.8462   19.4181 C   0  0  2  0  0  0  0  0  0  0  0  0
  -30.2404  -22.4269   17.5561 C   0  0  2  0  0  0  0  0  0  0  0  0
  -29.7978  -20.6824   19.2212 C   0  0  2  0  0  0  0  0  0  0  0  0
  -32.6237  -26.4665   18.2505 C   0  0  0  0  0  0  0  0  0  0  0  0
  -28.8379  -26.6960   18.2007 C   0  0  0  0  0  0  0  0  0  0  0  0
  -30.9667  -22.5681   16.2000 C   0  0  0  0  0  0  0  0  0  0  0  0
  -26.4285  -29.3965   14.3552 C   0  0  0  0  0  0  0  0  0  0  0  0
  -23.3578  -26.2845   19.3309 C   0  0  0  0  0  0  0  0  0  0  0  0
  -24.6596  -26.1529   17.1964 C   0  0  0  0  0  0  0  0  0  0  0  0
  -22.4274  -27.2661   17.2272 C   0  0  0  0  0  0  0  0  0  0  0  0
  -26.9649  -32.3631   16.6764 C   0  0  0  0  0  0  0  0  0  0  0  0
  -31.1869  -18.9502   19.9910 C   0  0  0  0  0  0  0  0  0  0  0  0
  -30.7322  -27.1977   22.1938 C   0  0  0  0  0  0  0  0  0  0  0  0
  -24.4007  -28.4154   18.3122 C   0  0  1  0  0  0  0  0  0  0  0  0
  -26.1068  -30.3241   15.5165 C   0  0  2  0  0  0  0  0  0  0  0  0
  -23.7219  -27.0435   18.0392 C   0  0  0  0  0  0  0  0  0  0  0  0
  -25.1314  -15.8554   21.8976 N   0  0  0  0  0  0  0  0  0  0  0  0
  -25.4823  -16.6886   22.8919 N   0  0  0  0  0  0  0  0  0  0  0  0
  -24.0843  -29.7360   20.3810 N   0  0  0  0  0  0  0  0  0  0  0  0
  -24.7106  -20.0704   21.2866 N   0  0  0  0  0  0  0  0  0  0  0  0
  -26.5932  -16.7727   24.9822 N   0  0  0  0  0  0  0  0  0  0  0  0
  -26.9245  -12.4265   23.8004 N   0  0  0  0  0  0  0  0  0  0  0  0
  -21.3035  -29.2936   22.2358 N   0  0  0  0  0  0  0  0  0  0  0  0
  -24.7321  -29.1684   17.1074 N   0  0  0  0  0  0  0  0  0  0  0  0
  -26.7028  -20.7495   20.2079 N   0  0  0  0  0  0  0  0  0  0  0  0
  -30.5322  -27.5205   20.7633 N   0  3  1  0  0  0  0  0  0  0  0  0
  -27.1675  -31.3683   15.5918 N   0  3  0  0  0  0  0  0  0  0  0  0
  -27.4416  -13.9585   25.4265 O   0  0  0  0  0  0  0  0  0  0  0  0
  -23.4456  -28.7969   23.0020 O   0  0  0  0  0  0  0  0  0  0  0  0
  -22.4302  -29.6649   18.7394 O   0  0  0  0  0  0  0  0  0  0  0  0
  -27.0065  -29.3331   17.5279 O   0  0  0  0  0  0  0  0  0  0  0  0
  -25.0852  -22.2894   20.7265 O   0  0  0  0  0  0  0  0  0  0  0  0
  -24.9253  -10.1191   19.1405 O   0  0  0  0  0  0  0  0  0  0  0  0
  -29.1123  -30.1553   23.9618 O   0  0  0  0  0  0  0  0  0  1  0  0
  -29.9817  -19.2736   19.3128 O   0  0  0  0  0  0  0  0  0  0  0  0
  -23.3136   -5.4797   21.6469 F   0  0  0  0  0  0  0  0  0  0  0  0
  -26.4595   -8.9797   21.1382 F   0  0  0  0  0  0  0  0  0  0  0  0
  1  2  1  0  0  0  0
  1  5  2  0  0  0  0
  2  6  2  0  0  0  0
  3  8  2  0  0  0  0
  3 15  1  0  0  0  0
  4  9  1  0  0  0  0
  4 15  2  0  0  0  0
  5 17  1  0  0  0  0
  6 19  1  0  0  0  0
  7 10  2  0  0  0  0
  7 18  1  0  0  0  0
  8 21  1  0  0  0  0
  9 21  2  0  0  0  0
 10 22  1  0  0  0  0
 11 12  2  0  0  0  0
 11 23  1  0  0  0  0
 12 24  1  0  0  0  0
 13 20  1  0  0  0  0
 13 22  2  0  0  0  0
 14 24  2  0  0  0  0
 14 25  1  0  0  0  0
 15 26  1  0  0  0  0
 16 26  1  0  0  0  0
 16 27  2  0  0  0  0
 16 28  1  0  0  0  0
 17 19  2  0  0  0  0
 17 33  1  0  0  0  0
 18 20  2  0  0  0  0
 18 34  1  0  0  0  0
 19 50  1  0  0  0  0
 20 35  1  0  0  0  0
 21 94  1  0  0  0  0
 22 95  1  0  0  0  0
 23 25  2  0  0  0  0
 23 94  1  0  0  0  0
 24 97  1  0  0  0  0
 25 98  1  0  0  0  0
 26 78  2  0  0  0  0
 27 79  1  0  0  0  0
 27 82  1  0  0  0  0
 28 83  1  0  0  0  0
 28 89  2  0  0  0  0
 29 51  1  0  0  0  0
 29 84  1  0  0  0  0
 29 90  2  0  0  0  0
 30 75  1  0  0  0  0
 30 80  1  0  0  0  0
 30 91  2  0  0  0  0
 31 76  1  0  0  0  0
 31 85  1  0  0  0  0
 31 92  2  0  0  0  0
 32 81  1  0  0  0  0
 32 86  1  0  0  0  0
 32 93  2  0  0  0  0
 33 36  1  0  0  0  0
 34 51  1  0  0  0  0
 35 80  1  0  0  0  0
 36 38  1  0  0  0  0
 37 40  1  0  0  0  0
 37 47  1  0  0  0  0
 38 50  1  0  0  0  0
 39 41  1  0  0  0  0
 39 52  1  0  0  0  0
 40 58  1  0  0  0  0
 41 62  1  0  0  0  0
 42 53  1  0  0  0  0
 42 63  1  0  0  0  0
 43 54  1  0  0  0  0
 43 63  1  0  0  0  0
 44 55  1  0  0  0  0
 44 64  1  0  0  0  0
 45 56  1  0  0  0  0
 45 61  1  0  0  0  0
 46 63  1  0  0  0  0
 46 64  1  0  0  0  0
 47 81  1  0  0  0  0
 48 58  1  0  0  0  0
 48 81  1  0  0  0  0
 49 57  1  0  0  0  0
 49 87  1  0  0  0  0
 50 84  1  0  0  0  0
 51 80  1  0  0  0  0
 52 53  1  0  0  0  0
 52 55  1  0  0  0  0
 53 62  1  0  0  0  0
 54 59  1  0  0  0  0
 54 64  1  0  0  0  0
 55 59  1  0  0  0  0
 56 61  1  0  0  0  0
 56 74  1  0  0  0  0
 57 60  1  0  0  0  0
 57 65  1  0  0  0  0
 58 79  1  0  0  0  0
 59 86  1  0  0  0  0
 60 62  1  0  0  0  0
 60 87  1  0  0  0  0
 61 95  1  0  0  0  0
 62 66  1  0  0  0  0
 63 67  1  0  0  0  0
 64 96  1  0  0  0  0
 68 76  1  0  0  0  0
 69 77  1  0  0  0  0
 70 77  1  0  0  0  0
 71 77  1  0  0  0  0
 72 88  1  0  0  0  0
 73 96  1  0  0  0  0
 74 87  1  0  0  0  0
 75 77  1  0  0  0  0
 75 85  1  0  0  0  0
 76 88  1  0  0  0  0
 78 79  1  0  0  0  0
M  CHG  2  87   1  88   1
M  ISO  4  32 100  61 101  86 100  95 101
M  END
> <Batch ID>
0175

> <Smiles>
CNC(C)C(=O)NC(C(=O)N1Cc2cc([101O:1][101CH:1]3CC3CN3CC(C)C3C3(C)CCC4C5CC6(OC)CC(C)(CC6C5[100NH:0][100C:0](=O)N5CCCC(n6nc(-c7ccc(Oc8ccc(F)cc8F)cc7)c(C(N)=O)c6N)C5)CC43)ccc2CC1C(=O)NC1CCCc2ccccc21)C(C)(C)C

> <Shape>
0.293

> <Color>
0.105

> <Negative vol penalty>
0.000

$$$$

  -OEChem-04052322473D

 84 93  0     1  0  0  0  0  0999 V2000
  -29.2176  -37.4239   23.7434 C   0  0  0  0  0  0  0  0  0  0  0  0
  -29.1968  -36.1693   23.1427 C   0  0  0  0  0  0  0  0  0  0  0  0
  -24.1212   -9.4415   22.2756 C   0  0  0  0  0  0  0  0  0  0  0  0
  -23.3635   -9.6627   19.9922 C   0  0  0  0  0  0  0  0  0  0  0  0
  -28.3520  -37.7042   24.7998 C   0  0  0  0  0  0  0  0  0  0  0  0
  -28.3109  -35.1937   23.5988 C   0  0  0  0  0  0  0  0  0  0  0  0
  -25.4683  -30.9393   20.2336 C   0  0  0  0  0  0  0  0  0  0  0  0
  -25.8642  -24.8687   18.2683 C   0  0  0  0  0  0  0  0  0  0  0  0
  -23.1240   -8.4961   22.5150 C   0  0  0  0  0  0  0  0  0  0  0  0
  -22.3663   -8.7171   20.2315 C   0  0  0  0  0  0  0  0  0  0  0  0
  -25.7448  -29.5940   19.9937 C   0  0  0  0  0  0  0  0  0  0  0  0
  -22.6040   -5.2130   21.8955 C   0  0  0  0  0  0  0  0  0  0  0  0
  -22.9608   -4.0556   22.5875 C   0  0  0  0  0  0  0  0  0  0  0  0
  -25.9967  -23.4905   18.1395 C   0  0  0  0  0  0  0  0  0  0  0  0
  -24.2096  -28.9720   21.7474 C   0  0  0  0  0  0  0  0  0  0  0  0
  -21.3639   -4.5978   24.3176 C   0  0  0  0  0  0  0  0  0  0  0  0
  -24.2409  -10.0249   21.0142 C   0  0  0  0  0  0  0  0  0  0  0  0
  -26.5794  -10.7604   20.3085 C   0  0  0  0  0  0  0  0  0  0  0  0
  -27.4483  -36.7348   25.2627 C   0  0  0  0  0  0  0  0  0  0  0  0
  -24.5670  -31.3120   21.2411 C   0  0  0  0  0  0  0  0  0  0  0  0
  -27.4333  -35.4609   24.6632 C   0  0  0  0  0  0  0  0  0  0  0  0
  -23.9214  -30.3226   21.9963 C   0  0  0  0  0  0  0  0  0  0  0  0
  -26.4599  -25.5215   19.3417 C   0  0  0  0  0  0  0  0  0  0  0  0
  -22.2466   -8.1338   21.4929 C   0  0  0  0  0  0  0  0  0  0  0  0
  -25.1176  -28.6102   20.7526 C   0  0  0  0  0  0  0  0  0  0  0  0
  -21.6273   -6.0628   22.4146 C   0  0  0  0  0  0  0  0  0  0  0  0
  -22.3407   -3.7480   23.7985 C   0  0  0  0  0  0  0  0  0  0  0  0
  -21.0072   -5.7552   23.6256 C   0  0  0  0  0  0  0  0  0  0  0  0
  -25.2704  -11.0021   20.7665 C   0  0  0  0  0  0  0  0  0  0  0  0
  -27.1717  -24.7567   20.2519 C   0  0  0  0  0  0  0  0  0  0  0  0
  -26.7294  -22.8167   19.1034 C   0  0  0  0  0  0  0  0  0  0  0  0
  -27.1539  -12.0059   20.2376 C   0  0  0  0  0  0  0  0  0  0  0  0
  -27.2189   -9.5208   19.9767 C   0  0  0  0  0  0  0  0  0  0  0  0
  -24.7766  -33.0010   23.9257 C   0  0  0  0  0  0  0  0  0  0  0  0
  -21.5599  -32.5861   23.9782 C   0  0  0  0  0  0  0  0  0  0  0  0
  -18.8600  -30.7431   22.9981 C   0  0  0  0  0  0  0  0  0  0  0  0
  -27.1360  -17.2101   18.9107 C   0  0  0  0  0  0  0  0  0  0  0  0
  -26.5648  -37.0687   26.4385 C   0  0  0  0  0  0  0  0  0  0  0  0
  -24.2593  -32.7665   21.4694 C   0  0  0  0  0  0  0  0  0  0  0  0
  -22.9303  -30.6695   23.0761 C   0  0  0  0  0  0  0  0  0  0  0  0
  -25.3963  -36.1025   26.6161 C   0  0  0  0  0  0  0  0  0  0  0  0
  -25.5672  -16.4785   21.9674 C   0  0  0  0  0  0  0  0  0  0  0  0
  -25.8749  -34.6588   26.5001 C   0  0  0  0  0  0  0  0  0  0  0  0
  -25.4518  -14.9564   21.8930 C   0  0  0  0  0  0  0  0  0  0  0  0
  -25.2687  -17.1424   20.6221 C   0  0  0  0  0  0  0  0  0  0  0  0
  -28.0574  -20.7591   19.4650 C   0  0  0  0  0  0  0  0  0  0  0  0
  -25.6198  -20.6325   18.9280 C   0  0  0  0  0  0  0  0  0  0  0  0
  -28.2573  -19.4038   18.7921 C   0  0  0  0  0  0  0  0  0  0  0  0
  -25.8649  -19.2869   18.2543 C   0  0  0  0  0  0  0  0  0  0  0  0
  -25.9599  -15.0913   19.4250 C   0  0  0  0  0  0  0  0  0  0  0  0
  -26.4695  -34.3845   25.1135 C   0  0  1  0  0  0  0  0  0  0  0  0
  -23.7131  -33.0497   22.8655 C   0  0  1  0  0  0  0  0  0  0  0  0
  -26.3114  -14.3926   20.7476 C   0  0  2  0  0  0  0  0  0  0  0  0
  -27.8323  -25.4041   21.4248 C   0  0  0  0  0  0  0  0  0  0  0  0
  -16.3638  -30.6292   23.2292 C   0  0  0  0  0  0  0  0  0  0  0  0
  -21.8744  -31.4795   26.8043 C   0  0  0  0  0  0  0  0  0  0  0  0
  -19.5672  -30.5264   26.6129 C   0  0  0  0  0  0  0  0  0  0  0  0
  -19.9094  -32.9943   26.4897 C   0  0  0  0  0  0  0  0  0  0  0  0
  -18.4593  -31.0637   20.0834 C   0  0  0  0  0  0  0  0  0  0  0  0
  -26.3210  -26.9975   19.4850 C   0  0  0  0  0  0  0  0  0  1  0  0
  -20.6253  -31.5452   24.5456 C   0  0  1  0  0  0  0  0  0  0  0  0
  -17.5262  -31.1506   22.3986 C   0  0  2  0  0  0  0  0  0  0  0  0
  -20.5142  -31.6295   26.0942 C   0  0  0  0  0  0  0  0  0  0  0  0
  -25.0274  -12.2993   20.9723 N   0  0  0  0  0  0  0  0  0  0  0  0
  -27.3224  -23.4164   20.1600 N   0  0  0  0  0  0  0  0  0  0  0  0
  -26.1916  -12.8838   20.6421 N   0  0  0  0  0  0  0  0  0  0  0  0
  -26.8542  -21.4290   18.9597 N   0  0  0  0  0  0  0  0  0  0  0  0
  -22.6677  -32.1057   23.2656 N   0  0  0  0  0  0  0  0  0  0  0  0
  -26.0821  -16.5448   19.5548 N   0  0  0  0  0  0  0  0  0  0  0  0
  -27.0368  -18.6066   18.8094 N   0  0  0  0  0  0  0  0  0  0  0  0
  -28.3832  -12.4250   19.8695 N   0  0  0  0  0  0  0  0  0  0  0  0
  -26.4842   -8.3343   20.1064 N   0  0  0  0  0  0  0  0  0  0  0  0
  -25.4156  -34.2078   24.1376 N   0  0  0  0  0  0  0  0  0  0  0  0
  -19.3561  -31.7110   23.8455 N   0  0  0  0  0  0  0  0  0  0  0  0
  -17.3940  -30.6124   21.0152 N   0  3  0  0  0  0  0  0  0  0  0  0
  -28.4118   -9.4653   19.5928 O   0  0  0  0  0  0  0  0  0  0  0  0
  -24.9999  -31.9469   24.5095 O   0  0  0  0  0  0  0  0  0  0  0  0
  -21.3121  -33.7816   24.1545 O   0  0  0  0  0  0  0  0  0  0  0  0
  -19.4053  -29.6715   22.7432 O   0  0  0  0  0  0  0  0  0  0  0  0
  -28.1091  -16.5960   18.4559 O   0  0  0  0  0  0  0  0  0  0  0  0
  -21.2736   -7.2111   21.7260 O   0  0  0  0  0  0  0  0  0  0  0  0
  -25.3880  -27.2876   20.5194 O   0  0  0  0  0  0  0  0  0  1  0  0
  -22.6823   -2.6357   24.4621 F   0  0  0  0  0  0  0  0  0  0  0  0
  -20.0673   -6.5671   24.1287 F   0  0  0  0  0  0  0  0  0  0  0  0
  1  2  1  0  0  0  0
  1  5  2  0  0  0  0
  2  6  2  0  0  0  0
  3  9  2  0  0  0  0
  3 17  1  0  0  0  0
  4 10  1  0  0  0  0
  4 17  2  0  0  0  0
  5 19  1  0  0  0  0
  6 21  1  0  0  0  0
  7 11  2  0  0  0  0
  7 20  1  0  0  0  0
  8 14  2  0  0  0  0
  8 23  1  0  0  0  0
  9 24  1  0  0  0  0
 10 24  2  0  0  0  0
 11 25  1  0  0  0  0
 12 13  2  0  0  0  0
 12 26  1  0  0  0  0
 13 27  1  0  0  0  0
 14 31  1  0  0  0  0
 15 22  1  0  0  0  0
 15 25  2  0  0  0  0
 16 27  2  0  0  0  0
 16 28  1  0  0  0  0
 17 29  1  0  0  0  0
 18 29  1  0  0  0  0
 18 32  2  0  0  0  0
 18 33  1  0  0  0  0
 19 21  2  0  0  0  0
 19 38  1  0  0  0  0
 20 22  2  0  0  0  0
 20 39  1  0  0  0  0
 21 51  1  0  0  0  0
 22 40  1  0  0  0  0
 23 30  2  0  0  0  0
 23 60  1  0  0  0  0
 24 81  1  0  0  0  0
 25 82  1  0  0  0  0
 26 28  2  0  0  0  0
 26 81  1  0  0  0  0
 27 83  1  0  0  0  0
 28 84  1  0  0  0  0
 29 64  2  0  0  0  0
 30 54  1  0  0  0  0
 30 65  1  0  0  0  0
 31 65  2  0  0  0  0
 31 67  1  0  0  0  0
 32 66  1  0  0  0  0
 32 71  1  0  0  0  0
 33 72  1  0  0  0  0
 33 76  2  0  0  0  0
 34 52  1  0  0  0  0
 34 73  1  0  0  0  0
 34 77  2  0  0  0  0
 35 61  1  0  0  0  0
 35 68  1  0  0  0  0
 35 78  2  0  0  0  0
 36 62  1  0  0  0  0
 36 74  1  0  0  0  0
 36 79  2  0  0  0  0
 37 69  1  0  0  0  0
 37 70  1  0  0  0  0
 37 80  2  0  0  0  0
 38 41  1  0  0  0  0
 39 52  1  0  0  0  0
 40 68  1  0  0  0  0
 41 43  1  0  0  0  0
 42 44  1  0  0  0  0
 42 45  1  0  0  0  0
 43 51  1  0  0  0  0
 44 53  1  0  0  0  0
 45 69  1  0  0  0  0
 46 48  1  0  0  0  0
 46 67  1  0  0  0  0
 47 49  1  0  0  0  0
 47 67  1  0  0  0  0
 48 70  1  0  0  0  0
 49 70  1  0  0  0  0
 50 53  1  0  0  0  0
 50 69  1  0  0  0  0
 51 73  1  0  0  0  0
 52 68  1  0  0  0  0
 53 66  1  0  0  0  0
 55 62  1  0  0  0  0
 56 63  1  0  0  0  0
 57 63  1  0  0  0  0
 58 63  1  0  0  0  0
 59 75  1  0  0  0  0
 60 82  1  0  0  0  0
 61 63  1  0  0  0  0
 61 74  1  0  0  0  0
 62 75  1  0  0  0  0
 64 66  1  0  0  0  0
M  CHG  1  75   1
M  ISO  4  37 100  60 101  70 100  82 101
M  END
> <Batch ID>
0175

> <Smiles>
CNC(C)C(=O)NC(C(=O)N1Cc2cc([101O:1][101CH2:1]c3ccc(N4CC[100N:0]([100C:0](=O)N5CCCC(n6nc(-c7ccc(Oc8ccc(F)cc8F)cc7)c(C(N)=O)c6N)C5)CC4)nc3C)ccc2CC1C(=O)NC1CCCc2ccccc21)C(C)(C)C

> <Shape>
0.275

> <Color>
0.095

> <Negative vol penalty>
0.000

$$$$

  -OEChem-04052322473D

 86 95  0     1  0  0  0  0  0999 V2000
  -25.1910  -10.7809   17.4539 C   0  0  0  0  0  0  0  0  0  0  0  0
  -24.3814  -11.8896   17.2285 C   0  0  0  0  0  0  0  0  0  0  0  0
  -29.4143  -26.6647   18.6335 C   0  0  0  0  0  0  0  0  0  0  0  0
  -29.0865  -25.7654   20.8518 C   0  0  0  0  0  0  0  0  0  0  0  0
  -25.8144  -10.6141   18.6898 C   0  0  0  0  0  0  0  0  0  0  0  0
  -24.1939  -12.8316   18.2393 C   0  0  0  0  0  0  0  0  0  0  0  0
  -23.1433  -19.8518   19.2033 C   0  0  0  0  0  0  0  0  0  0  0  0
  -30.7537  -26.2773   18.6743 C   0  0  0  0  0  0  0  0  0  0  0  0
  -30.4259  -25.3780   20.8927 C   0  0  0  0  0  0  0  0  0  0  0  0
  -22.2759  -20.7326   19.8481 C   0  0  0  0  0  0  0  0  0  0  0  0
  -34.1699  -25.2025   18.0505 C   0  0  0  0  0  0  0  0  0  0  0  0
  -34.6983  -24.5755   16.9221 C   0  0  0  0  0  0  0  0  0  0  0  0
  -23.4667  -20.3816   21.9164 C   0  0  0  0  0  0  0  0  0  0  0  0
  -33.0675  -22.8065   17.1414 C   0  0  0  0  0  0  0  0  0  0  0  0
  -18.1315  -23.7613   23.6034 C   0  0  0  0  0  0  0  0  0  0  0  0
  -28.5807  -26.4088   19.7223 C   0  0  0  0  0  0  0  0  0  0  0  0
  -26.1067  -26.0519   19.2130 C   0  0  0  0  0  0  0  0  0  0  0  0
  -25.6422  -11.5595   19.7130 C   0  0  0  0  0  0  0  0  0  0  0  0
  -24.1740  -19.2199   19.9139 C   0  0  0  0  0  0  0  0  0  0  0  0
  -24.8145  -12.6766   19.4905 C   0  0  0  0  0  0  0  0  0  0  0  0
  -24.3474  -19.4952   21.2778 C   0  0  0  0  0  0  0  0  0  0  0  0
  -18.8491  -22.8646   22.8283 C   0  0  0  0  0  0  0  0  0  0  0  0
  -19.7592  -23.3795   21.9119 C   0  0  0  0  0  0  0  0  0  0  0  0
  -19.9216  -24.7559   21.8000 C   0  0  0  0  0  0  0  0  0  0  0  0
  -31.2594  -25.6340   19.8039 C   0  0  0  0  0  0  0  0  0  0  0  0
  -22.4357  -20.9953   21.2055 C   0  0  0  0  0  0  0  0  0  0  0  0
  -33.0903  -24.6315   18.7244 C   0  0  0  0  0  0  0  0  0  0  0  0
  -34.1471  -23.3775   16.4676 C   0  0  0  0  0  0  0  0  0  0  0  0
  -32.5391  -23.4335   18.2698 C   0  0  0  0  0  0  0  0  0  0  0  0
  -27.1972  -26.8092   19.6809 C   0  0  0  0  0  0  0  0  0  0  0  0
  -19.1558  -25.5680   22.6210 C   0  0  0  0  0  0  0  0  0  0  0  0
  -25.0192  -26.8728   19.3860 C   0  0  0  0  0  0  0  0  0  0  0  0
  -26.0792  -24.7250   18.6705 C   0  0  0  0  0  0  0  0  0  0  0  0
  -24.9088  -16.2025   20.5914 C   0  0  0  0  0  0  0  0  0  0  0  0
  -27.5893  -17.5430   21.8327 C   0  0  0  0  0  0  0  0  0  0  0  0
  -29.1037  -20.3002   23.1559 C   0  0  0  0  0  0  0  0  0  0  0  0
  -22.0752  -30.4629   22.4827 C   0  0  0  0  0  0  0  0  0  0  0  0
  -26.2986  -11.3120   21.0481 C   0  0  0  0  0  0  0  0  0  0  0  0
  -25.1177  -18.2931   19.1978 C   0  0  0  0  0  0  0  0  0  0  0  0
  -25.4506  -18.8583   22.0813 C   0  0  0  0  0  0  0  0  0  0  0  0
  -26.3488  -12.5492   21.9409 C   0  0  0  0  0  0  0  0  0  0  0  0
  -24.7568  -31.7880   20.5515 C   0  0  0  0  0  0  0  0  0  0  0  0
  -24.9947  -13.2513   21.9569 C   0  0  0  0  0  0  0  0  0  0  0  0
  -25.5437  -30.5493   20.1198 C   0  0  0  0  0  0  0  0  0  0  0  0
  -24.1943  -31.6358   21.9630 C   0  0  0  0  0  0  0  0  0  0  0  0
  -24.1763  -29.1806   21.7494 C   0  0  0  0  0  0  0  0  0  0  0  0
  -19.7405  -27.7951   23.6179 C   0  0  0  0  0  0  0  0  0  0  0  0
  -19.0698  -27.6918   21.2873 C   0  0  0  0  0  0  0  0  0  0  0  0
  -24.6065  -13.7331   20.5538 C   0  0  1  0  0  0  0  0  0  0  0  0
  -25.8148  -17.3103   20.1336 C   0  0  1  0  0  0  0  0  0  0  0  0
  -24.7159  -29.2643   20.3113 C   0  0  2  0  0  0  0  0  0  0  0  0
  -20.0234  -29.1489   22.9550 C   0  0  2  0  0  0  0  0  0  0  0  0
  -19.1049  -29.1538   21.7355 C   0  0  2  0  0  0  0  0  0  0  0  0
  -18.6339  -21.3998   22.9913 C   0  0  0  0  0  0  0  0  0  0  0  0
  -20.8935  -25.3297   20.8220 C   0  0  0  0  0  0  0  0  0  0  0  0
  -30.9570  -21.7305   24.0599 C   0  0  0  0  0  0  0  0  0  0  0  0
  -26.9780  -16.0602   24.4283 C   0  0  0  0  0  0  0  0  0  0  0  0
  -28.5911  -17.5789   25.5943 C   0  0  0  0  0  0  0  0  0  0  0  0
  -29.3924  -16.0703   23.7764 C   0  0  0  0  0  0  0  0  0  0  0  0
  -29.8304  -21.2685   20.4553 C   0  0  0  0  0  0  0  0  0  0  0  0
  -20.5612  -22.4505   21.0487 C   0  0  0  0  0  0  0  0  0  1  0  0
  -27.9856  -18.0859   23.1844 C   0  0  1  0  0  0  0  0  0  0  0  0
  -30.4396  -20.9565   22.8574 C   0  0  2  0  0  0  0  0  0  0  0  0
  -28.2147  -16.9595   24.2314 C   0  0  0  0  0  0  0  0  0  0  0  0
  -18.2618  -25.1045   23.5231 N   0  0  0  0  0  0  0  0  0  0  0  0
  -26.8356  -28.0184   20.1182 N   0  0  0  0  0  0  0  0  0  0  0  0
  -25.5056  -28.0271   19.9257 N   0  0  0  0  0  0  0  0  0  0  0  0
  -19.3118  -26.9343   22.5152 N   0  0  3  0  0  0  0  0  0  0  0  0
  -26.3437  -17.9545   21.3376 N   0  0  0  0  0  0  0  0  0  0  0  0
  -23.4185  -30.3984   22.0774 N   0  0  0  0  0  0  0  0  0  0  0  0
  -23.7039  -26.7127   19.1275 N   0  0  0  0  0  0  0  0  0  0  0  0
  -27.2868  -24.0219   18.5631 N   0  0  0  0  0  0  0  0  0  0  0  0
  -25.3291  -14.9407   20.2163 N   0  0  0  0  0  0  0  0  0  0  0  0
  -29.1490  -18.9365   22.9576 N   0  0  0  0  0  0  0  0  0  0  0  0
  -21.4108  -29.2449   22.5590 N   0  0  0  0  0  0  0  0  0  0  0  0
  -17.7326  -29.5602   22.1555 N   0  3  0  0  0  0  0  0  0  0  0  0
  -30.3085  -21.9006   21.7118 N   0  3  0  0  0  0  0  0  0  0  0  0
  -25.0174  -24.1852   18.2770 O   0  0  0  0  0  0  0  0  0  0  0  0
  -23.9037  -16.4724   21.2384 O   0  0  0  0  0  0  0  0  0  0  0  0
  -28.3596  -16.7876   21.2348 O   0  0  0  0  0  0  0  0  0  0  0  0
  -28.1196  -20.9336   23.5314 O   0  0  0  0  0  0  0  0  0  0  0  0
  -21.5083  -31.5275   22.7513 O   0  0  0  0  0  0  0  0  0  0  0  0
  -32.5663  -25.2556   19.8440 O   0  0  0  0  0  0  0  0  0  0  0  0
  -21.5901  -21.8541   21.8374 O   0  0  0  0  0  0  0  0  0  1  0  0
  -34.6537  -22.7763   15.3831 F   0  0  0  0  0  0  0  0  0  0  0  0
  -31.5011  -22.8807   18.9123 F   0  0  0  0  0  0  0  0  0  0  0  0
  1  2  1  0  0  0  0
  1  5  2  0  0  0  0
  2  6  2  0  0  0  0
  3  8  2  0  0  0  0
  3 16  1  0  0  0  0
  4  9  1  0  0  0  0
  4 16  2  0  0  0  0
  5 18  1  0  0  0  0
  6 20  1  0  0  0  0
  7 10  2  0  0  0  0
  7 19  1  0  0  0  0
  8 25  1  0  0  0  0
  9 25  2  0  0  0  0
 10 26  1  0  0  0  0
 11 12  2  0  0  0  0
 11 27  1  0  0  0  0
 12 28  1  0  0  0  0
 13 21  1  0  0  0  0
 13 26  2  0  0  0  0
 14 28  2  0  0  0  0
 14 29  1  0  0  0  0
 15 22  2  0  0  0  0
 15 65  1  0  0  0  0
 16 30  1  0  0  0  0
 17 30  1  0  0  0  0
 17 32  2  0  0  0  0
 17 33  1  0  0  0  0
 18 20  2  0  0  0  0
 18 38  1  0  0  0  0
 19 21  2  0  0  0  0
 19 39  1  0  0  0  0
 20 49  1  0  0  0  0
 21 40  1  0  0  0  0
 22 23  1  0  0  0  0
 22 54  1  0  0  0  0
 23 24  2  0  0  0  0
 23 61  1  0  0  0  0
 24 31  1  0  0  0  0
 24 55  1  0  0  0  0
 25 83  1  0  0  0  0
 26 84  1  0  0  0  0
 27 29  2  0  0  0  0
 27 83  1  0  0  0  0
 28 85  1  0  0  0  0
 29 86  1  0  0  0  0
 30 66  2  0  0  0  0
 31 65  2  0  0  0  0
 31 68  1  0  0  0  0
 32 67  1  0  0  0  0
 32 71  1  0  0  0  0
 33 72  1  0  0  0  0
 33 78  2  0  0  0  0
 34 50  1  0  0  0  0
 34 73  1  0  0  0  0
 34 79  2  0  0  0  0
 35 62  1  0  0  0  0
 35 69  1  0  0  0  0
 35 80  2  0  0  0  0
 36 63  1  0  0  0  0
 36 74  1  0  0  0  0
 36 81  2  0  0  0  0
 37 70  1  0  0  0  0
 37 75  1  0  0  0  0
 37 82  2  0  0  0  0
 38 41  1  0  0  0  0
 39 50  1  0  0  0  0
 40 69  1  0  0  0  0
 41 43  1  0  0  0  0
 42 44  1  0  0  0  0
 42 45  1  0  0  0  0
 43 49  1  0  0  0  0
 44 51  1  0  0  0  0
 45 70  1  0  0  0  0
 46 51  1  0  0  0  0
 46 70  1  0  0  0  0
 47 52  1  0  0  0  0
 47 68  1  0  0  0  0
 48 53  1  0  0  0  0
 48 68  1  0  0  0  0
 49 73  1  0  0  0  0
 50 69  1  0  0  0  0
 51 67  1  0  0  0  0
 52 53  1  0  0  0  0
 52 75  1  0  0  0  0
 53 76  1  0  0  0  0
 56 63  1  0  0  0  0
 57 64  1  0  0  0  0
 58 64  1  0  0  0  0
 59 64  1  0  0  0  0
 60 77  1  0  0  0  0
 61 84  1  0  0  0  0
 62 64  1  0  0  0  0
 62 74  1  0  0  0  0
 63 77  1  0  0  0  0
 66 67  1  0  0  0  0
M  CHG  2  76   1  77   1
M  ISO  4  37 100  61 101  75 100  84 101
M  END
> <Batch ID>
0175

> <Smiles>
CNC(C)C(=O)NC(C(=O)N1Cc2cc([101O:1][101CH2:1]c3c(C)cnc(N4CC(N)C([100NH:0][100C:0](=O)N5CCCC(n6nc(-c7ccc(Oc8ccc(F)cc8F)cc7)c(C(N)=O)c6N)C5)C4)c3C)ccc2CC1C(=O)NC1CCCc2ccccc21)C(C)(C)C

> <Shape>
0.199

> <Color>
0.088

> <Negative vol penalty>
0.000

$$$$

  -OEChem-04052322473D

 90100  0     1  0  0  0  0  0999 V2000
  -29.8477  -35.9358   18.1554 C   0  0  0  0  0  0  0  0  0  0  0  0
  -29.8963  -34.6113   18.5780 C   0  0  0  0  0  0  0  0  0  0  0  0
  -23.9404   -9.5633   21.9888 C   0  0  0  0  0  0  0  0  0  0  0  0
  -22.0598  -10.2764   20.6501 C   0  0  0  0  0  0  0  0  0  0  0  0
  -28.9423  -36.8202   18.7403 C   0  0  0  0  0  0  0  0  0  0  0  0
  -29.0401  -34.1705   19.5865 C   0  0  0  0  0  0  0  0  0  0  0  0
  -26.9066  -29.7057   18.5102 C   0  0  0  0  0  0  0  0  0  0  0  0
  -23.4927   -8.2443   21.9151 C   0  0  0  0  0  0  0  0  0  0  0  0
  -21.6121   -8.9573   20.5764 C   0  0  0  0  0  0  0  0  0  0  0  0
  -27.6903  -28.5663   18.6875 C   0  0  0  0  0  0  0  0  0  0  0  0
  -22.6478   -4.7381   22.3806 C   0  0  0  0  0  0  0  0  0  0  0  0
  -22.6487   -3.9849   23.5546 C   0  0  0  0  0  0  0  0  0  0  0  0
  -26.6056  -28.1568   20.8029 C   0  0  0  0  0  0  0  0  0  0  0  0
  -21.1377   -5.5711   24.5734 C   0  0  0  0  0  0  0  0  0  0  0  0
  -23.2239  -10.5793   21.3563 C   0  0  0  0  0  0  0  0  0  0  0  0
  -24.5636  -12.5931   20.5454 C   0  0  0  0  0  0  0  0  0  0  0  0
  -28.0679  -36.3877   19.7497 C   0  0  0  0  0  0  0  0  0  0  0  0
  -25.9726  -30.0859   19.4846 C   0  0  0  0  0  0  0  0  0  0  0  0
  -28.1230  -35.0502   20.1864 C   0  0  0  0  0  0  0  0  0  0  0  0
  -25.8095  -29.3000   20.6343 C   0  0  0  0  0  0  0  0  0  0  0  0
  -22.7160  -19.8904   21.4190 C   0  0  0  0  0  0  0  0  0  0  0  0
  -21.7752  -20.9115   21.6170 C   0  0  0  0  0  0  0  0  0  0  0  0
  -23.9603  -20.2091   20.8697 C   0  0  0  0  0  0  0  0  0  0  0  0
  -22.3286   -7.9413   21.2089 C   0  0  0  0  0  0  0  0  0  0  0  0
  -27.5419  -27.7933   19.8353 C   0  0  0  0  0  0  0  0  0  0  0  0
  -21.8920   -5.9080   22.3031 C   0  0  0  0  0  0  0  0  0  0  0  0
  -21.8936   -4.4013   24.6510 C   0  0  0  0  0  0  0  0  0  0  0  0
  -21.1370   -6.3244   23.3995 C   0  0  0  0  0  0  0  0  0  0  0  0
  -23.6855  -11.9421   21.4325 C   0  0  0  0  0  0  0  0  0  0  0  0
  -24.2238  -21.5343   20.5625 C   0  0  0  0  0  0  0  0  0  0  0  0
  -22.1504  -22.2088   21.2825 C   0  0  0  0  0  0  0  0  0  0  0  0
  -24.6837  -13.8641   21.0521 C   0  0  0  0  0  0  0  0  0  0  0  0
  -25.2125  -12.0936   19.3685 C   0  0  0  0  0  0  0  0  0  0  0  0
  -25.5936  -32.6252   21.3586 C   0  0  0  0  0  0  0  0  0  0  0  0
  -22.8191  -31.1419   22.1488 C   0  0  0  0  0  0  0  0  0  0  0  0
  -21.0498  -28.2318   22.3671 C   0  0  0  0  0  0  0  0  0  0  0  0
  -21.0895  -17.6789   23.7918 C   0  0  0  0  0  0  0  0  0  0  0  0
  -27.1390  -37.3919   20.3849 C   0  0  0  0  0  0  0  0  0  0  0  0
  -25.1161  -31.3028   19.2659 C   0  0  0  0  0  0  0  0  0  0  0  0
  -20.4271  -20.6300   22.2198 C   0  0  0  0  0  0  0  0  0  0  0  0
  -24.8066  -29.6537   21.7009 C   0  0  0  0  0  0  0  0  0  0  0  0
  -22.3952  -18.4512   21.7520 C   0  0  0  0  0  0  0  0  0  0  0  0
  -26.0078  -36.7532   21.1867 C   0  0  0  0  0  0  0  0  0  0  0  0
  -23.9172  -15.9688   25.4514 C   0  0  0  0  0  0  0  0  0  0  0  0
  -26.5499  -35.6479   22.0874 C   0  0  0  0  0  0  0  0  0  0  0  0
  -24.1734  -14.7768   24.5302 C   0  0  0  0  0  0  0  0  0  0  0  0
  -25.3693  -23.1396   19.0466 C   0  0  0  0  0  0  0  0  0  0  0  0
  -26.5496  -22.2395   21.0920 C   0  0  0  0  0  0  0  0  0  0  0  0
  -20.0531  -19.1558   22.0978 C   0  0  0  0  0  0  0  0  0  0  0  0
  -22.4584  -16.4145   25.4111 C   0  0  0  0  0  0  0  0  0  0  0  0
  -22.2103  -15.5128   23.1228 C   0  0  0  0  0  0  0  0  0  0  0  0
  -26.7074  -23.6158   18.4960 C   0  0  0  0  0  0  0  0  0  0  0  0
  -27.8787  -22.7223   20.5255 C   0  0  0  0  0  0  0  0  0  0  0  0
  -27.1934  -34.5283   21.2604 C   0  0  1  0  0  0  0  0  0  0  0  0
  -25.5405  -21.9262   19.9752 C   0  0  0  0  0  0  0  0  0  0  0  0
  -24.5585  -31.8819   20.5625 C   0  0  1  0  0  0  0  0  0  0  0  0
  -23.6812  -15.0712   23.1023 C   0  0  2  0  0  0  0  0  0  0  0  0
  -24.9876  -19.1563   20.6093 C   0  0  0  0  0  0  0  0  0  0  0  0
  -21.2177  -23.3560   21.5011 C   0  0  0  0  0  0  0  0  0  0  0  0
  -18.8208  -27.3308   23.0864 C   0  0  0  0  0  0  0  0  0  0  0  0
  -23.6643  -31.3899   25.0701 C   0  0  0  0  0  0  0  0  0  0  0  0
  -21.9285  -29.6798   25.6450 C   0  0  0  0  0  0  0  0  0  0  0  0
  -21.2456  -31.8586   24.6405 C   0  0  0  0  0  0  0  0  0  0  0  0
  -20.4379  -27.2492   19.6433 C   0  0  0  0  0  0  0  0  0  0  0  0
  -28.9350  -24.5187   19.1573 C   0  0  0  0  0  0  0  0  0  0  0  0
  -28.7222  -25.9853   18.8382 C   0  0  0  0  0  0  0  0  0  1  0  0
  -22.4048  -30.1372   23.1966 C   0  0  1  0  0  0  0  0  0  0  0  0
  -19.6418  -27.8736   21.9270 C   0  0  2  0  0  0  0  0  0  0  0  0
  -22.3311  -30.7605   24.6190 C   0  0  0  0  0  0  0  0  0  0  0  0
  -23.2769  -12.7341   22.4274 N   0  0  0  0  0  0  0  0  0  0  0  0
  -23.3502  -22.5450   20.7582 N   0  0  0  0  0  0  0  0  0  0  0  0
  -23.9011  -13.8957   22.1686 N   0  0  0  0  0  0  0  0  0  0  0  0
  -23.9971  -30.8563   21.4441 N   0  0  0  0  0  0  0  0  0  0  0  0
  -21.1618  -18.3127   22.5417 N   0  0  0  0  0  0  0  0  0  0  0  0
  -22.0066  -16.6447   24.0386 N   0  0  0  0  0  0  0  0  0  0  0  0
  -25.3815  -14.9464   20.6471 N   0  0  0  0  0  0  0  0  0  0  0  0
  -24.9791  -10.7646   18.9898 N   0  0  0  0  0  0  0  0  0  0  0  0
  -26.1751  -33.6793   20.6802 N   0  0  0  0  0  0  0  0  0  0  0  0
  -21.1489  -29.5577   22.7324 N   0  0  0  0  0  0  0  0  0  0  0  0
  -27.6415  -23.9233   19.6417 N   0  3  0  0  0  0  0  0  0  0  0  0
  -19.6816  -26.8395   20.8546 N   0  3  0  0  0  0  0  0  0  0  0  0
  -25.9897  -12.8000   18.6824 O   0  0  0  0  0  0  0  0  0  0  0  0
  -25.8449  -32.2697   22.5041 O   0  0  0  0  0  0  0  0  0  0  0  0
  -22.1194  -32.1396   21.9575 O   0  0  0  0  0  0  0  0  0  0  0  0
  -21.9688  -27.4160   22.3884 O   0  0  0  0  0  0  0  0  0  0  0  0
  -20.2617  -18.0242   24.6446 O   0  0  0  0  0  0  0  0  0  0  0  0
  -21.8916   -6.6543   21.1366 O   0  0  0  0  0  0  0  0  0  0  0  0
  -28.3115  -26.6730   20.0125 O   0  0  0  0  0  0  0  0  0  1  0  0
  -21.8933   -3.6770   25.7777 F   0  0  0  0  0  0  0  0  0  0  0  0
  -20.4079   -7.4467   23.3305 F   0  0  0  0  0  0  0  0  0  0  0  0
  1  2  1  0  0  0  0
  1  5  2  0  0  0  0
  2  6  2  0  0  0  0
  3  8  2  0  0  0  0
  3 15  1  0  0  0  0
  4  9  1  0  0  0  0
  4 15  2  0  0  0  0
  5 17  1  0  0  0  0
  6 19  1  0  0  0  0
  7 10  2  0  0  0  0
  7 18  1  0  0  0  0
  8 24  1  0  0  0  0
  9 24  2  0  0  0  0
 10 25  1  0  0  0  0
 11 12  2  0  0  0  0
 11 26  1  0  0  0  0
 12 27  1  0  0  0  0
 13 20  1  0  0  0  0
 13 25  2  0  0  0  0
 14 27  2  0  0  0  0
 14 28  1  0  0  0  0
 15 29  1  0  0  0  0
 16 29  1  0  0  0  0
 16 32  2  0  0  0  0
 16 33  1  0  0  0  0
 17 19  2  0  0  0  0
 17 38  1  0  0  0  0
 18 20  2  0  0  0  0
 18 39  1  0  0  0  0
 19 54  1  0  0  0  0
 20 41  1  0  0  0  0
 21 22  2  0  0  0  0
 21 23  1  0  0  0  0
 21 42  1  0  0  0  0
 22 31  1  0  0  0  0
 22 40  1  0  0  0  0
 23 30  2  0  0  0  0
 23 58  1  0  0  0  0
 24 87  1  0  0  0  0
 25 88  1  0  0  0  0
 26 28  2  0  0  0  0
 26 87  1  0  0  0  0
 27 89  1  0  0  0  0
 28 90  1  0  0  0  0
 29 70  2  0  0  0  0
 30 55  1  0  0  0  0
 30 71  1  0  0  0  0
 31 59  1  0  0  0  0
 31 71  2  0  0  0  0
 32 72  1  0  0  0  0
 32 76  1  0  0  0  0
 33 77  1  0  0  0  0
 33 82  2  0  0  0  0
 34 56  1  0  0  0  0
 34 78  1  0  0  0  0
 34 83  2  0  0  0  0
 35 67  1  0  0  0  0
 35 73  1  0  0  0  0
 35 84  2  0  0  0  0
 36 68  1  0  0  0  0
 36 79  1  0  0  0  0
 36 85  2  0  0  0  0
 37 74  1  0  0  0  0
 37 75  1  0  0  0  0
 37 86  2  0  0  0  0
 38 43  1  0  0  0  0
 39 56  1  0  0  0  0
 40 49  1  0  0  0  0
 41 73  1  0  0  0  0
 42 74  1  0  0  0  0
 43 45  1  0  0  0  0
 44 46  1  0  0  0  0
 44 50  1  0  0  0  0
 45 54  1  0  0  0  0
 46 57  1  0  0  0  0
 47 52  1  0  0  0  0
 47 55  1  0  0  0  0
 48 53  1  0  0  0  0
 48 55  1  0  0  0  0
 49 74  1  0  0  0  0
 50 75  1  0  0  0  0
 51 57  1  0  0  0  0
 51 75  1  0  0  0  0
 52 80  1  0  0  0  0
 53 80  1  0  0  0  0
 54 78  1  0  0  0  0
 56 73  1  0  0  0  0
 57 72  1  0  0  0  0
 60 68  1  0  0  0  0
 61 69  1  0  0  0  0
 62 69  1  0  0  0  0
 63 69  1  0  0  0  0
 64 81  1  0  0  0  0
 65 66  1  0  0  0  0
 65 80  1  0  0  0  0
 66 88  1  0  0  0  0
 67 69  1  0  0  0  0
 67 79  1  0  0  0  0
 68 81  1  0  0  0  0
 70 72  1  0  0  0  0
M  CHG  2  80   1  81   1
M  ISO  4  37 100  66 101  74 100  88 101
M  END
> <Batch ID>
0175

> <Smiles>
CNC(C)C(=O)NC(C(=O)N1Cc2cc([101O:1][101CH2:1]CN3CCC(c4nc(C)c5c(c4C)C[100N:0]([100C:0](=O)N4CCCC(n6nc(-c7ccc(Oc8ccc(F)cc8F)cc7)c(C(N)=O)c6N)C4)CC5)CC3)ccc2CC1C(=O)NC1CCCc2ccccc21)C(C)(C)C

> <Shape>
0.235

> <Color>
0.141

> <Negative vol penalty>
0.000

$$$$

  -OEChem-04052322473D

 88 97  0     1  0  0  0  0  0999 V2000
  -22.7021  -19.7451   20.4605 C   0  0  0  0  0  0  0  0  0  0  0  0
  -23.2393  -18.5266   20.8630 C   0  0  0  0  0  0  0  0  0  0  0  0
  -23.1870   -9.8190   19.9314 C   0  0  0  0  0  0  0  0  0  0  0  0
  -23.5618   -9.9993   22.3113 C   0  0  0  0  0  0  0  0  0  0  0  0
  -22.9848  -20.9032   21.1836 C   0  0  0  0  0  0  0  0  0  0  0  0
  -24.0604  -18.4656   21.9884 C   0  0  0  0  0  0  0  0  0  0  0  0
  -25.7910  -14.1116   27.4073 C   0  0  0  0  0  0  0  0  0  0  0  0
  -22.4185   -8.6737   20.1391 C   0  0  0  0  0  0  0  0  0  0  0  0
  -22.7932   -8.8540   22.5191 C   0  0  0  0  0  0  0  0  0  0  0  0
  -26.9087  -13.5491   28.0222 C   0  0  0  0  0  0  0  0  0  0  0  0
  -23.1892   -5.5066   22.2565 C   0  0  0  0  0  0  0  0  0  0  0  0
  -23.6845   -4.5447   23.1367 C   0  0  0  0  0  0  0  0  0  0  0  0
  -27.2639  -15.6011   29.2399 C   0  0  0  0  0  0  0  0  0  0  0  0
  -21.7262   -4.8082   24.5269 C   0  0  0  0  0  0  0  0  0  0  0  0
  -23.7587  -10.4818   21.0175 C   0  0  0  0  0  0  0  0  0  0  0  0
  -24.1020  -12.9978   20.7736 C   0  0  0  0  0  0  0  0  0  0  0  0
  -23.8019  -20.8548   22.3240 C   0  0  0  0  0  0  0  0  0  0  0  0
  -25.4071  -15.4290   27.6963 C   0  0  0  0  0  0  0  0  0  0  0  0
  -24.3554  -19.6244   22.7267 C   0  0  0  0  0  0  0  0  0  0  0  0
  -26.1395  -16.1771   28.6292 C   0  0  0  0  0  0  0  0  0  0  0  0
  -22.2216   -8.1912   21.4330 C   0  0  0  0  0  0  0  0  0  0  0  0
  -27.6470  -14.2948   28.9365 C   0  0  0  0  0  0  0  0  0  0  0  0
  -21.9623   -6.1195   22.5114 C   0  0  0  0  0  0  0  0  0  0  0  0
  -22.9530   -4.1955   24.2719 C   0  0  0  0  0  0  0  0  0  0  0  0
  -21.2308   -5.7702   23.6466 C   0  0  0  0  0  0  0  0  0  0  0  0
  -24.5532  -11.6647   20.8034 C   0  0  0  0  0  0  0  0  0  0  0  0
  -25.2348  -13.7386   20.5400 C   0  0  0  0  0  0  0  0  0  0  0  0
  -22.7774  -13.5200   20.9422 C   0  0  0  0  0  0  0  0  0  0  0  0
  -25.1275  -18.1062   26.0057 C   0  0  0  0  0  0  0  0  0  0  0  0
  -23.8800  -19.2599   28.7689 C   0  0  0  0  0  0  0  0  0  0  0  0
  -23.6531  -19.0244   32.1659 C   0  0  0  0  0  0  0  0  0  0  0  0
  -31.0717  -12.1722   21.5750 C   0  0  0  0  0  0  0  0  0  0  0  0
  -24.1176  -22.1408   23.0460 C   0  0  0  0  0  0  0  0  0  0  0  0
  -24.1833  -16.0121   27.0446 C   0  0  0  0  0  0  0  0  0  0  0  0
  -25.7572  -17.5887   28.9893 C   0  0  0  0  0  0  0  0  0  0  0  0
  -24.6928  -21.9290   24.4441 C   0  0  0  0  0  0  0  0  0  0  0  0
  -29.5313  -13.4829   18.4685 C   0  0  0  0  0  0  0  0  0  0  0  0
  -25.7869  -20.8666   24.4159 C   0  0  0  0  0  0  0  0  0  0  0  0
  -28.0466  -13.2016   18.6923 C   0  0  0  0  0  0  0  0  0  0  0  0
  -32.2318  -12.1088   24.8440 C   0  0  0  0  0  0  0  0  0  0  0  0
  -30.5105  -13.9377   24.5717 C   0  0  0  0  0  0  0  0  0  0  0  0
  -30.4151  -12.4903   19.2172 C   0  0  0  0  0  0  0  0  0  0  0  0
  -31.4422  -11.2626   23.8489 C   0  0  0  0  0  0  0  0  0  0  0  0
  -29.7669  -13.0627   23.5582 C   0  0  0  0  0  0  0  0  0  0  0  0
  -28.6385  -12.1268   20.9005 C   0  0  0  0  0  0  0  0  0  0  0  0
  -32.8046  -15.1057   25.7025 C   0  0  0  0  0  0  0  0  0  0  0  0
  -25.2304  -19.5135   23.9564 C   0  0  1  0  0  0  0  0  0  0  0  0
  -24.1845  -17.5376   27.0281 C   0  0  1  0  0  0  0  0  0  0  0  0
  -27.7219  -13.1374   20.1946 C   0  0  2  0  0  0  0  0  0  0  0  0
  -31.3003  -13.0838   25.5612 C   0  0  0  0  0  0  0  0  0  0  0  0
  -31.9727  -16.3393   26.0427 C   0  0  2  0  0  0  0  0  0  0  0  0
  -31.3075  -14.6846   27.5230 C   0  0  1  0  0  0  0  0  0  0  0  0
  -32.7658  -17.6198   25.8153 C   0  0  0  0  0  0  0  0  0  0  0  0
  -22.5879  -20.1309   34.1505 C   0  0  0  0  0  0  0  0  0  0  0  0
  -33.2074  -13.9132   28.9593 C   0  0  0  0  0  0  0  0  0  0  0  0
  -31.0659  -12.4399   30.7166 C   0  0  0  0  0  0  0  0  0  0  0  0
  -25.9176  -21.5245   28.5969 C   0  0  0  0  0  0  0  0  0  0  0  0
  -25.4608  -22.0250   31.0072 C   0  0  0  0  0  0  0  0  0  0  0  0
  -23.6314  -22.2311   29.3239 C   0  0  0  0  0  0  0  0  0  0  0  0
  -30.5053  -16.9501   27.8957 C   0  0  0  0  0  0  0  0  0  0  0  0
  -22.1640  -16.5690   32.8818 C   0  0  0  0  0  0  0  0  0  0  0  0
  -29.4630  -12.7655   28.7976 C   0  0  0  0  0  0  0  0  0  1  0  0
  -24.4431  -19.9333   29.9970 C   0  0  1  0  0  0  0  0  0  0  0  0
  -22.4558  -19.0401   33.0990 C   0  0  2  0  0  0  0  0  0  0  0  0
  -31.6851  -14.0910   28.8746 C   0  0  2  0  0  0  0  0  0  0  0  0
  -30.9390  -12.7707   29.2218 C   0  0  1  0  0  0  0  0  0  0  0  0
  -24.8718  -21.4026   29.7232 C   0  0  0  0  0  0  0  0  0  0  0  0
  -25.8699  -11.5614   20.6044 N   0  0  0  0  0  0  0  0  0  0  0  0
  -26.2558  -12.8390   20.4473 N   0  0  0  0  0  0  0  0  0  0  0  0
  -24.5564  -18.1165   28.3206 N   0  0  0  0  0  0  0  0  0  0  0  0
  -30.0567  -12.4114   20.6334 N   0  0  0  0  0  0  0  0  0  0  0  0
  -30.6852  -12.1064   22.9222 N   0  0  0  0  0  0  0  0  0  0  0  0
  -31.6214  -16.1195   27.4552 N   0  0  2  0  0  0  0  0  0  0  0  0
  -25.4471  -15.0650   20.4068 N   0  0  0  0  0  0  0  0  0  0  0  0
  -21.7288  -12.6195   21.1748 N   0  0  0  0  0  0  0  0  0  0  0  0
  -24.5098  -18.8710   25.0346 N   0  0  0  0  0  0  0  0  0  0  0  0
  -23.4335  -19.7900   31.0403 N   0  0  0  0  0  0  0  0  0  0  0  0
  -32.1086  -13.9741   26.4340 N   0  3  2  0  0  0  0  0  0  0  0  0
  -22.3247  -17.7292   33.7956 N   0  3  0  0  0  0  0  0  0  0  0  0
  -22.5283  -14.7474   20.8718 O   0  0  0  0  0  0  0  0  0  0  0  0
  -26.3268  -17.8698   26.0924 O   0  0  0  0  0  0  0  0  0  0  0  0
  -22.8726  -19.7268   28.2314 O   0  0  0  0  0  0  0  0  0  0  0  0
  -24.6818  -18.3988   32.4128 O   0  0  0  0  0  0  0  0  0  0  0  0
  -32.2517  -12.0285   21.2312 O   0  0  0  0  0  0  0  0  0  0  0  0
  -21.4715   -7.0737   21.6361 O   0  0  0  0  0  0  0  0  0  0  0  0
  -28.7458  -13.7449   29.5415 O   0  0  0  0  0  0  0  0  0  1  0  0
  -23.4281   -3.2706   25.1163 F   0  0  0  0  0  0  0  0  0  0  0  0
  -20.0510   -6.3547   23.8962 F   0  0  0  0  0  0  0  0  0  0  0  0
  1  2  1  0  0  0  0
  1  5  2  0  0  0  0
  2  6  2  0  0  0  0
  3  8  2  0  0  0  0
  3 15  1  0  0  0  0
  4  9  1  0  0  0  0
  4 15  2  0  0  0  0
  5 17  1  0  0  0  0
  6 19  1  0  0  0  0
  7 10  2  0  0  0  0
  7 18  1  0  0  0  0
  8 21  1  0  0  0  0
  9 21  2  0  0  0  0
 10 22  1  0  0  0  0
 11 12  2  0  0  0  0
 11 23  1  0  0  0  0
 12 24  1  0  0  0  0
 13 20  1  0  0  0  0
 13 22  2  0  0  0  0
 14 24  2  0  0  0  0
 14 25  1  0  0  0  0
 15 26  1  0  0  0  0
 16 26  1  0  0  0  0
 16 27  2  0  0  0  0
 16 28  1  0  0  0  0
 17 19  2  0  0  0  0
 17 33  1  0  0  0  0
 18 20  2  0  0  0  0
 18 34  1  0  0  0  0
 19 47  1  0  0  0  0
 20 35  1  0  0  0  0
 21 85  1  0  0  0  0
 22 86  1  0  0  0  0
 23 25  2  0  0  0  0
 23 85  1  0  0  0  0
 24 87  1  0  0  0  0
 25 88  1  0  0  0  0
 26 68  2  0  0  0  0
 27 69  1  0  0  0  0
 27 74  1  0  0  0  0
 28 75  1  0  0  0  0
 28 80  2  0  0  0  0
 29 48  1  0  0  0  0
 29 76  1  0  0  0  0
 29 81  2  0  0  0  0
 30 63  1  0  0  0  0
 30 70  1  0  0  0  0
 30 82  2  0  0  0  0
 31 64  1  0  0  0  0
 31 77  1  0  0  0  0
 31 83  2  0  0  0  0
 32 71  1  0  0  0  0
 32 72  1  0  0  0  0
 32 84  2  0  0  0  0
 33 36  1  0  0  0  0
 34 48  1  0  0  0  0
 35 70  1  0  0  0  0
 36 38  1  0  0  0  0
 37 39  1  0  0  0  0
 37 42  1  0  0  0  0
 38 47  1  0  0  0  0
 39 49  1  0  0  0  0
 40 43  1  0  0  0  0
 40 50  1  0  0  0  0
 41 44  1  0  0  0  0
 41 50  1  0  0  0  0
 42 71  1  0  0  0  0
 43 72  1  0  0  0  0
 44 72  1  0  0  0  0
 45 49  1  0  0  0  0
 45 71  1  0  0  0  0
 46 51  1  0  0  0  0
 46 78  1  0  0  0  0
 47 76  1  0  0  0  0
 48 70  1  0  0  0  0
 49 69  1  0  0  0  0
 50 78  1  0  0  0  0
 51 53  1  0  0  0  0
 51 73  1  0  0  0  0
 52 65  1  0  0  0  0
 52 73  1  0  0  0  0
 52 78  1  0  0  0  0
 54 64  1  0  0  0  0
 55 65  1  0  0  0  0
 56 66  1  0  0  0  0
 57 67  1  0  0  0  0
 58 67  1  0  0  0  0
 59 67  1  0  0  0  0
 60 73  1  0  0  0  0
 61 79  1  0  0  0  0
 62 66  1  0  0  0  0
 62 86  1  0  0  0  0
 63 67  1  0  0  0  0
 63 77  1  0  0  0  0
 64 79  1  0  0  0  0
 65 66  1  0  0  0  0
 68 69  1  0  0  0  0
M  CHG  2  78   1  79   1
M  ISO  4  32 100  62 101  72 100  86 101
M  END
> <Batch ID>
0175

> <Smiles>
CNC(C)C(=O)NC(C(=O)N1Cc2cc([101O:1][101CH2:1]C(C)C(C)C3N(C)C(C)CN3C3CC[100N:0]([100C:0](=O)N4CCCC(n5nc(-c6ccc(Oc7ccc(F)cc7F)cc6)c(C(N)=O)c5N)C4)CC3)ccc2CC1C(=O)NC1CCCc2ccccc21)C(C)(C)C

> <Shape>
0.137

> <Color>
0.171

> <Negative vol penalty>
0.000

$$$$

  -OEChem-04052322473D

 91101  0     1  0  0  0  0  0999 V2000
  -16.4294  -29.8150   22.4679 C   0  0  0  0  0  0  0  0  0  0  0  0
  -17.5447  -29.6803   21.6472 C   0  0  0  0  0  0  0  0  0  0  0  0
  -26.6223  -12.3412   21.6011 C   0  0  0  0  0  0  0  0  0  0  0  0
  -25.8216  -13.5899   19.6941 C   0  0  0  0  0  0  0  0  0  0  0  0
  -16.5917  -29.9474   23.8463 C   0  0  0  0  0  0  0  0  0  0  0  0
  -18.8229  -29.6791   22.2044 C   0  0  0  0  0  0  0  0  0  0  0  0
  -21.7745  -26.0381   20.2871 C   0  0  0  0  0  0  0  0  0  0  0  0
  -25.3795  -11.7182   21.7150 C   0  0  0  0  0  0  0  0  0  0  0  0
  -24.5788  -12.9670   19.8080 C   0  0  0  0  0  0  0  0  0  0  0  0
  -22.3309  -26.2659   19.0292 C   0  0  0  0  0  0  0  0  0  0  0  0
  -23.7073   -9.1998   20.2004 C   0  0  0  0  0  0  0  0  0  0  0  0
  -23.6902   -7.8208   20.4091 C   0  0  0  0  0  0  0  0  0  0  0  0
  -24.4141  -26.8936   20.0711 C   0  0  0  0  0  0  0  0  0  0  0  0
  -22.5138   -8.1509   22.4934 C   0  0  0  0  0  0  0  0  0  0  0  0
  -31.1735  -21.7598   17.6711 C   0  0  0  0  0  0  0  0  0  0  0  0
  -26.8434  -13.2771   20.5907 C   0  0  0  0  0  0  0  0  0  0  0  0
  -29.2326  -13.4820   19.7205 C   0  0  0  0  0  0  0  0  0  0  0  0
  -17.8721  -29.9381   24.4217 C   0  0  0  0  0  0  0  0  0  0  0  0
  -22.5316  -26.2471   21.4487 C   0  0  0  0  0  0  0  0  0  0  0  0
  -19.0025  -29.8128   23.5917 C   0  0  0  0  0  0  0  0  0  0  0  0
  -23.8657  -26.6652   21.3424 C   0  0  0  0  0  0  0  0  0  0  0  0
  -30.3369  -21.9587   16.6002 C   0  0  0  0  0  0  0  0  0  0  0  0
  -24.3578  -12.0311   20.8185 C   0  0  0  0  0  0  0  0  0  0  0  0
  -23.6500  -26.6965   18.9211 C   0  0  0  0  0  0  0  0  0  0  0  0
  -23.1278  -10.0544   21.1382 C   0  0  0  0  0  0  0  0  0  0  0  0
  -23.0934   -7.2963   21.5556 C   0  0  0  0  0  0  0  0  0  0  0  0
  -22.5311   -9.5299   22.2847 C   0  0  0  0  0  0  0  0  0  0  0  0
  -28.1268  -13.9213   20.4728 C   0  0  0  0  0  0  0  0  0  0  0  0
  -29.4063  -22.9130   17.0530 C   0  0  0  0  0  0  0  0  0  0  0  0
  -30.1970  -14.4354   19.9389 C   0  0  0  0  0  0  0  0  0  0  0  0
  -29.3754  -12.3164   18.8979 C   0  0  0  0  0  0  0  0  0  0  0  0
  -22.2935  -28.1749   23.9648 C   0  0  0  0  0  0  0  0  0  0  0  0
  -24.8162  -26.4425   25.0404 C   0  0  0  0  0  0  0  0  0  0  0  0
  -27.4965  -24.4628   24.3030 C   0  0  0  0  0  0  0  0  0  0  0  0
  -29.8249  -20.1488   21.3787 C   0  0  0  0  0  0  0  0  0  0  0  0
  -17.9997  -30.1317   25.9119 C   0  0  0  0  0  0  0  0  0  0  0  0
  -21.9250  -25.9711   22.7972 C   0  0  0  0  0  0  0  0  0  0  0  0
  -24.7273  -26.8848   22.5581 C   0  0  0  0  0  0  0  0  0  0  0  0
  -19.3703  -29.7445   26.4613 C   0  0  0  0  0  0  0  0  0  0  0  0
  -31.6474  -17.6143   23.2096 C   0  0  0  0  0  0  0  0  0  0  0  0
  -20.4786  -30.3293   25.5917 C   0  0  0  0  0  0  0  0  0  0  0  0
  -31.0459  -16.3312   22.6334 C   0  0  0  0  0  0  0  0  0  0  0  0
  -31.7544  -24.0894   20.6433 C   0  0  0  0  0  0  0  0  0  0  0  0
  -31.4203  -23.5627   22.0515 C   0  0  0  0  0  0  0  0  0  0  0  0
  -26.9306  -23.1649   16.9841 C   0  0  0  0  0  0  0  0  0  0  0  0
  -28.4322  -25.0213   16.1560 C   0  0  0  0  0  0  0  0  0  0  0  0
  -30.5886  -18.7029   23.3583 C   0  0  0  0  0  0  0  0  0  0  0  0
  -29.2515  -17.7421   21.5246 C   0  0  0  0  0  0  0  0  0  0  0  0
  -25.7563  -23.8012   16.2515 C   0  0  0  0  0  0  0  0  0  0  0  0
  -27.2465  -25.6432   15.4295 C   0  0  0  0  0  0  0  0  0  0  0  0
  -20.4042  -29.7820   24.1611 C   0  0  1  0  0  0  0  0  0  0  0  0
  -28.2679  -23.5001   16.3042 C   0  0  0  0  0  0  0  0  0  0  0  0
  -22.6282  -26.7105   23.9313 C   0  0  1  0  0  0  0  0  0  0  0  0
  -30.2762  -16.6099   21.3288 C   0  0  2  0  0  0  0  0  0  0  0  0
  -31.3785  -22.6781   20.0978 C   0  0  1  0  0  0  0  0  0  0  0  0
  -30.4743  -22.5526   21.3666 C   0  0  1  0  0  0  0  0  0  0  0  0
  -30.2205  -19.7771   15.3429 C   0  0  0  0  0  0  0  0  0  0  0  0
  -31.7175  -21.6296   14.5170 C   0  0  0  0  0  0  0  0  0  0  0  0
  -29.3928  -23.2295   25.3895 C   0  0  0  0  0  0  0  0  0  0  0  0
  -26.2905  -29.0812   25.4568 C   0  0  0  0  0  0  0  0  0  0  0  0
  -28.4252  -27.7829   25.6173 C   0  0  0  0  0  0  0  0  0  0  0  0
  -26.6105  -27.4073   27.2872 C   0  0  0  0  0  0  0  0  0  0  0  0
  -26.5386  -21.8552   23.2821 C   0  0  0  0  0  0  0  0  0  0  0  0
  -24.7806  -25.9883   15.5565 C   0  0  0  0  0  0  0  0  0  0  0  0
  -23.7012  -26.1344   16.6109 C   0  0  0  0  0  0  0  0  0  1  0  0
  -30.4084  -21.3121   15.2792 C   0  0  0  0  0  0  0  0  0  0  0  0
  -26.3172  -26.5548   24.9251 C   0  0  1  0  0  0  0  0  0  0  0  0
  -27.9614  -23.1395   24.8837 C   0  0  2  0  0  0  0  0  0  0  0  0
  -26.8943  -27.7044   25.7986 C   0  0  0  0  0  0  0  0  0  0  0  0
  -28.3654  -15.0647   21.1207 N   0  0  0  0  0  0  0  0  0  0  0  0
  -29.6302  -23.2938   18.3135 N   0  0  0  0  0  0  0  0  0  0  0  0
  -30.7110  -22.5750   18.6619 N   0  0  0  0  0  0  0  0  0  0  0  0
  -29.6322  -15.3519   20.7763 N   0  0  0  0  0  0  0  0  0  0  0  0
  -24.0868  -26.6075   23.8544 N   0  0  0  0  0  0  0  0  0  0  0  0
  -29.9060  -18.9327   22.0771 N   0  0  0  0  0  0  0  0  0  0  0  0
  -31.4645  -14.5707   19.4944 N   0  0  0  0  0  0  0  0  0  0  0  0
  -28.2861  -11.4419   18.7835 N   0  0  0  0  0  0  0  0  0  0  0  0
  -20.9447  -28.4407   24.1044 N   0  0  0  0  0  0  0  0  0  0  0  0
  -26.8511  -25.2354   25.2452 N   0  0  0  0  0  0  0  0  0  0  0  0
  -30.4654  -21.2292   21.9731 N   0  0  0  0  0  0  0  0  0  0  0  0
  -25.9556  -25.3018   16.1500 N   0  3  0  0  0  0  0  0  0  0  0  0
  -27.8948  -22.0682   23.8498 N   0  3  0  0  0  0  0  0  0  0  0  0
  -30.4429  -12.0495   18.2956 O   0  0  0  0  0  0  0  0  0  0  0  0
  -23.1926  -29.0024   23.8723 O   0  0  0  0  0  0  0  0  0  0  0  0
  -24.3100  -26.2095   26.1409 O   0  0  0  0  0  0  0  0  0  0  0  0
  -27.6899  -24.7809   23.1317 O   0  0  0  0  0  0  0  0  0  0  0  0
  -29.2299  -20.2625   20.3016 O   0  0  0  0  0  0  0  0  0  0  0  0
  -23.1450  -11.4232   20.9292 O   0  0  0  0  0  0  0  0  0  0  0  0
  -24.1953  -26.9203   17.6946 O   0  0  0  0  0  0  0  0  0  1  0  0
  -23.0756   -5.9719   21.7551 F   0  0  0  0  0  0  0  0  0  0  0  0
  -21.9716  -10.3459   23.1887 F   0  0  0  0  0  0  0  0  0  0  0  0
  1  2  1  0  0  0  0
  1  5  2  0  0  0  0
  2  6  2  0  0  0  0
  3  8  2  0  0  0  0
  3 16  1  0  0  0  0
  4  9  1  0  0  0  0
  4 16  2  0  0  0  0
  5 18  1  0  0  0  0
  6 20  1  0  0  0  0
  7 10  2  0  0  0  0
  7 19  1  0  0  0  0
  8 23  1  0  0  0  0
  9 23  2  0  0  0  0
 10 24  1  0  0  0  0
 11 12  2  0  0  0  0
 11 25  1  0  0  0  0
 12 26  1  0  0  0  0
 13 21  1  0  0  0  0
 13 24  2  0  0  0  0
 14 26  2  0  0  0  0
 14 27  1  0  0  0  0
 15 22  2  0  0  0  0
 15 72  1  0  0  0  0
 16 28  1  0  0  0  0
 17 28  1  0  0  0  0
 17 30  2  0  0  0  0
 17 31  1  0  0  0  0
 18 20  2  0  0  0  0
 18 36  1  0  0  0  0
 19 21  2  0  0  0  0
 19 37  1  0  0  0  0
 20 51  1  0  0  0  0
 21 38  1  0  0  0  0
 22 29  1  0  0  0  0
 22 66  1  0  0  0  0
 23 88  1  0  0  0  0
 24 89  1  0  0  0  0
 25 27  2  0  0  0  0
 25 88  1  0  0  0  0
 26 90  1  0  0  0  0
 27 91  1  0  0  0  0
 28 70  2  0  0  0  0
 29 52  1  0  0  0  0
 29 71  2  0  0  0  0
 30 73  1  0  0  0  0
 30 76  1  0  0  0  0
 31 77  1  0  0  0  0
 31 83  2  0  0  0  0
 32 53  1  0  0  0  0
 32 78  1  0  0  0  0
 32 84  2  0  0  0  0
 33 67  1  0  0  0  0
 33 74  1  0  0  0  0
 33 85  2  0  0  0  0
 34 68  1  0  0  0  0
 34 79  1  0  0  0  0
 34 86  2  0  0  0  0
 35 75  1  0  0  0  0
 35 80  1  0  0  0  0
 35 87  2  0  0  0  0
 36 39  1  0  0  0  0
 37 53  1  0  0  0  0
 38 74  1  0  0  0  0
 39 41  1  0  0  0  0
 40 42  1  0  0  0  0
 40 47  1  0  0  0  0
 41 51  1  0  0  0  0
 42 54  1  0  0  0  0
 43 44  1  0  0  0  0
 43 55  1  0  0  0  0
 44 56  1  0  0  0  0
 45 49  1  0  0  0  0
 45 52  1  0  0  0  0
 46 50  1  0  0  0  0
 46 52  1  0  0  0  0
 47 75  1  0  0  0  0
 48 54  1  0  0  0  0
 48 75  1  0  0  0  0
 49 81  1  0  0  0  0
 50 81  1  0  0  0  0
 51 78  1  0  0  0  0
 53 74  1  0  0  0  0
 54 73  1  0  0  0  0
 55 56  1  0  0  0  0
 55 72  1  0  0  0  0
 56 80  1  0  0  0  0
 57 66  1  0  0  0  0
 58 66  1  0  0  0  0
 59 68  1  0  0  0  0
 60 69  1  0  0  0  0
 61 69  1  0  0  0  0
 62 69  1  0  0  0  0
 63 82  1  0  0  0  0
 64 65  1  0  0  0  0
 64 81  1  0  0  0  0
 65 89  1  0  0  0  0
 67 69  1  0  0  0  0
 67 79  1  0  0  0  0
 68 82  1  0  0  0  0
 70 73  1  0  0  0  0
 71 72  1  0  0  0  0
M  CHG  2  81   1  82   1
M  ISO  4  35 100  65 101  80 100  89 101
M  END
> <Batch ID>
0175

> <Smiles>
CNC(C)C(=O)NC(C(=O)N1Cc2cc([101O:1][101CH2:1]CN3CCC(c4nn(C5CCC5[100NH:0][100C:0](=O)N5CCCC(n6nc(-c7ccc(Oc8ccc(F)cc8F)cc7)c(C(N)=O)c6N)C5)cc4C(C)C)CC3)ccc2CC1C(=O)NC1CCCc2ccccc21)C(C)(C)C

> <Shape>
0.230

> <Color>
0.090

> <Negative vol penalty>
0.000

$$$$

  -OEChem-04052322473D

 88 97  0     1  0  0  0  0  0999 V2000
  -27.6361  -30.5196   28.2588 C   0  0  0  0  0  0  0  0  0  0  0  0
  -27.6908  -29.6444   27.1788 C   0  0  0  0  0  0  0  0  0  0  0  0
  -23.5793   -9.8981   22.2343 C   0  0  0  0  0  0  0  0  0  0  0  0
  -24.6557   -8.4813   20.6001 C   0  0  0  0  0  0  0  0  0  0  0  0
  -26.4544  -31.2035   28.5412 C   0  0  0  0  0  0  0  0  0  0  0  0
  -26.5634  -29.4518   26.3811 C   0  0  0  0  0  0  0  0  0  0  0  0
  -27.6509  -29.5036   21.4354 C   0  0  0  0  0  0  0  0  0  0  0  0
  -22.4477   -9.0837   22.1951 C   0  0  0  0  0  0  0  0  0  0  0  0
  -23.5241   -7.6668   20.5608 C   0  0  0  0  0  0  0  0  0  0  0  0
  -28.2202  -28.3506   20.8966 C   0  0  0  0  0  0  0  0  0  0  0  0
  -22.1545   -5.2162   22.4422 C   0  0  0  0  0  0  0  0  0  0  0  0
  -22.3501   -3.8356   22.4770 C   0  0  0  0  0  0  0  0  0  0  0  0
  -26.0635  -27.6941   20.0382 C   0  0  0  0  0  0  0  0  0  0  0  0
  -21.2540   -3.6264   20.3341 C   0  0  0  0  0  0  0  0  0  0  0  0
  -30.6445  -22.6139   17.9060 C   0  0  0  0  0  0  0  0  0  0  0  0
  -24.6834   -9.5970   21.4368 C   0  0  0  0  0  0  0  0  0  0  0  0
  -26.9672  -10.3051   22.3258 C   0  0  0  0  0  0  0  0  0  0  0  0
  -25.3148  -31.0266   27.7408 C   0  0  0  0  0  0  0  0  0  0  0  0
  -26.2793  -29.7555   21.2888 C   0  0  0  0  0  0  0  0  0  0  0  0
  -25.3649  -30.1330   26.6538 C   0  0  0  0  0  0  0  0  0  0  0  0
  -25.4797  -28.8523   20.5739 C   0  0  0  0  0  0  0  0  0  0  0  0
  -29.5212  -23.6254   19.7422 C   0  0  0  0  0  0  0  0  0  0  0  0
  -29.8155  -24.8703   19.1972 C   0  0  0  0  0  0  0  0  0  0  0  0
  -22.4200   -7.9680   21.3584 C   0  0  0  0  0  0  0  0  0  0  0  0
  -27.4260  -27.4443   20.2003 C   0  0  0  0  0  0  0  0  0  0  0  0
  -21.5087   -5.8020   21.3534 C   0  0  0  0  0  0  0  0  0  0  0  0
  -29.9400  -22.4708   19.0905 C   0  0  0  0  0  0  0  0  0  0  0  0
  -21.8998   -3.0407   21.4229 C   0  0  0  0  0  0  0  0  0  0  0  0
  -21.0585   -5.0071   20.2993 C   0  0  0  0  0  0  0  0  0  0  0  0
  -25.8525  -10.4382   21.4764 C   0  0  0  0  0  0  0  0  0  0  0  0
  -30.5258  -24.9060   18.0081 C   0  0  0  0  0  0  0  0  0  0  0  0
  -27.7951  -11.3419   21.9709 C   0  0  0  0  0  0  0  0  0  0  0  0
  -27.2308   -9.3311   23.3445 C   0  0  0  0  0  0  0  0  0  0  0  0
  -23.8336  -30.0909   23.2913 C   0  0  0  0  0  0  0  0  0  0  0  0
  -22.2253  -30.8615   20.5818 C   0  0  0  0  0  0  0  0  0  0  0  0
  -21.9920  -30.6270   17.1851 C   0  0  0  0  0  0  0  0  0  0  0  0
  -28.7660  -16.4694   20.7143 C   0  0  0  0  0  0  0  0  0  0  0  0
  -24.0461  -31.7520   28.1135 C   0  0  0  0  0  0  0  0  0  0  0  0
  -25.6855  -31.0171   21.8530 C   0  0  0  0  0  0  0  0  0  0  0  0
  -24.0058  -29.0865   20.3711 C   0  0  0  0  0  0  0  0  0  0  0  0
  -23.0073  -31.7761   26.9953 C   0  0  0  0  0  0  0  0  0  0  0  0
  -27.6262  -14.5061   18.0370 C   0  0  0  0  0  0  0  0  0  0  0  0
  -22.8540  -30.3891   26.3790 C   0  0  0  0  0  0  0  0  0  0  0  0
  -27.1474  -13.2499   18.7642 C   0  0  0  0  0  0  0  0  0  0  0  0
  -30.6009  -19.1063   18.8629 C   0  0  0  0  0  0  0  0  0  0  0  0
  -28.1174  -19.5784   18.7250 C   0  0  0  0  0  0  0  0  0  0  0  0
  -27.2598  -15.7824   18.7963 C   0  0  0  0  0  0  0  0  0  0  0  0
  -30.3465  -18.2651   20.1128 C   0  0  0  0  0  0  0  0  0  0  0  0
  -27.9205  -18.7301   19.9793 C   0  0  0  0  0  0  0  0  0  0  0  0
  -27.2313  -14.5373   20.9329 C   0  0  0  0  0  0  0  0  0  0  0  0
  -24.1704  -29.9163   25.7504 C   0  0  1  0  0  0  0  0  0  0  0  0
  -24.1810  -30.9174   22.0856 C   0  0  1  0  0  0  0  0  0  0  0  0
  -27.6365  -13.2359   20.2235 C   0  0  1  0  0  0  0  0  0  0  0  0
  -29.5254  -20.1699   18.6388 C   0  0  0  0  0  0  0  0  0  0  0  0
  -30.8732  -26.2140   17.3755 C   0  0  0  0  0  0  0  0  0  0  0  0
  -29.5777  -22.8466   22.1388 C   0  0  0  0  0  0  0  0  0  0  0  0
  -27.4138  -22.7928   20.8467 C   0  0  0  0  0  0  0  0  0  0  0  0
  -20.5481  -31.3294   15.2566 C   0  0  0  0  0  0  0  0  0  0  0  0
  -20.1835  -28.7228   21.3346 C   0  0  0  0  0  0  0  0  0  0  0  0
  -19.3337  -28.8046   18.9811 C   0  0  0  0  0  0  0  0  0  0  0  0
  -19.1966  -30.8334   20.4260 C   0  0  0  0  0  0  0  0  0  0  0  0
  -24.1971  -32.1606   15.9422 C   0  0  0  0  0  0  0  0  0  0  0  0
  -29.3786  -26.1269   19.8722 C   0  0  0  0  0  0  0  0  0  1  0  0
  -28.7586  -23.5204   21.0235 C   0  0  0  0  0  0  0  0  0  0  0  0
  -21.4463  -30.0892   19.5446 C   0  0  1  0  0  0  0  0  0  0  0  0
  -21.7525  -31.6787   16.1169 C   0  0  2  0  0  0  0  0  0  0  0  0
  -20.0674  -29.6068   20.0769 C   0  0  0  0  0  0  0  0  0  0  0  0
  -30.9493  -23.8060   17.3460 N   0  0  0  0  0  0  0  0  0  0  0  0
  -25.9593  -11.4779   20.6447 N   0  0  0  0  0  0  0  0  0  0  0  0
  -27.1509  -12.0074   20.9698 N   0  0  0  0  0  0  0  0  0  0  0  0
  -23.4708  -30.3312   20.9471 N   0  0  0  0  0  0  0  0  0  0  0  0
  -27.7115  -15.7056   20.1920 N   0  0  0  0  0  0  0  0  0  0  0  0
  -28.9855  -17.7300   20.1335 N   0  0  0  0  0  0  0  0  0  0  0  0
  -29.0040  -11.7403   22.4207 N   0  0  0  0  0  0  0  0  0  0  0  0
  -26.2739   -8.3344   23.5795 N   0  0  0  0  0  0  0  0  0  0  0  0
  -24.3794  -30.5598   24.4711 N   0  0  0  0  0  0  0  0  0  0  0  0
  -21.3653  -30.9505   18.3699 N   0  0  0  0  0  0  0  0  0  0  0  0
  -22.9447  -31.7976   15.2305 N   0  3  0  0  0  0  0  0  0  0  0  0
  -28.2762   -9.3541   24.0373 O   0  0  0  0  0  0  0  0  0  0  0  0
  -23.1218  -29.1019   23.1612 O   0  0  0  0  0  0  0  0  0  0  0  0
  -21.7495  -31.9009   21.0453 O   0  0  0  0  0  0  0  0  0  0  0  0
  -22.6645  -29.6175   16.9871 O   0  0  0  0  0  0  0  0  0  0  0  0
  -29.4720  -16.0518   21.6407 O   0  0  0  0  0  0  0  0  0  0  0  0
  -21.3160   -7.1729   21.3200 O   0  0  0  0  0  0  0  0  0  0  0  0
  -29.6731  -21.2229   19.5890 O   0  0  0  0  0  0  0  0  0  0  0  0
  -27.9828  -26.3100   19.6703 O   0  0  0  0  0  0  0  0  0  1  0  0
  -22.0891   -1.7151   21.4557 F   0  0  0  0  0  0  0  0  0  0  0  0
  -20.4384   -5.5642   19.2501 F   0  0  0  0  0  0  0  0  0  0  0  0
  1  2  1  0  0  0  0
  1  5  2  0  0  0  0
  2  6  2  0  0  0  0
  3  8  2  0  0  0  0
  3 16  1  0  0  0  0
  4  9  1  0  0  0  0
  4 16  2  0  0  0  0
  5 18  1  0  0  0  0
  6 20  1  0  0  0  0
  7 10  2  0  0  0  0
  7 19  1  0  0  0  0
  8 24  1  0  0  0  0
  9 24  2  0  0  0  0
 10 25  1  0  0  0  0
 11 12  2  0  0  0  0
 11 26  1  0  0  0  0
 12 28  1  0  0  0  0
 13 21  1  0  0  0  0
 13 25  2  0  0  0  0
 14 28  2  0  0  0  0
 14 29  1  0  0  0  0
 15 27  2  0  0  0  0
 15 68  1  0  0  0  0
 16 30  1  0  0  0  0
 17 30  1  0  0  0  0
 17 32  2  0  0  0  0
 17 33  1  0  0  0  0
 18 20  2  0  0  0  0
 18 38  1  0  0  0  0
 19 21  2  0  0  0  0
 19 39  1  0  0  0  0
 20 51  1  0  0  0  0
 21 40  1  0  0  0  0
 22 23  2  0  0  0  0
 22 27  1  0  0  0  0
 22 64  1  0  0  0  0
 23 31  1  0  0  0  0
 23 63  1  0  0  0  0
 24 84  1  0  0  0  0
 25 86  1  0  0  0  0
 26 29  2  0  0  0  0
 26 84  1  0  0  0  0
 27 85  1  0  0  0  0
 28 87  1  0  0  0  0
 29 88  1  0  0  0  0
 30 69  2  0  0  0  0
 31 55  1  0  0  0  0
 31 68  2  0  0  0  0
 32 70  1  0  0  0  0
 32 74  1  0  0  0  0
 33 75  1  0  0  0  0
 33 79  2  0  0  0  0
 34 52  1  0  0  0  0
 34 76  1  0  0  0  0
 34 80  2  0  0  0  0
 35 65  1  0  0  0  0
 35 71  1  0  0  0  0
 35 81  2  0  0  0  0
 36 66  1  0  0  0  0
 36 77  1  0  0  0  0
 36 82  2  0  0  0  0
 37 72  1  0  0  0  0
 37 73  1  0  0  0  0
 37 83  2  0  0  0  0
 38 41  1  0  0  0  0
 39 52  1  0  0  0  0
 40 71  1  0  0  0  0
 41 43  1  0  0  0  0
 42 44  1  0  0  0  0
 42 47  1  0  0  0  0
 43 51  1  0  0  0  0
 44 53  1  0  0  0  0
 45 48  1  0  0  0  0
 45 54  1  0  0  0  0
 46 49  1  0  0  0  0
 46 54  1  0  0  0  0
 47 72  1  0  0  0  0
 48 73  1  0  0  0  0
 49 73  1  0  0  0  0
 50 53  1  0  0  0  0
 50 72  1  0  0  0  0
 51 76  1  0  0  0  0
 52 71  1  0  0  0  0
 53 70  1  0  0  0  0
 54 85  1  0  0  0  0
 56 64  1  0  0  0  0
 57 64  1  0  0  0  0
 58 66  1  0  0  0  0
 59 67  1  0  0  0  0
 60 67  1  0  0  0  0
 61 67  1  0  0  0  0
 62 78  1  0  0  0  0
 63 86  1  0  0  0  0
 65 67  1  0  0  0  0
 65 77  1  0  0  0  0
 66 78  1  0  0  0  0
 69 70  1  0  0  0  0
M  CHG  1  78   1
M  ISO  4  37 100  63 101  73 100  86 101
M  END
> <Batch ID>
0175

> <Smiles>
CNC(C)C(=O)NC(C(=O)N1Cc2cc([101O:1][101CH2:1]c3c(C)ncc(OC4CC[100N:0]([100C:0](=O)N5CCCC(n6nc(-c7ccc(Oc8ccc(F)cc8F)cc7)c(C(N)=O)c6N)C5)CC4)c3C(C)C)ccc2CC1C(=O)NC1CCCc2ccccc21)C(C)(C)C

> <Shape>
0.299

> <Color>
0.109

> <Negative vol penalty>
0.000

$$$$

  -OEChem-04052322473D

 82 91  0     1  0  0  0  0  0999 V2000
  -30.8421  -33.0929   24.4159 C   0  0  0  0  0  0  0  0  0  0  0  0
  -30.4274  -31.9706   23.7061 C   0  0  0  0  0  0  0  0  0  0  0  0
  -26.3413  -13.4095   21.7672 C   0  0  0  0  0  0  0  0  0  0  0  0
  -26.3000  -12.2137   19.6683 C   0  0  0  0  0  0  0  0  0  0  0  0
  -29.9819  -33.6921   25.3351 C   0  0  0  0  0  0  0  0  0  0  0  0
  -29.1525  -31.4461   23.9159 C   0  0  0  0  0  0  0  0  0  0  0  0
  -26.7938  -30.2828   19.5883 C   0  0  0  0  0  0  0  0  0  0  0  0
  -25.0885  -12.8877   22.0892 C   0  0  0  0  0  0  0  0  0  0  0  0
  -25.0471  -11.6918   19.9903 C   0  0  0  0  0  0  0  0  0  0  0  0
  -27.1695  -29.0978   18.9570 C   0  0  0  0  0  0  0  0  0  0  0  0
  -21.9978   -9.7589   20.4189 C   0  0  0  0  0  0  0  0  0  0  0  0
  -21.7827   -8.3996   20.1918 C   0  0  0  0  0  0  0  0  0  0  0  0
  -25.2297  -27.9990   19.8785 C   0  0  0  0  0  0  0  0  0  0  0  0
  -23.5864   -7.8612   21.7065 C   0  0  0  0  0  0  0  0  0  0  0  0
  -26.9471  -13.0725   20.5568 C   0  0  0  0  0  0  0  0  0  0  0  0
  -29.4977  -13.0499   20.5183 C   0  0  0  0  0  0  0  0  0  0  0  0
  -28.6923  -33.1804   25.5493 C   0  0  0  0  0  0  0  0  0  0  0  0
  -25.6372  -30.3319   20.3797 C   0  0  0  0  0  0  0  0  0  0  0  0
  -28.2747  -32.0382   24.8399 C   0  0  0  0  0  0  0  0  0  0  0  0
  -24.8402  -29.1864   20.5167 C   0  0  0  0  0  0  0  0  0  0  0  0
  -24.4414  -12.0289   21.2008 C   0  0  0  0  0  0  0  0  0  0  0  0
  -26.3890  -27.9549   19.1044 C   0  0  0  0  0  0  0  0  0  0  0  0
  -23.0072  -10.1694   21.2897 C   0  0  0  0  0  0  0  0  0  0  0  0
  -22.5770   -7.4508   20.8356 C   0  0  0  0  0  0  0  0  0  0  0  0
  -23.8014   -9.2206   21.9335 C   0  0  0  0  0  0  0  0  0  0  0  0
  -28.2410  -13.6116   20.2233 C   0  0  0  0  0  0  0  0  0  0  0  0
  -30.4031  -13.9391   19.9929 C   0  0  0  0  0  0  0  0  0  0  0  0
  -29.8180  -11.8332   21.2058 C   0  0  0  0  0  0  0  0  0  0  0  0
  -25.0403  -30.9212   23.4457 C   0  0  0  0  0  0  0  0  0  0  0  0
  -21.9500  -30.7491   22.4747 C   0  0  0  0  0  0  0  0  0  0  0  0
  -19.6884  -29.5830   20.2004 C   0  0  0  0  0  0  0  0  0  0  0  0
  -30.3044  -19.6268   18.9683 C   0  0  0  0  0  0  0  0  0  0  0  0
  -27.8153  -33.8339   26.5878 C   0  0  0  0  0  0  0  0  0  0  0  0
  -25.2312  -31.6248   21.0323 C   0  0  0  0  0  0  0  0  0  0  0  0
  -23.5782  -29.1921   21.3388 C   0  0  0  0  0  0  0  0  0  0  0  0
  -26.3445  -33.4401   26.4781 C   0  0  0  0  0  0  0  0  0  0  0  0
  -30.8941  -17.1811   16.5159 C   0  0  0  0  0  0  0  0  0  0  0  0
  -26.2073  -31.9303   26.3096 C   0  0  0  0  0  0  0  0  0  0  0  0
  -30.3984  -15.9190   17.2211 C   0  0  0  0  0  0  0  0  0  0  0  0
  -29.8393  -25.9162   18.9922 C   0  0  0  0  0  0  0  0  0  0  0  0
  -29.1146  -27.2238   18.6409 C   0  0  0  0  0  0  0  0  0  0  0  0
  -28.2918  -25.4163   17.2350 C   0  0  0  0  0  0  0  0  0  0  0  0
  -29.9851  -18.3821   16.7834 C   0  0  0  0  0  0  0  0  0  0  0  0
  -29.6763  -21.2918   17.1633 C   0  0  0  0  0  0  0  0  0  0  0  0
  -31.3342  -21.8771   18.8944 C   0  0  0  0  0  0  0  0  0  0  0  0
  -29.2526  -17.3848   18.9254 C   0  0  0  0  0  0  0  0  0  0  0  0
  -28.8276  -22.4971   17.5552 C   0  0  0  0  0  0  0  0  0  0  0  0
  -30.5017  -23.0725   19.3282 C   0  0  0  0  0  0  0  0  0  0  0  0
  -26.8903  -31.4546   25.0217 C   0  0  1  0  0  0  0  0  0  0  0  0
  -24.3109  -31.4252   22.2326 C   0  0  1  0  0  0  0  0  0  0  0  0
  -30.1784  -16.1755   18.7225 C   0  0  1  0  0  0  0  0  0  0  0  0
  -28.9292  -24.8132   18.4771 C   0  0  1  0  0  0  0  0  0  0  0  0
  -27.9536  -26.8329   17.7083 C   0  0  2  0  0  0  0  0  0  1  0  0
  -27.7505  -27.8152   16.5642 C   0  0  0  0  0  0  0  0  0  0  0  0
  -17.2309  -29.5745   19.6927 C   0  0  0  0  0  0  0  0  0  0  0  0
  -21.5056  -28.6796   24.6723 C   0  0  0  0  0  0  0  0  0  0  0  0
  -19.3738  -28.0289   23.5320 C   0  0  0  0  0  0  0  0  0  0  0  0
  -19.6564  -30.3439   24.4172 C   0  0  0  0  0  0  0  0  0  0  0  0
  -20.1002  -30.9595   17.6131 C   0  0  0  0  0  0  0  0  0  0  0  0
  -20.9292  -29.6442   22.3478 C   0  0  1  0  0  0  0  0  0  0  0  0
  -18.5602  -30.2743   19.4563 C   0  0  2  0  0  0  0  0  0  0  0  0
  -20.3910  -29.1732   23.7283 C   0  0  0  0  0  0  0  0  0  0  0  0
  -28.3356  -14.7682   19.5620 N   0  0  0  0  0  0  0  0  0  0  0  0
  -29.6626  -14.9406   19.4371 N   0  0  0  0  0  0  0  0  0  0  0  0
  -23.2268  -30.4787   21.9623 N   0  0  0  0  0  0  0  0  0  0  0  0
  -29.7715  -18.5623   18.2262 N   0  0  0  0  0  0  0  0  0  0  0  0
  -30.4992  -20.8402   18.2919 N   0  0  0  0  0  0  0  0  0  0  0  0
  -31.7525  -13.9543   19.9569 N   0  0  0  0  0  0  0  0  0  0  0  0
  -28.7665  -11.0374   21.6807 N   0  0  0  0  0  0  0  0  0  0  0  0
  -26.0618  -31.7484   23.8720 N   0  0  0  0  0  0  0  0  0  0  0  0
  -19.8988  -30.1423   21.4431 N   0  0  0  0  0  0  0  0  0  0  0  0
  -29.7094  -23.5727   18.1428 N   0  3  0  0  0  0  0  0  0  0  0  0
  -18.8338  -30.2814   17.9914 N   0  3  0  0  0  0  0  0  0  0  0  0
  -31.0018  -11.4707   21.4077 O   0  0  0  0  0  0  0  0  0  0  0  0
  -24.7005  -29.8611   23.9579 O   0  0  0  0  0  0  0  0  0  0  0  0
  -21.6245  -31.8155   23.0023 O   0  0  0  0  0  0  0  0  0  0  0  0
  -20.3175  -28.6386   19.7282 O   0  0  0  0  0  0  0  0  0  0  0  0
  -30.5891  -19.5007   20.1660 O   0  0  0  0  0  0  0  0  0  0  0  0
  -23.2190  -11.5193   21.5148 O   0  0  0  0  0  0  0  0  0  0  0  0
  -26.7554  -26.7917   18.4871 O   0  0  0  0  0  0  0  0  0  1  0  0
  -22.3693   -6.1454   20.6186 F   0  0  0  0  0  0  0  0  0  0  0  0
  -24.7719   -9.6088   22.7722 F   0  0  0  0  0  0  0  0  0  0  0  0
  1  2  1  0  0  0  0
  1  5  2  0  0  0  0
  2  6  2  0  0  0  0
  3  8  2  0  0  0  0
  3 15  1  0  0  0  0
  4  9  1  0  0  0  0
  4 15  2  0  0  0  0
  5 17  1  0  0  0  0
  6 19  1  0  0  0  0
  7 10  2  0  0  0  0
  7 18  1  0  0  0  0
  8 21  1  0  0  0  0
  9 21  2  0  0  0  0
 10 22  1  0  0  0  0
 11 12  2  0  0  0  0
 11 23  1  0  0  0  0
 12 24  1  0  0  0  0
 13 20  1  0  0  0  0
 13 22  2  0  0  0  0
 14 24  2  0  0  0  0
 14 25  1  0  0  0  0
 15 26  1  0  0  0  0
 16 26  1  0  0  0  0
 16 27  2  0  0  0  0
 16 28  1  0  0  0  0
 17 19  2  0  0  0  0
 17 33  1  0  0  0  0
 18 20  2  0  0  0  0
 18 34  1  0  0  0  0
 19 49  1  0  0  0  0
 20 35  1  0  0  0  0
 21 79  1  0  0  0  0
 22 80  1  0  0  0  0
 23 25  2  0  0  0  0
 23 79  1  0  0  0  0
 24 81  1  0  0  0  0
 25 82  1  0  0  0  0
 26 63  2  0  0  0  0
 27 64  1  0  0  0  0
 27 68  1  0  0  0  0
 28 69  1  0  0  0  0
 28 74  2  0  0  0  0
 29 50  1  0  0  0  0
 29 70  1  0  0  0  0
 29 75  2  0  0  0  0
 30 60  1  0  0  0  0
 30 65  1  0  0  0  0
 30 76  2  0  0  0  0
 31 61  1  0  0  0  0
 31 71  1  0  0  0  0
 31 77  2  0  0  0  0
 32 66  1  0  0  0  0
 32 67  1  0  0  0  0
 32 78  2  0  0  0  0
 33 36  1  0  0  0  0
 34 50  1  0  0  0  0
 35 65  1  0  0  0  0
 36 38  1  0  0  0  0
 37 39  1  0  0  0  0
 37 43  1  0  0  0  0
 38 49  1  0  0  0  0
 39 51  1  0  0  0  0
 40 41  1  0  0  0  0
 40 52  1  0  0  0  0
 41 53  1  0  0  0  0
 42 52  1  0  0  0  0
 42 53  1  0  0  0  0
 43 66  1  0  0  0  0
 44 47  1  0  0  0  0
 44 67  1  0  0  0  0
 45 48  1  0  0  0  0
 45 67  1  0  0  0  0
 46 51  1  0  0  0  0
 46 66  1  0  0  0  0
 47 72  1  0  0  0  0
 48 72  1  0  0  0  0
 49 70  1  0  0  0  0
 50 65  1  0  0  0  0
 51 64  1  0  0  0  0
 52 72  1  0  0  0  0
 53 54  1  0  0  0  0
 53 80  1  0  0  0  0
 55 61  1  0  0  0  0
 56 62  1  0  0  0  0
 57 62  1  0  0  0  0
 58 62  1  0  0  0  0
 59 73  1  0  0  0  0
 60 62  1  0  0  0  0
 60 71  1  0  0  0  0
 61 73  1  0  0  0  0
 63 64  1  0  0  0  0
M  CHG  2  72   1  73   1
M  ISO  4  32 100  53 101  67 100  80 101
M  END
> <Batch ID>
0175

> <Smiles>
CNC(C)C(=O)NC(C(=O)N1Cc2cc([101O:1][101C:1]3(C)CCC(N4CC[100N:0]([100C:0](=O)N5CCCC(n6nc(-c7ccc(Oc8ccc(F)cc8F)cc7)c(C(N)=O)c6N)C5)CC4)C3)ccc2CC1C(=O)NC1CCCc2ccccc21)C(C)(C)C

> <Shape>
0.319

> <Color>
0.070

> <Negative vol penalty>
0.000

$$$$

  -OEChem-04052322473D

 88 97  0     1  0  0  0  0  0999 V2000
  -19.9059  -11.8507   23.4816 C   0  0  0  0  0  0  0  0  0  0  0  0
  -20.3226  -13.1754   23.3979 C   0  0  0  0  0  0  0  0  0  0  0  0
  -22.0627  -29.1409   22.6054 C   0  0  0  0  0  0  0  0  0  0  0  0
  -21.8421  -29.0216   20.2025 C   0  0  0  0  0  0  0  0  0  0  0  0
  -20.7256  -10.8315   22.9986 C   0  0  0  0  0  0  0  0  0  0  0  0
  -21.5597  -13.4815   22.8320 C   0  0  0  0  0  0  0  0  0  0  0  0
  -22.9643  -18.4298   19.5082 C   0  0  0  0  0  0  0  0  0  0  0  0
  -20.7393  -28.7239   22.7477 C   0  0  0  0  0  0  0  0  0  0  0  0
  -20.5187  -28.6045   20.3447 C   0  0  0  0  0  0  0  0  0  0  0  0
  -23.5903  -19.6321   19.8344 C   0  0  0  0  0  0  0  0  0  0  0  0
  -17.6579  -30.0930   22.5135 C   0  0  0  0  0  0  0  0  0  0  0  0
  -16.8590  -30.7758   23.4306 C   0  0  0  0  0  0  0  0  0  0  0  0
  -25.6938  -18.7397   19.0610 C   0  0  0  0  0  0  0  0  0  0  0  0
  -16.5083  -28.7222   24.6541 C   0  0  0  0  0  0  0  0  0  0  0  0
  -22.6141  -29.2898   21.3328 C   0  0  0  0  0  0  0  0  0  0  0  0
  -24.5446  -30.9295   21.6370 C   0  0  0  0  0  0  0  0  0  0  0  0
  -21.9692  -11.1260   22.4177 C   0  0  0  0  0  0  0  0  0  0  0  0
  -23.7017  -17.3678   18.9652 C   0  0  0  0  0  0  0  0  0  0  0  0
  -22.3973  -12.4652   22.3420 C   0  0  0  0  0  0  0  0  0  0  0  0
  -25.0743  -17.5259   18.7264 C   0  0  0  0  0  0  0  0  0  0  0  0
  -29.5569  -23.8184   24.2341 C   0  0  0  0  0  0  0  0  0  0  0  0
  -29.1564  -23.7327   25.5628 C   0  0  0  0  0  0  0  0  0  0  0  0
  -29.7978  -25.0641   23.6653 C   0  0  0  0  0  0  0  0  0  0  0  0
  -19.9673  -28.4556   21.6173 C   0  0  0  0  0  0  0  0  0  0  0  0
  -24.9558  -19.7862   19.6135 C   0  0  0  0  0  0  0  0  0  0  0  0
  -17.8819  -28.7247   22.6667 C   0  0  0  0  0  0  0  0  0  0  0  0
  -16.2842  -30.0905   24.5009 C   0  0  0  0  0  0  0  0  0  0  0  0
  -17.3072  -28.0394   23.7370 C   0  0  0  0  0  0  0  0  0  0  0  0
  -23.9810  -29.7212   21.1852 C   0  0  0  0  0  0  0  0  0  0  0  0
  -29.0126  -24.9130   26.2742 C   0  0  0  0  0  0  0  0  0  0  0  0
  -29.6251  -26.1848   24.4616 C   0  0  0  0  0  0  0  0  0  0  0  0
  -25.8614  -30.8588   21.2531 C   0  0  0  0  0  0  0  0  0  0  0  0
  -23.9325  -32.0184   22.3408 C   0  0  0  0  0  0  0  0  0  0  0  0
  -24.3640  -14.3971   19.8817 C   0  0  0  0  0  0  0  0  0  0  0  0
  -25.7151  -14.2058   16.9389 C   0  0  0  0  0  0  0  0  0  0  0  0
  -27.1266  -15.8268   14.2881 C   0  0  0  0  0  0  0  0  0  0  0  0
  -29.5371  -26.2706   20.1181 C   0  0  0  0  0  0  0  0  0  0  0  0
  -22.8411   -9.9868   21.9524 C   0  0  0  0  0  0  0  0  0  0  0  0
  -23.0065  -16.0867   18.5939 C   0  0  0  0  0  0  0  0  0  0  0  0
  -25.9070  -16.4234   18.1268 C   0  0  0  0  0  0  0  0  0  0  0  0
  -23.9735  -10.4251   21.0272 C   0  0  0  0  0  0  0  0  0  0  0  0
  -28.6886  -28.9309   17.9093 C   0  0  0  0  0  0  0  0  0  0  0  0
  -24.6829  -11.6503   21.5950 C   0  0  0  0  0  0  0  0  0  0  0  0
  -27.4368  -29.5442   18.5391 C   0  0  0  0  0  0  0  0  0  0  0  0
  -27.9201  -21.3940   20.2595 C   0  0  0  0  0  0  0  0  0  0  0  0
  -26.2343  -21.7538   22.0931 C   0  0  0  0  0  0  0  0  0  0  0  0
  -28.7198  -27.4135   18.0780 C   0  0  0  0  0  0  0  0  0  0  0  0
  -27.3130  -27.5547   20.0966 C   0  0  0  0  0  0  0  0  0  0  0  0
  -29.0443  -21.4824   21.2796 C   0  0  0  0  0  0  0  0  0  0  0  0
  -27.3619  -21.8409   23.1094 C   0  0  0  0  0  0  0  0  0  0  0  0
  -23.7217  -12.8393   21.7124 C   0  0  1  0  0  0  0  0  0  0  0  0
  -23.9526  -14.8920   18.5240 C   0  0  1  0  0  0  0  0  0  0  0  0
  -27.2642  -29.0893   20.0008 C   0  0  2  0  0  0  0  0  0  0  0  0
  -26.6204  -20.9003   20.8892 C   0  0  0  0  0  0  0  0  0  1  0  0
  -28.8915  -22.4105   26.2013 C   0  0  0  0  0  0  0  0  0  0  0  0
  -28.5853  -24.8847   27.7052 C   0  0  0  0  0  0  0  0  0  0  0  0
  -29.8664  -27.5504   23.9063 C   0  0  0  0  0  0  0  0  0  0  0  0
  -28.1691  -15.3994   12.0457 C   0  0  0  0  0  0  0  0  0  0  0  0
  -28.2680  -13.2512   18.3104 C   0  0  0  0  0  0  0  0  0  0  0  0
  -29.5093  -13.7529   16.1948 C   0  0  0  0  0  0  0  0  0  0  0  0
  -27.7003  -12.0353   16.2001 C   0  0  0  0  0  0  0  0  0  0  0  0
  -25.0550  -17.4145   12.8930 C   0  0  0  0  0  0  0  0  0  0  0  0
  -30.2287  -25.1894   22.2423 C   0  0  0  0  0  0  0  0  0  0  0  0
  -29.7261  -22.5720   23.4162 C   0  0  0  0  0  0  0  0  0  0  0  0
  -27.0869  -14.4819   16.3723 C   0  0  1  0  0  0  0  0  0  0  0  0
  -26.8833  -15.7157   12.7938 C   0  0  2  0  0  0  0  0  0  0  0  0
  -28.1261  -13.4006   16.7825 C   0  0  0  0  0  0  0  0  0  0  0  0
  -24.8672  -28.9401   20.5618 N   0  0  0  0  0  0  0  0  0  0  0  0
  -29.2374  -26.1412   25.7560 N   0  0  0  0  0  0  0  0  0  0  0  0
  -26.0010  -29.6594   20.6191 N   0  0  0  0  0  0  0  0  0  0  0  0
  -25.1827  -15.1876   17.7865 N   0  0  0  0  0  0  0  0  0  0  0  0
  -28.5527  -27.0487   19.4869 N   0  0  0  0  0  0  0  0  0  0  0  0
  -26.9020  -31.7064   21.3992 N   0  0  0  0  0  0  0  0  0  0  0  0
  -23.3629  -33.0597   21.5954 N   0  0  0  0  0  0  0  0  0  0  0  0
  -23.5123  -13.4498   20.4171 N   0  0  0  0  0  0  0  0  0  0  0  0
  -26.9118  -14.6261   14.9311 N   0  0  0  0  0  0  0  0  0  0  0  0
  -29.3041  -25.9751   21.4557 N   0  0  0  0  0  0  0  0  0  0  0  0
  -28.6095  -22.3570   22.4318 N   0  3  0  0  0  0  0  0  0  0  0  0
  -26.3327  -16.9944   12.2621 N   0  3  0  0  0  0  0  0  0  0  0  0
  -23.9064  -32.0746   23.5936 O   0  0  0  0  0  0  0  0  0  0  0  0
  -25.3798  -14.8408   20.4043 O   0  0  0  0  0  0  0  0  0  0  0  0
  -25.1342  -13.1610   16.6347 O   0  0  0  0  0  0  0  0  0  0  0  0
  -27.4761  -16.8730   14.8301 O   0  0  0  0  0  0  0  0  0  0  0  0
  -30.5513  -25.8734   19.5345 O   0  0  0  0  0  0  0  0  0  0  0  0
  -18.6760  -28.0484   21.7558 O   0  0  0  0  0  0  0  0  0  0  0  0
  -25.5695  -20.9584   19.9316 O   0  0  0  0  0  0  0  0  0  1  0  0
  -15.5183  -30.7466   25.3824 F   0  0  0  0  0  0  0  0  0  0  0  0
  -17.5197  -26.7251   23.8900 F   0  0  0  0  0  0  0  0  0  0  0  0
  1  2  1  0  0  0  0
  1  5  2  0  0  0  0
  2  6  2  0  0  0  0
  3  8  2  0  0  0  0
  3 15  1  0  0  0  0
  4  9  1  0  0  0  0
  4 15  2  0  0  0  0
  5 17  1  0  0  0  0
  6 19  1  0  0  0  0
  7 10  2  0  0  0  0
  7 18  1  0  0  0  0
  8 24  1  0  0  0  0
  9 24  2  0  0  0  0
 10 25  1  0  0  0  0
 11 12  2  0  0  0  0
 11 26  1  0  0  0  0
 12 27  1  0  0  0  0
 13 20  1  0  0  0  0
 13 25  2  0  0  0  0
 14 27  2  0  0  0  0
 14 28  1  0  0  0  0
 15 29  1  0  0  0  0
 16 29  1  0  0  0  0
 16 32  2  0  0  0  0
 16 33  1  0  0  0  0
 17 19  2  0  0  0  0
 17 38  1  0  0  0  0
 18 20  2  0  0  0  0
 18 39  1  0  0  0  0
 19 51  1  0  0  0  0
 20 40  1  0  0  0  0
 21 22  1  0  0  0  0
 21 23  2  0  0  0  0
 21 64  1  0  0  0  0
 22 30  2  0  0  0  0
 22 55  1  0  0  0  0
 23 31  1  0  0  0  0
 23 63  1  0  0  0  0
 24 85  1  0  0  0  0
 25 86  1  0  0  0  0
 26 28  2  0  0  0  0
 26 85  1  0  0  0  0
 27 87  1  0  0  0  0
 28 88  1  0  0  0  0
 29 68  2  0  0  0  0
 30 56  1  0  0  0  0
 30 69  1  0  0  0  0
 31 57  1  0  0  0  0
 31 69  2  0  0  0  0
 32 70  1  0  0  0  0
 32 73  1  0  0  0  0
 33 74  1  0  0  0  0
 33 80  2  0  0  0  0
 34 52  1  0  0  0  0
 34 75  1  0  0  0  0
 34 81  2  0  0  0  0
 35 65  1  0  0  0  0
 35 71  1  0  0  0  0
 35 82  2  0  0  0  0
 36 66  1  0  0  0  0
 36 76  1  0  0  0  0
 36 83  2  0  0  0  0
 37 72  1  0  0  0  0
 37 77  1  0  0  0  0
 37 84  2  0  0  0  0
 38 41  1  0  0  0  0
 39 52  1  0  0  0  0
 40 71  1  0  0  0  0
 41 43  1  0  0  0  0
 42 44  1  0  0  0  0
 42 47  1  0  0  0  0
 43 51  1  0  0  0  0
 44 53  1  0  0  0  0
 45 49  1  0  0  0  0
 45 54  1  0  0  0  0
 46 50  1  0  0  0  0
 46 54  1  0  0  0  0
 47 72  1  0  0  0  0
 48 53  1  0  0  0  0
 48 72  1  0  0  0  0
 49 78  1  0  0  0  0
 50 78  1  0  0  0  0
 51 75  1  0  0  0  0
 52 71  1  0  0  0  0
 53 70  1  0  0  0  0
 54 86  1  0  0  0  0
 58 66  1  0  0  0  0
 59 67  1  0  0  0  0
 60 67  1  0  0  0  0
 61 67  1  0  0  0  0
 62 79  1  0  0  0  0
 63 77  1  0  0  0  0
 64 78  1  0  0  0  0
 65 67  1  0  0  0  0
 65 76  1  0  0  0  0
 66 79  1  0  0  0  0
 68 70  1  0  0  0  0
M  CHG  2  78   1  79   1
M  ISO  4  37 100  54 101  77 100  86 101
M  END
> <Batch ID>
0175

> <Smiles>
CNC(C)C(=O)NC(C(=O)N1Cc2cc([101O:1][101CH:1]3CCN(Cc4c(C)c(C)nc(C)c4C[100NH:0][100C:0](=O)N4CCCC(n5nc(-c6ccc(Oc7ccc(F)cc7F)cc6)c(C(N)=O)c5N)C4)CC3)ccc2CC1C(=O)NC1CCCc2ccccc21)C(C)(C)C

> <Shape>
0.218

> <Color>
0.072

> <Negative vol penalty>
0.000

$$$$

  -OEChem-04052322473D

 88 98  0     1  0  0  0  0  0999 V2000
  -21.7608  -19.8108   19.5865 C   0  0  0  0  0  0  0  0  0  0  0  0
  -22.7289  -20.7836   19.3590 C   0  0  0  0  0  0  0  0  0  0  0  0
  -23.0399  -15.3706   22.0591 C   0  0  0  0  0  0  0  0  0  0  0  0
  -23.2198  -15.7234   19.6758 C   0  0  0  0  0  0  0  0  0  0  0  0
  -20.4364  -20.1856   19.8089 C   0  0  0  0  0  0  0  0  0  0  0  0
  -22.3730  -22.1318   19.3527 C   0  0  0  0  0  0  0  0  0  0  0  0
  -25.6235  -25.0114   21.9580 C   0  0  0  0  0  0  0  0  0  0  0  0
  -21.6867  -15.7048   22.0064 C   0  0  0  0  0  0  0  0  0  0  0  0
  -21.8665  -16.0576   19.6231 C   0  0  0  0  0  0  0  0  0  0  0  0
  -26.8285  -25.3341   21.3355 C   0  0  0  0  0  0  0  0  0  0  0  0
  -18.1009  -16.1151   22.4415 C   0  0  0  0  0  0  0  0  0  0  0  0
  -17.2054  -15.3057   23.1404 C   0  0  0  0  0  0  0  0  0  0  0  0
  -25.9432  -27.5028   20.7592 C   0  0  0  0  0  0  0  0  0  0  0  0
  -17.8887  -13.4049   21.8147 C   0  0  0  0  0  0  0  0  0  0  0  0
  -23.8064  -15.3800   20.8937 C   0  0  0  0  0  0  0  0  0  0  0  0
  -25.7707  -13.7550   20.8006 C   0  0  0  0  0  0  0  0  0  0  0  0
  -20.0658  -21.5396   19.8149 C   0  0  0  0  0  0  0  0  0  0  0  0
  -24.5636  -25.9294   21.9763 C   0  0  0  0  0  0  0  0  0  0  0  0
  -21.0422  -22.5250   19.5741 C   0  0  0  0  0  0  0  0  0  0  0  0
  -24.7266  -27.1903   21.3849 C   0  0  0  0  0  0  0  0  0  0  0  0
  -30.0984  -21.4854   17.4315 C   0  0  0  0  0  0  0  0  0  0  0  0
  -31.0951  -22.4117   17.1452 C   0  0  0  0  0  0  0  0  0  0  0  0
  -31.0451  -23.6777   17.7179 C   0  0  0  0  0  0  0  0  0  0  0  0
  -21.1000  -16.0482   20.7885 C   0  0  0  0  0  0  0  0  0  0  0  0
  -26.9875  -26.5788   20.7335 C   0  0  0  0  0  0  0  0  0  0  0  0
  -18.8903  -15.5694   21.4291 C   0  0  0  0  0  0  0  0  0  0  0  0
  -17.0993  -13.9506   22.8270 C   0  0  0  0  0  0  0  0  0  0  0  0
  -18.7842  -14.2144   21.1158 C   0  0  0  0  0  0  0  0  0  0  0  0
  -25.2045  -15.0354   20.9476 C   0  0  0  0  0  0  0  0  0  0  0  0
  -29.9858  -23.9657   18.5634 C   0  0  0  0  0  0  0  0  0  0  0  0
  -29.0816  -21.8715   18.2899 C   0  0  0  0  0  0  0  0  0  0  0  0
  -27.1224  -13.9601   20.9321 C   0  0  0  0  0  0  0  0  0  0  0  0
  -25.1320  -12.4930   20.5660 C   0  0  0  0  0  0  0  0  0  0  0  0
  -21.5966  -25.9532   20.8363 C   0  0  0  0  0  0  0  0  0  0  0  0
  -21.4069  -28.7487   22.4708 C   0  0  0  0  0  0  0  0  0  0  0  0
  -23.0300  -31.4217   23.8372 C   0  0  0  0  0  0  0  0  0  0  0  0
  -30.6301  -18.7276   20.0271 C   0  0  0  0  0  0  0  0  0  0  0  0
  -18.6132  -21.8937   20.0130 C   0  0  0  0  0  0  0  0  0  0  0  0
  -23.2794  -25.5761   22.6752 C   0  0  0  0  0  0  0  0  0  0  0  0
  -23.6265  -28.2190   21.3947 C   0  0  0  0  0  0  0  0  0  0  0  0
  -18.3865  -23.3624   20.3622 C   0  0  0  0  0  0  0  0  0  0  0  0
  -30.2803  -16.8688   23.0436 C   0  0  0  0  0  0  0  0  0  0  0  0
  -19.1965  -24.2628   19.4348 C   0  0  0  0  0  0  0  0  0  0  0  0
  -28.9908  -16.0726   22.8352 C   0  0  0  0  0  0  0  0  0  0  0  0
  -30.0864  -20.0065   15.3207 C   0  0  0  0  0  0  0  0  0  0  0  0
  -28.8760  -19.6349   16.1188 C   0  0  0  0  0  0  0  0  0  0  0  0
  -29.7915  -26.5226   18.2911 C   0  0  0  0  0  0  0  0  0  0  0  0
  -30.1916  -18.2599   22.4199 C   0  0  0  0  0  0  0  0  0  0  0  0
  -28.5174  -17.4807   20.7878 C   0  0  0  0  0  0  0  0  0  0  0  0
  -20.6997  -23.9990   19.5842 C   0  0  1  0  0  0  0  0  0  0  0  0
  -22.0883  -26.3941   22.1859 C   0  0  1  0  0  0  0  0  0  0  0  0
  -28.5792  -16.0505   21.3508 C   0  0  2  0  0  0  0  0  0  0  0  0
  -28.5762  -26.0670   19.0393 C   0  0  1  0  0  0  0  0  0  1  0  0
  -30.1240  -20.1176   16.8328 C   0  0  0  0  0  0  0  0  0  0  0  0
  -29.8893  -25.3106   19.2005 C   0  0  1  0  0  0  0  0  0  0  0  0
  -32.2176  -22.0487   16.2258 C   0  0  0  0  0  0  0  0  0  0  0  0
  -32.1014  -24.6918   17.4288 C   0  0  0  0  0  0  0  0  0  0  0  0
  -27.9825  -20.9205   18.6361 C   0  0  0  0  0  0  0  0  0  0  0  0
  -30.6704  -25.4555   20.4791 C   0  0  0  0  0  0  0  0  0  0  0  0
  -22.6038  -33.5631   25.0743 C   0  0  0  0  0  0  0  0  0  0  0  0
  -20.4636  -30.0550   19.8797 C   0  0  0  0  0  0  0  0  0  0  0  0
  -20.9674  -32.2842   20.9020 C   0  0  0  0  0  0  0  0  0  0  0  0
  -19.2429  -30.8037   21.9301 C   0  0  0  0  0  0  0  0  0  0  0  0
  -24.6081  -30.5216   26.1735 C   0  0  0  0  0  0  0  0  0  0  0  0
  -30.9360  -19.1087   17.5939 C   0  0  0  0  0  0  0  0  0  0  0  0
  -21.6874  -30.1966   22.1487 C   0  0  1  0  0  0  0  0  0  0  0  0
  -22.9161  -32.0801   25.2004 C   0  0  2  0  0  0  0  0  0  0  0  0
  -20.6106  -30.8150   21.2131 C   0  0  0  0  0  0  0  0  0  0  0  0
  -26.1215  -15.9838   21.1567 N   0  0  0  0  0  0  0  0  0  0  0  0
  -28.9992  -23.0921   18.8652 N   0  0  0  0  0  0  0  0  0  0  0  0
  -27.2776  -15.2988   21.1421 N   0  0  0  0  0  0  0  0  0  0  0  0
  -22.3876  -27.8239   22.0851 N   0  0  0  0  0  0  0  0  0  0  0  0
  -29.7987  -18.1686   21.0116 N   0  0  0  0  0  0  0  0  0  0  0  0
  -28.1815  -13.1242   20.8876 N   0  0  0  0  0  0  0  0  0  0  0  0
  -23.7351  -12.4613   20.4566 N   0  0  0  0  0  0  0  0  0  0  0  0
  -21.2064  -24.6286   20.7848 N   0  0  0  0  0  0  0  0  0  0  0  0
  -21.8293  -30.8797   23.4300 N   0  0  0  0  0  0  0  0  0  0  0  0
  -30.1868  -18.5914   18.7172 N   0  0  0  0  0  0  0  0  0  0  0  0
  -24.1921  -31.9310   25.9557 N   0  3  0  0  0  0  0  0  0  0  0  0
  -25.7795  -11.4227   20.4730 O   0  0  0  0  0  0  0  0  0  0  0  0
  -21.5716  -26.7558   19.9105 O   0  0  0  0  0  0  0  0  0  0  0  0
  -20.3595  -28.4499   23.0499 O   0  0  0  0  0  0  0  0  0  0  0  0
  -24.0782  -31.3945   23.1961 O   0  0  0  0  0  0  0  0  0  0  0  0
  -31.6916  -19.3005   20.2950 O   0  0  0  0  0  0  0  0  0  0  0  0
  -19.7795  -16.3741   20.7367 O   0  0  0  0  0  0  0  0  0  0  0  0
  -28.1625  -26.8961   20.1246 O   0  0  0  0  0  0  0  0  0  1  0  0
  -16.2404  -13.1732   23.4993 F   0  0  0  0  0  0  0  0  0  0  0  0
  -19.5408  -13.6842   20.1450 F   0  0  0  0  0  0  0  0  0  0  0  0
  1  2  1  0  0  0  0
  1  5  2  0  0  0  0
  2  6  2  0  0  0  0
  3  8  2  0  0  0  0
  3 15  1  0  0  0  0
  4  9  1  0  0  0  0
  4 15  2  0  0  0  0
  5 17  1  0  0  0  0
  6 19  1  0  0  0  0
  7 10  2  0  0  0  0
  7 18  1  0  0  0  0
  8 24  1  0  0  0  0
  9 24  2  0  0  0  0
 10 25  1  0  0  0  0
 11 12  2  0  0  0  0
 11 26  1  0  0  0  0
 12 27  1  0  0  0  0
 13 20  1  0  0  0  0
 13 25  2  0  0  0  0
 14 27  2  0  0  0  0
 14 28  1  0  0  0  0
 15 29  1  0  0  0  0
 16 29  1  0  0  0  0
 16 32  2  0  0  0  0
 16 33  1  0  0  0  0
 17 19  2  0  0  0  0
 17 38  1  0  0  0  0
 18 20  2  0  0  0  0
 18 39  1  0  0  0  0
 19 50  1  0  0  0  0
 20 40  1  0  0  0  0
 21 22  2  0  0  0  0
 21 31  1  0  0  0  0
 21 54  1  0  0  0  0
 22 23  1  0  0  0  0
 22 56  1  0  0  0  0
 23 30  2  0  0  0  0
 23 57  1  0  0  0  0
 24 85  1  0  0  0  0
 25 86  1  0  0  0  0
 26 28  2  0  0  0  0
 26 85  1  0  0  0  0
 27 87  1  0  0  0  0
 28 88  1  0  0  0  0
 29 69  2  0  0  0  0
 30 55  1  0  0  0  0
 30 70  1  0  0  0  0
 31 58  1  0  0  0  0
 31 70  2  0  0  0  0
 32 71  1  0  0  0  0
 32 74  1  0  0  0  0
 33 75  1  0  0  0  0
 33 80  2  0  0  0  0
 34 51  1  0  0  0  0
 34 76  1  0  0  0  0
 34 81  2  0  0  0  0
 35 66  1  0  0  0  0
 35 72  1  0  0  0  0
 35 82  2  0  0  0  0
 36 67  1  0  0  0  0
 36 77  1  0  0  0  0
 36 83  2  0  0  0  0
 37 73  1  0  0  0  0
 37 78  1  0  0  0  0
 37 84  2  0  0  0  0
 38 41  1  0  0  0  0
 39 51  1  0  0  0  0
 40 72  1  0  0  0  0
 41 43  1  0  0  0  0
 42 44  1  0  0  0  0
 42 48  1  0  0  0  0
 43 50  1  0  0  0  0
 44 52  1  0  0  0  0
 45 46  1  0  0  0  0
 45 54  1  0  0  0  0
 46 54  1  0  0  0  0
 47 53  1  0  0  0  0
 47 55  1  0  0  0  0
 48 73  1  0  0  0  0
 49 52  1  0  0  0  0
 49 73  1  0  0  0  0
 50 76  1  0  0  0  0
 51 72  1  0  0  0  0
 52 71  1  0  0  0  0
 53 55  1  0  0  0  0
 53 86  1  0  0  0  0
 54 65  1  0  0  0  0
 55 59  1  0  0  0  0
 60 67  1  0  0  0  0
 61 68  1  0  0  0  0
 62 68  1  0  0  0  0
 63 68  1  0  0  0  0
 64 79  1  0  0  0  0
 65 78  1  0  0  0  0
 66 68  1  0  0  0  0
 66 77  1  0  0  0  0
 67 79  1  0  0  0  0
 69 71  1  0  0  0  0
M  CHG  1  79   1
M  ISO  4  37 100  53 101  78 100  86 101
M  END
> <Batch ID>
0175

> <Smiles>
CNC(C)C(=O)NC(C(=O)N1Cc2cc([101O:1][101CH:1]3CC3(C)c3nc(C)c(C4(C[100NH:0][100C:0](=O)N5CCCC(n6nc(-c7ccc(Oc8ccc(F)cc8F)cc7)c(C(N)=O)c6N)C5)CC4)c(C)c3C)ccc2CC1C(=O)NC1CCCc2ccccc21)C(C)(C)C

> <Shape>
0.206

> <Color>
0.065

> <Negative vol penalty>
0.000

$$$$

  -OEChem-04052322473D

 87 96  0     1  0  0  0  0  0999 V2000
  -34.9277  -27.4061   22.7126 C   0  0  0  0  0  0  0  0  0  0  0  0
  -34.0229  -26.3528   22.6275 C   0  0  0  0  0  0  0  0  0  0  0  0
  -23.6978   -9.8753   21.9560 C   0  0  0  0  0  0  0  0  0  0  0  0
  -24.3294  -11.1732   23.8934 C   0  0  0  0  0  0  0  0  0  0  0  0
  -34.5291  -28.6959   22.3644 C   0  0  0  0  0  0  0  0  0  0  0  0
  -32.7184  -26.5890   22.1951 C   0  0  0  0  0  0  0  0  0  0  0  0
  -31.1280  -23.1414   18.8441 C   0  0  0  0  0  0  0  0  0  0  0  0
  -23.1318   -8.9091   22.7877 C   0  0  0  0  0  0  0  0  0  0  0  0
  -23.7633  -10.2071   24.7252 C   0  0  0  0  0  0  0  0  0  0  0  0
  -30.7299  -21.9027   19.3452 C   0  0  0  0  0  0  0  0  0  0  0  0
  -20.2745   -8.5035   24.5496 C   0  0  0  0  0  0  0  0  0  0  0  0
  -19.0174   -8.0072   24.2047 C   0  0  0  0  0  0  0  0  0  0  0  0
  -28.4219  -22.5851   19.1817 C   0  0  0  0  0  0  0  0  0  0  0  0
  -30.4464  -16.7361   26.3327 C   0  0  0  0  0  0  0  0  0  0  0  0
  -19.9410   -5.7806   24.0427 C   0  0  0  0  0  0  0  0  0  0  0  0
  -24.2966  -11.0073   22.5088 C   0  0  0  0  0  0  0  0  0  0  0  0
  -24.2447  -13.1345   21.1017 C   0  0  0  0  0  0  0  0  0  0  0  0
  -33.2218  -28.9465   21.9184 C   0  0  0  0  0  0  0  0  0  0  0  0
  -30.1749  -24.1168   18.5178 C   0  0  0  0  0  0  0  0  0  0  0  0
  -32.3015  -27.8837   21.8419 C   0  0  0  0  0  0  0  0  0  0  0  0
  -28.8104  -23.8344   18.6743 C   0  0  0  0  0  0  0  0  0  0  0  0
  -30.2856  -16.5221   23.9316 C   0  0  0  0  0  0  0  0  0  0  0  0
  -29.7995  -17.0359   25.1338 C   0  0  0  0  0  0  0  0  0  0  0  0
  -31.5795  -15.9226   26.3293 C   0  0  0  0  0  0  0  0  0  0  0  0
  -31.4188  -15.7086   23.9282 C   0  0  0  0  0  0  0  0  0  0  0  0
  -32.0657  -15.4089   25.1271 C   0  0  0  0  0  0  0  0  0  0  0  0
  -23.1645   -9.0750   24.1723 C   0  0  0  0  0  0  0  0  0  0  0  0
  -29.3769  -21.6255   19.5168 C   0  0  0  0  0  0  0  0  0  0  0  0
  -21.3649   -7.6384   24.6409 C   0  0  0  0  0  0  0  0  0  0  0  0
  -18.8506   -6.6457   23.9513 C   0  0  0  0  0  0  0  0  0  0  0  0
  -21.1981   -6.2769   24.3875 C   0  0  0  0  0  0  0  0  0  0  0  0
  -24.8820  -12.0054   21.6502 C   0  0  0  0  0  0  0  0  0  0  0  0
  -25.2232  -13.7576   20.3663 C   0  0  0  0  0  0  0  0  0  0  0  0
  -22.8895  -13.5803   21.2443 C   0  0  0  0  0  0  0  0  0  0  0  0
  -29.5242  -27.0515   19.5513 C   0  0  0  0  0  0  0  0  0  0  0  0
  -27.3975  -27.0219   17.1021 C   0  0  0  0  0  0  0  0  0  0  0  0
  -25.4599  -25.1932   14.9694 C   0  0  0  0  0  0  0  0  0  0  0  0
  -31.2005  -13.7714   20.7158 C   0  0  0  0  0  0  0  0  0  0  0  0
  -32.8235  -30.3654   21.5982 C   0  0  0  0  0  0  0  0  0  0  0  0
  -30.6194  -25.4382   17.9532 C   0  0  0  0  0  0  0  0  0  0  0  0
  -27.7467  -24.8400   18.3198 C   0  0  0  0  0  0  0  0  0  0  0  0
  -31.5311  -30.4682   20.7922 C   0  0  0  0  0  0  0  0  0  0  0  0
  -29.2223  -12.8312   17.9088 C   0  0  0  0  0  0  0  0  0  0  0  0
  -30.4555  -29.5674   21.3910 C   0  0  0  0  0  0  0  0  0  0  0  0
  -27.8281  -12.6148   18.4999 C   0  0  0  0  0  0  0  0  0  0  0  0
  -28.9707  -18.2952   22.3653 C   0  0  0  0  0  0  0  0  0  0  0  0
  -30.4031  -17.1204   21.2945 C   0  0  0  0  0  0  0  0  0  0  0  0
  -30.3192  -12.3757   18.8687 C   0  0  0  0  0  0  0  0  0  0  0  0
  -28.8480  -12.7454   20.8111 C   0  0  0  0  0  0  0  0  0  0  0  0
  -29.5480  -16.8641   22.5697 C   0  0  0  0  0  0  0  0  0  0  0  0
  -30.8848  -28.0958   21.3538 C   0  0  1  0  0  0  0  0  0  0  0  0
  -29.5858  -26.5450   18.1380 C   0  0  1  0  0  0  0  0  0  0  0  0
  -27.7102  -13.2413   19.9023 C   0  0  2  0  0  0  0  0  0  0  0  0
  -29.3764  -18.2067   20.8672 C   0  0  0  0  0  0  0  0  0  0  0  0
  -28.5882  -17.9084   25.1612 C   0  0  0  0  0  0  0  0  0  0  0  0
  -32.2537  -15.6168   27.6270 C   0  0  0  0  0  0  0  0  0  0  0  0
  -33.2806  -14.5361   25.1260 C   0  0  0  0  0  0  0  0  0  0  0  0
  -28.2693  -17.7000   19.9424 C   0  0  0  0  0  0  0  0  0  0  0  0
  -23.8012  -25.4500   13.1039 C   0  0  0  0  0  0  0  0  0  0  0  0
  -25.2495  -27.8048   19.1228 C   0  0  0  0  0  0  0  0  0  0  0  0
  -23.5210  -27.1242   17.4444 C   0  0  0  0  0  0  0  0  0  0  0  0
  -25.0952  -28.9883   16.9251 C   0  0  0  0  0  0  0  0  0  0  0  0
  -27.1989  -23.7381   13.0675 C   0  0  0  0  0  0  0  0  0  0  0  0
  -31.9369  -15.1585   22.6375 C   0  0  0  0  0  0  0  0  0  0  0  0
  -30.0146  -19.4810   20.3233 C   0  0  0  0  0  0  0  0  0  1  0  0
  -25.9536  -26.6103   16.9449 C   0  0  1  0  0  0  0  0  0  0  0  0
  -25.2675  -25.2710   13.4656 C   0  0  2  0  0  0  0  0  0  0  0  0
  -24.9747  -27.6135   17.6179 C   0  0  0  0  0  0  0  0  0  0  0  0
  -26.1659  -11.9139   21.2935 N   0  0  0  0  0  0  0  0  0  0  0  0
  -26.3433  -12.9935   20.5130 N   0  0  0  0  0  0  0  0  0  0  0  0
  -28.2318  -26.1198   17.7774 N   0  0  0  0  0  0  0  0  0  0  0  0
  -30.1509  -13.0073   20.1797 N   0  0  0  0  0  0  0  0  0  0  0  0
  -25.2261  -14.8792   19.6149 N   0  0  0  0  0  0  0  0  0  0  0  0
  -22.0165  -12.8218   22.0361 N   0  0  0  0  0  0  0  0  0  0  0  0
  -30.7220  -27.5554   20.0211 N   0  0  0  0  0  0  0  0  0  0  0  0
  -25.7340  -26.4300   15.5139 N   0  0  0  0  0  0  0  0  0  0  0  0
  -30.9561  -14.3403   21.9597 N   0  0  0  0  0  0  0  0  0  0  0  0
  -25.7634  -24.0254   12.8148 N   0  3  0  0  0  0  0  0  0  0  0  0
  -22.4609  -14.6114   20.6728 O   0  0  0  0  0  0  0  0  0  0  0  0
  -28.4677  -26.9910   20.1693 O   0  0  0  0  0  0  0  0  0  0  0  0
  -27.7729  -28.1008   16.6365 O   0  0  0  0  0  0  0  0  0  0  0  0
  -25.3719  -24.1411   15.5987 O   0  0  0  0  0  0  0  0  0  0  0  0
  -32.2739  -13.9389   20.1269 O   0  0  0  0  0  0  0  0  0  0  0  0
  -22.6121   -8.1326   24.9842 O   0  0  0  0  0  0  0  0  0  0  0  0
  -28.9856  -20.4175   20.0063 O   0  0  0  0  0  0  0  0  0  1  0  0
  -17.6430   -6.1690   23.6216 F   0  0  0  0  0  0  0  0  0  0  0  0
  -22.2416   -5.4407   24.4749 F   0  0  0  0  0  0  0  0  0  0  0  0
  1  2  1  0  0  0  0
  1  5  2  0  0  0  0
  2  6  2  0  0  0  0
  3  8  2  0  0  0  0
  3 16  1  0  0  0  0
  4  9  1  0  0  0  0
  4 16  2  0  0  0  0
  5 18  1  0  0  0  0
  6 20  1  0  0  0  0
  7 10  2  0  0  0  0
  7 19  1  0  0  0  0
  8 27  1  0  0  0  0
  9 27  2  0  0  0  0
 10 28  1  0  0  0  0
 11 12  2  0  0  0  0
 11 29  1  0  0  0  0
 12 30  1  0  0  0  0
 13 21  1  0  0  0  0
 13 28  2  0  0  0  0
 14 23  2  0  0  0  0
 14 24  1  0  0  0  0
 15 30  2  0  0  0  0
 15 31  1  0  0  0  0
 16 32  1  0  0  0  0
 17 32  1  0  0  0  0
 17 33  2  0  0  0  0
 17 34  1  0  0  0  0
 18 20  2  0  0  0  0
 18 39  1  0  0  0  0
 19 21  2  0  0  0  0
 19 40  1  0  0  0  0
 20 51  1  0  0  0  0
 21 41  1  0  0  0  0
 22 23  1  0  0  0  0
 22 25  2  0  0  0  0
 22 50  1  0  0  0  0
 23 55  1  0  0  0  0
 24 26  2  0  0  0  0
 24 56  1  0  0  0  0
 25 26  1  0  0  0  0
 25 64  1  0  0  0  0
 26 57  1  0  0  0  0
 27 84  1  0  0  0  0
 28 85  1  0  0  0  0
 29 31  2  0  0  0  0
 29 84  1  0  0  0  0
 30 86  1  0  0  0  0
 31 87  1  0  0  0  0
 32 69  2  0  0  0  0
 33 70  1  0  0  0  0
 33 73  1  0  0  0  0
 34 74  1  0  0  0  0
 34 79  2  0  0  0  0
 35 52  1  0  0  0  0
 35 75  1  0  0  0  0
 35 80  2  0  0  0  0
 36 66  1  0  0  0  0
 36 71  1  0  0  0  0
 36 81  2  0  0  0  0
 37 67  1  0  0  0  0
 37 76  1  0  0  0  0
 37 82  2  0  0  0  0
 38 72  1  0  0  0  0
 38 77  1  0  0  0  0
 38 83  2  0  0  0  0
 39 42  1  0  0  0  0
 40 52  1  0  0  0  0
 41 71  1  0  0  0  0
 42 44  1  0  0  0  0
 43 45  1  0  0  0  0
 43 48  1  0  0  0  0
 44 51  1  0  0  0  0
 45 53  1  0  0  0  0
 46 50  1  0  0  0  0
 46 54  1  0  0  0  0
 47 50  1  0  0  0  0
 47 54  1  0  0  0  0
 48 72  1  0  0  0  0
 49 53  1  0  0  0  0
 49 72  1  0  0  0  0
 51 75  1  0  0  0  0
 52 71  1  0  0  0  0
 53 70  1  0  0  0  0
 54 58  1  0  0  0  0
 54 65  1  0  0  0  0
 59 67  1  0  0  0  0
 60 68  1  0  0  0  0
 61 68  1  0  0  0  0
 62 68  1  0  0  0  0
 63 78  1  0  0  0  0
 64 77  1  0  0  0  0
 65 85  1  0  0  0  0
 66 68  1  0  0  0  0
 66 76  1  0  0  0  0
 67 78  1  0  0  0  0
 69 70  1  0  0  0  0
M  CHG  1  78   1
M  ISO  4  38 100  65 101  77 100  85 101
M  END
> <Batch ID>
0175

> <Smiles>
CNC(C)C(=O)NC(C(=O)N1Cc2cc([101O:1][101CH2:1]C3(C)CC(c4c(C)cc(C)c(C)c4C[100NH:0][100C:0](=O)N4CCCC(n5nc(-c6ccc(Oc7ccc(F)cc7F)cc6)c(C(N)=O)c5N)C4)C3)ccc2CC1C(=O)NC1CCCc2ccccc21)C(C)(C)C

> <Shape>
0.246

> <Color>
0.158

> <Negative vol penalty>
0.000

$$$$

  -OEChem-04052322473D

 85 95  0     1  0  0  0  0  0999 V2000
  -31.3862  -12.2052   19.3224 C   0  0  0  0  0  0  0  0  0  0  0  0
  -31.0699  -13.5500   19.1585 C   0  0  0  0  0  0  0  0  0  0  0  0
  -23.1916  -29.4146   21.9829 C   0  0  0  0  0  0  0  0  0  0  0  0
  -22.9770  -29.3577   19.5771 C   0  0  0  0  0  0  0  0  0  0  0  0
  -30.3945  -11.2351   19.1836 C   0  0  0  0  0  0  0  0  0  0  0  0
  -29.7618  -13.9254   18.8546 C   0  0  0  0  0  0  0  0  0  0  0  0
  -28.1837  -17.8721   21.6075 C   0  0  0  0  0  0  0  0  0  0  0  0
  -21.8764  -29.8667   22.0896 C   0  0  0  0  0  0  0  0  0  0  0  0
  -21.6617  -29.8098   19.6838 C   0  0  0  0  0  0  0  0  0  0  0  0
  -28.6284  -19.1359   21.2217 C   0  0  0  0  0  0  0  0  0  0  0  0
  -18.7682  -28.5430   21.9482 C   0  0  0  0  0  0  0  0  0  0  0  0
  -17.9537  -27.9463   22.9105 C   0  0  0  0  0  0  0  0  0  0  0  0
  -26.5200  -19.5346   20.1194 C   0  0  0  0  0  0  0  0  0  0  0  0
  -30.0086  -23.7285   16.9093 C   0  0  0  0  0  0  0  0  0  0  0  0
  -17.6418  -30.0917   23.9769 C   0  0  0  0  0  0  0  0  0  0  0  0
  -23.7420  -29.1601   20.7267 C   0  0  0  0  0  0  0  0  0  0  0  0
  -25.5427  -27.3571   20.6078 C   0  0  0  0  0  0  0  0  0  0  0  0
  -29.0716  -11.5994   18.8873 C   0  0  0  0  0  0  0  0  0  0  0  0
  -26.9058  -17.4250   21.2422 C   0  0  0  0  0  0  0  0  0  0  0  0
  -28.7517  -12.9591   18.7103 C   0  0  0  0  0  0  0  0  0  0  0  0
  -26.0606  -18.2657   20.5039 C   0  0  0  0  0  0  0  0  0  0  0  0
  -29.8613  -22.4952   18.9357 C   0  0  0  0  0  0  0  0  0  0  0  0
  -29.7518  -22.5239   17.5599 C   0  0  0  0  0  0  0  0  0  0  0  0
  -21.1114  -30.0643   20.9400 C   0  0  0  0  0  0  0  0  0  0  0  0
  -27.7976  -19.9663   20.4751 C   0  0  0  0  0  0  0  0  0  0  0  0
  -19.0197  -29.9141   22.0003 C   0  0  0  0  0  0  0  0  0  0  0  0
  -17.3904  -28.7206   23.9249 C   0  0  0  0  0  0  0  0  0  0  0  0
  -18.4564  -30.6884   23.0146 C   0  0  0  0  0  0  0  0  0  0  0  0
  -25.1007  -28.6937   20.6158 C   0  0  0  0  0  0  0  0  0  0  0  0
  -30.3537  -24.8423   17.6752 C   0  0  0  0  0  0  0  0  0  0  0  0
  -30.2120  -23.6604   19.6099 C   0  0  0  0  0  0  0  0  0  0  0  0
  -26.9075  -27.4475   20.4831 C   0  0  0  0  0  0  0  0  0  0  0  0
  -24.7870  -26.1424   20.7044 C   0  0  0  0  0  0  0  0  0  0  0  0
  -25.7865  -15.0220   19.4882 C   0  0  0  0  0  0  0  0  0  0  0  0
  -22.9174  -16.0873   20.5632 C   0  0  0  0  0  0  0  0  0  0  0  0
  -21.0653  -18.6733   21.7998 C   0  0  0  0  0  0  0  0  0  0  0  0
  -31.2539  -29.7681   17.7892 C   0  0  0  0  0  0  0  0  0  0  0  0
  -28.0436  -10.5118   18.7001 C   0  0  0  0  0  0  0  0  0  0  0  0
  -26.4311  -16.0695   21.6889 C   0  0  0  0  0  0  0  0  0  0  0  0
  -24.6722  -17.8408   20.1036 C   0  0  0  0  0  0  0  0  0  0  0  0
  -30.2270  -23.4312   21.0943 C   0  0  0  0  0  0  0  0  0  0  0  0
  -26.6047  -11.0192   18.7469 C   0  0  0  0  0  0  0  0  0  0  0  0
  -30.3160  -21.8958   21.1549 C   0  0  0  0  0  0  0  0  0  0  0  0
  -30.0141  -31.4283   20.8228 C   0  0  0  0  0  0  0  0  0  0  0  0
  -26.4513  -12.2696   17.8868 C   0  0  0  0  0  0  0  0  0  0  0  0
  -28.6371  -30.7854   21.0081 C   0  0  0  0  0  0  0  0  0  0  0  0
  -32.0880  -26.4412   16.5873 C   0  0  0  0  0  0  0  0  0  0  0  0
  -30.4252  -31.4923   19.3529 C   0  0  0  0  0  0  0  0  0  0  0  0
  -32.0961  -27.9404   16.3351 C   0  0  0  0  0  0  0  0  0  0  0  0
  -30.2775  -27.4037   17.8029 C   0  0  0  0  0  0  0  0  0  0  0  0
  -28.9623  -29.5840   18.8180 C   0  0  0  0  0  0  0  0  0  0  0  0
  -27.3391  -13.4076   18.4046 C   0  0  1  0  0  0  0  0  0  0  0  0
  -29.6261  -21.3671   19.8839 C   0  0  1  0  0  0  0  0  0  1  0  0
  -30.6309  -26.1557   16.9767 C   0  0  2  0  0  0  0  0  0  0  0  0
  -25.3040  -15.5157   20.8227 C   0  0  1  0  0  0  0  0  0  0  0  0
  -28.5549  -29.4248   20.2887 C   0  0  2  0  0  0  0  0  0  0  0  0
  -29.3702  -21.3139   16.7819 C   0  0  0  0  0  0  0  0  0  0  0  0
  -18.7403  -19.2505   22.5470 C   0  0  0  0  0  0  0  0  0  0  0  0
  -22.0182  -16.2251   17.6508 C   0  0  0  0  0  0  0  0  0  0  0  0
  -20.1064  -17.6669   18.3820 C   0  0  0  0  0  0  0  0  0  0  0  0
  -20.2999  -15.3296   19.2319 C   0  0  0  0  0  0  0  0  0  0  0  0
  -21.9801  -19.3124   24.5409 C   0  0  0  0  0  0  0  0  0  0  0  0
  -21.9009  -17.0931   20.0795 C   0  0  1  0  0  0  0  0  0  0  0  0
  -20.1123  -18.7565   22.9785 C   0  0  2  0  0  0  0  0  0  0  0  0
  -21.1082  -16.5862   18.8418 C   0  0  0  0  0  0  0  0  0  0  0  0
  -26.1035  -29.5690   20.5052 N   0  0  0  0  0  0  0  0  0  0  0  0
  -30.4593  -24.8444   19.0259 N   0  0  0  0  0  0  0  0  0  0  0  0
  -27.1891  -28.7808   20.4265 N   0  0  0  0  0  0  0  0  0  0  0  0
  -24.2561  -16.5040   20.5589 N   0  0  0  0  0  0  0  0  0  0  0  0
  -30.2977  -30.1800   18.7224 N   0  0  0  0  0  0  0  0  0  0  0  0
  -31.1142  -28.4802   17.2658 N   0  0  0  0  0  0  0  0  0  0  0  0
  -27.8822  -26.5158   20.4174 N   0  0  0  0  0  0  0  0  0  0  0  0
  -23.3937  -26.2304   20.8274 N   0  0  0  0  0  0  0  0  0  0  0  0
  -26.7409  -14.0259   19.5684 N   0  0  0  0  0  0  0  0  0  0  0  0
  -21.0667  -17.4169   21.2318 N   0  0  0  0  0  0  0  0  0  0  0  0
  -20.6450  -19.6905   24.0103 N   0  3  0  0  0  0  0  0  0  0  0  0
  -25.3328  -25.0130   20.6988 O   0  0  0  0  0  0  0  0  0  0  0  0
  -25.3260  -15.5078   18.4617 O   0  0  0  0  0  0  0  0  0  0  0  0
  -22.5369  -14.9754   20.9380 O   0  0  0  0  0  0  0  0  0  0  0  0
  -21.7382  -19.6285   21.4185 O   0  0  0  0  0  0  0  0  0  0  0  0
  -32.2089  -30.4936   17.4850 O   0  0  0  0  0  0  0  0  0  0  0  0
  -19.8279  -30.5052   21.0438 O   0  0  0  0  0  0  0  0  0  0  0  0
  -28.2330  -21.2105   20.0935 O   0  0  0  0  0  0  0  0  0  1  0  0
  -16.6070  -28.1477   24.8480 F   0  0  0  0  0  0  0  0  0  0  0  0
  -18.6934  -32.0062   23.0692 F   0  0  0  0  0  0  0  0  0  0  0  0
  1  2  1  0  0  0  0
  1  5  2  0  0  0  0
  2  6  2  0  0  0  0
  3  8  2  0  0  0  0
  3 16  1  0  0  0  0
  4  9  1  0  0  0  0
  4 16  2  0  0  0  0
  5 18  1  0  0  0  0
  6 20  1  0  0  0  0
  7 10  2  0  0  0  0
  7 19  1  0  0  0  0
  8 24  1  0  0  0  0
  9 24  2  0  0  0  0
 10 25  1  0  0  0  0
 11 12  2  0  0  0  0
 11 26  1  0  0  0  0
 12 27  1  0  0  0  0
 13 21  1  0  0  0  0
 13 25  2  0  0  0  0
 14 23  2  0  0  0  0
 14 30  1  0  0  0  0
 15 27  2  0  0  0  0
 15 28  1  0  0  0  0
 16 29  1  0  0  0  0
 17 29  1  0  0  0  0
 17 32  2  0  0  0  0
 17 33  1  0  0  0  0
 18 20  2  0  0  0  0
 18 38  1  0  0  0  0
 19 21  2  0  0  0  0
 19 39  1  0  0  0  0
 20 52  1  0  0  0  0
 21 40  1  0  0  0  0
 22 23  1  0  0  0  0
 22 31  2  0  0  0  0
 22 53  1  0  0  0  0
 23 57  1  0  0  0  0
 24 82  1  0  0  0  0
 25 83  1  0  0  0  0
 26 28  2  0  0  0  0
 26 82  1  0  0  0  0
 27 84  1  0  0  0  0
 28 85  1  0  0  0  0
 29 66  2  0  0  0  0
 30 54  1  0  0  0  0
 30 67  2  0  0  0  0
 31 41  1  0  0  0  0
 31 67  1  0  0  0  0
 32 68  1  0  0  0  0
 32 72  1  0  0  0  0
 33 73  1  0  0  0  0
 33 77  2  0  0  0  0
 34 55  1  0  0  0  0
 34 74  1  0  0  0  0
 34 78  2  0  0  0  0
 35 63  1  0  0  0  0
 35 69  1  0  0  0  0
 35 79  2  0  0  0  0
 36 64  1  0  0  0  0
 36 75  1  0  0  0  0
 36 80  2  0  0  0  0
 37 70  1  0  0  0  0
 37 71  1  0  0  0  0
 37 81  2  0  0  0  0
 38 42  1  0  0  0  0
 39 55  1  0  0  0  0
 40 69  1  0  0  0  0
 41 43  1  0  0  0  0
 42 45  1  0  0  0  0
 43 53  1  0  0  0  0
 44 46  1  0  0  0  0
 44 48  1  0  0  0  0
 45 52  1  0  0  0  0
 46 56  1  0  0  0  0
 47 49  1  0  0  0  0
 47 54  1  0  0  0  0
 48 70  1  0  0  0  0
 49 71  1  0  0  0  0
 50 54  1  0  0  0  0
 50 71  1  0  0  0  0
 51 56  1  0  0  0  0
 51 70  1  0  0  0  0
 52 74  1  0  0  0  0
 53 83  1  0  0  0  0
 55 69  1  0  0  0  0
 56 68  1  0  0  0  0
 58 64  1  0  0  0  0
 59 65  1  0  0  0  0
 60 65  1  0  0  0  0
 61 65  1  0  0  0  0
 62 76  1  0  0  0  0
 63 65  1  0  0  0  0
 63 75  1  0  0  0  0
 64 76  1  0  0  0  0
 66 68  1  0  0  0  0
M  CHG  1  76   1
M  ISO  4  37 100  53 101  71 100  83 101
M  END
> <Batch ID>
0175

> <Smiles>
CNC(C)C(=O)NC(C(=O)N1Cc2cc([101O:1][101CH:1]3CCc4nc(C5CC[100N:0]([100C:0](=O)N6CCCC(n7nc(-c8ccc(Oc9ccc(F)cc9F)cc8)c(C(N)=O)c7N)C6)C5)cc(C)c43)ccc2CC1C(=O)NC1CCCc2ccccc21)C(C)(C)C

> <Shape>
0.246

> <Color>
0.077

> <Negative vol penalty>
0.000

$$$$

  -OEChem-04052322473D

 92102  0     1  0  0  0  0  0999 V2000
  -40.5095  -29.7753   30.2905 C   0  0  0  0  0  0  0  0  0  0  0  0
  -39.4472  -28.9561   30.6592 C   0  0  0  0  0  0  0  0  0  0  0  0
  -23.0775   -9.8724   19.9358 C   0  0  0  0  0  0  0  0  0  0  0  0
  -23.8198   -9.8765   22.2349 C   0  0  0  0  0  0  0  0  0  0  0  0
  -40.7671  -30.0161   28.9416 C   0  0  0  0  0  0  0  0  0  0  0  0
  -38.6412  -28.3781   29.6790 C   0  0  0  0  0  0  0  0  0  0  0  0
  -35.9776  -22.8672   29.8816 C   0  0  0  0  0  0  0  0  0  0  0  0
  -22.3233   -8.7251   20.1813 C   0  0  0  0  0  0  0  0  0  0  0  0
  -23.0655   -8.7291   22.4805 C   0  0  0  0  0  0  0  0  0  0  0  0
  -34.6839  -22.4621   30.2071 C   0  0  0  0  0  0  0  0  0  0  0  0
  -19.3583   -7.9518   21.6107 C   0  0  0  0  0  0  0  0  0  0  0  0
  -18.0548   -7.9145   21.1154 C   0  0  0  0  0  0  0  0  0  0  0  0
  -34.1035  -22.4553   27.8657 C   0  0  0  0  0  0  0  0  0  0  0  0
  -30.5325  -16.1603   27.8046 C   0  0  0  0  0  0  0  0  0  0  0  0
  -18.6104   -5.9659   19.7997 C   0  0  0  0  0  0  0  0  0  0  0  0
  -30.9094  -17.5295   25.4745 C   0  0  0  0  0  0  0  0  0  0  0  0
  -23.8258  -10.4482   20.9626 C   0  0  0  0  0  0  0  0  0  0  0  0
  -24.1871  -12.9706   20.8424 C   0  0  0  0  0  0  0  0  0  0  0  0
  -39.9697  -29.4330   27.9442 C   0  0  0  0  0  0  0  0  0  0  0  0
  -36.3415  -23.0803   28.5442 C   0  0  0  0  0  0  0  0  0  0  0  0
  -38.8875  -28.6125   28.3155 C   0  0  0  0  0  0  0  0  0  0  0  0
  -35.4032  -22.8606   27.5257 C   0  0  0  0  0  0  0  0  0  0  0  0
  -31.0080  -16.1477   25.4470 C   0  0  0  0  0  0  0  0  0  0  0  0
  -30.8146  -15.4575   26.6384 C   0  0  0  0  0  0  0  0  0  0  0  0
  -22.3173   -8.1534   21.4536 C   0  0  0  0  0  0  0  0  0  0  0  0
  -33.7457  -22.2589   29.1993 C   0  0  0  0  0  0  0  0  0  0  0  0
  -20.2878   -6.9961   21.2004 C   0  0  0  0  0  0  0  0  0  0  0  0
  -17.6809   -6.9216   20.2099 C   0  0  0  0  0  0  0  0  0  0  0  0
  -19.9139   -6.0032   20.2949 C   0  0  0  0  0  0  0  0  0  0  0  0
  -24.6056  -11.6331   20.7095 C   0  0  0  0  0  0  0  0  0  0  0  0
  -30.4554  -17.5415   27.7266 C   0  0  0  0  0  0  0  0  0  0  0  0
  -25.2874  -13.7116   20.4867 C   0  0  0  0  0  0  0  0  0  0  0  0
  -22.9172  -13.4962   21.2510 C   0  0  0  0  0  0  0  0  0  0  0  0
  -37.3434  -25.5856   26.8640 C   0  0  0  0  0  0  0  0  0  0  0  0
  -37.7125  -23.3736   24.5203 C   0  0  0  0  0  0  0  0  0  0  0  0
  -36.8137  -20.3464   23.2260 C   0  0  0  0  0  0  0  0  0  0  0  0
  -30.8545  -14.5514   20.8874 C   0  0  0  0  0  0  0  0  0  0  0  0
  -40.2580  -29.7606   26.5005 C   0  0  0  0  0  0  0  0  0  0  0  0
  -37.7487  -23.4914   28.2078 C   0  0  0  0  0  0  0  0  0  0  0  0
  -35.7494  -23.0559   26.0729 C   0  0  0  0  0  0  0  0  0  0  0  0
  -39.5859  -28.8091   25.5140 C   0  0  0  0  0  0  0  0  0  0  0  0
  -29.6253  -12.3629   18.3120 C   0  0  0  0  0  0  0  0  0  0  0  0
  -38.1248  -28.5907   25.8941 C   0  0  0  0  0  0  0  0  0  0  0  0
  -28.1975  -12.0410   18.7403 C   0  0  0  0  0  0  0  0  0  0  0  0
  -31.3508  -19.2483   29.2628 C   0  0  0  0  0  0  0  0  0  0  0  0
  -30.5343  -12.5202   19.5237 C   0  0  0  0  0  0  0  0  0  0  0  0
  -30.2372  -14.5215   23.4326 C   0  0  0  0  0  0  0  0  0  0  0  0
  -31.3427  -16.2046   22.7704 C   0  0  0  0  0  0  0  0  0  0  0  0
  -28.6309  -13.2951   20.9131 C   0  0  0  0  0  0  0  0  0  0  0  0
  -28.6416  -20.0575   30.0292 C   0  0  0  0  0  0  0  0  0  0  0  0
  -31.3321  -15.3971   24.0888 C   0  0  0  0  0  0  0  0  0  0  0  0
  -38.0057  -27.9475   27.2810 C   0  0  1  0  0  0  0  0  0  0  0  0
  -30.1545  -18.3282   28.9586 C   0  0  1  0  0  0  0  0  0  0  0  0
  -37.8627  -24.1757   26.8491 C   0  0  1  0  0  0  0  0  0  0  0  0
  -28.8587  -19.1619   28.8059 C   0  0  1  0  0  0  0  0  0  0  0  0
  -27.6770  -13.1052   19.7171 C   0  0  2  0  0  0  0  0  0  0  0  0
  -31.1153  -20.1463   30.4827 C   0  0  1  0  0  0  0  0  0  0  0  0
  -27.6263  -18.2692   28.6176 C   0  0  0  0  0  0  0  0  0  0  0  0
  -29.5772  -13.3114   27.1039 C   0  0  0  0  0  0  0  0  0  0  0  0
  -32.0433  -13.4776   27.6000 C   0  0  0  0  0  0  0  0  0  0  0  0
  -37.2586  -18.8255   21.2802 C   0  0  0  0  0  0  0  0  0  0  0  0
  -36.0078  -25.1654   22.7333 C   0  0  0  0  0  0  0  0  0  0  0  0
  -35.6974  -23.2160   21.1932 C   0  0  0  0  0  0  0  0  0  0  0  0
  -37.9819  -24.1333   21.5965 C   0  0  0  0  0  0  0  0  0  0  0  0
  -29.5452  -21.9432   31.3523 C   0  0  0  0  0  0  0  0  0  0  0  0
  -37.8115  -18.1899   24.9905 C   0  0  0  0  0  0  0  0  0  0  0  0
  -32.3144  -21.0716   30.6817 C   0  0  0  0  0  0  0  0  0  1  0  0
  -30.9056  -13.9687   26.6854 C   0  0  0  0  0  0  0  0  0  0  0  0
  -36.8332  -22.8191   23.4256 C   0  0  1  0  0  0  0  0  0  0  0  0
  -37.6439  -19.1865   22.7063 C   0  0  2  0  0  0  0  0  0  0  0  0
  -36.6227  -23.8316   22.2645 C   0  0  0  0  0  0  0  0  0  0  0  0
  -30.6371  -18.2467   26.5876 N   0  0  0  0  0  0  0  0  0  0  0  0
  -25.8729  -11.5275   20.3011 N   0  0  0  0  0  0  0  0  0  0  0  0
  -26.2602  -12.8081   20.1742 N   0  0  0  0  0  0  0  0  0  0  0  0
  -37.1363  -23.4643   25.7953 N   0  0  0  0  0  0  0  0  0  0  0  0
  -30.0180  -13.5075   20.4766 N   0  0  0  0  0  0  0  0  0  0  0  0
  -30.6969  -15.0493   22.1593 N   0  0  0  0  0  0  0  0  0  0  0  0
  -25.5082  -15.0414   20.4139 N   0  0  0  0  0  0  0  0  0  0  0  0
  -21.8961  -12.5948   21.5814 N   0  0  0  0  0  0  0  0  0  0  0  0
  -38.2914  -26.5306   27.2072 N   0  0  0  0  0  0  0  0  0  0  0  0
  -37.4392  -21.5570   23.0152 N   0  0  0  0  0  0  0  0  0  0  0  0
  -29.8431  -20.9519   30.2526 N   0  3  2  0  0  0  0  0  0  0  0  0
  -37.4485  -17.9841   23.5647 N   0  3  0  0  0  0  0  0  0  0  0  0
  -22.6895  -14.7286   21.3051 O   0  0  0  0  0  0  0  0  0  0  0  0
  -36.1701  -25.8003   26.5834 O   0  0  0  0  0  0  0  0  0  0  0  0
  -38.8702  -23.7071   24.2555 O   0  0  0  0  0  0  0  0  0  0  0  0
  -35.7182  -20.1940   23.7618 O   0  0  0  0  0  0  0  0  0  0  0  0
  -31.7390  -15.0080   20.1510 O   0  0  0  0  0  0  0  0  0  0  0  0
  -21.5813   -7.0339   21.6936 O   0  0  0  0  0  0  0  0  0  0  0  0
  -32.4704  -21.8604   29.5171 O   0  0  0  0  0  0  0  0  0  1  0  0
  -16.4288   -6.8850   19.7356 F   0  0  0  0  0  0  0  0  0  0  0  0
  -20.8022   -5.0816   19.8980 F   0  0  0  0  0  0  0  0  0  0  0  0
  1  2  1  0  0  0  0
  1  5  2  0  0  0  0
  2  6  2  0  0  0  0
  3  8  2  0  0  0  0
  3 17  1  0  0  0  0
  4  9  1  0  0  0  0
  4 17  2  0  0  0  0
  5 19  1  0  0  0  0
  6 21  1  0  0  0  0
  7 10  2  0  0  0  0
  7 20  1  0  0  0  0
  8 25  1  0  0  0  0
  9 25  2  0  0  0  0
 10 26  1  0  0  0  0
 11 12  2  0  0  0  0
 11 27  1  0  0  0  0
 12 28  1  0  0  0  0
 13 22  1  0  0  0  0
 13 26  2  0  0  0  0
 14 24  2  0  0  0  0
 14 31  1  0  0  0  0
 15 28  2  0  0  0  0
 15 29  1  0  0  0  0
 16 23  2  0  0  0  0
 16 72  1  0  0  0  0
 17 30  1  0  0  0  0
 18 30  1  0  0  0  0
 18 32  2  0  0  0  0
 18 33  1  0  0  0  0
 19 21  2  0  0  0  0
 19 38  1  0  0  0  0
 20 22  2  0  0  0  0
 20 39  1  0  0  0  0
 21 52  1  0  0  0  0
 22 40  1  0  0  0  0
 23 24  1  0  0  0  0
 23 51  1  0  0  0  0
 24 68  1  0  0  0  0
 25 89  1  0  0  0  0
 26 90  1  0  0  0  0
 27 29  2  0  0  0  0
 27 89  1  0  0  0  0
 28 91  1  0  0  0  0
 29 92  1  0  0  0  0
 30 73  2  0  0  0  0
 31 53  1  0  0  0  0
 31 72  2  0  0  0  0
 32 74  1  0  0  0  0
 32 78  1  0  0  0  0
 33 79  1  0  0  0  0
 33 84  2  0  0  0  0
 34 54  1  0  0  0  0
 34 80  1  0  0  0  0
 34 85  2  0  0  0  0
 35 69  1  0  0  0  0
 35 75  1  0  0  0  0
 35 86  2  0  0  0  0
 36 70  1  0  0  0  0
 36 81  1  0  0  0  0
 36 87  2  0  0  0  0
 37 76  1  0  0  0  0
 37 77  1  0  0  0  0
 37 88  2  0  0  0  0
 38 41  1  0  0  0  0
 39 54  1  0  0  0  0
 40 75  1  0  0  0  0
 41 43  1  0  0  0  0
 42 44  1  0  0  0  0
 42 46  1  0  0  0  0
 43 52  1  0  0  0  0
 44 56  1  0  0  0  0
 45 53  1  0  0  0  0
 45 57  1  0  0  0  0
 46 76  1  0  0  0  0
 47 51  1  0  0  0  0
 47 77  1  0  0  0  0
 48 51  1  0  0  0  0
 48 77  1  0  0  0  0
 49 56  1  0  0  0  0
 49 76  1  0  0  0  0
 50 55  1  0  0  0  0
 50 82  1  0  0  0  0
 52 80  1  0  0  0  0
 53 55  1  0  0  0  0
 54 75  1  0  0  0  0
 55 58  1  0  0  0  0
 56 74  1  0  0  0  0
 57 67  1  0  0  0  0
 57 82  1  0  0  0  0
 59 68  1  0  0  0  0
 60 68  1  0  0  0  0
 61 70  1  0  0  0  0
 62 71  1  0  0  0  0
 63 71  1  0  0  0  0
 64 71  1  0  0  0  0
 65 82  1  0  0  0  0
 66 83  1  0  0  0  0
 67 90  1  0  0  0  0
 69 71  1  0  0  0  0
 69 81  1  0  0  0  0
 70 83  1  0  0  0  0
 73 74  1  0  0  0  0
M  CHG  2  82   1  83   1
M  ISO  4  37 100  67 101  77 100  90 101
M  END
> <Batch ID>
0175

> <Smiles>
CNC(C)C(=O)NC(C(=O)N1Cc2cc([101O:1][101CH2:1]C3CC(c4cc(C(C)C)c(C5C[100N:0]([100C:0](=O)N6CCCC(n7nc(-c8ccc(Oc9ccc(F)cc9F)cc8)c(C(N)=O)c7N)C6)C5)cn4)C(C)CN3C)ccc2CC1C(=O)NC1CCCc2ccccc21)C(C)(C)C

> <Shape>
0.133

> <Color>
0.179

> <Negative vol penalty>
0.000

$$$$

  -OEChem-04052322473D

 89 99  0     1  0  0  0  0  0999 V2000
  -17.4645  -31.8693   24.0222 C   0  0  0  0  0  0  0  0  0  0  0  0
  -18.7858  -32.1631   24.3434 C   0  0  0  0  0  0  0  0  0  0  0  0
  -26.6037  -13.9691   21.2215 C   0  0  0  0  0  0  0  0  0  0  0  0
  -24.3514  -14.1050   20.3580 C   0  0  0  0  0  0  0  0  0  0  0  0
  -17.1347  -30.6141   23.5125 C   0  0  0  0  0  0  0  0  0  0  0  0
  -19.7781  -31.2014   24.1561 C   0  0  0  0  0  0  0  0  0  0  0  0
  -26.7035  -30.5881   22.4303 C   0  0  0  0  0  0  0  0  0  0  0  0
  -26.2776  -12.7868   21.8861 C   0  0  0  0  0  0  0  0  0  0  0  0
  -24.0253  -12.9227   21.0225 C   0  0  0  0  0  0  0  0  0  0  0  0
  -27.8813  -30.0034   22.8937 C   0  0  0  0  0  0  0  0  0  0  0  0
  -24.4779   -9.6049   20.5667 C   0  0  0  0  0  0  0  0  0  0  0  0
  -23.7542   -8.6445   19.8600 C   0  0  0  0  0  0  0  0  0  0  0  0
  -32.7590  -24.9127   21.7932 C   0  0  0  0  0  0  0  0  0  0  0  0
  -27.2066  -27.8964   21.9322 C   0  0  0  0  0  0  0  0  0  0  0  0
  -21.9755   -8.7863   21.4889 C   0  0  0  0  0  0  0  0  0  0  0  0
  -34.4998  -23.8792   20.5553 C   0  0  0  0  0  0  0  0  0  0  0  0
  -25.6406  -14.6282   20.4576 C   0  0  0  0  0  0  0  0  0  0  0  0
  -26.4851  -15.9788   18.4650 C   0  0  0  0  0  0  0  0  0  0  0  0
  -18.1249  -29.6399   23.3098 C   0  0  0  0  0  0  0  0  0  0  0  0
  -25.7618  -29.8273   21.7226 C   0  0  0  0  0  0  0  0  0  0  0  0
  -19.4610  -29.9316   23.6445 C   0  0  0  0  0  0  0  0  0  0  0  0
  -33.1535  -23.9736   20.8474 C   0  0  0  0  0  0  0  0  0  0  0  0
  -33.7041  -25.7402   22.4123 C   0  0  0  0  0  0  0  0  0  0  0  0
  -26.0189  -28.4744   21.4587 C   0  0  0  0  0  0  0  0  0  0  0  0
  -24.9884  -12.2636   21.7865 C   0  0  0  0  0  0  0  0  0  0  0  0
  -28.1317  -28.6567   22.6472 C   0  0  0  0  0  0  0  0  0  0  0  0
  -23.9505  -10.1559   21.7346 C   0  0  0  0  0  0  0  0  0  0  0  0
  -22.5030   -8.2352   20.3211 C   0  0  0  0  0  0  0  0  0  0  0  0
  -22.6993   -9.7467   22.1956 C   0  0  0  0  0  0  0  0  0  0  0  0
  -25.9766  -15.8498   19.7714 C   0  0  0  0  0  0  0  0  0  0  0  0
  -35.0470  -25.5447   22.0653 C   0  0  0  0  0  0  0  0  0  0  0  0
  -26.6342  -17.3324   18.2867 C   0  0  0  0  0  0  0  0  0  0  0  0
  -26.7948  -14.9655   17.4990 C   0  0  0  0  0  0  0  0  0  0  0  0
  -22.7323  -28.9946   22.2044 C   0  0  0  0  0  0  0  0  0  0  0  0
  -23.0035  -27.7611   19.2165 C   0  0  0  0  0  0  0  0  0  0  0  0
  -25.0325  -26.5364   16.7609 C   0  0  0  0  0  0  0  0  0  0  0  0
  -28.1092  -22.3270   19.9895 C   0  0  0  0  0  0  0  0  0  0  0  0
  -17.7130  -28.2812   22.8008 C   0  0  0  0  0  0  0  0  0  0  0  0
  -24.5086  -30.4794   21.2063 C   0  0  0  0  0  0  0  0  0  0  0  0
  -25.0494  -27.6190   20.6860 C   0  0  0  0  0  0  0  0  0  0  0  0
  -36.1430  -26.3746   22.6796 C   0  0  0  0  0  0  0  0  0  0  0  0
  -18.8802  -27.4462   22.2805 C   0  0  0  0  0  0  0  0  0  0  0  0
  -35.7328  -27.0246   23.9969 C   0  0  0  0  0  0  0  0  0  0  0  0
  -25.0134  -21.2273   21.0642 C   0  0  0  0  0  0  0  0  0  0  0  0
  -20.0478  -27.4914   23.2610 C   0  0  0  0  0  0  0  0  0  0  0  0
  -34.3975  -27.7388   23.8275 C   0  0  0  0  0  0  0  0  0  0  0  0
  -25.0171  -19.7381   20.7196 C   0  0  0  0  0  0  0  0  0  0  0  0
  -31.4124  -22.1597   21.1635 C   0  0  0  0  0  0  0  0  0  0  0  0
  -31.1238  -23.8840   19.3324 C   0  0  0  0  0  0  0  0  0  0  0  0
  -26.3655  -21.6627   21.6171 C   0  0  0  0  0  0  0  0  0  0  0  0
  -30.3665  -21.2813   20.4709 C   0  0  0  0  0  0  0  0  0  0  0  0
  -30.1079  -22.9569   18.6714 C   0  0  0  0  0  0  0  0  0  0  0  0
  -27.5298  -19.8849   20.3514 C   0  0  0  0  0  0  0  0  0  0  0  0
  -32.1382  -23.0776   20.1634 C   0  0  0  0  0  0  0  0  0  0  0  0
  -20.5694  -28.9233   23.4322 C   0  0  1  0  0  0  0  0  0  0  0  0
  -33.2927  -26.7343   23.4737 C   0  0  1  0  0  0  0  0  0  0  0  0
  -23.3828  -29.4844   20.9416 C   0  0  1  0  0  0  0  0  0  0  0  0
  -26.1853  -19.3909   19.7798 C   0  0  1  0  0  0  0  0  0  0  0  0
  -24.9611  -25.5709   14.4457 C   0  0  0  0  0  0  0  0  0  0  0  0
  -22.0034  -25.1126   20.3544 C   0  0  0  0  0  0  0  0  0  0  0  0
  -22.8445  -23.9851   18.2833 C   0  0  0  0  0  0  0  0  0  0  0  0
  -21.0532  -25.7134   18.1204 C   0  0  0  0  0  0  0  0  0  0  0  0
  -26.6866  -28.7339   15.6682 C   0  0  0  0  0  0  0  0  0  0  0  0
  -31.3717  -28.1038   24.2941 C   0  0  0  0  0  0  0  0  0  0  0  0
  -30.1851  -28.9184   23.8182 C   0  0  0  0  0  0  0  0  0  1  0  0
  -23.4211  -26.4282   18.6440 C   0  0  1  0  0  0  0  0  0  0  0  0
  -25.1099  -26.8370   15.2749 C   0  0  2  0  0  0  0  0  0  0  0  0
  -22.3481  -25.3252   18.8668 C   0  0  0  0  0  0  0  0  0  0  0  0
  -35.4515  -24.6381   21.1385 N   0  0  0  0  0  0  0  0  0  0  0  0
  -25.8138  -17.0276   20.3799 N   0  0  0  0  0  0  0  0  0  0  0  0
  -26.2224  -17.9095   19.4519 N   0  0  0  0  0  0  0  0  0  0  0  0
  -23.8354  -28.3009   20.2076 N   0  0  0  0  0  0  0  0  0  0  0  0
  -27.4483  -21.3124   20.6981 N   0  0  0  0  0  0  0  0  0  0  0  0
  -29.4544  -22.1009   19.6611 N   0  0  0  0  0  0  0  0  0  0  0  0
  -27.0762  -18.0735   17.2485 N   0  0  0  0  0  0  0  0  0  0  0  0
  -26.5817  -13.6244   17.8457 N   0  0  0  0  0  0  0  0  0  0  0  0
  -21.3884  -29.3015   22.3006 N   0  0  0  0  0  0  0  0  0  0  0  0
  -23.7475  -26.6699   17.2428 N   0  0  0  0  0  0  0  0  0  0  0  0
  -32.0792  -27.5381   23.1205 N   0  3  0  0  0  0  0  0  0  0  0  0
  -26.4189  -27.4663   14.9413 N   0  3  0  0  0  0  0  0  0  0  0  0
  -27.2625  -15.2404   16.3680 O   0  0  0  0  0  0  0  0  0  0  0  0
  -23.3998  -28.3821   23.0296 O   0  0  0  0  0  0  0  0  0  0  0  0
  -21.9809  -28.3069   18.7946 O   0  0  0  0  0  0  0  0  0  0  0  0
  -26.0132  -26.2116   17.4267 O   0  0  0  0  0  0  0  0  0  0  0  0
  -27.5319  -23.3732   19.6680 O   0  0  0  0  0  0  0  0  0  0  0  0
  -24.6700  -11.1099   22.4346 O   0  0  0  0  0  0  0  0  0  0  0  0
  -29.2885  -28.0793   23.1022 O   0  0  0  0  0  0  0  0  0  1  0  0
  -21.8074   -7.3141   19.6415 F   0  0  0  0  0  0  0  0  0  0  0  0
  -22.1869  -10.2733   23.3163 F   0  0  0  0  0  0  0  0  0  0  0  0
  1  2  1  0  0  0  0
  1  5  2  0  0  0  0
  2  6  2  0  0  0  0
  3  8  2  0  0  0  0
  3 17  1  0  0  0  0
  4  9  1  0  0  0  0
  4 17  2  0  0  0  0
  5 19  1  0  0  0  0
  6 21  1  0  0  0  0
  7 10  2  0  0  0  0
  7 20  1  0  0  0  0
  8 25  1  0  0  0  0
  9 25  2  0  0  0  0
 10 26  1  0  0  0  0
 11 12  2  0  0  0  0
 11 27  1  0  0  0  0
 12 28  1  0  0  0  0
 13 22  2  0  0  0  0
 13 23  1  0  0  0  0
 14 24  1  0  0  0  0
 14 26  2  0  0  0  0
 15 28  2  0  0  0  0
 15 29  1  0  0  0  0
 16 22  1  0  0  0  0
 16 69  2  0  0  0  0
 17 30  1  0  0  0  0
 18 30  1  0  0  0  0
 18 32  2  0  0  0  0
 18 33  1  0  0  0  0
 19 21  2  0  0  0  0
 19 38  1  0  0  0  0
 20 24  2  0  0  0  0
 20 39  1  0  0  0  0
 21 55  1  0  0  0  0
 22 54  1  0  0  0  0
 23 31  2  0  0  0  0
 23 56  1  0  0  0  0
 24 40  1  0  0  0  0
 25 86  1  0  0  0  0
 26 87  1  0  0  0  0
 27 29  2  0  0  0  0
 27 86  1  0  0  0  0
 28 88  1  0  0  0  0
 29 89  1  0  0  0  0
 30 70  2  0  0  0  0
 31 41  1  0  0  0  0
 31 69  1  0  0  0  0
 32 71  1  0  0  0  0
 32 75  1  0  0  0  0
 33 76  1  0  0  0  0
 33 81  2  0  0  0  0
 34 57  1  0  0  0  0
 34 77  1  0  0  0  0
 34 82  2  0  0  0  0
 35 66  1  0  0  0  0
 35 72  1  0  0  0  0
 35 83  2  0  0  0  0
 36 67  1  0  0  0  0
 36 78  1  0  0  0  0
 36 84  2  0  0  0  0
 37 73  1  0  0  0  0
 37 74  1  0  0  0  0
 37 85  2  0  0  0  0
 38 42  1  0  0  0  0
 39 57  1  0  0  0  0
 40 72  1  0  0  0  0
 41 43  1  0  0  0  0
 42 45  1  0  0  0  0
 43 46  1  0  0  0  0
 44 47  1  0  0  0  0
 44 50  1  0  0  0  0
 45 55  1  0  0  0  0
 46 56  1  0  0  0  0
 47 58  1  0  0  0  0
 48 51  1  0  0  0  0
 48 54  1  0  0  0  0
 49 52  1  0  0  0  0
 49 54  1  0  0  0  0
 50 73  1  0  0  0  0
 51 74  1  0  0  0  0
 52 74  1  0  0  0  0
 53 58  1  0  0  0  0
 53 73  1  0  0  0  0
 55 77  1  0  0  0  0
 56 79  1  0  0  0  0
 57 72  1  0  0  0  0
 58 71  1  0  0  0  0
 59 67  1  0  0  0  0
 60 68  1  0  0  0  0
 61 68  1  0  0  0  0
 62 68  1  0  0  0  0
 63 80  1  0  0  0  0
 64 65  1  0  0  0  0
 64 79  1  0  0  0  0
 65 87  1  0  0  0  0
 66 68  1  0  0  0  0
 66 78  1  0  0  0  0
 67 80  1  0  0  0  0
 70 71  1  0  0  0  0
M  CHG  2  79   1  80   1
M  ISO  4  37 100  65 101  74 100  87 101
M  END
> <Batch ID>
0175

> <Smiles>
CNC(C)C(=O)NC(C(=O)N1Cc2cc([101O:1][101CH2:1]CNC3CCCc4ncc(C5CC[100N:0]([100C:0](=O)N6CCCC(n7nc(-c8ccc(Oc9ccc(F)cc9F)cc8)c(C(N)=O)c7N)C6)CC5)cc43)ccc2CC1C(=O)NC1CCCc2ccccc21)C(C)(C)C

> <Shape>
0.225

> <Color>
0.074

> <Negative vol penalty>
0.000

$$$$

  -OEChem-04052322473D

 83 92  0     1  0  0  0  0  0999 V2000
  -25.4250  -28.8628   20.6967 C   0  0  0  0  0  0  0  0  0  0  0  0
  -24.7711  -27.7255   20.2337 C   0  0  0  0  0  0  0  0  0  0  0  0
  -20.8500  -23.7524   24.6122 C   0  0  0  0  0  0  0  0  0  0  0  0
  -20.7869  -22.5459   22.5200 C   0  0  0  0  0  0  0  0  0  0  0  0
  -26.8107  -28.9643   20.5815 C   0  0  0  0  0  0  0  0  0  0  0  0
  -25.5026  -26.6894   19.6542 C   0  0  0  0  0  0  0  0  0  0  0  0
  -24.3229  -20.6917   20.0300 C   0  0  0  0  0  0  0  0  0  0  0  0
  -20.7820  -24.9602   23.9178 C   0  0  0  0  0  0  0  0  0  0  0  0
  -20.7189  -23.7537   21.8256 C   0  0  0  0  0  0  0  0  0  0  0  0
  -23.6880  -19.8044   19.1620 C   0  0  0  0  0  0  0  0  0  0  0  0
  -18.4102  -26.8279   22.3950 C   0  0  0  0  0  0  0  0  0  0  0  0
  -17.5278  -27.7990   22.8684 C   0  0  0  0  0  0  0  0  0  0  0  0
  -25.8333  -19.1422   18.2795 C   0  0  0  0  0  0  0  0  0  0  0  0
  -19.3756  -29.3227   23.1866 C   0  0  0  0  0  0  0  0  0  0  0  0
  -25.0220  -15.3151   19.2984 C   0  0  0  0  0  0  0  0  0  0  0  0
  -23.6269  -15.1000   21.5644 C   0  0  0  0  0  0  0  0  0  0  0  0
  -20.8525  -22.5452   23.9133 C   0  0  0  0  0  0  0  0  0  0  0  0
  -19.8447  -20.5279   25.1059 C   0  0  0  0  0  0  0  0  0  0  0  0
  -27.5606  -27.9248   20.0091 C   0  0  0  0  0  0  0  0  0  0  0  0
  -25.7194  -20.8191   20.0217 C   0  0  0  0  0  0  0  0  0  0  0  0
  -26.8995  -26.7777   19.5300 C   0  0  0  0  0  0  0  0  0  0  0  0
  -26.4836  -20.0300   19.1502 C   0  0  0  0  0  0  0  0  0  0  0  0
  -20.7164  -24.9609   22.5245 C   0  0  0  0  0  0  0  0  0  0  0  0
  -24.4430  -19.0316   18.2846 C   0  0  0  0  0  0  0  0  0  0  0  0
  -19.7752  -27.1041   22.3175 C   0  0  0  0  0  0  0  0  0  0  0  0
  -18.0105  -29.0464   23.2641 C   0  0  0  0  0  0  0  0  0  0  0  0
  -20.2579  -28.3515   22.7132 C   0  0  0  0  0  0  0  0  0  0  0  0
  -20.9233  -21.2973   24.6300 C   0  0  0  0  0  0  0  0  0  0  0  0
  -23.6600  -15.1097   19.2779 C   0  0  0  0  0  0  0  0  0  0  0  0
  -24.9889  -15.3047   21.5851 C   0  0  0  0  0  0  0  0  0  0  0  0
  -20.4355  -19.4457   25.7112 C   0  0  0  0  0  0  0  0  0  0  0  0
  -18.4348  -20.7698   25.0095 C   0  0  0  0  0  0  0  0  0  0  0  0
  -27.7525  -23.1845   19.4093 C   0  0  0  0  0  0  0  0  0  0  0  0
  -29.9587  -21.0233   20.4013 C   0  0  0  0  0  0  0  0  0  0  0  0
  -30.8035  -17.7492   20.8632 C   0  0  0  0  0  0  0  0  0  0  0  0
  -25.7289  -16.7469   24.9713 C   0  0  0  0  0  0  0  0  0  0  0  0
  -29.0514  -28.1002   19.8632 C   0  0  0  0  0  0  0  0  0  0  0  0
  -26.3907  -21.7613   20.9829 C   0  0  0  0  0  0  0  0  0  0  0  0
  -27.9870  -20.1144   19.1162 C   0  0  0  0  0  0  0  0  0  0  0  0
  -29.7930  -26.7970   19.5771 C   0  0  0  0  0  0  0  0  0  0  0  0
  -24.4436  -18.1507   27.9803 C   0  0  0  0  0  0  0  0  0  0  0  0
  -29.0806  -26.0063   18.4843 C   0  0  0  0  0  0  0  0  0  0  0  0
  -23.2983  -19.0468   27.5058 C   0  0  0  0  0  0  0  0  0  0  0  0
  -21.4651  -15.2919   17.9253 C   0  0  0  0  0  0  0  0  0  0  0  0
  -25.6142  -18.1642   26.9997 C   0  0  0  0  0  0  0  0  0  0  0  0
  -24.1128  -18.7366   25.1311 C   0  0  0  0  0  0  0  0  0  0  0  0
  -27.6609  -25.6219   18.9179 C   0  0  1  0  0  0  0  0  0  0  0  0
  -22.9480  -15.0061   17.9804 C   0  0  1  0  0  0  0  0  0  0  0  0
  -27.7848  -22.1840   20.5298 C   0  0  1  0  0  0  0  0  0  0  0  0
  -22.8866  -18.7120   26.0596 C   0  0  2  0  0  0  0  0  0  0  0  0
  -22.4236  -16.2465   17.2613 C   0  0  1  0  0  0  0  0  0  0  0  0
  -22.4846  -16.2495   15.7556 C   0  0  0  0  0  0  0  0  0  0  0  0
  -32.1681  -15.7793   21.6080 C   0  0  0  0  0  0  0  0  0  0  0  0
  -31.4386  -21.5177   17.7792 C   0  0  0  0  0  0  0  0  0  0  0  0
  -32.7297  -19.4126   18.1917 C   0  0  0  0  0  0  0  0  0  0  0  0
  -32.9142  -21.3200   19.7887 C   0  0  0  0  0  0  0  0  0  0  0  0
  -29.5441  -17.7421   23.5414 C   0  0  0  0  0  0  0  0  0  0  0  0
  -25.7179  -15.4122   22.8790 C   0  0  0  0  0  0  0  0  0  0  0  0
  -22.5935  -17.5942   17.8735 C   0  0  0  0  0  0  0  0  0  1  0  0
  -30.7868  -19.9553   19.7286 C   0  0  1  0  0  0  0  0  0  0  0  0
  -31.4138  -17.0240   22.0490 C   0  0  2  0  0  0  0  0  0  0  0  0
  -31.9389  -20.5510   18.8711 C   0  0  0  0  0  0  0  0  0  0  0  0
  -22.9380  -14.9987   20.4105 N   0  0  0  0  0  0  0  0  0  0  0  0
  -25.7109  -15.4160   20.4524 N   0  0  0  0  0  0  0  0  0  0  0  0
  -22.1095  -20.7504   24.9090 N   0  0  0  0  0  0  0  0  0  0  0  0
  -21.7798  -19.6258   25.5669 N   0  0  0  0  0  0  0  0  0  0  0  0
  -28.5965  -21.0549   20.0708 N   0  0  0  0  0  0  0  0  0  0  0  0
  -25.1566  -17.8372   25.6471 N   0  0  0  0  0  0  0  0  0  0  0  0
  -19.9312  -18.3672   26.3475 N   0  0  0  0  0  0  0  0  0  0  0  0
  -17.9992  -21.9298   24.3546 N   0  0  0  0  0  0  0  0  0  0  0  0
  -27.6976  -24.4994   19.8306 N   0  0  0  0  0  0  0  0  0  0  0  0
  -31.2333  -19.0572   20.7880 N   0  0  0  0  0  0  0  0  0  0  0  0
  -25.2335  -16.5021   23.6964 N   0  0  0  0  0  0  0  0  0  0  0  0
  -30.3500  -16.6136   23.0086 N   0  3  0  0  0  0  0  0  0  0  0  0
  -17.5868  -19.9889   25.5042 O   0  0  0  0  0  0  0  0  0  0  0  0
  -27.7770  -22.7926   18.2485 O   0  0  0  0  0  0  0  0  0  0  0  0
  -30.4991  -21.7963   21.1963 O   0  0  0  0  0  0  0  0  0  0  0  0
  -30.0263  -17.2083   20.0796 O   0  0  0  0  0  0  0  0  0  0  0  0
  -26.6120  -16.0405   25.4694 O   0  0  0  0  0  0  0  0  0  0  0  0
  -20.6498  -26.1392   21.8466 O   0  0  0  0  0  0  0  0  0  0  0  0
  -23.8258  -18.1652   17.4358 O   0  0  0  0  0  0  0  0  0  1  0  0
  -17.1629  -29.9794   23.7172 F   0  0  0  0  0  0  0  0  0  0  0  0
  -21.5681  -28.6232   22.6399 F   0  0  0  0  0  0  0  0  0  0  0  0
  1  2  1  0  0  0  0
  1  5  2  0  0  0  0
  2  6  2  0  0  0  0
  3  8  2  0  0  0  0
  3 17  1  0  0  0  0
  4  9  1  0  0  0  0
  4 17  2  0  0  0  0
  5 19  1  0  0  0  0
  6 21  1  0  0  0  0
  7 10  2  0  0  0  0
  7 20  1  0  0  0  0
  8 23  1  0  0  0  0
  9 23  2  0  0  0  0
 10 24  1  0  0  0  0
 11 12  2  0  0  0  0
 11 25  1  0  0  0  0
 12 26  1  0  0  0  0
 13 22  1  0  0  0  0
 13 24  2  0  0  0  0
 14 26  2  0  0  0  0
 14 27  1  0  0  0  0
 15 29  1  0  0  0  0
 15 64  2  0  0  0  0
 16 30  2  0  0  0  0
 16 63  1  0  0  0  0
 17 28  1  0  0  0  0
 18 28  1  0  0  0  0
 18 31  2  0  0  0  0
 18 32  1  0  0  0  0
 19 21  2  0  0  0  0
 19 37  1  0  0  0  0
 20 22  2  0  0  0  0
 20 38  1  0  0  0  0
 21 47  1  0  0  0  0
 22 39  1  0  0  0  0
 23 80  1  0  0  0  0
 24 81  1  0  0  0  0
 25 27  2  0  0  0  0
 25 80  1  0  0  0  0
 26 82  1  0  0  0  0
 27 83  1  0  0  0  0
 28 65  2  0  0  0  0
 29 48  1  0  0  0  0
 29 63  2  0  0  0  0
 30 58  1  0  0  0  0
 30 64  1  0  0  0  0
 31 66  1  0  0  0  0
 31 69  1  0  0  0  0
 32 70  1  0  0  0  0
 32 75  2  0  0  0  0
 33 49  1  0  0  0  0
 33 71  1  0  0  0  0
 33 76  2  0  0  0  0
 34 60  1  0  0  0  0
 34 67  1  0  0  0  0
 34 77  2  0  0  0  0
 35 61  1  0  0  0  0
 35 72  1  0  0  0  0
 35 78  2  0  0  0  0
 36 68  1  0  0  0  0
 36 73  1  0  0  0  0
 36 79  2  0  0  0  0
 37 40  1  0  0  0  0
 38 49  1  0  0  0  0
 39 67  1  0  0  0  0
 40 42  1  0  0  0  0
 41 43  1  0  0  0  0
 41 45  1  0  0  0  0
 42 47  1  0  0  0  0
 43 50  1  0  0  0  0
 44 48  1  0  0  0  0
 44 51  1  0  0  0  0
 45 68  1  0  0  0  0
 46 50  1  0  0  0  0
 46 68  1  0  0  0  0
 47 71  1  0  0  0  0
 48 51  1  0  0  0  0
 49 67  1  0  0  0  0
 50 66  1  0  0  0  0
 51 52  1  0  0  0  0
 51 59  1  0  0  0  0
 53 61  1  0  0  0  0
 54 62  1  0  0  0  0
 55 62  1  0  0  0  0
 56 62  1  0  0  0  0
 57 74  1  0  0  0  0
 58 73  1  0  0  0  0
 59 81  1  0  0  0  0
 60 62  1  0  0  0  0
 60 72  1  0  0  0  0
 61 74  1  0  0  0  0
 65 66  1  0  0  0  0
M  CHG  1  74   1
M  ISO  4  36 100  59 101  73 100  81 101
M  END
> <Batch ID>
0175

> <Smiles>
CNC(C)C(=O)NC(C(=O)N1Cc2cc([101O:1][101CH2:1]C3(C)CC3c3cnc(C[100NH:0][100C:0](=O)N4CCCC(n5nc(-c6ccc(Oc7ccc(F)cc7F)cc6)c(C(N)=O)c5N)C4)cn3)ccc2CC1C(=O)NC1CCCc2ccccc21)C(C)(C)C

> <Shape>
0.189

> <Color>
0.073

> <Negative vol penalty>
0.000

$$$$

  -OEChem-04052322473D

 86 95  0     1  0  0  0  0  0999 V2000
  -27.7224  -34.5656   24.1311 C   0  0  0  0  0  0  0  0  0  0  0  0
  -27.9363  -33.2351   23.7852 C   0  0  0  0  0  0  0  0  0  0  0  0
  -25.1465  -12.9093   21.8013 C   0  0  0  0  0  0  0  0  0  0  0  0
  -25.8254  -14.7589   20.4030 C   0  0  0  0  0  0  0  0  0  0  0  0
  -26.4587  -34.9818   24.5477 C   0  0  0  0  0  0  0  0  0  0  0  0
  -26.8866  -32.3199   23.8568 C   0  0  0  0  0  0  0  0  0  0  0  0
  -26.6491  -29.3141   19.7882 C   0  0  0  0  0  0  0  0  0  0  0  0
  -25.1811  -12.0603   20.6952 C   0  0  0  0  0  0  0  0  0  0  0  0
  -25.8601  -13.9098   19.2968 C   0  0  0  0  0  0  0  0  0  0  0  0
  -27.5564  -28.2575   19.7234 C   0  0  0  0  0  0  0  0  0  0  0  0
  -26.4769  -12.1536   16.1738 C   0  0  0  0  0  0  0  0  0  0  0  0
  -27.5752  -12.2455   15.3189 C   0  0  0  0  0  0  0  0  0  0  0  0
  -25.8387  -26.7438   20.4833 C   0  0  0  0  0  0  0  0  0  0  0  0
  -29.0470  -11.6777   17.1488 C   0  0  0  0  0  0  0  0  0  0  0  0
  -27.2944  -21.6678   24.8934 C   0  0  0  0  0  0  0  0  0  0  0  0
  -25.4686  -14.2587   21.6552 C   0  0  0  0  0  0  0  0  0  0  0  0
  -26.1856  -15.0224   23.9812 C   0  0  0  0  0  0  0  0  0  0  0  0
  -25.3907  -34.0733   24.6152 C   0  0  0  0  0  0  0  0  0  0  0  0
  -25.3306  -29.0950   20.2123 C   0  0  0  0  0  0  0  0  0  0  0  0
  -25.6077  -32.7242   24.2760 C   0  0  0  0  0  0  0  0  0  0  0  0
  -24.9160  -27.7988   20.5503 C   0  0  0  0  0  0  0  0  0  0  0  0
  -25.5379  -12.5605   19.4430 C   0  0  0  0  0  0  0  0  0  0  0  0
  -27.1521  -26.9726   20.0737 C   0  0  0  0  0  0  0  0  0  0  0  0
  -26.6636  -11.8238   17.5162 C   0  0  0  0  0  0  0  0  0  0  0  0
  -28.8603  -12.0075   15.8064 C   0  0  0  0  0  0  0  0  0  0  0  0
  -27.9486  -11.5858   18.0037 C   0  0  0  0  0  0  0  0  0  0  0  0
  -25.4324  -15.1363   22.7973 C   0  0  0  0  0  0  0  0  0  0  0  0
  -28.5056  -21.0428   24.7980 C   0  0  0  0  0  0  0  0  0  0  0  0
  -25.7885  -16.0925   24.7452 C   0  0  0  0  0  0  0  0  0  0  0  0
  -28.3460  -22.4825   23.1240 C   0  0  0  0  0  0  0  0  0  0  0  0
  -27.1573  -14.0373   24.3568 C   0  0  0  0  0  0  0  0  0  0  0  0
  -23.5540  -30.1255   22.6383 C   0  0  0  0  0  0  0  0  0  0  0  0
  -21.1990  -28.5242   21.0852 C   0  0  0  0  0  0  0  0  0  0  0  0
  -20.8535  -25.3786   19.3524 C   0  0  0  0  0  0  0  0  0  0  0  0
  -23.4520  -21.4336   23.3795 C   0  0  0  0  0  0  0  0  0  0  0  0
  -24.0541  -34.5601   25.1166 C   0  0  0  0  0  0  0  0  0  0  0  0
  -24.3568  -30.2407   20.2512 C   0  0  0  0  0  0  0  0  0  0  0  0
  -23.5060  -27.5073   20.9925 C   0  0  0  0  0  0  0  0  0  0  0  0
  -22.9031  -33.6065   24.8064 C   0  0  0  0  0  0  0  0  0  0  0  0
  -22.0350  -18.9587   25.5112 C   0  0  0  0  0  0  0  0  0  0  0  0
  -23.2899  -32.1723   25.1529 C   0  0  0  0  0  0  0  0  0  0  0  0
  -29.6395  -22.6449   20.8744 C   0  0  0  0  0  0  0  0  0  0  0  0
  -22.8130  -17.6882   25.1642 C   0  0  0  0  0  0  0  0  0  0  0  0
  -29.9871  -23.8025   19.9488 C   0  0  0  0  0  0  0  0  0  0  0  0
  -29.3879  -24.6189   22.1863 C   0  0  0  0  0  0  0  0  0  0  0  0
  -21.7942  -19.8274   24.2785 C   0  0  0  0  0  0  0  0  0  0  0  0
  -23.7864  -18.8960   23.1661 C   0  0  0  0  0  0  0  0  0  0  0  0
  -24.4882  -31.7067   24.3169 C   0  0  1  0  0  0  0  0  0  0  0  0
  -28.6836  -23.2838   21.8856 C   0  0  2  0  0  0  0  0  0  0  0  0
  -23.1795  -29.9926   21.1893 C   0  0  1  0  0  0  0  0  0  0  0  0
  -24.1022  -18.0149   24.3868 C   0  0  2  0  0  0  0  0  0  0  0  0
  -30.0975  -25.0331   20.8732 C   0  0  1  0  0  0  0  0  0  0  0  0
  -29.1309  -20.0114   25.6298 C   0  0  0  0  0  0  0  0  0  0  0  0
  -31.5686  -25.3754   21.1479 C   0  0  0  0  0  0  0  0  0  0  0  0
  -19.2892  -24.6917   17.5143 C   0  0  0  0  0  0  0  0  0  0  0  0
  -19.4429  -27.4951   23.3583 C   0  0  0  0  0  0  0  0  0  0  0  0
  -18.8504  -25.5337   21.9195 C   0  0  0  0  0  0  0  0  0  0  0  0
  -18.2458  -27.8413   21.1900 C   0  0  0  0  0  0  0  0  0  0  0  0
  -23.0897  -24.5369   17.6060 C   0  0  0  0  0  0  0  0  0  0  0  0
  -29.4112  -26.2473   20.2354 C   0  0  0  0  0  0  0  0  0  1  0  0
  -26.1002  -23.4281   23.5687 C   0  0  0  0  0  0  0  0  0  0  0  0
  -25.2080  -22.9152   22.4413 C   0  0  0  0  0  0  0  0  0  0  0  0
  -20.6656  -27.1123   21.1168 C   0  0  1  0  0  0  0  0  0  0  0  0
  -20.6888  -25.1783   17.8566 C   0  0  2  0  0  0  0  0  0  0  0  0
  -19.3284  -27.0014   21.9023 C   0  0  0  0  0  0  0  0  0  0  0  0
  -24.6184  -16.1952   22.8040 N   0  0  0  0  0  0  0  0  0  0  0  0
  -27.2225  -22.5535   23.8453 N   0  0  0  0  0  0  0  0  0  0  0  0
  -24.8577  -16.7564   24.0015 N   0  0  0  0  0  0  0  0  0  0  0  0
  -29.1349  -21.5661   23.6943 N   0  3  0  0  0  0  0  0  0  0  0  0
  -22.5928  -28.6617   21.0202 N   0  0  0  0  0  0  0  0  0  0  0  0
  -23.0564  -20.1019   23.5877 N   0  0  0  0  0  0  0  0  0  0  0  0
  -26.1482  -16.5210   25.9738 N   0  0  0  0  0  0  0  0  0  0  0  0
  -28.5011  -14.2663   24.0312 N   0  0  0  0  0  0  0  0  0  0  0  0
  -24.0662  -31.3638   22.9758 N   0  0  0  0  0  0  0  0  0  0  0  0
  -20.5801  -26.6771   19.7270 N   0  0  0  0  0  0  0  0  0  0  0  0
  -24.6644  -21.6053   22.7227 N   0  0  0  0  0  0  0  0  0  0  0  0
  -21.6706  -24.1746   17.3572 N   0  3  0  0  0  0  0  0  0  0  0  0
  -26.8410  -12.9774   24.9486 O   0  0  0  0  0  0  0  0  0  0  0  0
  -23.3891  -29.1754   23.3946 O   0  0  0  0  0  0  0  0  0  0  0  0
  -20.4077  -29.4703   21.1099 O   0  0  0  0  0  0  0  0  0  0  0  0
  -21.1874  -24.4727   20.1129 O   0  0  0  0  0  0  0  0  0  0  0  0
  -22.7775  -22.3980   23.7562 O   0  0  0  0  0  0  0  0  0  0  0  0
  -25.5721  -11.7322   18.3635 O   0  0  0  0  0  0  0  0  0  0  0  0
  -28.0358  -25.9396   20.0119 O   0  0  0  0  0  0  0  0  0  1  0  0
  -29.9148  -12.0943   14.9850 F   0  0  0  0  0  0  0  0  0  0  0  0
  -28.1341  -11.2675   19.2921 F   0  0  0  0  0  0  0  0  0  0  0  0
  1  2  1  0  0  0  0
  1  5  2  0  0  0  0
  2  6  2  0  0  0  0
  3  8  2  0  0  0  0
  3 16  1  0  0  0  0
  4  9  1  0  0  0  0
  4 16  2  0  0  0  0
  5 18  1  0  0  0  0
  6 20  1  0  0  0  0
  7 10  2  0  0  0  0
  7 19  1  0  0  0  0
  8 22  1  0  0  0  0
  9 22  2  0  0  0  0
 10 23  1  0  0  0  0
 11 12  2  0  0  0  0
 11 24  1  0  0  0  0
 12 25  1  0  0  0  0
 13 21  1  0  0  0  0
 13 23  2  0  0  0  0
 14 25  2  0  0  0  0
 14 26  1  0  0  0  0
 15 28  2  0  0  0  0
 15 67  1  0  0  0  0
 16 27  1  0  0  0  0
 17 27  1  0  0  0  0
 17 29  2  0  0  0  0
 17 31  1  0  0  0  0
 18 20  2  0  0  0  0
 18 36  1  0  0  0  0
 19 21  2  0  0  0  0
 19 37  1  0  0  0  0
 20 48  1  0  0  0  0
 21 38  1  0  0  0  0
 22 83  1  0  0  0  0
 23 84  1  0  0  0  0
 24 26  2  0  0  0  0
 24 83  1  0  0  0  0
 25 85  1  0  0  0  0
 26 86  1  0  0  0  0
 27 66  2  0  0  0  0
 28 53  1  0  0  0  0
 28 69  1  0  0  0  0
 29 68  1  0  0  0  0
 29 72  1  0  0  0  0
 30 49  1  0  0  0  0
 30 67  1  0  0  0  0
 30 69  2  0  0  0  0
 31 73  1  0  0  0  0
 31 78  2  0  0  0  0
 32 50  1  0  0  0  0
 32 74  1  0  0  0  0
 32 79  2  0  0  0  0
 33 63  1  0  0  0  0
 33 70  1  0  0  0  0
 33 80  2  0  0  0  0
 34 64  1  0  0  0  0
 34 75  1  0  0  0  0
 34 81  2  0  0  0  0
 35 71  1  0  0  0  0
 35 76  1  0  0  0  0
 35 82  2  0  0  0  0
 36 39  1  0  0  0  0
 37 50  1  0  0  0  0
 38 70  1  0  0  0  0
 39 41  1  0  0  0  0
 40 43  1  0  0  0  0
 40 46  1  0  0  0  0
 41 48  1  0  0  0  0
 42 44  1  0  0  0  0
 42 49  1  0  0  0  0
 43 51  1  0  0  0  0
 44 52  1  0  0  0  0
 45 49  1  0  0  0  0
 45 52  1  0  0  0  0
 46 71  1  0  0  0  0
 47 51  1  0  0  0  0
 47 71  1  0  0  0  0
 48 74  1  0  0  0  0
 50 70  1  0  0  0  0
 51 68  1  0  0  0  0
 52 54  1  0  0  0  0
 52 60  1  0  0  0  0
 55 64  1  0  0  0  0
 56 65  1  0  0  0  0
 57 65  1  0  0  0  0
 58 65  1  0  0  0  0
 59 77  1  0  0  0  0
 60 84  1  0  0  0  0
 61 62  1  0  0  0  0
 61 67  1  0  0  0  0
 62 76  1  0  0  0  0
 63 65  1  0  0  0  0
 63 75  1  0  0  0  0
 64 77  1  0  0  0  0
 66 68  1  0  0  0  0
M  CHG  2  69   1  77   1
M  ISO  4  35 100  60 101  76 100  84 101
M  END
> <Batch ID>
0175

> <Smiles>
CNC(C)C(=O)NC(C(=O)N1Cc2cc([101O:1][101CH2:1]C3(C)CCC(c4nc(C)cn4CC[100NH:0][100C:0](=O)N4CCCC(n5nc(-c6ccc(Oc7ccc(F)cc7F)cc6)c(C(N)=O)c5N)C4)C3)ccc2CC1C(=O)NC1CCCc2ccccc21)C(C)(C)C

> <Shape>
0.212

> <Color>
0.054

> <Negative vol penalty>
0.000

$$$$

  -OEChem-04052322473D

 83 92  0     1  0  0  0  0  0999 V2000
  -34.5209  -28.7721   33.4938 C   0  0  0  0  0  0  0  0  0  0  0  0
  -34.3906  -27.5021   32.9411 C   0  0  0  0  0  0  0  0  0  0  0  0
  -23.0812   -9.8685   19.9386 C   0  0  0  0  0  0  0  0  0  0  0  0
  -23.8219   -9.8783   22.2382 C   0  0  0  0  0  0  0  0  0  0  0  0
  -33.4695  -29.6830   33.4003 C   0  0  0  0  0  0  0  0  0  0  0  0
  -33.2082  -27.1418   32.2955 C   0  0  0  0  0  0  0  0  0  0  0  0
  -32.6447  -23.4808   27.4185 C   0  0  0  0  0  0  0  0  0  0  0  0
  -22.3279   -8.7210   20.1861 C   0  0  0  0  0  0  0  0  0  0  0  0
  -23.0686   -8.7308   22.4857 C   0  0  0  0  0  0  0  0  0  0  0  0
  -32.3150  -22.1322   27.2911 C   0  0  0  0  0  0  0  0  0  0  0  0
  -19.8305   -7.9556   23.0639 C   0  0  0  0  0  0  0  0  0  0  0  0
  -19.0636   -7.9244   24.2285 C   0  0  0  0  0  0  0  0  0  0  0  0
  -30.2304  -15.5360   26.4190 C   0  0  0  0  0  0  0  0  0  0  0  0
  -31.4861  -17.4537   25.6561 C   0  0  0  0  0  0  0  0  0  0  0  0
  -30.0181  -22.7395   26.8731 C   0  0  0  0  0  0  0  0  0  0  0  0
  -20.2864   -5.9816   24.9817 C   0  0  0  0  0  0  0  0  0  0  0  0
  -23.8283  -10.4472   20.9646 C   0  0  0  0  0  0  0  0  0  0  0  0
  -24.1873  -12.9697   20.8392 C   0  0  0  0  0  0  0  0  0  0  0  0
  -32.2773  -29.3370   32.7449 C   0  0  0  0  0  0  0  0  0  0  0  0
  -31.6599  -24.4701   27.2847 C   0  0  0  0  0  0  0  0  0  0  0  0
  -32.1394  -28.0485   32.1944 C   0  0  0  0  0  0  0  0  0  0  0  0
  -31.0023  -16.1632   25.4412 C   0  0  0  0  0  0  0  0  0  0  0  0
  -30.3384  -24.1001   26.9967 C   0  0  0  0  0  0  0  0  0  0  0  0
  -29.9421  -16.1992   27.6118 C   0  0  0  0  0  0  0  0  0  0  0  0
  -31.1979  -18.1170   26.8489 C   0  0  0  0  0  0  0  0  0  0  0  0
  -30.4259  -17.4897   27.8267 C   0  0  0  0  0  0  0  0  0  0  0  0
  -22.3216   -8.1521   21.4597 C   0  0  0  0  0  0  0  0  0  0  0  0
  -31.0009  -21.7612   27.0212 C   0  0  0  0  0  0  0  0  0  0  0  0
  -20.8253   -6.9997   22.8580 C   0  0  0  0  0  0  0  0  0  0  0  0
  -19.2915   -6.9374   25.1874 C   0  0  0  0  0  0  0  0  0  0  0  0
  -21.0533   -6.0127   23.8170 C   0  0  0  0  0  0  0  0  0  0  0  0
  -24.6071  -11.6323   20.7094 C   0  0  0  0  0  0  0  0  0  0  0  0
  -25.2872  -13.7110   20.4826 C   0  0  0  0  0  0  0  0  0  0  0  0
  -22.9166  -13.4950   21.2457 C   0  0  0  0  0  0  0  0  0  0  0  0
  -30.4509  -26.7045   29.1951 C   0  0  0  0  0  0  0  0  0  0  0  0
  -28.8745  -27.5992   26.5050 C   0  0  0  0  0  0  0  0  0  0  0  0
  -27.6465  -26.7297   23.4418 C   0  0  0  0  0  0  0  0  0  0  0  0
  -30.8532  -14.5568   20.8850 C   0  0  0  0  0  0  0  0  0  0  0  0
  -31.1507  -30.3391   32.7104 C   0  0  0  0  0  0  0  0  0  0  0  0
  -32.0370  -25.9217   27.3985 C   0  0  0  0  0  0  0  0  0  0  0  0
  -29.2479  -25.1245   26.8239 C   0  0  0  0  0  0  0  0  0  0  0  0
  -30.0717  -30.0075   31.6827 C   0  0  0  0  0  0  0  0  0  0  0  0
  -29.6277  -12.3616   18.3136 C   0  0  0  0  0  0  0  0  0  0  0  0
  -29.6836  -28.5351   31.7724 C   0  0  0  0  0  0  0  0  0  0  0  0
  -28.1999  -12.0392   18.7417 C   0  0  0  0  0  0  0  0  0  0  0  0
  -30.5358  -12.5223   19.5255 C   0  0  0  0  0  0  0  0  0  0  0  0
  -30.2343  -14.5319   23.4299 C   0  0  0  0  0  0  0  0  0  0  0  0
  -31.3387  -16.2145   22.7647 C   0  0  0  0  0  0  0  0  0  0  0  0
  -28.6307  -13.2985   20.9120 C   0  0  0  0  0  0  0  0  0  0  0  0
  -31.3280  -15.4099   24.0848 C   0  0  0  0  0  0  0  0  0  0  0  0
  -30.8818  -27.6289   31.4646 C   0  0  1  0  0  0  0  0  0  0  0  0
  -30.8558  -26.8199   27.7527 C   0  0  1  0  0  0  0  0  0  0  0  0
  -27.6777  -13.1051   19.7158 C   0  0  2  0  0  0  0  0  0  0  0  0
  -29.1109  -15.5064   28.6415 C   0  0  0  0  0  0  0  0  0  0  0  0
  -30.1166  -18.2009   29.1056 C   0  0  0  0  0  0  0  0  0  0  0  0
  -26.3728  -27.6647   21.4923 C   0  0  0  0  0  0  0  0  0  0  0  0
  -26.2864  -27.4147   28.1105 C   0  0  0  0  0  0  0  0  0  0  0  0
  -25.0262  -27.4155   25.9472 C   0  0  0  0  0  0  0  0  0  0  0  0
  -26.4235  -29.3841   26.5753 C   0  0  0  0  0  0  0  0  0  0  0  0
  -29.8986  -26.2379   21.5857 C   0  0  0  0  0  0  0  0  0  0  0  0
  -31.7297  -19.4977   27.0549 C   0  0  0  0  0  0  0  0  0  1  0  0
  -27.5545  -27.2362   25.8686 C   0  0  1  0  0  0  0  0  0  0  0  0
  -27.7485  -27.4061   22.0867 C   0  0  2  0  0  0  0  0  0  0  0  0
  -26.3426  -27.8430   26.6305 C   0  0  0  0  0  0  0  0  0  0  0  0
  -25.8748  -11.5270   20.3020 N   0  0  0  0  0  0  0  0  0  0  0  0
  -26.2609  -12.8077   20.1727 N   0  0  0  0  0  0  0  0  0  0  0  0
  -29.6653  -26.5306   26.9506 N   0  0  0  0  0  0  0  0  0  0  0  0
  -30.0179  -13.5112   20.4759 N   0  0  0  0  0  0  0  0  0  0  0  0
  -30.6944  -15.0573   22.1557 N   0  0  0  0  0  0  0  0  0  0  0  0
  -25.5067  -15.0408   20.4070 N   0  0  0  0  0  0  0  0  0  0  0  0
  -21.8961  -12.5934   21.5775 N   0  0  0  0  0  0  0  0  0  0  0  0
  -31.1191  -27.5719   30.0381 N   0  0  0  0  0  0  0  0  0  0  0  0
  -27.6483  -27.6465   24.4717 N   0  0  0  0  0  0  0  0  0  0  0  0
  -28.5174  -26.5519   21.1379 N   0  3  0  0  0  0  0  0  0  0  0  0
  -22.6878  -14.7273   21.2971 O   0  0  0  0  0  0  0  0  0  0  0  0
  -29.5947  -25.8899   29.5190 O   0  0  0  0  0  0  0  0  0  0  0  0
  -29.1954  -28.7867   26.5966 O   0  0  0  0  0  0  0  0  0  0  0  0
  -27.5690  -25.5102   23.5734 O   0  0  0  0  0  0  0  0  0  0  0  0
  -31.7377  -15.0126   20.1481 O   0  0  0  0  0  0  0  0  0  0  0  0
  -21.5864   -7.0325   21.7016 O   0  0  0  0  0  0  0  0  0  0  0  0
  -30.6739  -20.4361   26.8962 O   0  0  0  0  0  0  0  0  0  1  0  0
  -18.5560   -6.9085   26.3065 F   0  0  0  0  0  0  0  0  0  0  0  0
  -22.0084   -5.0925   23.6254 F   0  0  0  0  0  0  0  0  0  0  0  0
  1  2  1  0  0  0  0
  1  5  2  0  0  0  0
  2  6  2  0  0  0  0
  3  8  2  0  0  0  0
  3 17  1  0  0  0  0
  4  9  1  0  0  0  0
  4 17  2  0  0  0  0
  5 19  1  0  0  0  0
  6 21  1  0  0  0  0
  7 10  2  0  0  0  0
  7 20  1  0  0  0  0
  8 27  1  0  0  0  0
  9 27  2  0  0  0  0
 10 28  1  0  0  0  0
 11 12  2  0  0  0  0
 11 29  1  0  0  0  0
 12 30  1  0  0  0  0
 13 22  1  0  0  0  0
 13 24  2  0  0  0  0
 14 22  2  0  0  0  0
 14 25  1  0  0  0  0
 15 23  1  0  0  0  0
 15 28  2  0  0  0  0
 16 30  2  0  0  0  0
 16 31  1  0  0  0  0
 17 32  1  0  0  0  0
 18 32  1  0  0  0  0
 18 33  2  0  0  0  0
 18 34  1  0  0  0  0
 19 21  2  0  0  0  0
 19 39  1  0  0  0  0
 20 23  2  0  0  0  0
 20 40  1  0  0  0  0
 21 51  1  0  0  0  0
 22 50  1  0  0  0  0
 23 41  1  0  0  0  0
 24 26  1  0  0  0  0
 24 54  1  0  0  0  0
 25 26  2  0  0  0  0
 25 61  1  0  0  0  0
 26 55  1  0  0  0  0
 27 80  1  0  0  0  0
 28 81  1  0  0  0  0
 29 31  2  0  0  0  0
 29 80  1  0  0  0  0
 30 82  1  0  0  0  0
 31 83  1  0  0  0  0
 32 65  2  0  0  0  0
 33 66  1  0  0  0  0
 33 70  1  0  0  0  0
 34 71  1  0  0  0  0
 34 75  2  0  0  0  0
 35 52  1  0  0  0  0
 35 72  1  0  0  0  0
 35 76  2  0  0  0  0
 36 62  1  0  0  0  0
 36 67  1  0  0  0  0
 36 77  2  0  0  0  0
 37 63  1  0  0  0  0
 37 73  1  0  0  0  0
 37 78  2  0  0  0  0
 38 68  1  0  0  0  0
 38 69  1  0  0  0  0
 38 79  2  0  0  0  0
 39 42  1  0  0  0  0
 40 52  1  0  0  0  0
 41 67  1  0  0  0  0
 42 44  1  0  0  0  0
 43 45  1  0  0  0  0
 43 46  1  0  0  0  0
 44 51  1  0  0  0  0
 45 53  1  0  0  0  0
 46 68  1  0  0  0  0
 47 50  1  0  0  0  0
 47 69  1  0  0  0  0
 48 50  1  0  0  0  0
 48 69  1  0  0  0  0
 49 53  1  0  0  0  0
 49 68  1  0  0  0  0
 51 72  1  0  0  0  0
 52 67  1  0  0  0  0
 53 66  1  0  0  0  0
 56 63  1  0  0  0  0
 57 64  1  0  0  0  0
 58 64  1  0  0  0  0
 59 64  1  0  0  0  0
 60 74  1  0  0  0  0
 61 81  1  0  0  0  0
 62 64  1  0  0  0  0
 62 73  1  0  0  0  0
 63 74  1  0  0  0  0
 65 66  1  0  0  0  0
M  CHG  1  74   1
M  ISO  4  38 100  61 101  69 100  81 101
M  END
> <Batch ID>
0175

> <Smiles>
CNC(C)C(=O)NC(C(=O)N1Cc2cc([101O:1][101CH2:1]c3cc(C4C[100N:0]([100C:0](=O)N5CCCC(n6nc(-c7ccc(Oc8ccc(F)cc8F)cc7)c(C(N)=O)c6N)C5)C4)cc(C)c3C)ccc2CC1C(=O)NC1CCCc2ccccc21)C(C)(C)C

> <Shape>
0.176

> <Color>
0.199

> <Negative vol penalty>
0.000

$$$$

  -OEChem-04052322473D

 91100  0     1  0  0  0  0  0999 V2000
  -18.0240  -24.8534   24.2684 C   0  0  0  0  0  0  0  0  0  0  0  0
  -18.9537  -24.3061   23.3900 C   0  0  0  0  0  0  0  0  0  0  0  0
  -24.3122   -9.1817   21.5022 C   0  0  0  0  0  0  0  0  0  0  0  0
  -24.7398  -10.3385   23.5797 C   0  0  0  0  0  0  0  0  0  0  0  0
  -17.8653  -26.2367   24.3407 C   0  0  0  0  0  0  0  0  0  0  0  0
  -19.7244  -25.1419   22.5825 C   0  0  0  0  0  0  0  0  0  0  0  0
  -24.6049  -23.7939   22.4907 C   0  0  0  0  0  0  0  0  0  0  0  0
  -23.9489   -8.0383   22.2136 C   0  0  0  0  0  0  0  0  0  0  0  0
  -24.3765   -9.1950   24.2912 C   0  0  0  0  0  0  0  0  0  0  0  0
  -24.9509  -22.7093   21.6859 C   0  0  0  0  0  0  0  0  0  0  0  0
  -21.2514   -6.9153   23.9151 C   0  0  0  0  0  0  0  0  0  0  0  0
  -20.0979   -6.2414   23.5139 C   0  0  0  0  0  0  0  0  0  0  0  0
  -31.6853  -19.4847   22.4456 C   0  0  0  0  0  0  0  0  0  0  0  0
  -25.7209  -24.2295   19.9786 C   0  0  0  0  0  0  0  0  0  0  0  0
  -21.4062   -4.2551   23.0891 C   0  0  0  0  0  0  0  0  0  0  0  0
  -24.7077  -10.3318   22.1853 C   0  0  0  0  0  0  0  0  0  0  0  0
  -24.2404  -12.5630   21.0402 C   0  0  0  0  0  0  0  0  0  0  0  0
  -18.6412  -27.0902   23.5407 C   0  0  0  0  0  0  0  0  0  0  0  0
  -24.8046  -25.1068   22.0403 C   0  0  0  0  0  0  0  0  0  0  0  0
  -19.5749  -26.5378   22.6432 C   0  0  0  0  0  0  0  0  0  0  0  0
  -30.3471  -19.7769   22.1495 C   0  0  0  0  0  0  0  0  0  0  0  0
  -25.3790  -25.3290   20.7806 C   0  0  0  0  0  0  0  0  0  0  0  0
  -32.0821  -18.1762   22.6669 C   0  0  0  0  0  0  0  0  0  0  0  0
  -23.9810   -8.0449   23.6081 C   0  0  0  0  0  0  0  0  0  0  0  0
  -25.5063  -22.9270   20.4285 C   0  0  0  0  0  0  0  0  0  0  0  0
  -22.4823   -6.2592   23.9032 C   0  0  0  0  0  0  0  0  0  0  0  0
  -20.1753   -4.9113   23.1009 C   0  0  0  0  0  0  0  0  0  0  0  0
  -22.5596   -4.9291   23.4903 C   0  0  0  0  0  0  0  0  0  0  0  0
  -25.0836  -11.5132   21.4509 C   0  0  0  0  0  0  0  0  0  0  0  0
  -31.1163  -17.1975   22.5759 C   0  0  0  0  0  0  0  0  0  0  0  0
  -29.4206  -18.7238   22.0561 C   0  0  0  0  0  0  0  0  0  0  0  0
  -25.0735  -13.4357   20.3838 C   0  0  0  0  0  0  0  0  0  0  0  0
  -22.8303  -12.7341   21.2346 C   0  0  0  0  0  0  0  0  0  0  0  0
  -22.9069  -27.5843   21.4368 C   0  0  0  0  0  0  0  0  0  0  0  0
  -25.7217  -29.1327   20.9875 C   0  0  0  0  0  0  0  0  0  0  0  0
  -29.0427  -28.9438   20.2246 C   0  0  0  0  0  0  0  0  0  0  0  0
  -30.9555  -14.4999   20.7321 C   0  0  0  0  0  0  0  0  0  0  0  0
  -18.4006  -28.5770   23.6198 C   0  0  0  0  0  0  0  0  0  0  0  0
  -24.4508  -26.2657   22.9314 C   0  0  0  0  0  0  0  0  0  0  0  0
  -29.9514  -21.2056   21.8928 C   0  0  0  0  0  0  0  0  0  0  0  0
  -25.6327  -26.7189   20.2588 C   0  0  0  0  0  0  0  0  0  0  0  0
  -19.5207  -29.4091   23.0006 C   0  0  0  0  0  0  0  0  0  0  0  0
  -28.4483  -21.4008   22.0437 C   0  0  0  0  0  0  0  0  0  0  0  0
  -29.1201  -13.5478   17.8336 C   0  0  0  0  0  0  0  0  0  0  0  0
  -19.9149  -28.8449   21.6394 C   0  0  0  0  0  0  0  0  0  0  0  0
  -27.8014  -13.0131   18.3949 C   0  0  0  0  0  0  0  0  0  0  0  0
  -30.3019  -13.1916   18.7327 C   0  0  0  0  0  0  0  0  0  0  0  0
  -28.8306  -13.0575   20.7052 C   0  0  0  0  0  0  0  0  0  0  0  0
  -20.4470  -27.4125   21.7689 C   0  0  1  0  0  0  0  0  0  0  0  0
  -24.2228  -27.5631   22.1619 C   0  0  1  0  0  0  0  0  0  0  0  0
  -27.6023  -13.4398   19.8617 C   0  0  2  0  0  0  0  0  0  0  0  0
  -27.6566  -20.3188   21.3054 C   0  0  1  0  0  0  0  0  0  0  0  0
  -33.7164  -17.5814   24.4730 C   0  0  0  0  0  0  0  0  0  0  0  0
  -31.0735  -30.3811   19.8970 C   0  0  0  0  0  0  0  0  0  0  0  0
  -27.3082  -21.8308   17.7396 C   0  0  0  0  0  0  0  0  0  0  0  0
  -25.5896  -18.3413   23.5305 C   0  0  0  0  0  0  0  0  0  0  0  0
  -24.6679  -29.9949   18.2570 C   0  0  0  0  0  0  0  0  0  0  0  0
  -27.0149  -30.5839   17.6147 C   0  0  0  0  0  0  0  0  0  0  0  0
  -25.9057  -31.7729   19.5064 C   0  0  0  0  0  0  0  0  0  0  0  0
  -30.4842  -27.6142   22.4412 C   0  0  0  0  0  0  0  0  0  0  0  0
  -33.5025  -17.8673   22.9877 C   0  0  0  0  0  0  0  0  0  0  0  0
  -31.4696  -15.7646   22.8047 C   0  0  0  0  0  0  0  0  0  0  0  0
  -27.7754  -20.4347   19.7841 C   0  0  0  0  0  0  0  0  0  0  0  0
  -27.1621  -17.8701   21.6238 C   0  0  0  0  0  0  0  0  0  0  0  0
  -26.6345  -29.3710   19.8090 C   0  0  1  0  0  0  0  0  0  0  0  0
  -30.2645  -29.5560   20.8856 C   0  0  2  0  0  0  0  0  0  0  0  0
  -27.2143  -21.7575   19.2577 C   0  0  2  0  0  0  0  0  0  1  0  0
  -26.6929  -17.4307   23.0085 C   0  0  2  0  0  0  0  0  0  0  0  0
  -26.0493  -30.4044   18.8055 C   0  0  0  0  0  0  0  0  0  0  0  0
  -26.3548  -11.6999   21.0859 N   0  0  0  0  0  0  0  0  0  0  0  0
  -29.8191  -17.4404   22.2815 N   0  0  0  0  0  0  0  0  0  0  0  0
  -26.3166  -12.8771   20.4388 N   0  0  0  0  0  0  0  0  0  0  0  0
  -28.0846  -18.9887   21.7463 N   0  0  3  0  0  0  0  0  0  0  0  0
  -25.2640  -27.8194   21.1647 N   0  0  0  0  0  0  0  0  0  0  0  0
  -30.0504  -13.6247   20.1093 N   0  0  0  0  0  0  0  0  0  0  0  0
  -24.8567  -14.6186   19.7706 N   0  0  0  0  0  0  0  0  0  0  0  0
  -22.1266  -11.7420   21.9310 N   0  0  0  0  0  0  0  0  0  0  0  0
  -21.8086  -27.4216   22.2594 N   0  0  0  0  0  0  0  0  0  0  0  0
  -27.9300  -29.7459   20.3654 N   0  0  0  0  0  0  0  0  0  0  0  0
  -30.6389  -14.8657   22.0347 N   0  0  0  0  0  0  0  0  0  0  0  0
  -31.1449  -28.4877   21.4374 N   0  3  0  0  0  0  0  0  0  0  0  0
  -22.2096  -13.7291   20.7894 O   0  0  0  0  0  0  0  0  0  0  0  0
  -22.8893  -27.7384   20.2212 O   0  0  0  0  0  0  0  0  0  0  0  0
  -25.4313  -30.0757   21.7279 O   0  0  0  0  0  0  0  0  0  0  0  0
  -29.0732  -27.8639   19.6386 O   0  0  0  0  0  0  0  0  0  0  0  0
  -31.9677  -14.9280   20.1672 O   0  0  0  0  0  0  0  0  0  0  0  0
  -26.1821  -16.1021   22.9164 O   0  0  0  0  0  0  0  0  0  0  0  0
  -23.6264   -6.9293   24.3026 O   0  0  0  0  0  0  0  0  0  0  0  0
  -25.8443  -21.8701   19.6407 O   0  0  0  0  0  0  0  0  0  1  0  0
  -19.0673   -4.2638   22.7172 F   0  0  0  0  0  0  0  0  0  0  0  0
  -23.7391   -4.2931   23.4779 F   0  0  0  0  0  0  0  0  0  0  0  0
  1  2  1  0  0  0  0
  1  5  2  0  0  0  0
  2  6  2  0  0  0  0
  3  8  2  0  0  0  0
  3 16  1  0  0  0  0
  4  9  1  0  0  0  0
  4 16  2  0  0  0  0
  5 18  1  0  0  0  0
  6 20  1  0  0  0  0
  7 10  2  0  0  0  0
  7 19  1  0  0  0  0
  8 24  1  0  0  0  0
  9 24  2  0  0  0  0
 10 25  1  0  0  0  0
 11 12  2  0  0  0  0
 11 26  1  0  0  0  0
 12 27  1  0  0  0  0
 13 21  2  0  0  0  0
 13 23  1  0  0  0  0
 14 22  1  0  0  0  0
 14 25  2  0  0  0  0
 15 27  2  0  0  0  0
 15 28  1  0  0  0  0
 16 29  1  0  0  0  0
 17 29  1  0  0  0  0
 17 32  2  0  0  0  0
 17 33  1  0  0  0  0
 18 20  2  0  0  0  0
 18 38  1  0  0  0  0
 19 22  2  0  0  0  0
 19 39  1  0  0  0  0
 20 49  1  0  0  0  0
 21 31  1  0  0  0  0
 21 40  1  0  0  0  0
 22 41  1  0  0  0  0
 23 30  2  0  0  0  0
 23 61  1  0  0  0  0
 24 88  1  0  0  0  0
 25 89  1  0  0  0  0
 26 28  2  0  0  0  0
 26 88  1  0  0  0  0
 27 90  1  0  0  0  0
 28 91  1  0  0  0  0
 29 70  2  0  0  0  0
 30 62  1  0  0  0  0
 30 71  1  0  0  0  0
 31 71  2  0  0  0  0
 31 73  1  0  0  0  0
 32 72  1  0  0  0  0
 32 76  1  0  0  0  0
 33 77  1  0  0  0  0
 33 82  2  0  0  0  0
 34 50  1  0  0  0  0
 34 78  1  0  0  0  0
 34 83  2  0  0  0  0
 35 65  1  0  0  0  0
 35 74  1  0  0  0  0
 35 84  2  0  0  0  0
 36 66  1  0  0  0  0
 36 79  1  0  0  0  0
 36 85  2  0  0  0  0
 37 75  1  0  0  0  0
 37 80  1  0  0  0  0
 37 86  2  0  0  0  0
 38 42  1  0  0  0  0
 39 50  1  0  0  0  0
 40 43  1  0  0  0  0
 41 74  1  0  0  0  0
 42 45  1  0  0  0  0
 43 52  1  0  0  0  0
 44 46  1  0  0  0  0
 44 47  1  0  0  0  0
 45 49  1  0  0  0  0
 46 51  1  0  0  0  0
 47 75  1  0  0  0  0
 48 51  1  0  0  0  0
 48 75  1  0  0  0  0
 49 78  1  0  0  0  0
 50 74  1  0  0  0  0
 51 72  1  0  0  0  0
 52 63  1  0  0  0  0
 52 73  1  0  0  0  0
 53 61  1  0  0  0  0
 54 66  1  0  0  0  0
 55 67  1  0  0  0  0
 56 68  1  0  0  0  0
 57 69  1  0  0  0  0
 58 69  1  0  0  0  0
 59 69  1  0  0  0  0
 60 81  1  0  0  0  0
 62 80  1  0  0  0  0
 63 67  1  0  0  0  0
 64 68  1  0  0  0  0
 64 73  1  0  0  0  0
 65 69  1  0  0  0  0
 65 79  1  0  0  0  0
 66 81  1  0  0  0  0
 67 89  1  0  0  0  0
 68 87  1  0  0  0  0
 70 72  1  0  0  0  0
M  CHG  1  81   1
M  ISO  4  37 100  67 101  80 100  89 101
M  END
> <Batch ID>
0175

> <Smiles>
CCc1cc2c(nc1C[100NH:0][100C:0](=O)N1CCCC(n3nc(-c4ccc(Oc5ccc(F)cc5F)cc4)c(C(N)=O)c3N)C1)N(CC(C)O)C(C[101CH:1](C)[101O:1]c1ccc3c(c1)CN(C(=O)C(NC(=O)C(C)NC)C(C)(C)C)C(C(=O)NC1CCCc4ccccc41)C3)CC2

> <Shape>
0.290

> <Color>
0.123

> <Negative vol penalty>
0.000

$$$$

  -OEChem-04052322473D

 85 94  0     1  0  0  0  0  0999 V2000
  -19.7767  -25.5736   31.3818 C   0  0  0  0  0  0  0  0  0  0  0  0
  -19.5302  -26.2837   30.2111 C   0  0  0  0  0  0  0  0  0  0  0  0
  -29.4050  -17.5143   19.2304 C   0  0  0  0  0  0  0  0  0  0  0  0
  -29.2689  -17.9419   21.6044 C   0  0  0  0  0  0  0  0  0  0  0  0
  -20.8428  -24.6771   31.4406 C   0  0  0  0  0  0  0  0  0  0  0  0
  -20.3505  -26.0983   29.0988 C   0  0  0  0  0  0  0  0  0  0  0  0
  -20.1251  -26.0686   21.9389 C   0  0  0  0  0  0  0  0  0  0  0  0
  -29.7534  -16.1887   19.4891 C   0  0  0  0  0  0  0  0  0  0  0  0
  -29.6173  -16.6163   21.8631 C   0  0  0  0  0  0  0  0  0  0  0  0
  -20.7659  -26.6367   20.8387 C   0  0  0  0  0  0  0  0  0  0  0  0
  -28.1830  -13.3269   20.3705 C   0  0  0  0  0  0  0  0  0  0  0  0
  -27.5484  -12.3327   19.6260 C   0  0  0  0  0  0  0  0  0  0  0  0
  -22.5303  -25.0028   21.0304 C   0  0  0  0  0  0  0  0  0  0  0  0
  -29.6890  -11.6026   18.7763 C   0  0  0  0  0  0  0  0  0  0  0  0
  -29.1628  -18.3909   20.2880 C   0  0  0  0  0  0  0  0  0  0  0  0
  -27.5065  -20.2818   19.8534 C   0  0  0  0  0  0  0  0  0  0  0  0
  -21.6707  -24.4735   30.3253 C   0  0  0  0  0  0  0  0  0  0  0  0
  -20.6885  -24.9682   22.6008 C   0  0  0  0  0  0  0  0  0  0  0  0
  -21.4295  -25.1992   29.1432 C   0  0  0  0  0  0  0  0  0  0  0  0
  -21.8933  -24.4209   22.1371 C   0  0  0  0  0  0  0  0  0  0  0  0
  -26.2156  -29.0579   21.2784 C   0  0  0  0  0  0  0  0  0  0  0  0
  -25.0882  -29.2582   20.4897 C   0  0  0  0  0  0  0  0  0  0  0  0
  -24.8825  -28.4650   19.3664 C   0  0  0  0  0  0  0  0  0  0  0  0
  -29.8596  -15.7397   20.8054 C   0  0  0  0  0  0  0  0  0  0  0  0
  -21.9702  -26.1056   20.3861 C   0  0  0  0  0  0  0  0  0  0  0  0
  -29.5707  -13.4591   20.3179 C   0  0  0  0  0  0  0  0  0  0  0  0
  -28.3014  -11.4705   18.8289 C   0  0  0  0  0  0  0  0  0  0  0  0
  -30.3236  -12.5969   19.5208 C   0  0  0  0  0  0  0  0  0  0  0  0
  -28.8034  -19.7605   20.0214 C   0  0  0  0  0  0  0  0  0  0  0  0
  -27.1001  -28.0593   20.9038 C   0  0  0  0  0  0  0  0  0  0  0  0
  -25.8267  -27.4931   19.0772 C   0  0  0  0  0  0  0  0  0  0  0  0
  -27.7021  -21.6218   19.6241 C   0  0  0  0  0  0  0  0  0  0  0  0
  -26.2384  -19.6145   19.9005 C   0  0  0  0  0  0  0  0  0  0  0  0
  -21.7599  -24.4290   25.5445 C   0  0  0  0  0  0  0  0  0  0  0  0
  -22.0577  -21.3866   24.4596 C   0  0  0  0  0  0  0  0  0  0  0  0
  -22.4235  -19.2827   21.7974 C   0  0  0  0  0  0  0  0  0  0  0  0
  -30.2236  -26.4500   20.8392 C   0  0  0  0  0  0  0  0  0  0  0  0
  -22.8396  -23.5288   30.4518 C   0  0  0  0  0  0  0  0  0  0  0  0
  -19.9712  -24.3503   23.7696 C   0  0  0  0  0  0  0  0  0  0  0  0
  -22.5294  -23.2276   22.8002 C   0  0  0  0  0  0  0  0  0  0  0  0
  -23.4341  -23.1123   29.1089 C   0  0  0  0  0  0  0  0  0  0  0  0
  -31.9385  -24.2135   18.6635 C   0  0  0  0  0  0  0  0  0  0  0  0
  -26.5039  -31.3919   22.3475 C   0  0  0  0  0  0  0  0  0  0  0  0
  -27.7694  -30.6368   22.6092 C   0  0  0  0  0  0  0  0  0  0  0  0
  -23.6239  -24.3290   28.2087 C   0  0  0  0  0  0  0  0  0  0  0  0
  -31.1728  -22.8978   18.8138 C   0  0  0  0  0  0  0  0  0  0  0  0
  -32.0201  -24.9733   19.9856 C   0  0  0  0  0  0  0  0  0  0  0  0
  -29.9563  -23.8960   20.7943 C   0  0  0  0  0  0  0  0  0  0  0  0
  -26.4655  -29.8937   22.4898 C   0  0  0  0  0  0  0  0  0  0  0  0
  -22.2818  -25.0072   27.9076 C   0  0  1  0  0  0  0  0  0  0  0  0
  -20.8955  -23.5518   24.6837 C   0  0  1  0  0  0  0  0  0  0  0  0
  -29.7994  -23.1207   19.4750 C   0  0  2  0  0  0  0  0  0  0  0  0
  -24.1002  -30.3234   20.8455 C   0  0  0  0  0  0  0  0  0  0  0  0
  -25.6618  -26.6120   17.8818 C   0  0  0  0  0  0  0  0  0  0  0  0
  -22.6761  -16.8518   21.2279 C   0  0  0  0  0  0  0  0  0  0  0  0
  -24.9647  -21.4749   25.3825 C   0  0  0  0  0  0  0  0  0  0  0  0
  -25.4024  -19.4562   23.9677 C   0  0  0  0  0  0  0  0  0  0  0  0
  -23.7833  -19.3232   25.8607 C   0  0  0  0  0  0  0  0  0  0  0  0
  -19.9315  -19.2785   20.2009 C   0  0  0  0  0  0  0  0  0  0  0  0
  -23.6700  -28.6596   18.4888 C   0  0  0  0  0  0  0  0  0  0  0  0
  -28.3298  -27.7967   21.7104 C   0  0  0  0  0  0  0  0  0  0  0  0
  -22.4095  -28.0569   19.0995 C   0  0  0  0  0  0  0  0  0  1  0  0
  -23.1466  -20.5983   23.7725 C   0  0  1  0  0  0  0  0  0  0  0  0
  -21.7005  -18.0028   21.4183 C   0  0  2  0  0  0  0  0  0  0  0  0
  -24.3135  -20.2368   24.7343 C   0  0  0  0  0  0  0  0  0  0  0  0
  -29.7527  -20.6933   19.9083 N   0  0  0  0  0  0  0  0  0  0  0  0
  -26.9341  -27.2689   19.8197 N   0  0  0  0  0  0  0  0  0  0  0  0
  -29.0517  -21.8142   19.6667 N   0  0  0  0  0  0  0  0  0  0  0  0
  -21.7929  -22.6628   23.9431 N   0  0  0  0  0  0  0  0  0  0  0  0
  -30.6842  -25.1528   20.5594 N   0  0  0  0  0  0  0  0  0  0  0  0
  -26.8497  -22.6426   19.3921 N   0  0  0  0  0  0  0  0  0  0  0  0
  -26.2181  -18.2349   20.1470 N   0  0  0  0  0  0  0  0  0  0  0  0
  -21.5546  -24.2639   26.9010 N   0  0  0  0  0  0  0  0  0  0  0  0
  -22.4934  -19.4438   23.1651 N   0  0  0  0  0  0  0  0  0  0  0  0
  -28.9444  -26.5314   21.3757 N   0  0  0  0  0  0  0  0  0  0  0  0
  -20.9436  -18.1922   20.1486 N   0  3  0  0  0  0  0  0  0  0  0  0
  -25.1563  -20.2205   19.7127 O   0  0  0  0  0  0  0  0  0  0  0  0
  -22.5554  -25.1976   25.0170 O   0  0  0  0  0  0  0  0  0  0  0  0
  -21.4592  -20.8854   25.4147 O   0  0  0  0  0  0  0  0  0  0  0  0
  -22.8836  -20.0598   20.9638 O   0  0  0  0  0  0  0  0  0  0  0  0
  -30.9001  -27.4610   20.6218 O   0  0  0  0  0  0  0  0  0  0  0  0
  -30.1993  -14.4461   21.0583 O   0  0  0  0  0  0  0  0  0  0  0  0
  -22.5981  -26.6586   19.3129 O   0  0  0  0  0  0  0  0  0  1  0  0
  -27.6919  -10.5148   18.1152 F   0  0  0  0  0  0  0  0  0  0  0  0
  -31.6571  -12.7182   19.4671 F   0  0  0  0  0  0  0  0  0  0  0  0
  1  2  1  0  0  0  0
  1  5  2  0  0  0  0
  2  6  2  0  0  0  0
  3  8  2  0  0  0  0
  3 15  1  0  0  0  0
  4  9  1  0  0  0  0
  4 15  2  0  0  0  0
  5 17  1  0  0  0  0
  6 19  1  0  0  0  0
  7 10  2  0  0  0  0
  7 18  1  0  0  0  0
  8 24  1  0  0  0  0
  9 24  2  0  0  0  0
 10 25  1  0  0  0  0
 11 12  2  0  0  0  0
 11 26  1  0  0  0  0
 12 27  1  0  0  0  0
 13 20  1  0  0  0  0
 13 25  2  0  0  0  0
 14 27  2  0  0  0  0
 14 28  1  0  0  0  0
 15 29  1  0  0  0  0
 16 29  1  0  0  0  0
 16 32  2  0  0  0  0
 16 33  1  0  0  0  0
 17 19  2  0  0  0  0
 17 38  1  0  0  0  0
 18 20  2  0  0  0  0
 18 39  1  0  0  0  0
 19 50  1  0  0  0  0
 20 40  1  0  0  0  0
 21 22  1  0  0  0  0
 21 30  2  0  0  0  0
 21 49  1  0  0  0  0
 22 23  2  0  0  0  0
 22 53  1  0  0  0  0
 23 31  1  0  0  0  0
 23 60  1  0  0  0  0
 24 82  1  0  0  0  0
 25 83  1  0  0  0  0
 26 28  2  0  0  0  0
 26 82  1  0  0  0  0
 27 84  1  0  0  0  0
 28 85  1  0  0  0  0
 29 66  2  0  0  0  0
 30 61  1  0  0  0  0
 30 67  1  0  0  0  0
 31 54  1  0  0  0  0
 31 67  2  0  0  0  0
 32 68  1  0  0  0  0
 32 71  1  0  0  0  0
 33 72  1  0  0  0  0
 33 77  2  0  0  0  0
 34 51  1  0  0  0  0
 34 73  1  0  0  0  0
 34 78  2  0  0  0  0
 35 63  1  0  0  0  0
 35 69  1  0  0  0  0
 35 79  2  0  0  0  0
 36 64  1  0  0  0  0
 36 74  1  0  0  0  0
 36 80  2  0  0  0  0
 37 70  1  0  0  0  0
 37 75  1  0  0  0  0
 37 81  2  0  0  0  0
 38 41  1  0  0  0  0
 39 51  1  0  0  0  0
 40 69  1  0  0  0  0
 41 45  1  0  0  0  0
 42 46  1  0  0  0  0
 42 47  1  0  0  0  0
 43 44  1  0  0  0  0
 43 49  1  0  0  0  0
 44 49  1  0  0  0  0
 45 50  1  0  0  0  0
 46 52  1  0  0  0  0
 47 70  1  0  0  0  0
 48 52  1  0  0  0  0
 48 70  1  0  0  0  0
 50 73  1  0  0  0  0
 51 69  1  0  0  0  0
 52 68  1  0  0  0  0
 55 64  1  0  0  0  0
 56 65  1  0  0  0  0
 57 65  1  0  0  0  0
 58 65  1  0  0  0  0
 59 76  1  0  0  0  0
 60 62  1  0  0  0  0
 61 75  1  0  0  0  0
 62 83  1  0  0  0  0
 63 65  1  0  0  0  0
 63 74  1  0  0  0  0
 64 76  1  0  0  0  0
 66 68  1  0  0  0  0
M  CHG  1  76   1
M  ISO  4  37 100  62 101  75 100  83 101
M  END
> <Batch ID>
0175

> <Smiles>
CNC(C)C(=O)NC(C(=O)N1Cc2cc([101O:1][101CH2:1]Cc3c(C)nc(C[100NH:0][100C:0](=O)N4CCCC(n5nc(-c6ccc(Oc7ccc(F)cc7F)cc6)c(C(N)=O)c5N)C4)c(C4CC4)c3C)ccc2CC1C(=O)NC1CCCc2ccccc21)C(C)(C)C

> <Shape>
0.228

> <Color>
0.054

> <Negative vol penalty>
0.000

$$$$

  -OEChem-04052322473D

 85 94  0     1  0  0  0  0  0999 V2000
  -12.6556  -23.1095   18.4219 C   0  0  0  0  0  0  0  0  0  0  0  0
  -14.0224  -22.9089   18.2575 C   0  0  0  0  0  0  0  0  0  0  0  0
  -23.0802  -10.0241   19.9082 C   0  0  0  0  0  0  0  0  0  0  0  0
  -23.8700   -9.7180   22.1709 C   0  0  0  0  0  0  0  0  0  0  0  0
  -12.1558  -24.4015   18.5793 C   0  0  0  0  0  0  0  0  0  0  0  0
  -14.8901  -24.0005   18.2492 C   0  0  0  0  0  0  0  0  0  0  0  0
  -19.0305  -23.2121   21.0565 C   0  0  0  0  0  0  0  0  0  0  0  0
  -22.3123   -8.8651   20.0194 C   0  0  0  0  0  0  0  0  0  0  0  0
  -23.1020   -8.5589   22.2821 C   0  0  0  0  0  0  0  0  0  0  0  0
  -20.0343  -22.4192   20.5020 C   0  0  0  0  0  0  0  0  0  0  0  0
  -23.3059   -5.3311   21.2967 C   0  0  0  0  0  0  0  0  0  0  0  0
  -23.9060   -4.2083   21.8665 C   0  0  0  0  0  0  0  0  0  0  0  0
  -21.2666  -24.4058   19.9070 C   0  0  0  0  0  0  0  0  0  0  0  0
  -22.2317   -4.1975   23.6083 C   0  0  0  0  0  0  0  0  0  0  0  0
  -24.0667  -19.5326   19.6612 C   0  0  0  0  0  0  0  0  0  0  0  0
  -23.8591  -10.4506   20.9839 C   0  0  0  0  0  0  0  0  0  0  0  0
  -24.2598  -12.9619   21.1849 C   0  0  0  0  0  0  0  0  0  0  0  0
  -13.0188  -25.5087   18.5827 C   0  0  0  0  0  0  0  0  0  0  0  0
  -19.1322  -24.6105   21.0307 C   0  0  0  0  0  0  0  0  0  0  0  0
  -14.4012  -25.3086   18.4055 C   0  0  0  0  0  0  0  0  0  0  0  0
  -20.2639  -25.2142   20.4642 C   0  0  0  0  0  0  0  0  0  0  0  0
  -23.1336  -20.1471   18.8418 C   0  0  0  0  0  0  0  0  0  0  0  0
  -23.3428  -20.1003   17.4680 C   0  0  0  0  0  0  0  0  0  0  0  0
  -24.4628  -19.4495   16.9627 C   0  0  0  0  0  0  0  0  0  0  0  0
  -22.3231   -8.1324   21.2063 C   0  0  0  0  0  0  0  0  0  0  0  0
  -21.1511  -23.0161   19.9245 C   0  0  0  0  0  0  0  0  0  0  0  0
  -22.1687   -5.8872   21.8826 C   0  0  0  0  0  0  0  0  0  0  0  0
  -23.3689   -3.6415   23.0223 C   0  0  0  0  0  0  0  0  0  0  0  0
  -21.6316   -5.3204   23.0384 C   0  0  0  0  0  0  0  0  0  0  0  0
  -24.6531  -11.6475   20.8695 C   0  0  0  0  0  0  0  0  0  0  0  0
  -25.3366  -18.8664   17.8663 C   0  0  0  0  0  0  0  0  0  0  0  0
  -25.3647  -13.7277   20.9037 C   0  0  0  0  0  0  0  0  0  0  0  0
  -23.0076  -13.4472   21.6871 C   0  0  0  0  0  0  0  0  0  0  0  0
  -17.4264  -26.9601   19.7372 C   0  0  0  0  0  0  0  0  0  0  0  0
  -19.4851  -28.8415   21.3940 C   0  0  0  0  0  0  0  0  0  0  0  0
  -22.5393  -29.1893   22.8764 C   0  0  0  0  0  0  0  0  0  0  0  0
  -29.6315  -15.1381   17.7860 C   0  0  0  0  0  0  0  0  0  0  0  0
  -12.4269  -26.8901   18.7088 C   0  0  0  0  0  0  0  0  0  0  0  0
  -18.0535  -25.4511   21.6569 C   0  0  0  0  0  0  0  0  0  0  0  0
  -20.4306  -26.7107   20.4292 C   0  0  0  0  0  0  0  0  0  0  0  0
  -13.4536  -27.9626   19.0638 C   0  0  0  0  0  0  0  0  0  0  0  0
  -30.1236  -12.4050   19.8452 C   0  0  0  0  0  0  0  0  0  0  0  0
  -14.6968  -27.8211   18.1912 C   0  0  0  0  0  0  0  0  0  0  0  0
  -28.7157  -12.0597   20.3304 C   0  0  0  0  0  0  0  0  0  0  0  0
  -27.7481  -18.2707   18.3646 C   0  0  0  0  0  0  0  0  0  0  0  0
  -26.2934  -16.6638   17.0598 C   0  0  0  0  0  0  0  0  0  0  0  0
  -30.1158  -12.7794   18.3673 C   0  0  0  0  0  0  0  0  0  0  0  0
  -28.9817  -17.5177   17.8721 C   0  0  0  0  0  0  0  0  0  0  0  0
  -27.5589  -15.9486   16.5956 C   0  0  0  0  0  0  0  0  0  0  0  0
  -27.7777  -13.5707   18.5135 C   0  0  0  0  0  0  0  0  0  0  0  0
  -15.3770  -26.4652   18.4159 C   0  0  1  0  0  0  0  0  0  0  0  0
  -26.5767  -18.1431   17.3755 C   0  0  0  0  0  0  0  0  0  0  0  0
  -18.0176  -26.8771   21.1161 C   0  0  1  0  0  0  0  0  0  0  0  0
  -27.7269  -13.1939   20.0077 C   0  0  1  0  0  0  0  0  0  0  0  0
  -22.3657  -20.7479   16.5397 C   0  0  0  0  0  0  0  0  0  0  0  0
  -24.7143  -19.3805   15.4938 C   0  0  0  0  0  0  0  0  0  0  0  0
  -23.9491  -30.8547   24.1159 C   0  0  0  0  0  0  0  0  0  0  0  0
  -20.0750  -30.2887   18.7734 C   0  0  0  0  0  0  0  0  0  0  0  0
  -22.1195  -31.2549   19.8481 C   0  0  0  0  0  0  0  0  0  0  0  0
  -19.8613  -31.7847   20.7661 C   0  0  0  0  0  0  0  0  0  0  0  0
  -22.6643  -27.4682   25.2808 C   0  0  0  0  0  0  0  0  0  0  0  0
  -21.9520  -20.8300   19.4390 C   0  0  0  0  0  0  0  0  0  1  0  0
  -20.8258  -29.4723   21.1049 C   0  0  1  0  0  0  0  0  0  0  0  0
  -22.9424  -29.7215   24.2398 C   0  0  2  0  0  0  0  0  0  0  0  0
  -20.7166  -30.6720   20.1219 C   0  0  0  0  0  0  0  0  0  0  0  0
  -25.1667  -18.8911   19.2073 N   0  0  0  0  0  0  0  0  0  0  0  0
  -25.9097  -11.5786   20.4221 N   0  0  0  0  0  0  0  0  0  0  0  0
  -26.3156  -12.8594   20.4542 N   0  0  0  0  0  0  0  0  0  0  0  0
  -19.3459  -27.4897   21.0488 N   0  0  0  0  0  0  0  0  0  0  0  0
  -29.1602  -13.8545   18.1011 N   0  0  0  0  0  0  0  0  0  0  0  0
  -28.6637  -16.1277   17.5474 N   0  0  0  0  0  0  0  0  0  0  0  0
  -25.6060  -15.0525   20.9995 N   0  0  0  0  0  0  0  0  0  0  0  0
  -21.9787  -12.5246   21.9206 N   0  0  0  0  0  0  0  0  0  0  0  0
  -16.1345  -26.4779   19.6490 N   0  0  0  0  0  0  0  0  0  0  0  0
  -21.4049  -29.8119   22.4002 N   0  0  0  0  0  0  0  0  0  0  0  0
  -23.5539  -28.6372   25.0590 N   0  3  0  0  0  0  0  0  0  0  0  0
  -22.8017  -14.6650   21.9064 O   0  0  0  0  0  0  0  0  0  0  0  0
  -18.0926  -27.4285   18.8214 O   0  0  0  0  0  0  0  0  0  0  0  0
  -18.5964  -29.5211   21.9137 O   0  0  0  0  0  0  0  0  0  0  0  0
  -23.1698  -28.3119   22.2908 O   0  0  0  0  0  0  0  0  0  0  0  0
  -30.8417  -15.3887   17.7265 O   0  0  0  0  0  0  0  0  0  0  0  0
  -21.5737   -7.0015   21.3152 O   0  0  0  0  0  0  0  0  0  0  0  0
  -22.1386  -22.2393   19.3784 O   0  0  0  0  0  0  0  0  0  1  0  0
  -23.9444   -2.5623   23.5686 F   0  0  0  0  0  0  0  0  0  0  0  0
  -20.5386   -5.8494   23.6052 F   0  0  0  0  0  0  0  0  0  0  0  0
  1  2  1  0  0  0  0
  1  5  2  0  0  0  0
  2  6  2  0  0  0  0
  3  8  2  0  0  0  0
  3 16  1  0  0  0  0
  4  9  1  0  0  0  0
  4 16  2  0  0  0  0
  5 18  1  0  0  0  0
  6 20  1  0  0  0  0
  7 10  2  0  0  0  0
  7 19  1  0  0  0  0
  8 25  1  0  0  0  0
  9 25  2  0  0  0  0
 10 26  1  0  0  0  0
 11 12  2  0  0  0  0
 11 27  1  0  0  0  0
 12 28  1  0  0  0  0
 13 21  1  0  0  0  0
 13 26  2  0  0  0  0
 14 28  2  0  0  0  0
 14 29  1  0  0  0  0
 15 22  1  0  0  0  0
 15 66  2  0  0  0  0
 16 30  1  0  0  0  0
 17 30  1  0  0  0  0
 17 32  2  0  0  0  0
 17 33  1  0  0  0  0
 18 20  2  0  0  0  0
 18 38  1  0  0  0  0
 19 21  2  0  0  0  0
 19 39  1  0  0  0  0
 20 51  1  0  0  0  0
 21 40  1  0  0  0  0
 22 23  2  0  0  0  0
 22 62  1  0  0  0  0
 23 24  1  0  0  0  0
 23 55  1  0  0  0  0
 24 31  2  0  0  0  0
 24 56  1  0  0  0  0
 25 82  1  0  0  0  0
 26 83  1  0  0  0  0
 27 29  2  0  0  0  0
 27 82  1  0  0  0  0
 28 84  1  0  0  0  0
 29 85  1  0  0  0  0
 30 67  2  0  0  0  0
 31 52  1  0  0  0  0
 31 66  1  0  0  0  0
 32 68  1  0  0  0  0
 32 72  1  0  0  0  0
 33 73  1  0  0  0  0
 33 77  2  0  0  0  0
 34 53  1  0  0  0  0
 34 74  1  0  0  0  0
 34 78  2  0  0  0  0
 35 63  1  0  0  0  0
 35 69  1  0  0  0  0
 35 79  2  0  0  0  0
 36 64  1  0  0  0  0
 36 75  1  0  0  0  0
 36 80  2  0  0  0  0
 37 70  1  0  0  0  0
 37 71  1  0  0  0  0
 37 81  2  0  0  0  0
 38 41  1  0  0  0  0
 39 53  1  0  0  0  0
 40 69  1  0  0  0  0
 41 43  1  0  0  0  0
 42 44  1  0  0  0  0
 42 47  1  0  0  0  0
 43 51  1  0  0  0  0
 44 54  1  0  0  0  0
 45 48  1  0  0  0  0
 45 52  1  0  0  0  0
 46 49  1  0  0  0  0
 46 52  1  0  0  0  0
 47 70  1  0  0  0  0
 48 71  1  0  0  0  0
 49 71  1  0  0  0  0
 50 54  1  0  0  0  0
 50 70  1  0  0  0  0
 51 74  1  0  0  0  0
 53 69  1  0  0  0  0
 54 68  1  0  0  0  0
 57 64  1  0  0  0  0
 58 65  1  0  0  0  0
 59 65  1  0  0  0  0
 60 65  1  0  0  0  0
 61 76  1  0  0  0  0
 62 83  1  0  0  0  0
 63 65  1  0  0  0  0
 63 75  1  0  0  0  0
 64 76  1  0  0  0  0
 67 68  1  0  0  0  0
M  CHG  1  76   1
M  ISO  4  37 100  62 101  71 100  83 101
M  END
> <Batch ID>
0175

> <Smiles>
CNC(C)C(=O)NC(C(=O)N1Cc2cc([101O:1][101CH2:1]c3cnc(C4CC[100N:0]([100C:0](=O)N5CCCC(n6nc(-c7ccc(Oc8ccc(F)cc8F)cc7)c(C(N)=O)c6N)C5)CC4)c(C)c3C)ccc2CC1C(=O)NC1CCCc2ccccc21)C(C)(C)C

> <Shape>
0.209

> <Color>
0.177

> <Negative vol penalty>
0.000

$$$$

  -OEChem-04052322473D

 90 99  0     1  0  0  0  0  0999 V2000
  -22.8587  -31.3087   20.8116 C   0  0  0  0  0  0  0  0  0  0  0  0
  -23.3052  -29.9920   20.7621 C   0  0  0  0  0  0  0  0  0  0  0  0
  -23.0725   -9.8688   19.9378 C   0  0  0  0  0  0  0  0  0  0  0  0
  -23.8406   -9.8656   22.2285 C   0  0  0  0  0  0  0  0  0  0  0  0
  -21.6557  -31.6122   21.4477 C   0  0  0  0  0  0  0  0  0  0  0  0
  -22.5494  -28.9781   21.3497 C   0  0  0  0  0  0  0  0  0  0  0  0
  -22.1525  -24.8873   18.3912 C   0  0  0  0  0  0  0  0  0  0  0  0
  -22.3309   -8.7136   20.1848 C   0  0  0  0  0  0  0  0  0  0  0  0
  -23.0989   -8.7103   22.4755 C   0  0  0  0  0  0  0  0  0  0  0  0
  -23.2504  -24.0294   18.3402 C   0  0  0  0  0  0  0  0  0  0  0  0
  -22.9081   -5.3944   20.4576 C   0  0  0  0  0  0  0  0  0  0  0  0
  -22.9728   -4.3695   19.5137 C   0  0  0  0  0  0  0  0  0  0  0  0
  -22.1591  -22.5498   19.9020 C   0  0  0  0  0  0  0  0  0  0  0  0
  -28.3714  -19.3845   18.2884 C   0  0  0  0  0  0  0  0  0  0  0  0
  -20.5868   -4.5342   19.1714 C   0  0  0  0  0  0  0  0  0  0  0  0
  -23.8274  -10.4448   20.9596 C   0  0  0  0  0  0  0  0  0  0  0  0
  -24.1659  -12.9709   20.8507 C   0  0  0  0  0  0  0  0  0  0  0  0
  -20.8801  -30.6002   22.0350 C   0  0  0  0  0  0  0  0  0  0  0  0
  -21.0525  -24.5878   19.2077 C   0  0  0  0  0  0  0  0  0  0  0  0
  -21.3356  -29.2686   21.9955 C   0  0  0  0  0  0  0  0  0  0  0  0
  -21.0474  -23.4042   19.9596 C   0  0  0  0  0  0  0  0  0  0  0  0
  -28.2596  -20.2393   19.3793 C   0  0  0  0  0  0  0  0  0  0  0  0
  -27.2940  -21.2397   19.3754 C   0  0  0  0  0  0  0  0  0  0  0  0
  -22.3441   -8.1344   21.4537 C   0  0  0  0  0  0  0  0  0  0  0  0
  -23.2550  -22.8620   19.0979 C   0  0  0  0  0  0  0  0  0  0  0  0
  -21.6828   -5.9892   20.7584 C   0  0  0  0  0  0  0  0  0  0  0  0
  -21.8122   -3.9394   18.8706 C   0  0  0  0  0  0  0  0  0  0  0  0
  -20.5222   -5.5591   20.1153 C   0  0  0  0  0  0  0  0  0  0  0  0
  -24.5942  -11.6378   20.7049 C   0  0  0  0  0  0  0  0  0  0  0  0
  -27.5006  -19.5705   17.2268 C   0  0  0  0  0  0  0  0  0  0  0  0
  -26.4715  -21.3428   18.2651 C   0  0  0  0  0  0  0  0  0  0  0  0
  -25.2558  -13.7234   20.4871 C   0  0  0  0  0  0  0  0  0  0  0  0
  -22.8963  -13.4832   21.2766 C   0  0  0  0  0  0  0  0  0  0  0  0
  -19.6597  -25.9890   21.6978 C   0  0  0  0  0  0  0  0  0  0  0  0
  -17.4773  -23.6198   21.3146 C   0  0  0  0  0  0  0  0  0  0  0  0
  -16.7716  -20.4921   20.1458 C   0  0  0  0  0  0  0  0  0  0  0  0
  -30.7390  -14.7480   20.6608 C   0  0  0  0  0  0  0  0  0  0  0  0
  -19.6100  -30.9832   22.7526 C   0  0  0  0  0  0  0  0  0  0  0  0
  -19.8646  -25.5101   19.2311 C   0  0  0  0  0  0  0  0  0  0  0  0
  -19.8825  -23.0267   20.8364 C   0  0  0  0  0  0  0  0  0  0  0  0
  -18.6835  -29.8007   23.0241 C   0  0  0  0  0  0  0  0  0  0  0  0
  -29.5957  -12.3738   18.2666 C   0  0  0  0  0  0  0  0  0  0  0  0
  -19.4711  -28.6253   23.5941 C   0  0  0  0  0  0  0  0  0  0  0  0
  -28.1601  -12.0763   18.7032 C   0  0  0  0  0  0  0  0  0  0  0  0
  -29.1429  -18.6717   21.2061 C   0  0  0  0  0  0  0  0  0  0  0  0
  -30.5168  -12.5899   19.4652 C   0  0  0  0  0  0  0  0  0  0  0  0
  -28.6192  -13.3120   20.8621 C   0  0  0  0  0  0  0  0  0  0  0  0
  -20.5316  -28.1377   22.5996 C   0  0  1  0  0  0  0  0  0  0  0  0
  -29.1980  -20.0621   20.5508 C   0  0  1  0  0  0  0  0  0  0  0  0
  -19.0184  -25.3627   20.4918 C   0  0  1  0  0  0  0  0  0  0  0  0
  -30.5057  -18.0309   20.9410 C   0  0  1  0  0  0  0  0  0  0  0  0
  -27.6411  -13.1419   19.6872 C   0  0  2  0  0  0  0  0  0  0  0  0
  -31.4905  -19.2180   20.9639 C   0  0  0  0  0  0  0  0  0  0  0  0
  -27.5908  -18.6709   16.0396 C   0  0  0  0  0  0  0  0  0  0  0  0
  -32.7716  -18.9044   20.1844 C   0  0  0  0  0  0  0  0  0  0  0  0
  -31.8286  -19.7288   22.3718 C   0  0  0  0  0  0  0  0  0  0  0  0
  -26.4339  -21.5193   21.7139 C   0  0  0  0  0  0  0  0  0  0  0  0
  -14.9126  -18.8117   20.0133 C   0  0  0  0  0  0  0  0  0  0  0  0
  -17.8936  -22.9310   24.2578 C   0  0  0  0  0  0  0  0  0  0  0  0
  -16.7818  -20.7294   23.8278 C   0  0  0  0  0  0  0  0  0  0  0  0
  -15.5134  -22.8513   23.4942 C   0  0  0  0  0  0  0  0  0  0  0  0
  -31.1238  -21.6991   20.2695 C   0  0  0  0  0  0  0  0  0  0  0  0
  -16.8000  -20.5213   17.1865 C   0  0  0  0  0  0  0  0  0  0  0  0
  -27.1491  -22.1698   20.5327 C   0  0  0  0  0  0  0  0  0  0  0  0
  -25.4099  -22.4013   18.2032 C   0  0  0  0  0  0  0  0  0  1  0  0
  -30.8068  -16.8926   21.9079 C   0  0  0  0  0  0  0  0  0  0  0  0
  -17.3204  -22.2150   21.8443 C   0  0  1  0  0  0  0  0  0  0  0  0
  -15.6163  -19.9645   19.3143 C   0  0  2  0  0  0  0  0  0  0  0  0
  -16.9002  -22.1895   23.3411 C   0  0  0  0  0  0  0  0  0  0  0  0
  -25.8577  -11.5455   20.2817 N   0  0  0  0  0  0  0  0  0  0  0  0
  -26.5501  -20.5310   17.1869 N   0  0  0  0  0  0  0  0  0  0  0  0
  -26.2326  -12.8301   20.1582 N   0  0  0  0  0  0  0  0  0  0  0  0
  -18.7473  -23.9641   20.8303 N   0  0  0  0  0  0  0  0  0  0  0  0
  -29.9683  -13.6134   20.3581 N   0  0  0  0  0  0  0  0  0  0  0  0
  -25.4644  -15.0555   20.4198 N   0  0  0  0  0  0  0  0  0  0  0  0
  -21.8867  -12.5712   21.6131 N   0  0  0  0  0  0  0  0  0  0  0  0
  -19.9198  -27.3390   21.5594 N   0  0  0  0  0  0  0  0  0  0  0  0
  -16.3841  -21.5435   20.9494 N   0  0  0  0  0  0  0  0  0  0  0  0
  -30.1418  -15.6721   21.5095 N   0  0  0  0  0  0  0  0  0  0  0  0
  -30.6780  -20.2683   20.1878 N   0  3  2  0  0  0  0  0  0  0  0  0
  -16.1071  -19.4830   17.9921 N   0  3  0  0  0  0  0  0  0  0  0  0
  -22.6588  -14.7132   21.3408 O   0  0  0  0  0  0  0  0  0  0  0  0
  -19.8994  -25.2987   22.6815 O   0  0  0  0  0  0  0  0  0  0  0  0
  -16.5069  -24.3814   21.3233 O   0  0  0  0  0  0  0  0  0  0  0  0
  -17.9036  -20.0167   20.0908 O   0  0  0  0  0  0  0  0  0  0  0  0
  -31.8732  -14.9270   20.2040 O   0  0  0  0  0  0  0  0  0  0  0  0
  -21.6203   -7.0072   21.6952 O   0  0  0  0  0  0  0  0  0  0  0  0
  -24.3256  -22.0232   19.0505 O   0  0  0  0  0  0  0  0  0  1  0  0
  -21.8747   -2.9561   17.9631 F   0  0  0  0  0  0  0  0  0  0  0  0
  -19.3423   -6.1275   20.3993 F   0  0  0  0  0  0  0  0  0  0  0  0
  1  2  1  0  0  0  0
  1  5  2  0  0  0  0
  2  6  2  0  0  0  0
  3  8  2  0  0  0  0
  3 16  1  0  0  0  0
  4  9  1  0  0  0  0
  4 16  2  0  0  0  0
  5 18  1  0  0  0  0
  6 20  1  0  0  0  0
  7 10  2  0  0  0  0
  7 19  1  0  0  0  0
  8 24  1  0  0  0  0
  9 24  2  0  0  0  0
 10 25  1  0  0  0  0
 11 12  2  0  0  0  0
 11 26  1  0  0  0  0
 12 27  1  0  0  0  0
 13 21  1  0  0  0  0
 13 25  2  0  0  0  0
 14 22  2  0  0  0  0
 14 30  1  0  0  0  0
 15 27  2  0  0  0  0
 15 28  1  0  0  0  0
 16 29  1  0  0  0  0
 17 29  1  0  0  0  0
 17 32  2  0  0  0  0
 17 33  1  0  0  0  0
 18 20  2  0  0  0  0
 18 38  1  0  0  0  0
 19 21  2  0  0  0  0
 19 39  1  0  0  0  0
 20 48  1  0  0  0  0
 21 40  1  0  0  0  0
 22 23  1  0  0  0  0
 22 49  1  0  0  0  0
 23 31  2  0  0  0  0
 23 64  1  0  0  0  0
 24 87  1  0  0  0  0
 25 88  1  0  0  0  0
 26 28  2  0  0  0  0
 26 87  1  0  0  0  0
 27 89  1  0  0  0  0
 28 90  1  0  0  0  0
 29 70  2  0  0  0  0
 30 54  1  0  0  0  0
 30 71  2  0  0  0  0
 31 65  1  0  0  0  0
 31 71  1  0  0  0  0
 32 72  1  0  0  0  0
 32 75  1  0  0  0  0
 33 76  1  0  0  0  0
 33 82  2  0  0  0  0
 34 50  1  0  0  0  0
 34 77  1  0  0  0  0
 34 83  2  0  0  0  0
 35 67  1  0  0  0  0
 35 73  1  0  0  0  0
 35 84  2  0  0  0  0
 36 68  1  0  0  0  0
 36 78  1  0  0  0  0
 36 85  2  0  0  0  0
 37 74  1  0  0  0  0
 37 79  1  0  0  0  0
 37 86  2  0  0  0  0
 38 41  1  0  0  0  0
 39 50  1  0  0  0  0
 40 73  1  0  0  0  0
 41 43  1  0  0  0  0
 42 44  1  0  0  0  0
 42 46  1  0  0  0  0
 43 48  1  0  0  0  0
 44 52  1  0  0  0  0
 45 49  1  0  0  0  0
 45 51  1  0  0  0  0
 46 74  1  0  0  0  0
 47 52  1  0  0  0  0
 47 74  1  0  0  0  0
 48 77  1  0  0  0  0
 49 80  1  0  0  0  0
 50 73  1  0  0  0  0
 51 53  1  0  0  0  0
 51 66  1  0  0  0  0
 52 72  1  0  0  0  0
 53 55  1  0  0  0  0
 53 56  1  0  0  0  0
 53 80  1  0  0  0  0
 57 64  1  0  0  0  0
 58 68  1  0  0  0  0
 59 69  1  0  0  0  0
 60 69  1  0  0  0  0
 61 69  1  0  0  0  0
 62 80  1  0  0  0  0
 63 81  1  0  0  0  0
 65 88  1  0  0  0  0
 66 79  1  0  0  0  0
 67 69  1  0  0  0  0
 67 78  1  0  0  0  0
 68 81  1  0  0  0  0
 70 72  1  0  0  0  0
M  CHG  2  80   1  81   1
M  ISO  4  37 100  65 101  79 100  88 101
M  END
> <Batch ID>
0175

> <Smiles>
CCc1c(C2CC(C[100NH:0][100C:0](=O)N3CCCC(n4nc(-c5ccc(Oc6ccc(F)cc6F)cc5)c(C(N)=O)c4N)C3)C(C)(C)N2C)cc(C)nc1[101CH2:1][101O:1]c1ccc2c(c1)CN(C(=O)C(NC(=O)C(C)NC)C(C)(C)C)C(C(=O)NC1CCCc3ccccc31)C2

> <Shape>
0.266

> <Color>
0.177

> <Negative vol penalty>
0.000

$$$$

  -OEChem-04052322473D

 89 99  0     1  0  0  0  0  0999 V2000
  -23.0590  -23.5560   17.9715 C   0  0  0  0  0  0  0  0  0  0  0  0
  -22.6984  -22.2210   18.1150 C   0  0  0  0  0  0  0  0  0  0  0  0
  -26.9776  -25.6192   20.4071 C   0  0  0  0  0  0  0  0  0  0  0  0
  -27.4956  -25.8475   18.0583 C   0  0  0  0  0  0  0  0  0  0  0  0
  -22.9507  -24.4237   19.0562 C   0  0  0  0  0  0  0  0  0  0  0  0
  -22.2181  -21.7559   19.3397 C   0  0  0  0  0  0  0  0  0  0  0  0
  -20.5151  -17.1421   19.4661 C   0  0  0  0  0  0  0  0  0  0  0  0
  -26.0827  -26.6850   20.3133 C   0  0  0  0  0  0  0  0  0  0  0  0
  -26.6006  -26.9133   17.9645 C   0  0  0  0  0  0  0  0  0  0  0  0
  -21.3504  -16.0281   19.3938 C   0  0  0  0  0  0  0  0  0  0  0  0
  -26.2312  -30.0603   20.2147 C   0  0  0  0  0  0  0  0  0  0  0  0
  -26.2727  -31.0304   21.2161 C   0  0  0  0  0  0  0  0  0  0  0  0
  -21.0956  -15.6905   21.7687 C   0  0  0  0  0  0  0  0  0  0  0  0
  -23.9721  -30.5504   21.7764 C   0  0  0  0  0  0  0  0  0  0  0  0
  -27.6841  -25.2005   19.2796 C   0  0  0  0  0  0  0  0  0  0  0  0
  -29.7503  -24.0180   20.1962 C   0  0  0  0  0  0  0  0  0  0  0  0
  -22.4806  -23.9654   20.2980 C   0  0  0  0  0  0  0  0  0  0  0  0
  -19.9717  -17.5457   20.6942 C   0  0  0  0  0  0  0  0  0  0  0  0
  -22.0789  -22.6215   20.4397 C   0  0  0  0  0  0  0  0  0  0  0  0
  -20.2517  -16.8084   21.8535 C   0  0  0  0  0  0  0  0  0  0  0  0
  -24.6862  -13.3486   20.5897 C   0  0  0  0  0  0  0  0  0  0  0  0
  -25.8941  -27.3320   19.0921 C   0  0  0  0  0  0  0  0  0  0  0  0
  -21.6431  -15.3038   20.5457 C   0  0  0  0  0  0  0  0  0  0  0  0
  -25.0601  -29.3353   19.9942 C   0  0  0  0  0  0  0  0  0  0  0  0
  -25.1432  -31.2755   21.9970 C   0  0  0  0  0  0  0  0  0  0  0  0
  -23.9306  -29.5803   20.7750 C   0  0  0  0  0  0  0  0  0  0  0  0
  -28.6091  -24.1000   19.3759 C   0  0  0  0  0  0  0  0  0  0  0  0
  -26.0202  -13.6509   20.7728 C   0  0  0  0  0  0  0  0  0  0  0  0
  -23.8177  -14.4193   20.6498 C   0  0  0  0  0  0  0  0  0  1  0  0
  -30.2829  -22.7823   19.9209 C   0  0  0  0  0  0  0  0  0  0  0  0
  -25.5365  -15.8565   21.0334 C   0  0  0  0  0  0  0  0  0  0  0  0
  -30.2813  -24.9734   21.1240 C   0  0  0  0  0  0  0  0  0  0  0  0
  -20.1885  -20.1572   22.4932 C   0  0  0  0  0  0  0  0  0  0  0  0
  -17.9241  -18.6534   24.2632 C   0  0  0  0  0  0  0  0  0  0  0  0
  -16.4482  -15.7199   25.1921 C   0  0  0  0  0  0  0  0  0  0  0  0
  -29.6714  -17.3920   19.2011 C   0  0  0  0  0  0  0  0  0  0  0  0
  -22.3761  -24.9494   21.4364 C   0  0  0  0  0  0  0  0  0  0  0  0
  -19.0510  -18.7338   20.7508 C   0  0  0  0  0  0  0  0  0  0  0  0
  -19.6772  -17.1882   23.1929 C   0  0  0  0  0  0  0  0  0  0  0  0
  -22.2815  -24.2729   22.8001 C   0  0  0  0  0  0  0  0  0  0  0  0
  -29.1799  -19.4580   16.2707 C   0  0  0  0  0  0  0  0  0  0  0  0
  -23.1577  -11.3730   21.2491 C   0  0  0  0  0  0  0  0  0  0  0  0
  -24.5669  -10.8744   21.3261 C   0  0  0  0  0  0  0  0  0  0  0  0
  -21.2135  -23.1898   22.7701 C   0  0  0  0  0  0  0  0  0  0  0  0
  -29.0818  -20.8516   16.8940 C   0  0  0  0  0  0  0  0  0  0  0  0
  -30.3561  -12.4742   19.1208 C   0  0  0  0  0  0  0  0  0  0  0  0
  -28.5067  -18.4098   17.1517 C   0  0  0  0  0  0  0  0  0  0  0  0
  -29.3573  -12.0112   20.1863 C   0  0  0  0  0  0  0  0  0  0  0  0
  -28.9194  -19.7534   19.1760 C   0  0  0  0  0  0  0  0  0  0  0  0
  -28.2530  -13.6034   18.8775 C   0  0  0  0  0  0  0  0  0  0  0  0
  -24.2098  -11.9598   20.3429 C   0  0  0  0  0  0  0  0  0  0  0  0
  -21.5828  -22.0862   21.7707 C   0  0  1  0  0  0  0  0  0  0  0  0
  -18.9660  -19.3581   22.1402 C   0  0  1  0  0  0  0  0  0  0  0  0
  -29.6013  -20.8547   18.3440 C   0  0  2  0  0  0  0  0  0  0  0  0
  -29.7302  -13.7368   18.5229 C   0  0  1  0  0  0  0  0  0  0  0  0
  -26.0085  -17.2494   21.2788 C   0  0  0  0  0  0  0  0  0  0  0  0
  -14.6486  -14.8057   26.6832 C   0  0  0  0  0  0  0  0  0  0  0  0
  -19.7352  -19.0481   26.6870 C   0  0  0  0  0  0  0  0  0  0  0  0
  -18.3742  -17.3296   27.8964 C   0  0  0  0  0  0  0  0  0  0  0  0
  -17.3054  -19.4472   27.1242 C   0  0  0  0  0  0  0  0  0  0  0  0
  -14.9506  -14.6050   22.8958 C   0  0  0  0  0  0  0  0  0  0  0  0
  -27.0542  -12.5742   20.7254 C   0  0  0  0  0  0  0  0  0  0  0  0
  -30.3671  -15.0133   19.0798 C   0  0  0  0  0  0  0  0  0  0  0  0
  -17.9409  -17.6877   25.4235 C   0  0  1  0  0  0  0  0  0  0  0  0
  -14.9889  -15.3134   25.2906 C   0  0  2  0  0  0  0  0  0  0  0  0
  -18.3515  -18.3719   26.7580 C   0  0  0  0  0  0  0  0  0  0  0  0
  -28.4268  -23.0037   18.6350 N   0  0  0  0  0  0  0  0  0  0  0  0
  -26.4822  -14.8984   20.9975 N   0  0  0  0  0  0  0  0  0  0  0  0
  -24.2100  -15.6911   20.8706 N   0  0  0  0  0  0  0  0  0  0  0  0
  -29.4607  -22.2212   18.9886 N   0  0  0  0  0  0  0  0  0  0  0  0
  -18.7875  -18.3613   23.1979 N   0  0  0  0  0  0  0  0  0  0  0  0
  -29.0592  -18.4527   18.5129 N   0  0  0  0  0  0  0  0  0  0  0  0
  -28.3349  -13.0610   20.2366 N   0  0  1  0  0  0  0  0  0  0  0  0
  -31.3698  -22.1318   20.3877 N   0  0  0  0  0  0  0  0  0  0  0  0
  -31.2106  -25.9129   20.6572 N   0  0  0  0  0  0  0  0  0  0  0  0
  -20.4565  -21.1920   21.6174 N   0  0  0  0  0  0  0  0  0  0  0  0
  -16.6232  -17.0624   25.4533 N   0  0  0  0  0  0  0  0  0  0  0  0
  -29.7582  -16.1924   18.5054 N   0  0  0  0  0  0  0  0  0  0  0  0
  -29.9011  -13.7478   17.0479 N   0  3  0  0  0  0  0  0  0  0  0  0
  -14.6845  -14.2339   24.3094 N   0  3  0  0  0  0  0  0  0  0  0  0
  -29.9542  -24.9829   22.3350 O   0  0  0  0  0  0  0  0  0  0  0  0
  -20.8396  -19.8582   23.4873 O   0  0  0  0  0  0  0  0  0  0  0  0
  -17.1675  -19.6270   24.2977 O   0  0  0  0  0  0  0  0  0  0  0  0
  -17.3438  -14.9250   24.9152 O   0  0  0  0  0  0  0  0  0  0  0  0
  -30.1133  -17.5070   20.3494 O   0  0  0  0  0  0  0  0  0  0  0  0
  -25.0208  -28.3719   19.0001 O   0  0  0  0  0  0  0  0  0  0  0  0
  -22.4586  -14.2165   20.4780 O   0  0  0  0  0  0  0  0  0  1  0  0
  -25.1836  -32.2061   22.9595 F   0  0  0  0  0  0  0  0  0  0  0  0
  -22.8031  -28.8861   20.5686 F   0  0  0  0  0  0  0  0  0  0  0  0
  1  2  1  0  0  0  0
  1  5  2  0  0  0  0
  2  6  2  0  0  0  0
  3  8  2  0  0  0  0
  3 15  1  0  0  0  0
  4  9  1  0  0  0  0
  4 15  2  0  0  0  0
  5 17  1  0  0  0  0
  6 19  1  0  0  0  0
  7 10  2  0  0  0  0
  7 18  1  0  0  0  0
  8 22  1  0  0  0  0
  9 22  2  0  0  0  0
 10 23  1  0  0  0  0
 11 12  2  0  0  0  0
 11 24  1  0  0  0  0
 12 25  1  0  0  0  0
 13 20  1  0  0  0  0
 13 23  2  0  0  0  0
 14 25  2  0  0  0  0
 14 26  1  0  0  0  0
 15 27  1  0  0  0  0
 16 27  1  0  0  0  0
 16 30  2  0  0  0  0
 16 32  1  0  0  0  0
 17 19  2  0  0  0  0
 17 37  1  0  0  0  0
 18 20  2  0  0  0  0
 18 38  1  0  0  0  0
 19 52  1  0  0  0  0
 20 39  1  0  0  0  0
 21 28  1  0  0  0  0
 21 29  2  0  0  0  0
 21 51  1  0  0  0  0
 22 86  1  0  0  0  0
 23 87  1  0  0  0  0
 24 26  2  0  0  0  0
 24 86  1  0  0  0  0
 25 88  1  0  0  0  0
 26 89  1  0  0  0  0
 27 67  2  0  0  0  0
 28 62  1  0  0  0  0
 28 68  2  0  0  0  0
 29 69  1  0  0  0  0
 29 87  1  0  0  0  0
 30 70  1  0  0  0  0
 30 74  1  0  0  0  0
 31 56  1  0  0  0  0
 31 68  1  0  0  0  0
 31 69  2  0  0  0  0
 32 75  1  0  0  0  0
 32 81  2  0  0  0  0
 33 53  1  0  0  0  0
 33 76  1  0  0  0  0
 33 82  2  0  0  0  0
 34 64  1  0  0  0  0
 34 71  1  0  0  0  0
 34 83  2  0  0  0  0
 35 65  1  0  0  0  0
 35 77  1  0  0  0  0
 35 84  2  0  0  0  0
 36 72  1  0  0  0  0
 36 78  1  0  0  0  0
 36 85  2  0  0  0  0
 37 40  1  0  0  0  0
 38 53  1  0  0  0  0
 39 71  1  0  0  0  0
 40 44  1  0  0  0  0
 41 45  1  0  0  0  0
 41 47  1  0  0  0  0
 42 43  1  0  0  0  0
 42 51  1  0  0  0  0
 43 51  1  0  0  0  0
 44 52  1  0  0  0  0
 45 54  1  0  0  0  0
 46 48  1  0  0  0  0
 46 55  1  0  0  0  0
 47 72  1  0  0  0  0
 48 73  1  0  0  0  0
 49 54  1  0  0  0  0
 49 72  1  0  0  0  0
 50 55  1  0  0  0  0
 50 73  1  0  0  0  0
 52 76  1  0  0  0  0
 53 71  1  0  0  0  0
 54 70  1  0  0  0  0
 55 63  1  0  0  0  0
 55 79  1  0  0  0  0
 57 65  1  0  0  0  0
 58 66  1  0  0  0  0
 59 66  1  0  0  0  0
 60 66  1  0  0  0  0
 61 80  1  0  0  0  0
 62 73  1  0  0  0  0
 63 78  1  0  0  0  0
 64 66  1  0  0  0  0
 64 77  1  0  0  0  0
 65 80  1  0  0  0  0
 67 70  1  0  0  0  0
M  CHG  2  79   1  80   1
M  ISO  4  29 101  36 100  78 100  87 101
M  END
> <Batch ID>
0175

> <Smiles>
CNC(C)C(=O)NC(C(=O)N1Cc2cc([101O:1][101c:1]3nc(C)nc(CN4CCC(N)(C[100NH:0][100C:0](=O)N5CCCC(n6nc(-c7ccc(Oc8ccc(F)cc8F)cc7)c(C(N)=O)c6N)C5)C4)c3C3CC3)ccc2CC1C(=O)NC1CCCc2ccccc21)C(C)(C)C

> <Shape>
0.221

> <Color>
0.080

> <Negative vol penalty>
0.000

$$$$

  -OEChem-04052322473D

 93103  0     1  0  0  0  0  0999 V2000
  -30.4069  -33.9608   23.7470 C   0  0  0  0  0  0  0  0  0  0  0  0
  -30.0652  -32.6384   23.4826 C   0  0  0  0  0  0  0  0  0  0  0  0
  -25.6105  -10.5015   23.5228 C   0  0  0  0  0  0  0  0  0  0  0  0
  -25.3439   -8.7628   21.8666 C   0  0  0  0  0  0  0  0  0  0  0  0
  -29.4362  -34.8532   24.2000 C   0  0  0  0  0  0  0  0  0  0  0  0
  -28.7527  -32.2074   23.6722 C   0  0  0  0  0  0  0  0  0  0  0  0
  -27.0704  -29.3587   19.8381 C   0  0  0  0  0  0  0  0  0  0  0  0
  -24.8679   -9.7488   24.4325 C   0  0  0  0  0  0  0  0  0  0  0  0
  -24.6013   -8.0101   22.7763 C   0  0  0  0  0  0  0  0  0  0  0  0
  -27.4931  -28.0308   19.7983 C   0  0  0  0  0  0  0  0  0  0  0  0
  -21.4431   -7.9668   23.9824 C   0  0  0  0  0  0  0  0  0  0  0  0
  -20.2678   -7.3716   23.5242 C   0  0  0  0  0  0  0  0  0  0  0  0
  -25.3875  -27.3383   20.7501 C   0  0  0  0  0  0  0  0  0  0  0  0
  -21.1521   -5.1941   24.0845 C   0  0  0  0  0  0  0  0  0  0  0  0
  -27.9403  -21.9133   18.8831 C   0  0  0  0  0  0  0  0  0  0  0  0
  -25.8484  -10.0085   22.2398 C   0  0  0  0  0  0  0  0  0  0  0  0
  -28.0092  -10.7545   21.1076 C   0  0  0  0  0  0  0  0  0  0  0  0
  -28.1091  -34.4353   24.3860 C   0  0  0  0  0  0  0  0  0  0  0  0
  -25.8052  -29.6880   20.3452 C   0  0  0  0  0  0  0  0  0  0  0  0
  -27.7636  -33.0947   24.1294 C   0  0  0  0  0  0  0  0  0  0  0  0
  -24.9501  -28.6709   20.7929 C   0  0  0  0  0  0  0  0  0  0  0  0
  -28.9715  -21.2779   19.5603 C   0  0  0  0  0  0  0  0  0  0  0  0
  -29.6820  -23.4267   20.3856 C   0  0  0  0  0  0  0  0  0  0  0  0
  -29.8493  -22.0468   20.3183 C   0  0  0  0  0  0  0  0  0  0  0  0
  -24.3633   -8.5031   24.0593 C   0  0  0  0  0  0  0  0  0  0  0  0
  -26.6528  -27.0206   20.2570 C   0  0  0  0  0  0  0  0  0  0  0  0
  -22.4729   -7.1757   24.4916 C   0  0  0  0  0  0  0  0  0  0  0  0
  -20.1222   -5.9853   23.5753 C   0  0  0  0  0  0  0  0  0  0  0  0
  -22.3274   -5.7894   24.5427 C   0  0  0  0  0  0  0  0  0  0  0  0
  -26.6150  -10.7858   21.2994 C   0  0  0  0  0  0  0  0  0  0  0  0
  -28.6330  -24.0077   19.6875 C   0  0  0  0  0  0  0  0  0  0  0  0
  -28.2390  -11.6693   20.1091 C   0  0  0  0  0  0  0  0  0  0  0  0
  -29.0074   -9.9688   21.7724 C   0  0  0  0  0  0  0  0  0  0  0  0
  -24.7506  -31.4314   22.7849 C   0  0  0  0  0  0  0  0  0  0  0  0
  -21.8509  -30.8068   21.4719 C   0  0  0  0  0  0  0  0  0  0  0  0
  -19.9359  -28.7742   19.5102 C   0  0  0  0  0  0  0  0  0  0  0  0
  -27.4143  -16.4987   17.6560 C   0  0  0  0  0  0  0  0  0  0  0  0
  -27.1049  -35.4245   24.9226 C   0  0  0  0  0  0  0  0  0  0  0  0
  -25.3536  -31.1227   20.3565 C   0  0  0  0  0  0  0  0  0  0  0  0
  -23.5742  -28.9698   21.3278 C   0  0  0  0  0  0  0  0  0  0  0  0
  -25.6557  -34.9812   24.7397 C   0  0  0  0  0  0  0  0  0  0  0  0
  -25.0358  -14.0700   17.0289 C   0  0  0  0  0  0  0  0  0  0  0  0
  -25.4852  -33.5257   25.1632 C   0  0  0  0  0  0  0  0  0  0  0  0
  -25.3404  -12.9874   18.0640 C   0  0  0  0  0  0  0  0  0  0  0  0
  -27.8874  -19.0368   20.0333 C   0  0  0  0  0  0  0  0  0  0  0  0
  -29.3853  -19.3151   18.0114 C   0  0  0  0  0  0  0  0  0  0  0  0
  -25.1664  -15.4606   17.6394 C   0  0  0  0  0  0  0  0  0  0  0  0
  -28.0206  -17.5174   19.8954 C   0  0  0  0  0  0  0  0  0  0  0  0
  -29.5041  -17.7956   17.9373 C   0  0  0  0  0  0  0  0  0  0  0  0
  -32.2151  -21.2129   20.4413 C   0  0  0  0  0  0  0  0  0  0  0  0
  -26.8214  -14.6527   19.2904 C   0  0  0  0  0  0  0  0  0  0  0  0
  -30.7751  -20.9367   22.3719 C   0  0  0  0  0  0  0  0  0  0  0  0
  -29.1111  -19.7708   19.4560 C   0  0  0  0  0  0  0  0  0  0  0  0
  -26.3452  -32.5954   24.2992 C   0  0  1  0  0  0  0  0  0  0  0  0
  -24.2459  -31.3925   21.3702 C   0  0  1  0  0  0  0  0  0  0  0  0
  -32.8756  -20.2532   21.4431 C   0  0  2  0  0  0  0  0  0  0  0  0
  -26.7109  -13.2227   18.7235 C   0  0  1  0  0  0  0  0  0  0  0  0
  -32.2287  -20.6787   22.7572 C   0  0  2  0  0  0  0  0  0  0  0  0
  -34.3925  -20.3458   21.4428 C   0  0  0  0  0  0  0  0  0  0  0  0
  -29.8872  -25.0073   22.3384 C   0  0  0  0  0  0  0  0  0  0  0  0
  -31.3827  -25.2864   20.3283 C   0  0  0  0  0  0  0  0  0  0  0  0
  -17.5929  -28.5003   18.6541 C   0  0  0  0  0  0  0  0  0  0  0  0
  -20.9760  -29.7703   24.2051 C   0  0  0  0  0  0  0  0  0  0  0  0
  -19.0290  -28.6644   23.0850 C   0  0  0  0  0  0  0  0  0  0  0  0
  -19.2614  -31.1471   23.0138 C   0  0  0  0  0  0  0  0  0  0  0  0
  -20.8124  -29.0194   16.6941 C   0  0  0  0  0  0  0  0  0  0  0  0
  -28.3678  -25.4707   19.6979 C   0  0  0  0  0  0  0  0  0  1  0  0
  -30.6096  -24.2744   21.1934 C   0  0  0  0  0  0  0  0  0  0  0  0
  -20.8189  -29.7162   21.6286 C   0  0  1  0  0  0  0  0  0  0  0  0
  -18.9706  -29.0831   18.3801 C   0  0  2  0  0  0  0  0  0  0  0  0
  -20.0479  -29.8187   22.9749 C   0  0  0  0  0  0  0  0  0  0  0  0
  -26.0021  -11.6520   20.4881 N   0  0  0  0  0  0  0  0  0  0  0  0
  -27.0161  -12.1735   19.7768 N   0  0  0  0  0  0  0  0  0  0  0  0
  -27.8023  -23.2436   18.9651 N   0  3  0  0  0  0  0  0  0  0  0  0
  -30.8815  -21.4407   21.0021 N   0  0  3  0  0  0  0  0  0  0  0  0
  -23.1809  -30.3885   21.3242 N   0  0  0  0  0  0  0  0  0  0  0  0
  -26.4791  -15.6435   18.2582 N   0  0  0  0  0  0  0  0  0  0  0  0
  -28.3230  -17.1468   18.5060 N   0  0  0  0  0  0  0  0  0  0  0  0
  -29.3659  -12.0835   19.4918 N   0  0  0  0  0  0  0  0  0  0  0  0
  -28.5986   -9.0781   22.7743 N   0  0  0  0  0  0  0  0  0  0  0  0
  -25.7239  -32.3863   23.0089 N   0  0  0  0  0  0  0  0  0  0  0  0
  -19.9678  -29.7866   20.4458 N   0  0  0  0  0  0  0  0  0  0  0  0
  -32.3287  -19.6238   23.7822 N   0  3  0  0  0  0  0  0  0  0  0  0
  -19.4749  -28.5145   17.0981 N   0  3  0  0  0  0  0  0  0  0  0  0
  -30.2275  -10.0660   21.4978 O   0  0  0  0  0  0  0  0  0  0  0  0
  -24.2899  -30.6537   23.6123 O   0  0  0  0  0  0  0  0  0  0  0  0
  -21.4893  -31.9862   21.4732 O   0  0  0  0  0  0  0  0  0  0  0  0
  -20.5930  -27.7367   19.5601 O   0  0  0  0  0  0  0  0  0  0  0  0
  -27.4371  -16.6727   16.4311 O   0  0  0  0  0  0  0  0  0  0  0  0
  -23.6388   -7.7682   24.9468 O   0  0  0  0  0  0  0  0  0  0  0  0
  -27.0658  -25.7153   20.2197 O   0  0  0  0  0  0  0  0  0  1  0  0
  -18.9929   -5.4139   23.1366 F   0  0  0  0  0  0  0  0  0  0  0  0
  -23.3128   -5.0243   25.0319 F   0  0  0  0  0  0  0  0  0  0  0  0
  1  2  1  0  0  0  0
  1  5  2  0  0  0  0
  2  6  2  0  0  0  0
  3  8  2  0  0  0  0
  3 16  1  0  0  0  0
  4  9  1  0  0  0  0
  4 16  2  0  0  0  0
  5 18  1  0  0  0  0
  6 20  1  0  0  0  0
  7 10  2  0  0  0  0
  7 19  1  0  0  0  0
  8 25  1  0  0  0  0
  9 25  2  0  0  0  0
 10 26  1  0  0  0  0
 11 12  2  0  0  0  0
 11 27  1  0  0  0  0
 12 28  1  0  0  0  0
 13 21  1  0  0  0  0
 13 26  2  0  0  0  0
 14 28  2  0  0  0  0
 14 29  1  0  0  0  0
 15 22  1  0  0  0  0
 15 74  2  0  0  0  0
 16 30  1  0  0  0  0
 17 30  1  0  0  0  0
 17 32  2  0  0  0  0
 17 33  1  0  0  0  0
 18 20  2  0  0  0  0
 18 38  1  0  0  0  0
 19 21  2  0  0  0  0
 19 39  1  0  0  0  0
 20 54  1  0  0  0  0
 21 40  1  0  0  0  0
 22 24  2  0  0  0  0
 22 53  1  0  0  0  0
 23 24  1  0  0  0  0
 23 31  2  0  0  0  0
 23 68  1  0  0  0  0
 24 75  1  0  0  0  0
 25 90  1  0  0  0  0
 26 91  1  0  0  0  0
 27 29  2  0  0  0  0
 27 90  1  0  0  0  0
 28 92  1  0  0  0  0
 29 93  1  0  0  0  0
 30 72  2  0  0  0  0
 31 67  1  0  0  0  0
 31 74  1  0  0  0  0
 32 73  1  0  0  0  0
 32 79  1  0  0  0  0
 33 80  1  0  0  0  0
 33 85  2  0  0  0  0
 34 55  1  0  0  0  0
 34 81  1  0  0  0  0
 34 86  2  0  0  0  0
 35 69  1  0  0  0  0
 35 76  1  0  0  0  0
 35 87  2  0  0  0  0
 36 70  1  0  0  0  0
 36 82  1  0  0  0  0
 36 88  2  0  0  0  0
 37 77  1  0  0  0  0
 37 78  1  0  0  0  0
 37 89  2  0  0  0  0
 38 41  1  0  0  0  0
 39 55  1  0  0  0  0
 40 76  1  0  0  0  0
 41 43  1  0  0  0  0
 42 44  1  0  0  0  0
 42 47  1  0  0  0  0
 43 54  1  0  0  0  0
 44 57  1  0  0  0  0
 45 48  1  0  0  0  0
 45 53  1  0  0  0  0
 46 49  1  0  0  0  0
 46 53  1  0  0  0  0
 47 77  1  0  0  0  0
 48 78  1  0  0  0  0
 49 78  1  0  0  0  0
 50 56  1  0  0  0  0
 50 75  1  0  0  0  0
 51 57  1  0  0  0  0
 51 77  1  0  0  0  0
 52 58  1  0  0  0  0
 52 75  1  0  0  0  0
 54 81  1  0  0  0  0
 55 76  1  0  0  0  0
 56 58  1  0  0  0  0
 56 59  1  0  0  0  0
 57 73  1  0  0  0  0
 58 83  1  0  0  0  0
 60 68  1  0  0  0  0
 61 68  1  0  0  0  0
 62 70  1  0  0  0  0
 63 71  1  0  0  0  0
 64 71  1  0  0  0  0
 65 71  1  0  0  0  0
 66 84  1  0  0  0  0
 67 91  1  0  0  0  0
 69 71  1  0  0  0  0
 69 82  1  0  0  0  0
 70 84  1  0  0  0  0
 72 73  1  0  0  0  0
M  CHG  3  74   1  83   1  84   1
M  ISO  4  37 100  67 101  78 100  91 101
M  END
> <Batch ID>
0175

> <Smiles>
CNC(C)C(=O)NC(C(=O)N1Cc2cc([101O:1][101CH2:1]c3ncc(C4CC[100N:0]([100C:0](=O)N5CCCC(n6nc(-c7ccc(Oc8ccc(F)cc8F)cc7)c(C(N)=O)c6N)C5)CC4)c(N4CC(C)C(N)C4)c3C(C)C)ccc2CC1C(=O)NC1CCCc2ccccc21)C(C)(C)C

> <Shape>
0.274

> <Color>
0.056

> <Negative vol penalty>
0.000

$$$$

  -OEChem-04052322473D

 86 95  0     1  0  0  0  0  0999 V2000
  -28.8847  -36.2506   25.3593 C   0  0  0  0  0  0  0  0  0  0  0  0
  -29.3749  -35.4253   24.3523 C   0  0  0  0  0  0  0  0  0  0  0  0
  -24.2440   -9.5164   22.3980 C   0  0  0  0  0  0  0  0  0  0  0  0
  -25.0145   -8.0625   20.6290 C   0  0  0  0  0  0  0  0  0  0  0  0
  -27.9488  -35.7588   26.2682 C   0  0  0  0  0  0  0  0  0  0  0  0
  -28.9302  -34.1073   24.2543 C   0  0  0  0  0  0  0  0  0  0  0  0
  -27.5614  -29.0237   19.3964 C   0  0  0  0  0  0  0  0  0  0  0  0
  -22.9936   -8.8996   22.3605 C   0  0  0  0  0  0  0  0  0  0  0  0
  -23.7640   -7.4456   20.5914 C   0  0  0  0  0  0  0  0  0  0  0  0
  -27.8689  -27.6936   19.1134 C   0  0  0  0  0  0  0  0  0  0  0  0
  -21.5930   -6.0373   23.4911 C   0  0  0  0  0  0  0  0  0  0  0  0
  -21.0030   -5.6935   24.7073 C   0  0  0  0  0  0  0  0  0  0  0  0
  -26.1907  -26.9764   20.6910 C   0  0  0  0  0  0  0  0  0  0  0  0
  -19.1204   -7.1192   24.1971 C   0  0  0  0  0  0  0  0  0  0  0  0
  -25.2545   -9.0979   21.5322 C   0  0  0  0  0  0  0  0  0  0  0  0
  -27.6539   -9.3651   22.3563 C   0  0  0  0  0  0  0  0  0  0  0  0
  -27.4851  -34.4370   26.1754 C   0  0  0  0  0  0  0  0  0  0  0  0
  -26.5722  -29.3407   20.3384 C   0  0  0  0  0  0  0  0  0  0  0  0
  -27.9882  -33.5970   25.1637 C   0  0  0  0  0  0  0  0  0  0  0  0
  -25.8708  -28.3113   20.9822 C   0  0  0  0  0  0  0  0  0  0  0  0
  -22.7535   -7.8642   21.4572 C   0  0  0  0  0  0  0  0  0  0  0  0
  -27.1855  -26.6697   19.7629 C   0  0  0  0  0  0  0  0  0  0  0  0
  -20.9468   -6.9221   22.6279 C   0  0  0  0  0  0  0  0  0  0  0  0
  -19.7667   -6.2344   25.0603 C   0  0  0  0  0  0  0  0  0  0  0  0
  -19.7105   -7.4631   22.9809 C   0  0  0  0  0  0  0  0  0  0  0  0
  -26.5463   -9.7351   21.5702 C   0  0  0  0  0  0  0  0  0  0  0  0
  -28.1145  -20.6002   19.0941 C   0  0  0  0  0  0  0  0  0  0  0  0
  -28.8402  -21.7347   18.8049 C   0  0  0  0  0  0  0  0  0  0  0  0
  -26.5042  -21.8837   20.0886 C   0  0  0  0  0  0  0  0  0  0  0  0
  -27.2302  -23.0183   19.8001 C   0  0  0  0  0  0  0  0  0  0  0  0
  -28.6272  -10.2774   22.0293 C   0  0  0  0  0  0  0  0  0  0  0  0
  -27.7908   -8.2926   23.2980 C   0  0  0  0  0  0  0  0  0  0  0  0
  -26.5317  -30.8897   23.1137 C   0  0  0  0  0  0  0  0  0  0  0  0
  -23.3262  -30.4612   22.8615 C   0  0  0  0  0  0  0  0  0  0  0  0
  -20.7378  -28.6615   21.5545 C   0  0  0  0  0  0  0  0  0  0  0  0
  -28.3814  -15.7788   20.0717 C   0  0  0  0  0  0  0  0  0  0  0  0
  -26.5083  -33.9361   27.2096 C   0  0  0  0  0  0  0  0  0  0  0  0
  -26.2339  -30.7804   20.6127 C   0  0  0  0  0  0  0  0  0  0  0  0
  -24.7861  -28.5986   21.9868 C   0  0  0  0  0  0  0  0  0  0  0  0
  -25.8080  -32.6403   26.8088 C   0  0  0  0  0  0  0  0  0  0  0  0
  -30.1024  -13.0782   18.4599 C   0  0  0  0  0  0  0  0  0  0  0  0
  -26.8178  -31.6331   26.2677 C   0  0  0  0  0  0  0  0  0  0  0  0
  -29.4610  -11.8688   19.1356 C   0  0  0  0  0  0  0  0  0  0  0  0
  -27.6639  -18.4740   17.7522 C   0  0  0  0  0  0  0  0  0  0  0  0
  -29.0974  -14.2046   18.2103 C   0  0  0  0  0  0  0  0  0  0  0  0
  -28.1594  -17.0400   17.8721 C   0  0  0  0  0  0  0  0  0  0  0  0
  -27.7055  -13.3990   20.0958 C   0  0  0  0  0  0  0  0  0  0  0  0
  -27.5116  -32.1690   25.0096 C   0  0  1  0  0  0  0  0  0  0  0  0
  -28.6062  -19.2281   18.6986 C   0  0  2  0  0  0  0  0  0  0  0  0
  -25.5650  -30.9893   21.9678 C   0  0  1  0  0  0  0  0  0  0  0  0
  -28.7183  -12.2898   20.4142 C   0  0  1  0  0  0  0  0  0  0  0  0
  -28.7787  -18.2383   19.8719 C   0  0  2  0  0  0  0  0  0  0  0  0
  -25.1990  -21.9575   20.8048 C   0  0  0  0  0  0  0  0  0  0  0  0
  -30.1544  -18.3621   20.5218 C   0  0  0  0  0  0  0  0  0  0  0  0
  -30.9190  -22.9753   18.1520 C   0  0  0  0  0  0  0  0  0  0  0  0
  -18.2320  -28.5270   21.5588 C   0  0  0  0  0  0  0  0  0  0  0  0
  -23.4005  -29.2114   25.6440 C   0  0  0  0  0  0  0  0  0  0  0  0
  -21.1268  -28.2612   25.2017 C   0  0  0  0  0  0  0  0  0  0  0  0
  -21.4585  -30.7333   25.2354 C   0  0  0  0  0  0  0  0  0  0  0  0
  -20.5919  -29.1306   18.6360 C   0  0  0  0  0  0  0  0  0  0  0  0
  -30.1447  -21.6609   18.0876 C   0  0  0  0  0  0  0  0  0  0  0  0
  -26.7448  -24.3722   20.1909 C   0  0  0  0  0  0  0  0  0  1  0  0
  -22.3539  -29.3890   23.2904 C   0  0  1  0  0  0  0  0  0  0  0  0
  -19.4585  -29.0946   20.8615 C   0  0  2  0  0  0  0  0  0  0  0  0
  -22.1066  -29.3930   24.8254 C   0  0  0  0  0  0  0  0  0  0  0  0
  -26.7920  -10.7995   20.8017 N   0  0  0  0  0  0  0  0  0  0  0  0
  -26.9334  -20.6543   19.7411 N   0  0  0  0  0  0  0  0  0  0  0  0
  -28.4111  -22.9641   19.1528 N   0  0  0  0  0  0  0  0  0  0  0  0
  -28.0651  -11.1063   21.1034 N   0  0  0  0  0  0  0  0  0  0  0  0
  -24.4962  -30.0221   22.2256 N   0  0  0  0  0  0  0  0  0  0  0  0
  -28.3502  -14.5341   19.4298 N   0  0  0  0  0  0  0  0  0  0  0  0
  -28.5646  -16.9116   19.2733 N   0  0  0  0  0  0  0  0  0  0  0  0
  -29.9003  -10.4434   22.4463 N   0  0  0  0  0  0  0  0  0  0  0  0
  -26.6926   -7.4490   23.5141 N   0  0  0  0  0  0  0  0  0  0  0  0
  -26.6397  -32.0471   23.8609 N   0  0  0  0  0  0  0  0  0  0  0  0
  -21.1498  -29.5862   22.4907 N   0  0  0  0  0  0  0  0  0  0  0  0
  -19.4526  -28.6280   19.4462 N   0  3  0  0  0  0  0  0  0  0  0  0
  -28.8501   -8.0984   23.9412 O   0  0  0  0  0  0  0  0  0  0  0  0
  -27.1339  -29.8400   23.3067 O   0  0  0  0  0  0  0  0  0  0  0  0
  -23.0543  -31.6451   23.0760 O   0  0  0  0  0  0  0  0  0  0  0  0
  -21.3120  -27.6065   21.2943 O   0  0  0  0  0  0  0  0  0  0  0  0
  -28.2233  -15.8767   21.2955 O   0  0  0  0  0  0  0  0  0  0  0  0
  -21.5335   -7.2619   21.4204 O   0  0  0  0  0  0  0  0  0  0  0  0
  -27.4860  -25.3617   19.4872 O   0  0  0  0  0  0  0  0  0  1  0  0
  -19.1995   -5.9030   26.2276 F   0  0  0  0  0  0  0  0  0  0  0  0
  -19.0843   -8.3127   22.1552 F   0  0  0  0  0  0  0  0  0  0  0  0
  1  2  1  0  0  0  0
  1  5  2  0  0  0  0
  2  6  2  0  0  0  0
  3  8  2  0  0  0  0
  3 15  1  0  0  0  0
  4  9  1  0  0  0  0
  4 15  2  0  0  0  0
  5 17  1  0  0  0  0
  6 19  1  0  0  0  0
  7 10  2  0  0  0  0
  7 18  1  0  0  0  0
  8 21  1  0  0  0  0
  9 21  2  0  0  0  0
 10 22  1  0  0  0  0
 11 12  2  0  0  0  0
 11 23  1  0  0  0  0
 12 24  1  0  0  0  0
 13 20  1  0  0  0  0
 13 22  2  0  0  0  0
 14 24  2  0  0  0  0
 14 25  1  0  0  0  0
 15 26  1  0  0  0  0
 16 26  1  0  0  0  0
 16 31  2  0  0  0  0
 16 32  1  0  0  0  0
 17 19  2  0  0  0  0
 17 37  1  0  0  0  0
 18 20  2  0  0  0  0
 18 38  1  0  0  0  0
 19 48  1  0  0  0  0
 20 39  1  0  0  0  0
 21 83  1  0  0  0  0
 22 84  1  0  0  0  0
 23 25  2  0  0  0  0
 23 83  1  0  0  0  0
 24 85  1  0  0  0  0
 25 86  1  0  0  0  0
 26 66  2  0  0  0  0
 27 28  2  0  0  0  0
 27 49  1  0  0  0  0
 27 67  1  0  0  0  0
 28 61  1  0  0  0  0
 28 68  1  0  0  0  0
 29 30  1  0  0  0  0
 29 53  1  0  0  0  0
 29 67  2  0  0  0  0
 30 62  1  0  0  0  0
 30 68  2  0  0  0  0
 31 69  1  0  0  0  0
 31 73  1  0  0  0  0
 32 74  1  0  0  0  0
 32 78  2  0  0  0  0
 33 50  1  0  0  0  0
 33 75  1  0  0  0  0
 33 79  2  0  0  0  0
 34 63  1  0  0  0  0
 34 70  1  0  0  0  0
 34 80  2  0  0  0  0
 35 64  1  0  0  0  0
 35 76  1  0  0  0  0
 35 81  2  0  0  0  0
 36 71  1  0  0  0  0
 36 72  1  0  0  0  0
 36 82  2  0  0  0  0
 37 40  1  0  0  0  0
 38 50  1  0  0  0  0
 39 70  1  0  0  0  0
 40 42  1  0  0  0  0
 41 43  1  0  0  0  0
 41 45  1  0  0  0  0
 42 48  1  0  0  0  0
 43 51  1  0  0  0  0
 44 46  1  0  0  0  0
 44 49  1  0  0  0  0
 45 71  1  0  0  0  0
 46 72  1  0  0  0  0
 47 51  1  0  0  0  0
 47 71  1  0  0  0  0
 48 75  1  0  0  0  0
 49 52  1  0  0  0  0
 50 70  1  0  0  0  0
 51 69  1  0  0  0  0
 52 54  1  0  0  0  0
 52 72  1  0  0  0  0
 55 61  1  0  0  0  0
 56 64  1  0  0  0  0
 57 65  1  0  0  0  0
 58 65  1  0  0  0  0
 59 65  1  0  0  0  0
 60 77  1  0  0  0  0
 62 84  1  0  0  0  0
 63 65  1  0  0  0  0
 63 76  1  0  0  0  0
 64 77  1  0  0  0  0
 66 69  1  0  0  0  0
M  CHG  1  77   1
M  ISO  4  36 100  62 101  72 100  84 101
M  END
> <Batch ID>
0175

> <Smiles>
CCc1nc([101CH2:1][101O:1]c2ccc3c(c2)CN(C(=O)C(NC(=O)C(C)NC)C(C)(C)C)C(C(=O)NC2CCCc4ccccc42)C3)c(C)nc1C1CC[100N:0]([100C:0](=O)N2CCCC(n3nc(-c4ccc(Oc5ccc(F)cc5F)cc4)c(C(N)=O)c3N)C2)C1C

> <Shape>
0.296

> <Color>
0.094

> <Negative vol penalty>
0.000

$$$$

  -OEChem-04052322473D

 86 95  0     1  0  0  0  0  0999 V2000
  -23.7402  -24.5137   22.0530 C   0  0  0  0  0  0  0  0  0  0  0  0
  -24.7027  -23.5095   22.0794 C   0  0  0  0  0  0  0  0  0  0  0  0
  -22.2240  -28.9795   21.5131 C   0  0  0  0  0  0  0  0  0  0  0  0
  -23.2914  -28.2369   23.5494 C   0  0  0  0  0  0  0  0  0  0  0  0
  -22.4751  -24.2794   22.5901 C   0  0  0  0  0  0  0  0  0  0  0  0
  -24.4008  -22.2707   22.6439 C   0  0  0  0  0  0  0  0  0  0  0  0
  -26.0026  -18.3981   19.8008 C   0  0  0  0  0  0  0  0  0  0  0  0
  -20.9949  -28.5263   21.9920 C   0  0  0  0  0  0  0  0  0  0  0  0
  -22.0622  -27.7836   24.0283 C   0  0  0  0  0  0  0  0  0  0  0  0
  -27.3600  -18.0852   19.8577 C   0  0  0  0  0  0  0  0  0  0  0  0
  -18.6204  -29.5844   24.1542 C   0  0  0  0  0  0  0  0  0  0  0  0
  -17.5167  -30.4241   24.0046 C   0  0  0  0  0  0  0  0  0  0  0  0
  -26.8741  -16.2817   21.3843 C   0  0  0  0  0  0  0  0  0  0  0  0
  -31.9085  -22.8731   21.4561 C   0  0  0  0  0  0  0  0  0  0  0  0
  -16.4094  -28.7330   22.6813 C   0  0  0  0  0  0  0  0  0  0  0  0
  -23.3723  -28.8348   22.2918 C   0  0  0  0  0  0  0  0  0  0  0  0
  -25.2031  -30.5820   21.9703 C   0  0  0  0  0  0  0  0  0  0  0  0
  -22.1545  -23.0339   23.1528 C   0  0  0  0  0  0  0  0  0  0  0  0
  -25.0704  -17.6608   20.5450 C   0  0  0  0  0  0  0  0  0  0  0  0
  -23.1306  -22.0200   23.1902 C   0  0  0  0  0  0  0  0  0  0  0  0
  -25.5051  -16.5856   21.3331 C   0  0  0  0  0  0  0  0  0  0  0  0
  -31.6454  -21.5428   21.6555 C   0  0  0  0  0  0  0  0  0  0  0  0
  -30.6196  -21.1223   22.4604 C   0  0  0  0  0  0  0  0  0  0  0  0
  -20.9140  -27.9283   23.2497 C   0  0  0  0  0  0  0  0  0  0  0  0
  -27.7963  -17.0287   20.6518 C   0  0  0  0  0  0  0  0  0  0  0  0
  -18.6186  -28.3190   23.5673 C   0  0  0  0  0  0  0  0  0  0  0  0
  -16.4112  -29.9985   23.2681 C   0  0  0  0  0  0  0  0  0  0  0  0
  -17.5131  -27.8933   22.8309 C   0  0  0  0  0  0  0  0  0  0  0  0
  -24.6423  -29.3023   21.7973 C   0  0  0  0  0  0  0  0  0  0  0  0
  -31.0654  -23.7486   22.1262 C   0  0  0  0  0  0  0  0  0  0  0  0
  -29.8293  -22.0405   23.0917 C   0  0  0  0  0  0  0  0  0  0  0  0
  -26.4092  -30.5196   21.3163 C   0  0  0  0  0  0  0  0  0  0  0  0
  -24.6804  -31.7248   22.6606 C   0  0  0  0  0  0  0  0  0  0  0  0
  -23.0235  -18.3396   22.8802 C   0  0  0  0  0  0  0  0  0  0  0  0
  -22.0817  -15.2700   22.4184 C   0  0  0  0  0  0  0  0  0  0  0  0
  -22.8561  -12.1382   21.3053 C   0  0  0  0  0  0  0  0  0  0  0  0
  -30.0710  -25.9869   19.9390 C   0  0  0  0  0  0  0  0  0  0  0  0
  -20.7888  -22.8433   23.7636 C   0  0  0  0  0  0  0  0  0  0  0  0
  -23.6066  -17.9941   20.4519 C   0  0  0  0  0  0  0  0  0  0  0  0
  -32.0723  -20.1467   21.3049 C   0  0  0  0  0  0  0  0  0  0  0  0
  -24.5423  -15.7502   22.1354 C   0  0  0  0  0  0  0  0  0  0  0  0
  -20.4289  -21.3797   24.0061 C   0  0  0  0  0  0  0  0  0  0  0  0
  -28.5858  -28.3020   17.6782 C   0  0  0  0  0  0  0  0  0  0  0  0
  -21.5906  -20.6473   24.6700 C   0  0  0  0  0  0  0  0  0  0  0  0
  -27.4573  -28.9363   18.4931 C   0  0  0  0  0  0  0  0  0  0  0  0
  -28.7588  -26.8216   18.0108 C   0  0  0  0  0  0  0  0  0  0  0  0
  -27.8089  -27.1602   20.2596 C   0  0  0  0  0  0  0  0  0  0  0  0
  -30.9004  -19.6630   22.2381 C   0  0  2  0  0  0  0  0  0  0  0  0
  -22.8333  -20.6548   23.7715 C   0  0  1  0  0  0  0  0  0  0  0  0
  -22.8042  -17.5018   21.6524 C   0  0  1  0  0  0  0  0  0  0  0  0
  -27.6331  -28.6661   19.9996 C   0  0  2  0  0  0  0  0  0  0  0  0
  -28.7138  -21.6064   23.9743 C   0  0  0  0  0  0  0  0  0  0  0  0
  -31.5813  -25.9213   23.2988 C   0  0  0  0  0  0  0  0  0  0  0  0
  -21.8960   -9.8293   21.0942 C   0  0  0  0  0  0  0  0  0  0  0  0
  -22.5141  -14.8197   25.4051 C   0  0  0  0  0  0  0  0  0  0  0  0
  -22.4726  -12.3548   24.9686 C   0  0  0  0  0  0  0  0  0  0  0  0
  -20.4586  -13.7413   24.4744 C   0  0  0  0  0  0  0  0  0  0  0  0
  -31.3355  -16.8743   21.5903 C   0  0  0  0  0  0  0  0  0  0  0  0
  -29.3272  -16.9501   23.0789 C   0  0  0  0  0  0  0  0  0  0  0  0
  -23.1047  -12.1788   18.3565 C   0  0  0  0  0  0  0  0  0  0  0  0
  -29.7691  -18.8973   21.5556 C   0  0  0  0  0  0  0  0  0  0  0  0
  -31.2743  -25.2187   21.9691 C   0  0  2  0  0  0  0  0  0  0  0  0
  -22.4902  -13.9302   22.9814 C   0  0  1  0  0  0  0  0  0  0  0  0
  -22.1012  -11.1720   20.4103 C   0  0  2  0  0  0  0  0  0  0  0  0
  -22.0025  -13.7283   24.4439 C   0  0  0  0  0  0  0  0  0  0  0  0
  -29.8945  -17.3704   21.7179 C   0  0  0  0  0  0  0  0  0  1  0  0
  -25.4277  -28.4867   21.0888 N   0  0  0  0  0  0  0  0  0  0  0  0
  -30.0350  -23.3690   22.9371 N   0  0  0  0  0  0  0  0  0  0  0  0
  -26.4942  -29.2557   20.8107 N   0  0  0  0  0  0  0  0  0  0  0  0
  -23.1221  -16.1195   22.0162 N   0  0  0  0  0  0  0  0  0  0  0  0
  -28.9223  -26.6340   19.4544 N   0  0  0  0  0  0  0  0  0  0  0  0
  -27.3948  -31.4231   21.1301 N   0  0  0  0  0  0  0  0  0  0  0  0
  -23.4266  -31.6170   23.2776 N   0  0  0  0  0  0  0  0  0  0  0  0
  -22.7001  -19.6730   22.7166 N   0  0  0  0  0  0  0  0  0  0  0  0
  -21.9989  -12.9264   22.0437 N   0  0  0  0  0  0  0  0  0  0  0  0
  -30.1503  -25.8560   21.3201 N   0  0  0  0  0  0  0  0  0  0  0  0
  -22.8527  -10.9444   19.1436 N   0  3  0  0  0  0  0  0  0  0  0  0
  -25.2993  -32.8146   22.7142 O   0  0  0  0  0  0  0  0  0  0  0  0
  -23.4528  -17.8148   23.9010 O   0  0  0  0  0  0  0  0  0  0  0  0
  -20.8834  -15.5496   22.3319 O   0  0  0  0  0  0  0  0  0  0  0  0
  -24.0834  -12.1862   21.3481 O   0  0  0  0  0  0  0  0  0  0  0  0
  -30.9626  -25.5623   19.1962 O   0  0  0  0  0  0  0  0  0  0  0  0
  -19.7147  -27.4861   23.7174 O   0  0  0  0  0  0  0  0  0  0  0  0
  -29.1207  -16.7215   20.7096 O   0  0  0  0  0  0  0  0  0  1  0  0
  -15.3509  -30.8044   23.1258 F   0  0  0  0  0  0  0  0  0  0  0  0
  -17.5051  -26.6782   22.2657 F   0  0  0  0  0  0  0  0  0  0  0  0
  1  2  1  0  0  0  0
  1  5  2  0  0  0  0
  2  6  2  0  0  0  0
  3  8  2  0  0  0  0
  3 16  1  0  0  0  0
  4  9  1  0  0  0  0
  4 16  2  0  0  0  0
  5 18  1  0  0  0  0
  6 20  1  0  0  0  0
  7 10  2  0  0  0  0
  7 19  1  0  0  0  0
  8 24  1  0  0  0  0
  9 24  2  0  0  0  0
 10 25  1  0  0  0  0
 11 12  2  0  0  0  0
 11 26  1  0  0  0  0
 12 27  1  0  0  0  0
 13 21  1  0  0  0  0
 13 25  2  0  0  0  0
 14 22  1  0  0  0  0
 14 30  2  0  0  0  0
 15 27  2  0  0  0  0
 15 28  1  0  0  0  0
 16 29  1  0  0  0  0
 17 29  1  0  0  0  0
 17 32  2  0  0  0  0
 17 33  1  0  0  0  0
 18 20  2  0  0  0  0
 18 38  1  0  0  0  0
 19 21  2  0  0  0  0
 19 39  1  0  0  0  0
 20 49  1  0  0  0  0
 21 41  1  0  0  0  0
 22 23  2  0  0  0  0
 22 40  1  0  0  0  0
 23 31  1  0  0  0  0
 23 48  1  0  0  0  0
 24 83  1  0  0  0  0
 25 84  1  0  0  0  0
 26 28  2  0  0  0  0
 26 83  1  0  0  0  0
 27 85  1  0  0  0  0
 28 86  1  0  0  0  0
 29 67  2  0  0  0  0
 30 62  1  0  0  0  0
 30 68  1  0  0  0  0
 31 52  1  0  0  0  0
 31 68  2  0  0  0  0
 32 69  1  0  0  0  0
 32 72  1  0  0  0  0
 33 73  1  0  0  0  0
 33 78  2  0  0  0  0
 34 50  1  0  0  0  0
 34 74  1  0  0  0  0
 34 79  2  0  0  0  0
 35 63  1  0  0  0  0
 35 70  1  0  0  0  0
 35 80  2  0  0  0  0
 36 64  1  0  0  0  0
 36 75  1  0  0  0  0
 36 81  2  0  0  0  0
 37 71  1  0  0  0  0
 37 76  1  0  0  0  0
 37 82  2  0  0  0  0
 38 42  1  0  0  0  0
 39 50  1  0  0  0  0
 40 48  1  0  0  0  0
 41 70  1  0  0  0  0
 42 44  1  0  0  0  0
 43 45  1  0  0  0  0
 43 46  1  0  0  0  0
 44 49  1  0  0  0  0
 45 51  1  0  0  0  0
 46 71  1  0  0  0  0
 47 51  1  0  0  0  0
 47 71  1  0  0  0  0
 48 61  1  0  0  0  0
 49 74  1  0  0  0  0
 50 70  1  0  0  0  0
 51 69  1  0  0  0  0
 53 62  1  0  0  0  0
 54 64  1  0  0  0  0
 55 65  1  0  0  0  0
 56 65  1  0  0  0  0
 57 65  1  0  0  0  0
 58 66  1  0  0  0  0
 59 66  1  0  0  0  0
 60 77  1  0  0  0  0
 61 66  1  0  0  0  0
 62 76  1  0  0  0  0
 63 65  1  0  0  0  0
 63 75  1  0  0  0  0
 64 77  1  0  0  0  0
 66 84  1  0  0  0  0
 67 69  1  0  0  0  0
M  CHG  1  77   1
M  ISO  4  37 100  66 101  76 100  84 101
M  END
> <Batch ID>
0175

> <Smiles>
CNC(C)C(=O)NC(C(=O)N1Cc2cc([101O:1][101C:1](C)(C)CC3Cc4cc(C(C)[100NH:0][100C:0](=O)N5CCCC(n6nc(-c7ccc(Oc8ccc(F)cc8F)cc7)c(C(N)=O)c6N)C5)nc(C)c43)ccc2CC1C(=O)NC1CCCc2ccccc21)C(C)(C)C

> <Shape>
0.230

> <Color>
0.057

> <Negative vol penalty>
0.000

$$$$

  -OEChem-04052322473D

 84 93  0     1  0  0  0  0  0999 V2000
  -23.9637  -34.8720   14.3392 C   0  0  0  0  0  0  0  0  0  0  0  0
  -24.2171  -33.5341   14.6242 C   0  0  0  0  0  0  0  0  0  0  0  0
  -24.7085   -8.4917   21.2412 C   0  0  0  0  0  0  0  0  0  0  0  0
  -23.3025  -10.0204   20.0069 C   0  0  0  0  0  0  0  0  0  0  0  0
  -24.4560  -35.8683   15.1812 C   0  0  0  0  0  0  0  0  0  0  0  0
  -24.9640  -33.1917   15.7509 C   0  0  0  0  0  0  0  0  0  0  0  0
  -26.9850  -21.1173   20.4932 C   0  0  0  0  0  0  0  0  0  0  0  0
  -24.2139  -28.2621   19.3064 C   0  0  0  0  0  0  0  0  0  0  0  0
  -26.2746  -22.2984   20.2789 C   0  0  0  0  0  0  0  0  0  0  0  0
  -23.5776   -7.7944   21.6658 C   0  0  0  0  0  0  0  0  0  0  0  0
  -22.1716   -9.3230   20.4315 C   0  0  0  0  0  0  0  0  0  0  0  0
  -24.8646  -27.0299   19.3509 C   0  0  0  0  0  0  0  0  0  0  0  0
  -21.1579   -8.1573   23.9977 C   0  0  0  0  0  0  0  0  0  0  0  0
  -21.0861   -7.7984   25.3436 C   0  0  0  0  0  0  0  0  0  0  0  0
  -26.2949  -27.8554   21.1093 C   0  0  0  0  0  0  0  0  0  0  0  0
  -20.9655   -5.4684   24.7160 C   0  0  0  0  0  0  0  0  0  0  0  0
  -24.5710   -9.6048   20.4118 C   0  0  0  0  0  0  0  0  0  0  0  0
  -26.4987  -10.0879   18.8123 C   0  0  0  0  0  0  0  0  0  0  0  0
  -25.2011  -35.5375   16.3241 C   0  0  0  0  0  0  0  0  0  0  0  0
  -24.6066  -29.3055   20.1569 C   0  0  0  0  0  0  0  0  0  0  0  0
  -25.4678  -34.1846   16.6083 C   0  0  0  0  0  0  0  0  0  0  0  0
  -28.2990  -21.0017   20.0394 C   0  0  0  0  0  0  0  0  0  0  0  0
  -25.6458  -29.0991   21.0754 C   0  0  0  0  0  0  0  0  0  0  0  0
  -26.8780  -23.3638   19.6108 C   0  0  0  0  0  0  0  0  0  0  0  0
  -28.9024  -22.0671   19.3712 C   0  0  0  0  0  0  0  0  0  0  0  0
  -28.1919  -23.2482   19.1569 C   0  0  0  0  0  0  0  0  0  0  0  0
  -22.3092   -8.2100   21.2610 C   0  0  0  0  0  0  0  0  0  0  0  0
  -25.9072  -26.8273   20.2504 C   0  0  0  0  0  0  0  0  0  0  0  0
  -21.1333   -7.1717   23.0108 C   0  0  0  0  0  0  0  0  0  0  0  0
  -20.9900   -6.4540   25.7028 C   0  0  0  0  0  0  0  0  0  0  0  0
  -21.0372   -5.8273   23.3700 C   0  0  0  0  0  0  0  0  0  0  0  0
  -25.7388  -10.3259   19.9732 C   0  0  0  0  0  0  0  0  0  0  0  0
  -27.4923  -11.0353   18.8522 C   0  0  0  0  0  0  0  0  0  0  0  0
  -26.3221   -9.0989   17.7894 C   0  0  0  0  0  0  0  0  0  0  0  0
  -25.7791  -32.2286   19.7276 C   0  0  0  0  0  0  0  0  0  0  0  0
  -25.4077  -32.4278   22.9439 C   0  0  0  0  0  0  0  0  0  0  0  0
  -25.1601  -30.8081   25.9376 C   0  0  0  0  0  0  0  0  0  0  0  0
  -28.9470  -16.2965   19.5360 C   0  0  0  0  0  0  0  0  0  0  0  0
  -25.7525  -36.6513   17.1786 C   0  0  0  0  0  0  0  0  0  0  0  0
  -23.8769  -30.6201   20.1151 C   0  0  0  0  0  0  0  0  0  0  0  0
  -26.0922  -30.1805   22.0240 C   0  0  0  0  0  0  0  0  0  0  0  0
  -26.2171  -36.1884   18.5571 C   0  0  0  0  0  0  0  0  0  0  0  0
  -28.9502  -14.1540   22.5235 C   0  0  0  0  0  0  0  0  0  0  0  0
  -27.0637  -34.9251   18.4387 C   0  0  0  0  0  0  0  0  0  0  0  0
  -28.1081  -12.9783   22.0409 C   0  0  0  0  0  0  0  0  0  0  0  0
  -28.5108  -15.4805   21.9031 C   0  0  0  0  0  0  0  0  0  0  0  0
  -28.3210  -18.4347   20.8723 C   0  0  0  0  0  0  0  0  0  0  0  0
  -29.4424  -18.7482   19.0951 C   0  0  0  0  0  0  0  0  0  0  0  0
  -27.6032  -14.2620   19.9348 C   0  0  0  0  0  0  0  0  0  0  0  0
  -29.0861  -19.6489   20.2957 C   0  0  0  0  0  0  0  0  0  0  0  0
  -26.2529  -33.7722   17.8345 C   0  0  1  0  0  0  0  0  0  0  0  0
  -24.6998  -31.7782   20.6709 C   0  0  1  0  0  0  0  0  0  0  0  0
  -28.0934  -12.9248   20.5064 C   0  0  2  0  0  0  0  0  0  0  0  0
  -28.8375  -24.3914   18.4397 C   0  0  0  0  0  0  0  0  0  0  0  0
  -30.3841  -21.6902   17.3840 C   0  0  0  0  0  0  0  0  0  0  0  0
  -24.9005  -31.2407   28.3958 C   0  0  0  0  0  0  0  0  0  0  0  0
  -28.3405  -33.2538   23.1058 C   0  0  0  0  0  0  0  0  0  0  0  0
  -28.2755  -32.7479   25.5569 C   0  0  0  0  0  0  0  0  0  0  0  0
  -26.8113  -34.5342   24.6146 C   0  0  0  0  0  0  0  0  0  0  0  0
  -22.5975  -29.3313   26.0449 C   0  0  0  0  0  0  0  0  0  0  0  0
  -30.3116  -21.9377   18.8869 C   0  0  0  0  0  0  0  0  0  0  0  0
  -26.0946  -24.6167   19.3938 C   0  0  0  0  0  0  0  0  0  1  0  0
  -26.2703  -32.1103   24.1415 C   0  0  1  0  0  0  0  0  0  0  0  0
  -24.1796  -30.9594   27.0867 C   0  0  2  0  0  0  0  0  0  0  0  0
  -27.4175  -33.1416   24.3356 C   0  0  0  0  0  0  0  0  0  0  0  0
  -26.2094  -11.3446   20.6977 N   0  0  0  0  0  0  0  0  0  0  0  0
  -27.2758  -11.7550   19.9903 N   0  0  0  0  0  0  0  0  0  0  0  0
  -25.3518  -31.4502   21.9404 N   0  0  0  0  0  0  0  0  0  0  0  0
  -28.3823  -15.3952   20.4447 N   0  0  0  0  0  0  0  0  0  0  0  0
  -29.0764  -17.6116   19.9355 N   0  0  0  0  0  0  0  0  0  0  0  0
  -28.5215  -11.3146   18.0243 N   0  0  0  0  0  0  0  0  0  0  0  0
  -25.2499   -8.2036   17.9036 N   0  0  0  0  0  0  0  0  0  0  0  0
  -25.3732  -33.1972   18.8295 N   0  0  0  0  0  0  0  0  0  0  0  0
  -25.3645  -32.0027   25.2800 N   0  0  0  0  0  0  0  0  0  0  0  0
  -23.3771  -29.7143   27.2501 N   0  3  0  0  0  0  0  0  0  0  0  0
  -27.1021   -9.0012   16.8118 O   0  0  0  0  0  0  0  0  0  0  0  0
  -26.8978  -31.7351   19.8095 O   0  0  0  0  0  0  0  0  0  0  0  0
  -24.8000  -33.5005   22.9038 O   0  0  0  0  0  0  0  0  0  0  0  0
  -25.6942  -29.7381   25.6542 O   0  0  0  0  0  0  0  0  0  0  0  0
  -29.2929  -15.9528   18.3986 O   0  0  0  0  0  0  0  0  0  0  0  0
  -21.2054   -7.5296   21.6750 O   0  0  0  0  0  0  0  0  0  0  0  0
  -26.5490  -25.6172   20.2957 O   0  0  0  0  0  0  0  0  0  1  0  0
  -20.9227   -6.1094   26.9954 F   0  0  0  0  0  0  0  0  0  0  0  0
  -21.0144   -4.8760   22.4264 F   0  0  0  0  0  0  0  0  0  0  0  0
  1  2  1  0  0  0  0
  1  5  2  0  0  0  0
  2  6  2  0  0  0  0
  3 10  2  0  0  0  0
  3 17  1  0  0  0  0
  4 11  1  0  0  0  0
  4 17  2  0  0  0  0
  5 19  1  0  0  0  0
  6 21  1  0  0  0  0
  7  9  1  0  0  0  0
  7 22  2  0  0  0  0
  8 12  2  0  0  0  0
  8 20  1  0  0  0  0
  9 24  2  0  0  0  0
 10 27  1  0  0  0  0
 11 27  2  0  0  0  0
 12 28  1  0  0  0  0
 13 14  2  0  0  0  0
 13 29  1  0  0  0  0
 14 30  1  0  0  0  0
 15 23  1  0  0  0  0
 15 28  2  0  0  0  0
 16 30  2  0  0  0  0
 16 31  1  0  0  0  0
 17 32  1  0  0  0  0
 18 32  1  0  0  0  0
 18 33  2  0  0  0  0
 18 34  1  0  0  0  0
 19 21  2  0  0  0  0
 19 39  1  0  0  0  0
 20 23  2  0  0  0  0
 20 40  1  0  0  0  0
 21 51  1  0  0  0  0
 22 25  1  0  0  0  0
 22 50  1  0  0  0  0
 23 41  1  0  0  0  0
 24 26  1  0  0  0  0
 24 62  1  0  0  0  0
 25 26  2  0  0  0  0
 25 61  1  0  0  0  0
 26 54  1  0  0  0  0
 27 81  1  0  0  0  0
 28 82  1  0  0  0  0
 29 31  2  0  0  0  0
 29 81  1  0  0  0  0
 30 83  1  0  0  0  0
 31 84  1  0  0  0  0
 32 66  2  0  0  0  0
 33 67  1  0  0  0  0
 33 71  1  0  0  0  0
 34 72  1  0  0  0  0
 34 76  2  0  0  0  0
 35 52  1  0  0  0  0
 35 73  1  0  0  0  0
 35 77  2  0  0  0  0
 36 63  1  0  0  0  0
 36 68  1  0  0  0  0
 36 78  2  0  0  0  0
 37 64  1  0  0  0  0
 37 74  1  0  0  0  0
 37 79  2  0  0  0  0
 38 69  1  0  0  0  0
 38 70  1  0  0  0  0
 38 80  2  0  0  0  0
 39 42  1  0  0  0  0
 40 52  1  0  0  0  0
 41 68  1  0  0  0  0
 42 44  1  0  0  0  0
 43 45  1  0  0  0  0
 43 46  1  0  0  0  0
 44 51  1  0  0  0  0
 45 53  1  0  0  0  0
 46 69  1  0  0  0  0
 47 50  1  0  0  0  0
 47 70  1  0  0  0  0
 48 50  1  0  0  0  0
 48 70  1  0  0  0  0
 49 53  1  0  0  0  0
 49 69  1  0  0  0  0
 51 73  1  0  0  0  0
 52 68  1  0  0  0  0
 53 67  1  0  0  0  0
 55 61  1  0  0  0  0
 56 64  1  0  0  0  0
 57 65  1  0  0  0  0
 58 65  1  0  0  0  0
 59 65  1  0  0  0  0
 60 75  1  0  0  0  0
 62 82  1  0  0  0  0
 63 65  1  0  0  0  0
 63 74  1  0  0  0  0
 64 75  1  0  0  0  0
 66 67  1  0  0  0  0
M  CHG  1  75   1
M  ISO  4  38 100  62 101  70 100  82 101
M  END
> <Batch ID>
0175

> <Smiles>
CCc1c(C2C[100N:0]([100C:0](=O)N3CCCC(n4nc(-c5ccc(Oc6ccc(F)cc6F)cc5)c(C(N)=O)c4N)C3)C2)ccc([101CH2:1][101O:1]c2ccc3c(c2)CN(C(=O)C(NC(=O)C(C)NC)C(C)(C)C)C(C(=O)NC2CCCc4ccccc42)C3)c1C

> <Shape>
0.291

> <Color>
0.068

> <Negative vol penalty>
0.000

$$$$

  -OEChem-04052322473D

 82 91  0     1  0  0  0  0  0999 V2000
  -25.8111  -32.4315   28.0896 C   0  0  0  0  0  0  0  0  0  0  0  0
  -26.1707  -31.0885   28.1383 C   0  0  0  0  0  0  0  0  0  0  0  0
  -23.1314   -9.8674   21.4474 C   0  0  0  0  0  0  0  0  0  0  0  0
  -24.0100  -10.7368   23.5233 C   0  0  0  0  0  0  0  0  0  0  0  0
  -25.6187  -33.0562   26.8580 C   0  0  0  0  0  0  0  0  0  0  0  0
  -26.3370  -30.3690   26.9555 C   0  0  0  0  0  0  0  0  0  0  0  0
  -30.2274  -25.0424   24.1611 C   0  0  0  0  0  0  0  0  0  0  0  0
  -22.4623   -8.8654   22.1502 C   0  0  0  0  0  0  0  0  0  0  0  0
  -23.3407   -9.7348   24.2261 C   0  0  0  0  0  0  0  0  0  0  0  0
  -30.0696  -23.8339   23.4841 C   0  0  0  0  0  0  0  0  0  0  0  0
  -23.2195   -5.9028   23.5902 C   0  0  0  0  0  0  0  0  0  0  0  0
  -23.2897   -4.6031   23.0888 C   0  0  0  0  0  0  0  0  0  0  0  0
  -29.7881  -25.0379   21.4128 C   0  0  0  0  0  0  0  0  0  0  0  0
  -20.8846   -4.5599   22.8639 C   0  0  0  0  0  0  0  0  0  0  0  0
  -23.9053  -10.8030   22.1340 C   0  0  0  0  0  0  0  0  0  0  0  0
  -24.1097  -13.1169   21.0795 C   0  0  0  0  0  0  0  0  0  0  0  0
  -25.7922  -32.3466   25.6593 C   0  0  0  0  0  0  0  0  0  0  0  0
  -30.1557  -26.2602   23.4697 C   0  0  0  0  0  0  0  0  0  0  0  0
  -26.1455  -30.9845   25.7068 C   0  0  0  0  0  0  0  0  0  0  0  0
  -29.9478  -26.2604   22.0830 C   0  0  0  0  0  0  0  0  0  0  0  0
  -22.5669   -8.7992   23.5395 C   0  0  0  0  0  0  0  0  0  0  0  0
  -29.8471  -23.8316   22.1102 C   0  0  0  0  0  0  0  0  0  0  0  0
  -21.9818   -6.5311   23.7285 C   0  0  0  0  0  0  0  0  0  0  0  0
  -22.1223   -3.9316   22.7257 C   0  0  0  0  0  0  0  0  0  0  0  0
  -20.8144   -5.8596   23.3653 C   0  0  0  0  0  0  0  0  0  0  0  0
  -24.5973  -11.8379   21.4085 C   0  0  0  0  0  0  0  0  0  0  0  0
  -25.1410  -13.7119   20.3948 C   0  0  0  0  0  0  0  0  0  0  0  0
  -22.8382  -13.7137   21.3671 C   0  0  0  0  0  0  0  0  0  0  0  0
  -28.2522  -28.8028   23.5961 C   0  0  0  0  0  0  0  0  0  0  0  0
  -30.3706  -30.0097   21.4564 C   0  0  0  0  0  0  0  0  0  0  0  0
  -32.7304  -29.4136   19.0642 C   0  0  0  0  0  0  0  0  0  0  0  0
  -30.7338  -14.7504   20.3512 C   0  0  0  0  0  0  0  0  0  0  0  0
  -25.5270  -33.0523   24.3530 C   0  0  0  0  0  0  0  0  0  0  0  0
  -30.3545  -27.5542   24.2103 C   0  0  0  0  0  0  0  0  0  0  0  0
  -29.8826  -27.5399   21.2911 C   0  0  0  0  0  0  0  0  0  0  0  0
  -26.0887  -32.3173   23.1387 C   0  0  0  0  0  0  0  0  0  0  0  0
  -29.4251  -11.7938   18.5383 C   0  0  0  0  0  0  0  0  0  0  0  0
  -25.7412  -30.8335   23.2049 C   0  0  0  0  0  0  0  0  0  0  0  0
  -28.0417  -11.6112   19.1599 C   0  0  0  0  0  0  0  0  0  0  0  0
  -31.3418  -18.0793   21.1164 C   0  0  0  0  0  0  0  0  0  0  0  0
  -29.2834  -17.8869   19.6646 C   0  0  0  0  0  0  0  0  0  0  0  0
  -29.8765  -22.1763   19.1020 C   0  0  0  0  0  0  0  0  0  0  0  0
  -30.3993  -12.4550   19.5082 C   0  0  0  0  0  0  0  0  0  0  0  0
  -30.9561  -16.7606   21.7813 C   0  0  0  0  0  0  0  0  0  0  0  0
  -28.9517  -16.5540   20.3421 C   0  0  0  0  0  0  0  0  0  0  0  0
  -28.5271  -13.5679   20.6824 C   0  0  0  0  0  0  0  0  0  0  0  0
  -29.3562  -20.7579   19.2101 C   0  0  0  0  0  0  0  0  0  0  0  0
  -26.3595  -30.1769   24.4450 C   0  0  1  0  0  0  0  0  0  0  0  0
  -29.7501  -28.7547   23.4886 C   0  0  1  0  0  0  0  0  0  0  0  0
  -27.5104  -12.9442   19.7143 C   0  0  2  0  0  0  0  0  0  0  0  0
  -30.0951  -18.7887   20.5920 C   0  0  0  0  0  0  0  0  0  0  0  0
  -30.6306  -22.3665   20.4086 C   0  0  2  0  0  0  0  0  0  1  0  0
  -31.3089  -21.0210   20.6769 C   0  0  2  0  0  0  0  0  0  0  0  0
  -32.7566  -20.9836   20.2052 C   0  0  0  0  0  0  0  0  0  0  0  0
  -34.2588  -30.5998   17.4660 C   0  0  0  0  0  0  0  0  0  0  0  0
  -27.9987  -30.5996   19.6299 C   0  0  0  0  0  0  0  0  0  0  0  0
  -29.6143  -30.8778   17.7377 C   0  0  0  0  0  0  0  0  0  0  0  0
  -29.7292  -32.4034   19.7080 C   0  0  0  0  0  0  0  0  0  0  0  0
  -35.1424  -28.2586   20.3320 C   0  0  0  0  0  0  0  0  0  0  0  0
  -30.4904  -30.0048   19.9516 C   0  0  1  0  0  0  0  0  0  0  0  0
  -34.1183  -29.9909   18.8525 C   0  0  2  0  0  0  0  0  0  0  0  0
  -29.4574  -30.9472   19.2717 C   0  0  0  0  0  0  0  0  0  0  0  0
  -25.8416  -11.6317   20.9689 N   0  0  0  0  0  0  0  0  0  0  0  0
  -26.1445  -12.7890   20.3566 N   0  0  0  0  0  0  0  0  0  0  0  0
  -30.0767  -28.7794   22.0614 N   0  0  0  0  0  0  0  0  0  0  0  0
  -29.8530  -13.6957   20.0584 N   0  0  0  0  0  0  0  0  0  0  0  0
  -30.1683  -15.9229   20.8748 N   0  0  0  0  0  0  0  0  0  0  0  0
  -25.2783  -14.9293   19.8277 N   0  0  0  0  0  0  0  0  0  0  0  0
  -21.8937  -12.9630   22.0804 N   0  0  0  0  0  0  0  0  0  0  0  0
  -27.7699  -29.9289   24.2354 N   0  0  0  0  0  0  0  0  0  0  0  0
  -31.8813  -30.3274   19.6518 N   0  0  0  0  0  0  0  0  0  0  0  0
  -30.5070  -20.0065   19.8470 N   0  3  2  0  0  0  0  0  0  0  0  0
  -35.1507  -28.9271   19.0054 N   0  3  0  0  0  0  0  0  0  0  0  0
  -22.5421  -14.8723   20.9882 O   0  0  0  0  0  0  0  0  0  0  0  0
  -27.5834  -27.8868   23.1320 O   0  0  0  0  0  0  0  0  0  0  0  0
  -30.5387  -31.0648   22.0731 O   0  0  0  0  0  0  0  0  0  0  0  0
  -32.4286  -28.2679   18.7374 O   0  0  0  0  0  0  0  0  0  0  0  0
  -31.9512  -14.6498   20.1539 O   0  0  0  0  0  0  0  0  0  0  0  0
  -21.9138   -7.8217   24.2256 O   0  0  0  0  0  0  0  0  0  0  0  0
  -29.6912  -22.6464   21.4431 O   0  0  0  0  0  0  0  0  0  1  0  0
  -22.1900   -2.6840   22.2428 F   0  0  0  0  0  0  0  0  0  0  0  0
  -19.6226   -6.4584   23.4948 F   0  0  0  0  0  0  0  0  0  0  0  0
  1  2  1  0  0  0  0
  1  5  2  0  0  0  0
  2  6  2  0  0  0  0
  3  8  2  0  0  0  0
  3 15  1  0  0  0  0
  4  9  1  0  0  0  0
  4 15  2  0  0  0  0
  5 17  1  0  0  0  0
  6 19  1  0  0  0  0
  7 10  2  0  0  0  0
  7 18  1  0  0  0  0
  8 21  1  0  0  0  0
  9 21  2  0  0  0  0
 10 22  1  0  0  0  0
 11 12  2  0  0  0  0
 11 23  1  0  0  0  0
 12 24  1  0  0  0  0
 13 20  1  0  0  0  0
 13 22  2  0  0  0  0
 14 24  2  0  0  0  0
 14 25  1  0  0  0  0
 15 26  1  0  0  0  0
 16 26  1  0  0  0  0
 16 27  2  0  0  0  0
 16 28  1  0  0  0  0
 17 19  2  0  0  0  0
 17 33  1  0  0  0  0
 18 20  2  0  0  0  0
 18 34  1  0  0  0  0
 19 48  1  0  0  0  0
 20 35  1  0  0  0  0
 21 79  1  0  0  0  0
 22 80  1  0  0  0  0
 23 25  2  0  0  0  0
 23 79  1  0  0  0  0
 24 81  1  0  0  0  0
 25 82  1  0  0  0  0
 26 63  2  0  0  0  0
 27 64  1  0  0  0  0
 27 68  1  0  0  0  0
 28 69  1  0  0  0  0
 28 74  2  0  0  0  0
 29 49  1  0  0  0  0
 29 70  1  0  0  0  0
 29 75  2  0  0  0  0
 30 60  1  0  0  0  0
 30 65  1  0  0  0  0
 30 76  2  0  0  0  0
 31 61  1  0  0  0  0
 31 71  1  0  0  0  0
 31 77  2  0  0  0  0
 32 66  1  0  0  0  0
 32 67  1  0  0  0  0
 32 78  2  0  0  0  0
 33 36  1  0  0  0  0
 34 49  1  0  0  0  0
 35 65  1  0  0  0  0
 36 38  1  0  0  0  0
 37 39  1  0  0  0  0
 37 43  1  0  0  0  0
 38 48  1  0  0  0  0
 39 50  1  0  0  0  0
 40 44  1  0  0  0  0
 40 51  1  0  0  0  0
 41 45  1  0  0  0  0
 41 51  1  0  0  0  0
 42 47  1  0  0  0  0
 42 52  1  0  0  0  0
 43 66  1  0  0  0  0
 44 67  1  0  0  0  0
 45 67  1  0  0  0  0
 46 50  1  0  0  0  0
 46 66  1  0  0  0  0
 47 72  1  0  0  0  0
 48 70  1  0  0  0  0
 49 65  1  0  0  0  0
 50 64  1  0  0  0  0
 51 72  1  0  0  0  0
 52 53  1  0  0  0  0
 52 80  1  0  0  0  0
 53 54  1  0  0  0  0
 53 72  1  0  0  0  0
 55 61  1  0  0  0  0
 56 62  1  0  0  0  0
 57 62  1  0  0  0  0
 58 62  1  0  0  0  0
 59 73  1  0  0  0  0
 60 62  1  0  0  0  0
 60 71  1  0  0  0  0
 61 73  1  0  0  0  0
 63 64  1  0  0  0  0
M  CHG  2  72   1  73   1
M  ISO  4  32 100  52 101  67 100  80 101
M  END
> <Batch ID>
0175

> <Smiles>
CNC(C)C(=O)NC(C(=O)N1Cc2cc([101O:1][101CH:1]3CCN(C4CC[100N:0]([100C:0](=O)N5CCCC(n6nc(-c7ccc(Oc8ccc(F)cc8F)cc7)c(C(N)=O)c6N)C5)CC4)C3C)ccc2CC1C(=O)NC1CCCc2ccccc21)C(C)(C)C

> <Shape>
0.283

> <Color>
0.156

> <Negative vol penalty>
0.000

$$$$

  -OEChem-04052322473D

 84 93  0     1  0  0  0  0  0999 V2000
  -18.8084  -28.4655   18.4927 C   0  0  0  0  0  0  0  0  0  0  0  0
  -19.5702  -27.3573   18.8492 C   0  0  0  0  0  0  0  0  0  0  0  0
  -23.0016   -9.8903   19.9853 C   0  0  0  0  0  0  0  0  0  0  0  0
  -23.7267   -9.9511   22.2891 C   0  0  0  0  0  0  0  0  0  0  0  0
  -19.4374  -29.6649   18.1614 C   0  0  0  0  0  0  0  0  0  0  0  0
  -20.9615  -27.4476   18.8736 C   0  0  0  0  0  0  0  0  0  0  0  0
  -24.7672  -24.6153   22.7466 C   0  0  0  0  0  0  0  0  0  0  0  0
  -22.2366   -8.7558   20.2560 C   0  0  0  0  0  0  0  0  0  0  0  0
  -22.9617   -8.8166   22.5599 C   0  0  0  0  0  0  0  0  0  0  0  0
  -25.5331  -23.4562   22.6296 C   0  0  0  0  0  0  0  0  0  0  0  0
  -23.2106   -5.4762   22.1007 C   0  0  0  0  0  0  0  0  0  0  0  0
  -23.7996   -4.4627   22.8567 C   0  0  0  0  0  0  0  0  0  0  0  0
  -29.2945  -18.5985   20.9012 C   0  0  0  0  0  0  0  0  0  0  0  0
  -27.4459  -24.7897   22.0115 C   0  0  0  0  0  0  0  0  0  0  0  0
  -28.4772  -19.4456   23.4130 C   0  0  0  0  0  0  0  0  0  0  0  0
  -22.0754   -4.7097   24.5310 C   0  0  0  0  0  0  0  0  0  0  0  0
  -23.7467  -10.4880   21.0019 C   0  0  0  0  0  0  0  0  0  0  0  0
  -24.1285  -13.0034   20.8163 C   0  0  0  0  0  0  0  0  0  0  0  0
  -20.8367  -29.7727   18.1911 C   0  0  0  0  0  0  0  0  0  0  0  0
  -25.3330  -25.8716   22.4859 C   0  0  0  0  0  0  0  0  0  0  0  0
  -21.6098  -28.6492   18.5411 C   0  0  0  0  0  0  0  0  0  0  0  0
  -29.8200  -17.9808   22.0522 C   0  0  0  0  0  0  0  0  0  0  0  0
  -26.6858  -25.9634   22.1285 C   0  0  0  0  0  0  0  0  0  0  0  0
  -28.3717  -19.6323   21.0081 C   0  0  0  0  0  0  0  0  0  0  0  0
  -27.9642  -20.0568   22.2646 C   0  0  0  0  0  0  0  0  0  0  0  0
  -29.4098  -18.3905   23.3449 C   0  0  0  0  0  0  0  0  0  0  0  0
  -22.2167   -8.2190   21.5433 C   0  0  0  0  0  0  0  0  0  0  0  0
  -26.8719  -23.5430   22.2592 C   0  0  0  0  0  0  0  0  0  0  0  0
  -22.0541   -6.1065   22.5599 C   0  0  0  0  0  0  0  0  0  0  0  0
  -23.2320   -4.0794   24.0718 C   0  0  0  0  0  0  0  0  0  0  0  0
  -21.4865   -5.7232   23.7750 C   0  0  0  0  0  0  0  0  0  0  0  0
  -24.5375  -11.6596   20.7228 C   0  0  0  0  0  0  0  0  0  0  0  0
  -25.2373  -13.7261   20.4491 C   0  0  0  0  0  0  0  0  0  0  0  0
  -22.8598  -13.5495   21.2007 C   0  0  0  0  0  0  0  0  0  0  0  0
  -24.7822  -28.1861   20.3781 C   0  0  0  0  0  0  0  0  0  0  0  0
  -27.0046  -29.7748   22.1272 C   0  0  0  0  0  0  0  0  0  0  0  0
  -29.6672  -29.6214   24.2565 C   0  0  0  0  0  0  0  0  0  0  0  0
  -30.7324  -14.6693   20.6940 C   0  0  0  0  0  0  0  0  0  0  0  0
  -21.4732  -31.0765   17.7792 C   0  0  0  0  0  0  0  0  0  0  0  0
  -24.5005  -27.1145   22.6426 C   0  0  0  0  0  0  0  0  0  0  0  0
  -27.3461  -27.2897   21.8575 C   0  0  0  0  0  0  0  0  0  0  0  0
  -22.9378  -31.1967   18.1926 C   0  0  0  0  0  0  0  0  0  0  0  0
  -29.5950  -12.2351   18.3578 C   0  0  0  0  0  0  0  0  0  0  0  0
  -23.6963  -29.9189   17.8482 C   0  0  0  0  0  0  0  0  0  0  0  0
  -28.1469  -11.9749   18.7764 C   0  0  0  0  0  0  0  0  0  0  0  0
  -31.6457  -16.6566   23.1340 C   0  0  0  0  0  0  0  0  0  0  0  0
  -30.4971  -12.4763   19.5661 C   0  0  0  0  0  0  0  0  0  0  0  0
  -30.7558  -16.5853   24.3671 C   0  0  0  0  0  0  0  0  0  0  0  0
  -28.5859  -13.2743   20.9019 C   0  0  0  0  0  0  0  0  0  0  0  0
  -23.1204  -28.7149   18.6033 C   0  0  1  0  0  0  0  0  0  0  0  0
  -30.8121  -16.8528   21.8708 C   0  0  1  0  0  0  0  0  0  0  0  0
  -25.0442  -28.3013   21.8531 C   0  0  1  0  0  0  0  0  0  0  0  0
  -27.6271  -13.0808   19.7146 C   0  0  2  0  0  0  0  0  0  0  0  0
  -27.8380  -20.2662   19.7666 C   0  0  0  0  0  0  0  0  0  0  0  0
  -31.2956  -31.0848   25.4829 C   0  0  0  0  0  0  0  0  0  0  0  0
  -28.5206  -30.2646   19.5249 C   0  0  0  0  0  0  0  0  0  0  0  0
  -30.5325  -30.8607   20.8906 C   0  0  0  0  0  0  0  0  0  0  0  0
  -28.4520  -32.2244   21.0771 C   0  0  0  0  0  0  0  0  0  0  0  0
  -29.4447  -18.1383   25.8164 C   0  0  0  0  0  0  0  0  0  0  0  0
  -28.7607  -28.6211   26.8902 C   0  0  0  0  0  0  0  0  0  0  0  0
  -26.9721  -21.1721   22.4166 C   0  0  0  0  0  0  0  0  0  1  0  0
  -28.5079  -29.9049   22.0816 C   0  0  1  0  0  0  0  0  0  0  0  0
  -29.9639  -30.3537   25.5527 C   0  0  2  0  0  0  0  0  0  0  0  0
  -28.9906  -30.7884   20.8967 C   0  0  0  0  0  0  0  0  0  0  0  0
  -25.8070  -11.5334   20.3271 N   0  0  0  0  0  0  0  0  0  0  0  0
  -26.2052  -12.8071   20.1686 N   0  0  0  0  0  0  0  0  0  0  0  0
  -29.9308  -17.7861   24.4893 N   0  0  3  0  0  0  0  0  0  0  0  0
  -26.4887  -28.4757   22.0179 N   0  0  0  0  0  0  0  0  0  0  0  0
  -29.9488  -13.5375   20.4142 N   0  0  0  0  0  0  0  0  0  0  0  0
  -25.4689  -15.0518   20.3419 N   0  0  0  0  0  0  0  0  0  0  0  0
  -21.8292  -12.6653   21.5476 N   0  0  0  0  0  0  0  0  0  0  0  0
  -23.5711  -28.7183   19.9786 N   0  0  0  0  0  0  0  0  0  0  0  0
  -28.9155  -30.3921   23.3950 N   0  0  0  0  0  0  0  0  0  0  0  0
  -30.1347  -15.6303   21.5002 N   0  0  0  0  0  0  0  0  0  0  0  0
  -30.0143  -29.3928   26.6906 N   0  3  0  0  0  0  0  0  0  0  0  0
  -22.6414  -14.7846   21.2197 O   0  0  0  0  0  0  0  0  0  0  0  0
  -25.6176  -27.6553   19.6557 O   0  0  0  0  0  0  0  0  0  0  0  0
  -26.3137  -30.7878   22.2623 O   0  0  0  0  0  0  0  0  0  0  0  0
  -30.0658  -28.4812   24.0293 O   0  0  0  0  0  0  0  0  0  0  0  0
  -31.8776  -14.8151   20.2533 O   0  0  0  0  0  0  0  0  0  0  0  0
  -21.4701   -7.1120   21.8078 O   0  0  0  0  0  0  0  0  0  0  0  0
  -27.6215  -22.4132   22.1436 O   0  0  0  0  0  0  0  0  0  1  0  0
  -23.7968   -3.1051   24.7970 F   0  0  0  0  0  0  0  0  0  0  0  0
  -20.3747   -6.3243   24.2207 F   0  0  0  0  0  0  0  0  0  0  0  0
  1  2  1  0  0  0  0
  1  5  2  0  0  0  0
  2  6  2  0  0  0  0
  3  8  2  0  0  0  0
  3 17  1  0  0  0  0
  4  9  1  0  0  0  0
  4 17  2  0  0  0  0
  5 19  1  0  0  0  0
  6 21  1  0  0  0  0
  7 10  2  0  0  0  0
  7 20  1  0  0  0  0
  8 27  1  0  0  0  0
  9 27  2  0  0  0  0
 10 28  1  0  0  0  0
 11 12  2  0  0  0  0
 11 29  1  0  0  0  0
 12 30  1  0  0  0  0
 13 22  2  0  0  0  0
 13 24  1  0  0  0  0
 14 23  1  0  0  0  0
 14 28  2  0  0  0  0
 15 25  1  0  0  0  0
 15 26  2  0  0  0  0
 16 30  2  0  0  0  0
 16 31  1  0  0  0  0
 17 32  1  0  0  0  0
 18 32  1  0  0  0  0
 18 33  2  0  0  0  0
 18 34  1  0  0  0  0
 19 21  2  0  0  0  0
 19 39  1  0  0  0  0
 20 23  2  0  0  0  0
 20 40  1  0  0  0  0
 21 50  1  0  0  0  0
 22 26  1  0  0  0  0
 22 51  1  0  0  0  0
 23 41  1  0  0  0  0
 24 25  2  0  0  0  0
 24 54  1  0  0  0  0
 25 61  1  0  0  0  0
 26 67  1  0  0  0  0
 27 81  1  0  0  0  0
 28 82  1  0  0  0  0
 29 31  2  0  0  0  0
 29 81  1  0  0  0  0
 30 83  1  0  0  0  0
 31 84  1  0  0  0  0
 32 65  2  0  0  0  0
 33 66  1  0  0  0  0
 33 70  1  0  0  0  0
 34 71  1  0  0  0  0
 34 76  2  0  0  0  0
 35 52  1  0  0  0  0
 35 72  1  0  0  0  0
 35 77  2  0  0  0  0
 36 62  1  0  0  0  0
 36 68  1  0  0  0  0
 36 78  2  0  0  0  0
 37 63  1  0  0  0  0
 37 73  1  0  0  0  0
 37 79  2  0  0  0  0
 38 69  1  0  0  0  0
 38 74  1  0  0  0  0
 38 80  2  0  0  0  0
 39 42  1  0  0  0  0
 40 52  1  0  0  0  0
 41 68  1  0  0  0  0
 42 44  1  0  0  0  0
 43 45  1  0  0  0  0
 43 47  1  0  0  0  0
 44 50  1  0  0  0  0
 45 53  1  0  0  0  0
 46 48  1  0  0  0  0
 46 51  1  0  0  0  0
 47 69  1  0  0  0  0
 48 67  1  0  0  0  0
 49 53  1  0  0  0  0
 49 69  1  0  0  0  0
 50 72  1  0  0  0  0
 51 74  1  0  0  0  0
 52 68  1  0  0  0  0
 53 66  1  0  0  0  0
 55 63  1  0  0  0  0
 56 64  1  0  0  0  0
 57 64  1  0  0  0  0
 58 64  1  0  0  0  0
 59 67  1  0  0  0  0
 60 75  1  0  0  0  0
 61 82  1  0  0  0  0
 62 64  1  0  0  0  0
 62 73  1  0  0  0  0
 63 75  1  0  0  0  0
 65 66  1  0  0  0  0
M  CHG  1  75   1
M  ISO  4  38 100  61 101  74 100  82 101
M  END
> <Batch ID>
0175

> <Smiles>
CNC(C)C(=O)NC(C(=O)N1Cc2cc([101O:1][101CH2:1]c3cc4c(cc3C)C([100NH:0][100C:0](=O)N3CCCC(n5nc(-c6ccc(Oc7ccc(F)cc7F)cc6)c(C(N)=O)c5N)C3)CCN4C)ccc2CC1C(=O)NC1CCCc2ccccc21)C(C)(C)C

> <Shape>
0.263

> <Color>
0.202

> <Negative vol penalty>
0.000

$$$$

  -OEChem-04052322473D

 86 95  0     1  0  0  0  0  0999 V2000
  -17.5941  -32.3637   20.9646 C   0  0  0  0  0  0  0  0  0  0  0  0
  -18.8108  -32.2045   20.3091 C   0  0  0  0  0  0  0  0  0  0  0  0
  -24.6312  -12.0510   19.6227 C   0  0  0  0  0  0  0  0  0  0  0  0
  -25.5413  -12.2971   21.8472 C   0  0  0  0  0  0  0  0  0  0  0  0
  -17.4944  -32.0784   22.3257 C   0  0  0  0  0  0  0  0  0  0  0  0
  -19.9288  -31.7610   21.0146 C   0  0  0  0  0  0  0  0  0  0  0  0
  -24.4236  -28.1720   18.9117 C   0  0  0  0  0  0  0  0  0  0  0  0
  -25.0549  -10.7224   19.5963 C   0  0  0  0  0  0  0  0  0  0  0  0
  -25.9649  -10.9684   21.8208 C   0  0  0  0  0  0  0  0  0  0  0  0
  -25.6994  -28.4542   18.4253 C   0  0  0  0  0  0  0  0  0  0  0  0
  -26.9674   -7.5367   22.4816 C   0  0  0  0  0  0  0  0  0  0  0  0
  -26.7306   -6.7571   23.6138 C   0  0  0  0  0  0  0  0  0  0  0  0
  -26.6223  -28.0201   20.6114 C   0  0  0  0  0  0  0  0  0  0  0  0
  -24.3553   -7.1267   23.3713 C   0  0  0  0  0  0  0  0  0  0  0  0
  -24.8745  -12.8384   20.7481 C   0  0  0  0  0  0  0  0  0  0  0  0
  -23.1976  -14.6997   21.2292 C   0  0  0  0  0  0  0  0  0  0  0  0
  -18.6094  -31.6219   23.0461 C   0  0  0  0  0  0  0  0  0  0  0  0
  -24.2360  -27.8218   20.2566 C   0  0  0  0  0  0  0  0  0  0  0  0
  -19.8442  -31.4706   22.3869 C   0  0  0  0  0  0  0  0  0  0  0  0
  -25.3435  -27.7315   21.1118 C   0  0  0  0  0  0  0  0  0  0  0  0
  -30.4132  -25.2375   19.0592 C   0  0  0  0  0  0  0  0  0  0  0  0
  -30.4796  -25.2747   20.4476 C   0  0  0  0  0  0  0  0  0  0  0  0
  -30.0625  -24.1740   21.1877 C   0  0  0  0  0  0  0  0  0  0  0  0
  -25.7217  -10.1810   20.6954 C   0  0  0  0  0  0  0  0  0  0  0  0
  -26.7986  -28.3811   19.2758 C   0  0  0  0  0  0  0  0  0  0  0  0
  -25.8983   -8.1114   21.7944 C   0  0  0  0  0  0  0  0  0  0  0  0
  -25.4245   -6.5521   24.0586 C   0  0  0  0  0  0  0  0  0  0  0  0
  -24.5922   -7.9064   22.2392 C   0  0  0  0  0  0  0  0  0  0  0  0
  -24.4376  -14.2112   20.7758 C   0  0  0  0  0  0  0  0  0  0  0  0
  -29.9258  -24.0853   18.4639 C   0  0  0  0  0  0  0  0  0  0  0  0
  -29.5905  -23.0694   20.4970 C   0  0  0  0  0  0  0  0  0  0  0  0
  -23.2768  -16.0588   21.0474 C   0  0  0  0  0  0  0  0  0  0  0  0
  -22.0747  -13.9886   21.7668 C   0  0  0  0  0  0  0  0  0  0  0  0
  -22.6490  -29.0861   22.7033 C   0  0  0  0  0  0  0  0  0  0  0  0
  -23.5537  -26.3530   24.1980 C   0  0  0  0  0  0  0  0  0  0  0  0
  -25.7460  -23.7444   24.3888 C   0  0  0  0  0  0  0  0  0  0  0  0
  -27.8885  -19.7402   20.8604 C   0  0  0  0  0  0  0  0  0  0  0  0
  -18.4645  -31.3716   24.5263 C   0  0  0  0  0  0  0  0  0  0  0  0
  -22.8567  -27.4944   20.7593 C   0  0  0  0  0  0  0  0  0  0  0  0
  -25.1981  -27.3403   22.5589 C   0  0  0  0  0  0  0  0  0  0  0  0
  -19.6048  -30.5481   25.1193 C   0  0  0  0  0  0  0  0  0  0  0  0
  -25.3793  -19.3508   18.2817 C   0  0  0  0  0  0  0  0  0  0  0  0
  -20.9520  -31.0767   24.6371 C   0  0  0  0  0  0  0  0  0  0  0  0
  -24.7348  -18.0226   18.6825 C   0  0  0  0  0  0  0  0  0  0  0  0
  -29.9114  -26.9621   17.2005 C   0  0  0  0  0  0  0  0  0  0  0  0
  -26.8843  -19.3330   18.5327 C   0  0  0  0  0  0  0  0  0  0  0  0
  -26.6285  -17.6716   20.3349 C   0  0  0  0  0  0  0  0  0  0  0  0
  -30.8494  -26.3961   18.2416 C   0  0  1  0  0  0  0  0  0  0  0  0
  -21.0735  -30.9679   23.1124 C   0  0  1  0  0  0  0  0  0  0  0  0
  -22.7194  -27.6488   22.2708 C   0  0  1  0  0  0  0  0  0  0  0  0
  -25.1037  -17.6340   20.1265 C   0  0  2  0  0  0  0  0  0  0  0  0
  -30.2277  -27.7780   18.4273 C   0  0  1  0  0  0  0  0  0  0  0  0
  -30.9958  -26.4935   21.1442 C   0  0  0  0  0  0  0  0  0  0  0  0
  -30.1190  -24.1845   22.6786 C   0  0  0  0  0  0  0  0  0  0  0  0
  -29.8295  -23.9853   16.9764 C   0  0  0  0  0  0  0  0  0  0  0  0
  -31.1342  -28.9708   18.2653 C   0  0  0  0  0  0  0  0  0  0  0  0
  -26.7141  -21.5699   25.1835 C   0  0  0  0  0  0  0  0  0  0  0  0
  -24.7167  -28.0979   26.4144 C   0  0  0  0  0  0  0  0  0  0  0  0
  -26.0032  -26.1043   27.2134 C   0  0  0  0  0  0  0  0  0  0  0  0
  -23.5091  -26.0600   27.2163 C   0  0  0  0  0  0  0  0  0  0  0  0
  -24.1551  -22.1894   22.4369 C   0  0  0  0  0  0  0  0  0  0  0  0
  -29.1254  -21.8579   21.2377 C   0  0  0  0  0  0  0  0  0  0  0  0
  -29.1382  -27.9807   19.4234 C   0  0  0  0  0  0  0  0  0  1  0  0
  -24.7485  -25.9273   25.0167 C   0  0  1  0  0  0  0  0  0  0  0  0
  -25.5229  -22.2491   24.5260 C   0  0  2  0  0  0  0  0  0  0  0  0
  -24.7472  -26.5567   26.4385 C   0  0  0  0  0  0  0  0  0  0  0  0
  -25.2452  -15.1810   20.3386 N   0  0  0  0  0  0  0  0  0  0  0  0
  -29.5113  -22.9963   19.1494 N   0  0  0  0  0  0  0  0  0  0  0  0
  -24.5111  -16.2926   20.5165 N   0  0  0  0  0  0  0  0  0  0  0  0
  -23.8284  -27.0359   23.0047 N   0  0  0  0  0  0  0  0  0  0  0  0
  -27.1669  -18.9744   19.9297 N   0  0  0  0  0  0  0  0  0  0  0  0
  -22.4102  -17.0648   21.2915 N   0  0  0  0  0  0  0  0  0  0  0  0
  -22.1609  -12.5947   21.8849 N   0  0  0  0  0  0  0  0  0  0  0  0
  -21.3686  -29.6051   22.7248 N   0  0  0  0  0  0  0  0  0  0  0  0
  -24.7498  -24.4685   25.0091 N   0  0  0  0  0  0  0  0  0  0  0  0
  -28.3701  -20.9576   20.3950 N   0  0  0  0  0  0  0  0  0  0  0  0
  -25.3104  -21.6320   23.1863 N   0  3  0  0  0  0  0  0  0  0  0  0
  -21.0197  -14.5702   22.1164 O   0  0  0  0  0  0  0  0  0  0  0  0
  -23.6800  -29.6797   22.9973 O   0  0  0  0  0  0  0  0  0  0  0  0
  -22.4188  -26.0830   24.5988 O   0  0  0  0  0  0  0  0  0  0  0  0
  -26.7096  -24.2223   23.7943 O   0  0  0  0  0  0  0  0  0  0  0  0
  -28.0848  -19.3688   22.0226 O   0  0  0  0  0  0  0  0  0  0  0  0
  -26.1350   -8.8844   20.6701 O   0  0  0  0  0  0  0  0  0  0  0  0
  -28.0449  -28.6566   18.8038 O   0  0  0  0  0  0  0  0  0  1  0  0
  -25.1971   -5.8022   25.1449 F   0  0  0  0  0  0  0  0  0  0  0  0
  -23.5609   -8.4549   21.5824 F   0  0  0  0  0  0  0  0  0  0  0  0
  1  2  1  0  0  0  0
  1  5  2  0  0  0  0
  2  6  2  0  0  0  0
  3  8  2  0  0  0  0
  3 15  1  0  0  0  0
  4  9  1  0  0  0  0
  4 15  2  0  0  0  0
  5 17  1  0  0  0  0
  6 19  1  0  0  0  0
  7 10  2  0  0  0  0
  7 18  1  0  0  0  0
  8 24  1  0  0  0  0
  9 24  2  0  0  0  0
 10 25  1  0  0  0  0
 11 12  2  0  0  0  0
 11 26  1  0  0  0  0
 12 27  1  0  0  0  0
 13 20  1  0  0  0  0
 13 25  2  0  0  0  0
 14 27  2  0  0  0  0
 14 28  1  0  0  0  0
 15 29  1  0  0  0  0
 16 29  1  0  0  0  0
 16 32  2  0  0  0  0
 16 33  1  0  0  0  0
 17 19  2  0  0  0  0
 17 38  1  0  0  0  0
 18 20  2  0  0  0  0
 18 39  1  0  0  0  0
 19 49  1  0  0  0  0
 20 40  1  0  0  0  0
 21 22  2  0  0  0  0
 21 30  1  0  0  0  0
 21 48  1  0  0  0  0
 22 23  1  0  0  0  0
 22 53  1  0  0  0  0
 23 31  2  0  0  0  0
 23 54  1  0  0  0  0
 24 83  1  0  0  0  0
 25 84  1  0  0  0  0
 26 28  2  0  0  0  0
 26 83  1  0  0  0  0
 27 85  1  0  0  0  0
 28 86  1  0  0  0  0
 29 67  2  0  0  0  0
 30 55  1  0  0  0  0
 30 68  2  0  0  0  0
 31 62  1  0  0  0  0
 31 68  1  0  0  0  0
 32 69  1  0  0  0  0
 32 72  1  0  0  0  0
 33 73  1  0  0  0  0
 33 78  2  0  0  0  0
 34 50  1  0  0  0  0
 34 74  1  0  0  0  0
 34 79  2  0  0  0  0
 35 64  1  0  0  0  0
 35 70  1  0  0  0  0
 35 80  2  0  0  0  0
 36 65  1  0  0  0  0
 36 75  1  0  0  0  0
 36 81  2  0  0  0  0
 37 71  1  0  0  0  0
 37 76  1  0  0  0  0
 37 82  2  0  0  0  0
 38 41  1  0  0  0  0
 39 50  1  0  0  0  0
 40 70  1  0  0  0  0
 41 43  1  0  0  0  0
 42 44  1  0  0  0  0
 42 46  1  0  0  0  0
 43 49  1  0  0  0  0
 44 51  1  0  0  0  0
 45 48  1  0  0  0  0
 45 52  1  0  0  0  0
 46 71  1  0  0  0  0
 47 51  1  0  0  0  0
 47 71  1  0  0  0  0
 48 52  1  0  0  0  0
 49 74  1  0  0  0  0
 50 70  1  0  0  0  0
 51 69  1  0  0  0  0
 52 56  1  0  0  0  0
 52 63  1  0  0  0  0
 57 65  1  0  0  0  0
 58 66  1  0  0  0  0
 59 66  1  0  0  0  0
 60 66  1  0  0  0  0
 61 77  1  0  0  0  0
 62 76  1  0  0  0  0
 63 84  1  0  0  0  0
 64 66  1  0  0  0  0
 64 75  1  0  0  0  0
 65 77  1  0  0  0  0
 67 69  1  0  0  0  0
M  CHG  1  77   1
M  ISO  4  37 100  63 101  76 100  84 101
M  END
> <Batch ID>
0175

> <Smiles>
CNC(C)C(=O)NC(C(=O)N1Cc2cc([101O:1][101CH2:1]C3(C)CC3c3c(C)nc(C[100NH:0][100C:0](=O)N4CCCC(n5nc(-c6ccc(Oc7ccc(F)cc7F)cc6)c(C(N)=O)c5N)C4)c(C)c3C)ccc2CC1C(=O)NC1CCCc2ccccc21)C(C)(C)C

> <Shape>
0.210

> <Color>
0.096

> <Negative vol penalty>
0.000

$$$$

  -OEChem-04052322473D

 86 96  0     1  0  0  0  0  0999 V2000
  -24.7201   -5.8208   22.1311 C   0  0  0  0  0  0  0  0  0  0  0  0
  -25.8900   -6.4838   21.7746 C   0  0  0  0  0  0  0  0  0  0  0  0
  -25.2662  -31.6190   20.7411 C   0  0  0  0  0  0  0  0  0  0  0  0
  -27.3893  -30.9336   21.6683 C   0  0  0  0  0  0  0  0  0  0  0  0
  -23.4960   -6.4851   22.0650 C   0  0  0  0  0  0  0  0  0  0  0  0
  -25.8364   -7.8111   21.3507 C   0  0  0  0  0  0  0  0  0  0  0  0
  -30.0157  -12.1713   22.3649 C   0  0  0  0  0  0  0  0  0  0  0  0
  -25.4486  -32.8974   21.2683 C   0  0  0  0  0  0  0  0  0  0  0  0
  -27.5718  -32.2120   22.1955 C   0  0  0  0  0  0  0  0  0  0  0  0
  -31.0467  -12.6835   21.5785 C   0  0  0  0  0  0  0  0  0  0  0  0
  -25.1381  -34.4212   24.2693 C   0  0  0  0  0  0  0  0  0  0  0  0
  -24.0544  -35.0155   24.9157 C   0  0  0  0  0  0  0  0  0  0  0  0
  -29.6051  -14.4840   20.8719 C   0  0  0  0  0  0  0  0  0  0  0  0
  -24.1030  -36.8337   23.3253 C   0  0  0  0  0  0  0  0  0  0  0  0
  -29.3621  -19.1388   20.2251 C   0  0  0  0  0  0  0  0  0  0  0  0
  -26.2365  -30.6370   20.9411 C   0  0  0  0  0  0  0  0  0  0  0  0
  -26.4522  -28.8528   19.1306 C   0  0  0  0  0  0  0  0  0  0  0  0
  -23.4285   -7.8242   21.6493 C   0  0  0  0  0  0  0  0  0  0  0  0
  -28.7661  -12.8066   22.4023 C   0  0  0  0  0  0  0  0  0  0  0  0
  -24.6102   -8.4935   21.2777 C   0  0  0  0  0  0  0  0  0  0  0  0
  -28.5607  -13.9793   21.6616 C   0  0  0  0  0  0  0  0  0  0  0  0
  -29.0225  -19.9555   19.1586 C   0  0  0  0  0  0  0  0  0  0  0  0
  -30.0241  -18.3195   17.7079 C   0  0  0  0  0  0  0  0  0  0  0  0
  -26.6014  -33.1939   21.9955 C   0  0  0  0  0  0  0  0  0  0  0  0
  -30.8406  -13.8384   20.8296 C   0  0  0  0  0  0  0  0  0  0  0  0
  -25.7044  -35.0331   23.1510 C   0  0  0  0  0  0  0  0  0  0  0  0
  -23.5368  -36.2218   24.4437 C   0  0  0  0  0  0  0  0  0  0  0  0
  -25.1869  -36.2393   22.6790 C   0  0  0  0  0  0  0  0  0  0  0  0
  -29.3634  -19.5309   17.8793 C   0  0  0  0  0  0  0  0  0  0  0  0
  -26.0484  -29.3161   20.3972 C   0  0  0  0  0  0  0  0  0  0  0  0
  -30.3190  -17.5761   18.8393 C   0  0  0  0  0  0  0  0  0  0  0  0
  -26.0440  -27.5418   19.0984 C   0  0  0  0  0  0  0  0  0  0  0  0
  -27.1352  -29.5456   18.0775 C   0  0  0  0  0  0  0  0  0  0  0  0
  -25.8024  -11.9751   21.6095 C   0  0  0  0  0  0  0  0  0  0  0  0
  -25.0596  -14.8393   22.9387 C   0  0  0  0  0  0  0  0  0  0  0  0
  -26.0744  -17.9786   23.8114 C   0  0  0  0  0  0  0  0  0  0  0  0
  -25.5550  -22.5640   21.5642 C   0  0  0  0  0  0  0  0  0  0  0  0
  -22.0769   -8.4858   21.5487 C   0  0  0  0  0  0  0  0  0  0  0  0
  -27.6727  -12.2565   23.2765 C   0  0  0  0  0  0  0  0  0  0  0  0
  -27.2441  -14.7105   21.6830 C   0  0  0  0  0  0  0  0  0  0  0  0
  -22.1495  -10.0072   21.4472 C   0  0  0  0  0  0  0  0  0  0  0  0
  -23.0158  -24.9430   22.1773 C   0  0  0  0  0  0  0  0  0  0  0  0
  -23.2004  -10.4244   20.4232 C   0  0  0  0  0  0  0  0  0  0  0  0
  -23.6140  -26.2634   21.6998 C   0  0  0  0  0  0  0  0  0  0  0  0
  -29.0042  -22.2623   20.3536 C   0  0  0  0  0  0  0  0  0  0  0  0
  -32.5331  -16.2608   18.6302 C   0  0  0  0  0  0  0  0  0  0  0  0
  -24.0777  -24.0766   22.8410 C   0  0  0  0  0  0  0  0  0  0  0  0
  -27.8848  -23.2246   20.7276 C   0  0  0  0  0  0  0  0  0  0  0  0
  -26.9435  -21.1053   20.1234 C   0  0  0  0  0  0  0  0  0  0  0  0
  -25.8583  -25.0851   21.4399 C   0  0  0  0  0  0  0  0  0  0  0  0
  -28.3019  -21.2587   19.4247 C   0  0  2  0  0  0  0  0  0  0  0  0
  -24.5958   -9.9410   20.8365 C   0  0  1  0  0  0  0  0  0  0  0  0
  -31.0305  -16.2677   18.7072 C   0  0  1  0  0  0  0  0  0  0  0  0
  -26.2791  -12.6964   22.8383 C   0  0  1  0  0  0  0  0  0  0  0  0
  -24.8170  -26.0111   20.7779 C   0  0  2  0  0  0  0  0  0  0  0  0
  -31.8496  -15.7652   19.8678 C   0  0  1  0  0  0  0  0  0  1  0  0
  -30.4113  -17.8233   16.3532 C   0  0  0  0  0  0  0  0  0  0  0  0
  -25.2333  -20.1043   24.8465 C   0  0  0  0  0  0  0  0  0  0  0  0
  -23.6095  -15.5265   20.3434 C   0  0  0  0  0  0  0  0  0  0  0  0
  -23.6261  -17.9278   21.0516 C   0  0  0  0  0  0  0  0  0  0  0  0
  -22.4154  -16.2328   22.4242 C   0  0  0  0  0  0  0  0  0  0  0  0
  -28.0151  -17.7985   26.0386 C   0  0  0  0  0  0  0  0  0  0  0  0
  -24.9436  -16.2560   22.4301 C   0  0  1  0  0  0  0  0  0  0  0  0
  -25.9139  -18.7678   25.0982 C   0  0  2  0  0  0  0  0  0  0  0  0
  -23.6730  -16.4711   21.5602 C   0  0  0  0  0  0  0  0  0  0  0  0
  -30.0038  -17.9558   20.0980 N   0  0  0  0  0  0  0  0  0  0  0  0
  -25.4309  -28.3759   21.1173 N   0  0  0  0  0  0  0  0  0  0  0  0
  -25.4436  -27.3087   20.3006 N   0  0  0  0  0  0  0  0  0  0  0  0
  -26.2041  -14.1297   22.5482 N   0  0  0  0  0  0  0  0  0  0  0  0
  -25.2321  -23.8650   21.9656 N   0  0  0  0  0  0  0  0  0  0  0  0
  -26.6866  -22.3889   20.7687 N   0  0  0  0  0  0  0  0  0  0  0  0
  -26.1435  -26.5772   18.1592 N   0  0  0  0  0  0  0  0  0  0  0  0
  -27.4814  -30.8891   18.2761 N   0  0  0  0  0  0  0  0  0  0  0  0
  -25.1389  -10.7920   21.8734 N   0  0  0  0  0  0  0  0  0  0  0  0
  -25.0168  -17.1185   23.6045 N   0  0  0  0  0  0  0  0  0  0  0  0
  -27.2450  -19.0273   25.7162 N   0  3  0  0  0  0  0  0  0  0  0  0
  -27.4154  -28.9944   16.9860 O   0  0  0  0  0  0  0  0  0  0  0  0
  -26.0190  -12.4570   20.5038 O   0  0  0  0  0  0  0  0  0  0  0  0
  -24.1711  -14.3817   23.6617 O   0  0  0  0  0  0  0  0  0  0  0  0
  -27.0396  -18.1145   23.0627 O   0  0  0  0  0  0  0  0  0  0  0  0
  -24.8836  -21.5916   21.9351 O   0  0  0  0  0  0  0  0  0  0  0  0
  -26.7798  -34.4413   22.5099 O   0  0  0  0  0  0  0  0  0  0  0  0
  -31.8472  -14.3411   20.0590 O   0  0  0  0  0  0  0  0  0  1  0  0
  -22.4951  -36.7916   25.0635 F   0  0  0  0  0  0  0  0  0  0  0  0
  -25.7259  -36.8313   21.6044 F   0  0  0  0  0  0  0  0  0  0  0  0
  -28.9645  -20.5097   16.5087 Cl  0  0  0  0  0  0  0  0  0  0  0  0
  1  2  1  0  0  0  0
  1  5  2  0  0  0  0
  2  6  2  0  0  0  0
  3  8  2  0  0  0  0
  3 16  1  0  0  0  0
  4  9  1  0  0  0  0
  4 16  2  0  0  0  0
  5 18  1  0  0  0  0
  6 20  1  0  0  0  0
  7 10  2  0  0  0  0
  7 19  1  0  0  0  0
  8 24  1  0  0  0  0
  9 24  2  0  0  0  0
 10 25  1  0  0  0  0
 11 12  2  0  0  0  0
 11 26  1  0  0  0  0
 12 27  1  0  0  0  0
 13 21  1  0  0  0  0
 13 25  2  0  0  0  0
 14 27  2  0  0  0  0
 14 28  1  0  0  0  0
 15 22  1  0  0  0  0
 15 66  2  0  0  0  0
 16 30  1  0  0  0  0
 17 30  1  0  0  0  0
 17 32  2  0  0  0  0
 17 33  1  0  0  0  0
 18 20  2  0  0  0  0
 18 38  1  0  0  0  0
 19 21  2  0  0  0  0
 19 39  1  0  0  0  0
 20 52  1  0  0  0  0
 21 40  1  0  0  0  0
 22 29  2  0  0  0  0
 22 51  1  0  0  0  0
 23 29  1  0  0  0  0
 23 31  2  0  0  0  0
 23 57  1  0  0  0  0
 24 82  1  0  0  0  0
 25 83  1  0  0  0  0
 26 28  2  0  0  0  0
 26 82  1  0  0  0  0
 27 84  1  0  0  0  0
 28 85  1  0  0  0  0
 29 86  1  0  0  0  0
 30 67  2  0  0  0  0
 31 53  1  0  0  0  0
 31 66  1  0  0  0  0
 32 68  1  0  0  0  0
 32 72  1  0  0  0  0
 33 73  1  0  0  0  0
 33 77  2  0  0  0  0
 34 54  1  0  0  0  0
 34 74  1  0  0  0  0
 34 78  2  0  0  0  0
 35 63  1  0  0  0  0
 35 69  1  0  0  0  0
 35 79  2  0  0  0  0
 36 64  1  0  0  0  0
 36 75  1  0  0  0  0
 36 80  2  0  0  0  0
 37 70  1  0  0  0  0
 37 71  1  0  0  0  0
 37 81  2  0  0  0  0
 38 41  1  0  0  0  0
 39 54  1  0  0  0  0
 40 69  1  0  0  0  0
 41 43  1  0  0  0  0
 42 44  1  0  0  0  0
 42 47  1  0  0  0  0
 43 52  1  0  0  0  0
 44 55  1  0  0  0  0
 45 48  1  0  0  0  0
 45 51  1  0  0  0  0
 46 53  1  0  0  0  0
 46 56  1  0  0  0  0
 47 70  1  0  0  0  0
 48 71  1  0  0  0  0
 49 51  1  0  0  0  0
 49 71  1  0  0  0  0
 50 55  1  0  0  0  0
 50 70  1  0  0  0  0
 52 74  1  0  0  0  0
 53 56  1  0  0  0  0
 54 69  1  0  0  0  0
 55 68  1  0  0  0  0
 56 83  1  0  0  0  0
 58 64  1  0  0  0  0
 59 65  1  0  0  0  0
 60 65  1  0  0  0  0
 61 65  1  0  0  0  0
 62 76  1  0  0  0  0
 63 65  1  0  0  0  0
 63 75  1  0  0  0  0
 64 76  1  0  0  0  0
 67 68  1  0  0  0  0
M  CHG  1  76   1
M  ISO  4  37 100  56 101  71 100  83 101
M  END
> <Batch ID>
0175

> <Smiles>
CNC(C)C(=O)NC(C(=O)N1Cc2cc([101O:1][101CH:1]3CC3c3ncc(C4CC[100N:0]([100C:0](=O)N5CCCC(n6nc(-c7ccc(Oc8ccc(F)cc8F)cc7)c(C(N)=O)c6N)C5)C4)c(Cl)c3C)ccc2CC1C(=O)NC1CCCc2ccccc21)C(C)(C)C

> <Shape>
0.224

> <Color>
0.099

> <Negative vol penalty>
0.000

$$$$

  -OEChem-04052322473D

 85 94  0     1  0  0  0  0  0999 V2000
  -18.3683  -30.1415   26.9947 C   0  0  0  0  0  0  0  0  0  0  0  0
  -19.1853  -29.0160   26.9602 C   0  0  0  0  0  0  0  0  0  0  0  0
  -25.9512  -14.0091   21.3445 C   0  0  0  0  0  0  0  0  0  0  0  0
  -26.3316  -12.4164   19.5680 C   0  0  0  0  0  0  0  0  0  0  0  0
  -17.7691  -30.6028   25.8234 C   0  0  0  0  0  0  0  0  0  0  0  0
  -19.4027  -28.3505   25.7542 C   0  0  0  0  0  0  0  0  0  0  0  0
  -24.2711  -27.1477   25.0494 C   0  0  0  0  0  0  0  0  0  0  0  0
  -24.7237  -13.4074   21.6212 C   0  0  0  0  0  0  0  0  0  0  0  0
  -25.1040  -11.8146   19.8448 C   0  0  0  0  0  0  0  0  0  0  0  0
  -24.7598  -26.0399   25.7406 C   0  0  0  0  0  0  0  0  0  0  0  0
  -23.8478   -9.6538   22.1193 C   0  0  0  0  0  0  0  0  0  0  0  0
  -23.8082   -8.2606   22.1723 C   0  0  0  0  0  0  0  0  0  0  0  0
  -24.5237  -24.7003   23.7484 C   0  0  0  0  0  0  0  0  0  0  0  0
  -22.1958   -8.2380   20.3732 C   0  0  0  0  0  0  0  0  0  0  0  0
  -29.4529  -24.4027   23.1682 C   0  0  0  0  0  0  0  0  0  0  0  0
  -26.7551  -13.5137   20.3178 C   0  0  0  0  0  0  0  0  0  0  0  0
  -29.2742  -13.8113   20.5891 C   0  0  0  0  0  0  0  0  0  0  0  0
  -17.9871  -29.9483   24.6008 C   0  0  0  0  0  0  0  0  0  0  0  0
  -23.8942  -27.0373   23.7033 C   0  0  0  0  0  0  0  0  0  0  0  0
  -18.8048  -28.8027   24.5656 C   0  0  0  0  0  0  0  0  0  0  0  0
  -24.0329  -25.8088   23.0417 C   0  0  0  0  0  0  0  0  0  0  0  0
  -24.3001  -12.3101   20.8714 C   0  0  0  0  0  0  0  0  0  0  0  0
  -24.8835  -24.8153   25.0909 C   0  0  0  0  0  0  0  0  0  0  0  0
  -23.0614  -10.3392   21.1933 C   0  0  0  0  0  0  0  0  0  0  0  0
  -22.9822   -7.5526   21.2992 C   0  0  0  0  0  0  0  0  0  0  0  0
  -22.2354   -9.6313   20.3202 C   0  0  0  0  0  0  0  0  0  0  0  0
  -28.0230  -14.1353   20.0310 C   0  0  0  0  0  0  0  0  0  0  0  0
  -28.9963  -24.8325   24.3975 C   0  0  0  0  0  0  0  0  0  0  0  0
  -28.7192  -23.3938   22.5783 C   0  0  0  0  0  0  0  0  0  0  0  0
  -30.1520  -14.6838   19.9937 C   0  0  0  0  0  0  0  0  0  0  0  0
  -27.2787  -23.3449   24.3361 C   0  0  0  0  0  0  0  0  0  0  0  0
  -29.6126  -12.8111   21.5590 C   0  0  0  0  0  0  0  0  0  0  0  0
  -21.1781  -27.4163   22.0961 C   0  0  0  0  0  0  0  0  0  0  0  0
  -23.0946  -26.9641   19.5184 C   0  0  0  0  0  0  0  0  0  0  0  0
  -25.9880  -25.6729   18.2503 C   0  0  0  0  0  0  0  0  0  0  0  0
  -29.0877  -20.0955   17.4269 C   0  0  0  0  0  0  0  0  0  0  0  0
  -17.2799  -30.4562   23.3693 C   0  0  0  0  0  0  0  0  0  0  0  0
  -23.3940  -28.2482   22.9644 C   0  0  0  0  0  0  0  0  0  0  0  0
  -23.6612  -25.6426   21.5916 C   0  0  0  0  0  0  0  0  0  0  0  0
  -17.8616  -29.9146   22.0659 C   0  0  0  0  0  0  0  0  0  0  0  0
  -30.7996  -17.1938   15.9700 C   0  0  0  0  0  0  0  0  0  0  0  0
  -18.0808  -28.4083   22.1644 C   0  0  0  0  0  0  0  0  0  0  0  0
  -30.3479  -16.0454   16.8734 C   0  0  0  0  0  0  0  0  0  0  0  0
  -28.9108  -20.5012   21.0767 C   0  0  0  0  0  0  0  0  0  0  0  0
  -29.7450  -18.2939   15.8736 C   0  0  0  0  0  0  0  0  0  0  0  0
  -28.5365  -19.6251   19.8857 C   0  0  0  0  0  0  0  0  0  0  0  0
  -28.8270  -17.6612   18.0714 C   0  0  0  0  0  0  0  0  0  0  0  0
  -28.8979  -21.8780   19.1381 C   0  0  0  0  0  0  0  0  0  0  0  0
  -19.0847  -28.0681   23.2725 C   0  0  1  0  0  0  0  0  0  0  0  0
  -22.5563  -27.8965   21.7388 C   0  0  1  0  0  0  0  0  0  0  0  0
  -29.8893  -16.5674   18.2478 C   0  0  1  0  0  0  0  0  0  0  0  0
  -28.4875  -21.8873   20.6029 C   0  0  2  0  0  0  0  0  0  0  0  0
  -29.7247  -25.9201   25.1133 C   0  0  0  0  0  0  0  0  0  0  0  0
  -26.4027  -21.5762   25.9005 C   0  0  0  0  0  0  0  0  0  0  0  0
  -27.2605  -25.4284   16.1013 C   0  0  0  0  0  0  0  0  0  0  0  0
  -21.1786  -24.7588   18.6376 C   0  0  0  0  0  0  0  0  0  0  0  0
  -22.9515  -23.9403   17.0707 C   0  0  0  0  0  0  0  0  0  0  0  0
  -21.9989  -26.2284   16.7877 C   0  0  0  0  0  0  0  0  0  0  0  0
  -28.2905  -27.2046   19.3045 C   0  0  0  0  0  0  0  0  0  0  0  0
  -26.0712  -22.7577   24.9845 C   0  0  1  0  0  0  0  0  0  1  0  0
  -23.5549  -25.7646   18.7257 C   0  0  1  0  0  0  0  0  0  0  0  0
  -27.0488  -26.2751   17.3467 C   0  0  2  0  0  0  0  0  0  0  0  0
  -22.4263  -25.1754   17.8333 C   0  0  0  0  0  0  0  0  0  0  0  0
  -28.0953  -15.1357   19.1490 N   0  0  0  0  0  0  0  0  0  0  0  0
  -27.9087  -24.3240   25.0129 N   0  0  0  0  0  0  0  0  0  0  0  0
  -27.6229  -22.8395   23.1362 N   0  0  0  0  0  0  0  0  0  0  0  0
  -29.4025  -15.4479   19.1483 N   0  0  0  0  0  0  0  0  0  0  0  0
  -23.1711  -26.8543   20.9141 N   0  0  0  0  0  0  0  0  0  0  0  0
  -29.3235  -18.7346   17.2036 N   0  0  0  0  0  0  0  0  0  0  0  0
  -28.7388  -20.4876   18.7186 N   0  0  0  0  0  0  0  0  0  0  0  0
  -31.4843  -14.8644   20.1160 N   0  0  0  0  0  0  0  0  0  0  0  0
  -28.5888  -12.0003   22.0678 N   0  0  0  0  0  0  0  0  0  0  0  0
  -29.1460  -22.9332   21.3402 N   0  0  0  0  0  0  0  0  0  0  0  0
  -20.4370  -28.3261   22.8259 N   0  0  0  0  0  0  0  0  0  0  0  0
  -24.7382  -26.1927   17.9875 N   0  0  0  0  0  0  0  0  0  0  0  0
  -28.3474  -26.3794   18.0704 N   0  3  0  0  0  0  0  0  0  0  0  0
  -30.7854  -12.6522   21.9747 O   0  0  0  0  0  0  0  0  0  0  0  0
  -20.8135  -26.3035   21.7351 O   0  0  0  0  0  0  0  0  0  0  0  0
  -22.6891  -27.9643   18.9211 O   0  0  0  0  0  0  0  0  0  0  0  0
  -26.2420  -24.8234   19.1014 O   0  0  0  0  0  0  0  0  0  0  0  0
  -29.2288  -20.9304   16.5235 O   0  0  0  0  0  0  0  0  0  0  0  0
  -23.1024  -11.7224   21.1414 O   0  0  0  0  0  0  0  0  0  0  0  0
  -25.3609  -23.7292   25.7653 O   0  0  0  0  0  0  0  0  0  1  0  0
  -22.9454   -6.2146   21.3492 F   0  0  0  0  0  0  0  0  0  0  0  0
  -21.4786  -10.2842   19.4276 F   0  0  0  0  0  0  0  0  0  0  0  0
  1  2  1  0  0  0  0
  1  5  2  0  0  0  0
  2  6  2  0  0  0  0
  3  8  2  0  0  0  0
  3 16  1  0  0  0  0
  4  9  1  0  0  0  0
  4 16  2  0  0  0  0
  5 18  1  0  0  0  0
  6 20  1  0  0  0  0
  7 10  2  0  0  0  0
  7 19  1  0  0  0  0
  8 22  1  0  0  0  0
  9 22  2  0  0  0  0
 10 23  1  0  0  0  0
 11 12  2  0  0  0  0
 11 24  1  0  0  0  0
 12 25  1  0  0  0  0
 13 21  1  0  0  0  0
 13 23  2  0  0  0  0
 14 25  2  0  0  0  0
 14 26  1  0  0  0  0
 15 28  1  0  0  0  0
 15 29  2  0  0  0  0
 16 27  1  0  0  0  0
 17 27  1  0  0  0  0
 17 30  2  0  0  0  0
 17 32  1  0  0  0  0
 18 20  2  0  0  0  0
 18 37  1  0  0  0  0
 19 21  2  0  0  0  0
 19 38  1  0  0  0  0
 20 49  1  0  0  0  0
 21 39  1  0  0  0  0
 22 82  1  0  0  0  0
 23 83  1  0  0  0  0
 24 26  2  0  0  0  0
 24 82  1  0  0  0  0
 25 84  1  0  0  0  0
 26 85  1  0  0  0  0
 27 64  2  0  0  0  0
 28 53  1  0  0  0  0
 28 65  2  0  0  0  0
 29 66  1  0  0  0  0
 29 73  1  0  0  0  0
 30 67  1  0  0  0  0
 30 71  1  0  0  0  0
 31 60  1  0  0  0  0
 31 65  1  0  0  0  0
 31 66  2  0  0  0  0
 32 72  1  0  0  0  0
 32 77  2  0  0  0  0
 33 50  1  0  0  0  0
 33 74  1  0  0  0  0
 33 78  2  0  0  0  0
 34 61  1  0  0  0  0
 34 68  1  0  0  0  0
 34 79  2  0  0  0  0
 35 62  1  0  0  0  0
 35 75  1  0  0  0  0
 35 80  2  0  0  0  0
 36 69  1  0  0  0  0
 36 70  1  0  0  0  0
 36 81  2  0  0  0  0
 37 40  1  0  0  0  0
 38 50  1  0  0  0  0
 39 68  1  0  0  0  0
 40 42  1  0  0  0  0
 41 43  1  0  0  0  0
 41 45  1  0  0  0  0
 42 49  1  0  0  0  0
 43 51  1  0  0  0  0
 44 46  1  0  0  0  0
 44 52  1  0  0  0  0
 45 69  1  0  0  0  0
 46 70  1  0  0  0  0
 47 51  1  0  0  0  0
 47 69  1  0  0  0  0
 48 52  1  0  0  0  0
 48 70  1  0  0  0  0
 49 74  1  0  0  0  0
 50 68  1  0  0  0  0
 51 67  1  0  0  0  0
 52 73  1  0  0  0  0
 54 60  1  0  0  0  0
 55 62  1  0  0  0  0
 56 63  1  0  0  0  0
 57 63  1  0  0  0  0
 58 63  1  0  0  0  0
 59 76  1  0  0  0  0
 60 83  1  0  0  0  0
 61 63  1  0  0  0  0
 61 75  1  0  0  0  0
 62 76  1  0  0  0  0
 64 67  1  0  0  0  0
M  CHG  1  76   1
M  ISO  4  36 100  60 101  70 100  83 101
M  END
> <Batch ID>
0175

> <Smiles>
CNC(C)C(=O)NC(C(=O)N1Cc2cc([101O:1][101CH:1](C)c3nc(C)cc(NC4CC[100N:0]([100C:0](=O)N5CCCC(n6nc(-c7ccc(Oc8ccc(F)cc8F)cc7)c(C(N)=O)c6N)C5)C4)n3)ccc2CC1C(=O)NC1CCCc2ccccc21)C(C)(C)C

> <Shape>
0.225

> <Color>
0.068

> <Negative vol penalty>
0.000

$$$$

  -OEChem-04052322473D

 88 98  0     1  0  0  0  0  0999 V2000
  -23.7849  -35.8561   28.4001 C   0  0  0  0  0  0  0  0  0  0  0  0
  -23.0956  -34.9608   27.5885 C   0  0  0  0  0  0  0  0  0  0  0  0
  -22.2493  -10.3309   21.7012 C   0  0  0  0  0  0  0  0  0  0  0  0
  -23.5198   -9.6488   19.7627 C   0  0  0  0  0  0  0  0  0  0  0  0
  -24.8717  -36.5642   27.8887 C   0  0  0  0  0  0  0  0  0  0  0  0
  -23.4920  -34.7738   26.2648 C   0  0  0  0  0  0  0  0  0  0  0  0
  -23.6223  -29.8857   24.9478 C   0  0  0  0  0  0  0  0  0  0  0  0
  -21.8464   -9.0106   21.9017 C   0  0  0  0  0  0  0  0  0  0  0  0
  -23.1170   -8.3285   19.9633 C   0  0  0  0  0  0  0  0  0  0  0  0
  -22.4042  -29.2705   24.6623 C   0  0  0  0  0  0  0  0  0  0  0  0
  -23.1562   -6.1762   23.1991 C   0  0  0  0  0  0  0  0  0  0  0  0
  -23.2104   -5.6722   24.4986 C   0  0  0  0  0  0  0  0  0  0  0  0
  -22.8300  -29.5359   22.3028 C   0  0  0  0  0  0  0  0  0  0  0  0
  -20.5696  -24.2459   19.1386 C   0  0  0  0  0  0  0  0  0  0  0  0
  -20.8310   -5.2575   24.4369 C   0  0  0  0  0  0  0  0  0  0  0  0
  -19.4494  -24.2030   21.6264 C   0  0  0  0  0  0  0  0  0  0  0  0
  -23.0860  -10.6500   20.6317 C   0  0  0  0  0  0  0  0  0  0  0  0
  -19.8979  -25.4162   21.1295 C   0  0  0  0  0  0  0  0  0  0  0  0
  -24.6453  -12.6435   20.9512 C   0  0  0  0  0  0  0  0  0  0  0  0
  -25.2876  -36.3787   26.5609 C   0  0  0  0  0  0  0  0  0  0  0  0
  -24.4498  -30.3412   23.9113 C   0  0  0  0  0  0  0  0  0  0  0  0
  -24.5845  -35.4811   25.7348 C   0  0  0  0  0  0  0  0  0  0  0  0
  -24.0593  -30.1542   22.5777 C   0  0  0  0  0  0  0  0  0  0  0  0
  -20.4674  -25.4295   19.8611 C   0  0  0  0  0  0  0  0  0  0  0  0
  -22.2802   -8.0094   21.0327 C   0  0  0  0  0  0  0  0  0  0  0  0
  -22.0066  -29.0981   23.3397 C   0  0  0  0  0  0  0  0  0  0  0  0
  -21.9394   -6.2210   22.5186 C   0  0  0  0  0  0  0  0  0  0  0  0
  -22.0478   -5.2128   25.1175 C   0  0  0  0  0  0  0  0  0  0  0  0
  -20.7769   -5.7616   23.1374 C   0  0  0  0  0  0  0  0  0  0  0  0
  -23.5021  -12.0137   20.4237 C   0  0  0  0  0  0  0  0  0  0  0  0
  -20.0912  -23.0851   19.7247 C   0  0  0  0  0  0  0  0  0  0  0  0
  -24.5878  -13.9254   20.4614 C   0  0  0  0  0  0  0  0  0  0  0  0
  -20.8473  -27.3471   22.3098 C   0  0  0  0  0  0  0  0  0  1  0  0
  -19.7622  -26.6188   21.9357 C   0  0  0  0  0  0  0  0  0  0  0  0
  -25.6678  -12.1168   21.8072 C   0  0  0  0  0  0  0  0  0  0  0  0
  -25.5724  -33.1781   23.0194 C   0  0  0  0  0  0  0  0  0  0  0  0
  -27.2503  -31.4070   20.8817 C   0  0  0  0  0  0  0  0  0  0  0  0
  -27.5156  -28.5145   19.0901 C   0  0  0  0  0  0  0  0  0  0  0  0
  -21.8889  -18.5073   19.4342 C   0  0  0  0  0  0  0  0  0  0  0  0
  -26.4387  -37.2017   26.0390 C   0  0  0  0  0  0  0  0  0  0  0  0
  -25.7731  -30.9788   24.2354 C   0  0  0  0  0  0  0  0  0  0  0  0
  -24.9208  -30.6071   21.4282 C   0  0  0  0  0  0  0  0  0  0  0  0
  -27.0273  -36.6681   24.7355 C   0  0  0  0  0  0  0  0  0  0  0  0
  -21.6620  -15.9782   16.9033 C   0  0  0  0  0  0  0  0  0  0  0  0
  -20.0472  -27.8708   19.1280 C   0  0  0  0  0  0  0  0  0  0  0  0
  -20.4548  -27.1149   17.9021 C   0  0  0  0  0  0  0  0  0  0  0  0
  -25.9160  -36.3301   23.7468 C   0  0  0  0  0  0  0  0  0  0  0  0
  -22.1883  -14.7567   17.6526 C   0  0  0  0  0  0  0  0  0  0  0  0
  -19.0679  -20.7837   19.2990 C   0  0  0  0  0  0  0  0  0  0  0  0
  -20.8160  -16.8875   17.7968 C   0  0  0  0  0  0  0  0  0  0  0  0
  -19.6310  -19.4738   18.7668 C   0  0  0  0  0  0  0  0  0  0  0  0
  -22.0214  -16.0639   19.7994 C   0  0  0  0  0  0  0  0  0  0  0  0
  -20.9769  -26.6937   19.2492 C   0  0  0  0  0  0  0  0  0  0  0  0
  -24.9996  -35.2325   24.3009 C   0  0  1  0  0  0  0  0  0  0  0  0
  -20.1856  -21.7808   18.9692 C   0  0  2  0  0  0  0  0  0  0  0  0
  -26.2996  -31.8665   23.1120 C   0  0  1  0  0  0  0  0  0  0  0  0
  -22.9288  -15.1800   18.9317 C   0  0  1  0  0  0  0  0  0  0  0  0
  -21.4671  -20.9635   19.2447 C   0  0  2  0  0  0  0  0  0  0  0  0
  -18.3678  -27.0640   22.3436 C   0  0  0  0  0  0  0  0  0  0  0  0
  -22.6162  -21.3840   18.3319 C   0  0  0  0  0  0  0  0  0  0  0  0
  -28.9756  -27.3716   17.3991 C   0  0  0  0  0  0  0  0  0  0  0  0
  -26.1181  -33.2054   18.6922 C   0  0  0  0  0  0  0  0  0  0  0  0
  -26.8148  -31.4831   17.0140 C   0  0  0  0  0  0  0  0  0  0  0  0
  -28.5344  -32.6218   18.4172 C   0  0  0  0  0  0  0  0  0  0  0  0
  -28.0891  -26.2694   20.9311 C   0  0  0  0  0  0  0  0  0  0  0  0
  -27.0043  -30.9110   19.4773 C   0  0  1  0  0  0  0  0  0  0  0  0
  -28.6801  -27.5639   18.8784 C   0  0  2  0  0  0  0  0  0  0  0  0
  -27.1005  -32.0484   18.4216 C   0  0  0  0  0  0  0  0  0  0  0  0
  -19.5317  -23.0330   20.9542 N   0  0  0  0  0  0  0  0  0  0  0  0
  -22.7717  -12.8284   19.6577 N   0  0  0  0  0  0  0  0  0  0  0  0
  -23.4576  -13.9834   19.7003 N   0  0  0  0  0  0  0  0  0  0  0  0
  -26.2026  -31.2307   21.7965 N   0  0  0  0  0  0  0  0  0  0  0  0
  -21.5177  -17.2142   19.0439 N   0  0  0  0  0  0  0  0  0  0  0  0
  -21.0691  -19.5639   19.0275 N   0  0  0  0  0  0  0  0  0  0  0  0
  -25.3943  -14.9975   20.6119 N   0  0  0  0  0  0  0  0  0  0  0  0
  -25.5732  -10.7798   22.2166 N   0  0  0  0  0  0  0  0  0  0  0  0
  -25.6298  -33.9359   24.1735 N   0  0  0  0  0  0  0  0  0  0  0  0
  -27.9421  -29.8145   19.2614 N   0  0  0  0  0  0  0  0  0  0  0  0
  -28.3764  -26.2320   19.4740 N   0  3  0  0  0  0  0  0  0  0  0  0
  -26.6278  -12.8160   22.2108 O   0  0  0  0  0  0  0  0  0  0  0  0
  -25.0027  -33.4808   21.9776 O   0  0  0  0  0  0  0  0  0  0  0  0
  -28.3350  -31.9252   21.1587 O   0  0  0  0  0  0  0  0  0  0  0  0
  -26.3445  -28.1417   19.0985 O   0  0  0  0  0  0  0  0  0  0  0  0
  -22.8882  -18.7060   20.1373 O   0  0  0  0  0  0  0  0  0  0  0  0
  -21.8875   -6.7210   21.2282 O   0  0  0  0  0  0  0  0  0  0  0  0
  -20.8095  -28.4943   23.0563 O   0  0  0  0  0  0  0  0  0  1  0  0
  -22.1002   -4.7273   26.3648 F   0  0  0  0  0  0  0  0  0  0  0  0
  -19.6052   -5.8010   22.4882 F   0  0  0  0  0  0  0  0  0  0  0  0
  1  2  1  0  0  0  0
  1  5  2  0  0  0  0
  2  6  2  0  0  0  0
  3  8  2  0  0  0  0
  3 17  1  0  0  0  0
  4  9  1  0  0  0  0
  4 17  2  0  0  0  0
  5 20  1  0  0  0  0
  6 22  1  0  0  0  0
  7 10  2  0  0  0  0
  7 21  1  0  0  0  0
  8 25  1  0  0  0  0
  9 25  2  0  0  0  0
 10 26  1  0  0  0  0
 11 12  2  0  0  0  0
 11 27  1  0  0  0  0
 12 28  1  0  0  0  0
 13 23  1  0  0  0  0
 13 26  2  0  0  0  0
 14 24  1  0  0  0  0
 14 31  2  0  0  0  0
 15 28  2  0  0  0  0
 15 29  1  0  0  0  0
 16 18  1  0  0  0  0
 16 69  2  0  0  0  0
 17 30  1  0  0  0  0
 18 24  2  0  0  0  0
 18 34  1  0  0  0  0
 19 30  1  0  0  0  0
 19 32  2  0  0  0  0
 19 35  1  0  0  0  0
 20 22  2  0  0  0  0
 20 40  1  0  0  0  0
 21 23  2  0  0  0  0
 21 41  1  0  0  0  0
 22 54  1  0  0  0  0
 23 42  1  0  0  0  0
 24 53  1  0  0  0  0
 25 85  1  0  0  0  0
 26 86  1  0  0  0  0
 27 29  2  0  0  0  0
 27 85  1  0  0  0  0
 28 87  1  0  0  0  0
 29 88  1  0  0  0  0
 30 70  2  0  0  0  0
 31 55  1  0  0  0  0
 31 69  1  0  0  0  0
 32 71  1  0  0  0  0
 32 75  1  0  0  0  0
 33 34  2  0  0  0  0
 33 86  1  0  0  0  0
 34 59  1  0  0  0  0
 35 76  1  0  0  0  0
 35 80  2  0  0  0  0
 36 56  1  0  0  0  0
 36 77  1  0  0  0  0
 36 81  2  0  0  0  0
 37 66  1  0  0  0  0
 37 72  1  0  0  0  0
 37 82  2  0  0  0  0
 38 67  1  0  0  0  0
 38 78  1  0  0  0  0
 38 83  2  0  0  0  0
 39 73  1  0  0  0  0
 39 74  1  0  0  0  0
 39 84  2  0  0  0  0
 40 43  1  0  0  0  0
 41 56  1  0  0  0  0
 42 72  1  0  0  0  0
 43 47  1  0  0  0  0
 44 48  1  0  0  0  0
 44 50  1  0  0  0  0
 45 46  1  0  0  0  0
 45 53  1  0  0  0  0
 46 53  1  0  0  0  0
 47 54  1  0  0  0  0
 48 57  1  0  0  0  0
 49 51  1  0  0  0  0
 49 55  1  0  0  0  0
 50 73  1  0  0  0  0
 51 74  1  0  0  0  0
 52 57  1  0  0  0  0
 52 73  1  0  0  0  0
 54 77  1  0  0  0  0
 55 58  1  0  0  0  0
 56 72  1  0  0  0  0
 57 71  1  0  0  0  0
 58 60  1  0  0  0  0
 58 74  1  0  0  0  0
 61 67  1  0  0  0  0
 62 68  1  0  0  0  0
 63 68  1  0  0  0  0
 64 68  1  0  0  0  0
 65 79  1  0  0  0  0
 66 68  1  0  0  0  0
 66 78  1  0  0  0  0
 67 79  1  0  0  0  0
 70 71  1  0  0  0  0
M  CHG  1  79   1
M  ISO  4  33 101  39 100  74 100  86 101
M  END
> <Batch ID>
0175

> <Smiles>
CNC(C)C(=O)NC(C(=O)N1Cc2cc([101O:1][101CH:1]=C(C)c3cnc(C4CC[100N:0]([100C:0](=O)N5CCCC(n6nc(-c7ccc(Oc8ccc(F)cc8F)cc7)c(C(N)=O)c6N)C5)C4C)cc3C3CC3)ccc2CC1C(=O)NC1CCCc2ccccc21)C(C)(C)C

> <Shape>
0.246

> <Color>
0.102

> <Negative vol penalty>
0.000

$$$$

  -OEChem-04052322473D

 87 96  0     1  0  0  0  0  0999 V2000
  -28.8166  -36.3640   25.0290 C   0  0  0  0  0  0  0  0  0  0  0  0
  -29.1872  -35.6117   23.9191 C   0  0  0  0  0  0  0  0  0  0  0  0
  -22.8657  -10.4086   20.4772 C   0  0  0  0  0  0  0  0  0  0  0  0
  -24.5834   -9.3267   21.7872 C   0  0  0  0  0  0  0  0  0  0  0  0
  -28.0429  -35.7861   26.0347 C   0  0  0  0  0  0  0  0  0  0  0  0
  -28.7852  -34.2805   23.8147 C   0  0  0  0  0  0  0  0  0  0  0  0
  -26.9255  -29.3766   18.9352 C   0  0  0  0  0  0  0  0  0  0  0  0
  -21.8882   -9.6905   21.1658 C   0  0  0  0  0  0  0  0  0  0  0  0
  -23.6059   -8.6085   22.4759 C   0  0  0  0  0  0  0  0  0  0  0  0
  -27.2407  -28.0774   18.5396 C   0  0  0  0  0  0  0  0  0  0  0  0
  -21.6721   -5.8875   21.9395 C   0  0  0  0  0  0  0  0  0  0  0  0
  -21.8888   -4.5240   22.1377 C   0  0  0  0  0  0  0  0  0  0  0  0
  -25.8394  -27.2079   20.3001 C   0  0  0  0  0  0  0  0  0  0  0  0
  -29.0464  -21.9780   17.9732 C   0  0  0  0  0  0  0  0  0  0  0  0
  -21.8018   -4.8578   24.5290 C   0  0  0  0  0  0  0  0  0  0  0  0
  -24.2134  -10.2267   20.7878 C   0  0  0  0  0  0  0  0  0  0  0  0
  -25.4774  -10.9457   18.6919 C   0  0  0  0  0  0  0  0  0  0  0  0
  -27.6232  -34.4500   25.9380 C   0  0  0  0  0  0  0  0  0  0  0  0
  -26.0722  -29.6016   20.0249 C   0  0  0  0  0  0  0  0  0  0  0  0
  -28.0063  -33.6838   24.8207 C   0  0  0  0  0  0  0  0  0  0  0  0
  -25.5130  -28.5109   20.7060 C   0  0  0  0  0  0  0  0  0  0  0  0
  -28.8839  -23.3287   18.2604 C   0  0  0  0  0  0  0  0  0  0  0  0
  -28.0785  -24.1153   17.4444 C   0  0  0  0  0  0  0  0  0  0  0  0
  -22.2582   -8.7904   22.1652 C   0  0  0  0  0  0  0  0  0  0  0  0
  -26.6999  -26.9928   19.2239 C   0  0  0  0  0  0  0  0  0  0  0  0
  -21.5204   -6.7363   23.0360 C   0  0  0  0  0  0  0  0  0  0  0  0
  -21.9536   -4.0091   23.4324 C   0  0  0  0  0  0  0  0  0  0  0  0
  -21.5852   -6.2214   24.3307 C   0  0  0  0  0  0  0  0  0  0  0  0
  -25.2237  -10.9678   20.0764 C   0  0  0  0  0  0  0  0  0  0  0  0
  -27.4624  -23.5080   16.3620 C   0  0  0  0  0  0  0  0  0  0  0  0
  -28.3868  -21.4664   16.8673 C   0  0  0  0  0  0  0  0  0  0  0  0
  -26.5275  -11.8144   18.5213 C   0  0  0  0  0  0  0  0  0  0  0  0
  -24.8223  -10.2061   17.6528 C   0  0  0  0  0  0  0  0  0  0  0  0
  -26.3749  -31.0125   22.8571 C   0  0  0  0  0  0  0  0  0  0  0  0
  -23.1862  -30.4470   23.0439 C   0  0  0  0  0  0  0  0  0  0  0  0
  -20.5081  -28.5928   22.0259 C   0  0  0  0  0  0  0  0  0  0  0  0
  -29.0438  -16.6784   19.5961 C   0  0  0  0  0  0  0  0  0  0  0  0
  -26.8277  -33.8550   27.0729 C   0  0  0  0  0  0  0  0  0  0  0  0
  -25.7209  -31.0091   20.4223 C   0  0  0  0  0  0  0  0  0  0  0  0
  -24.5755  -28.6987   21.8697 C   0  0  0  0  0  0  0  0  0  0  0  0
  -26.1281  -32.5485   26.7070 C   0  0  0  0  0  0  0  0  0  0  0  0
  -29.5550  -14.0266   21.9163 C   0  0  0  0  0  0  0  0  0  0  0  0
  -27.0873  -31.6167   25.9732 C   0  0  0  0  0  0  0  0  0  0  0  0
  -28.4911  -12.9961   21.5343 C   0  0  0  0  0  0  0  0  0  0  0  0
  -29.2436  -18.3832   14.9606 C   0  0  0  0  0  0  0  0  0  0  0  0
  -29.0421  -15.4554   21.7503 C   0  0  0  0  0  0  0  0  0  0  0  0
  -28.4818  -19.6889   15.1820 C   0  0  0  0  0  0  0  0  0  0  0  0
  -27.4251  -14.7335   20.0363 C   0  0  0  0  0  0  0  0  0  0  0  0
  -28.1707  -19.1095   17.5976 C   0  0  0  0  0  0  0  0  0  0  0  0
  -27.5690  -32.2440   24.6594 C   0  0  1  0  0  0  0  0  0  0  0  0
  -25.2486  -31.1214   21.8686 C   0  0  1  0  0  0  0  0  0  0  0  0
  -27.9143  -13.2784   20.1339 C   0  0  2  0  0  0  0  0  0  0  0  0
  -28.9349  -17.7964   17.3831 C   0  0  2  0  0  0  0  0  0  0  0  0
  -28.7842  -17.3094   15.9411 C   0  0  2  0  0  0  0  0  0  0  0  0
  -29.5820  -23.9096   19.4454 C   0  0  0  0  0  0  0  0  0  0  0  0
  -26.5861  -24.3028   15.4501 C   0  0  0  0  0  0  0  0  0  0  0  0
  -18.0368  -28.3411   22.3819 C   0  0  0  0  0  0  0  0  0  0  0  0
  -23.7136  -29.0704   25.7154 C   0  0  0  0  0  0  0  0  0  0  0  0
  -21.4390  -28.0371   25.5527 C   0  0  0  0  0  0  0  0  0  0  0  0
  -21.6744  -30.5176   25.6722 C   0  0  0  0  0  0  0  0  0  0  0  0
  -19.9208  -29.1936   19.1881 C   0  0  0  0  0  0  0  0  0  0  0  0
  -27.8884  -25.5763   17.7282 C   0  0  0  0  0  0  0  0  0  1  0  0
  -22.3297  -29.3112   23.5491 C   0  0  1  0  0  0  0  0  0  0  0  0
  -19.1256  -28.9982   21.5478 C   0  0  2  0  0  0  0  0  0  0  0  0
  -22.3083  -29.2302   25.1017 C   0  0  0  0  0  0  0  0  0  0  0  0
  -26.0465  -11.7856   20.7384 N   0  0  0  0  0  0  0  0  0  0  0  0
  -27.5963  -22.1992   16.0513 N   0  0  0  0  0  0  0  0  0  0  0  0
  -26.8275  -12.2854   19.7656 N   0  0  0  0  0  0  0  0  0  0  0  0
  -28.5601  -20.1045   16.5894 N   0  0  2  0  0  0  0  0  0  0  0  0
  -24.2676  -30.0941   22.2242 N   0  0  0  0  0  0  0  0  0  0  0  0
  -28.5103  -15.6579   20.4005 N   0  0  0  0  0  0  0  0  0  0  0  0
  -27.2143  -12.2136   17.4298 N   0  0  0  0  0  0  0  0  0  0  0  0
  -25.3109   -8.9331   17.3289 N   0  0  0  0  0  0  0  0  0  0  0  0
  -26.5448  -32.1366   23.6426 N   0  0  0  0  0  0  0  0  0  0  0  0
  -21.0152  -29.4899   22.9420 N   0  0  0  0  0  0  0  0  0  0  0  0
  -28.4874  -16.7980   18.3285 N   0  0  0  0  0  0  0  0  0  0  0  0
  -29.6094  -16.0892   15.7310 N   0  3  0  0  0  0  0  0  0  0  0  0
  -18.9322  -28.6001   20.1248 N   0  3  0  0  0  0  0  0  0  0  0  0
  -23.8431  -10.6675   17.0189 O   0  0  0  0  0  0  0  0  0  0  0  0
  -27.0396  -29.9841   22.9048 O   0  0  0  0  0  0  0  0  0  0  0  0
  -22.9020  -31.6053   23.3590 O   0  0  0  0  0  0  0  0  0  0  0  0
  -21.0795  -27.5794   21.6294 O   0  0  0  0  0  0  0  0  0  0  0  0
  -29.9526  -17.4239   19.9772 O   0  0  0  0  0  0  0  0  0  0  0  0
  -21.3046   -8.0897   22.8376 O   0  0  0  0  0  0  0  0  0  0  0  0
  -27.0063  -25.7236   18.8402 O   0  0  0  0  0  0  0  0  0  1  0  0
  -22.1601   -2.6994   23.6226 F   0  0  0  0  0  0  0  0  0  0  0  0
  -21.4390   -7.0316   25.3881 F   0  0  0  0  0  0  0  0  0  0  0  0
  1  2  1  0  0  0  0
  1  5  2  0  0  0  0
  2  6  2  0  0  0  0
  3  8  2  0  0  0  0
  3 16  1  0  0  0  0
  4  9  1  0  0  0  0
  4 16  2  0  0  0  0
  5 18  1  0  0  0  0
  6 20  1  0  0  0  0
  7 10  2  0  0  0  0
  7 19  1  0  0  0  0
  8 24  1  0  0  0  0
  9 24  2  0  0  0  0
 10 25  1  0  0  0  0
 11 12  2  0  0  0  0
 11 26  1  0  0  0  0
 12 27  1  0  0  0  0
 13 21  1  0  0  0  0
 13 25  2  0  0  0  0
 14 22  2  0  0  0  0
 14 31  1  0  0  0  0
 15 27  2  0  0  0  0
 15 28  1  0  0  0  0
 16 29  1  0  0  0  0
 17 29  1  0  0  0  0
 17 32  2  0  0  0  0
 17 33  1  0  0  0  0
 18 20  2  0  0  0  0
 18 38  1  0  0  0  0
 19 21  2  0  0  0  0
 19 39  1  0  0  0  0
 20 50  1  0  0  0  0
 21 40  1  0  0  0  0
 22 23  1  0  0  0  0
 22 55  1  0  0  0  0
 23 30  2  0  0  0  0
 23 62  1  0  0  0  0
 24 84  1  0  0  0  0
 25 85  1  0  0  0  0
 26 28  2  0  0  0  0
 26 84  1  0  0  0  0
 27 86  1  0  0  0  0
 28 87  1  0  0  0  0
 29 66  2  0  0  0  0
 30 56  1  0  0  0  0
 30 67  1  0  0  0  0
 31 67  2  0  0  0  0
 31 69  1  0  0  0  0
 32 68  1  0  0  0  0
 32 72  1  0  0  0  0
 33 73  1  0  0  0  0
 33 79  2  0  0  0  0
 34 51  1  0  0  0  0
 34 74  1  0  0  0  0
 34 80  2  0  0  0  0
 35 63  1  0  0  0  0
 35 70  1  0  0  0  0
 35 81  2  0  0  0  0
 36 64  1  0  0  0  0
 36 75  1  0  0  0  0
 36 82  2  0  0  0  0
 37 71  1  0  0  0  0
 37 76  1  0  0  0  0
 37 83  2  0  0  0  0
 38 41  1  0  0  0  0
 39 51  1  0  0  0  0
 40 70  1  0  0  0  0
 41 43  1  0  0  0  0
 42 44  1  0  0  0  0
 42 46  1  0  0  0  0
 43 50  1  0  0  0  0
 44 52  1  0  0  0  0
 45 47  1  0  0  0  0
 45 54  1  0  0  0  0
 46 71  1  0  0  0  0
 47 69  1  0  0  0  0
 48 52  1  0  0  0  0
 48 71  1  0  0  0  0
 49 53  1  0  0  0  0
 49 69  1  0  0  0  0
 50 74  1  0  0  0  0
 51 70  1  0  0  0  0
 52 68  1  0  0  0  0
 53 54  1  0  0  0  0
 53 76  1  0  0  0  0
 54 77  1  0  0  0  0
 57 64  1  0  0  0  0
 58 65  1  0  0  0  0
 59 65  1  0  0  0  0
 60 65  1  0  0  0  0
 61 78  1  0  0  0  0
 62 85  1  0  0  0  0
 63 65  1  0  0  0  0
 63 75  1  0  0  0  0
 64 78  1  0  0  0  0
 66 68  1  0  0  0  0
M  CHG  2  77   1  78   1
M  ISO  4  37 100  62 101  76 100  85 101
M  END
> <Batch ID>
0175

> <Smiles>
CNC(C)C(=O)NC(C(=O)N1Cc2cc([101O:1][101CH2:1]c3c(C)cc(N4CCC(N)C([100NH:0][100C:0](=O)N5CCCC(n6nc(-c7ccc(Oc8ccc(F)cc8F)cc7)c(C(N)=O)c6N)C5)C4)nc3C)ccc2CC1C(=O)NC1CCCc2ccccc21)C(C)(C)C

> <Shape>
0.315

> <Color>
0.115

> <Negative vol penalty>
0.000

$$$$

  -OEChem-04052322473D

 85 94  0     1  0  0  0  0  0999 V2000
  -28.2848  -37.6796   23.4748 C   0  0  0  0  0  0  0  0  0  0  0  0
  -28.7612  -36.5014   22.9089 C   0  0  0  0  0  0  0  0  0  0  0  0
  -22.9860  -12.5620   21.0161 C   0  0  0  0  0  0  0  0  0  0  0  0
  -25.0851  -11.5858   20.3249 C   0  0  0  0  0  0  0  0  0  0  0  0
  -27.2434  -37.6355   24.4008 C   0  0  0  0  0  0  0  0  0  0  0  0
  -28.1972  -35.2782   23.2696 C   0  0  0  0  0  0  0  0  0  0  0  0
  -27.3995  -30.3880   19.6702 C   0  0  0  0  0  0  0  0  0  0  0  0
  -22.3135  -11.4157   20.5929 C   0  0  0  0  0  0  0  0  0  0  0  0
  -24.4126  -10.4394   19.9017 C   0  0  0  0  0  0  0  0  0  0  0  0
  -28.1360  -29.2160   19.5034 C   0  0  0  0  0  0  0  0  0  0  0  0
  -20.0850   -8.6001   20.0259 C   0  0  0  0  0  0  0  0  0  0  0  0
  -19.1109   -8.0702   20.8719 C   0  0  0  0  0  0  0  0  0  0  0  0
  -31.2128  -23.6849   20.5390 C   0  0  0  0  0  0  0  0  0  0  0  0
  -26.6763  -28.0849   21.0555 C   0  0  0  0  0  0  0  0  0  0  0  0
  -20.7765   -7.7571   22.5937 C   0  0  0  0  0  0  0  0  0  0  0  0
  -24.3719  -12.6471   20.8821 C   0  0  0  0  0  0  0  0  0  0  0  0
  -25.6036  -14.0798   22.5961 C   0  0  0  0  0  0  0  0  0  0  0  0
  -26.6598  -36.4121   24.7657 C   0  0  0  0  0  0  0  0  0  0  0  0
  -26.3006  -30.4202   20.5408 C   0  0  0  0  0  0  0  0  0  0  0  0
  -27.1479  -35.2176   24.2023 C   0  0  0  0  0  0  0  0  0  0  0  0
  -30.7298  -22.4915   19.9791 C   0  0  0  0  0  0  0  0  0  0  0  0
  -25.9260  -29.2578   21.2297 C   0  0  0  0  0  0  0  0  0  0  0  0
  -29.3580  -22.3725   19.6858 C   0  0  0  0  0  0  0  0  0  0  0  0
  -30.3492  -24.7484   20.7989 C   0  0  0  0  0  0  0  0  0  0  0  0
  -28.5012  -23.4528   19.9462 C   0  0  0  0  0  0  0  0  0  0  0  0
  -28.9944  -24.6326   20.5022 C   0  0  0  0  0  0  0  0  0  0  0  0
  -23.0268  -10.3543   20.0357 C   0  0  0  0  0  0  0  0  0  0  0  0
  -27.7762  -28.0650   20.1982 C   0  0  0  0  0  0  0  0  0  0  0  0
  -21.4050   -8.7085   20.4637 C   0  0  0  0  0  0  0  0  0  0  0  0
  -19.4566   -7.6488   22.1558 C   0  0  0  0  0  0  0  0  0  0  0  0
  -21.7507   -8.2870   21.7476 C   0  0  0  0  0  0  0  0  0  0  0  0
  -25.0671  -13.8313   21.3185 C   0  0  0  0  0  0  0  0  0  0  0  0
  -26.1557  -15.3337   22.4987 C   0  0  0  0  0  0  0  0  0  0  0  0
  -25.6031  -13.2512   23.7662 C   0  0  0  0  0  0  0  0  0  0  0  0
  -25.5805  -32.0298   23.1855 C   0  0  0  0  0  0  0  0  0  0  0  0
  -22.7068  -30.5688   22.8255 C   0  0  0  0  0  0  0  0  0  0  0  0
  -20.9265  -27.9530   21.5468 C   0  0  0  0  0  0  0  0  0  0  0  0
  -29.4545  -18.6992   19.4428 C   0  0  0  0  0  0  0  0  0  0  0  0
  -25.5681  -36.4103   25.8063 C   0  0  0  0  0  0  0  0  0  0  0  0
  -25.5003  -31.6851   20.6894 C   0  0  0  0  0  0  0  0  0  0  0  0
  -24.7423  -29.2345   22.1607 C   0  0  0  0  0  0  0  0  0  0  0  0
  -28.7832  -21.1240   19.0562 C   0  0  0  0  0  0  0  0  0  0  0  0
  -24.7738  -35.1075   25.8536 C   0  0  0  0  0  0  0  0  0  0  0  0
  -25.7616  -18.8487   18.8940 C   0  0  0  0  0  0  0  0  0  0  0  0
  -25.7153  -33.9074   25.8385 C   0  0  0  0  0  0  0  0  0  0  0  0
  -25.3178  -17.5336   19.5337 C   0  0  0  0  0  0  0  0  0  0  0  0
  -27.1808  -18.7444   18.3491 C   0  0  0  0  0  0  0  0  0  0  0  0
  -31.1066  -20.3772   18.6744 C   0  0  0  0  0  0  0  0  0  0  0  0
  -27.7534  -17.0019   20.0051 C   0  0  0  0  0  0  0  0  0  0  0  0
  -31.6846  -21.3432   19.7176 C   0  0  2  0  0  0  0  0  0  0  0  0
  -26.5453  -33.8735   24.5495 C   0  0  1  0  0  0  0  0  0  0  0  0
  -24.7114  -31.7432   21.9938 C   0  0  1  0  0  0  0  0  0  0  0  0
  -26.3326  -17.0638   20.5903 C   0  0  2  0  0  0  0  0  0  0  0  0
  -30.9047  -26.0004   21.3951 C   0  0  0  0  0  0  0  0  0  0  0  0
  -32.0286  -20.6220   21.0244 C   0  0  0  0  0  0  0  0  0  0  0  0
  -26.1924  -23.1183   20.8649 C   0  0  0  0  0  0  0  0  0  0  0  0
  -18.6022  -27.0117   21.4508 C   0  0  0  0  0  0  0  0  0  0  0  0
  -22.9936  -29.5742   25.6958 C   0  0  0  0  0  0  0  0  0  0  0  0
  -21.1803  -27.9126   25.2275 C   0  0  0  0  0  0  0  0  0  0  0  0
  -20.6973  -30.3559   25.0872 C   0  0  0  0  0  0  0  0  0  0  0  0
  -20.8318  -28.1795   18.5974 C   0  0  0  0  0  0  0  0  0  0  0  0
  -27.0410  -23.3578   19.6222 C   0  0  0  0  0  0  0  0  0  0  0  0
  -28.0718  -25.7777   20.7785 C   0  0  0  0  0  0  0  0  0  1  0  0
  -22.1042  -29.2655   23.2917 C   0  0  1  0  0  0  0  0  0  0  0  0
  -19.6249  -27.9059   20.7670 C   0  0  2  0  0  0  0  0  0  0  0  0
  -21.7674  -29.2777   24.8096 C   0  0  0  0  0  0  0  0  0  0  0  0
  -25.2607  -14.8459   20.4717 N   0  0  0  0  0  0  0  0  0  0  0  0
  -25.9250  -15.7442   21.2187 N   0  0  0  0  0  0  0  0  0  0  0  0
  -23.9952  -30.4978   22.2772 N   0  0  0  0  0  0  0  0  0  0  0  0
  -29.7326  -20.0042   19.0057 N   0  0  0  0  0  0  0  0  0  0  0  0
  -28.1196  -18.2714   19.3740 N   0  0  0  0  0  0  0  0  0  0  0  0
  -26.8110  -16.1141   23.3841 N   0  0  0  0  0  0  0  0  0  0  0  0
  -24.9924  -11.9919   23.6929 N   0  0  0  0  0  0  0  0  0  0  0  0
  -25.7488  -33.3759   23.4484 N   0  0  0  0  0  0  0  0  0  0  0  0
  -20.9565  -29.0140   22.4270 N   0  0  0  0  0  0  0  0  0  0  0  0
  -19.8631  -27.3816   19.3925 N   0  3  0  0  0  0  0  0  0  0  0  0
  -26.1142  -13.6235   24.8496 O   0  0  0  0  0  0  0  0  0  0  0  0
  -26.0615  -31.0985   23.8204 O   0  0  0  0  0  0  0  0  0  0  0  0
  -22.0554  -31.6103   22.9370 O   0  0  0  0  0  0  0  0  0  0  0  0
  -21.8251  -27.1287   21.3933 O   0  0  0  0  0  0  0  0  0  0  0  0
  -30.3418  -17.9622   19.8916 O   0  0  0  0  0  0  0  0  0  0  0  0
  -22.3708   -9.2355   19.6228 O   0  0  0  0  0  0  0  0  0  0  0  0
  -28.4990  -26.9114   20.0365 O   0  0  0  0  0  0  0  0  0  1  0  0
  -18.5207   -7.1414   22.9687 F   0  0  0  0  0  0  0  0  0  0  0  0
  -23.0169   -8.3897   22.1743 F   0  0  0  0  0  0  0  0  0  0  0  0
  1  2  1  0  0  0  0
  1  5  2  0  0  0  0
  2  6  2  0  0  0  0
  3  8  2  0  0  0  0
  3 16  1  0  0  0  0
  4  9  1  0  0  0  0
  4 16  2  0  0  0  0
  5 18  1  0  0  0  0
  6 20  1  0  0  0  0
  7 10  2  0  0  0  0
  7 19  1  0  0  0  0
  8 27  1  0  0  0  0
  9 27  2  0  0  0  0
 10 28  1  0  0  0  0
 11 12  2  0  0  0  0
 11 29  1  0  0  0  0
 12 30  1  0  0  0  0
 13 21  1  0  0  0  0
 13 24  2  0  0  0  0
 14 22  1  0  0  0  0
 14 28  2  0  0  0  0
 15 30  2  0  0  0  0
 15 31  1  0  0  0  0
 16 32  1  0  0  0  0
 17 32  1  0  0  0  0
 17 33  2  0  0  0  0
 17 34  1  0  0  0  0
 18 20  2  0  0  0  0
 18 39  1  0  0  0  0
 19 22  2  0  0  0  0
 19 40  1  0  0  0  0
 20 51  1  0  0  0  0
 21 23  2  0  0  0  0
 21 50  1  0  0  0  0
 22 41  1  0  0  0  0
 23 25  1  0  0  0  0
 23 42  1  0  0  0  0
 24 26  1  0  0  0  0
 24 54  1  0  0  0  0
 25 26  2  0  0  0  0
 25 62  1  0  0  0  0
 26 63  1  0  0  0  0
 27 82  1  0  0  0  0
 28 83  1  0  0  0  0
 29 31  2  0  0  0  0
 29 82  1  0  0  0  0
 30 84  1  0  0  0  0
 31 85  1  0  0  0  0
 32 67  2  0  0  0  0
 33 68  1  0  0  0  0
 33 72  1  0  0  0  0
 34 73  1  0  0  0  0
 34 77  2  0  0  0  0
 35 52  1  0  0  0  0
 35 74  1  0  0  0  0
 35 78  2  0  0  0  0
 36 64  1  0  0  0  0
 36 69  1  0  0  0  0
 36 79  2  0  0  0  0
 37 65  1  0  0  0  0
 37 75  1  0  0  0  0
 37 80  2  0  0  0  0
 38 70  1  0  0  0  0
 38 71  1  0  0  0  0
 38 81  2  0  0  0  0
 39 43  1  0  0  0  0
 40 52  1  0  0  0  0
 41 69  1  0  0  0  0
 42 70  1  0  0  0  0
 43 45  1  0  0  0  0
 44 46  1  0  0  0  0
 44 47  1  0  0  0  0
 45 51  1  0  0  0  0
 46 53  1  0  0  0  0
 47 71  1  0  0  0  0
 48 50  1  0  0  0  0
 48 70  1  0  0  0  0
 49 53  1  0  0  0  0
 49 71  1  0  0  0  0
 50 55  1  0  0  0  0
 51 74  1  0  0  0  0
 52 69  1  0  0  0  0
 53 68  1  0  0  0  0
 56 62  1  0  0  0  0
 57 65  1  0  0  0  0
 58 66  1  0  0  0  0
 59 66  1  0  0  0  0
 60 66  1  0  0  0  0
 61 76  1  0  0  0  0
 63 83  1  0  0  0  0
 64 66  1  0  0  0  0
 64 75  1  0  0  0  0
 65 76  1  0  0  0  0
 67 68  1  0  0  0  0
M  CHG  1  76   1
M  ISO  4  38 100  63 101  70 100  83 101
M  END
> <Batch ID>
0175

> <Smiles>
CCc1c2c(cc(C)c1[101CH2:1][101O:1]c1ccc3c(c1)CN(C(=O)C(NC(=O)C(C)NC)C(C)(C)C)C(C(=O)NC1CCCc4ccccc41)C3)C(C)C[100N:0]([100C:0](=O)N1CCCC(n3nc(-c4ccc(Oc5ccc(F)cc5F)cc4)c(C(N)=O)c3N)C1)C2

> <Shape>
0.308

> <Color>
0.093

> <Negative vol penalty>
0.000

$$$$

  -OEChem-04052322473D

 86 95  0     1  0  0  0  0  0999 V2000
  -20.1669  -19.4305   13.3914 C   0  0  0  0  0  0  0  0  0  0  0  0
  -21.4094  -19.4784   14.0153 C   0  0  0  0  0  0  0  0  0  0  0  0
  -24.4893  -29.5989   22.6916 C   0  0  0  0  0  0  0  0  0  0  0  0
  -24.9901  -31.3929   21.1528 C   0  0  0  0  0  0  0  0  0  0  0  0
  -19.0411  -19.0341   14.1121 C   0  0  0  0  0  0  0  0  0  0  0  0
  -21.5267  -19.1308   15.3606 C   0  0  0  0  0  0  0  0  0  0  0  0
  -26.2618  -16.3159   18.0367 C   0  0  0  0  0  0  0  0  0  0  0  0
  -23.8538  -30.5048   23.5409 C   0  0  0  0  0  0  0  0  0  0  0  0
  -24.3546  -32.2987   22.0020 C   0  0  0  0  0  0  0  0  0  0  0  0
  -27.3406  -16.7952   18.7785 C   0  0  0  0  0  0  0  0  0  0  0  0
  -23.1796  -35.1436   23.9350 C   0  0  0  0  0  0  0  0  0  0  0  0
  -23.8204  -36.3571   24.1849 C   0  0  0  0  0  0  0  0  0  0  0  0
  -26.1412  -16.3216   20.8172 C   0  0  0  0  0  0  0  0  0  0  0  0
  -31.7464  -19.4888   22.3842 C   0  0  0  0  0  0  0  0  0  0  0  0
  -25.7085  -35.1690   25.1126 C   0  0  0  0  0  0  0  0  0  0  0  0
  -25.0575  -30.0430   21.4976 C   0  0  0  0  0  0  0  0  0  0  0  0
  -25.1310  -28.3717   19.5717 C   0  0  0  0  0  0  0  0  0  0  0  0
  -19.1462  -18.6723   15.4643 C   0  0  0  0  0  0  0  0  0  0  0  0
  -25.1083  -15.8453   18.6804 C   0  0  0  0  0  0  0  0  0  0  0  0
  -20.4010  -18.7305   16.1004 C   0  0  0  0  0  0  0  0  0  0  0  0
  -25.0502  -15.8345   20.0813 C   0  0  0  0  0  0  0  0  0  0  0  0
  -32.0633  -18.1383   22.6720 C   0  0  0  0  0  0  0  0  0  0  0  0
  -23.7865  -31.8547   23.1961 C   0  0  0  0  0  0  0  0  0  0  0  0
  -27.2792  -16.8007   20.1690 C   0  0  0  0  0  0  0  0  0  0  0  0
  -23.8033  -33.9428   24.2739 C   0  0  0  0  0  0  0  0  0  0  0  0
  -25.0848  -36.3698   24.7737 C   0  0  0  0  0  0  0  0  0  0  0  0
  -25.0678  -33.9555   24.8627 C   0  0  0  0  0  0  0  0  0  0  0  0
  -25.7146  -29.1078   20.6202 C   0  0  0  0  0  0  0  0  0  0  0  0
  -30.7536  -19.4839   21.4295 C   0  0  0  0  0  0  0  0  0  0  0  0
  -31.2546  -17.3492   21.8842 C   0  0  0  0  0  0  0  0  0  0  0  0
  -26.1672  -27.6362   19.0503 C   0  0  0  0  0  0  0  0  0  0  0  0
  -23.7736  -28.3542   19.1104 C   0  0  0  0  0  0  0  0  0  0  0  0
  -22.0496  -16.7092   18.7176 C   0  0  0  0  0  0  0  0  0  0  0  0
  -21.7125  -14.0112   20.4867 C   0  0  0  0  0  0  0  0  0  0  0  0
  -23.1475  -11.6991   22.5462 C   0  0  0  0  0  0  0  0  0  0  0  0
  -30.6435  -24.5152   19.5410 C   0  0  0  0  0  0  0  0  0  0  0  0
  -17.8932  -18.2958   16.2146 C   0  0  0  0  0  0  0  0  0  0  0  0
  -23.9639  -15.3068   17.8663 C   0  0  0  0  0  0  0  0  0  0  0  0
  -23.8428  -15.3211   20.8209 C   0  0  0  0  0  0  0  0  0  0  0  0
  -18.1659  -17.5837   17.5370 C   0  0  0  0  0  0  0  0  0  0  0  0
  -31.1469  -27.9213   19.8465 C   0  0  0  0  0  0  0  0  0  0  0  0
  -19.2483  -18.3155   18.3241 C   0  0  0  0  0  0  0  0  0  0  0  0
  -29.7337  -28.4861   19.9886 C   0  0  0  0  0  0  0  0  0  0  0  0
  -29.8985  -21.8535   21.7039 C   0  0  0  0  0  0  0  0  0  0  0  0
  -30.7262  -21.0615   19.4462 C   0  0  0  0  0  0  0  0  0  0  0  0
  -31.3018  -26.6318   20.6443 C   0  0  0  0  0  0  0  0  0  0  0  0
  -29.2087  -23.0331   21.0126 C   0  0  0  0  0  0  0  0  0  0  0  0
  -29.9978  -22.2405   18.8077 C   0  0  0  0  0  0  0  0  0  0  0  0
  -28.8915  -26.1247   20.4187 C   0  0  0  0  0  0  0  0  0  0  0  0
  -20.5728  -18.3372   17.5516 C   0  0  1  0  0  0  0  0  0  0  0  0
  -30.0422  -20.6453   20.7611 C   0  0  0  0  0  0  0  0  0  0  0  0
  -22.6351  -15.3292   18.6155 C   0  0  1  0  0  0  0  0  0  0  0  0
  -28.6764  -27.4289   19.6242 C   0  0  1  0  0  0  0  0  0  0  0  0
  -33.0753  -17.6710   23.6403 C   0  0  0  0  0  0  0  0  0  0  0  0
  -30.7343  -15.2065   23.1056 C   0  0  0  0  0  0  0  0  0  0  0  0
  -32.4815  -15.2293   21.2886 C   0  0  0  0  0  0  0  0  0  0  0  0
  -22.6107   -9.6317   23.8634 C   0  0  0  0  0  0  0  0  0  0  0  0
  -20.3303  -15.7210   22.6023 C   0  0  0  0  0  0  0  0  0  0  0  0
  -20.6756  -13.8552   24.2357 C   0  0  0  0  0  0  0  0  0  0  0  0
  -19.2699  -13.4908   22.2074 C   0  0  0  0  0  0  0  0  0  0  0  0
  -25.0781  -10.0730   21.0010 C   0  0  0  0  0  0  0  0  0  0  0  0
  -29.4708  -17.7413   20.1728 C   0  0  0  0  0  0  0  0  0  1  0  0
  -31.1680  -15.8767   21.7824 C   0  0  0  0  0  0  0  0  0  0  0  0
  -21.7785  -13.6828   21.9587 C   0  0  1  0  0  0  0  0  0  0  0  0
  -23.1113  -10.1815   22.5368 C   0  0  2  0  0  0  0  0  0  0  0  0
  -20.5357  -14.1990   22.7373 C   0  0  0  0  0  0  0  0  0  0  0  0
  -27.0202  -28.8623   20.7581 N   0  0  0  0  0  0  0  0  0  0  0  0
  -30.4628  -18.1779   21.1329 N   0  0  0  0  0  0  0  0  0  0  0  0
  -27.2656  -27.9636   19.7896 N   0  0  0  0  0  0  0  0  0  0  0  0
  -22.7470  -14.8108   19.9804 N   0  0  0  0  0  0  0  0  0  0  0  0
  -30.2781  -25.6554   20.2722 N   0  0  0  0  0  0  0  0  0  0  0  0
  -29.8791  -23.3566   19.7456 N   0  0  0  0  0  0  0  0  0  0  0  0
  -26.2368  -26.7479   18.0362 N   0  0  0  0  0  0  0  0  0  0  0  0
  -22.8370  -29.1708   19.7587 N   0  0  0  0  0  0  0  0  0  0  0  0
  -21.2386  -17.0563   17.6539 N   0  0  0  0  0  0  0  0  0  0  0  0
  -21.9822  -12.2408   22.0464 N   0  0  0  0  0  0  0  0  0  0  0  0
  -24.4736   -9.6324   22.2845 N   0  3  0  0  0  0  0  0  0  0  0  0
  -23.3988  -27.6235   18.1622 O   0  0  0  0  0  0  0  0  0  0  0  0
  -22.3128  -17.4068   19.6901 O   0  0  0  0  0  0  0  0  0  0  0  0
  -20.7814  -13.5685   19.8094 O   0  0  0  0  0  0  0  0  0  0  0  0
  -24.1115  -12.3398   22.9593 O   0  0  0  0  0  0  0  0  0  0  0  0
  -31.5959  -24.5307   18.7511 O   0  0  0  0  0  0  0  0  0  0  0  0
  -23.1662  -32.7388   24.0244 O   0  0  0  0  0  0  0  0  0  0  0  0
  -28.3373  -17.2716   20.9002 O   0  0  0  0  0  0  0  0  0  1  0  0
  -25.7006  -37.5352   25.0122 F   0  0  0  0  0  0  0  0  0  0  0  0
  -25.6724  -32.8051   25.1894 F   0  0  0  0  0  0  0  0  0  0  0  0
  1  2  1  0  0  0  0
  1  5  2  0  0  0  0
  2  6  2  0  0  0  0
  3  8  2  0  0  0  0
  3 16  1  0  0  0  0
  4  9  1  0  0  0  0
  4 16  2  0  0  0  0
  5 18  1  0  0  0  0
  6 20  1  0  0  0  0
  7 10  2  0  0  0  0
  7 19  1  0  0  0  0
  8 23  1  0  0  0  0
  9 23  2  0  0  0  0
 10 24  1  0  0  0  0
 11 12  2  0  0  0  0
 11 25  1  0  0  0  0
 12 26  1  0  0  0  0
 13 21  1  0  0  0  0
 13 24  2  0  0  0  0
 14 22  1  0  0  0  0
 14 29  2  0  0  0  0
 15 26  2  0  0  0  0
 15 27  1  0  0  0  0
 16 28  1  0  0  0  0
 17 28  1  0  0  0  0
 17 31  2  0  0  0  0
 17 32  1  0  0  0  0
 18 20  2  0  0  0  0
 18 37  1  0  0  0  0
 19 21  2  0  0  0  0
 19 38  1  0  0  0  0
 20 50  1  0  0  0  0
 21 39  1  0  0  0  0
 22 30  2  0  0  0  0
 22 54  1  0  0  0  0
 23 83  1  0  0  0  0
 24 84  1  0  0  0  0
 25 27  2  0  0  0  0
 25 83  1  0  0  0  0
 26 85  1  0  0  0  0
 27 86  1  0  0  0  0
 28 67  2  0  0  0  0
 29 51  1  0  0  0  0
 29 68  1  0  0  0  0
 30 63  1  0  0  0  0
 30 68  1  0  0  0  0
 31 69  1  0  0  0  0
 31 73  1  0  0  0  0
 32 74  1  0  0  0  0
 32 78  2  0  0  0  0
 33 52  1  0  0  0  0
 33 75  1  0  0  0  0
 33 79  2  0  0  0  0
 34 64  1  0  0  0  0
 34 70  1  0  0  0  0
 34 80  2  0  0  0  0
 35 65  1  0  0  0  0
 35 76  1  0  0  0  0
 35 81  2  0  0  0  0
 36 71  1  0  0  0  0
 36 72  1  0  0  0  0
 36 82  2  0  0  0  0
 37 40  1  0  0  0  0
 38 52  1  0  0  0  0
 39 70  1  0  0  0  0
 40 42  1  0  0  0  0
 41 43  1  0  0  0  0
 41 46  1  0  0  0  0
 42 50  1  0  0  0  0
 43 53  1  0  0  0  0
 44 47  1  0  0  0  0
 44 51  1  0  0  0  0
 45 48  1  0  0  0  0
 45 51  1  0  0  0  0
 46 71  1  0  0  0  0
 47 72  1  0  0  0  0
 48 72  1  0  0  0  0
 49 53  1  0  0  0  0
 49 71  1  0  0  0  0
 50 75  1  0  0  0  0
 52 70  1  0  0  0  0
 53 69  1  0  0  0  0
 55 63  1  0  0  0  0
 56 63  1  0  0  0  0
 57 65  1  0  0  0  0
 58 66  1  0  0  0  0
 59 66  1  0  0  0  0
 60 66  1  0  0  0  0
 61 77  1  0  0  0  0
 62 68  1  0  0  0  0
 62 84  1  0  0  0  0
 64 66  1  0  0  0  0
 64 76  1  0  0  0  0
 65 77  1  0  0  0  0
 67 69  1  0  0  0  0
M  CHG  1  77   1
M  ISO  4  36 100  62 101  72 100  84 101
M  END
> <Batch ID>
0175

> <Smiles>
CNC(C)C(=O)NC(C(=O)N1Cc2cc([101O:1][101CH2:1]n3c(C4CC[100N:0]([100C:0](=O)N5CCCC(n6nc(-c7ccc(Oc8ccc(F)cc8F)cc7)c(C(N)=O)c6N)C5)CC4)cc(C)c3C(C)C)ccc2CC1C(=O)NC1CCCc2ccccc21)C(C)(C)C

> <Shape>
0.266

> <Color>
0.047

> <Negative vol penalty>
0.000

$$$$

  -OEChem-04052322473D

 85 94  0     1  0  0  0  0  0999 V2000
  -28.9096  -30.9171   26.9220 C   0  0  0  0  0  0  0  0  0  0  0  0
  -28.6873  -29.7900   26.1374 C   0  0  0  0  0  0  0  0  0  0  0  0
  -22.5302  -11.6069   21.1240 C   0  0  0  0  0  0  0  0  0  0  0  0
  -23.1478  -13.0236   22.9810 C   0  0  0  0  0  0  0  0  0  0  0  0
  -27.8593  -31.7919   27.1970 C   0  0  0  0  0  0  0  0  0  0  0  0
  -27.4142  -29.5364   25.6282 C   0  0  0  0  0  0  0  0  0  0  0  0
  -27.5097  -28.1575   20.7564 C   0  0  0  0  0  0  0  0  0  0  0  0
  -21.5345  -11.0187   21.9038 C   0  0  0  0  0  0  0  0  0  0  0  0
  -22.1521  -12.4354   23.7609 C   0  0  0  0  0  0  0  0  0  0  0  0
  -27.8767  -26.8424   20.4739 C   0  0  0  0  0  0  0  0  0  0  0  0
  -18.7996  -12.6747   24.1134 C   0  0  0  0  0  0  0  0  0  0  0  0
  -17.9911  -13.5190   24.8743 C   0  0  0  0  0  0  0  0  0  0  0  0
  -30.8657  -20.7572   19.4128 C   0  0  0  0  0  0  0  0  0  0  0  0
  -25.5515  -26.2562   20.2113 C   0  0  0  0  0  0  0  0  0  0  0  0
  -18.7255  -12.4062   26.8892 C   0  0  0  0  0  0  0  0  0  0  0  0
  -23.3369  -12.6094   21.6625 C   0  0  0  0  0  0  0  0  0  0  0  0
  -24.2417  -14.3517   20.0336 C   0  0  0  0  0  0  0  0  0  0  0  0
  -26.5748  -31.5540   26.6829 C   0  0  0  0  0  0  0  0  0  0  0  0
  -26.1579  -28.5299   20.7792 C   0  0  0  0  0  0  0  0  0  0  0  0
  -26.3454  -30.4081   25.8976 C   0  0  0  0  0  0  0  0  0  0  0  0
  -29.4758  -20.7465   19.3734 C   0  0  0  0  0  0  0  0  0  0  0  0
  -25.1701  -27.5772   20.4918 C   0  0  0  0  0  0  0  0  0  0  0  0
  -31.5628  -19.5563   19.4838 C   0  0  0  0  0  0  0  0  0  0  0  0
  -21.3455  -11.4329   23.2223 C   0  0  0  0  0  0  0  0  0  0  0  0
  -26.8975  -25.8909   20.2042 C   0  0  0  0  0  0  0  0  0  0  0  0
  -19.5710  -11.6961   24.7403 C   0  0  0  0  0  0  0  0  0  0  0  0
  -17.9540  -13.3848   26.2622 C   0  0  0  0  0  0  0  0  0  0  0  0
  -19.5340  -11.5619   26.1282 C   0  0  0  0  0  0  0  0  0  0  0  0
  -24.3659  -13.2171   20.8576 C   0  0  0  0  0  0  0  0  0  0  0  0
  -28.8355  -19.5183   19.4072 C   0  0  0  0  0  0  0  0  0  0  0  0
  -30.8290  -18.3813   19.5129 C   0  0  0  0  0  0  0  0  0  0  0  0
  -25.4919  -14.5201   19.4904 C   0  0  0  0  0  0  0  0  0  0  0  0
  -23.0984  -15.1794   19.7818 C   0  0  0  0  0  0  0  0  0  0  0  0
  -24.1844  -29.6773   22.9910 C   0  0  0  0  0  0  0  0  0  0  0  0
  -22.1353  -29.9050   20.4865 C   0  0  0  0  0  0  0  0  0  0  0  0
  -21.2229  -28.8206   17.3820 C   0  0  0  0  0  0  0  0  0  0  0  0
  -31.0462  -14.6645   20.0134 C   0  0  0  0  0  0  0  0  0  0  0  0
  -25.4602  -32.5028   27.0464 C   0  0  0  0  0  0  0  0  0  0  0  0
  -25.7798  -29.9585   21.0593 C   0  0  0  0  0  0  0  0  0  0  0  0
  -23.7060  -27.9305   20.4837 C   0  0  0  0  0  0  0  0  0  0  0  0
  -24.2265  -32.3617   26.1586 C   0  0  0  0  0  0  0  0  0  0  0  0
  -29.5335  -11.4786   19.5249 C   0  0  0  0  0  0  0  0  0  0  0  0
  -29.4566  -23.1845   18.5635 C   0  0  0  0  0  0  0  0  0  0  0  0
  -23.8548  -30.8919   25.9907 C   0  0  0  0  0  0  0  0  0  0  0  0
  -28.0456  -11.7394   19.7662 C   0  0  0  0  0  0  0  0  0  0  0  0
  -29.6274  -24.3028   19.5900 C   0  0  0  0  0  0  0  0  0  0  0  0
  -28.3569  -22.6100   20.6883 C   0  0  0  0  0  0  0  0  0  0  0  0
  -30.4108  -12.3116   20.4568 C   0  0  0  0  0  0  0  0  0  0  0  0
  -28.6494  -14.0214   20.6752 C   0  0  0  0  0  0  0  0  0  0  0  0
  -28.7116  -22.0493   19.2960 C   0  0  2  0  0  0  0  0  0  0  0  0
  -24.9841  -30.1120   25.3066 C   0  0  1  0  0  0  0  0  0  0  0  0
  -24.3472  -30.1100   21.5613 C   0  0  1  0  0  0  0  0  0  0  0  0
  -27.7257  -13.2456   19.7207 C   0  0  2  0  0  0  0  0  0  0  0  0
  -28.4466  -24.1219   20.5315 C   0  0  2  0  0  0  0  0  0  1  0  0
  -33.0519  -19.5608   19.5266 C   0  0  0  0  0  0  0  0  0  0  0  0
  -27.3441  -19.4449   19.3687 C   0  0  0  0  0  0  0  0  0  0  0  0
  -19.4831  -29.1669   15.6069 C   0  0  0  0  0  0  0  0  0  0  0  0
  -20.1314  -28.3072   22.1423 C   0  0  0  0  0  0  0  0  0  0  0  0
  -18.8440  -27.8749   20.0391 C   0  0  0  0  0  0  0  0  0  0  0  0
  -19.1411  -30.2119   20.8593 C   0  0  0  0  0  0  0  0  0  0  0  0
  -23.2462  -29.6906   15.4051 C   0  0  0  0  0  0  0  0  0  0  0  0
  -31.5255  -17.0620   19.5875 C   0  0  0  0  0  0  0  0  0  0  0  0
  -21.1138  -28.9907   19.8545 C   0  0  1  0  0  0  0  0  0  0  0  0
  -20.8552  -29.5774   16.1184 C   0  0  2  0  0  0  0  0  0  0  0  0
  -19.8350  -28.8387   20.7258 C   0  0  0  0  0  0  0  0  0  0  0  0
  -25.5978  -12.7010   20.8422 N   0  0  0  0  0  0  0  0  0  0  0  0
  -29.4785  -18.3312   19.4761 N   0  0  0  0  0  0  0  0  0  0  0  0
  -26.2590  -13.5151   20.0019 N   0  0  0  0  0  0  0  0  0  0  0  0
  -23.3864  -29.3389   20.7697 N   0  0  0  0  0  0  0  0  0  0  0  0
  -30.0578  -13.7303   20.3647 N   0  0  0  0  0  0  0  0  0  0  0  0
  -25.9988  -15.4283   18.6299 N   0  0  0  0  0  0  0  0  0  0  0  0
  -21.8918  -14.8650   20.4219 N   0  0  0  0  0  0  0  0  0  0  0  0
  -24.9839  -30.3673   23.8821 N   0  0  0  0  0  0  0  0  0  0  0  0
  -20.8663  -29.5178   18.5169 N   0  0  0  0  0  0  0  0  0  0  0  0
  -30.6260  -15.9870   19.9425 N   0  0  0  0  0  0  0  0  0  0  0  0
  -21.8554  -29.3118   15.0460 N   0  3  0  0  0  0  0  0  0  0  0  0
  -23.1411  -16.1588   18.9992 O   0  0  0  0  0  0  0  0  0  0  0  0
  -23.3909  -28.7847   23.2654 O   0  0  0  0  0  0  0  0  0  0  0  0
  -21.8367  -31.0800   20.7138 O   0  0  0  0  0  0  0  0  0  0  0  0
  -21.7682  -27.7193   17.3639 O   0  0  0  0  0  0  0  0  0  0  0  0
  -32.2154  -14.3430   19.7751 O   0  0  0  0  0  0  0  0  0  0  0  0
  -20.3739  -10.8592   23.9835 O   0  0  0  0  0  0  0  0  0  0  0  0
  -27.2530  -24.6065   19.9288 O   0  0  0  0  0  0  0  0  0  1  0  0
  -17.1787  -14.1966   26.9930 F   0  0  0  0  0  0  0  0  0  0  0  0
  -20.2738  -10.6245   26.7362 F   0  0  0  0  0  0  0  0  0  0  0  0
  1  2  1  0  0  0  0
  1  5  2  0  0  0  0
  2  6  2  0  0  0  0
  3  8  2  0  0  0  0
  3 16  1  0  0  0  0
  4  9  1  0  0  0  0
  4 16  2  0  0  0  0
  5 18  1  0  0  0  0
  6 20  1  0  0  0  0
  7 10  2  0  0  0  0
  7 19  1  0  0  0  0
  8 24  1  0  0  0  0
  9 24  2  0  0  0  0
 10 25  1  0  0  0  0
 11 12  2  0  0  0  0
 11 26  1  0  0  0  0
 12 27  1  0  0  0  0
 13 21  1  0  0  0  0
 13 23  2  0  0  0  0
 14 22  1  0  0  0  0
 14 25  2  0  0  0  0
 15 27  2  0  0  0  0
 15 28  1  0  0  0  0
 16 29  1  0  0  0  0
 17 29  1  0  0  0  0
 17 32  2  0  0  0  0
 17 33  1  0  0  0  0
 18 20  2  0  0  0  0
 18 38  1  0  0  0  0
 19 22  2  0  0  0  0
 19 39  1  0  0  0  0
 20 51  1  0  0  0  0
 21 30  2  0  0  0  0
 21 50  1  0  0  0  0
 22 40  1  0  0  0  0
 23 31  1  0  0  0  0
 23 55  1  0  0  0  0
 24 82  1  0  0  0  0
 25 83  1  0  0  0  0
 26 28  2  0  0  0  0
 26 82  1  0  0  0  0
 27 84  1  0  0  0  0
 28 85  1  0  0  0  0
 29 66  2  0  0  0  0
 30 56  1  0  0  0  0
 30 67  1  0  0  0  0
 31 62  1  0  0  0  0
 31 67  2  0  0  0  0
 32 68  1  0  0  0  0
 32 71  1  0  0  0  0
 33 72  1  0  0  0  0
 33 77  2  0  0  0  0
 34 52  1  0  0  0  0
 34 73  1  0  0  0  0
 34 78  2  0  0  0  0
 35 63  1  0  0  0  0
 35 69  1  0  0  0  0
 35 79  2  0  0  0  0
 36 64  1  0  0  0  0
 36 74  1  0  0  0  0
 36 80  2  0  0  0  0
 37 70  1  0  0  0  0
 37 75  1  0  0  0  0
 37 81  2  0  0  0  0
 38 41  1  0  0  0  0
 39 52  1  0  0  0  0
 40 69  1  0  0  0  0
 41 44  1  0  0  0  0
 42 45  1  0  0  0  0
 42 48  1  0  0  0  0
 43 46  1  0  0  0  0
 43 50  1  0  0  0  0
 44 51  1  0  0  0  0
 45 53  1  0  0  0  0
 46 54  1  0  0  0  0
 47 50  1  0  0  0  0
 47 54  1  0  0  0  0
 48 70  1  0  0  0  0
 49 53  1  0  0  0  0
 49 70  1  0  0  0  0
 51 73  1  0  0  0  0
 52 69  1  0  0  0  0
 53 68  1  0  0  0  0
 54 83  1  0  0  0  0
 57 64  1  0  0  0  0
 58 65  1  0  0  0  0
 59 65  1  0  0  0  0
 60 65  1  0  0  0  0
 61 76  1  0  0  0  0
 62 75  1  0  0  0  0
 63 65  1  0  0  0  0
 63 74  1  0  0  0  0
 64 76  1  0  0  0  0
 66 68  1  0  0  0  0
M  CHG  1  76   1
M  ISO  4  37 100  54 101  75 100  83 101
M  END
> <Batch ID>
0175

> <Smiles>
CNC(C)C(=O)NC(C(=O)N1Cc2cc([101O:1][101CH:1]3CCC(c4cc(C)c(C[100NH:0][100C:0](=O)N5CCCC(n6nc(-c7ccc(Oc8ccc(F)cc8F)cc7)c(C(N)=O)c6N)C5)nc4C)C3)ccc2CC1C(=O)NC1CCCc2ccccc21)C(C)(C)C

> <Shape>
0.284

> <Color>
0.075

> <Negative vol penalty>
0.000

$$$$

  -OEChem-04052322473D

 85 94  0     1  0  0  0  0  0999 V2000
  -21.4437  -29.8886   19.4998 C   0  0  0  0  0  0  0  0  0  0  0  0
  -21.6896  -28.5995   19.0380 C   0  0  0  0  0  0  0  0  0  0  0  0
  -22.4125  -11.4255   19.8922 C   0  0  0  0  0  0  0  0  0  0  0  0
  -22.8334  -11.3665   22.2705 C   0  0  0  0  0  0  0  0  0  0  0  0
  -22.4180  -30.5621   20.2353 C   0  0  0  0  0  0  0  0  0  0  0  0
  -22.9106  -27.9836   19.3106 C   0  0  0  0  0  0  0  0  0  0  0  0
  -25.7434  -21.5321   20.6027 C   0  0  0  0  0  0  0  0  0  0  0  0
  -21.2279  -10.7146   20.0841 C   0  0  0  0  0  0  0  0  0  0  0  0
  -21.6487  -10.6556   22.4625 C   0  0  0  0  0  0  0  0  0  0  0  0
  -26.7678  -20.6970   20.1588 C   0  0  0  0  0  0  0  0  0  0  0  0
  -18.0730  -11.3626   21.1136 C   0  0  0  0  0  0  0  0  0  0  0  0
  -16.9347  -11.8060   20.4404 C   0  0  0  0  0  0  0  0  0  0  0  0
  -28.3460  -21.9267   21.5065 C   0  0  0  0  0  0  0  0  0  0  0  0
  -16.7703   -9.6745   19.3147 C   0  0  0  0  0  0  0  0  0  0  0  0
  -23.2154  -11.7514   20.9854 C   0  0  0  0  0  0  0  0  0  0  0  0
  -24.6029  -13.8834   20.7936 C   0  0  0  0  0  0  0  0  0  0  0  0
  -23.6478  -29.9504   20.5253 C   0  0  0  0  0  0  0  0  0  0  0  0
  -26.0149  -22.5793   21.4949 C   0  0  0  0  0  0  0  0  0  0  0  0
  -23.9028  -28.6500   20.0496 C   0  0  0  0  0  0  0  0  0  0  0  0
  -27.3228  -22.7720   21.9622 C   0  0  0  0  0  0  0  0  0  0  0  0
  -29.9002  -16.2370   16.7917 C   0  0  0  0  0  0  0  0  0  0  0  0
  -29.3131  -15.4950   15.7677 C   0  0  0  0  0  0  0  0  0  0  0  0
  -20.8459  -10.3297   21.3693 C   0  0  0  0  0  0  0  0  0  0  0  0
  -28.0698  -20.8961   20.6084 C   0  0  0  0  0  0  0  0  0  0  0  0
  -18.5601  -10.0752   20.8873 C   0  0  0  0  0  0  0  0  0  0  0  0
  -16.2833  -10.9619   19.5410 C   0  0  0  0  0  0  0  0  0  0  0  0
  -17.9087   -9.2312   19.9879 C   0  0  0  0  0  0  0  0  0  0  0  0
  -24.4395  -12.4852   20.7876 C   0  0  0  0  0  0  0  0  0  0  0  0
  -30.4372  -15.3622   17.7035 C   0  0  0  0  0  0  0  0  0  0  0  0
  -29.5219  -14.1654   16.0941 C   0  0  0  0  0  0  0  0  0  0  0  0
  -25.9433  -14.0734   20.5620 C   0  0  0  0  0  0  0  0  0  0  0  0
  -31.0648  -16.0414   18.8013 C   0  0  0  0  0  0  0  0  0  0  0  0
  -30.8844  -17.5154   18.4851 C   0  0  0  0  0  0  0  0  0  0  0  0
  -31.3428  -18.4896   19.2723 C   0  0  0  0  0  0  0  0  0  0  0  0
  -23.6301  -14.9179   20.9910 C   0  0  0  0  0  0  0  0  0  0  0  0
  -25.7572  -25.7454   21.3827 C   0  0  0  0  0  0  0  0  0  0  0  0
  -26.6039  -25.5353   24.5070 C   0  0  0  0  0  0  0  0  0  0  0  0
  -28.1446  -23.7553   26.9778 C   0  0  0  0  0  0  0  0  0  0  0  0
  -30.6502  -12.9144   17.9684 C   0  0  0  0  0  0  0  0  0  0  0  0
  -30.1180  -17.6545   17.1681 C   0  0  0  0  0  0  0  0  0  0  0  0
  -24.6883  -30.7359   21.2836 C   0  0  0  0  0  0  0  0  0  0  0  0
  -24.8942  -23.4545   21.9850 C   0  0  0  0  0  0  0  0  0  0  0  0
  -27.6633  -23.8693   22.9362 C   0  0  0  0  0  0  0  0  0  0  0  0
  -25.8117  -29.8711   21.8495 C   0  0  0  0  0  0  0  0  0  0  0  0
  -29.7899  -10.8033   20.5476 C   0  0  0  0  0  0  0  0  0  0  0  0
  -26.3181  -28.8949   20.7925 C   0  0  0  0  0  0  0  0  0  0  0  0
  -28.3340  -11.1535   20.8507 C   0  0  0  0  0  0  0  0  0  0  0  0
  -30.0464  -10.7934   19.0452 C   0  0  0  0  0  0  0  0  0  0  0  0
  -28.2475  -12.4473   18.6610 C   0  0  0  0  0  0  0  0  0  0  0  0
  -25.2053  -27.9389   20.3460 C   0  0  1  0  0  0  0  0  0  0  0  0
  -25.3738  -24.8102   22.4945 C   0  0  1  0  0  0  0  0  0  0  0  0
  -27.9327  -12.4741   20.1710 C   0  0  1  0  0  0  0  0  0  0  0  0
  -28.6600  -16.0232   14.5553 C   0  0  0  0  0  0  0  0  0  0  0  0
  -29.2866  -13.0209   15.1769 C   0  0  0  0  0  0  0  0  0  0  0  0
  -32.5506  -20.6173   18.8296 C   0  0  0  0  0  0  0  0  0  0  0  0
  -28.7083  -23.8577   29.4210 C   0  0  0  0  0  0  0  0  0  0  0  0
  -28.8396  -27.5227   23.9054 C   0  0  0  0  0  0  0  0  0  0  0  0
  -29.9133  -26.8632   26.0689 C   0  0  0  0  0  0  0  0  0  0  0  0
  -27.6508  -27.9138   26.0706 C   0  0  0  0  0  0  0  0  0  0  0  0
  -26.5668  -21.3206   27.5626 C   0  0  0  0  0  0  0  0  0  0  0  0
  -30.3789  -20.6497   20.0952 C   0  0  0  0  0  0  0  0  0  1  0  0
  -31.1769  -19.9642   18.9811 C   0  0  2  0  0  0  0  0  0  0  0  0
  -27.9109  -25.5323   25.2626 C   0  0  1  0  0  0  0  0  0  0  0  0
  -27.7006  -23.3897   28.3826 C   0  0  2  0  0  0  0  0  0  0  0  0
  -28.5729  -26.9385   25.3070 C   0  0  0  0  0  0  0  0  0  0  0  0
  -25.5846  -11.8331   20.5694 N   0  0  0  0  0  0  0  0  0  0  0  0
  -30.1884  -14.0696   17.3183 N   0  0  0  0  0  0  0  0  0  0  0  0
  -26.4803  -12.8261   20.4359 N   0  0  0  0  0  0  0  0  0  0  0  0
  -26.5341  -24.7025   23.3812 N   0  0  0  0  0  0  0  0  0  0  0  0
  -29.6505  -12.0597   18.4308 N   0  0  0  0  0  0  0  0  0  0  0  0
  -26.7032  -15.1841   20.4558 N   0  0  0  0  0  0  0  0  0  0  0  0
  -22.2973  -14.5476   21.2168 N   0  0  0  0  0  0  0  0  0  0  0  0
  -25.0027  -26.9021   21.3352 N   0  0  0  0  0  0  0  0  0  0  0  0
  -27.6219  -24.9662   26.5758 N   0  0  0  0  0  0  0  0  0  0  0  0
  -27.5466  -21.9128   28.5094 N   0  3  0  0  0  0  0  0  0  0  0  0
  -31.6163  -15.5817   19.7862 O   0  0  0  0  0  0  0  0  0  0  0  0
  -23.9307  -16.1351   20.9514 O   0  0  0  0  0  0  0  0  0  0  0  0
  -26.6710  -25.4409   20.6252 O   0  0  0  0  0  0  0  0  0  0  0  0
  -25.6767  -26.2447   24.9053 O   0  0  0  0  0  0  0  0  0  0  0  0
  -28.8845  -23.0400   26.3058 O   0  0  0  0  0  0  0  0  0  0  0  0
  -31.8597  -12.7293   18.0148 O   0  0  0  0  0  0  0  0  0  0  0  0
  -19.6899   -9.6363   21.5570 O   0  0  0  0  0  0  0  0  0  0  0  0
  -29.0784  -20.0775   20.1733 O   0  0  0  0  0  0  0  0  0  1  0  0
  -15.1892  -11.3873   18.8957 F   0  0  0  0  0  0  0  0  0  0  0  0
  -18.3712   -7.9930   19.7672 F   0  0  0  0  0  0  0  0  0  0  0  0
  1  2  1  0  0  0  0
  1  5  2  0  0  0  0
  2  6  2  0  0  0  0
  3  8  2  0  0  0  0
  3 15  1  0  0  0  0
  4  9  1  0  0  0  0
  4 15  2  0  0  0  0
  5 17  1  0  0  0  0
  6 19  1  0  0  0  0
  7 10  2  0  0  0  0
  7 18  1  0  0  0  0
  8 23  1  0  0  0  0
  9 23  2  0  0  0  0
 10 24  1  0  0  0  0
 11 12  2  0  0  0  0
 11 25  1  0  0  0  0
 12 26  1  0  0  0  0
 13 20  1  0  0  0  0
 13 24  2  0  0  0  0
 14 26  2  0  0  0  0
 14 27  1  0  0  0  0
 15 28  1  0  0  0  0
 16 28  1  0  0  0  0
 16 31  2  0  0  0  0
 16 35  1  0  0  0  0
 17 19  2  0  0  0  0
 17 41  1  0  0  0  0
 18 20  2  0  0  0  0
 18 42  1  0  0  0  0
 19 50  1  0  0  0  0
 20 43  1  0  0  0  0
 21 22  1  0  0  0  0
 21 29  2  0  0  0  0
 21 40  1  0  0  0  0
 22 30  2  0  0  0  0
 22 53  1  0  0  0  0
 23 82  1  0  0  0  0
 24 83  1  0  0  0  0
 25 27  2  0  0  0  0
 25 82  1  0  0  0  0
 26 84  1  0  0  0  0
 27 85  1  0  0  0  0
 28 66  2  0  0  0  0
 29 32  1  0  0  0  0
 29 67  1  0  0  0  0
 30 54  1  0  0  0  0
 30 67  1  0  0  0  0
 31 68  1  0  0  0  0
 31 71  1  0  0  0  0
 32 33  1  0  0  0  0
 32 76  2  0  0  0  0
 33 34  2  0  0  0  0
 33 40  1  0  0  0  0
 34 62  1  0  0  0  0
 35 72  1  0  0  0  0
 35 77  2  0  0  0  0
 36 51  1  0  0  0  0
 36 73  1  0  0  0  0
 36 78  2  0  0  0  0
 37 63  1  0  0  0  0
 37 69  1  0  0  0  0
 37 79  2  0  0  0  0
 38 64  1  0  0  0  0
 38 74  1  0  0  0  0
 38 80  2  0  0  0  0
 39 67  1  0  0  0  0
 39 70  1  0  0  0  0
 39 81  2  0  0  0  0
 41 44  1  0  0  0  0
 42 51  1  0  0  0  0
 43 69  1  0  0  0  0
 44 46  1  0  0  0  0
 45 47  1  0  0  0  0
 45 48  1  0  0  0  0
 46 50  1  0  0  0  0
 47 52  1  0  0  0  0
 48 70  1  0  0  0  0
 49 52  1  0  0  0  0
 49 70  1  0  0  0  0
 50 73  1  0  0  0  0
 51 69  1  0  0  0  0
 52 68  1  0  0  0  0
 55 62  1  0  0  0  0
 56 64  1  0  0  0  0
 57 65  1  0  0  0  0
 58 65  1  0  0  0  0
 59 65  1  0  0  0  0
 60 75  1  0  0  0  0
 61 62  1  0  0  0  0
 61 83  1  0  0  0  0
 63 65  1  0  0  0  0
 63 74  1  0  0  0  0
 64 75  1  0  0  0  0
 66 68  1  0  0  0  0
M  CHG  1  75   1
M  ISO  4  39 100  61 101  67 100  83 101
M  END
> <Batch ID>
0175

> <Smiles>
CNC(C)C(=O)NC(C(=O)N1Cc2cc([101O:1][101CH2:1]C(C)C=C3Cc4c(C)c(C)[100n:0]([100C:0](=O)N5CCCC(n6nc(-c7ccc(Oc8ccc(F)cc8F)cc7)c(C(N)=O)c6N)C5)c4C3=O)ccc2CC1C(=O)NC1CCCc2ccccc21)C(C)(C)C

> <Shape>
0.182

> <Color>
0.081

> <Negative vol penalty>
0.000

$$$$

  -OEChem-04052322473D

 88 97  0     1  0  0  0  0  0999 V2000
  -23.3136  -29.7056   13.0869 C   0  0  0  0  0  0  0  0  0  0  0  0
  -24.2698  -29.2362   13.9817 C   0  0  0  0  0  0  0  0  0  0  0  0
  -22.9252  -11.6570   21.7274 C   0  0  0  0  0  0  0  0  0  0  0  0
  -23.6384   -9.3778   21.3619 C   0  0  0  0  0  0  0  0  0  0  0  0
  -22.8529  -31.0179   13.1855 C   0  0  0  0  0  0  0  0  0  0  0  0
  -24.7669  -30.0793   14.9750 C   0  0  0  0  0  0  0  0  0  0  0  0
  -25.0244  -27.8134   19.4966 C   0  0  0  0  0  0  0  0  0  0  0  0
  -30.4930  -21.3685   23.3518 C   0  0  0  0  0  0  0  0  0  0  0  0
  -21.6014  -11.2786   21.5045 C   0  0  0  0  0  0  0  0  0  0  0  0
  -22.3145   -8.9993   21.1390 C   0  0  0  0  0  0  0  0  0  0  0  0
  -26.0912  -26.9421   19.7123 C   0  0  0  0  0  0  0  0  0  0  0  0
  -19.5745   -8.3167   22.9956 C   0  0  0  0  0  0  0  0  0  0  0  0
  -19.1226   -7.1506   23.6134 C   0  0  0  0  0  0  0  0  0  0  0  0
  -30.2122  -22.6785   22.9797 C   0  0  0  0  0  0  0  0  0  0  0  0
  -27.2519  -28.6735   20.9265 C   0  0  0  0  0  0  0  0  0  0  0  0
  -18.6311   -6.1948   21.4496 C   0  0  0  0  0  0  0  0  0  0  0  0
  -28.1538  -20.9503   23.4508 C   0  0  0  0  0  0  0  0  0  0  0  0
  -23.9438  -10.7066   21.6560 C   0  0  0  0  0  0  0  0  0  0  0  0
  -25.9959  -11.1137   23.1158 C   0  0  0  0  0  0  0  0  0  0  0  0
  -23.3375  -31.8745   14.1865 C   0  0  0  0  0  0  0  0  0  0  0  0
  -25.0681  -29.1269   19.9856 C   0  0  0  0  0  0  0  0  0  0  0  0
  -24.3133  -31.4046   15.0862 C   0  0  0  0  0  0  0  0  0  0  0  0
  -26.1832  -29.5587   20.7178 C   0  0  0  0  0  0  0  0  0  0  0  0
  -29.4499  -20.4816   23.5936 C   0  0  0  0  0  0  0  0  0  0  0  0
  -21.2960   -9.9497   21.2103 C   0  0  0  0  0  0  0  0  0  0  0  0
  -27.2064  -27.3730   20.4249 C   0  0  0  0  0  0  0  0  0  0  0  0
  -19.5545   -8.4219   21.6048 C   0  0  0  0  0  0  0  0  0  0  0  0
  -18.6509   -6.0897   22.8404 C   0  0  0  0  0  0  0  0  0  0  0  0
  -19.0829   -7.3610   20.8319 C   0  0  0  0  0  0  0  0  0  0  0  0
  -25.3116  -11.0971   21.8856 C   0  0  0  0  0  0  0  0  0  0  0  0
  -28.8821  -23.0488   22.8642 C   0  0  0  0  0  0  0  0  0  0  0  0
  -27.2569  -11.5578   22.8013 C   0  0  0  0  0  0  0  0  0  0  0  0
  -25.5329  -10.7593   24.4257 C   0  0  0  0  0  0  0  0  0  0  0  0
  -25.0165  -32.0163   18.6618 C   0  0  0  0  0  0  0  0  0  0  0  0
  -24.8740  -33.0012   21.7491 C   0  0  0  0  0  0  0  0  0  0  0  0
  -25.5094  -32.3343   25.0352 C   0  0  0  0  0  0  0  0  0  0  0  0
  -30.7077  -14.9234   20.1578 C   0  0  0  0  0  0  0  0  0  0  0  0
  -22.8443  -33.2993   14.2241 C   0  0  0  0  0  0  0  0  0  0  0  0
  -23.8976  -30.0461   19.7674 C   0  0  0  0  0  0  0  0  0  0  0  0
  -26.2705  -30.9527   21.2814 C   0  0  0  0  0  0  0  0  0  0  0  0
  -23.1466  -34.0140   15.5386 C   0  0  0  0  0  0  0  0  0  0  0  0
  -29.5124  -12.2070   18.3256 C   0  0  0  0  0  0  0  0  0  0  0  0
  -24.5936  -33.7731   15.9567 C   0  0  0  0  0  0  0  0  0  0  0  0
  -28.3645  -11.6701   19.1813 C   0  0  0  0  0  0  0  0  0  0  0  0
  -29.5314  -13.7319   18.3250 C   0  0  0  0  0  0  0  0  0  0  0  0
  -28.4542  -13.8078   20.5505 C   0  0  0  0  0  0  0  0  0  0  0  0
  -30.9581  -17.0069   23.3348 C   0  0  0  0  0  0  0  0  0  0  0  0
  -29.0519  -17.7899   21.9641 C   0  0  0  0  0  0  0  0  0  0  0  0
  -24.8585  -32.2812   16.1928 C   0  0  1  0  0  0  0  0  0  0  0  0
  -24.2700  -31.5221   19.8685 C   0  0  1  0  0  0  0  0  0  0  0  0
  -28.4024  -12.2686   20.5992 C   0  0  1  0  0  0  0  0  0  0  0  0
  -31.5123  -16.2000   22.1514 C   0  0  1  0  0  0  0  0  0  0  0  0
  -29.5937  -17.0449   20.7484 C   0  0  1  0  0  0  0  0  0  0  0  0
  -32.1350  -14.9208   22.7337 C   0  0  0  0  0  0  0  0  0  0  0  0
  -30.3151  -17.9878   19.7716 C   0  0  0  0  0  0  0  0  0  0  0  0
  -25.3177  -33.3464   27.3235 C   0  0  0  0  0  0  0  0  0  0  0  0
  -27.2847  -34.7773   21.1628 C   0  0  0  0  0  0  0  0  0  0  0  0
  -27.6242  -35.0124   23.6322 C   0  0  0  0  0  0  0  0  0  0  0  0
  -25.5219  -35.8455   22.5791 C   0  0  0  0  0  0  0  0  0  0  0  0
  -23.7077  -30.1782   25.9647 C   0  0  0  0  0  0  0  0  0  0  0  0
  -29.7202  -19.0621   23.9972 C   0  0  0  0  0  0  0  0  0  0  0  0
  -29.6451  -25.3364   22.2236 C   0  0  0  0  0  0  0  0  0  0  0  0
  -29.0440  -26.6729   21.8218 C   0  0  0  0  0  0  0  0  0  1  0  0
  -25.8918  -33.3548   22.8066 C   0  0  1  0  0  0  0  0  0  0  0  0
  -24.6460  -32.4719   26.2762 C   0  0  2  0  0  0  0  0  0  0  0  0
  -26.5802  -34.7218   22.5330 C   0  0  0  0  0  0  0  0  0  0  0  0
  -27.8419  -22.2155   23.0911 N   0  0  0  0  0  0  0  0  0  0  0  0
  -26.0747  -11.4988   20.8657 N   0  0  0  0  0  0  0  0  0  0  0  0
  -27.2515  -11.7722   21.4544 N   0  0  0  0  0  0  0  0  0  0  0  0
  -25.1035  -31.8160   21.0361 N   0  0  0  0  0  0  0  0  0  0  0  0
  -29.5616  -14.2535   19.6909 N   0  0  0  0  0  0  0  0  0  0  0  0
  -30.4732  -15.9166   21.1364 N   0  0  0  0  0  0  0  0  0  0  0  0
  -28.3588  -11.7821   23.5482 N   0  0  0  0  0  0  0  0  0  0  0  0
  -24.2091  -10.3226   24.5710 N   0  0  0  0  0  0  0  0  0  0  0  0
  -28.6126  -24.3870   22.4836 N   0  0  0  0  0  0  0  0  0  0  0  0
  -24.3257  -31.8698   17.4740 N   0  0  0  0  0  0  0  0  0  0  0  0
  -25.1935  -33.2827   24.0855 N   0  0  0  0  0  0  0  0  0  0  0  0
  -30.1899  -18.2038   22.8547 N   0  3  0  0  0  0  0  0  0  0  0  0
  -24.3865  -31.1334   26.8778 N   0  3  0  0  0  0  0  0  0  0  0  0
  -26.2665  -10.8435   25.4398 O   0  0  0  0  0  0  0  0  0  0  0  0
  -26.1357  -32.4964   18.7984 O   0  0  0  0  0  0  0  0  0  0  0  0
  -23.9071  -33.7454   21.5676 O   0  0  0  0  0  0  0  0  0  0  0  0
  -26.3797  -31.4740   24.9214 O   0  0  0  0  0  0  0  0  0  0  0  0
  -31.8435  -14.6627   19.7476 O   0  0  0  0  0  0  0  0  0  0  0  0
  -20.0042   -9.5800   20.9930 O   0  0  0  0  0  0  0  0  0  0  0  0
  -28.2698  -26.5082   20.6405 O   0  0  0  0  0  0  0  0  0  1  0  0
  -18.2185   -4.9693   23.4337 F   0  0  0  0  0  0  0  0  0  0  0  0
  -19.0624   -7.4557   19.4953 F   0  0  0  0  0  0  0  0  0  0  0  0
  1  2  1  0  0  0  0
  1  5  2  0  0  0  0
  2  6  2  0  0  0  0
  3  9  2  0  0  0  0
  3 18  1  0  0  0  0
  4 10  1  0  0  0  0
  4 18  2  0  0  0  0
  5 20  1  0  0  0  0
  6 22  1  0  0  0  0
  7 11  2  0  0  0  0
  7 21  1  0  0  0  0
  8 14  2  0  0  0  0
  8 24  1  0  0  0  0
  9 25  1  0  0  0  0
 10 25  2  0  0  0  0
 11 26  1  0  0  0  0
 12 13  2  0  0  0  0
 12 27  1  0  0  0  0
 13 28  1  0  0  0  0
 14 31  1  0  0  0  0
 15 23  1  0  0  0  0
 15 26  2  0  0  0  0
 16 28  2  0  0  0  0
 16 29  1  0  0  0  0
 17 24  2  0  0  0  0
 17 67  1  0  0  0  0
 18 30  1  0  0  0  0
 19 30  1  0  0  0  0
 19 32  2  0  0  0  0
 19 33  1  0  0  0  0
 20 22  2  0  0  0  0
 20 38  1  0  0  0  0
 21 23  2  0  0  0  0
 21 39  1  0  0  0  0
 22 49  1  0  0  0  0
 23 40  1  0  0  0  0
 24 61  1  0  0  0  0
 25 85  1  0  0  0  0
 26 86  1  0  0  0  0
 27 29  2  0  0  0  0
 27 85  1  0  0  0  0
 28 87  1  0  0  0  0
 29 88  1  0  0  0  0
 30 68  2  0  0  0  0
 31 67  2  0  0  0  0
 31 75  1  0  0  0  0
 32 69  1  0  0  0  0
 32 73  1  0  0  0  0
 33 74  1  0  0  0  0
 33 80  2  0  0  0  0
 34 50  1  0  0  0  0
 34 76  1  0  0  0  0
 34 81  2  0  0  0  0
 35 64  1  0  0  0  0
 35 70  1  0  0  0  0
 35 82  2  0  0  0  0
 36 65  1  0  0  0  0
 36 77  1  0  0  0  0
 36 83  2  0  0  0  0
 37 71  1  0  0  0  0
 37 72  1  0  0  0  0
 37 84  2  0  0  0  0
 38 41  1  0  0  0  0
 39 50  1  0  0  0  0
 40 70  1  0  0  0  0
 41 43  1  0  0  0  0
 42 44  1  0  0  0  0
 42 45  1  0  0  0  0
 43 49  1  0  0  0  0
 44 51  1  0  0  0  0
 45 71  1  0  0  0  0
 46 51  1  0  0  0  0
 46 71  1  0  0  0  0
 47 52  1  0  0  0  0
 47 78  1  0  0  0  0
 48 53  1  0  0  0  0
 48 78  1  0  0  0  0
 49 76  1  0  0  0  0
 50 70  1  0  0  0  0
 51 69  1  0  0  0  0
 52 54  1  0  0  0  0
 52 72  1  0  0  0  0
 53 55  1  0  0  0  0
 53 72  1  0  0  0  0
 56 65  1  0  0  0  0
 57 66  1  0  0  0  0
 58 66  1  0  0  0  0
 59 66  1  0  0  0  0
 60 79  1  0  0  0  0
 61 78  1  0  0  0  0
 62 63  1  0  0  0  0
 62 75  1  0  0  0  0
 63 86  1  0  0  0  0
 64 66  1  0  0  0  0
 64 77  1  0  0  0  0
 65 79  1  0  0  0  0
 68 69  1  0  0  0  0
M  CHG  2  78   1  79   1
M  ISO  4  37 100  63 101  72 100  86 101
M  END
> <Batch ID>
0175

> <Smiles>
CNC(C)C(=O)NC(C(=O)N1Cc2cc([101O:1][101CH2:1]CNc3ccc(CN4CC(C)[100N:0]([100C:0](=O)N5CCCC(n6nc(-c7ccc(Oc8ccc(F)cc8F)cc7)c(C(N)=O)c6N)C5)C(C)C4)cn3)ccc2CC1C(=O)NC1CCCc2ccccc21)C(C)(C)C

> <Shape>
0.246

> <Color>
0.108

> <Negative vol penalty>
0.000

$$$$

  -OEChem-04052322473D

 90100  0     1  0  0  0  0  0999 V2000
  -18.3299  -26.2015   22.7376 C   0  0  0  0  0  0  0  0  0  0  0  0
  -19.1515  -26.4545   21.6437 C   0  0  0  0  0  0  0  0  0  0  0  0
  -26.9139  -18.1153   21.4609 C   0  0  0  0  0  0  0  0  0  0  0  0
  -27.5379  -17.8731   19.1395 C   0  0  0  0  0  0  0  0  0  0  0  0
  -18.0777  -27.2102   23.6665 C   0  0  0  0  0  0  0  0  0  0  0  0
  -19.7204  -27.7167   21.4776 C   0  0  0  0  0  0  0  0  0  0  0  0
  -24.6170  -27.4885   20.2064 C   0  0  0  0  0  0  0  0  0  0  0  0
  -26.3213  -16.8529   21.4334 C   0  0  0  0  0  0  0  0  0  0  0  0
  -26.9453  -16.6106   19.1120 C   0  0  0  0  0  0  0  0  0  0  0  0
  -24.9168  -27.1866   18.8787 C   0  0  0  0  0  0  0  0  0  0  0  0
  -27.7180  -13.4759   20.1106 C   0  0  0  0  0  0  0  0  0  0  0  0
  -28.4277  -12.4418   19.5005 C   0  0  0  0  0  0  0  0  0  0  0  0
  -32.0095  -23.1472   15.9617 C   0  0  0  0  0  0  0  0  0  0  0  0
  -25.2924  -29.5283   18.4374 C   0  0  0  0  0  0  0  0  0  0  0  0
  -26.6260  -12.1378   17.9198 C   0  0  0  0  0  0  0  0  0  0  0  0
  -27.5221  -18.6254   20.3139 C   0  0  0  0  0  0  0  0  0  0  0  0
  -32.8107  -22.0624   16.3008 C   0  0  0  0  0  0  0  0  0  0  0  0
  -27.5067  -21.1570   20.6282 C   0  0  0  0  0  0  0  0  0  0  0  0
  -18.6516  -28.4825   23.5168 C   0  0  0  0  0  0  0  0  0  0  0  0
  -24.6421  -28.8160   20.6577 C   0  0  0  0  0  0  0  0  0  0  0  0
  -19.4745  -28.7437   22.4047 C   0  0  0  0  0  0  0  0  0  0  0  0
  -31.1984  -23.0798   14.8344 C   0  0  0  0  0  0  0  0  0  0  0  0
  -24.9950  -29.8441   19.7719 C   0  0  0  0  0  0  0  0  0  0  0  0
  -26.3371  -16.1005   20.2589 C   0  0  0  0  0  0  0  0  0  0  0  0
  -25.2517  -28.2068   17.9933 C   0  0  0  0  0  0  0  0  0  0  0  0
  -26.4622  -13.8411   19.6254 C   0  0  0  0  0  0  0  0  0  0  0  0
  -27.8818  -11.7727   18.4050 C   0  0  0  0  0  0  0  0  0  0  0  0
  -25.9162  -13.1720   18.5300 C   0  0  0  0  0  0  0  0  0  0  0  0
  -28.1339  -19.9297   20.3415 C   0  0  0  0  0  0  0  0  0  0  0  0
  -31.2245  -21.9143   14.0854 C   0  0  0  0  0  0  0  0  0  0  0  0
  -32.7647  -20.9426   15.4862 C   0  0  0  0  0  0  0  0  0  0  0  0
  -28.5110  -22.0882   20.5251 C   0  0  0  0  0  0  0  0  0  0  0  0
  -33.6681  -22.1315   17.4911 C   0  0  0  0  0  0  0  0  0  0  0  0
  -26.1385  -21.4308   20.9582 C   0  0  0  0  0  0  0  0  0  0  0  0
  -22.4876  -30.8143   21.8695 C   0  0  0  0  0  0  0  0  0  0  0  0
  -25.0700  -32.7351   22.2749 C   0  0  0  0  0  0  0  0  0  0  0  0
  -28.0081  -33.6316   20.3825 C   0  0  0  0  0  0  0  0  0  0  0  0
  -18.3117  -29.5549   24.5215 C   0  0  0  0  0  0  0  0  0  0  0  0
  -24.3423  -29.1222   22.0994 C   0  0  0  0  0  0  0  0  0  0  0  0
  -25.0562  -31.2834   20.2115 C   0  0  0  0  0  0  0  0  0  0  0  0
  -19.2543  -30.7547   24.4740 C   0  0  0  0  0  0  0  0  0  0  0  0
  -33.2482  -22.5699   21.0087 C   0  0  0  0  0  0  0  0  0  0  0  0
  -31.0634  -25.5702   14.1057 C   0  0  0  0  0  0  0  0  0  0  0  0
  -19.4748  -31.2036   23.0329 C   0  0  0  0  0  0  0  0  0  0  0  0
  -30.7846  -20.8522   11.7719 C   0  0  0  0  0  0  0  0  0  0  0  0
  -30.8864  -22.3300   11.5573 C   0  0  0  0  0  0  0  0  0  0  0  0
  -31.8370  -22.0398   21.2688 C   0  0  0  0  0  0  0  0  0  0  0  0
  -30.0925  -26.7109   14.4316 C   0  0  0  0  0  0  0  0  0  0  0  0
  -33.9585  -21.7706   19.9192 C   0  0  0  0  0  0  0  0  0  0  0  0
  -31.7961  -21.1361   18.9061 C   0  0  0  0  0  0  0  0  0  0  0  0
  -30.3247  -24.2593   14.4626 C   0  0  2  0  0  0  0  0  0  0  0  0
  -20.1299  -30.0928   22.2032 C   0  0  1  0  0  0  0  0  0  0  0  0
  -30.3684  -21.7977   12.8659 C   0  0  0  0  0  0  0  0  0  0  0  0
  -23.8977  -30.5642   22.3241 C   0  0  1  0  0  0  0  0  0  0  0  0
  -31.0266  -21.9463   19.9623 C   0  0  1  0  0  0  0  0  0  0  0  0
  -28.7956  -26.0227   14.8396 C   0  0  1  0  0  0  0  0  0  0  0  0
  -29.2283  -24.6881   15.4879 C   0  0  0  0  0  0  0  0  0  0  0  0
  -33.6029  -19.7459   15.7989 C   0  0  0  0  0  0  0  0  0  0  0  0
  -29.7715  -24.8631   16.9204 C   0  0  0  0  0  0  0  0  0  0  0  0
  -28.0601  -23.6916   15.5278 C   0  0  0  0  0  0  0  0  0  0  0  0
  -30.2680  -34.4084   21.1485 C   0  0  0  0  0  0  0  0  0  0  0  0
  -23.9240  -35.5340   21.8718 C   0  0  0  0  0  0  0  0  0  0  0  0
  -26.1559  -36.2449   20.9877 C   0  0  0  0  0  0  0  0  0  0  0  0
  -25.9473  -35.4365   23.3384 C   0  0  0  0  0  0  0  0  0  0  0  0
  -29.3820  -31.4690   18.9011 C   0  0  0  0  0  0  0  0  0  0  0  0
  -27.2678  -27.9769   15.0210 C   0  0  0  0  0  0  0  0  0  0  0  0
  -26.4655  -28.7761   16.0290 C   0  0  0  0  0  0  0  0  0  1  0  0
  -25.7676  -33.7795   21.4373 C   0  0  1  0  0  0  0  0  0  0  0  0
  -29.4397  -33.2227   20.6788 C   0  0  2  0  0  0  0  0  0  0  0  0
  -25.4347  -35.2270   21.8969 C   0  0  0  0  0  0  0  0  0  0  0  0
  -29.4358  -20.0656   20.0761 N   0  0  0  0  0  0  0  0  0  0  0  0
  -31.9894  -20.8403   14.3833 N   0  0  0  0  0  0  0  0  0  0  0  0
  -29.6349  -21.3893   20.1954 N   0  0  0  0  0  0  0  0  0  0  0  0
  -33.1385  -21.7016   18.7102 N   0  0  0  0  0  0  0  0  0  0  0  0
  -24.7485  -31.5326   21.6295 N   0  0  0  0  0  0  0  0  0  0  0  0
  -28.5336  -23.4285   20.6850 N   0  0  0  0  0  0  0  0  0  0  0  0
  -25.2420  -21.7052   19.9165 N   0  0  0  0  0  0  0  0  0  0  0  0
  -21.5463  -30.0158   22.4905 N   0  0  0  0  0  0  0  0  0  0  0  0
  -27.1887  -33.4520   21.4768 N   0  0  0  0  0  0  0  0  0  0  0  0
  -27.9971  -26.8920   15.7247 N   0  3  0  0  0  0  0  0  0  0  0  0
  -30.0799  -32.6564   19.4579 N   0  3  0  0  0  0  0  0  0  0  0  0
  -34.8001  -22.5813   17.3201 O   0  0  0  0  0  0  0  0  0  0  0  0
  -25.7269  -21.4481   22.1430 O   0  0  0  0  0  0  0  0  0  0  0  0
  -22.2696  -31.6696   21.0194 O   0  0  0  0  0  0  0  0  0  0  0  0
  -24.8260  -32.9745   23.4601 O   0  0  0  0  0  0  0  0  0  0  0  0
  -27.6530  -34.0702   19.2906 O   0  0  0  0  0  0  0  0  0  0  0  0
  -25.7592  -14.8685   20.2318 O   0  0  0  0  0  0  0  0  0  0  0  0
  -25.5441  -27.9150   16.6967 O   0  0  0  0  0  0  0  0  0  1  0  0
  -28.5641  -10.7806   17.8182 F   0  0  0  0  0  0  0  0  0  0  0  0
  -24.7107  -13.5191   18.0587 F   0  0  0  0  0  0  0  0  0  0  0  0
  1  2  1  0  0  0  0
  1  5  2  0  0  0  0
  2  6  2  0  0  0  0
  3  8  2  0  0  0  0
  3 16  1  0  0  0  0
  4  9  1  0  0  0  0
  4 16  2  0  0  0  0
  5 19  1  0  0  0  0
  6 21  1  0  0  0  0
  7 10  2  0  0  0  0
  7 20  1  0  0  0  0
  8 24  1  0  0  0  0
  9 24  2  0  0  0  0
 10 25  1  0  0  0  0
 11 12  2  0  0  0  0
 11 26  1  0  0  0  0
 12 27  1  0  0  0  0
 13 17  2  0  0  0  0
 13 22  1  0  0  0  0
 14 23  1  0  0  0  0
 14 25  2  0  0  0  0
 15 27  2  0  0  0  0
 15 28  1  0  0  0  0
 16 29  1  0  0  0  0
 17 31  1  0  0  0  0
 17 33  1  0  0  0  0
 18 29  1  0  0  0  0
 18 32  2  0  0  0  0
 18 34  1  0  0  0  0
 19 21  2  0  0  0  0
 19 38  1  0  0  0  0
 20 23  2  0  0  0  0
 20 39  1  0  0  0  0
 21 52  1  0  0  0  0
 22 30  2  0  0  0  0
 22 51  1  0  0  0  0
 23 40  1  0  0  0  0
 24 87  1  0  0  0  0
 25 88  1  0  0  0  0
 26 28  2  0  0  0  0
 26 87  1  0  0  0  0
 27 89  1  0  0  0  0
 28 90  1  0  0  0  0
 29 71  2  0  0  0  0
 30 53  1  0  0  0  0
 30 72  1  0  0  0  0
 31 58  1  0  0  0  0
 31 72  2  0  0  0  0
 32 73  1  0  0  0  0
 32 76  1  0  0  0  0
 33 74  1  0  0  0  0
 33 82  2  0  0  0  0
 34 77  1  0  0  0  0
 34 83  2  0  0  0  0
 35 54  1  0  0  0  0
 35 78  1  0  0  0  0
 35 84  2  0  0  0  0
 36 68  1  0  0  0  0
 36 75  1  0  0  0  0
 36 85  2  0  0  0  0
 37 69  1  0  0  0  0
 37 79  1  0  0  0  0
 37 86  2  0  0  0  0
 38 41  1  0  0  0  0
 39 54  1  0  0  0  0
 40 75  1  0  0  0  0
 41 44  1  0  0  0  0
 42 47  1  0  0  0  0
 42 49  1  0  0  0  0
 43 48  1  0  0  0  0
 43 51  1  0  0  0  0
 44 52  1  0  0  0  0
 45 46  1  0  0  0  0
 45 53  1  0  0  0  0
 46 53  1  0  0  0  0
 47 55  1  0  0  0  0
 48 56  1  0  0  0  0
 49 74  1  0  0  0  0
 50 55  1  0  0  0  0
 50 74  1  0  0  0  0
 51 57  1  0  0  0  0
 52 78  1  0  0  0  0
 54 75  1  0  0  0  0
 55 73  1  0  0  0  0
 56 57  1  0  0  0  0
 56 80  1  0  0  0  0
 57 59  1  0  0  0  0
 57 60  1  0  0  0  0
 61 69  1  0  0  0  0
 62 70  1  0  0  0  0
 63 70  1  0  0  0  0
 64 70  1  0  0  0  0
 65 81  1  0  0  0  0
 66 67  1  0  0  0  0
 66 80  1  0  0  0  0
 67 88  1  0  0  0  0
 68 70  1  0  0  0  0
 68 79  1  0  0  0  0
 69 81  1  0  0  0  0
 71 73  1  0  0  0  0
M  CHG  2  80   1  81   1
M  ISO  4  17 100  33 100  67 101  88 101
M  END
> <Batch ID>
0175

> <Smiles>
CNC(C)C(=O)NC(C(=O)N1Cc2cc([101O:1][101CH2:1]CNC3CCC(c4c[100c:0]([100C:0](=O)N5CCCC(n6nc(-c7ccc(Oc8ccc(F)cc8F)cc7)c(C(N)=O)c6N)C5)c(C)nc4C4CC4)C3(C)C)ccc2CC1C(=O)NC1CCCc2ccccc21)C(C)(C)C

> <Shape>
0.223

> <Color>
0.083

> <Negative vol penalty>
0.000

$$$$

  -OEChem-04052322473D

 85 95  0     1  0  0  0  0  0999 V2000
  -30.9490  -27.5696   32.4811 C   0  0  0  0  0  0  0  0  0  0  0  0
  -30.7058  -26.4572   31.6818 C   0  0  0  0  0  0  0  0  0  0  0  0
  -23.1008   -9.8386   19.9596 C   0  0  0  0  0  0  0  0  0  0  0  0
  -23.8266   -9.8953   22.2633 C   0  0  0  0  0  0  0  0  0  0  0  0
  -30.7601  -28.8514   31.9661 C   0  0  0  0  0  0  0  0  0  0  0  0
  -30.2724  -26.6260   30.3673 C   0  0  0  0  0  0  0  0  0  0  0  0
  -29.8536  -16.3658   27.5662 C   0  0  0  0  0  0  0  0  0  0  0  0
  -32.7193  -23.6146   27.1132 C   0  0  0  0  0  0  0  0  0  0  0  0
  -30.3262  -17.6633   27.7633 C   0  0  0  0  0  0  0  0  0  0  0  0
  -22.3570   -8.6883   20.2222 C   0  0  0  0  0  0  0  0  0  0  0  0
  -23.0827   -8.7450   22.5260 C   0  0  0  0  0  0  0  0  0  0  0  0
  -32.3260  -22.2779   27.0636 C   0  0  0  0  0  0  0  0  0  0  0  0
  -19.3901   -7.9114   21.6459 C   0  0  0  0  0  0  0  0  0  0  0  0
  -18.0907   -7.8507   21.1425 C   0  0  0  0  0  0  0  0  0  0  0  0
  -31.0259  -22.7401   25.0849 C   0  0  0  0  0  0  0  0  0  0  0  0
  -18.6761   -5.8828   19.8689 C   0  0  0  0  0  0  0  0  0  0  0  0
  -23.8357  -10.4421   20.9801 C   0  0  0  0  0  0  0  0  0  0  0  0
  -24.1713  -12.9654   20.8132 C   0  0  0  0  0  0  0  0  0  0  0  0
  -30.3335  -29.0361   30.6415 C   0  0  0  0  0  0  0  0  0  0  0  0
  -32.2593  -24.5279   26.1537 C   0  0  0  0  0  0  0  0  0  0  0  0
  -30.1533  -15.6861   26.3856 C   0  0  0  0  0  0  0  0  0  0  0  0
  -30.0763  -27.9114   29.8344 C   0  0  0  0  0  0  0  0  0  0  0  0
  -31.4169  -24.0873   25.1230 C   0  0  0  0  0  0  0  0  0  0  0  0
  -30.9255  -16.3040   25.4019 C   0  0  0  0  0  0  0  0  0  0  0  0
  -31.0984  -18.2811   26.7796 C   0  0  0  0  0  0  0  0  0  0  0  0
  -31.3981  -17.6015   25.5989 C   0  0  0  0  0  0  0  0  0  0  0  0
  -22.3479   -8.1414   21.5054 C   0  0  0  0  0  0  0  0  0  0  0  0
  -31.4769  -21.8411   26.0510 C   0  0  0  0  0  0  0  0  0  0  0  0
  -20.3326   -6.9579   21.2608 C   0  0  0  0  0  0  0  0  0  0  0  0
  -17.7337   -6.8364   20.2540 C   0  0  0  0  0  0  0  0  0  0  0  0
  -19.9756   -5.9436   20.3724 C   0  0  0  0  0  0  0  0  0  0  0  0
  -24.6047  -11.6301   20.7093 C   0  0  0  0  0  0  0  0  0  0  0  0
  -25.2663  -13.7111   20.4508 C   0  0  0  0  0  0  0  0  0  0  0  0
  -22.8931  -13.4853   21.2026 C   0  0  0  0  0  0  0  0  0  0  0  0
  -30.5070  -27.1786   26.2386 C   0  0  0  0  0  0  0  0  0  0  0  0
  -31.2806  -27.3252   23.0918 C   0  0  0  0  0  0  0  0  0  0  0  0
  -32.2465  -25.6736   20.2658 C   0  0  0  0  0  0  0  0  0  0  0  0
  -30.8213  -14.6177   20.8735 C   0  0  0  0  0  0  0  0  0  0  0  0
  -30.0979  -30.4402   30.1439 C   0  0  0  0  0  0  0  0  0  0  0  0
  -32.7142  -25.9607   26.2057 C   0  0  0  0  0  0  0  0  0  0  0  0
  -30.9114  -25.0236   24.0571 C   0  0  0  0  0  0  0  0  0  0  0  0
  -29.9968  -30.5388   28.6239 C   0  0  0  0  0  0  0  0  0  0  0  0
  -29.6335  -12.3666   18.3329 C   0  0  0  0  0  0  0  0  0  0  0  0
  -29.9569  -13.2531   27.2315 C   0  0  0  0  0  0  0  0  0  0  0  0
  -30.6119  -13.1922   25.8871 C   0  0  0  0  0  0  0  0  0  0  0  0
  -29.0788  -29.4497   28.0782 C   0  0  0  0  0  0  0  0  0  0  0  0
  -28.2061  -12.0379   18.7575 C   0  0  0  0  0  0  0  0  0  0  0  0
  -30.5321  -12.5571   19.5475 C   0  0  0  0  0  0  0  0  0  0  0  0
  -30.1862  -14.6308   23.4144 C   0  0  0  0  0  0  0  0  0  0  0  0
  -31.2786  -16.3123   22.7271 C   0  0  0  0  0  0  0  0  0  0  0  0
  -28.6108  -13.3385   20.9083 C   0  0  0  0  0  0  0  0  0  0  0  0
  -29.6380  -14.2982   26.1958 C   0  0  0  0  0  0  0  0  0  0  0  0
  -31.2671  -15.5306   24.0610 C   0  0  0  0  0  0  0  0  0  0  0  0
  -29.6291  -28.0541   28.3958 C   0  0  1  0  0  0  0  0  0  0  0  0
  -31.7732  -26.9132   25.4744 C   0  0  1  0  0  0  0  0  0  0  0  0
  -27.6675  -13.1153   19.7097 C   0  0  2  0  0  0  0  0  0  0  0  0
  -32.2282  -18.2625   24.5448 C   0  0  0  0  0  0  0  0  0  0  0  0
  -32.7612  -26.0556   17.8395 C   0  0  0  0  0  0  0  0  0  0  0  0
  -28.2966  -27.5535   22.4973 C   0  0  0  0  0  0  0  0  0  0  0  0
  -28.7985  -26.9780   20.1129 C   0  0  0  0  0  0  0  0  0  0  0  0
  -29.7520  -29.0509   21.1212 C   0  0  0  0  0  0  0  0  0  0  0  0
  -35.0314  -24.7249   20.5875 C   0  0  0  0  0  0  0  0  0  0  0  0
  -31.5927  -19.6705   27.0159 C   0  0  0  0  0  0  0  0  0  1  0  0
  -30.6699  -26.7997   21.8151 C   0  0  1  0  0  0  0  0  0  0  0  0
  -33.3317  -25.9707   19.2466 C   0  0  2  0  0  0  0  0  0  0  0  0
  -29.3870  -27.5781   21.4077 C   0  0  0  0  0  0  0  0  0  0  0  0
  -25.8760  -11.5301   20.3118 N   0  0  0  0  0  0  0  0  0  0  0  0
  -26.2507  -12.8121   20.1627 N   0  0  0  0  0  0  0  0  0  0  0  0
  -31.3793  -26.4161   24.1546 N   0  0  0  0  0  0  0  0  0  0  0  0
  -29.9987  -13.5572   20.4773 N   0  0  0  0  0  0  0  0  0  0  0  0
  -30.6494  -15.1386   22.1343 N   0  0  0  0  0  0  0  0  0  0  0  0
  -25.4735  -15.0415   20.3535 N   0  0  0  0  0  0  0  0  0  0  0  0
  -21.8792  -12.5798   21.5436 N   0  0  0  0  0  0  0  0  0  0  0  0
  -30.7102  -27.7197   27.4937 N   0  0  0  0  0  0  0  0  0  0  0  0
  -31.7300  -26.8289   20.8132 N   0  0  0  0  0  0  0  0  0  0  0  0
  -34.3700  -24.9018   19.2691 N   0  3  0  0  0  0  0  0  0  0  0  0
  -22.6521  -14.7160   21.2311 O   0  0  0  0  0  0  0  0  0  0  0  0
  -29.4256  -26.9134   25.7267 O   0  0  0  0  0  0  0  0  0  0  0  0
  -31.6628  -28.4969   23.1417 O   0  0  0  0  0  0  0  0  0  0  0  0
  -31.8900  -24.5311   20.5453 O   0  0  0  0  0  0  0  0  0  0  0  0
  -31.7061  -15.0693   20.1344 O   0  0  0  0  0  0  0  0  0  0  0  0
  -21.6220   -7.0191   21.7621 O   0  0  0  0  0  0  0  0  0  0  0  0
  -31.0883  -20.5279   26.0003 O   0  0  0  0  0  0  0  0  0  1  0  0
  -16.4854   -6.7773   19.7718 F   0  0  0  0  0  0  0  0  0  0  0  0
  -20.8763   -5.0240   19.9997 F   0  0  0  0  0  0  0  0  0  0  0  0
  1  2  1  0  0  0  0
  1  5  2  0  0  0  0
  2  6  2  0  0  0  0
  3 10  2  0  0  0  0
  3 17  1  0  0  0  0
  4 11  1  0  0  0  0
  4 17  2  0  0  0  0
  5 19  1  0  0  0  0
  6 22  1  0  0  0  0
  7  9  2  0  0  0  0
  7 21  1  0  0  0  0
  8 12  2  0  0  0  0
  8 20  1  0  0  0  0
  9 25  1  0  0  0  0
 10 27  1  0  0  0  0
 11 27  2  0  0  0  0
 12 28  1  0  0  0  0
 13 14  2  0  0  0  0
 13 29  1  0  0  0  0
 14 30  1  0  0  0  0
 15 23  1  0  0  0  0
 15 28  2  0  0  0  0
 16 30  2  0  0  0  0
 16 31  1  0  0  0  0
 17 32  1  0  0  0  0
 18 32  1  0  0  0  0
 18 33  2  0  0  0  0
 18 34  1  0  0  0  0
 19 22  2  0  0  0  0
 19 39  1  0  0  0  0
 20 23  2  0  0  0  0
 20 40  1  0  0  0  0
 21 24  2  0  0  0  0
 21 52  1  0  0  0  0
 22 54  1  0  0  0  0
 23 41  1  0  0  0  0
 24 26  1  0  0  0  0
 24 53  1  0  0  0  0
 25 26  2  0  0  0  0
 25 63  1  0  0  0  0
 26 57  1  0  0  0  0
 27 82  1  0  0  0  0
 28 83  1  0  0  0  0
 29 31  2  0  0  0  0
 29 82  1  0  0  0  0
 30 84  1  0  0  0  0
 31 85  1  0  0  0  0
 32 67  2  0  0  0  0
 33 68  1  0  0  0  0
 33 72  1  0  0  0  0
 34 73  1  0  0  0  0
 34 77  2  0  0  0  0
 35 55  1  0  0  0  0
 35 74  1  0  0  0  0
 35 78  2  0  0  0  0
 36 64  1  0  0  0  0
 36 69  1  0  0  0  0
 36 79  2  0  0  0  0
 37 65  1  0  0  0  0
 37 75  1  0  0  0  0
 37 80  2  0  0  0  0
 38 70  1  0  0  0  0
 38 71  1  0  0  0  0
 38 81  2  0  0  0  0
 39 42  1  0  0  0  0
 40 55  1  0  0  0  0
 41 69  1  0  0  0  0
 42 46  1  0  0  0  0
 43 47  1  0  0  0  0
 43 48  1  0  0  0  0
 44 45  1  0  0  0  0
 44 52  1  0  0  0  0
 45 52  1  0  0  0  0
 46 54  1  0  0  0  0
 47 56  1  0  0  0  0
 48 70  1  0  0  0  0
 49 53  1  0  0  0  0
 49 71  1  0  0  0  0
 50 53  1  0  0  0  0
 50 71  1  0  0  0  0
 51 56  1  0  0  0  0
 51 70  1  0  0  0  0
 54 74  1  0  0  0  0
 55 69  1  0  0  0  0
 56 68  1  0  0  0  0
 58 65  1  0  0  0  0
 59 66  1  0  0  0  0
 60 66  1  0  0  0  0
 61 66  1  0  0  0  0
 62 76  1  0  0  0  0
 63 83  1  0  0  0  0
 64 66  1  0  0  0  0
 64 75  1  0  0  0  0
 65 76  1  0  0  0  0
 67 68  1  0  0  0  0
M  CHG  1  76   1
M  ISO  4  38 100  63 101  71 100  83 101
M  END
> <Batch ID>
0175

> <Smiles>
CNC(C)C(=O)NC(C(=O)N1Cc2cc([101O:1][101CH2:1]c3ccc(C4CC4)c(C4C[100N:0]([100C:0](=O)N5CCCC(n6nc(-c7ccc(Oc8ccc(F)cc8F)cc7)c(C(N)=O)c6N)C5)C4)c3C)ccc2CC1C(=O)NC1CCCc2ccccc21)C(C)(C)C

> <Shape>
0.168

> <Color>
0.199

> <Negative vol penalty>
0.000

$$$$

  -OEChem-04052322473D

 93104  0     1  0  0  0  0  0999 V2000
  -20.1304  -22.8080   18.8514 C   0  0  0  0  0  0  0  0  0  0  0  0
  -21.5064  -22.6078   18.8063 C   0  0  0  0  0  0  0  0  0  0  0  0
  -21.9657  -29.1087   24.0956 C   0  0  0  0  0  0  0  0  0  0  0  0
  -21.2989  -28.1506   21.9803 C   0  0  0  0  0  0  0  0  0  0  0  0
  -19.3388  -22.0162   19.6822 C   0  0  0  0  0  0  0  0  0  0  0  0
  -22.0916  -21.6162   19.5929 C   0  0  0  0  0  0  0  0  0  0  0  0
  -26.9318  -18.1521   18.1510 C   0  0  0  0  0  0  0  0  0  0  0  0
  -20.7628  -28.6902   24.6644 C   0  0  0  0  0  0  0  0  0  0  0  0
  -20.0960  -27.7320   22.5491 C   0  0  0  0  0  0  0  0  0  0  0  0
  -28.2833  -18.2450   18.4805 C   0  0  0  0  0  0  0  0  0  0  0  0
  -17.0041  -26.0949   23.5383 C   0  0  0  0  0  0  0  0  0  0  0  0
  -16.5732  -24.7970   23.2640 C   0  0  0  0  0  0  0  0  0  0  0  0
  -31.6227  -22.6378   21.4069 C   0  0  0  0  0  0  0  0  0  0  0  0
  -27.9416  -16.6922   20.2947 C   0  0  0  0  0  0  0  0  0  0  0  0
  -18.5904  -23.9167   24.2607 C   0  0  0  0  0  0  0  0  0  0  0  0
  -33.4854  -23.7896   20.4973 C   0  0  0  0  0  0  0  0  0  0  0  0
  -22.2337  -28.8390   22.7536 C   0  0  0  0  0  0  0  0  0  0  0  0
  -23.9508  -30.5924   22.0574 C   0  0  0  0  0  0  0  0  0  0  0  0
  -19.9134  -21.0080   20.4720 C   0  0  0  0  0  0  0  0  0  0  0  0
  -26.0713  -17.3356   18.8989 C   0  0  0  0  0  0  0  0  0  0  0  0
  -21.3071  -20.8110   20.4360 C   0  0  0  0  0  0  0  0  0  0  0  0
  -32.1963  -23.8325   20.9929 C   0  0  0  0  0  0  0  0  0  0  0  0
  -32.3445  -21.4432   21.3151 C   0  0  0  0  0  0  0  0  0  0  0  0
  -26.5801  -16.5887   19.9711 C   0  0  0  0  0  0  0  0  0  0  0  0
  -19.8280  -28.0018   23.8912 C   0  0  0  0  0  0  0  0  0  0  0  0
  -28.7878  -17.5173   19.5543 C   0  0  0  0  0  0  0  0  0  0  0  0
  -18.2282  -26.3038   24.1737 C   0  0  0  0  0  0  0  0  0  0  0  0
  -17.3663  -23.7079   23.6252 C   0  0  0  0  0  0  0  0  0  0  0  0
  -19.0213  -25.2147   24.5349 C   0  0  0  0  0  0  0  0  0  0  0  0
  -23.4758  -29.2716   22.1653 C   0  0  0  0  0  0  0  0  0  0  0  0
  -33.6450  -21.4984   20.8047 C   0  0  0  0  0  0  0  0  0  0  0  0
  -25.1651  -30.4702   21.4273 C   0  0  0  0  0  0  0  0  0  0  0  0
  -23.3484  -31.8200   22.4885 C   0  0  0  0  0  0  0  0  0  0  0  0
  -28.9799  -25.9108   21.1916 C   0  0  0  0  0  0  0  0  0  0  0  0
  -23.4876  -17.8381   20.6809 C   0  0  0  0  0  0  0  0  0  0  0  0
  -23.4243  -14.5975   20.8104 C   0  0  0  0  0  0  0  0  0  0  0  0
  -25.1379  -11.6549   20.5839 C   0  0  0  0  0  0  0  0  0  0  0  0
  -19.0228  -20.2087   21.3900 C   0  0  0  0  0  0  0  0  0  0  0  0
  -24.6214  -17.2256   18.5141 C   0  0  0  0  0  0  0  0  0  0  0  0
  -25.7023  -15.6819   20.7930 C   0  0  0  0  0  0  0  0  0  0  0  0
  -19.6748  -18.9303   21.9104 C   0  0  0  0  0  0  0  0  0  0  0  0
  -27.5366  -27.6883   18.3538 C   0  0  0  0  0  0  0  0  0  0  0  0
  -21.0920  -19.2143   22.3982 C   0  0  0  0  0  0  0  0  0  0  0  0
  -31.1441  -20.9877   24.1494 C   0  0  0  0  0  0  0  0  0  0  0  0
  -30.7089  -19.5506   24.0794 C   0  0  0  0  0  0  0  0  0  0  0  0
  -26.3465  -28.3897   19.0070 C   0  0  0  0  0  0  0  0  0  0  0  0
  -27.7969  -26.3209   18.9799 C   0  0  0  0  0  0  0  0  0  0  0  0
  -26.7901  -27.0650   21.1177 C   0  0  0  0  0  0  0  0  0  0  0  0
  -31.4482  -25.1142   21.0805 C   0  0  2  0  0  0  0  0  0  0  0  0
  -31.7452  -20.1343   21.7731 C   0  0  2  0  0  0  0  0  0  0  0  0
  -21.9759  -19.7289   21.2557 C   0  0  1  0  0  0  0  0  0  0  0  0
  -30.0724  -25.2104   20.4501 C   0  0  2  0  0  0  0  0  0  0  0  0
  -23.7320  -16.7603   19.6629 C   0  0  1  0  0  0  0  0  0  0  0  0
  -31.8740  -20.0231   23.2753 C   0  0  0  0  0  0  0  0  0  0  0  0
  -26.5196  -28.4615   20.5340 C   0  0  2  0  0  0  0  0  0  0  0  0
  -32.4300  -18.9859   21.0102 C   0  0  2  0  0  0  0  0  0  0  0  0
  -34.4718  -20.2276   20.6583 C   0  0  0  0  0  0  0  0  0  0  0  0
  -31.2270  -25.9854   19.8493 C   0  0  0  0  0  0  0  0  0  0  0  0
  -35.7933  -20.3759   21.4267 C   0  0  0  0  0  0  0  0  0  0  0  0
  -34.7763  -19.9531   19.1777 C   0  0  0  0  0  0  0  0  0  0  0  0
  -31.7295  -25.5333   18.4992 C   0  0  0  0  0  0  0  0  0  0  0  0
  -31.3083  -27.4801   20.0449 C   0  0  0  0  0  0  0  0  0  0  0  0
  -24.8236   -9.1725   20.7748 C   0  0  0  0  0  0  0  0  0  0  0  0
  -32.7194  -16.5166   20.6679 C   0  0  0  0  0  0  0  0  0  0  0  0
  -23.3305  -14.8456   23.8501 C   0  0  0  0  0  0  0  0  0  0  0  0
  -23.9713  -12.4298   23.9974 C   0  0  0  0  0  0  0  0  0  0  0  0
  -21.8291  -13.0855   22.9003 C   0  0  0  0  0  0  0  0  0  0  0  0
  -25.9685  -11.2170   17.7772 C   0  0  0  0  0  0  0  0  0  0  0  0
  -30.4528  -17.4285   21.2501 C   0  0  0  0  0  0  0  0  0  1  0  0
  -24.0177  -13.5523   21.7239 C   0  0  1  0  0  0  0  0  0  0  0  0
  -24.8366  -10.3688   19.8359 C   0  0  2  0  0  0  0  0  0  0  0  0
  -31.9646  -17.5996   21.4399 C   0  0  2  0  0  0  0  0  0  0  0  0
  -23.3036  -13.4968   23.1038 C   0  0  0  0  0  0  0  0  0  0  0  0
  -34.2178  -22.6593   20.3920 N   0  0  0  0  0  0  0  0  0  0  0  0
  -24.3194  -28.3762   21.6451 N   0  0  0  0  0  0  0  0  0  0  0  0
  -25.3367  -29.1357   21.2043 N   0  0  0  0  0  0  0  0  0  0  0  0
  -27.9179  -26.4222   20.4385 N   0  0  0  0  0  0  0  0  0  0  0  0
  -24.2904  -15.6131   20.3813 N   0  0  0  0  0  0  0  0  0  0  0  0
  -26.0920  -31.3752   21.0476 N   0  0  0  0  0  0  0  0  0  0  0  0
  -22.5111  -32.5029   21.5957 N   0  0  0  0  0  0  0  0  0  0  0  0
  -22.3919  -18.6338   20.4059 N   0  0  0  0  0  0  0  0  0  0  0  0
  -23.9842  -12.2960   20.9828 N   0  0  0  0  0  0  0  0  0  0  0  0
  -25.8639  -10.1289   18.7832 N   0  3  0  0  0  0  0  0  0  0  0  0
  -23.5597  -32.3056   23.6256 O   0  0  0  0  0  0  0  0  0  0  0  0
  -29.0782  -25.9972   22.4129 O   0  0  0  0  0  0  0  0  0  0  0  0
  -24.2368  -17.9393   21.6454 O   0  0  0  0  0  0  0  0  0  0  0  0
  -22.2379  -14.5119   20.4838 O   0  0  0  0  0  0  0  0  0  0  0  0
  -26.2824  -12.0492   20.7966 O   0  0  0  0  0  0  0  0  0  0  0  0
  -33.8425  -19.0597   21.2183 O   0  0  0  0  0  0  0  0  0  0  0  0
  -18.6542  -27.5930   24.4460 O   0  0  0  0  0  0  0  0  0  0  0  0
  -30.1159  -17.6073   19.8808 O   0  0  0  0  0  0  0  0  0  1  0  0
  -16.9517  -22.4614   23.3632 F   0  0  0  0  0  0  0  0  0  0  0  0
  -20.1977  -25.4091   25.1466 F   0  0  0  0  0  0  0  0  0  0  0  0
  1  2  1  0  0  0  0
  1  5  2  0  0  0  0
  2  6  2  0  0  0  0
  3  8  2  0  0  0  0
  3 17  1  0  0  0  0
  4  9  1  0  0  0  0
  4 17  2  0  0  0  0
  5 19  1  0  0  0  0
  6 21  1  0  0  0  0
  7 10  2  0  0  0  0
  7 20  1  0  0  0  0
  8 25  1  0  0  0  0
  9 25  2  0  0  0  0
 10 26  1  0  0  0  0
 11 12  2  0  0  0  0
 11 27  1  0  0  0  0
 12 28  1  0  0  0  0
 13 22  2  0  0  0  0
 13 23  1  0  0  0  0
 14 24  1  0  0  0  0
 14 26  2  0  0  0  0
 15 28  2  0  0  0  0
 15 29  1  0  0  0  0
 16 22  1  0  0  0  0
 16 74  2  0  0  0  0
 17 30  1  0  0  0  0
 18 30  1  0  0  0  0
 18 32  2  0  0  0  0
 18 33  1  0  0  0  0
 19 21  2  0  0  0  0
 19 38  1  0  0  0  0
 20 24  2  0  0  0  0
 20 39  1  0  0  0  0
 21 51  1  0  0  0  0
 22 49  1  0  0  0  0
 23 31  2  0  0  0  0
 23 50  1  0  0  0  0
 24 40  1  0  0  0  0
 25 90  1  0  0  0  0
 26 91  1  0  0  0  0
 27 29  2  0  0  0  0
 27 90  1  0  0  0  0
 28 92  1  0  0  0  0
 29 93  1  0  0  0  0
 30 75  2  0  0  0  0
 31 57  1  0  0  0  0
 31 74  1  0  0  0  0
 32 76  1  0  0  0  0
 32 79  1  0  0  0  0
 33 80  1  0  0  0  0
 33 84  2  0  0  0  0
 34 52  1  0  0  0  0
 34 77  1  0  0  0  0
 34 85  2  0  0  0  0
 35 53  1  0  0  0  0
 35 81  1  0  0  0  0
 35 86  2  0  0  0  0
 36 70  1  0  0  0  0
 36 78  1  0  0  0  0
 36 87  2  0  0  0  0
 37 71  1  0  0  0  0
 37 82  1  0  0  0  0
 37 88  2  0  0  0  0
 38 41  1  0  0  0  0
 39 53  1  0  0  0  0
 40 78  1  0  0  0  0
 41 43  1  0  0  0  0
 42 46  1  0  0  0  0
 42 47  1  0  0  0  0
 43 51  1  0  0  0  0
 44 45  1  0  0  0  0
 44 54  1  0  0  0  0
 45 54  1  0  0  0  0
 46 55  1  0  0  0  0
 47 77  1  0  0  0  0
 48 55  1  0  0  0  0
 48 77  1  0  0  0  0
 49 52  1  0  0  0  0
 49 58  1  0  0  0  0
 50 54  1  0  0  0  0
 50 56  1  0  0  0  0
 51 81  1  0  0  0  0
 52 58  1  0  0  0  0
 53 78  1  0  0  0  0
 55 76  1  0  0  0  0
 56 72  1  0  0  0  0
 56 89  1  0  0  0  0
 57 59  1  0  0  0  0
 57 60  1  0  0  0  0
 57 89  1  0  0  0  0
 58 61  1  0  0  0  0
 58 62  1  0  0  0  0
 63 71  1  0  0  0  0
 64 72  1  0  0  0  0
 65 73  1  0  0  0  0
 66 73  1  0  0  0  0
 67 73  1  0  0  0  0
 68 83  1  0  0  0  0
 69 72  1  0  0  0  0
 69 91  1  0  0  0  0
 70 73  1  0  0  0  0
 70 82  1  0  0  0  0
 71 83  1  0  0  0  0
 75 76  1  0  0  0  0
M  CHG  1  83   1
M  ISO  4  34 100  52 100  69 101  91 101
M  END
> <Batch ID>
0175

> <Smiles>
CNC(C)C(=O)NC(C(=O)N1Cc2cc([101O:1][101CH2:1]C(C)C3OC(C)(C)c4ncc(C5[100CH:0]([100C:0](=O)N6CCCC(n7nc(-c8ccc(Oc9ccc(F)cc9F)cc8)c(C(N)=O)c7N)C6)C5(C)C)cc4C3C3CC3)ccc2CC1C(=O)NC1CCCc2ccccc21)C(C)(C)C

> <Shape>
0.206

> <Color>
0.076

> <Negative vol penalty>
0.000

$$$$

  -OEChem-04052322473D

 86 95  0     1  0  0  0  0  0999 V2000
  -23.4625  -33.8186   16.4993 C   0  0  0  0  0  0  0  0  0  0  0  0
  -22.9457  -32.5290   16.5715 C   0  0  0  0  0  0  0  0  0  0  0  0
  -23.4304   -9.7543   19.9892 C   0  0  0  0  0  0  0  0  0  0  0  0
  -23.7990  -10.0775   22.3549 C   0  0  0  0  0  0  0  0  0  0  0  0
  -24.5180  -34.1929   17.3297 C   0  0  0  0  0  0  0  0  0  0  0  0
  -23.4850  -31.6125   17.4736 C   0  0  0  0  0  0  0  0  0  0  0  0
  -21.5960  -26.0747   21.6066 C   0  0  0  0  0  0  0  0  0  0  0  0
  -22.7695   -8.5553   20.2560 C   0  0  0  0  0  0  0  0  0  0  0  0
  -23.1380   -8.8785   22.6217 C   0  0  0  0  0  0  0  0  0  0  0  0
  -21.9594  -24.7550   21.8711 C   0  0  0  0  0  0  0  0  0  0  0  0
  -19.9462   -7.7849   22.8134 C   0  0  0  0  0  0  0  0  0  0  0  0
  -19.0146   -7.7773   23.8514 C   0  0  0  0  0  0  0  0  0  0  0  0
  -23.7290  -25.5373   23.3118 C   0  0  0  0  0  0  0  0  0  0  0  0
  -28.7165  -18.8820   21.3435 C   0  0  0  0  0  0  0  0  0  0  0  0
  -20.2979   -6.0767   24.9907 C   0  0  0  0  0  0  0  0  0  0  0  0
  -31.2825  -19.6506   21.8637 C   0  0  0  0  0  0  0  0  0  0  0  0
  -23.9452  -10.5154   21.0387 C   0  0  0  0  0  0  0  0  0  0  0  0
  -24.0586  -13.0381   20.6772 C   0  0  0  0  0  0  0  0  0  0  0  0
  -25.0641  -33.2835   18.2492 C   0  0  0  0  0  0  0  0  0  0  0  0
  -22.3046  -27.1377   22.1850 C   0  0  0  0  0  0  0  0  0  0  0  0
  -24.5497  -31.9746   18.3162 C   0  0  0  0  0  0  0  0  0  0  0  0
  -23.3711  -26.8696   23.0550 C   0  0  0  0  0  0  0  0  0  0  0  0
  -29.0002  -20.2303   21.5300 C   0  0  0  0  0  0  0  0  0  0  0  0
  -22.6233   -8.1174   21.5722 C   0  0  0  0  0  0  0  0  0  0  0  0
  -23.0278  -24.4861   22.7215 C   0  0  0  0  0  0  0  0  0  0  0  0
  -21.0537   -6.9383   22.8639 C   0  0  0  0  0  0  0  0  0  0  0  0
  -19.1904   -6.9232   24.9401 C   0  0  0  0  0  0  0  0  0  0  0  0
  -21.2296   -6.0842   23.9526 C   0  0  0  0  0  0  0  0  0  0  0  0
  -30.3051  -20.6303   21.7954 C   0  0  0  0  0  0  0  0  0  0  0  0
  -24.6285  -11.7538   20.7637 C   0  0  0  0  0  0  0  0  0  0  0  0
  -29.7651  -17.9806   21.4318 C   0  0  0  0  0  0  0  0  0  0  0  0
  -25.1188  -13.8662   20.3997 C   0  0  0  0  0  0  0  0  0  0  0  0
  -22.6931  -13.4462   20.8338 C   0  0  0  0  0  0  0  0  0  0  0  0
  -24.0361  -29.5546   21.0608 C   0  0  0  0  0  0  0  0  0  0  0  0
  -24.0900  -30.4548   24.1767 C   0  0  0  0  0  0  0  0  0  0  0  0
  -23.8368  -29.5517   27.4581 C   0  0  0  0  0  0  0  0  0  0  0  0
  -30.3564  -15.5362   21.2836 C   0  0  0  0  0  0  0  0  0  0  0  0
  -26.2356  -33.7196   19.0930 C   0  0  0  0  0  0  0  0  0  0  0  0
  -21.8832  -28.5553   21.9106 C   0  0  0  0  0  0  0  0  0  0  0  0
  -24.1512  -27.9747   23.7173 C   0  0  0  0  0  0  0  0  0  0  0  0
  -26.5030  -32.8032   20.2842 C   0  0  0  0  0  0  0  0  0  0  0  0
  -29.8825  -12.7862   19.0723 C   0  0  0  0  0  0  0  0  0  0  0  0
  -26.4705  -31.3410   19.8507 C   0  0  0  0  0  0  0  0  0  0  0  0
  -28.4265  -12.3781   19.3081 C   0  0  0  0  0  0  0  0  0  0  0  0
  -27.1569  -21.2289   20.0862 C   0  0  0  0  0  0  0  0  0  0  0  0
  -30.5616  -13.2367   20.3644 C   0  0  0  0  0  0  0  0  0  0  0  0
  -28.3932  -13.8755   21.3437 C   0  0  0  0  0  0  0  0  0  0  0  0
  -25.9026  -22.0412   20.3493 C   0  0  0  0  0  0  0  0  0  0  0  0
  -27.8686  -21.2272   21.4371 C   0  0  1  0  0  0  0  0  0  0  0  0
  -25.0914  -30.9596   19.2992 C   0  0  1  0  0  0  0  0  0  0  0  0
  -22.9997  -29.5672   22.1486 C   0  0  1  0  0  0  0  0  0  0  0  0
  -27.6482  -13.4759   20.0596 C   0  0  2  0  0  0  0  0  0  0  0  0
  -26.7128  -20.9787   22.4147 C   0  0  1  0  0  0  0  0  0  0  0  0
  -26.9881  -21.4701   23.8277 C   0  0  0  0  0  0  0  0  0  0  0  0
  -23.9635  -30.5006   29.7777 C   0  0  0  0  0  0  0  0  0  0  0  0
  -27.1315  -30.5687   23.9614 C   0  0  0  0  0  0  0  0  0  0  0  0
  -27.2386  -30.5767   26.4627 C   0  0  0  0  0  0  0  0  0  0  0  0
  -26.1065  -32.4451   25.2586 C   0  0  0  0  0  0  0  0  0  0  0  0
  -21.0413  -28.7819   28.0507 C   0  0  0  0  0  0  0  0  0  0  0  0
  -24.2194  -21.1394   21.9995 C   0  0  0  0  0  0  0  0  0  0  0  0
  -23.1446  -22.2068   21.9408 C   0  0  0  0  0  0  0  0  0  1  0  0
  -24.9931  -30.1773   25.3542 C   0  0  1  0  0  0  0  0  0  0  0  0
  -23.0527  -30.1528   28.6106 C   0  0  2  0  0  0  0  0  0  0  0  0
  -26.3542  -30.9209   25.2454 C   0  0  0  0  0  0  0  0  0  0  0  0
  -31.0453  -18.3313   21.6880 N   0  0  0  0  0  0  0  0  0  0  0  0
  -25.9482  -11.7603   20.5577 N   0  0  0  0  0  0  0  0  0  0  0  0
  -26.2164  -13.0588   20.3389 N   0  0  0  0  0  0  0  0  0  0  0  0
  -23.7047  -29.3441   23.4126 N   0  0  0  0  0  0  0  0  0  0  0  0
  -29.7700  -14.2804   21.0192 N   0  0  0  0  0  0  0  0  0  0  0  0
  -25.2098  -15.1988   20.2042 N   0  0  0  0  0  0  0  0  0  0  0  0
  -21.7313  -12.4668   21.1167 N   0  0  0  0  0  0  0  0  0  0  0  0
  -29.4663  -16.6088   21.2401 N   0  0  0  0  0  0  0  0  0  0  0  0
  -24.1538  -30.7524   20.3819 N   0  0  0  0  0  0  0  0  0  0  0  0
  -24.2229  -30.5121   26.5471 N   0  0  0  0  0  0  0  0  0  0  0  0
  -25.5615  -21.7776   21.8061 N   0  3  2  0  0  0  0  0  0  0  0  0
  -22.0194  -29.1923   29.0908 N   0  3  0  0  0  0  0  0  0  0  0  0
  -22.3339  -14.6416   20.7097 O   0  0  0  0  0  0  0  0  0  0  0  0
  -24.6822  -28.5341   20.8536 O   0  0  0  0  0  0  0  0  0  0  0  0
  -23.7336  -31.6133   23.9477 O   0  0  0  0  0  0  0  0  0  0  0  0
  -24.0854  -28.3509   27.3761 O   0  0  0  0  0  0  0  0  0  0  0  0
  -31.5645  -15.6549   21.5036 O   0  0  0  0  0  0  0  0  0  0  0  0
  -21.9782   -6.9476   21.8330 O   0  0  0  0  0  0  0  0  0  0  0  0
  -23.3850  -23.1989   22.9809 O   0  0  0  0  0  0  0  0  0  1  0  0
  -18.2965   -6.9171   25.9376 F   0  0  0  0  0  0  0  0  0  0  0  0
  -22.2922   -5.2696   24.0074 F   0  0  0  0  0  0  0  0  0  0  0  0
  -30.7295  -22.2791   22.0369 Cl  0  0  0  0  0  0  0  0  0  0  0  0
  1  2  1  0  0  0  0
  1  5  2  0  0  0  0
  2  6  2  0  0  0  0
  3  8  2  0  0  0  0
  3 17  1  0  0  0  0
  4  9  1  0  0  0  0
  4 17  2  0  0  0  0
  5 19  1  0  0  0  0
  6 21  1  0  0  0  0
  7 10  2  0  0  0  0
  7 20  1  0  0  0  0
  8 24  1  0  0  0  0
  9 24  2  0  0  0  0
 10 25  1  0  0  0  0
 11 12  2  0  0  0  0
 11 26  1  0  0  0  0
 12 27  1  0  0  0  0
 13 22  1  0  0  0  0
 13 25  2  0  0  0  0
 14 23  1  0  0  0  0
 14 31  2  0  0  0  0
 15 27  2  0  0  0  0
 15 28  1  0  0  0  0
 16 29  1  0  0  0  0
 16 65  2  0  0  0  0
 17 30  1  0  0  0  0
 18 30  1  0  0  0  0
 18 32  2  0  0  0  0
 18 33  1  0  0  0  0
 19 21  2  0  0  0  0
 19 38  1  0  0  0  0
 20 22  2  0  0  0  0
 20 39  1  0  0  0  0
 21 50  1  0  0  0  0
 22 40  1  0  0  0  0
 23 29  2  0  0  0  0
 23 49  1  0  0  0  0
 24 82  1  0  0  0  0
 25 83  1  0  0  0  0
 26 28  2  0  0  0  0
 26 82  1  0  0  0  0
 27 84  1  0  0  0  0
 28 85  1  0  0  0  0
 29 86  1  0  0  0  0
 30 66  2  0  0  0  0
 31 65  1  0  0  0  0
 31 72  1  0  0  0  0
 32 67  1  0  0  0  0
 32 70  1  0  0  0  0
 33 71  1  0  0  0  0
 33 77  2  0  0  0  0
 34 51  1  0  0  0  0
 34 73  1  0  0  0  0
 34 78  2  0  0  0  0
 35 62  1  0  0  0  0
 35 68  1  0  0  0  0
 35 79  2  0  0  0  0
 36 63  1  0  0  0  0
 36 74  1  0  0  0  0
 36 80  2  0  0  0  0
 37 69  1  0  0  0  0
 37 72  1  0  0  0  0
 37 81  2  0  0  0  0
 38 41  1  0  0  0  0
 39 51  1  0  0  0  0
 40 68  1  0  0  0  0
 41 43  1  0  0  0  0
 42 44  1  0  0  0  0
 42 46  1  0  0  0  0
 43 50  1  0  0  0  0
 44 52  1  0  0  0  0
 45 48  1  0  0  0  0
 45 49  1  0  0  0  0
 46 69  1  0  0  0  0
 47 52  1  0  0  0  0
 47 69  1  0  0  0  0
 48 75  1  0  0  0  0
 49 53  1  0  0  0  0
 50 73  1  0  0  0  0
 51 68  1  0  0  0  0
 52 67  1  0  0  0  0
 53 54  1  0  0  0  0
 53 75  1  0  0  0  0
 55 63  1  0  0  0  0
 56 64  1  0  0  0  0
 57 64  1  0  0  0  0
 58 64  1  0  0  0  0
 59 76  1  0  0  0  0
 60 61  1  0  0  0  0
 60 75  1  0  0  0  0
 61 83  1  0  0  0  0
 62 64  1  0  0  0  0
 62 74  1  0  0  0  0
 63 76  1  0  0  0  0
 66 67  1  0  0  0  0
M  CHG  2  75   1  76   1
M  ISO  4  37 100  61 101  72 100  83 101
M  END
> <Batch ID>
0175

> <Smiles>
CNC(C)C(=O)NC(C(=O)N1Cc2cc([101O:1][101CH2:1]CN3CCC(c4cc([100NH:0][100C:0](=O)N5CCCC(n6nc(-c7ccc(Oc8ccc(F)cc8F)cc7)c(C(N)=O)c6N)C5)ncc4Cl)C3C)ccc2CC1C(=O)NC1CCCc2ccccc21)C(C)(C)C

> <Shape>
0.290

> <Color>
0.186

> <Negative vol penalty>
0.000

$$$$

  -OEChem-04052322473D

 84 93  0     1  0  0  0  0  0999 V2000
  -22.1356  -10.3539   17.7374 C   0  0  0  0  0  0  0  0  0  0  0  0
  -22.6167  -11.5401   17.1925 C   0  0  0  0  0  0  0  0  0  0  0  0
  -24.7982  -25.3149   24.5544 C   0  0  0  0  0  0  0  0  0  0  0  0
  -24.0241  -26.7080   26.3702 C   0  0  0  0  0  0  0  0  0  0  0  0
  -22.2017  -10.1434   19.1141 C   0  0  0  0  0  0  0  0  0  0  0  0
  -23.1632  -12.5170   18.0240 C   0  0  0  0  0  0  0  0  0  0  0  0
  -28.2110  -17.5993   18.0981 C   0  0  0  0  0  0  0  0  0  0  0  0
  -25.3987  -24.4528   25.4718 C   0  0  0  0  0  0  0  0  0  0  0  0
  -24.6247  -25.8459   27.2876 C   0  0  0  0  0  0  0  0  0  0  0  0
  -28.3694  -18.9560   18.3773 C   0  0  0  0  0  0  0  0  0  0  0  0
  -27.7319  -25.2460   28.4776 C   0  0  0  0  0  0  0  0  0  0  0  0
  -28.4695  -25.8157   29.5153 C   0  0  0  0  0  0  0  0  0  0  0  0
  -28.5038  -18.4496   20.7320 C   0  0  0  0  0  0  0  0  0  0  0  0
  -30.1306  -23.6048   19.1630 C   0  0  0  0  0  0  0  0  0  0  0  0
  -27.0004  -24.7786   31.1288 C   0  0  0  0  0  0  0  0  0  0  0  0
  -24.1109  -26.4426   25.0036 C   0  0  0  0  0  0  0  0  0  0  0  0
  -22.1780  -27.2602   23.5534 C   0  0  0  0  0  0  0  0  0  0  0  0
  -22.7580  -11.1142   19.9620 C   0  0  0  0  0  0  0  0  0  0  0  0
  -28.1869  -16.6570   19.1364 C   0  0  0  0  0  0  0  0  0  0  0  0
  -23.2355  -12.3198   19.4135 C   0  0  0  0  0  0  0  0  0  0  0  0
  -28.3475  -17.0813   20.4632 C   0  0  0  0  0  0  0  0  0  0  0  0
  -30.3307  -24.9049   19.6135 C   0  0  0  0  0  0  0  0  0  0  0  0
  -28.8932  -22.9961   19.3408 C   0  0  0  0  0  0  0  0  0  0  0  0
  -25.3120  -24.7183   26.8384 C   0  0  0  0  0  0  0  0  0  0  0  0
  -28.5129  -19.3817   19.6946 C   0  0  0  0  0  0  0  0  0  0  0  0
  -26.6285  -24.4426   28.7654 C   0  0  0  0  0  0  0  0  0  0  0  0
  -28.1038  -25.5820   30.8409 C   0  0  0  0  0  0  0  0  0  0  0  0
  -26.2628  -24.2089   30.0910 C   0  0  0  0  0  0  0  0  0  0  0  0
  -23.4908  -27.3338   24.0563 C   0  0  0  0  0  0  0  0  0  0  0  0
  -29.2698  -25.5480   20.2305 C   0  0  0  0  0  0  0  0  0  0  0  0
  -27.8967  -23.7245   19.9702 C   0  0  0  0  0  0  0  0  0  0  0  0
  -22.0792  -28.3270   22.6939 C   0  0  0  0  0  0  0  0  0  0  0  0
  -21.1405  -26.3123   23.8378 C   0  0  0  0  0  0  0  0  0  0  0  0
  -26.0463  -14.5759   20.2274 C   0  0  0  0  0  0  0  0  0  0  0  0
  -28.5004  -13.6437   22.1329 C   0  0  0  0  0  0  0  0  0  0  0  0
  -31.4515  -14.4369   23.6524 C   0  0  0  0  0  0  0  0  0  0  0  0
  -27.4034  -29.7300   22.2928 C   0  0  0  0  0  0  0  0  0  0  0  0
  -22.7646  -10.8615   21.4488 C   0  0  0  0  0  0  0  0  0  0  0  0
  -28.0420  -15.1945   18.8166 C   0  0  0  0  0  0  0  0  0  0  0  0
  -28.3489  -16.1077   21.6124 C   0  0  0  0  0  0  0  0  0  0  0  0
  -23.7002  -11.7889   22.2201 C   0  0  0  0  0  0  0  0  0  0  0  0
  -24.7233  -30.5376   19.6567 C   0  0  0  0  0  0  0  0  0  0  0  0
  -23.5140  -13.2332   21.7659 C   0  0  0  0  0  0  0  0  0  0  0  0
  -23.5234  -30.0243   20.4416 C   0  0  0  0  0  0  0  0  0  0  0  0
  -29.8980  -27.0640   22.1913 C   0  0  0  0  0  0  0  0  0  0  0  0
  -26.0059  -29.8782   20.1554 C   0  0  0  0  0  0  0  0  0  0  0  0
  -29.5156  -28.4875   22.5602 C   0  0  0  0  0  0  0  0  0  0  0  0
  -28.1372  -27.7898   20.7308 C   0  0  0  0  0  0  0  0  0  0  0  0
  -25.1294  -30.6598   22.3491 C   0  0  0  0  0  0  0  0  0  0  0  0
  -23.8580  -13.3930   20.2801 C   0  0  1  0  0  0  0  0  0  0  0  0
  -29.4279  -26.9584   20.7405 C   0  0  2  0  0  0  0  0  0  0  0  0
  -27.5165  -14.3751   19.9913 C   0  0  1  0  0  0  0  0  0  0  0  0
  -23.7133  -30.1913   21.9610 C   0  0  2  0  0  0  0  0  0  0  0  0
  -31.6540  -25.5628   19.4259 C   0  0  0  0  0  0  0  0  0  0  0  0
  -26.5475  -23.1211   20.1867 C   0  0  0  0  0  0  0  0  0  0  0  0
  -33.2012  -13.4821   25.1769 C   0  0  0  0  0  0  0  0  0  0  0  0
  -26.6339  -14.0331   24.5151 C   0  0  0  0  0  0  0  0  0  0  0  0
  -28.6444  -14.0001   26.0068 C   0  0  0  0  0  0  0  0  0  0  0  0
  -28.0740  -11.9923   24.6408 C   0  0  0  0  0  0  0  0  0  0  0  0
  -33.5641  -14.7283   21.6003 C   0  0  0  0  0  0  0  0  0  0  0  0
  -28.6724  -21.6032   18.8607 C   0  0  0  0  0  0  0  0  0  1  0  0
  -29.0067  -14.0452   23.4973 C   0  0  1  0  0  0  0  0  0  0  0  0
  -32.7739  -13.6960   23.7331 C   0  0  2  0  0  0  0  0  0  0  0  0
  -28.0878  -13.5365   24.6437 C   0  0  0  0  0  0  0  0  0  0  0  0
  -24.1768  -28.3656   23.5577 N   0  0  0  0  0  0  0  0  0  0  0  0
  -28.0536  -24.9893   20.4212 N   0  0  0  0  0  0  0  0  0  0  0  0
  -23.2917  -28.9502   22.7325 N   0  0  0  0  0  0  0  0  0  0  0  0
  -28.1978  -14.6890   21.2489 N   0  0  0  0  0  0  0  0  0  0  0  0
  -26.2073  -29.9927   21.6047 N   0  0  0  0  0  0  0  0  0  0  0  0
  -28.2878  -28.7643   21.8147 N   0  0  0  0  0  0  0  0  0  0  0  0
  -21.0743  -28.7832   21.9164 N   0  0  0  0  0  0  0  0  0  0  0  0
  -21.4103  -25.2786   24.7450 N   0  0  0  0  0  0  0  0  0  0  0  0
  -25.2928  -13.4252   20.0941 N   0  0  0  0  0  0  0  0  0  0  0  0
  -30.3831  -13.5684   23.5785 N   0  0  0  0  0  0  0  0  0  0  0  0
  -33.8425  -14.4660   23.0358 N   0  3  0  0  0  0  0  0  0  0  0  0
  -20.0131  -26.3705   23.2909 O   0  0  0  0  0  0  0  0  0  0  0  0
  -25.6267  -15.6917   20.5112 O   0  0  0  0  0  0  0  0  0  0  0  0
  -28.3847  -12.4465   21.8590 O   0  0  0  0  0  0  0  0  0  0  0  0
  -31.3737  -15.6635   23.6583 O   0  0  0  0  0  0  0  0  0  0  0  0
  -27.6686  -30.3400   23.3410 O   0  0  0  0  0  0  0  0  0  0  0  0
  -25.8977  -23.8771   27.7340 O   0  0  0  0  0  0  0  0  0  0  0  0
  -28.6681  -20.7143   19.9718 O   0  0  0  0  0  0  0  0  0  1  0  0
  -28.8131  -26.1279   31.8375 F   0  0  0  0  0  0  0  0  0  0  0  0
  -25.2044  -23.4371   30.3737 F   0  0  0  0  0  0  0  0  0  0  0  0
  1  2  1  0  0  0  0
  1  5  2  0  0  0  0
  2  6  2  0  0  0  0
  3  8  2  0  0  0  0
  3 16  1  0  0  0  0
  4  9  1  0  0  0  0
  4 16  2  0  0  0  0
  5 18  1  0  0  0  0
  6 20  1  0  0  0  0
  7 10  2  0  0  0  0
  7 19  1  0  0  0  0
  8 24  1  0  0  0  0
  9 24  2  0  0  0  0
 10 25  1  0  0  0  0
 11 12  2  0  0  0  0
 11 26  1  0  0  0  0
 12 27  1  0  0  0  0
 13 21  1  0  0  0  0
 13 25  2  0  0  0  0
 14 22  2  0  0  0  0
 14 23  1  0  0  0  0
 15 27  2  0  0  0  0
 15 28  1  0  0  0  0
 16 29  1  0  0  0  0
 17 29  1  0  0  0  0
 17 32  2  0  0  0  0
 17 33  1  0  0  0  0
 18 20  2  0  0  0  0
 18 38  1  0  0  0  0
 19 21  2  0  0  0  0
 19 39  1  0  0  0  0
 20 50  1  0  0  0  0
 21 40  1  0  0  0  0
 22 30  1  0  0  0  0
 22 54  1  0  0  0  0
 23 31  2  0  0  0  0
 23 61  1  0  0  0  0
 24 81  1  0  0  0  0
 25 82  1  0  0  0  0
 26 28  2  0  0  0  0
 26 81  1  0  0  0  0
 27 83  1  0  0  0  0
 28 84  1  0  0  0  0
 29 65  2  0  0  0  0
 30 51  1  0  0  0  0
 30 66  2  0  0  0  0
 31 55  1  0  0  0  0
 31 66  1  0  0  0  0
 32 67  1  0  0  0  0
 32 71  1  0  0  0  0
 33 72  1  0  0  0  0
 33 76  2  0  0  0  0
 34 52  1  0  0  0  0
 34 73  1  0  0  0  0
 34 77  2  0  0  0  0
 35 62  1  0  0  0  0
 35 68  1  0  0  0  0
 35 78  2  0  0  0  0
 36 63  1  0  0  0  0
 36 74  1  0  0  0  0
 36 79  2  0  0  0  0
 37 69  1  0  0  0  0
 37 70  1  0  0  0  0
 37 80  2  0  0  0  0
 38 41  1  0  0  0  0
 39 52  1  0  0  0  0
 40 68  1  0  0  0  0
 41 43  1  0  0  0  0
 42 44  1  0  0  0  0
 42 46  1  0  0  0  0
 43 50  1  0  0  0  0
 44 53  1  0  0  0  0
 45 47  1  0  0  0  0
 45 51  1  0  0  0  0
 46 69  1  0  0  0  0
 47 70  1  0  0  0  0
 48 51  1  0  0  0  0
 48 70  1  0  0  0  0
 49 53  1  0  0  0  0
 49 69  1  0  0  0  0
 50 73  1  0  0  0  0
 52 68  1  0  0  0  0
 53 67  1  0  0  0  0
 56 63  1  0  0  0  0
 57 64  1  0  0  0  0
 58 64  1  0  0  0  0
 59 64  1  0  0  0  0
 60 75  1  0  0  0  0
 61 82  1  0  0  0  0
 62 64  1  0  0  0  0
 62 74  1  0  0  0  0
 63 75  1  0  0  0  0
 65 67  1  0  0  0  0
M  CHG  1  75   1
M  ISO  4  37 100  61 101  70 100  82 101
M  END
> <Batch ID>
0175

> <Smiles>
CNC(C)C(=O)NC(C(=O)N1Cc2cc([101O:1][101CH2:1]c3cc(C)c(C4CC[100N:0]([100C:0](=O)N5CCCC(n6nc(-c7ccc(Oc8ccc(F)cc8F)cc7)c(C(N)=O)c6N)C5)C4)nc3C)ccc2CC1C(=O)NC1CCCc2ccccc21)C(C)(C)C

> <Shape>
0.235

> <Color>
0.064

> <Negative vol penalty>
0.000

$$$$

  -OEChem-04052322473D

 84 93  0     1  0  0  0  0  0999 V2000
  -25.1887  -37.2068   22.0551 C   0  0  0  0  0  0  0  0  0  0  0  0
  -25.9563  -36.1387   21.6018 C   0  0  0  0  0  0  0  0  0  0  0  0
  -25.7801  -13.4912   23.2074 C   0  0  0  0  0  0  0  0  0  0  0  0
  -24.1845  -12.3550   21.7930 C   0  0  0  0  0  0  0  0  0  0  0  0
  -24.2480  -37.0087   23.0649 C   0  0  0  0  0  0  0  0  0  0  0  0
  -25.7842  -34.8720   22.1588 C   0  0  0  0  0  0  0  0  0  0  0  0
  -26.2564  -29.4884   19.2780 C   0  0  0  0  0  0  0  0  0  0  0  0
  -25.2974  -12.7920   24.3136 C   0  0  0  0  0  0  0  0  0  0  0  0
  -23.7019  -11.6557   22.8992 C   0  0  0  0  0  0  0  0  0  0  0  0
  -27.2895  -28.5558   19.1961 C   0  0  0  0  0  0  0  0  0  0  0  0
  -24.6290   -8.9892   24.7567 C   0  0  0  0  0  0  0  0  0  0  0  0
  -24.4114   -7.6191   24.6110 C   0  0  0  0  0  0  0  0  0  0  0  0
  -26.2895  -27.2989   20.9959 C   0  0  0  0  0  0  0  0  0  0  0  0
  -22.0755   -7.9336   25.1419 C   0  0  0  0  0  0  0  0  0  0  0  0
  -32.1034  -23.6630   19.0879 C   0  0  0  0  0  0  0  0  0  0  0  0
  -25.2236  -13.2728   21.9471 C   0  0  0  0  0  0  0  0  0  0  0  0
  -26.7631  -13.6068   19.9406 C   0  0  0  0  0  0  0  0  0  0  0  0
  -24.0576  -35.7369   23.6279 C   0  0  0  0  0  0  0  0  0  0  0  0
  -25.2362  -29.3388   20.2284 C   0  0  0  0  0  0  0  0  0  0  0  0
  -24.8410  -34.6570   23.1780 C   0  0  0  0  0  0  0  0  0  0  0  0
  -25.2432  -28.2296   21.0861 C   0  0  0  0  0  0  0  0  0  0  0  0
  -24.2583  -11.8742   24.1595 C   0  0  0  0  0  0  0  0  0  0  0  0
  -27.3078  -27.4624   20.0571 C   0  0  0  0  0  0  0  0  0  0  0  0
  -23.5698   -9.8315   25.0951 C   0  0  0  0  0  0  0  0  0  0  0  0
  -23.1347   -7.0914   24.8036 C   0  0  0  0  0  0  0  0  0  0  0  0
  -22.2931   -9.3037   25.2877 C   0  0  0  0  0  0  0  0  0  0  0  0
  -25.7213  -13.9952   20.8041 C   0  0  0  0  0  0  0  0  0  0  0  0
  -30.7658  -23.4455   18.8273 C   0  0  0  0  0  0  0  0  0  0  0  0
  -32.4618  -24.9763   19.3137 C   0  0  0  0  0  0  0  0  0  0  0  0
  -26.8479  -14.6265   19.0244 C   0  0  0  0  0  0  0  0  0  0  0  0
  -30.3147  -25.6646   19.0248 C   0  0  0  0  0  0  0  0  0  0  0  0
  -27.5810  -12.4294   19.9645 C   0  0  0  0  0  0  0  0  0  0  0  0
  -24.2085  -31.0476   22.7038 C   0  0  0  0  0  0  0  0  0  0  0  0
  -21.8612  -28.8098   22.7753 C   0  0  0  0  0  0  0  0  0  0  0  0
  -20.8486  -25.6470   21.9891 C   0  0  0  0  0  0  0  0  0  0  0  0
  -26.8793  -19.9275   17.6391 C   0  0  0  0  0  0  0  0  0  0  0  0
  -23.0619  -35.5814   24.7500 C   0  0  0  0  0  0  0  0  0  0  0  0
  -24.1145  -30.3392   20.2860 C   0  0  0  0  0  0  0  0  0  0  0  0
  -24.1606  -28.0124   22.1105 C   0  0  0  0  0  0  0  0  0  0  0  0
  -22.6778  -34.1302   25.0268 C   0  0  0  0  0  0  0  0  0  0  0  0
  -23.7594  -18.5198   18.1215 C   0  0  0  0  0  0  0  0  0  0  0  0
  -23.9223  -33.2497   25.0809 C   0  0  0  0  0  0  0  0  0  0  0  0
  -24.0648  -17.1803   18.7915 C   0  0  0  0  0  0  0  0  0  0  0  0
  -29.2591  -21.5714   19.6271 C   0  0  0  0  0  0  0  0  0  0  0  0
  -29.6902  -21.8781   17.1512 C   0  0  0  0  0  0  0  0  0  0  0  0
  -24.6518  -19.6237   18.6768 C   0  0  0  0  0  0  0  0  0  0  0  0
  -28.7435  -20.1584   19.3399 C   0  0  0  0  0  0  0  0  0  0  0  0
  -29.1909  -20.4538   16.9263 C   0  0  0  0  0  0  0  0  0  0  0  0
  -26.4344  -17.9984   19.2237 C   0  0  0  0  0  0  0  0  0  0  0  0
  -24.6662  -33.2628   23.7401 C   0  0  1  0  0  0  0  0  0  0  0  0
  -30.2748  -22.0339   18.5668 C   0  0  0  0  0  0  0  0  0  0  0  0
  -23.4036  -30.3627   21.6357 C   0  0  1  0  0  0  0  0  0  0  0  0
  -25.5629  -16.8418   18.6934 C   0  0  1  0  0  0  0  0  0  0  0  0
  -33.8865  -25.3095   19.6058 C   0  0  0  0  0  0  0  0  0  0  0  0
  -18.8902  -24.0936   22.2099 C   0  0  0  0  0  0  0  0  0  0  0  0
  -22.5544  -28.3572   25.7121 C   0  0  0  0  0  0  0  0  0  0  0  0
  -21.2743  -26.2080   25.6109 C   0  0  0  0  0  0  0  0  0  0  0  0
  -20.1047  -28.3744   25.2092 C   0  0  0  0  0  0  0  0  0  0  0  0
  -20.5558  -25.4121   19.0535 C   0  0  0  0  0  0  0  0  0  0  0  0
  -29.3212  -26.7763   18.9935 C   0  0  0  0  0  0  0  0  0  1  0  0
  -21.6802  -27.4715   23.4500 C   0  0  1  0  0  0  0  0  0  0  0  0
  -19.5804  -25.1287   21.3353 C   0  0  2  0  0  0  0  0  0  0  0  0
  -21.4250  -27.6076   24.9776 C   0  0  0  0  0  0  0  0  0  0  0  0
  -25.1830  -15.1701   20.4667 N   0  0  0  0  0  0  0  0  0  0  0  0
  -29.8406  -24.4267   18.7879 N   0  0  0  0  0  0  0  0  0  0  0  0
  -31.5903  -26.0060   19.2896 N   0  0  0  0  0  0  0  0  0  0  0  0
  -25.8893  -15.5288   19.3811 N   0  0  0  0  0  0  0  0  0  0  0  0
  -23.0889  -29.0216   22.1321 N   0  0  0  0  0  0  0  0  0  0  0  0
  -26.0654  -19.2631   18.5689 N   0  0  0  0  0  0  0  0  0  0  0  0
  -28.2378  -20.0600   17.9636 N   0  0  0  0  0  0  0  0  0  0  0  0
  -27.6482  -14.8304   17.9565 N   0  0  0  0  0  0  0  0  0  0  0  0
  -27.3605  -11.4831   20.9746 N   0  0  0  0  0  0  0  0  0  0  0  0
  -23.9956  -32.4107   22.7817 N   0  0  0  0  0  0  0  0  0  0  0  0
  -20.6139  -26.7896   22.7245 N   0  0  0  0  0  0  0  0  0  0  0  0
  -19.8948  -24.4994   20.0215 N   0  3  0  0  0  0  0  0  0  0  0  0
  -28.4916  -12.2304   19.1250 O   0  0  0  0  0  0  0  0  0  0  0  0
  -24.9654  -30.3879   23.4063 O   0  0  0  0  0  0  0  0  0  0  0  0
  -20.9442  -29.6342   22.8115 O   0  0  0  0  0  0  0  0  0  0  0  0
  -21.9378  -25.0917   21.8633 O   0  0  0  0  0  0  0  0  0  0  0  0
  -26.4202  -20.3756   16.5810 O   0  0  0  0  0  0  0  0  0  0  0  0
  -23.7873  -11.1915   25.2387 O   0  0  0  0  0  0  0  0  0  0  0  0
  -28.3223  -26.5448   19.9792 O   0  0  0  0  0  0  0  0  0  1  0  0
  -22.9256   -5.7759   24.6621 F   0  0  0  0  0  0  0  0  0  0  0  0
  -21.2714  -10.1080   25.6117 F   0  0  0  0  0  0  0  0  0  0  0  0
  1  2  1  0  0  0  0
  1  5  2  0  0  0  0
  2  6  2  0  0  0  0
  3  8  2  0  0  0  0
  3 16  1  0  0  0  0
  4  9  1  0  0  0  0
  4 16  2  0  0  0  0
  5 18  1  0  0  0  0
  6 20  1  0  0  0  0
  7 10  2  0  0  0  0
  7 19  1  0  0  0  0
  8 22  1  0  0  0  0
  9 22  2  0  0  0  0
 10 23  1  0  0  0  0
 11 12  2  0  0  0  0
 11 24  1  0  0  0  0
 12 25  1  0  0  0  0
 13 21  1  0  0  0  0
 13 23  2  0  0  0  0
 14 25  2  0  0  0  0
 14 26  1  0  0  0  0
 15 28  2  0  0  0  0
 15 29  1  0  0  0  0
 16 27  1  0  0  0  0
 17 27  1  0  0  0  0
 17 30  2  0  0  0  0
 17 32  1  0  0  0  0
 18 20  2  0  0  0  0
 18 37  1  0  0  0  0
 19 21  2  0  0  0  0
 19 38  1  0  0  0  0
 20 50  1  0  0  0  0
 21 39  1  0  0  0  0
 22 81  1  0  0  0  0
 23 82  1  0  0  0  0
 24 26  2  0  0  0  0
 24 81  1  0  0  0  0
 25 83  1  0  0  0  0
 26 84  1  0  0  0  0
 27 64  2  0  0  0  0
 28 51  1  0  0  0  0
 28 65  1  0  0  0  0
 29 54  1  0  0  0  0
 29 66  2  0  0  0  0
 30 67  1  0  0  0  0
 30 71  1  0  0  0  0
 31 60  1  0  0  0  0
 31 65  2  0  0  0  0
 31 66  1  0  0  0  0
 32 72  1  0  0  0  0
 32 76  2  0  0  0  0
 33 52  1  0  0  0  0
 33 73  1  0  0  0  0
 33 77  2  0  0  0  0
 34 61  1  0  0  0  0
 34 68  1  0  0  0  0
 34 78  2  0  0  0  0
 35 62  1  0  0  0  0
 35 74  1  0  0  0  0
 35 79  2  0  0  0  0
 36 69  1  0  0  0  0
 36 70  1  0  0  0  0
 36 80  2  0  0  0  0
 37 40  1  0  0  0  0
 38 52  1  0  0  0  0
 39 68  1  0  0  0  0
 40 42  1  0  0  0  0
 41 43  1  0  0  0  0
 41 46  1  0  0  0  0
 42 50  1  0  0  0  0
 43 53  1  0  0  0  0
 44 47  1  0  0  0  0
 44 51  1  0  0  0  0
 45 48  1  0  0  0  0
 45 51  1  0  0  0  0
 46 69  1  0  0  0  0
 47 70  1  0  0  0  0
 48 70  1  0  0  0  0
 49 53  1  0  0  0  0
 49 69  1  0  0  0  0
 50 73  1  0  0  0  0
 52 68  1  0  0  0  0
 53 67  1  0  0  0  0
 55 62  1  0  0  0  0
 56 63  1  0  0  0  0
 57 63  1  0  0  0  0
 58 63  1  0  0  0  0
 59 75  1  0  0  0  0
 60 82  1  0  0  0  0
 61 63  1  0  0  0  0
 61 74  1  0  0  0  0
 62 75  1  0  0  0  0
 64 67  1  0  0  0  0
M  CHG  1  75   1
M  ISO  4  36 100  60 101  70 100  82 101
M  END
> <Batch ID>
0175

> <Smiles>
CNC(C)C(=O)NC(C(=O)N1Cc2cc([101O:1][101CH2:1]c3nc(C)cc(C4CC[100N:0]([100C:0](=O)N5CCCC(n6nc(-c7ccc(Oc8ccc(F)cc8F)cc7)c(C(N)=O)c6N)C5)CC4)n3)ccc2CC1C(=O)NC1CCCc2ccccc21)C(C)(C)C

> <Shape>
0.260

> <Color>
0.070

> <Negative vol penalty>
0.000

$$$$

  -OEChem-04052322473D

 86 95  0     1  0  0  0  0  0999 V2000
  -23.1061  -33.8500   25.1508 C   0  0  0  0  0  0  0  0  0  0  0  0
  -22.5529  -33.1532   24.0813 C   0  0  0  0  0  0  0  0  0  0  0  0
  -28.4927  -11.2482   22.4775 C   0  0  0  0  0  0  0  0  0  0  0  0
  -27.6303  -11.4262   20.2277 C   0  0  0  0  0  0  0  0  0  0  0  0
  -24.4810  -34.0774   25.1967 C   0  0  0  0  0  0  0  0  0  0  0  0
  -23.3741  -32.6842   23.0566 C   0  0  0  0  0  0  0  0  0  0  0  0
  -23.9647  -27.2589   18.4162 C   0  0  0  0  0  0  0  0  0  0  0  0
  -27.5121  -10.3031   22.7786 C   0  0  0  0  0  0  0  0  0  0  0  0
  -26.6497  -10.4809   20.5288 C   0  0  0  0  0  0  0  0  0  0  0  0
  -24.1291  -27.0212   17.0522 C   0  0  0  0  0  0  0  0  0  0  0  0
  -23.6791  -10.3999   22.1412 C   0  0  0  0  0  0  0  0  0  0  0  0
  -22.3743  -10.6649   21.7258 C   0  0  0  0  0  0  0  0  0  0  0  0
  -26.5001  -27.4040   17.2773 C   0  0  0  0  0  0  0  0  0  0  0  0
  -27.9069  -18.5746   16.1125 C   0  0  0  0  0  0  0  0  0  0  0  0
  -22.3882   -8.6481   20.3955 C   0  0  0  0  0  0  0  0  0  0  0  0
  -28.1244  -21.2904   15.9605 C   0  0  0  0  0  0  0  0  0  0  0  0
  -28.5518  -11.8099   21.2020 C   0  0  0  0  0  0  0  0  0  0  0  0
  -30.8520  -12.5423   20.3773 C   0  0  0  0  0  0  0  0  0  0  0  0
  -25.3206  -33.6025   24.1769 C   0  0  0  0  0  0  0  0  0  0  0  0
  -25.0672  -27.5821   19.2202 C   0  0  0  0  0  0  0  0  0  0  0  0
  -24.7612  -32.9065   23.0882 C   0  0  0  0  0  0  0  0  0  0  0  0
  -26.3475  -27.6428   18.6517 C   0  0  0  0  0  0  0  0  0  0  0  0
  -27.6861  -20.6035   14.8399 C   0  0  0  0  0  0  0  0  0  0  0  0
  -27.5780  -19.2199   14.9255 C   0  0  0  0  0  0  0  0  0  0  0  0
  -26.5907   -9.9194   21.8043 C   0  0  0  0  0  0  0  0  0  0  0  0
  -25.3965  -27.0966   16.4821 C   0  0  0  0  0  0  0  0  0  0  0  0
  -24.3386   -9.2590   21.6837 C   0  0  0  0  0  0  0  0  0  0  0  0
  -21.7287   -9.7890   20.8530 C   0  0  0  0  0  0  0  0  0  0  0  0
  -23.6931   -8.3832   20.8109 C   0  0  0  0  0  0  0  0  0  0  0  0
  -29.5641  -12.7867   20.8905 C   0  0  0  0  0  0  0  0  0  0  0  0
  -28.3354  -19.3523   17.1761 C   0  0  0  0  0  0  0  0  0  0  0  0
  -31.4165  -13.7888   20.2586 C   0  0  0  0  0  0  0  0  0  0  0  0
  -31.4816  -11.2997   20.0381 C   0  0  0  0  0  0  0  0  0  0  0  0
  -25.9012  -30.0956   20.9782 C   0  0  0  0  0  0  0  0  0  0  0  0
  -28.3585  -28.1713   21.8618 C   0  0  0  0  0  0  0  0  0  0  0  0
  -30.3648  -25.5109   21.1243 C   0  0  0  0  0  0  0  0  0  0  0  0
  -29.1195  -19.2616   19.5685 C   0  0  0  0  0  0  0  0  0  0  0  0
  -26.7947  -33.9137   24.2464 C   0  0  0  0  0  0  0  0  0  0  0  0
  -24.8770  -27.8094   20.6949 C   0  0  0  0  0  0  0  0  0  0  0  0
  -27.5664  -27.9662   19.4752 C   0  0  0  0  0  0  0  0  0  0  0  0
  -27.6428  -33.0584   23.3086 C   0  0  0  0  0  0  0  0  0  0  0  0
  -31.2649  -18.1679   22.1911 C   0  0  0  0  0  0  0  0  0  0  0  0
  -27.0134  -33.0039   21.9202 C   0  0  0  0  0  0  0  0  0  0  0  0
  -31.1942  -16.6416   22.1046 C   0  0  0  0  0  0  0  0  0  0  0  0
  -28.3934  -21.4765   12.5113 C   0  0  0  0  0  0  0  0  0  0  0  0
  -29.9174  -18.8167   21.8794 C   0  0  0  0  0  0  0  0  0  0  0  0
  -29.2372  -16.8760   20.5227 C   0  0  0  0  0  0  0  0  0  0  0  0
  -27.3491  -21.3404   13.5982 C   0  0  2  0  0  0  0  0  0  0  0  0
  -25.6223  -32.3605   21.9700 C   0  0  1  0  0  0  0  0  0  0  0  0
  -25.9960  -28.6358   21.3212 C   0  0  1  0  0  0  0  0  0  0  0  0
  -28.0120  -22.6751   13.3280 C   0  0  2  0  0  0  0  0  0  0  0  0
  -30.5867  -16.1806   20.7651 C   0  0  2  0  0  0  0  0  0  0  0  0
  -27.1127  -18.4092   13.7613 C   0  0  0  0  0  0  0  0  0  0  0  0
  -32.1232  -23.7542   21.4700 C   0  0  0  0  0  0  0  0  0  0  0  0
  -28.1094  -24.7942   11.9590 C   0  0  0  0  0  0  0  0  0  0  0  0
  -30.2503  -30.4196   21.0397 C   0  0  0  0  0  0  0  0  0  0  0  0
  -32.1205  -28.7552   21.0491 C   0  0  0  0  0  0  0  0  0  0  0  0
  -30.8808  -29.2475   23.1570 C   0  0  0  0  0  0  0  0  0  0  0  0
  -28.4189  -23.6353   22.3303 C   0  0  0  0  0  0  0  0  0  0  0  0
  -25.3104  -25.2976   13.3125 C   0  0  0  0  0  0  0  0  0  0  0  0
  -24.6338  -25.9439   14.5052 C   0  0  0  0  0  0  0  0  0  1  0  0
  -29.7491  -27.9045   21.3384 C   0  0  1  0  0  0  0  0  0  0  0  0
  -30.7931  -24.3124   21.9517 C   0  0  2  0  0  0  0  0  0  0  0  0
  -27.2185  -23.8079   12.6970 C   0  0  2  0  0  0  0  0  0  0  0  0
  -30.7272  -29.0775   21.6299 C   0  0  0  0  0  0  0  0  0  0  0  0
  -28.4530  -20.6983   17.1306 N   0  0  0  0  0  0  0  0  0  0  0  0
  -29.3245  -14.0863   21.0846 N   0  0  0  0  0  0  0  0  0  0  0  0
  -30.4695  -14.6697   20.6914 N   0  0  0  0  0  0  0  0  0  0  0  0
  -27.3280  -28.1865   20.9112 N   0  0  0  0  0  0  0  0  0  0  0  0
  -29.4054  -18.3360   20.5942 N   0  0  0  0  0  0  0  0  0  0  0  0
  -32.6257  -14.2062   19.8273 N   0  0  0  0  0  0  0  0  0  0  0  0
  -30.7594  -10.1127   20.2219 N   0  0  0  0  0  0  0  0  0  0  0  0
  -28.6696  -18.6856   18.3809 N   0  0  0  0  0  0  0  0  0  0  0  0
  -25.7345  -30.9213   22.0736 N   0  0  0  0  0  0  0  0  0  0  0  0
  -30.1618  -26.6267   21.9086 N   0  0  0  0  0  0  0  0  0  0  0  0
  -29.7709  -23.2314   21.8655 N   0  3  0  0  0  0  0  0  0  0  0  0
  -26.4989  -24.5378   13.7756 N   0  3  0  0  0  0  0  0  0  0  0  0
  -32.6560  -11.2423   19.6010 O   0  0  0  0  0  0  0  0  0  0  0  0
  -25.9753  -30.4470   19.8066 O   0  0  0  0  0  0  0  0  0  0  0  0
  -28.1917  -28.3521   23.0706 O   0  0  0  0  0  0  0  0  0  0  0  0
  -30.2279  -25.4631   19.9039 O   0  0  0  0  0  0  0  0  0  0  0  0
  -29.2891  -20.4739   19.7225 O   0  0  0  0  0  0  0  0  0  0  0  0
  -25.6338   -8.9969   22.0977 O   0  0  0  0  0  0  0  0  0  0  0  0
  -25.5596  -26.8657   15.1509 O   0  0  0  0  0  0  0  0  0  1  0  0
  -20.4751  -10.0428   20.4553 F   0  0  0  0  0  0  0  0  0  0  0  0
  -24.3211   -7.2849   20.3689 F   0  0  0  0  0  0  0  0  0  0  0  0
  1  2  1  0  0  0  0
  1  5  2  0  0  0  0
  2  6  2  0  0  0  0
  3  8  2  0  0  0  0
  3 17  1  0  0  0  0
  4  9  1  0  0  0  0
  4 17  2  0  0  0  0
  5 19  1  0  0  0  0
  6 21  1  0  0  0  0
  7 10  2  0  0  0  0
  7 20  1  0  0  0  0
  8 25  1  0  0  0  0
  9 25  2  0  0  0  0
 10 26  1  0  0  0  0
 11 12  2  0  0  0  0
 11 27  1  0  0  0  0
 12 28  1  0  0  0  0
 13 22  1  0  0  0  0
 13 26  2  0  0  0  0
 14 24  1  0  0  0  0
 14 31  2  0  0  0  0
 15 28  2  0  0  0  0
 15 29  1  0  0  0  0
 16 23  1  0  0  0  0
 16 66  2  0  0  0  0
 17 30  1  0  0  0  0
 18 30  1  0  0  0  0
 18 32  2  0  0  0  0
 18 33  1  0  0  0  0
 19 21  2  0  0  0  0
 19 38  1  0  0  0  0
 20 22  2  0  0  0  0
 20 39  1  0  0  0  0
 21 49  1  0  0  0  0
 22 40  1  0  0  0  0
 23 24  2  0  0  0  0
 23 48  1  0  0  0  0
 24 53  1  0  0  0  0
 25 83  1  0  0  0  0
 26 84  1  0  0  0  0
 27 29  2  0  0  0  0
 27 83  1  0  0  0  0
 28 85  1  0  0  0  0
 29 86  1  0  0  0  0
 30 67  2  0  0  0  0
 31 66  1  0  0  0  0
 31 73  1  0  0  0  0
 32 68  1  0  0  0  0
 32 71  1  0  0  0  0
 33 72  1  0  0  0  0
 33 78  2  0  0  0  0
 34 50  1  0  0  0  0
 34 74  1  0  0  0  0
 34 79  2  0  0  0  0
 35 62  1  0  0  0  0
 35 69  1  0  0  0  0
 35 80  2  0  0  0  0
 36 63  1  0  0  0  0
 36 75  1  0  0  0  0
 36 81  2  0  0  0  0
 37 70  1  0  0  0  0
 37 73  1  0  0  0  0
 37 82  2  0  0  0  0
 38 41  1  0  0  0  0
 39 50  1  0  0  0  0
 40 69  1  0  0  0  0
 41 43  1  0  0  0  0
 42 44  1  0  0  0  0
 42 46  1  0  0  0  0
 43 49  1  0  0  0  0
 44 52  1  0  0  0  0
 45 48  1  0  0  0  0
 45 51  1  0  0  0  0
 46 70  1  0  0  0  0
 47 52  1  0  0  0  0
 47 70  1  0  0  0  0
 48 51  1  0  0  0  0
 49 74  1  0  0  0  0
 50 69  1  0  0  0  0
 51 64  1  0  0  0  0
 52 68  1  0  0  0  0
 54 63  1  0  0  0  0
 55 64  1  0  0  0  0
 56 65  1  0  0  0  0
 57 65  1  0  0  0  0
 58 65  1  0  0  0  0
 59 76  1  0  0  0  0
 60 61  1  0  0  0  0
 60 77  1  0  0  0  0
 61 84  1  0  0  0  0
 62 65  1  0  0  0  0
 62 75  1  0  0  0  0
 63 76  1  0  0  0  0
 64 77  1  0  0  0  0
 67 68  1  0  0  0  0
M  CHG  2  76   1  77   1
M  ISO  4  37 100  61 101  73 100  84 101
M  END
> <Batch ID>
0175

> <Smiles>
CNC(C)C(=O)NC(C(=O)N1Cc2cc([101O:1][101CH2:1]CNC(C)C3CC3c3cnc([100NH:0][100C:0](=O)N4CCCC(n5nc(-c6ccc(Oc7ccc(F)cc7F)cc6)c(C(N)=O)c5N)C4)cc3C)ccc2CC1C(=O)NC1CCCc2ccccc21)C(C)(C)C

> <Shape>
0.246

> <Color>
0.070

> <Negative vol penalty>
0.000

$$$$

  -OEChem-04052322473D

 85 94  0     1  0  0  0  0  0999 V2000
  -28.4467  -34.7889   24.1233 C   0  0  0  0  0  0  0  0  0  0  0  0
  -28.5594  -33.4514   23.7577 C   0  0  0  0  0  0  0  0  0  0  0  0
  -27.2232  -12.9055   25.3798 C   0  0  0  0  0  0  0  0  0  0  0  0
  -24.8952  -12.2602   25.4120 C   0  0  0  0  0  0  0  0  0  0  0  0
  -27.2315  -35.2807   24.5978 C   0  0  0  0  0  0  0  0  0  0  0  0
  -27.4570  -32.6045   23.8673 C   0  0  0  0  0  0  0  0  0  0  0  0
  -26.8523  -29.6646   19.7885 C   0  0  0  0  0  0  0  0  0  0  0  0
  -27.4699  -12.0701   26.4692 C   0  0  0  0  0  0  0  0  0  0  0  0
  -25.1419  -11.4247   26.5014 C   0  0  0  0  0  0  0  0  0  0  0  0
  -27.6860  -28.5529   19.6757 C   0  0  0  0  0  0  0  0  0  0  0  0
  -25.5635  -11.7441   29.8407 C   0  0  0  0  0  0  0  0  0  0  0  0
  -24.6622  -11.7832   30.9045 C   0  0  0  0  0  0  0  0  0  0  0  0
  -25.9085  -27.1441   20.4972 C   0  0  0  0  0  0  0  0  0  0  0  0
  -24.1818   -9.4373   30.5838 C   0  0  0  0  0  0  0  0  0  0  0  0
  -25.9358  -13.0006   24.8512 C   0  0  0  0  0  0  0  0  0  0  0  0
  -25.7548  -13.5264   22.3616 C   0  0  0  0  0  0  0  0  0  0  0  0
  -26.1110  -34.4417   24.7042 C   0  0  0  0  0  0  0  0  0  0  0  0
  -25.5417  -29.5258   20.2677 C   0  0  0  0  0  0  0  0  0  0  0  0
  -26.2259  -33.0852   24.3449 C   0  0  0  0  0  0  0  0  0  0  0  0
  -25.0593  -28.2553   20.6128 C   0  0  0  0  0  0  0  0  0  0  0  0
  -26.4292  -11.3297   27.0300 C   0  0  0  0  0  0  0  0  0  0  0  0
  -27.2151  -27.2928   20.0328 C   0  0  0  0  0  0  0  0  0  0  0  0
  -25.7739  -10.5516   29.1483 C   0  0  0  0  0  0  0  0  0  0  0  0
  -23.9714  -10.6298   31.2761 C   0  0  0  0  0  0  0  0  0  0  0  0
  -25.0831   -9.3982   29.5199 C   0  0  0  0  0  0  0  0  0  0  0  0
  -25.6803  -13.8639   23.7262 C   0  0  0  0  0  0  0  0  0  0  0  0
  -29.9979  -22.8464   19.3291 C   0  0  0  0  0  0  0  0  0  0  0  0
  -31.3665  -22.7997   19.1800 C   0  0  0  0  0  0  0  0  0  0  0  0
  -31.4461  -25.0852   19.1965 C   0  0  0  0  0  0  0  0  0  0  0  0
  -30.0774  -25.1317   19.3448 C   0  0  0  0  0  0  0  0  0  0  0  0
  -25.4236  -14.6852   21.7027 C   0  0  0  0  0  0  0  0  0  0  0  0
  -26.0930  -12.2772   21.7446 C   0  0  0  0  0  0  0  0  0  0  0  0
  -23.9408  -30.6414   22.7769 C   0  0  0  0  0  0  0  0  0  0  0  0
  -21.4231  -29.2113   21.3146 C   0  0  0  0  0  0  0  0  0  0  0  0
  -20.3052  -26.8227   19.1485 C   0  0  0  0  0  0  0  0  0  0  0  0
  -25.6766  -20.1110   20.9833 C   0  0  0  0  0  0  0  0  0  0  0  0
  -24.8313  -35.0076   25.2672 C   0  0  0  0  0  0  0  0  0  0  0  0
  -24.6463  -30.7310   20.3582 C   0  0  0  0  0  0  0  0  0  0  0  0
  -23.6538  -28.0497   21.1134 C   0  0  0  0  0  0  0  0  0  0  0  0
  -23.6090  -34.1331   24.9994 C   0  0  0  0  0  0  0  0  0  0  0  0
  -23.4805  -19.0198   23.4194 C   0  0  0  0  0  0  0  0  0  0  0  0
  -23.9171  -32.6733   25.3171 C   0  0  0  0  0  0  0  0  0  0  0  0
  -23.8532  -17.5501   23.6127 C   0  0  0  0  0  0  0  0  0  0  0  0
  -29.0562  -21.0475   20.8453 C   0  0  0  0  0  0  0  0  0  0  0  0
  -27.7687  -21.7689   18.7882 C   0  0  0  0  0  0  0  0  0  0  0  0
  -24.7270  -19.8823   23.2585 C   0  0  0  0  0  0  0  0  0  0  0  0
  -28.1890  -19.7875   20.9192 C   0  0  0  0  0  0  0  0  0  0  0  0
  -26.9524  -20.4841   18.8948 C   0  0  0  0  0  0  0  0  0  0  0  0
  -26.0017  -17.9813   22.3208 C   0  0  0  0  0  0  0  0  0  0  0  0
  -25.0460  -32.1412   24.4262 C   0  0  1  0  0  0  0  0  0  0  0  0
  -29.1664  -21.5797   19.4051 C   0  0  0  0  0  0  0  0  0  0  0  0
  -23.4968  -30.5486   21.3444 C   0  0  1  0  0  0  0  0  0  0  0  0
  -24.7753  -17.0602   22.4821 C   0  0  1  0  0  0  0  0  0  0  0  0
  -32.0942  -21.5023   19.0861 C   0  0  0  0  0  0  0  0  0  0  0  0
  -32.2628  -26.3298   19.1221 C   0  0  0  0  0  0  0  0  0  0  0  0
  -18.1926  -25.8691   18.1867 C   0  0  0  0  0  0  0  0  0  0  0  0
  -20.8956  -27.7421   23.9362 C   0  0  0  0  0  0  0  0  0  0  0  0
  -19.4327  -26.1528   22.6704 C   0  0  0  0  0  0  0  0  0  0  0  0
  -18.8427  -28.5743   22.7753 C   0  0  0  0  0  0  0  0  0  0  0  0
  -21.0938  -27.5527   16.3910 C   0  0  0  0  0  0  0  0  0  0  0  0
  -29.3494  -26.4291   19.4374 C   0  0  0  0  0  0  0  0  0  1  0  0
  -20.8017  -27.8362   21.3578 C   0  0  1  0  0  0  0  0  0  0  0  0
  -19.3083  -26.8866   18.0055 C   0  0  2  0  0  0  0  0  0  0  0  0
  -20.0203  -27.5801   22.6774 C   0  0  0  0  0  0  0  0  0  0  0  0
  -25.3295  -15.1374   23.9241 N   0  0  0  0  0  0  0  0  0  0  0  0
  -29.3288  -24.0132   19.4141 N   0  0  0  0  0  0  0  0  0  0  0  0
  -32.1152  -23.9183   19.1111 N   0  0  0  0  0  0  0  0  0  0  0  0
  -25.1807  -15.6104   22.6750 N   0  0  0  0  0  0  0  0  0  0  0  0
  -22.8188  -29.2599   21.1902 N   0  0  0  0  0  0  0  0  0  0  0  0
  -25.5777  -19.3828   22.1785 N   0  0  0  0  0  0  0  0  0  0  0  0
  -26.8862  -20.0157   20.2788 N   0  0  0  0  0  0  0  0  0  0  0  0
  -25.3195  -14.9928   20.3924 N   0  0  0  0  0  0  0  0  0  0  0  0
  -26.4071  -11.1882   22.5691 N   0  0  0  0  0  0  0  0  0  0  0  0
  -24.5456  -31.8406   23.1019 N   0  0  0  0  0  0  0  0  0  0  0  0
  -19.9913  -27.7163   20.1506 N   0  0  0  0  0  0  0  0  0  0  0  0
  -19.9889  -26.6118   16.7085 N   0  3  0  0  0  0  0  0  0  0  0  0
  -26.1321  -12.1354   20.4988 O   0  0  0  0  0  0  0  0  0  0  0  0
  -23.7475  -29.6957   23.5318 O   0  0  0  0  0  0  0  0  0  0  0  0
  -20.6963  -30.2057   21.3813 O   0  0  0  0  0  0  0  0  0  0  0  0
  -21.2642  -26.0541   19.1537 O   0  0  0  0  0  0  0  0  0  0  0  0
  -24.7397  -20.8050   20.5690 O   0  0  0  0  0  0  0  0  0  0  0  0
  -26.6696  -10.5142   28.0929 O   0  0  0  0  0  0  0  0  0  0  0  0
  -28.0325  -26.1987   19.9236 O   0  0  0  0  0  0  0  0  0  1  0  0
  -23.1071  -10.6672   32.2987 F   0  0  0  0  0  0  0  0  0  0  0  0
  -25.2819   -8.2493   28.8593 F   0  0  0  0  0  0  0  0  0  0  0  0
  1  2  1  0  0  0  0
  1  5  2  0  0  0  0
  2  6  2  0  0  0  0
  3  8  2  0  0  0  0
  3 15  1  0  0  0  0
  4  9  1  0  0  0  0
  4 15  2  0  0  0  0
  5 17  1  0  0  0  0
  6 19  1  0  0  0  0
  7 10  2  0  0  0  0
  7 18  1  0  0  0  0
  8 21  1  0  0  0  0
  9 21  2  0  0  0  0
 10 22  1  0  0  0  0
 11 12  2  0  0  0  0
 11 23  1  0  0  0  0
 12 24  1  0  0  0  0
 13 20  1  0  0  0  0
 13 22  2  0  0  0  0
 14 24  2  0  0  0  0
 14 25  1  0  0  0  0
 15 26  1  0  0  0  0
 16 26  1  0  0  0  0
 16 31  2  0  0  0  0
 16 32  1  0  0  0  0
 17 19  2  0  0  0  0
 17 37  1  0  0  0  0
 18 20  2  0  0  0  0
 18 38  1  0  0  0  0
 19 50  1  0  0  0  0
 20 39  1  0  0  0  0
 21 82  1  0  0  0  0
 22 83  1  0  0  0  0
 23 25  2  0  0  0  0
 23 82  1  0  0  0  0
 24 84  1  0  0  0  0
 25 85  1  0  0  0  0
 26 65  2  0  0  0  0
 27 28  1  0  0  0  0
 27 51  1  0  0  0  0
 27 66  2  0  0  0  0
 28 54  1  0  0  0  0
 28 67  2  0  0  0  0
 29 30  2  0  0  0  0
 29 55  1  0  0  0  0
 29 67  1  0  0  0  0
 30 61  1  0  0  0  0
 30 66  1  0  0  0  0
 31 68  1  0  0  0  0
 31 72  1  0  0  0  0
 32 73  1  0  0  0  0
 32 77  2  0  0  0  0
 33 52  1  0  0  0  0
 33 74  1  0  0  0  0
 33 78  2  0  0  0  0
 34 62  1  0  0  0  0
 34 69  1  0  0  0  0
 34 79  2  0  0  0  0
 35 63  1  0  0  0  0
 35 75  1  0  0  0  0
 35 80  2  0  0  0  0
 36 70  1  0  0  0  0
 36 71  1  0  0  0  0
 36 81  2  0  0  0  0
 37 40  1  0  0  0  0
 38 52  1  0  0  0  0
 39 69  1  0  0  0  0
 40 42  1  0  0  0  0
 41 43  1  0  0  0  0
 41 46  1  0  0  0  0
 42 50  1  0  0  0  0
 43 53  1  0  0  0  0
 44 47  1  0  0  0  0
 44 51  1  0  0  0  0
 45 48  1  0  0  0  0
 45 51  1  0  0  0  0
 46 70  1  0  0  0  0
 47 71  1  0  0  0  0
 48 71  1  0  0  0  0
 49 53  1  0  0  0  0
 49 70  1  0  0  0  0
 50 74  1  0  0  0  0
 52 69  1  0  0  0  0
 53 68  1  0  0  0  0
 56 63  1  0  0  0  0
 57 64  1  0  0  0  0
 58 64  1  0  0  0  0
 59 64  1  0  0  0  0
 60 76  1  0  0  0  0
 61 83  1  0  0  0  0
 62 64  1  0  0  0  0
 62 75  1  0  0  0  0
 63 76  1  0  0  0  0
 65 68  1  0  0  0  0
M  CHG  1  76   1
M  ISO  4  36 100  61 101  71 100  83 101
M  END
> <Batch ID>
0175

> <Smiles>
CNC(C)C(=O)NC(C(=O)N1Cc2cc([101O:1][101CH2:1]c3nc(C4CC[100N:0]([100C:0](=O)N5CCCC(n6nc(-c7ccc(Oc8ccc(F)cc8F)cc7)c(C(N)=O)c6N)C5)CC4)c(C)nc3C)ccc2CC1C(=O)NC1CCCc2ccccc21)C(C)(C)C

> <Shape>
0.229

> <Color>
0.105

> <Negative vol penalty>
0.000

$$$$

  -OEChem-04052322473D

 83 92  0     1  0  0  0  0  0999 V2000
  -16.2676  -27.0513   24.8302 C   0  0  0  0  0  0  0  0  0  0  0  0
  -17.2620  -26.0813   24.9044 C   0  0  0  0  0  0  0  0  0  0  0  0
  -23.1453   -9.8163   21.4206 C   0  0  0  0  0  0  0  0  0  0  0  0
  -23.9183  -10.6933   23.5349 C   0  0  0  0  0  0  0  0  0  0  0  0
  -16.4779  -28.2077   24.0803 C   0  0  0  0  0  0  0  0  0  0  0  0
  -18.4672  -26.2667   24.2279 C   0  0  0  0  0  0  0  0  0  0  0  0
  -24.0277  -24.4591   26.0496 C   0  0  0  0  0  0  0  0  0  0  0  0
  -22.4499   -8.8107   22.0919 C   0  0  0  0  0  0  0  0  0  0  0  0
  -23.2229   -9.6877   24.2063 C   0  0  0  0  0  0  0  0  0  0  0  0
  -24.8085  -23.3517   25.7209 C   0  0  0  0  0  0  0  0  0  0  0  0
  -23.1569   -5.8544   23.5700 C   0  0  0  0  0  0  0  0  0  0  0  0
  -23.2594   -4.5547   23.0743 C   0  0  0  0  0  0  0  0  0  0  0  0
  -25.9766  -24.6717   24.0741 C   0  0  0  0  0  0  0  0  0  0  0  0
  -29.8275  -19.5827   23.8217 C   0  0  0  0  0  0  0  0  0  0  0  0
  -20.8680   -4.4955   22.7351 C   0  0  0  0  0  0  0  0  0  0  0  0
  -23.8795  -10.7576   22.1420 C   0  0  0  0  0  0  0  0  0  0  0  0
  -24.1189  -13.0718   21.0956 C   0  0  0  0  0  0  0  0  0  0  0  0
  -17.6900  -28.4118   23.4021 C   0  0  0  0  0  0  0  0  0  0  0  0
  -24.2084  -25.6801   25.3842 C   0  0  0  0  0  0  0  0  0  0  0  0
  -18.6934  -27.4263   23.4671 C   0  0  0  0  0  0  0  0  0  0  0  0
  -25.1986  -25.7938   24.3979 C   0  0  0  0  0  0  0  0  0  0  0  0
  -29.1828  -20.7917   24.0586 C   0  0  0  0  0  0  0  0  0  0  0  0
  -28.2339  -21.2559   23.1545 C   0  0  0  0  0  0  0  0  0  0  0  0
  -22.4887   -8.7464   23.4848 C   0  0  0  0  0  0  0  0  0  0  0  0
  -25.7811  -23.4572   24.7310 C   0  0  0  0  0  0  0  0  0  0  0  0
  -21.9100   -6.4747   23.6485 C   0  0  0  0  0  0  0  0  0  0  0  0
  -22.1149   -3.8752   22.6568 C   0  0  0  0  0  0  0  0  0  0  0  0
  -20.7656   -5.7953   23.2310 C   0  0  0  0  0  0  0  0  0  0  0  0
  -24.5986  -11.7963   21.4491 C   0  0  0  0  0  0  0  0  0  0  0  0
  -29.4902  -18.8815   22.6753 C   0  0  0  0  0  0  0  0  0  0  0  0
  -27.9681  -20.4799   22.0378 C   0  0  0  0  0  0  0  0  0  0  0  0
  -25.1778  -13.6729   20.4601 C   0  0  0  0  0  0  0  0  0  0  0  0
  -22.8313  -13.6606   21.3216 C   0  0  0  0  0  0  0  0  0  0  0  0
  -22.3864  -27.5228   23.5434 C   0  0  0  0  0  0  0  0  0  0  0  0
  -24.9091  -29.5517   23.7477 C   0  0  0  0  0  0  0  0  0  0  0  0
  -28.2527  -29.9720   24.2869 C   0  0  0  0  0  0  0  0  0  0  0  0
  -30.7037  -14.8181   20.3565 C   0  0  0  0  0  0  0  0  0  0  0  0
  -17.8532  -29.6561   22.5656 C   0  0  0  0  0  0  0  0  0  0  0  0
  -23.3763  -26.8725   25.7690 C   0  0  0  0  0  0  0  0  0  0  0  0
  -25.4461  -27.0878   23.6680 C   0  0  0  0  0  0  0  0  0  0  0  0
  -19.3021  -29.9477   22.1837 C   0  0  0  0  0  0  0  0  0  0  0  0
  -29.5443  -11.7906   18.7999 C   0  0  0  0  0  0  0  0  0  0  0  0
  -19.9861  -28.6814   21.6784 C   0  0  0  0  0  0  0  0  0  0  0  0
  -28.1394  -11.5928   19.3594 C   0  0  0  0  0  0  0  0  0  0  0  0
  -30.4615  -12.4172   19.8416 C   0  0  0  0  0  0  0  0  0  0  0  0
  -29.2325  -16.2945   21.9425 C   0  0  0  0  0  0  0  0  0  0  0  0
  -30.7513  -17.3173   20.8747 C   0  0  0  0  0  0  0  0  0  0  0  0
  -28.5428  -13.5730   20.9078 C   0  0  0  0  0  0  0  0  0  0  0  0
  -20.0237  -27.6025   22.7675 C   0  0  1  0  0  0  0  0  0  0  0  0
  -30.1494  -17.4928   22.2879 C   0  0  0  0  0  0  0  0  0  0  0  0
  -23.2970  -27.9261   24.6685 C   0  0  1  0  0  0  0  0  0  0  0  0
  -27.5825  -12.9201   19.8939 C   0  0  2  0  0  0  0  0  0  0  0  0
  -29.5253  -21.5696   25.2860 C   0  0  0  0  0  0  0  0  0  0  0  0
  -26.9590  -20.9274   21.0312 C   0  0  0  0  0  0  0  0  0  0  0  0
  -30.0306  -31.7419   24.3504 C   0  0  0  0  0  0  0  0  0  0  0  0
  -24.9160  -29.6508   20.6981 C   0  0  0  0  0  0  0  0  0  0  0  0
  -27.2214  -30.6216   20.8043 C   0  0  0  0  0  0  0  0  0  0  0  0
  -25.3028  -31.8551   21.8144 C   0  0  0  0  0  0  0  0  0  0  0  0
  -28.8652  -29.4186   27.1290 C   0  0  0  0  0  0  0  0  0  0  0  0
  -27.5221  -22.5567   23.3841 C   0  0  0  0  0  0  0  0  0  1  0  0
  -26.1723  -29.7705   22.9505 C   0  0  1  0  0  0  0  0  0  0  0  0
  -29.0169  -30.9497   25.1613 C   0  0  2  0  0  0  0  0  0  0  0  0
  -25.8974  -30.4494   21.5791 C   0  0  0  0  0  0  0  0  0  0  0  0
  -25.8637  -11.5978   21.0695 N   0  0  0  0  0  0  0  0  0  0  0  0
  -28.5738  -19.3005   21.7740 N   0  0  0  0  0  0  0  0  0  0  0  0
  -26.1879  -12.7565   20.4708 N   0  0  0  0  0  0  0  0  0  0  0  0
  -24.6024  -28.2234   24.0756 N   0  0  0  0  0  0  0  0  0  0  0  0
  -29.9121  -13.6644   20.3820 N   0  0  0  0  0  0  0  0  0  0  0  0
  -30.1887  -15.9727   20.8969 N   0  0  0  0  0  0  0  0  0  0  0  0
  -25.3340  -14.8906   19.8987 N   0  0  0  0  0  0  0  0  0  0  0  0
  -21.8588  -12.9043   21.9900 N   0  0  0  0  0  0  0  0  0  0  0  0
  -21.0672  -27.8902   23.7281 N   0  0  0  0  0  0  0  0  0  0  0  0
  -27.0772  -30.5184   23.8167 N   0  0  0  0  0  0  0  0  0  0  0  0
  -29.7435  -30.2215   26.2396 N   0  3  0  0  0  0  0  0  0  0  0  0
  -22.5461  -14.8168   20.9276 O   0  0  0  0  0  0  0  0  0  0  0  0
  -22.8469  -26.9240   22.5785 O   0  0  0  0  0  0  0  0  0  0  0  0
  -24.2237  -30.5240   24.0738 O   0  0  0  0  0  0  0  0  0  0  0  0
  -28.6598  -28.8385   24.0421 O   0  0  0  0  0  0  0  0  0  0  0  0
  -31.8512  -14.8126   19.8913 O   0  0  0  0  0  0  0  0  0  0  0  0
  -21.8100   -7.7654   24.1402 O   0  0  0  0  0  0  0  0  0  0  0  0
  -26.5441  -22.3777   24.4079 O   0  0  0  0  0  0  0  0  0  1  0  0
  -22.2137   -2.6277   22.1792 F   0  0  0  0  0  0  0  0  0  0  0  0
  -19.5651   -6.3864   23.3028 F   0  0  0  0  0  0  0  0  0  0  0  0
  1  2  1  0  0  0  0
  1  5  2  0  0  0  0
  2  6  2  0  0  0  0
  3  8  2  0  0  0  0
  3 16  1  0  0  0  0
  4  9  1  0  0  0  0
  4 16  2  0  0  0  0
  5 18  1  0  0  0  0
  6 20  1  0  0  0  0
  7 10  2  0  0  0  0
  7 19  1  0  0  0  0
  8 24  1  0  0  0  0
  9 24  2  0  0  0  0
 10 25  1  0  0  0  0
 11 12  2  0  0  0  0
 11 26  1  0  0  0  0
 12 27  1  0  0  0  0
 13 21  1  0  0  0  0
 13 25  2  0  0  0  0
 14 22  2  0  0  0  0
 14 30  1  0  0  0  0
 15 27  2  0  0  0  0
 15 28  1  0  0  0  0
 16 29  1  0  0  0  0
 17 29  1  0  0  0  0
 17 32  2  0  0  0  0
 17 33  1  0  0  0  0
 18 20  2  0  0  0  0
 18 38  1  0  0  0  0
 19 21  2  0  0  0  0
 19 39  1  0  0  0  0
 20 49  1  0  0  0  0
 21 40  1  0  0  0  0
 22 23  1  0  0  0  0
 22 53  1  0  0  0  0
 23 31  2  0  0  0  0
 23 60  1  0  0  0  0
 24 80  1  0  0  0  0
 25 81  1  0  0  0  0
 26 28  2  0  0  0  0
 26 80  1  0  0  0  0
 27 82  1  0  0  0  0
 28 83  1  0  0  0  0
 29 64  2  0  0  0  0
 30 50  1  0  0  0  0
 30 65  2  0  0  0  0
 31 54  1  0  0  0  0
 31 65  1  0  0  0  0
 32 66  1  0  0  0  0
 32 70  1  0  0  0  0
 33 71  1  0  0  0  0
 33 75  2  0  0  0  0
 34 51  1  0  0  0  0
 34 72  1  0  0  0  0
 34 76  2  0  0  0  0
 35 61  1  0  0  0  0
 35 67  1  0  0  0  0
 35 77  2  0  0  0  0
 36 62  1  0  0  0  0
 36 73  1  0  0  0  0
 36 78  2  0  0  0  0
 37 68  1  0  0  0  0
 37 69  1  0  0  0  0
 37 79  2  0  0  0  0
 38 41  1  0  0  0  0
 39 51  1  0  0  0  0
 40 67  1  0  0  0  0
 41 43  1  0  0  0  0
 42 44  1  0  0  0  0
 42 45  1  0  0  0  0
 43 49  1  0  0  0  0
 44 52  1  0  0  0  0
 45 68  1  0  0  0  0
 46 50  1  0  0  0  0
 46 69  1  0  0  0  0
 47 50  1  0  0  0  0
 47 69  1  0  0  0  0
 48 52  1  0  0  0  0
 48 68  1  0  0  0  0
 49 72  1  0  0  0  0
 51 67  1  0  0  0  0
 52 66  1  0  0  0  0
 55 62  1  0  0  0  0
 56 63  1  0  0  0  0
 57 63  1  0  0  0  0
 58 63  1  0  0  0  0
 59 74  1  0  0  0  0
 60 81  1  0  0  0  0
 61 63  1  0  0  0  0
 61 73  1  0  0  0  0
 62 74  1  0  0  0  0
 64 66  1  0  0  0  0
M  CHG  1  74   1
M  ISO  4  37 100  60 101  69 100  81 101
M  END
> <Batch ID>
0175

> <Smiles>
CNC(C)C(=O)NC(C(=O)N1Cc2cc([101O:1][101CH2:1]c3c(C)cc(C4C[100N:0]([100C:0](=O)N5CCCC(n6nc(-c7ccc(Oc8ccc(F)cc8F)cc7)c(C(N)=O)c6N)C5)C4)nc3C)ccc2CC1C(=O)NC1CCCc2ccccc21)C(C)(C)C

> <Shape>
0.285

> <Color>
0.171

> <Negative vol penalty>
0.000

$$$$

  -OEChem-04052322473D

 84 93  0     1  0  0  0  0  0999 V2000
  -24.6940  -31.8012   26.2048 C   0  0  0  0  0  0  0  0  0  0  0  0
  -24.4047  -32.2206   24.9112 C   0  0  0  0  0  0  0  0  0  0  0  0
  -24.6168  -15.5214   21.3054 C   0  0  0  0  0  0  0  0  0  0  0  0
  -25.3209  -13.5328   22.4829 C   0  0  0  0  0  0  0  0  0  0  0  0
  -25.9334  -31.2312   26.4878 C   0  0  0  0  0  0  0  0  0  0  0  0
  -25.3500  -32.0592   23.8977 C   0  0  0  0  0  0  0  0  0  0  0  0
  -28.9002  -18.4425   21.0502 C   0  0  0  0  0  0  0  0  0  0  0  0
  -28.2546  -26.6005   19.3129 C   0  0  0  0  0  0  0  0  0  0  0  0
  -28.6950  -18.8497   19.7320 C   0  0  0  0  0  0  0  0  0  0  0  0
  -25.3260  -15.1053   20.1786 C   0  0  0  0  0  0  0  0  0  0  0  0
  -26.0301  -13.1167   21.3562 C   0  0  0  0  0  0  0  0  0  0  0  0
  -28.4467  -25.2456   19.5798 C   0  0  0  0  0  0  0  0  0  0  0  0
  -28.3203  -11.7056   18.9120 C   0  0  0  0  0  0  0  0  0  0  0  0
  -29.6113  -11.2136   19.1037 C   0  0  0  0  0  0  0  0  0  0  0  0
  -26.2800  -25.1529   20.6364 C   0  0  0  0  0  0  0  0  0  0  0  0
  -30.2757  -13.3299   20.0612 C   0  0  0  0  0  0  0  0  0  0  0  0
  -24.6143  -14.7351   22.4576 C   0  0  0  0  0  0  0  0  0  0  0  0
  -22.5410  -14.8761   23.9372 C   0  0  0  0  0  0  0  0  0  0  0  0
  -26.8985  -31.0746   25.4794 C   0  0  0  0  0  0  0  0  0  0  0  0
  -27.0765  -27.2454   19.7160 C   0  0  0  0  0  0  0  0  0  0  0  0
  -26.5977  -31.4643   24.1584 C   0  0  0  0  0  0  0  0  0  0  0  0
  -29.0957  -19.3937   22.0516 C   0  0  0  0  0  0  0  0  0  0  0  0
  -26.0744  -26.5154   20.3711 C   0  0  0  0  0  0  0  0  0  0  0  0
  -28.6854  -20.2081   19.4151 C   0  0  0  0  0  0  0  0  0  0  0  0
  -29.0861  -20.7521   21.7347 C   0  0  0  0  0  0  0  0  0  0  0  0
  -28.8810  -21.1593   20.4164 C   0  0  0  0  0  0  0  0  0  0  0  0
  -26.0326  -13.9030   20.2040 C   0  0  0  0  0  0  0  0  0  0  0  0
  -27.4605  -24.5223   20.2443 C   0  0  0  0  0  0  0  0  0  0  0  0
  -28.0069  -13.0098   19.2949 C   0  0  0  0  0  0  0  0  0  0  0  0
  -30.5890  -12.0257   19.6783 C   0  0  0  0  0  0  0  0  0  0  0  0
  -28.9846  -13.8219   19.8695 C   0  0  0  0  0  0  0  0  0  0  0  0
  -23.8824  -15.1646   23.6220 C   0  0  0  0  0  0  0  0  0  0  0  0
  -22.3264  -15.5094   25.1369 C   0  0  0  0  0  0  0  0  0  0  0  0
  -21.5755  -14.1045   23.2106 C   0  0  0  0  0  0  0  0  0  0  0  0
  -26.3942  -29.6460   21.6845 C   0  0  0  0  0  0  0  0  0  0  0  0
  -23.3975  -29.2437   20.5096 C   0  0  0  0  0  0  0  0  0  0  0  0
  -21.1174  -27.1773   19.0340 C   0  0  0  0  0  0  0  0  0  0  0  0
  -27.5105  -17.1360   26.2486 C   0  0  0  0  0  0  0  0  0  0  0  0
  -28.2208  -30.4443   25.8395 C   0  0  0  0  0  0  0  0  0  0  0  0
  -26.8732  -28.7011   19.3968 C   0  0  0  0  0  0  0  0  0  0  0  0
  -24.7829  -27.1562   20.8068 C   0  0  0  0  0  0  0  0  0  0  0  0
  -29.3111  -30.7205   24.8094 C   0  0  0  0  0  0  0  0  0  0  0  0
  -24.4824  -19.3789   27.0128 C   0  0  0  0  0  0  0  0  0  0  0  0
  -28.7964  -30.4102   23.4117 C   0  0  0  0  0  0  0  0  0  0  0  0
  -23.4076  -18.4279   26.5031 C   0  0  0  0  0  0  0  0  0  0  0  0
  -29.9830  -17.5571   23.5933 C   0  0  0  0  0  0  0  0  0  0  0  0
  -25.8264  -19.0577   26.3653 C   0  0  0  0  0  0  0  0  0  0  0  0
  -29.6472  -17.1538   25.0193 C   0  0  0  0  0  0  0  0  0  0  0  0
  -28.0304  -18.7641   24.2937 C   0  0  0  0  0  0  0  0  0  0  0  0
  -25.2611  -16.7715   27.1684 C   0  0  0  0  0  0  0  0  0  0  0  0
  -29.3149  -18.9264   23.4686 C   0  0  2  0  0  0  0  0  0  0  0  0
  -27.6219  -31.3268   23.0464 C   0  0  1  0  0  0  0  0  0  0  0  0
  -25.8535  -29.3761   20.3089 C   0  0  1  0  0  0  0  0  0  0  0  0
  -23.8076  -16.9521   26.6887 C   0  0  2  0  0  0  0  0  0  0  0  0
  -28.4655  -20.6171   17.9952 C   0  0  0  0  0  0  0  0  0  0  0  0
  -29.2948  -21.7700   22.8108 C   0  0  0  0  0  0  0  0  0  0  0  0
  -18.7402  -27.1197   18.2320 C   0  0  0  0  0  0  0  0  0  0  0  0
  -22.4323  -29.0128   23.3949 C   0  0  0  0  0  0  0  0  0  0  0  0
  -20.2984  -28.0304   22.5290 C   0  0  0  0  0  0  0  0  0  0  0  0
  -20.9434  -30.3568   21.9012 C   0  0  0  0  0  0  0  0  0  0  0  0
  -21.9489  -26.6301   16.2468 C   0  0  0  0  0  0  0  0  0  0  0  0
  -28.8719  -22.6157   20.0744 C   0  0  0  0  0  0  0  0  0  1  0  0
  -22.2012  -28.4078   20.8956 C   0  0  1  0  0  0  0  0  0  0  0  0
  -20.1887  -27.3833   17.8509 C   0  0  2  0  0  0  0  0  0  0  0  0
  -21.4939  -28.9400   22.1738 C   0  0  0  0  0  0  0  0  0  0  0  0
  -24.4778  -15.9224   24.5467 N   0  0  0  0  0  0  0  0  0  0  0  0
  -23.5061  -16.1155   25.4548 N   0  0  0  0  0  0  0  0  0  0  0  0
  -24.6339  -28.5833   20.4774 N   0  0  0  0  0  0  0  0  0  0  0  0
  -26.2282  -17.6524   26.4976 N   0  0  0  0  0  0  0  0  0  0  0  0
  -28.3252  -17.7227   25.2816 N   0  0  0  0  0  0  0  0  0  0  0  0
  -21.2454  -15.6015   25.9403 N   0  0  0  0  0  0  0  0  0  0  0  0
  -21.9625  -13.5229   21.9955 N   0  0  0  0  0  0  0  0  0  0  0  0
  -27.0307  -30.8662   21.8094 N   0  0  0  0  0  0  0  0  0  0  0  0
  -21.3435  -28.3538   19.7167 N   0  0  0  0  0  0  0  0  0  0  0  0
  -20.5565  -26.4637   16.7374 N   0  3  0  0  0  0  0  0  0  0  0  0
  -20.3994  -13.9493   23.6184 O   0  0  0  0  0  0  0  0  0  0  0  0
  -26.2438  -28.8099   22.5676 O   0  0  0  0  0  0  0  0  0  0  0  0
  -23.2398  -30.4369   20.2395 O   0  0  0  0  0  0  0  0  0  0  0  0
  -21.5916  -26.0816   19.3257 O   0  0  0  0  0  0  0  0  0  0  0  0
  -27.9162  -16.1420   26.8721 O   0  0  0  0  0  0  0  0  0  0  0  0
  -26.7245  -13.4966   19.1046 O   0  0  0  0  0  0  0  0  0  0  0  0
  -27.6471  -23.1901   20.5086 O   0  0  0  0  0  0  0  0  0  1  0  0
  -31.8283  -11.5526   19.8637 F   0  0  0  0  0  0  0  0  0  0  0  0
  -28.6893  -15.0753   20.2404 F   0  0  0  0  0  0  0  0  0  0  0  0
  1  2  1  0  0  0  0
  1  5  2  0  0  0  0
  2  6  2  0  0  0  0
  3 10  2  0  0  0  0
  3 17  1  0  0  0  0
  4 11  1  0  0  0  0
  4 17  2  0  0  0  0
  5 19  1  0  0  0  0
  6 21  1  0  0  0  0
  7  9  1  0  0  0  0
  7 22  2  0  0  0  0
  8 12  2  0  0  0  0
  8 20  1  0  0  0  0
  9 24  2  0  0  0  0
 10 27  1  0  0  0  0
 11 27  2  0  0  0  0
 12 28  1  0  0  0  0
 13 14  2  0  0  0  0
 13 29  1  0  0  0  0
 14 30  1  0  0  0  0
 15 23  1  0  0  0  0
 15 28  2  0  0  0  0
 16 30  2  0  0  0  0
 16 31  1  0  0  0  0
 17 32  1  0  0  0  0
 18 32  1  0  0  0  0
 18 33  2  0  0  0  0
 18 34  1  0  0  0  0
 19 21  2  0  0  0  0
 19 39  1  0  0  0  0
 20 23  2  0  0  0  0
 20 40  1  0  0  0  0
 21 52  1  0  0  0  0
 22 25  1  0  0  0  0
 22 51  1  0  0  0  0
 23 41  1  0  0  0  0
 24 26  1  0  0  0  0
 24 55  1  0  0  0  0
 25 26  2  0  0  0  0
 25 56  1  0  0  0  0
 26 62  1  0  0  0  0
 27 81  1  0  0  0  0
 28 82  1  0  0  0  0
 29 31  2  0  0  0  0
 29 81  1  0  0  0  0
 30 83  1  0  0  0  0
 31 84  1  0  0  0  0
 32 66  2  0  0  0  0
 33 67  1  0  0  0  0
 33 71  1  0  0  0  0
 34 72  1  0  0  0  0
 34 76  2  0  0  0  0
 35 53  1  0  0  0  0
 35 73  1  0  0  0  0
 35 77  2  0  0  0  0
 36 63  1  0  0  0  0
 36 68  1  0  0  0  0
 36 78  2  0  0  0  0
 37 64  1  0  0  0  0
 37 74  1  0  0  0  0
 37 79  2  0  0  0  0
 38 69  1  0  0  0  0
 38 70  1  0  0  0  0
 38 80  2  0  0  0  0
 39 42  1  0  0  0  0
 40 53  1  0  0  0  0
 41 68  1  0  0  0  0
 42 44  1  0  0  0  0
 43 45  1  0  0  0  0
 43 47  1  0  0  0  0
 44 52  1  0  0  0  0
 45 54  1  0  0  0  0
 46 48  1  0  0  0  0
 46 51  1  0  0  0  0
 47 69  1  0  0  0  0
 48 70  1  0  0  0  0
 49 51  1  0  0  0  0
 49 70  1  0  0  0  0
 50 54  1  0  0  0  0
 50 69  1  0  0  0  0
 52 73  1  0  0  0  0
 53 68  1  0  0  0  0
 54 67  1  0  0  0  0
 57 64  1  0  0  0  0
 58 65  1  0  0  0  0
 59 65  1  0  0  0  0
 60 65  1  0  0  0  0
 61 75  1  0  0  0  0
 62 82  1  0  0  0  0
 63 65  1  0  0  0  0
 63 74  1  0  0  0  0
 64 75  1  0  0  0  0
 66 67  1  0  0  0  0
M  CHG  1  75   1
M  ISO  4  38 100  62 101  70 100  82 101
M  END
> <Batch ID>
0175

> <Smiles>
CNC(C)C(=O)NC(C(=O)N1Cc2cc([101O:1][101CH2:1]c3c(C)ccc(C4CC[100N:0]([100C:0](=O)N5CCCC(n6nc(-c7ccc(Oc8ccc(F)cc8F)cc7)c(C(N)=O)c6N)C5)C4)c3C)ccc2CC1C(=O)NC1CCCc2ccccc21)C(C)(C)C

> <Shape>
0.273

> <Color>
0.046

> <Negative vol penalty>
0.000

$$$$

  -OEChem-04052322473D

 82 91  0     1  0  0  0  0  0999 V2000
  -17.5904  -26.2720   22.2817 C   0  0  0  0  0  0  0  0  0  0  0  0
  -18.8761  -25.7625   22.4329 C   0  0  0  0  0  0  0  0  0  0  0  0
  -23.7983  -13.7504   19.3438 C   0  0  0  0  0  0  0  0  0  0  0  0
  -24.9802  -14.6657   21.2419 C   0  0  0  0  0  0  0  0  0  0  0  0
  -17.4067  -27.5599   21.7803 C   0  0  0  0  0  0  0  0  0  0  0  0
  -19.9789  -26.5403   22.0817 C   0  0  0  0  0  0  0  0  0  0  0  0
  -25.4555  -26.6127   24.8218 C   0  0  0  0  0  0  0  0  0  0  0  0
  -29.0060  -23.1777   21.6695 C   0  0  0  0  0  0  0  0  0  0  0  0
  -24.2488  -12.4736   19.6790 C   0  0  0  0  0  0  0  0  0  0  0  0
  -25.4306  -13.3889   21.5771 C   0  0  0  0  0  0  0  0  0  0  0  0
  -26.6654  -25.9910   24.5163 C   0  0  0  0  0  0  0  0  0  0  0  0
  -24.7921   -8.9237   20.2427 C   0  0  0  0  0  0  0  0  0  0  0  0
  -23.8673   -7.8801   20.2090 C   0  0  0  0  0  0  0  0  0  0  0  0
  -28.2705  -22.2289   20.9679 C   0  0  0  0  0  0  0  0  0  0  0  0
  -27.4038  -27.9937   23.3924 C   0  0  0  0  0  0  0  0  0  0  0  0
  -22.5295   -9.0118   21.8723 C   0  0  0  0  0  0  0  0  0  0  0  0
  -24.1641  -14.8465   20.1252 C   0  0  0  0  0  0  0  0  0  0  0  0
  -22.5161  -16.7918   20.2144 C   0  0  0  0  0  0  0  0  0  0  0  0
  -18.5082  -28.3575   21.4319 C   0  0  0  0  0  0  0  0  0  0  0  0
  -25.2059  -27.9281   24.4047 C   0  0  0  0  0  0  0  0  0  0  0  0
  -19.8097  -27.8396   21.5740 C   0  0  0  0  0  0  0  0  0  0  0  0
  -29.4884  -24.3024   21.0095 C   0  0  0  0  0  0  0  0  0  0  0  0
  -26.1909  -28.6307   23.6961 C   0  0  0  0  0  0  0  0  0  0  0  0
  -25.0649  -12.2928   20.7957 C   0  0  0  0  0  0  0  0  0  0  0  0
  -27.6387  -26.6805   23.7990 C   0  0  0  0  0  0  0  0  0  0  0  0
  -24.5857  -10.0113   21.0914 C   0  0  0  0  0  0  0  0  0  0  0  0
  -22.7360   -7.9241   21.0237 C   0  0  0  0  0  0  0  0  0  0  0  0
  -23.4544  -10.0554   21.9061 C   0  0  0  0  0  0  0  0  0  0  0  0
  -23.6995  -16.1658   19.7791 C   0  0  0  0  0  0  0  0  0  0  0  0
  -29.2102  -24.4306   19.6582 C   0  0  0  0  0  0  0  0  0  0  0  0
  -28.0466  -22.4500   19.6185 C   0  0  0  0  0  0  0  0  0  0  0  0
  -22.5366  -18.0242   19.6085 C   0  0  0  0  0  0  0  0  0  0  0  0
  -21.4901  -16.3029   21.0885 C   0  0  0  0  0  0  0  0  0  0  0  0
  -23.0718  -29.3095   22.4965 C   0  0  0  0  0  0  0  0  0  0  0  0
  -24.4601  -32.0389   23.5666 C   0  0  0  0  0  0  0  0  0  0  0  0
  -27.2062  -33.5610   24.9042 C   0  0  0  0  0  0  0  0  0  0  0  0
  -26.9499  -21.4940   17.5619 C   0  0  0  0  0  0  0  0  0  0  0  0
  -18.2581  -29.7261   20.8496 C   0  0  0  0  0  0  0  0  0  0  0  0
  -23.9062  -28.5937   24.7653 C   0  0  0  0  0  0  0  0  0  0  0  0
  -25.9802  -30.0515   23.2429 C   0  0  0  0  0  0  0  0  0  0  0  0
  -19.4924  -30.6243   20.8531 C   0  0  0  0  0  0  0  0  0  0  0  0
  -24.1827  -20.2483   15.6997 C   0  0  0  0  0  0  0  0  0  0  0  0
  -20.7076  -29.8637   20.3319 C   0  0  0  0  0  0  0  0  0  0  0  0
  -23.6333  -19.1210   16.5770 C   0  0  0  0  0  0  0  0  0  0  0  0
  -31.6966  -25.6012   21.2911 C   0  0  0  0  0  0  0  0  0  0  0  0
  -31.4700  -24.8477   22.5643 C   0  0  0  0  0  0  0  0  0  0  0  0
  -25.7075  -20.3204   15.7580 C   0  0  0  0  0  0  0  0  0  0  0  0
  -25.7248  -19.2729   17.9876 C   0  0  0  0  0  0  0  0  0  0  0  0
  -21.0320  -28.6619   21.2275 C   0  0  1  0  0  0  0  0  0  0  0  0
  -23.5566  -29.7596   23.8456 C   0  0  1  0  0  0  0  0  0  0  0  0
  -24.1892  -19.2020   18.0123 C   0  0  2  0  0  0  0  0  0  0  0  0
  -30.2777  -25.3236   21.7540 C   0  0  0  0  0  0  0  0  0  0  0  0
  -29.7043  -25.6163   18.8956 C   0  0  0  0  0  0  0  0  0  0  0  0
  -28.0546  -35.8078   25.6318 C   0  0  0  0  0  0  0  0  0  0  0  0
  -24.8700  -32.8268   20.6475 C   0  0  0  0  0  0  0  0  0  0  0  0
  -26.5184  -34.5474   21.4160 C   0  0  0  0  0  0  0  0  0  0  0  0
  -24.1356  -34.6950   22.1391 C   0  0  0  0  0  0  0  0  0  0  0  0
  -27.5716  -32.6481   27.6956 C   0  0  0  0  0  0  0  0  0  0  0  0
  -29.4723  -26.4845   22.2972 C   0  0  0  0  0  0  0  0  0  1  0  0
  -25.6186  -32.8963   23.1175 C   0  0  1  0  0  0  0  0  0  0  0  0
  -27.3569  -34.5278   26.0648 C   0  0  2  0  0  0  0  0  0  0  0  0
  -25.2892  -33.7140   21.8367 C   0  0  0  0  0  0  0  0  0  0  0  0
  -24.4193  -16.9369   18.9597 N   0  0  0  0  0  0  0  0  0  0  0  0
  -28.4991  -23.5301   18.9432 N   0  0  0  0  0  0  0  0  0  0  0  0
  -23.6861  -18.0600   18.8753 N   0  0  0  0  0  0  0  0  0  0  0  0
  -24.6905  -30.6567   23.6144 N   0  0  0  0  0  0  0  0  0  0  0  0
  -26.1613  -20.3996   17.1482 N   0  0  0  0  0  0  0  0  0  0  0  0
  -21.6833  -19.0698   19.6365 N   0  0  0  0  0  0  0  0  0  0  0  0
  -21.6262  -15.0148   21.6239 N   0  0  0  0  0  0  0  0  0  0  0  0
  -27.2943  -21.4783   18.9131 N   0  0  0  0  0  0  0  0  0  0  0  0
  -21.7081  -29.0964   22.4310 N   0  0  0  0  0  0  0  0  0  0  0  0
  -25.9924  -33.7123   24.2676 N   0  0  0  0  0  0  0  0  0  0  0  0
  -28.1549  -33.9042   27.1581 N   0  3  0  0  0  0  0  0  0  0  0  0
  -20.4743  -16.9818   21.3729 O   0  0  0  0  0  0  0  0  0  0  0  0
  -23.8753  -29.1675   21.5822 O   0  0  0  0  0  0  0  0  0  0  0  0
  -23.3923  -32.5763   23.8710 O   0  0  0  0  0  0  0  0  0  0  0  0
  -28.0795  -32.7549   24.5910 O   0  0  0  0  0  0  0  0  0  0  0  0
  -27.2715  -22.3939   16.7817 O   0  0  0  0  0  0  0  0  0  0  0  0
  -25.5044  -11.0470   21.1232 O   0  0  0  0  0  0  0  0  0  0  0  0
  -28.8203  -26.0758   23.4990 O   0  0  0  0  0  0  0  0  0  1  0  0
  -21.8471   -6.9226   20.9900 F   0  0  0  0  0  0  0  0  0  0  0  0
  -23.2501  -11.0982   22.7226 F   0  0  0  0  0  0  0  0  0  0  0  0
  1  2  1  0  0  0  0
  1  5  2  0  0  0  0
  2  6  2  0  0  0  0
  3  9  2  0  0  0  0
  3 17  1  0  0  0  0
  4 10  1  0  0  0  0
  4 17  2  0  0  0  0
  5 19  1  0  0  0  0
  6 21  1  0  0  0  0
  7 11  2  0  0  0  0
  7 20  1  0  0  0  0
  8 14  2  0  0  0  0
  8 22  1  0  0  0  0
  9 24  1  0  0  0  0
 10 24  2  0  0  0  0
 11 25  1  0  0  0  0
 12 13  2  0  0  0  0
 12 26  1  0  0  0  0
 13 27  1  0  0  0  0
 14 31  1  0  0  0  0
 15 23  1  0  0  0  0
 15 25  2  0  0  0  0
 16 27  2  0  0  0  0
 16 28  1  0  0  0  0
 17 29  1  0  0  0  0
 18 29  1  0  0  0  0
 18 32  2  0  0  0  0
 18 33  1  0  0  0  0
 19 21  2  0  0  0  0
 19 38  1  0  0  0  0
 20 23  2  0  0  0  0
 20 39  1  0  0  0  0
 21 49  1  0  0  0  0
 22 30  2  0  0  0  0
 22 52  1  0  0  0  0
 23 40  1  0  0  0  0
 24 79  1  0  0  0  0
 25 80  1  0  0  0  0
 26 28  2  0  0  0  0
 26 79  1  0  0  0  0
 27 81  1  0  0  0  0
 28 82  1  0  0  0  0
 29 63  2  0  0  0  0
 30 53  1  0  0  0  0
 30 64  1  0  0  0  0
 31 64  2  0  0  0  0
 31 70  1  0  0  0  0
 32 65  1  0  0  0  0
 32 68  1  0  0  0  0
 33 69  1  0  0  0  0
 33 74  2  0  0  0  0
 34 50  1  0  0  0  0
 34 71  1  0  0  0  0
 34 75  2  0  0  0  0
 35 60  1  0  0  0  0
 35 66  1  0  0  0  0
 35 76  2  0  0  0  0
 36 61  1  0  0  0  0
 36 72  1  0  0  0  0
 36 77  2  0  0  0  0
 37 67  1  0  0  0  0
 37 70  1  0  0  0  0
 37 78  2  0  0  0  0
 38 41  1  0  0  0  0
 39 50  1  0  0  0  0
 40 66  1  0  0  0  0
 41 43  1  0  0  0  0
 42 44  1  0  0  0  0
 42 47  1  0  0  0  0
 43 49  1  0  0  0  0
 44 51  1  0  0  0  0
 45 46  1  0  0  0  0
 45 52  1  0  0  0  0
 46 52  1  0  0  0  0
 47 67  1  0  0  0  0
 48 51  1  0  0  0  0
 48 67  1  0  0  0  0
 49 71  1  0  0  0  0
 50 66  1  0  0  0  0
 51 65  1  0  0  0  0
 52 59  1  0  0  0  0
 54 61  1  0  0  0  0
 55 62  1  0  0  0  0
 56 62  1  0  0  0  0
 57 62  1  0  0  0  0
 58 73  1  0  0  0  0
 59 80  1  0  0  0  0
 60 62  1  0  0  0  0
 60 72  1  0  0  0  0
 61 73  1  0  0  0  0
 63 65  1  0  0  0  0
M  CHG  1  73   1
M  ISO  4  37 100  59 101  70 100  80 101
M  END
> <Batch ID>
0175

> <Smiles>
CNC(C)C(=O)NC(C(=O)N1Cc2cc([101O:1][101CH2:1]C3(c4ccc([100NH:0][100C:0](=O)N5CCCC(n6nc(-c7ccc(Oc8ccc(F)cc8F)cc7)c(C(N)=O)c6N)C5)nc4C)CC3)ccc2CC1C(=O)NC1CCCc2ccccc21)C(C)(C)C

> <Shape>
0.226

> <Color>
0.096

> <Negative vol penalty>
0.000

$$$$

  -OEChem-04052322473D

 85 94  0     1  0  0  0  0  0999 V2000
  -29.2510  -31.2463   26.5975 C   0  0  0  0  0  0  0  0  0  0  0  0
  -28.9998  -30.2159   25.6972 C   0  0  0  0  0  0  0  0  0  0  0  0
  -23.1940  -10.4732   21.5573 C   0  0  0  0  0  0  0  0  0  0  0  0
  -24.8190   -8.7083   21.8427 C   0  0  0  0  0  0  0  0  0  0  0  0
  -28.1911  -31.9797   27.1292 C   0  0  0  0  0  0  0  0  0  0  0  0
  -27.6884  -29.9175   25.3289 C   0  0  0  0  0  0  0  0  0  0  0  0
  -27.1868  -29.2004   20.3410 C   0  0  0  0  0  0  0  0  0  0  0  0
  -22.1801   -9.5217   21.4459 C   0  0  0  0  0  0  0  0  0  0  0  0
  -23.8051   -7.7568   21.7314 C   0  0  0  0  0  0  0  0  0  0  0  0
  -27.6023  -27.9719   19.8293 C   0  0  0  0  0  0  0  0  0  0  0  0
  -21.5944   -4.8744   21.8829 C   0  0  0  0  0  0  0  0  0  0  0  0
  -21.5890   -3.8213   22.7975 C   0  0  0  0  0  0  0  0  0  0  0  0
  -25.3110  -27.2184   19.7940 C   0  0  0  0  0  0  0  0  0  0  0  0
  -21.3785   -5.4001   24.6142 C   0  0  0  0  0  0  0  0  0  0  0  0
  -27.8433  -21.3008   17.2810 C   0  0  0  0  0  0  0  0  0  0  0  0
  -24.5135  -10.0665   21.7556 C   0  0  0  0  0  0  0  0  0  0  0  0
  -26.0238  -11.6650   23.0484 C   0  0  0  0  0  0  0  0  0  0  0  0
  -26.8667  -31.6965   26.7598 C   0  0  0  0  0  0  0  0  0  0  0  0
  -25.8291  -29.4437   20.5936 C   0  0  0  0  0  0  0  0  0  0  0  0
  -26.6097  -30.6470   25.8571 C   0  0  0  0  0  0  0  0  0  0  0  0
  -24.8805  -28.4518   20.3065 C   0  0  0  0  0  0  0  0  0  0  0  0
  -27.4019  -21.2733   18.5940 C   0  0  0  0  0  0  0  0  0  0  0  0
  -26.6821  -23.5494   18.3013 C   0  0  0  0  0  0  0  0  0  0  0  0
  -22.4857   -8.1635   21.5330 C   0  0  0  0  0  0  0  0  0  0  0  0
  -26.6647  -26.9796   19.5585 C   0  0  0  0  0  0  0  0  0  0  0  0
  -21.4919   -6.1904   22.3339 C   0  0  0  0  0  0  0  0  0  0  0  0
  -21.4810   -4.0841   24.1631 C   0  0  0  0  0  0  0  0  0  0  0  0
  -21.3839   -6.4532   23.6995 C   0  0  0  0  0  0  0  0  0  0  0  0
  -26.8114  -22.4231   19.1063 C   0  0  0  0  0  0  0  0  0  0  0  0
  -25.5613  -11.0488   21.8702 C   0  0  0  0  0  0  0  0  0  0  0  0
  -27.1559  -23.4750   17.0013 C   0  0  0  0  0  0  0  0  0  0  0  0
  -27.0190  -12.5117   22.6252 C   0  0  0  0  0  0  0  0  0  0  0  0
  -25.5924  -11.4877   24.4042 C   0  0  0  0  0  0  0  0  0  0  0  0
  -24.1142  -30.1107   23.1855 C   0  0  0  0  0  0  0  0  0  0  0  0
  -21.7184  -30.4782   21.0297 C   0  0  0  0  0  0  0  0  0  0  0  0
  -20.4524  -29.7308   17.9498 C   0  0  0  0  0  0  0  0  0  0  0  0
  -29.1114  -16.2094   19.1654 C   0  0  0  0  0  0  0  0  0  0  0  0
  -25.7507  -32.4857   27.3972 C   0  0  0  0  0  0  0  0  0  0  0  0
  -25.3942  -30.7838   21.1205 C   0  0  0  0  0  0  0  0  0  0  0  0
  -23.4089  -28.6702   20.5409 C   0  0  0  0  0  0  0  0  0  0  0  0
  -24.4162  -32.3515   26.6682 C   0  0  0  0  0  0  0  0  0  0  0  0
  -29.3349  -12.9115   18.1544 C   0  0  0  0  0  0  0  0  0  0  0  0
  -24.1298  -30.8887   26.3441 C   0  0  0  0  0  0  0  0  0  0  0  0
  -28.4139  -12.1710   19.1238 C   0  0  0  0  0  0  0  0  0  0  0  0
  -26.7953  -18.8227   18.8133 C   0  0  0  0  0  0  0  0  0  0  0  0
  -29.0621  -19.6386   19.5913 C   0  0  0  0  0  0  0  0  0  0  0  0
  -28.7190  -14.2368   17.7212 C   0  0  0  0  0  0  0  0  0  0  0  0
  -27.0038  -17.5396   19.6229 C   0  0  0  0  0  0  0  0  0  0  0  0
  -29.2053  -18.3529   20.4005 C   0  0  0  0  0  0  0  0  0  0  0  0
  -27.4506  -14.4146   19.8372 C   0  0  0  0  0  0  0  0  0  0  0  0
  -27.5783  -20.0063   19.4096 C   0  0  0  0  0  0  0  0  0  0  0  0
  -25.2026  -30.3094   25.4141 C   0  0  1  0  0  0  0  0  0  0  0  0
  -24.0406  -30.7391   21.8227 C   0  0  1  0  0  0  0  0  0  0  0  0
  -28.0290  -13.0670   20.3144 C   0  0  1  0  0  0  0  0  0  0  0  0
  -27.0457  -24.6521   16.0878 C   0  0  0  0  0  0  0  0  0  0  0  0
  -18.4574  -30.1481   16.4858 C   0  0  0  0  0  0  0  0  0  0  0  0
  -20.0893  -28.5045   22.6911 C   0  0  0  0  0  0  0  0  0  0  0  0
  -18.5494  -28.2364   20.7354 C   0  0  0  0  0  0  0  0  0  0  0  0
  -18.7937  -30.4636   21.8321 C   0  0  0  0  0  0  0  0  0  0  0  0
  -22.1067  -31.0296   15.8677 C   0  0  0  0  0  0  0  0  0  0  0  0
  -26.0553  -24.8078   18.8051 C   0  0  0  0  0  0  0  0  0  1  0  0
  -20.6848  -29.5662   20.4142 C   0  0  1  0  0  0  0  0  0  0  0  0
  -19.8557  -30.6099   16.8656 C   0  0  2  0  0  0  0  0  0  0  0  0
  -19.5571  -29.1875   21.4155 C   0  0  0  0  0  0  0  0  0  0  0  0
  -27.7351  -22.3759   16.4685 N   0  0  0  0  0  0  0  0  0  0  0  0
  -26.2093  -11.4685   20.7802 N   0  0  0  0  0  0  0  0  0  0  0  0
  -27.0891  -12.3575   21.2719 N   0  0  0  0  0  0  0  0  0  0  0  0
  -23.0341  -29.9948   21.0630 N   0  0  0  0  0  0  0  0  0  0  0  0
  -28.3643  -15.0568   18.8795 N   0  0  0  0  0  0  0  0  0  0  0  0
  -28.4364  -17.2638   19.7987 N   0  0  0  0  0  0  0  0  0  0  0  0
  -27.8322  -13.3657   23.2824 N   0  0  0  0  0  0  0  0  0  0  0  0
  -24.5580  -10.5781   24.6627 N   0  0  0  0  0  0  0  0  0  0  0  0
  -24.9814  -30.7475   24.0526 N   0  0  0  0  0  0  0  0  0  0  0  0
  -20.2125  -30.2390   19.2090 N   0  0  0  0  0  0  0  0  0  0  0  0
  -20.7093  -30.5775   15.6444 N   0  3  0  0  0  0  0  0  0  0  0  0
  -26.0979  -12.1294   25.3562 O   0  0  0  0  0  0  0  0  0  0  0  0
  -23.4333  -29.1222   23.4326 O   0  0  0  0  0  0  0  0  0  0  0  0
  -21.3725  -31.5819   21.4583 O   0  0  0  0  0  0  0  0  0  0  0  0
  -21.0664  -28.6948   17.7045 O   0  0  0  0  0  0  0  0  0  0  0  0
  -30.3109  -16.2920   18.8732 O   0  0  0  0  0  0  0  0  0  0  0  0
  -21.4966   -7.2348   21.4246 O   0  0  0  0  0  0  0  0  0  0  0  0
  -27.0705  -25.7708   19.0562 O   0  0  0  0  0  0  0  0  0  1  0  0
  -21.4743   -3.0726   25.0412 F   0  0  0  0  0  0  0  0  0  0  0  0
  -21.2839   -7.7154   24.1387 F   0  0  0  0  0  0  0  0  0  0  0  0
  -26.2407  -22.4484   20.7402 Cl  0  0  0  0  0  0  0  0  0  0  0  0
  1  2  1  0  0  0  0
  1  5  2  0  0  0  0
  2  6  2  0  0  0  0
  3  8  2  0  0  0  0
  3 16  1  0  0  0  0
  4  9  1  0  0  0  0
  4 16  2  0  0  0  0
  5 18  1  0  0  0  0
  6 20  1  0  0  0  0
  7 10  2  0  0  0  0
  7 19  1  0  0  0  0
  8 24  1  0  0  0  0
  9 24  2  0  0  0  0
 10 25  1  0  0  0  0
 11 12  2  0  0  0  0
 11 26  1  0  0  0  0
 12 27  1  0  0  0  0
 13 21  1  0  0  0  0
 13 25  2  0  0  0  0
 14 27  2  0  0  0  0
 14 28  1  0  0  0  0
 15 22  2  0  0  0  0
 15 65  1  0  0  0  0
 16 30  1  0  0  0  0
 17 30  1  0  0  0  0
 17 32  2  0  0  0  0
 17 33  1  0  0  0  0
 18 20  2  0  0  0  0
 18 38  1  0  0  0  0
 19 21  2  0  0  0  0
 19 39  1  0  0  0  0
 20 52  1  0  0  0  0
 21 40  1  0  0  0  0
 22 29  1  0  0  0  0
 22 51  1  0  0  0  0
 23 29  2  0  0  0  0
 23 31  1  0  0  0  0
 23 61  1  0  0  0  0
 24 81  1  0  0  0  0
 25 82  1  0  0  0  0
 26 28  2  0  0  0  0
 26 81  1  0  0  0  0
 27 83  1  0  0  0  0
 28 84  1  0  0  0  0
 29 85  1  0  0  0  0
 30 66  2  0  0  0  0
 31 55  1  0  0  0  0
 31 65  2  0  0  0  0
 32 67  1  0  0  0  0
 32 71  1  0  0  0  0
 33 72  1  0  0  0  0
 33 76  2  0  0  0  0
 34 53  1  0  0  0  0
 34 73  1  0  0  0  0
 34 77  2  0  0  0  0
 35 62  1  0  0  0  0
 35 68  1  0  0  0  0
 35 78  2  0  0  0  0
 36 63  1  0  0  0  0
 36 74  1  0  0  0  0
 36 79  2  0  0  0  0
 37 69  1  0  0  0  0
 37 70  1  0  0  0  0
 37 80  2  0  0  0  0
 38 41  1  0  0  0  0
 39 53  1  0  0  0  0
 40 68  1  0  0  0  0
 41 43  1  0  0  0  0
 42 44  1  0  0  0  0
 42 47  1  0  0  0  0
 43 52  1  0  0  0  0
 44 54  1  0  0  0  0
 45 48  1  0  0  0  0
 45 51  1  0  0  0  0
 46 49  1  0  0  0  0
 46 51  1  0  0  0  0
 47 69  1  0  0  0  0
 48 70  1  0  0  0  0
 49 70  1  0  0  0  0
 50 54  1  0  0  0  0
 50 69  1  0  0  0  0
 52 73  1  0  0  0  0
 53 68  1  0  0  0  0
 54 67  1  0  0  0  0
 56 63  1  0  0  0  0
 57 64  1  0  0  0  0
 58 64  1  0  0  0  0
 59 64  1  0  0  0  0
 60 75  1  0  0  0  0
 61 82  1  0  0  0  0
 62 64  1  0  0  0  0
 62 74  1  0  0  0  0
 63 75  1  0  0  0  0
 66 67  1  0  0  0  0
M  CHG  1  75   1
M  ISO  4  37 100  61 101  70 100  82 101
M  END
> <Batch ID>
0175

> <Smiles>
CNC(C)C(=O)NC(C(=O)N1Cc2cc([101O:1][101CH2:1]c3c(C)ncc(C4CC[100N:0]([100C:0](=O)N5CCCC(n6nc(-c7ccc(Oc8ccc(F)cc8F)cc7)c(C(N)=O)c6N)C5)CC4)c3Cl)ccc2CC1C(=O)NC1CCCc2ccccc21)C(C)(C)C

> <Shape>
0.308

> <Color>
0.127

> <Negative vol penalty>
0.000

$$$$

  -OEChem-04052322473D

 87 95  0     1  0  0  0  0  0999 V2000
  -28.3289  -11.0871   21.2695 C   0  0  0  0  0  0  0  0  0  0  0  0
  -28.8769  -12.3282   20.9620 C   0  0  0  0  0  0  0  0  0  0  0  0
  -19.9893  -28.8043   23.2762 C   0  0  0  0  0  0  0  0  0  0  0  0
  -21.0288  -26.7718   22.4855 C   0  0  0  0  0  0  0  0  0  0  0  0
  -26.9653  -10.8631   21.0839 C   0  0  0  0  0  0  0  0  0  0  0  0
  -28.0618  -13.3459   20.4678 C   0  0  0  0  0  0  0  0  0  0  0  0
  -28.6060  -19.3498   21.5464 C   0  0  0  0  0  0  0  0  0  0  0  0
  -18.8156  -28.4662   22.6026 C   0  0  0  0  0  0  0  0  0  0  0  0
  -19.8551  -26.4335   21.8120 C   0  0  0  0  0  0  0  0  0  0  0  0
  -29.1738  -20.3877   20.8087 C   0  0  0  0  0  0  0  0  0  0  0  0
  -16.8359  -25.1218   22.5767 C   0  0  0  0  0  0  0  0  0  0  0  0
  -16.3817  -23.8078   22.6890 C   0  0  0  0  0  0  0  0  0  0  0  0
  -28.3592  -24.7147   18.4414 C   0  0  0  0  0  0  0  0  0  0  0  0
  -30.0826  -26.1429   19.3215 C   0  0  0  0  0  0  0  0  0  0  0  0
  -27.0013  -20.9305   19.9115 C   0  0  0  0  0  0  0  0  0  0  0  0
  -16.5592  -23.5418   20.2942 C   0  0  0  0  0  0  0  0  0  0  0  0
  -21.0959  -27.9571   23.2176 C   0  0  0  0  0  0  0  0  0  0  0  0
  -29.7029  -25.0589   18.5379 C   0  0  0  0  0  0  0  0  0  0  0  0
  -22.6578  -27.9703   25.2346 C   0  0  0  0  0  0  0  0  0  0  0  0
  -26.1313  -11.8816   20.5963 C   0  0  0  0  0  0  0  0  0  0  0  0
  -27.2310  -19.0872   21.4637 C   0  0  0  0  0  0  0  0  0  0  0  0
  -26.6860  -13.1350   20.2743 C   0  0  0  0  0  0  0  0  0  0  0  0
  -26.4181  -19.8904   20.6511 C   0  0  0  0  0  0  0  0  0  0  0  0
  -18.7485  -27.2808   21.8705 C   0  0  0  0  0  0  0  0  0  0  0  0
  -28.3720  -21.1764   19.9889 C   0  0  0  0  0  0  0  0  0  0  0  0
  -17.1517  -25.6459   21.3231 C   0  0  0  0  0  0  0  0  0  0  0  0
  -16.2433  -23.0178   21.5478 C   0  0  0  0  0  0  0  0  0  0  0  0
  -17.0134  -24.8558   20.1819 C   0  0  0  0  0  0  0  0  0  0  0  0
  -22.3088  -28.3062   23.9128 C   0  0  0  0  0  0  0  0  0  0  0  0
  -27.4417  -25.4804   19.1425 C   0  0  0  0  0  0  0  0  0  0  0  0
  -29.0879  -26.8448   19.9831 C   0  0  0  0  0  0  0  0  0  0  0  0
  -23.8976  -28.5328   25.4159 C   0  0  0  0  0  0  0  0  0  0  0  0
  -30.7322  -24.2682   17.8037 C   0  0  0  0  0  0  0  0  0  0  0  0
  -21.9267  -27.2170   26.2112 C   0  0  0  0  0  0  0  0  0  0  0  0
  -25.4726  -16.6171   20.5094 C   0  0  0  0  0  0  0  0  0  0  0  0
  -23.0251  -18.4244   21.6345 C   0  0  0  0  0  0  0  0  0  0  0  0
  -21.8338  -21.5261   22.4137 C   0  0  0  0  0  0  0  0  0  0  0  0
  -28.2807  -30.0484   21.6287 C   0  0  0  0  0  0  0  0  0  0  0  0
  -24.6719  -11.5776   20.3676 C   0  0  0  0  0  0  0  0  0  0  0  0
  -26.6295  -17.9809   22.2863 C   0  0  0  0  0  0  0  0  0  0  0  0
  -24.9332  -19.6625   20.5429 C   0  0  0  0  0  0  0  0  0  0  0  0
  -23.8099  -12.8254   20.1935 C   0  0  0  0  0  0  0  0  0  0  0  0
  -26.6050  -32.1869   23.9299 C   0  0  0  0  0  0  0  0  0  0  0  0
  -24.4719  -13.8007   19.2254 C   0  0  0  0  0  0  0  0  0  0  0  0
  -25.3454  -31.4045   24.3057 C   0  0  0  0  0  0  0  0  0  0  0  0
  -26.9790  -31.9837   22.4633 C   0  0  0  0  0  0  0  0  0  0  0  0
  -25.8517  -29.7925   22.4232 C   0  0  0  0  0  0  0  0  0  0  0  0
  -25.8300  -14.2718   19.7594 C   0  0  1  0  0  0  0  0  0  0  0  0
  -25.3015  -17.4767   21.7299 C   0  0  1  0  0  0  0  0  0  0  0  0
  -25.4667  -29.9215   23.9069 C   0  0  2  0  0  0  0  0  0  0  0  0
  -25.1541  -26.2717   18.4394 C   0  0  0  0  0  0  0  0  0  0  0  0
  -25.4032  -24.7462   20.4309 C   0  0  0  0  0  0  0  0  0  0  0  0
  -30.4174  -27.6416   21.9728 C   0  0  0  0  0  0  0  0  0  0  0  0
  -31.7007  -22.2124   16.7891 C   0  0  0  0  0  0  0  0  0  0  0  0
  -19.7849  -22.6898   23.2769 C   0  0  0  0  0  0  0  0  0  0  0  0
  -21.6888  -18.0858   18.9124 C   0  0  0  0  0  0  0  0  0  0  0  0
  -20.1757  -19.9932   19.4957 C   0  0  0  0  0  0  0  0  0  0  0  0
  -20.1370  -17.9088   20.8656 C   0  0  0  0  0  0  0  0  0  0  0  0
  -23.2791  -22.5667   24.7774 C   0  0  0  0  0  0  0  0  0  0  0  0
  -30.2789  -22.0272   18.8507 C   0  0  0  0  0  0  0  0  0  1  0  0
  -25.9911  -25.1390   19.0627 C   0  0  0  0  0  0  0  0  0  0  0  0
  -29.4585  -28.0140   20.8331 C   0  0  2  0  0  0  0  0  0  0  0  0
  -30.4963  -22.7806   17.5341 C   0  0  1  0  0  0  0  0  0  0  0  0
  -22.1136  -19.4747   21.0470 C   0  0  1  0  0  0  0  0  0  0  0  0
  -21.1144  -22.0491   23.6439 C   0  0  2  0  0  0  0  0  0  0  0  0
  -21.0570  -18.8689   20.0805 C   0  0  0  0  0  0  0  0  0  0  0  0
  -23.2507  -29.0265   23.2980 N   0  0  0  0  0  0  0  0  0  0  0  0
  -27.7725  -26.5403   19.9137 N   0  0  0  0  0  0  0  0  0  0  0  0
  -24.2038  -29.1478   24.2377 N   0  0  0  0  0  0  0  0  0  0  0  0
  -24.3933  -18.5647   21.3620 N   0  0  0  0  0  0  0  0  0  0  0  0
  -27.0795  -30.5561   22.1507 N   0  0  0  0  0  0  0  0  0  0  0  0
  -24.7448  -28.5565   26.4666 N   0  0  0  0  0  0  0  0  0  0  0  0
  -20.6679  -26.7110   25.8594 N   0  0  0  0  0  0  0  0  0  0  0  0
  -25.6487  -15.2749   20.7867 N   0  0  0  0  0  0  0  0  0  0  0  0
  -21.5434  -20.1990   22.1777 N   0  0  0  0  0  0  0  0  0  0  0  0
  -28.2933  -28.6840   21.3663 N   0  0  0  0  0  0  0  0  0  0  0  0
  -21.9509  -23.0677   24.3392 N   0  3  0  0  0  0  0  0  0  0  0  0
  -31.7528  -24.8382   17.4202 O   0  0  0  0  0  0  0  0  0  0  0  0
  -22.3692  -27.0130   27.3671 O   0  0  0  0  0  0  0  0  0  0  0  0
  -25.4451  -17.1332   19.3983 O   0  0  0  0  0  0  0  0  0  0  0  0
  -22.5418  -17.5171   22.3163 O   0  0  0  0  0  0  0  0  0  0  0  0
  -22.5760  -22.2260   21.7283 O   0  0  0  0  0  0  0  0  0  0  0  0
  -29.2704  -30.7575   21.4175 O   0  0  0  0  0  0  0  0  0  0  0  0
  -17.6033  -26.9504   21.2133 O   0  0  0  0  0  0  0  0  0  0  0  0
  -28.9238  -22.1896   19.2673 O   0  0  0  0  0  0  0  0  0  1  0  0
  -15.8086  -21.7555   21.6560 F   0  0  0  0  0  0  0  0  0  0  0  0
  -17.3163  -25.3534   18.9750 F   0  0  0  0  0  0  0  0  0  0  0  0
  1  2  1  0  0  0  0
  1  5  2  0  0  0  0
  2  6  2  0  0  0  0
  3  8  2  0  0  0  0
  3 17  1  0  0  0  0
  4  9  1  0  0  0  0
  4 17  2  0  0  0  0
  5 20  1  0  0  0  0
  6 22  1  0  0  0  0
  7 10  2  0  0  0  0
  7 21  1  0  0  0  0
  8 24  1  0  0  0  0
  9 24  2  0  0  0  0
 10 25  1  0  0  0  0
 11 12  2  0  0  0  0
 11 26  1  0  0  0  0
 12 27  1  0  0  0  0
 13 18  1  0  0  0  0
 13 30  2  0  0  0  0
 14 18  2  0  0  0  0
 14 31  1  0  0  0  0
 15 23  1  0  0  0  0
 15 25  2  0  0  0  0
 16 27  2  0  0  0  0
 16 28  1  0  0  0  0
 17 29  1  0  0  0  0
 18 33  1  0  0  0  0
 19 29  1  0  0  0  0
 19 32  2  0  0  0  0
 19 34  1  0  0  0  0
 20 22  2  0  0  0  0
 20 39  1  0  0  0  0
 21 23  2  0  0  0  0
 21 40  1  0  0  0  0
 22 48  1  0  0  0  0
 23 41  1  0  0  0  0
 24 84  1  0  0  0  0
 25 85  1  0  0  0  0
 26 28  2  0  0  0  0
 26 84  1  0  0  0  0
 27 86  1  0  0  0  0
 28 87  1  0  0  0  0
 29 67  2  0  0  0  0
 30 61  1  0  0  0  0
 30 68  1  0  0  0  0
 31 62  1  0  0  0  0
 31 68  2  0  0  0  0
 32 69  1  0  0  0  0
 32 72  1  0  0  0  0
 33 63  1  0  0  0  0
 33 78  2  0  0  0  0
 34 73  1  0  0  0  0
 34 79  2  0  0  0  0
 35 49  1  0  0  0  0
 35 74  1  0  0  0  0
 35 80  2  0  0  0  0
 36 64  1  0  0  0  0
 36 70  1  0  0  0  0
 36 81  2  0  0  0  0
 37 65  1  0  0  0  0
 37 75  1  0  0  0  0
 37 82  2  0  0  0  0
 38 71  1  0  0  0  0
 38 76  1  0  0  0  0
 38 83  2  0  0  0  0
 39 42  1  0  0  0  0
 40 49  1  0  0  0  0
 41 70  1  0  0  0  0
 42 44  1  0  0  0  0
 43 45  1  0  0  0  0
 43 46  1  0  0  0  0
 44 48  1  0  0  0  0
 45 50  1  0  0  0  0
 46 71  1  0  0  0  0
 47 50  1  0  0  0  0
 47 71  1  0  0  0  0
 48 74  1  0  0  0  0
 49 70  1  0  0  0  0
 50 69  1  0  0  0  0
 51 61  1  0  0  0  0
 52 61  1  0  0  0  0
 53 62  1  0  0  0  0
 54 63  1  0  0  0  0
 55 65  1  0  0  0  0
 56 66  1  0  0  0  0
 57 66  1  0  0  0  0
 58 66  1  0  0  0  0
 59 77  1  0  0  0  0
 60 63  1  0  0  0  0
 60 85  1  0  0  0  0
 62 76  1  0  0  0  0
 64 66  1  0  0  0  0
 64 75  1  0  0  0  0
 65 77  1  0  0  0  0
 67 69  1  0  0  0  0
M  CHG  1  77   1
M  ISO  4  38 100  60 101  76 100  85 101
M  END
> <Batch ID>
0175

> <Smiles>
CNC(C)C(=O)NC(C(=O)N1Cc2cc([101O:1][101CH2:1]C(C)C(=O)c3cc(C(C)C)nc(C(C)[100NH:0][100C:0](=O)N4CCCC(n5nc(-c6ccc(Oc7ccc(F)cc7F)cc6)c(C(N)=O)c5N)C4)c3)ccc2CC1C(=O)NC1CCCc2ccccc21)C(C)(C)C

> <Shape>
0.245

> <Color>
0.079

> <Negative vol penalty>
0.000

$$$$

  -OEChem-04052322473D

 88 97  0     1  0  0  0  0  0999 V2000
  -25.5266  -38.4121   20.0082 C   0  0  0  0  0  0  0  0  0  0  0  0
  -25.9049  -37.3253   19.2264 C   0  0  0  0  0  0  0  0  0  0  0  0
  -23.4505  -11.9244   22.3981 C   0  0  0  0  0  0  0  0  0  0  0  0
  -23.5487  -10.2860   20.6253 C   0  0  0  0  0  0  0  0  0  0  0  0
  -25.5254  -38.3028   21.3981 C   0  0  0  0  0  0  0  0  0  0  0  0
  -26.2833  -36.1288   19.8343 C   0  0  0  0  0  0  0  0  0  0  0  0
  -26.0716  -29.0405   18.8202 C   0  0  0  0  0  0  0  0  0  0  0  0
  -22.0589  -11.9419   22.3049 C   0  0  0  0  0  0  0  0  0  0  0  0
  -22.1571  -10.3034   20.5321 C   0  0  0  0  0  0  0  0  0  0  0  0
  -26.9120  -27.9281   18.8120 C   0  0  0  0  0  0  0  0  0  0  0  0
  -18.6104   -9.6486   20.0734 C   0  0  0  0  0  0  0  0  0  0  0  0
  -17.9506   -8.4234   19.9785 C   0  0  0  0  0  0  0  0  0  0  0  0
  -26.7956  -27.8299   21.2195 C   0  0  0  0  0  0  0  0  0  0  0  0
  -18.8708   -7.7625   22.1124 C   0  0  0  0  0  0  0  0  0  0  0  0
  -24.1955  -11.0965   21.5582 C   0  0  0  0  0  0  0  0  0  0  0  0
  -26.4205  -10.2433   22.4687 C   0  0  0  0  0  0  0  0  0  0  0  0
  -25.8947  -37.1013   22.0231 C   0  0  0  0  0  0  0  0  0  0  0  0
  -25.5949  -29.5635   20.0308 C   0  0  0  0  0  0  0  0  0  0  0  0
  -26.2883  -36.0037   21.2340 C   0  0  0  0  0  0  0  0  0  0  0  0
  -25.9472  -28.9475   21.2402 C   0  0  0  0  0  0  0  0  0  0  0  0
  -21.4122  -11.1314   21.3720 C   0  0  0  0  0  0  0  0  0  0  0  0
  -27.2764  -27.3244   20.0119 C   0  0  0  0  0  0  0  0  0  0  0  0
  -19.4005   -9.9309   21.1878 C   0  0  0  0  0  0  0  0  0  0  0  0
  -18.0808   -7.4804   20.9980 C   0  0  0  0  0  0  0  0  0  0  0  0
  -19.5307   -8.9878   22.2073 C   0  0  0  0  0  0  0  0  0  0  0  0
  -25.6330  -11.0784   21.6536 C   0  0  0  0  0  0  0  0  0  0  0  0
  -27.7136  -10.6162   22.1945 C   0  0  0  0  0  0  0  0  0  0  0  0
  -26.0189   -9.2218   23.3912 C   0  0  0  0  0  0  0  0  0  0  0  0
  -25.8887  -32.3435   21.5438 C   0  0  0  0  0  0  0  0  0  0  0  0
  -23.7428  -31.0167   23.5827 C   0  0  0  0  0  0  0  0  0  0  0  0
  -22.3499  -28.1859   24.8839 C   0  0  0  0  0  0  0  0  0  0  0  0
  -26.5631  -14.6740   18.8222 C   0  0  0  0  0  0  0  0  0  0  0  0
  -25.9233  -37.0458   23.5300 C   0  0  0  0  0  0  0  0  0  0  0  0
  -24.6677  -30.7478   20.0210 C   0  0  0  0  0  0  0  0  0  0  0  0
  -25.4461  -29.4579   22.5656 C   0  0  0  0  0  0  0  0  0  0  0  0
  -25.9781  -35.6253   24.0862 C   0  0  0  0  0  0  0  0  0  0  0  0
  -28.6155  -11.9110   18.1102 C   0  0  0  0  0  0  0  0  0  0  0  0
  -27.0265  -34.8018   23.3450 C   0  0  0  0  0  0  0  0  0  0  0  0
  -29.3616  -11.6329   19.4123 C   0  0  0  0  0  0  0  0  0  0  0  0
  -27.4486  -20.9858   20.5335 C   0  0  0  0  0  0  0  0  0  0  0  0
  -28.4667  -13.4075   17.8779 C   0  0  0  0  0  0  0  0  0  0  0  0
  -27.2645  -16.6963   20.1720 C   0  0  0  0  0  0  0  0  0  0  0  0
  -28.4579  -13.8581   20.3162 C   0  0  0  0  0  0  0  0  0  0  0  0
  -28.0169  -22.2835   21.0813 C   0  0  0  0  0  0  0  0  0  0  0  0
  -27.0413  -18.1174   19.6719 C   0  0  0  0  0  0  0  0  0  0  0  0
  -26.0802  -23.2600   19.7304 C   0  0  0  0  0  0  0  0  0  0  0  0
  -24.6258  -17.6087   19.3173 C   0  0  0  0  0  0  0  0  0  0  0  0
  -26.6816  -34.6812   21.8557 C   0  0  1  0  0  0  0  0  0  0  0  0
  -24.6558  -31.5083   21.3435 C   0  0  1  0  0  0  0  0  0  0  0  0
  -25.2697  -22.3317   20.6371 C   0  0  2  0  0  0  0  0  0  0  0  0
  -28.7754  -12.3775   20.6247 C   0  0  1  0  0  0  0  0  0  0  0  0
  -24.8466  -16.1766   19.8066 C   0  0  2  0  0  0  0  0  0  0  0  0
  -25.9038  -20.8999   20.6822 C   0  0  2  0  0  0  0  0  0  0  0  0
  -23.7951  -22.3572   20.2218 C   0  0  0  0  0  0  0  0  0  0  0  0
  -24.3888  -15.9678   21.2533 C   0  0  0  0  0  0  0  0  0  0  0  0
  -25.5594  -20.2445   22.0373 C   0  0  0  0  0  0  0  0  0  0  0  0
  -20.6466  -27.4195   26.5599 C   0  0  0  0  0  0  0  0  0  0  0  0
  -25.6846  -31.6598   25.8467 C   0  0  0  0  0  0  0  0  0  0  0  0
  -24.4109  -30.0665   27.2983 C   0  0  0  0  0  0  0  0  0  0  0  0
  -23.2799  -32.0917   26.3806 C   0  0  0  0  0  0  0  0  0  0  0  0
  -20.7351  -26.8402   22.8006 C   0  0  0  0  0  0  0  0  0  0  0  0
  -25.3801  -19.9719   19.5666 C   0  0  0  0  0  0  0  0  0  0  0  0
  -28.4266  -23.9716   19.2644 C   0  0  0  0  0  0  0  0  0  0  0  0
  -28.0352  -25.3817   18.8690 C   0  0  0  0  0  0  0  0  0  1  0  0
  -23.8346  -30.1726   24.8310 C   0  0  1  0  0  0  0  0  0  0  0  0
  -20.9025  -27.7859   25.1063 C   0  0  2  0  0  0  0  0  0  0  0  0
  -24.3137  -30.9890   26.0645 C   0  0  0  0  0  0  0  0  0  0  0  0
  -26.3648  -11.9186   20.9170 N   0  0  0  0  0  0  0  0  0  0  0  0
  -27.6256  -11.6134   21.2682 N   0  0  0  0  0  0  0  0  0  0  0  0
  -24.5471  -30.6222   22.5041 N   0  0  0  0  0  0  0  0  0  0  0  0
  -27.8131  -14.0618   19.0102 N   0  0  0  0  0  0  0  0  0  0  0  0
  -26.2530  -15.7684   19.6452 N   0  0  0  0  0  0  0  0  0  0  0  0
  -28.9061  -10.1852   22.6579 N   0  0  0  0  0  0  0  0  0  0  0  0
  -24.6501   -8.9671   23.5518 N   0  0  0  0  0  0  0  0  0  0  0  0
  -25.6386  -33.6978   21.6565 N   0  0  0  0  0  0  0  0  0  0  0  0
  -22.5267  -29.5485   24.9988 N   0  0  0  0  0  0  0  0  0  0  0  0
  -25.6238  -18.5405   19.9580 N   0  3  2  0  0  0  0  0  0  0  0  0
  -27.4679  -23.4640   20.3078 N   0  3  2  0  0  0  0  0  0  0  0  0
  -20.5531  -26.6120   24.2572 N   0  3  0  0  0  0  0  0  0  0  0  0
  -26.8487   -8.5659   24.0656 O   0  0  0  0  0  0  0  0  0  0  0  0
  -26.9855  -31.7993   21.5940 O   0  0  0  0  0  0  0  0  0  0  0  0
  -22.9801  -31.9859   23.5629 O   0  0  0  0  0  0  0  0  0  0  0  0
  -23.2358  -27.3706   24.6370 O   0  0  0  0  0  0  0  0  0  0  0  0
  -25.7614  -14.2549   17.9776 O   0  0  0  0  0  0  0  0  0  0  0  0
  -20.0542  -11.1480   21.2809 O   0  0  0  0  0  0  0  0  0  0  0  0
  -28.1030  -26.2311   20.0067 O   0  0  0  0  0  0  0  0  0  1  0  0
  -17.4459   -6.3044   20.9074 F   0  0  0  0  0  0  0  0  0  0  0  0
  -20.2873   -9.2537   23.2809 F   0  0  0  0  0  0  0  0  0  0  0  0
  1  2  1  0  0  0  0
  1  5  2  0  0  0  0
  2  6  2  0  0  0  0
  3  8  2  0  0  0  0
  3 15  1  0  0  0  0
  4  9  1  0  0  0  0
  4 15  2  0  0  0  0
  5 17  1  0  0  0  0
  6 19  1  0  0  0  0
  7 10  2  0  0  0  0
  7 18  1  0  0  0  0
  8 21  1  0  0  0  0
  9 21  2  0  0  0  0
 10 22  1  0  0  0  0
 11 12  2  0  0  0  0
 11 23  1  0  0  0  0
 12 24  1  0  0  0  0
 13 20  1  0  0  0  0
 13 22  2  0  0  0  0
 14 24  2  0  0  0  0
 14 25  1  0  0  0  0
 15 26  1  0  0  0  0
 16 26  1  0  0  0  0
 16 27  2  0  0  0  0
 16 28  1  0  0  0  0
 17 19  2  0  0  0  0
 17 33  1  0  0  0  0
 18 20  2  0  0  0  0
 18 34  1  0  0  0  0
 19 48  1  0  0  0  0
 20 35  1  0  0  0  0
 21 85  1  0  0  0  0
 22 86  1  0  0  0  0
 23 25  2  0  0  0  0
 23 85  1  0  0  0  0
 24 87  1  0  0  0  0
 25 88  1  0  0  0  0
 26 68  2  0  0  0  0
 27 69  1  0  0  0  0
 27 73  1  0  0  0  0
 28 74  1  0  0  0  0
 28 80  2  0  0  0  0
 29 49  1  0  0  0  0
 29 75  1  0  0  0  0
 29 81  2  0  0  0  0
 30 65  1  0  0  0  0
 30 70  1  0  0  0  0
 30 82  2  0  0  0  0
 31 66  1  0  0  0  0
 31 76  1  0  0  0  0
 31 83  2  0  0  0  0
 32 71  1  0  0  0  0
 32 72  1  0  0  0  0
 32 84  2  0  0  0  0
 33 36  1  0  0  0  0
 34 49  1  0  0  0  0
 35 70  1  0  0  0  0
 36 38  1  0  0  0  0
 37 39  1  0  0  0  0
 37 41  1  0  0  0  0
 38 48  1  0  0  0  0
 39 51  1  0  0  0  0
 40 44  1  0  0  0  0
 40 53  1  0  0  0  0
 41 71  1  0  0  0  0
 42 45  1  0  0  0  0
 42 72  1  0  0  0  0
 43 51  1  0  0  0  0
 43 71  1  0  0  0  0
 44 78  1  0  0  0  0
 45 77  1  0  0  0  0
 46 50  1  0  0  0  0
 46 78  1  0  0  0  0
 47 52  1  0  0  0  0
 47 77  1  0  0  0  0
 48 75  1  0  0  0  0
 49 70  1  0  0  0  0
 50 53  1  0  0  0  0
 50 54  1  0  0  0  0
 51 69  1  0  0  0  0
 52 55  1  0  0  0  0
 52 72  1  0  0  0  0
 53 56  1  0  0  0  0
 53 62  1  0  0  0  0
 57 66  1  0  0  0  0
 58 67  1  0  0  0  0
 59 67  1  0  0  0  0
 60 67  1  0  0  0  0
 61 79  1  0  0  0  0
 62 77  1  0  0  0  0
 63 64  1  0  0  0  0
 63 78  1  0  0  0  0
 64 86  1  0  0  0  0
 65 67  1  0  0  0  0
 65 76  1  0  0  0  0
 66 79  1  0  0  0  0
 68 69  1  0  0  0  0
M  CHG  3  77   1  78   1  79   1
M  ISO  4  32 100  64 101  72 100  86 101
M  END
> <Batch ID>
0175

> <Smiles>
CNC(C)C(=O)NC(C(=O)N1Cc2cc([101O:1][101CH2:1]CN3CCC(C)(CN4CC[100N:0]([100C:0](=O)N5CCCC(n6nc(-c7ccc(Oc8ccc(F)cc8F)cc7)c(C(N)=O)c6N)C5)C(C)C4)C(C)C3)ccc2CC1C(=O)NC1CCCc2ccccc21)C(C)(C)C

> <Shape>
0.243

> <Color>
0.083

> <Negative vol penalty>
0.000

$$$$

  -OEChem-04052322473D

 88 97  0     1  0  0  0  0  0999 V2000
  -25.2513  -29.7387   19.4970 C   0  0  0  0  0  0  0  0  0  0  0  0
  -24.5344  -28.8906   20.3335 C   0  0  0  0  0  0  0  0  0  0  0  0
  -28.6120  -19.5783   21.0107 C   0  0  0  0  0  0  0  0  0  0  0  0
  -30.2133  -19.0879   19.2693 C   0  0  0  0  0  0  0  0  0  0  0  0
  -26.6272  -29.5717   19.3548 C   0  0  0  0  0  0  0  0  0  0  0  0
  -25.1949  -27.8829   21.0372 C   0  0  0  0  0  0  0  0  0  0  0  0
  -23.0101  -23.4856   24.6453 C   0  0  0  0  0  0  0  0  0  0  0  0
  -28.4276  -20.8556   20.4815 C   0  0  0  0  0  0  0  0  0  0  0  0
  -30.0289  -20.3652   18.7400 C   0  0  0  0  0  0  0  0  0  0  0  0
  -22.5867  -22.1637   24.5157 C   0  0  0  0  0  0  0  0  0  0  0  0
  -31.0554  -23.5146   19.4174 C   0  0  0  0  0  0  0  0  0  0  0  0
  -32.1924  -24.2343   19.0502 C   0  0  0  0  0  0  0  0  0  0  0  0
  -24.7672  -21.4032   25.2130 C   0  0  0  0  0  0  0  0  0  0  0  0
  -31.3885  -24.3434   16.7745 C   0  0  0  0  0  0  0  0  0  0  0  0
  -29.5048  -18.6945   20.4046 C   0  0  0  0  0  0  0  0  0  0  0  0
  -30.1536  -17.0476   22.2417 C   0  0  0  0  0  0  0  0  0  0  0  0
  -27.3021  -28.5533   20.0479 C   0  0  0  0  0  0  0  0  0  0  0  0
  -24.3208  -23.7768   25.0500 C   0  0  0  0  0  0  0  0  0  0  0  0
  -26.5868  -27.7135   20.9255 C   0  0  0  0  0  0  0  0  0  0  0  0
  -25.2040  -22.7297   25.3495 C   0  0  0  0  0  0  0  0  0  0  0  0
  -21.9274  -17.3534   23.1788 C   0  0  0  0  0  0  0  0  0  0  0  0
  -21.6458  -15.9919   23.1646 C   0  0  0  0  0  0  0  0  0  0  0  0
  -21.4268  -18.1506   24.2022 C   0  0  0  0  0  0  0  0  0  0  0  0
  -29.1361  -21.2491   19.3462 C   0  0  0  0  0  0  0  0  0  0  0  0
  -23.4661  -21.1222   24.7967 C   0  0  0  0  0  0  0  0  0  0  0  0
  -30.0849  -23.2092   18.4631 C   0  0  0  0  0  0  0  0  0  0  0  0
  -32.3590  -24.6487   17.7288 C   0  0  0  0  0  0  0  0  0  0  0  0
  -30.2514  -23.6237   17.1417 C   0  0  0  0  0  0  0  0  0  0  0  0
  -29.6961  -17.3751   20.9512 C   0  0  0  0  0  0  0  0  0  0  0  0
  -20.8651  -15.4804   24.1887 C   0  0  0  0  0  0  0  0  0  0  0  0
  -20.6557  -17.5425   25.1797 C   0  0  0  0  0  0  0  0  0  0  0  0
  -30.1591  -15.6743   22.2658 C   0  0  0  0  0  0  0  0  0  0  0  0
  -30.5389  -17.9078   23.3220 C   0  0  0  0  0  0  0  0  0  0  0  0
  -26.7947  -25.2756   23.7320 C   0  0  0  0  0  0  0  0  0  0  0  0
  -28.1274  -24.8223   26.6544 C   0  0  0  0  0  0  0  0  0  0  0  0
  -28.2113  -23.0226   29.5529 C   0  0  0  0  0  0  0  0  0  0  0  0
  -27.1927  -11.4985   19.4065 C   0  0  0  0  0  0  0  0  0  0  0  0
  -28.7934  -28.4225   19.8631 C   0  0  0  0  0  0  0  0  0  0  0  0
  -24.7540  -25.2082   25.2108 C   0  0  0  0  0  0  0  0  0  0  0  0
  -26.6153  -22.9890   25.8071 C   0  0  0  0  0  0  0  0  0  0  0  0
  -29.3292  -27.0620   20.2971 C   0  0  0  0  0  0  0  0  0  0  0  0
  -30.6301  -11.8709   19.4106 C   0  0  0  0  0  0  0  0  0  0  0  0
  -28.8080  -26.7166   21.6841 C   0  0  0  0  0  0  0  0  0  0  0  0
  -30.8404  -13.2918   19.9334 C   0  0  0  0  0  0  0  0  0  0  0  0
  -24.6786  -12.1851   22.0398 C   0  0  0  0  0  0  0  0  0  0  0  0
  -24.7556  -14.1410   20.4531 C   0  0  0  0  0  0  0  0  0  0  0  0
  -29.4527  -11.8136   18.4439 C   0  0  0  0  0  0  0  0  0  0  0  0
  -25.2773  -11.3009   20.9495 C   0  0  0  0  0  0  0  0  0  0  0  0
  -25.3473  -13.2194   19.3917 C   0  0  0  0  0  0  0  0  0  0  0  0
  -28.3666  -13.7407   19.5495 C   0  0  0  0  0  0  0  0  0  0  0  0
  -27.2792  -26.5911   21.6773 C   0  0  1  0  0  0  0  0  0  0  0  0
  -26.2671  -25.3867   25.1345 C   0  0  1  0  0  0  0  0  0  0  0  0
  -23.8875  -13.3588   21.4479 C   0  0  0  0  0  0  0  0  0  0  0  0
  -29.5429  -13.8552   20.5398 C   0  0  2  0  0  0  0  0  0  0  0  0
  -22.7633  -17.9589   22.0966 C   0  0  0  0  0  0  0  0  0  0  0  0
  -20.5292  -14.0254   24.2273 C   0  0  0  0  0  0  0  0  0  0  0  0
  -20.0881  -18.3470   26.3031 C   0  0  0  0  0  0  0  0  0  0  0  0
  -29.4331  -22.8651   31.7392 C   0  0  0  0  0  0  0  0  0  0  0  0
  -30.4956  -23.5239   25.2347 C   0  0  0  0  0  0  0  0  0  0  0  0
  -31.1981  -22.5609   27.4364 C   0  0  0  0  0  0  0  0  0  0  0  0
  -31.1154  -25.0350   27.1286 C   0  0  0  0  0  0  0  0  0  0  0  0
  -25.7437  -23.5423   31.1019 C   0  0  0  0  0  0  0  0  0  0  0  0
  -22.1752  -15.1013   22.0690 C   0  0  0  0  0  0  0  0  0  0  0  0
  -21.7111  -19.6147   24.2456 C   0  0  0  0  0  0  0  0  0  1  0  0
  -23.3664  -14.2755   22.5521 C   0  0  0  0  0  0  0  0  0  0  0  0
  -28.9541  -23.7338   27.2952 C   0  0  1  0  0  0  0  0  0  0  0  0
  -28.2382  -23.4563   31.0074 C   0  0  2  0  0  0  0  0  0  0  0  0
  -30.4149  -23.7082   26.7633 C   0  0  0  0  0  0  0  0  0  0  0  0
  -29.4305  -16.2967   20.2092 N   0  0  0  0  0  0  0  0  0  0  0  0
  -20.3610  -16.2232   25.1994 N   0  0  0  0  0  0  0  0  0  0  0  0
  -29.7221  -15.2782   21.0360 N   0  0  0  0  0  0  0  0  0  0  0  0
  -26.9935  -24.4054   25.9429 N   0  0  0  0  0  0  0  0  0  0  0  0
  -28.2419  -12.3613   19.0552 N   0  0  0  0  0  0  0  0  0  0  0  0
  -26.0593  -12.0845   19.9942 N   0  0  0  0  0  0  0  0  0  0  0  0
  -30.4953  -14.7791   23.2186 N   0  0  0  0  0  0  0  0  0  0  0  0
  -31.8795  -18.3063   23.4133 N   0  0  0  0  0  0  0  0  0  0  0  0
  -26.8093  -26.4716   23.0400 N   0  0  0  0  0  0  0  0  0  0  0  0
  -28.8465  -23.9342   28.7363 N   0  0  0  0  0  0  0  0  0  0  0  0
  -26.9960  -23.0150   31.7025 N   0  3  0  0  0  0  0  0  0  0  0  0
  -29.7220  -18.2979   24.1904 O   0  0  0  0  0  0  0  0  0  0  0  0
  -27.1627  -24.1857   23.3095 O   0  0  0  0  0  0  0  0  0  0  0  0
  -28.4710  -25.9997   26.7865 O   0  0  0  0  0  0  0  0  0  0  0  0
  -27.6832  -21.9777   29.1790 O   0  0  0  0  0  0  0  0  0  0  0  0
  -27.2633  -10.2786   19.2124 O   0  0  0  0  0  0  0  0  0  0  0  0
  -28.9562  -22.4953   18.8293 O   0  0  0  0  0  0  0  0  0  0  0  0
  -23.0527  -19.8219   24.6695 O   0  0  0  0  0  0  0  0  0  1  0  0
  -33.4502  -25.3412   17.3767 F   0  0  0  0  0  0  0  0  0  0  0  0
  -29.3220  -23.3344   16.2207 F   0  0  0  0  0  0  0  0  0  0  0  0
  1  2  1  0  0  0  0
  1  5  2  0  0  0  0
  2  6  2  0  0  0  0
  3  8  2  0  0  0  0
  3 15  1  0  0  0  0
  4  9  1  0  0  0  0
  4 15  2  0  0  0  0
  5 17  1  0  0  0  0
  6 19  1  0  0  0  0
  7 10  2  0  0  0  0
  7 18  1  0  0  0  0
  8 24  1  0  0  0  0
  9 24  2  0  0  0  0
 10 25  1  0  0  0  0
 11 12  2  0  0  0  0
 11 26  1  0  0  0  0
 12 27  1  0  0  0  0
 13 20  1  0  0  0  0
 13 25  2  0  0  0  0
 14 27  2  0  0  0  0
 14 28  1  0  0  0  0
 15 29  1  0  0  0  0
 16 29  1  0  0  0  0
 16 32  2  0  0  0  0
 16 33  1  0  0  0  0
 17 19  2  0  0  0  0
 17 38  1  0  0  0  0
 18 20  2  0  0  0  0
 18 39  1  0  0  0  0
 19 51  1  0  0  0  0
 20 40  1  0  0  0  0
 21 22  1  0  0  0  0
 21 23  2  0  0  0  0
 21 55  1  0  0  0  0
 22 30  2  0  0  0  0
 22 63  1  0  0  0  0
 23 31  1  0  0  0  0
 23 64  1  0  0  0  0
 24 85  1  0  0  0  0
 25 86  1  0  0  0  0
 26 28  2  0  0  0  0
 26 85  1  0  0  0  0
 27 87  1  0  0  0  0
 28 88  1  0  0  0  0
 29 69  2  0  0  0  0
 30 56  1  0  0  0  0
 30 70  1  0  0  0  0
 31 57  1  0  0  0  0
 31 70  2  0  0  0  0
 32 71  1  0  0  0  0
 32 75  1  0  0  0  0
 33 76  1  0  0  0  0
 33 80  2  0  0  0  0
 34 52  1  0  0  0  0
 34 77  1  0  0  0  0
 34 81  2  0  0  0  0
 35 66  1  0  0  0  0
 35 72  1  0  0  0  0
 35 82  2  0  0  0  0
 36 67  1  0  0  0  0
 36 78  1  0  0  0  0
 36 83  2  0  0  0  0
 37 73  1  0  0  0  0
 37 74  1  0  0  0  0
 37 84  2  0  0  0  0
 38 41  1  0  0  0  0
 39 52  1  0  0  0  0
 40 72  1  0  0  0  0
 41 43  1  0  0  0  0
 42 44  1  0  0  0  0
 42 47  1  0  0  0  0
 43 51  1  0  0  0  0
 44 54  1  0  0  0  0
 45 48  1  0  0  0  0
 45 53  1  0  0  0  0
 46 49  1  0  0  0  0
 46 53  1  0  0  0  0
 47 73  1  0  0  0  0
 48 74  1  0  0  0  0
 49 74  1  0  0  0  0
 50 54  1  0  0  0  0
 50 73  1  0  0  0  0
 51 77  1  0  0  0  0
 52 72  1  0  0  0  0
 53 65  1  0  0  0  0
 54 71  1  0  0  0  0
 58 67  1  0  0  0  0
 59 68  1  0  0  0  0
 60 68  1  0  0  0  0
 61 68  1  0  0  0  0
 62 79  1  0  0  0  0
 63 65  1  0  0  0  0
 64 86  1  0  0  0  0
 66 68  1  0  0  0  0
 66 78  1  0  0  0  0
 67 79  1  0  0  0  0
 69 71  1  0  0  0  0
M  CHG  1  79   1
M  ISO  4  37 100  64 101  74 100  86 101
M  END
> <Batch ID>
0175

> <Smiles>
CNC(C)C(=O)NC(C(=O)N1Cc2cc([101O:1][101CH2:1]c3c(C)nc(C)c(CCC4CC[100N:0]([100C:0](=O)N5CCCC(n6nc(-c7ccc(Oc8ccc(F)cc8F)cc7)c(C(N)=O)c6N)C5)CC4)c3C)ccc2CC1C(=O)NC1CCCc2ccccc21)C(C)(C)C

> <Shape>
0.200

> <Color>
0.065

> <Negative vol penalty>
0.000

$$$$

  -OEChem-04052322473D

 86 96  0     1  0  0  0  0  0999 V2000
  -29.1394  -32.1680   21.1489 C   0  0  0  0  0  0  0  0  0  0  0  0
  -28.8943  -30.8487   21.5158 C   0  0  0  0  0  0  0  0  0  0  0  0
  -24.8806  -14.0827   23.6734 C   0  0  0  0  0  0  0  0  0  0  0  0
  -24.0765  -15.6148   21.9872 C   0  0  0  0  0  0  0  0  0  0  0  0
  -28.1495  -33.1343   21.3234 C   0  0  0  0  0  0  0  0  0  0  0  0
  -27.6594  -30.4950   22.0584 C   0  0  0  0  0  0  0  0  0  0  0  0
  -25.8114  -26.2239   20.0617 C   0  0  0  0  0  0  0  0  0  0  0  0
  -28.6765  -20.0456   23.7391 C   0  0  0  0  0  0  0  0  0  0  0  0
  -24.5097  -14.9850   24.6702 C   0  0  0  0  0  0  0  0  0  0  0  0
  -23.7055  -16.5171   22.9841 C   0  0  0  0  0  0  0  0  0  0  0  0
  -26.3490  -25.0220   20.5202 C   0  0  0  0  0  0  0  0  0  0  0  0
  -21.1635  -16.8953   25.1787 C   0  0  0  0  0  0  0  0  0  0  0  0
  -19.9097  -17.4970   25.0721 C   0  0  0  0  0  0  0  0  0  0  0  0
  -28.5393  -18.9252   22.9272 C   0  0  0  0  0  0  0  0  0  0  0  0
  -24.4443  -24.7307   21.9716 C   0  0  0  0  0  0  0  0  0  0  0  0
  -20.9597  -19.6715   24.9941 C   0  0  0  0  0  0  0  0  0  0  0  0
  -24.6641  -14.3976   22.3318 C   0  0  0  0  0  0  0  0  0  0  0  0
  -24.2589  -12.4410   20.7459 C   0  0  0  0  0  0  0  0  0  0  0  0
  -26.8985  -32.7904   21.8595 C   0  0  0  0  0  0  0  0  0  0  0  0
  -24.5894  -26.6944   20.5636 C   0  0  0  0  0  0  0  0  0  0  0  0
  -26.6524  -31.4578   22.2415 C   0  0  0  0  0  0  0  0  0  0  0  0
  -28.3206  -21.2983   23.2517 C   0  0  0  0  0  0  0  0  0  0  0  0
  -23.8921  -25.9376   21.5160 C   0  0  0  0  0  0  0  0  0  0  0  0
  -23.9221  -16.2022   24.3256 C   0  0  0  0  0  0  0  0  0  0  0  0
  -25.6669  -24.2766   21.4774 C   0  0  0  0  0  0  0  0  0  0  0  0
  -22.3155  -17.6817   25.1931 C   0  0  0  0  0  0  0  0  0  0  0  0
  -19.8077  -18.8850   24.9798 C   0  0  0  0  0  0  0  0  0  0  0  0
  -22.2136  -19.0698   25.1007 C   0  0  0  0  0  0  0  0  0  0  0  0
  -25.0476  -13.4662   21.3016 C   0  0  0  0  0  0  0  0  0  0  0  0
  -28.0455  -19.1094   21.6458 C   0  0  0  0  0  0  0  0  0  0  0  0
  -27.8367  -21.3763   21.9557 C   0  0  0  0  0  0  0  0  0  0  0  0
  -25.0751  -11.8462   19.8150 C   0  0  0  0  0  0  0  0  0  0  0  0
  -22.9092  -12.0605   21.0445 C   0  0  0  0  0  0  0  0  0  0  0  0
  -23.6710  -29.2761   22.1745 C   0  0  0  0  0  0  0  0  0  0  0  0
  -20.7081  -28.0500   21.6841 C   0  0  0  0  0  0  0  0  0  0  0  0
  -18.7743  -25.3087   21.0577 C   0  0  0  0  0  0  0  0  0  0  0  0
  -29.4333  -15.2038   20.2535 C   0  0  0  0  0  0  0  0  0  0  0  0
  -25.8764  -33.8787   22.0732 C   0  0  0  0  0  0  0  0  0  0  0  0
  -24.0100  -27.9795   20.0391 C   0  0  0  0  0  0  0  0  0  0  0  0
  -22.5670  -26.3887   22.0717 C   0  0  0  0  0  0  0  0  0  0  0  0
  -24.4636  -33.3499   22.3073 C   0  0  0  0  0  0  0  0  0  0  0  0
  -29.2812  -11.6704   20.7622 C   0  0  0  0  0  0  0  0  0  0  0  0
  -29.9617  -17.6929   17.6700 C   0  0  0  0  0  0  0  0  0  0  0  0
  -28.4310  -22.3396   25.6133 C   0  0  0  0  0  0  0  0  0  0  0  0
  -27.2786  -22.9850   24.9093 C   0  0  0  0  0  0  0  0  0  0  0  0
  -24.4813  -32.2104   23.3213 C   0  0  0  0  0  0  0  0  0  0  0  0
  -28.3720  -11.1546   19.6523 C   0  0  0  0  0  0  0  0  0  0  0  0
  -29.2054  -18.5501   18.6752 C   0  0  0  0  0  0  0  0  0  0  0  0
  -30.1253  -12.8342   20.2661 C   0  0  0  0  0  0  0  0  0  0  0  0
  -29.4281  -16.2976   17.9551 C   0  0  0  0  0  0  0  0  0  0  0  0
  -28.3341  -13.5238   18.6842 C   0  0  0  0  0  0  0  0  0  0  0  0
  -28.4656  -22.5032   24.1157 C   0  0  0  0  0  0  0  0  0  0  0  0
  -25.3168  -31.0304   22.8105 C   0  0  1  0  0  0  0  0  0  0  0  0
  -23.0090  -28.6184   20.9968 C   0  0  1  0  0  0  0  0  0  0  0  0
  -27.5071  -12.2653   19.0351 C   0  0  2  0  0  0  0  0  0  0  0  0
  -29.1400  -17.6586   19.9183 C   0  0  1  0  0  0  0  0  0  0  0  0
  -16.3828  -24.6141   20.7484 C   0  0  0  0  0  0  0  0  0  0  0  0
  -20.2624  -28.2525   24.6958 C   0  0  0  0  0  0  0  0  0  0  0  0
  -18.3092  -26.7072   24.4403 C   0  0  0  0  0  0  0  0  0  0  0  0
  -18.2980  -28.9272   23.3027 C   0  0  0  0  0  0  0  0  0  0  0  0
  -19.2860  -24.3560   18.3028 C   0  0  0  0  0  0  0  0  0  0  0  0
  -27.8835  -17.9184   20.7394 C   0  0  0  0  0  0  0  0  0  0  0  0
  -27.4400  -22.6949   21.3766 C   0  0  0  0  0  0  0  0  0  1  0  0
  -19.8086  -27.0962   22.4324 C   0  0  1  0  0  0  0  0  0  0  0  0
  -17.6579  -25.0709   20.0569 C   0  0  2  0  0  0  0  0  0  0  0  0
  -19.1954  -27.7380   23.7089 C   0  0  0  0  0  0  0  0  0  0  0  0
  -26.2710  -13.5221   20.7683 N   0  0  0  0  0  0  0  0  0  0  0  0
  -27.6894  -20.3104   21.1373 N   0  0  0  0  0  0  0  0  0  0  0  0
  -26.2571  -12.5246   19.8679 N   0  0  0  0  0  0  0  0  0  0  0  0
  -22.0448  -27.6550   21.5320 N   0  0  0  0  0  0  0  0  0  0  0  0
  -29.3022  -13.9133   19.7196 N   0  0  0  0  0  0  0  0  0  0  0  0
  -29.2025  -16.2861   19.4014 N   0  0  0  0  0  0  0  0  0  0  0  0
  -24.8898  -10.8142   18.9646 N   0  0  0  0  0  0  0  0  0  0  0  0
  -22.2149  -12.7776   22.0283 N   0  0  0  0  0  0  0  0  0  0  0  0
  -24.5702  -30.2681   21.8328 N   0  0  0  0  0  0  0  0  0  0  0  0
  -18.8212  -26.6244   21.4675 N   0  0  0  0  0  0  0  0  0  0  0  0
  -18.0587  -24.0265   19.0723 N   0  3  0  0  0  0  0  0  0  0  0  0
  -22.3414  -11.1021   20.4678 O   0  0  0  0  0  0  0  0  0  0  0  0
  -23.3859  -28.9116   23.3092 O   0  0  0  0  0  0  0  0  0  0  0  0
  -20.2404  -29.1033   21.2443 O   0  0  0  0  0  0  0  0  0  0  0  0
  -19.5269  -24.4157   21.4407 O   0  0  0  0  0  0  0  0  0  0  0  0
  -29.7522  -15.3819   21.4366 O   0  0  0  0  0  0  0  0  0  0  0  0
  -23.5597  -17.0828   25.2981 O   0  0  0  0  0  0  0  0  0  0  0  0
  -26.1935  -23.0951   21.9304 O   0  0  0  0  0  0  0  0  0  1  0  0
  -18.6036  -19.4626   24.8758 F   0  0  0  0  0  0  0  0  0  0  0  0
  -23.3168  -19.8304   25.1128 F   0  0  0  0  0  0  0  0  0  0  0  0
  1  2  1  0  0  0  0
  1  5  2  0  0  0  0
  2  6  2  0  0  0  0
  3  9  2  0  0  0  0
  3 17  1  0  0  0  0
  4 10  1  0  0  0  0
  4 17  2  0  0  0  0
  5 19  1  0  0  0  0
  6 21  1  0  0  0  0
  7 11  2  0  0  0  0
  7 20  1  0  0  0  0
  8 14  2  0  0  0  0
  8 22  1  0  0  0  0
  9 24  1  0  0  0  0
 10 24  2  0  0  0  0
 11 25  1  0  0  0  0
 12 13  2  0  0  0  0
 12 26  1  0  0  0  0
 13 27  1  0  0  0  0
 14 30  1  0  0  0  0
 15 23  1  0  0  0  0
 15 25  2  0  0  0  0
 16 27  2  0  0  0  0
 16 28  1  0  0  0  0
 17 29  1  0  0  0  0
 18 29  1  0  0  0  0
 18 32  2  0  0  0  0
 18 33  1  0  0  0  0
 19 21  2  0  0  0  0
 19 38  1  0  0  0  0
 20 23  2  0  0  0  0
 20 39  1  0  0  0  0
 21 53  1  0  0  0  0
 22 31  2  0  0  0  0
 22 52  1  0  0  0  0
 23 40  1  0  0  0  0
 24 83  1  0  0  0  0
 25 84  1  0  0  0  0
 26 28  2  0  0  0  0
 26 83  1  0  0  0  0
 27 85  1  0  0  0  0
 28 86  1  0  0  0  0
 29 67  2  0  0  0  0
 30 62  1  0  0  0  0
 30 68  2  0  0  0  0
 31 63  1  0  0  0  0
 31 68  1  0  0  0  0
 32 69  1  0  0  0  0
 32 73  1  0  0  0  0
 33 74  1  0  0  0  0
 33 78  2  0  0  0  0
 34 54  1  0  0  0  0
 34 75  1  0  0  0  0
 34 79  2  0  0  0  0
 35 64  1  0  0  0  0
 35 70  1  0  0  0  0
 35 80  2  0  0  0  0
 36 65  1  0  0  0  0
 36 76  1  0  0  0  0
 36 81  2  0  0  0  0
 37 71  1  0  0  0  0
 37 72  1  0  0  0  0
 37 82  2  0  0  0  0
 38 41  1  0  0  0  0
 39 54  1  0  0  0  0
 40 70  1  0  0  0  0
 41 46  1  0  0  0  0
 42 47  1  0  0  0  0
 42 49  1  0  0  0  0
 43 48  1  0  0  0  0
 43 50  1  0  0  0  0
 44 45  1  0  0  0  0
 44 52  1  0  0  0  0
 45 52  1  0  0  0  0
 46 53  1  0  0  0  0
 47 55  1  0  0  0  0
 48 56  1  0  0  0  0
 49 71  1  0  0  0  0
 50 72  1  0  0  0  0
 51 55  1  0  0  0  0
 51 71  1  0  0  0  0
 53 75  1  0  0  0  0
 54 70  1  0  0  0  0
 55 69  1  0  0  0  0
 56 62  1  0  0  0  0
 56 72  1  0  0  0  0
 57 65  1  0  0  0  0
 58 66  1  0  0  0  0
 59 66  1  0  0  0  0
 60 66  1  0  0  0  0
 61 77  1  0  0  0  0
 63 84  1  0  0  0  0
 64 66  1  0  0  0  0
 64 76  1  0  0  0  0
 65 77  1  0  0  0  0
 67 69  1  0  0  0  0
M  CHG  1  77   1
M  ISO  4  37 100  63 101  72 100  84 101
M  END
> <Batch ID>
0175

> <Smiles>
CNC(C)C(=O)NC(C(=O)N1Cc2cc([101O:1][101CH2:1]c3nc(CC4CCC[100N:0]4[100C:0](=O)N4CCCC(n5nc(-c6ccc(Oc7ccc(F)cc7F)cc6)c(C(N)=O)c5N)C4)ccc3C3CC3)ccc2CC1C(=O)NC1CCCc2ccccc21)C(C)(C)C

> <Shape>
0.237

> <Color>
0.076

> <Negative vol penalty>
0.000

$$$$

  -OEChem-04052322473D

 89 99  0     1  0  0  0  0  0999 V2000
  -28.6105  -10.2892   17.0039 C   0  0  0  0  0  0  0  0  0  0  0  0
  -27.4628  -11.0458   16.7903 C   0  0  0  0  0  0  0  0  0  0  0  0
  -24.1479  -30.4905   20.1302 C   0  0  0  0  0  0  0  0  0  0  0  0
  -25.2379  -28.9249   21.6127 C   0  0  0  0  0  0  0  0  0  0  0  0
  -29.4696  -10.6093   18.0544 C   0  0  0  0  0  0  0  0  0  0  0  0
  -27.1730  -12.1225   17.6277 C   0  0  0  0  0  0  0  0  0  0  0  0
  -24.4752  -17.3899   16.0520 C   0  0  0  0  0  0  0  0  0  0  0  0
  -25.1717  -31.4119   20.3505 C   0  0  0  0  0  0  0  0  0  0  0  0
  -26.2617  -29.8463   21.8330 C   0  0  0  0  0  0  0  0  0  0  0  0
  -23.1603  -17.8399   16.1622 C   0  0  0  0  0  0  0  0  0  0  0  0
  -28.9776  -31.9221   23.0677 C   0  0  0  0  0  0  0  0  0  0  0  0
  -29.4055  -32.1141   24.3813 C   0  0  0  0  0  0  0  0  0  0  0  0
  -19.5981  -16.2690   20.7481 C   0  0  0  0  0  0  0  0  0  0  0  0
  -19.4918  -18.9615   20.0167 C   0  0  0  0  0  0  0  0  0  0  0  0
  -23.7214  -18.9553   18.2263 C   0  0  0  0  0  0  0  0  0  0  0  0
  -27.1807  -32.8225   25.0023 C   0  0  0  0  0  0  0  0  0  0  0  0
  -19.8870  -16.9646   23.0879 C   0  0  0  0  0  0  0  0  0  0  0  0
  -19.7160  -17.2623   21.7344 C   0  0  0  0  0  0  0  0  0  0  0  0
  -19.6628  -18.6233   21.3690 C   0  0  0  0  0  0  0  0  0  0  0  0
  -24.1810  -29.2470   20.7613 C   0  0  0  0  0  0  0  0  0  0  0  0
  -23.0687  -27.3078   19.5325 C   0  0  0  0  0  0  0  0  0  0  0  0
  -29.1951  -11.6963   18.8992 C   0  0  0  0  0  0  0  0  0  0  0  0
  -25.4221  -17.7106   17.0354 C   0  0  0  0  0  0  0  0  0  0  0  0
  -28.0285  -12.4566   18.6912 C   0  0  0  0  0  0  0  0  0  0  0  0
  -25.0483  -18.5102   18.1249 C   0  0  0  0  0  0  0  0  0  0  0  0
  -19.7823  -19.5977   22.3667 C   0  0  0  0  0  0  0  0  0  0  0  0
  -19.4287  -16.6229   19.4098 C   0  0  0  0  0  0  0  0  0  0  0  0
  -19.3757  -17.9661   19.0449 C   0  0  0  0  0  0  0  0  0  0  0  0
  -26.2286  -31.0898   21.2018 C   0  0  0  0  0  0  0  0  0  0  0  0
  -22.7825  -18.6204   17.2509 C   0  0  0  0  0  0  0  0  0  0  0  0
  -27.6513  -32.1804   22.7213 C   0  0  0  0  0  0  0  0  0  0  0  0
  -28.5070  -32.5643   25.3486 C   0  0  0  0  0  0  0  0  0  0  0  0
  -26.7528  -32.6305   23.6886 C   0  0  0  0  0  0  0  0  0  0  0  0
  -23.1234  -28.2951   20.5346 C   0  0  0  0  0  0  0  0  0  0  0  0
  -19.9488  -19.1831   23.6792 C   0  0  0  0  0  0  0  0  0  0  0  0
  -21.8700  -26.6712   19.7428 C   0  0  0  0  0  0  0  0  0  0  0  0
  -24.0167  -26.9942   18.5036 C   0  0  0  0  0  0  0  0  0  0  0  0
  -27.1931  -16.0354   19.0752 C   0  0  0  0  0  0  0  0  0  0  0  0
  -28.5006  -18.9341   19.7157 C   0  0  0  0  0  0  0  0  0  0  0  0
  -28.1654  -22.3303   19.7025 C   0  0  0  0  0  0  0  0  0  0  0  0
  -18.3819  -24.2852   23.4406 C   0  0  0  0  0  0  0  0  0  0  0  0
  -30.1288  -11.9748   20.0504 C   0  0  0  0  0  0  0  0  0  0  0  0
  -26.8430  -17.2397   16.8882 C   0  0  0  0  0  0  0  0  0  0  0  0
  -26.0317  -18.8994   19.1973 C   0  0  0  0  0  0  0  0  0  0  0  0
  -29.9442  -13.3609   20.6627 C   0  0  0  0  0  0  0  0  0  0  0  0
  -17.9580  -27.8633   22.7240 C   0  0  0  0  0  0  0  0  0  0  0  0
  -28.4640  -13.6521   20.8882 C   0  0  0  0  0  0  0  0  0  0  0  0
  -19.2850  -28.2215   22.0500 C   0  0  0  0  0  0  0  0  0  0  0  0
  -20.9515  -21.9160   22.4441 C   0  0  0  0  0  0  0  0  0  0  0  0
  -18.1135  -26.7242   23.7300 C   0  0  0  0  0  0  0  0  0  0  0  0
  -20.4253  -23.3415   22.3929 C   0  0  0  0  0  0  0  0  0  0  0  0
  -18.5850  -21.8394   22.7188 C   0  0  0  0  0  0  0  0  0  0  0  0
  -20.1019  -25.8894   22.5396 C   0  0  0  0  0  0  0  0  0  0  0  0
  -19.7332  -21.0743   22.0397 C   0  0  2  0  0  0  0  0  0  0  0  0
  -27.6926  -13.6472   19.5629 C   0  0  1  0  0  0  0  0  0  0  0  0
  -27.5986  -17.1970   18.2128 C   0  0  1  0  0  0  0  0  0  0  0  0
  -19.9667  -26.9714   21.4601 C   0  0  2  0  0  0  0  0  0  0  0  0
  -19.3063  -15.5426   18.3856 C   0  0  0  0  0  0  0  0  0  0  0  0
  -29.3875  -24.4328   20.3214 C   0  0  0  0  0  0  0  0  0  0  0  0
  -27.8886  -18.4201   22.6603 C   0  0  0  0  0  0  0  0  0  0  0  0
  -28.2355  -20.8626   23.0869 C   0  0  0  0  0  0  0  0  0  0  0  0
  -30.1168  -19.4692   22.2256 C   0  0  0  0  0  0  0  0  0  0  0  0
  -28.1447  -23.3031   16.9074 C   0  0  0  0  0  0  0  0  0  0  0  0
  -19.1942  -18.3664   17.6170 C   0  0  0  0  0  0  0  0  0  0  0  0
  -20.4795  -18.2397   16.7954 C   0  0  0  0  0  0  0  0  0  1  0  0
  -28.1995  -20.0523   20.6842 C   0  0  1  0  0  0  0  0  0  0  0  0
  -29.0897  -23.4319   19.2159 C   0  0  2  0  0  0  0  0  0  0  0  0
  -28.5909  -19.6923   22.1452 C   0  0  0  0  0  0  0  0  0  0  0  0
  -20.0044  -17.8908   24.0660 N   0  0  0  0  0  0  0  0  0  0  0  0
  -22.0451  -28.2900   21.3228 N   0  0  0  0  0  0  0  0  0  0  0  0
  -21.3015  -27.2918   20.8160 N   0  0  0  0  0  0  0  0  0  0  0  0
  -27.4075  -18.4092   19.0118 N   0  0  0  0  0  0  0  0  0  0  0  0
  -18.7910  -25.5828   23.1185 N   0  0  0  0  0  0  0  0  0  0  0  0
  -19.0248  -23.2360   22.7789 N   0  0  0  0  0  0  0  0  0  0  0  0
  -20.0694  -20.1738   24.6860 N   0  0  0  0  0  0  0  0  0  0  0  0
  -21.2572  -25.6466   19.1125 N   0  0  0  0  0  0  0  0  0  0  0  0
  -25.1966  -27.7472   18.4302 N   0  0  0  0  0  0  0  0  0  0  0  0
  -27.9177  -14.8820   18.8425 N   0  0  0  0  0  0  0  0  0  0  0  0
  -28.8702  -21.2374   20.1607 N   0  0  0  0  0  0  0  0  0  0  0  0
  -28.4691  -24.1626   18.0750 N   0  3  0  0  0  0  0  0  0  0  0  0
  -23.8158  -26.0844   17.6638 O   0  0  0  0  0  0  0  0  0  0  0  0
  -26.2907  -16.1755   19.8923 O   0  0  0  0  0  0  0  0  0  0  0  0
  -29.6639  -18.5457   19.5831 O   0  0  0  0  0  0  0  0  0  0  0  0
  -26.9406  -22.4309   19.6818 O   0  0  0  0  0  0  0  0  0  0  0  0
  -17.4553  -24.0823   24.2351 O   0  0  0  0  0  0  0  0  0  0  0  0
  -27.2279  -31.9885   21.4169 O   0  0  0  0  0  0  0  0  0  0  0  0
  -21.4905  -19.0635   17.3620 O   0  0  0  0  0  0  0  0  0  1  0  0
  -28.9176  -32.7471   26.6104 F   0  0  0  0  0  0  0  0  0  0  0  0
  -25.4771  -32.8792   23.3622 F   0  0  0  0  0  0  0  0  0  0  0  0
  1  2  1  0  0  0  0
  1  5  2  0  0  0  0
  2  6  2  0  0  0  0
  3  8  2  0  0  0  0
  3 20  1  0  0  0  0
  4  9  1  0  0  0  0
  4 20  2  0  0  0  0
  5 22  1  0  0  0  0
  6 24  1  0  0  0  0
  7 10  2  0  0  0  0
  7 23  1  0  0  0  0
  8 29  1  0  0  0  0
  9 29  2  0  0  0  0
 10 30  1  0  0  0  0
 11 12  2  0  0  0  0
 11 31  1  0  0  0  0
 12 32  1  0  0  0  0
 13 18  2  0  0  0  0
 13 27  1  0  0  0  0
 14 19  2  0  0  0  0
 14 28  1  0  0  0  0
 15 25  1  0  0  0  0
 15 30  2  0  0  0  0
 16 32  2  0  0  0  0
 16 33  1  0  0  0  0
 17 18  1  0  0  0  0
 17 69  2  0  0  0  0
 18 19  1  0  0  0  0
 19 26  1  0  0  0  0
 20 34  1  0  0  0  0
 21 34  1  0  0  0  0
 21 36  2  0  0  0  0
 21 37  1  0  0  0  0
 22 24  2  0  0  0  0
 22 42  1  0  0  0  0
 23 25  2  0  0  0  0
 23 43  1  0  0  0  0
 24 55  1  0  0  0  0
 25 44  1  0  0  0  0
 26 35  2  0  0  0  0
 26 54  1  0  0  0  0
 27 28  2  0  0  0  0
 27 58  1  0  0  0  0
 28 64  1  0  0  0  0
 29 86  1  0  0  0  0
 30 87  1  0  0  0  0
 31 33  2  0  0  0  0
 31 86  1  0  0  0  0
 32 88  1  0  0  0  0
 33 89  1  0  0  0  0
 34 70  2  0  0  0  0
 35 69  1  0  0  0  0
 35 75  1  0  0  0  0
 36 71  1  0  0  0  0
 36 76  1  0  0  0  0
 37 77  1  0  0  0  0
 37 81  2  0  0  0  0
 38 56  1  0  0  0  0
 38 78  1  0  0  0  0
 38 82  2  0  0  0  0
 39 66  1  0  0  0  0
 39 72  1  0  0  0  0
 39 83  2  0  0  0  0
 40 67  1  0  0  0  0
 40 79  1  0  0  0  0
 40 84  2  0  0  0  0
 41 73  1  0  0  0  0
 41 74  1  0  0  0  0
 41 85  2  0  0  0  0
 42 45  1  0  0  0  0
 43 56  1  0  0  0  0
 44 72  1  0  0  0  0
 45 47  1  0  0  0  0
 46 48  1  0  0  0  0
 46 50  1  0  0  0  0
 47 55  1  0  0  0  0
 48 57  1  0  0  0  0
 49 51  1  0  0  0  0
 49 54  1  0  0  0  0
 50 73  1  0  0  0  0
 51 74  1  0  0  0  0
 52 54  1  0  0  0  0
 52 74  1  0  0  0  0
 53 57  1  0  0  0  0
 53 73  1  0  0  0  0
 55 78  1  0  0  0  0
 56 72  1  0  0  0  0
 57 71  1  0  0  0  0
 59 67  1  0  0  0  0
 60 68  1  0  0  0  0
 61 68  1  0  0  0  0
 62 68  1  0  0  0  0
 63 80  1  0  0  0  0
 64 65  1  0  0  0  0
 65 87  1  0  0  0  0
 66 68  1  0  0  0  0
 66 79  1  0  0  0  0
 67 80  1  0  0  0  0
 70 71  1  0  0  0  0
M  CHG  1  80   1
M  ISO  4  41 100  65 101  74 100  87 101
M  END
> <Batch ID>
0175

> <Smiles>
CNC(C)C(=O)NC(C(=O)N1Cc2cc([101O:1][101CH2:1]Cc3cc4c(C5CC[100N:0]([100C:0](=O)N6CCCC(n7nc(-c8ccc(Oc9ccc(F)cc9F)cc8)c(C(N)=O)c7N)C6)C5)c(N)ncc4cc3C)ccc2CC1C(=O)NC1CCCc2ccccc21)C(C)(C)C

> <Shape>
0.228

> <Color>
0.048

> <Negative vol penalty>
0.000

$$$$

  -OEChem-04052322473D

 85 94  0     1  0  0  0  0  0999 V2000
  -19.2363  -23.5498   23.0175 C   0  0  0  0  0  0  0  0  0  0  0  0
  -20.5938  -23.6585   22.7333 C   0  0  0  0  0  0  0  0  0  0  0  0
  -21.7743  -11.6347   22.7063 C   0  0  0  0  0  0  0  0  0  0  0  0
  -21.0744  -11.6846   20.3944 C   0  0  0  0  0  0  0  0  0  0  0  0
  -18.4109  -24.6682   22.9095 C   0  0  0  0  0  0  0  0  0  0  0  0
  -21.1266  -24.8856   22.3399 C   0  0  0  0  0  0  0  0  0  0  0  0
  -25.4789  -25.9590   24.6957 C   0  0  0  0  0  0  0  0  0  0  0  0
  -20.9855  -10.5045   22.9207 C   0  0  0  0  0  0  0  0  0  0  0  0
  -20.2857  -10.5544   20.6088 C   0  0  0  0  0  0  0  0  0  0  0  0
  -26.6281  -25.3198   24.2325 C   0  0  0  0  0  0  0  0  0  0  0  0
  -21.1784   -7.1822   22.3223 C   0  0  0  0  0  0  0  0  0  0  0  0
  -21.7399   -6.1266   23.0406 C   0  0  0  0  0  0  0  0  0  0  0  0
  -27.2313  -27.3068   23.0048 C   0  0  0  0  0  0  0  0  0  0  0  0
  -26.0155  -22.1636   18.6937 C   0  0  0  0  0  0  0  0  0  0  0  0
  -20.0011   -6.3342   24.7050 C   0  0  0  0  0  0  0  0  0  0  0  0
  -21.8187  -12.2248   21.4432 C   0  0  0  0  0  0  0  0  0  0  0  0
  -23.9801  -13.4249   20.8139 C   0  0  0  0  0  0  0  0  0  0  0  0
  -18.9356  -25.9119   22.5239 C   0  0  0  0  0  0  0  0  0  0  0  0
  -25.1912  -27.2754   24.3075 C   0  0  0  0  0  0  0  0  0  0  0  0
  -20.3072  -26.0215   22.2253 C   0  0  0  0  0  0  0  0  0  0  0  0
  -26.0791  -27.9614   23.4665 C   0  0  0  0  0  0  0  0  0  0  0  0
  -27.1984  -22.5116   19.3138 C   0  0  0  0  0  0  0  0  0  0  0  0
  -28.2580  -21.6094   19.3845 C   0  0  0  0  0  0  0  0  0  0  0  0
  -20.2412   -9.9643   21.8720 C   0  0  0  0  0  0  0  0  0  0  0  0
  -27.5030  -25.9927   23.3846 C   0  0  0  0  0  0  0  0  0  0  0  0
  -20.0283   -7.8139   22.7954 C   0  0  0  0  0  0  0  0  0  0  0  0
  -21.1513   -5.7025   24.2319 C   0  0  0  0  0  0  0  0  0  0  0  0
  -19.4396   -7.3899   23.9867 C   0  0  0  0  0  0  0  0  0  0  0  0
  -22.6329  -13.3927   21.2212 C   0  0  0  0  0  0  0  0  0  0  0  0
  -25.9525  -20.8809   18.1689 C   0  0  0  0  0  0  0  0  0  0  0  0
  -28.1093  -20.3620   18.8254 C   0  0  0  0  0  0  0  0  0  0  0  0
  -24.2872  -14.7621   20.7489 C   0  0  0  0  0  0  0  0  0  0  0  0
  -24.8738  -12.3429   20.5204 C   0  0  0  0  0  0  0  0  0  0  0  0
  -22.8343  -28.6753   22.6984 C   0  0  0  0  0  0  0  0  0  0  0  0
  -24.3893  -31.3915   23.5508 C   0  0  0  0  0  0  0  0  0  0  0  0
  -27.3108  -32.8838   24.4913 C   0  0  0  0  0  0  0  0  0  0  0  0
  -23.0012  -19.9842   19.2587 C   0  0  0  0  0  0  0  0  0  0  0  0
  -17.9955  -27.0818   22.3754 C   0  0  0  0  0  0  0  0  0  0  0  0
  -23.9611  -27.9600   24.8373 C   0  0  0  0  0  0  0  0  0  0  0  0
  -27.5708  -23.8217   19.9317 C   0  0  0  0  0  0  0  0  0  0  0  0
  -29.4474  -22.2126   20.0521 C   0  0  0  0  0  0  0  0  0  0  0  0
  -25.8263  -29.3825   23.0365 C   0  0  0  0  0  0  0  0  0  0  0  0
  -18.7070  -28.4310   22.3146 C   0  0  0  0  0  0  0  0  0  0  0  0
  -21.7246  -18.8113   22.3686 C   0  0  0  0  0  0  0  0  0  0  0  0
  -19.8888  -28.3685   21.3523 C   0  0  0  0  0  0  0  0  0  0  0  0
  -21.9525  -17.2998   22.3108 C   0  0  0  0  0  0  0  0  0  0  0  0
  -21.3483  -19.3779   21.0013 C   0  0  0  0  0  0  0  0  0  0  0  0
  -22.5149  -17.5339   19.8557 C   0  0  0  0  0  0  0  0  0  0  0  0
  -20.9269  -27.3411   21.8195 C   0  0  1  0  0  0  0  0  0  0  0  0
  -23.5040  -29.1258   23.9658 C   0  0  1  0  0  0  0  0  0  0  0  0
  -28.8073  -23.4227   20.7682 C   0  0  1  0  0  0  0  0  0  0  0  0
  -22.9514  -16.9254   21.1994 C   0  0  2  0  0  0  0  0  0  0  0  0
  -29.2179  -19.3673   18.8690 C   0  0  0  0  0  0  0  0  0  0  0  0
  -28.2783  -35.1229   25.0812 C   0  0  0  0  0  0  0  0  0  0  0  0
  -31.0012  -24.1127   21.7530 C   0  0  0  0  0  0  0  0  0  0  0  0
  -24.4073  -32.1590   20.5977 C   0  0  0  0  0  0  0  0  0  0  0  0
  -26.1663  -33.8615   21.1226 C   0  0  0  0  0  0  0  0  0  0  0  0
  -23.9063  -34.0444   22.1626 C   0  0  0  0  0  0  0  0  0  0  0  0
  -28.0419  -31.9804   27.2131 C   0  0  0  0  0  0  0  0  0  0  0  0
  -24.6944  -20.4329   17.5007 C   0  0  0  0  0  0  0  0  0  0  0  0
  -29.1122  -25.7648   21.6484 C   0  0  0  0  0  0  0  0  0  1  0  0
  -25.4863  -32.2312   22.9422 C   0  0  1  0  0  0  0  0  0  0  0  0
  -27.6302  -33.8544   25.6139 C   0  0  2  0  0  0  0  0  0  0  0  0
  -29.7823  -24.5743   20.9571 C   0  0  2  0  0  0  0  0  0  0  0  0
  -24.9956  -33.0466   21.7126 C   0  0  0  0  0  0  0  0  0  0  0  0
  -22.1197  -14.6125   21.4024 N   0  0  0  0  0  0  0  0  0  0  0  0
  -26.9646  -19.9730   18.2184 N   0  0  0  0  0  0  0  0  0  0  0  0
  -23.1498  -15.4237   21.1076 N   0  0  0  0  0  0  0  0  0  0  0  0
  -24.6069  -30.0066   23.5761 N   0  0  0  0  0  0  0  0  0  0  0  0
  -22.3365  -18.9880   19.9927 N   0  0  0  0  0  0  0  0  0  0  0  0
  -25.4167  -15.4246   20.4206 N   0  0  0  0  0  0  0  0  0  0  0  0
  -24.3956  -11.0307   20.6376 N   0  0  0  0  0  0  0  0  0  0  0  0
  -21.7215  -27.8816   22.9015 N   0  0  0  0  0  0  0  0  0  0  0  0
  -26.0236  -33.0480   24.0250 N   0  0  0  0  0  0  0  0  0  0  0  0
  -23.9265  -19.5288   18.3275 N   0  0  0  0  0  0  0  0  0  0  0  0
  -28.5620  -33.2259   26.5926 N   0  3  0  0  0  0  0  0  0  0  0  0
  -26.0662  -12.5337   20.1807 O   0  0  0  0  0  0  0  0  0  0  0  0
  -23.2923  -29.0232   21.6164 O   0  0  0  0  0  0  0  0  0  0  0  0
  -23.3797  -31.9446   23.9940 O   0  0  0  0  0  0  0  0  0  0  0  0
  -28.1232  -32.0646   24.0676 O   0  0  0  0  0  0  0  0  0  0  0  0
  -22.7897  -21.1903   19.4248 O   0  0  0  0  0  0  0  0  0  0  0  0
  -19.4716   -8.8613   22.0807 O   0  0  0  0  0  0  0  0  0  0  0  0
  -28.6251  -25.3709   22.9306 O   0  0  0  0  0  0  0  0  0  1  0  0
  -21.6897   -4.6878   24.9208 F   0  0  0  0  0  0  0  0  0  0  0  0
  -18.3339   -7.9921   24.4456 F   0  0  0  0  0  0  0  0  0  0  0  0
  1  2  1  0  0  0  0
  1  5  2  0  0  0  0
  2  6  2  0  0  0  0
  3  8  2  0  0  0  0
  3 16  1  0  0  0  0
  4  9  1  0  0  0  0
  4 16  2  0  0  0  0
  5 18  1  0  0  0  0
  6 20  1  0  0  0  0
  7 10  2  0  0  0  0
  7 19  1  0  0  0  0
  8 24  1  0  0  0  0
  9 24  2  0  0  0  0
 10 25  1  0  0  0  0
 11 12  2  0  0  0  0
 11 26  1  0  0  0  0
 12 27  1  0  0  0  0
 13 21  1  0  0  0  0
 13 25  2  0  0  0  0
 14 22  1  0  0  0  0
 14 30  2  0  0  0  0
 15 27  2  0  0  0  0
 15 28  1  0  0  0  0
 16 29  1  0  0  0  0
 17 29  1  0  0  0  0
 17 32  2  0  0  0  0
 17 33  1  0  0  0  0
 18 20  2  0  0  0  0
 18 38  1  0  0  0  0
 19 21  2  0  0  0  0
 19 39  1  0  0  0  0
 20 49  1  0  0  0  0
 21 42  1  0  0  0  0
 22 23  2  0  0  0  0
 22 40  1  0  0  0  0
 23 31  1  0  0  0  0
 23 41  1  0  0  0  0
 24 82  1  0  0  0  0
 25 83  1  0  0  0  0
 26 28  2  0  0  0  0
 26 82  1  0  0  0  0
 27 84  1  0  0  0  0
 28 85  1  0  0  0  0
 29 66  2  0  0  0  0
 30 60  1  0  0  0  0
 30 67  1  0  0  0  0
 31 53  1  0  0  0  0
 31 67  2  0  0  0  0
 32 68  1  0  0  0  0
 32 71  1  0  0  0  0
 33 72  1  0  0  0  0
 33 77  2  0  0  0  0
 34 50  1  0  0  0  0
 34 73  1  0  0  0  0
 34 78  2  0  0  0  0
 35 62  1  0  0  0  0
 35 69  1  0  0  0  0
 35 79  2  0  0  0  0
 36 63  1  0  0  0  0
 36 74  1  0  0  0  0
 36 80  2  0  0  0  0
 37 70  1  0  0  0  0
 37 75  1  0  0  0  0
 37 81  2  0  0  0  0
 38 43  1  0  0  0  0
 39 50  1  0  0  0  0
 40 51  1  0  0  0  0
 41 51  1  0  0  0  0
 42 69  1  0  0  0  0
 43 45  1  0  0  0  0
 44 46  1  0  0  0  0
 44 47  1  0  0  0  0
 45 49  1  0  0  0  0
 46 52  1  0  0  0  0
 47 70  1  0  0  0  0
 48 52  1  0  0  0  0
 48 70  1  0  0  0  0
 49 73  1  0  0  0  0
 50 69  1  0  0  0  0
 51 64  1  0  0  0  0
 52 68  1  0  0  0  0
 54 63  1  0  0  0  0
 55 64  1  0  0  0  0
 56 65  1  0  0  0  0
 57 65  1  0  0  0  0
 58 65  1  0  0  0  0
 59 76  1  0  0  0  0
 60 75  1  0  0  0  0
 61 64  1  0  0  0  0
 61 83  1  0  0  0  0
 62 65  1  0  0  0  0
 62 74  1  0  0  0  0
 63 76  1  0  0  0  0
 66 68  1  0  0  0  0
M  CHG  1  76   1
M  ISO  4  37 100  61 101  75 100  83 101
M  END
> <Batch ID>
0175

> <Smiles>
CNC(C)C(=O)NC(C(=O)N1Cc2cc([101O:1][101CH2:1]C(C)C3Cc4cc(C[100NH:0][100C:0](=O)N5CCCC(n6nc(-c7ccc(Oc8ccc(F)cc8F)cc7)c(C(N)=O)c6N)C5)nc(C)c4C3)ccc2CC1C(=O)NC1CCCc2ccccc21)C(C)(C)C

> <Shape>
0.239

> <Color>
0.094

> <Negative vol penalty>
0.000

$$$$

  -OEChem-04052322473D

 84 93  0     1  0  0  0  0  0999 V2000
  -17.9083  -27.4265   23.2718 C   0  0  0  0  0  0  0  0  0  0  0  0
  -19.0900  -26.8191   22.8595 C   0  0  0  0  0  0  0  0  0  0  0  0
  -23.3100   -9.6234   19.9798 C   0  0  0  0  0  0  0  0  0  0  0  0
  -23.7579   -9.9748   22.3277 C   0  0  0  0  0  0  0  0  0  0  0  0
  -17.9079  -28.7723   23.6363 C   0  0  0  0  0  0  0  0  0  0  0  0
  -20.2719  -27.5574   22.8104 C   0  0  0  0  0  0  0  0  0  0  0  0
  -24.2079  -25.0573   24.7858 C   0  0  0  0  0  0  0  0  0  0  0  0
  -22.6031   -8.4613   20.2885 C   0  0  0  0  0  0  0  0  0  0  0  0
  -23.0510   -8.8126   22.6365 C   0  0  0  0  0  0  0  0  0  0  0  0
  -24.7986  -24.0727   23.9949 C   0  0  0  0  0  0  0  0  0  0  0  0
  -19.8194   -7.8702   22.9355 C   0  0  0  0  0  0  0  0  0  0  0  0
  -18.9174   -7.9251   23.9979 C   0  0  0  0  0  0  0  0  0  0  0  0
  -26.5535  -25.6156   23.3956 C   0  0  0  0  0  0  0  0  0  0  0  0
  -20.1534   -6.1897   25.1371 C   0  0  0  0  0  0  0  0  0  0  0  0
  -29.0275  -20.4824   19.4765 C   0  0  0  0  0  0  0  0  0  0  0  0
  -23.8875  -10.3802   20.9994 C   0  0  0  0  0  0  0  0  0  0  0  0
  -24.1050  -12.8876   20.5836 C   0  0  0  0  0  0  0  0  0  0  0  0
  -19.0923  -29.5250   23.6009 C   0  0  0  0  0  0  0  0  0  0  0  0
  -24.7806  -26.3339   24.8790 C   0  0  0  0  0  0  0  0  0  0  0  0
  -20.2871  -28.9149   23.1735 C   0  0  0  0  0  0  0  0  0  0  0  0
  -25.9695  -26.6138   24.1903 C   0  0  0  0  0  0  0  0  0  0  0  0
  -28.8153  -21.4798   21.6252 C   0  0  0  0  0  0  0  0  0  0  0  0
  -28.2105  -22.5772   21.0225 C   0  0  0  0  0  0  0  0  0  0  0  0
  -29.2345  -20.4083   20.8445 C   0  0  0  0  0  0  0  0  0  0  0  0
  -22.4736   -8.0559   21.6169 C   0  0  0  0  0  0  0  0  0  0  0  0
  -25.9700  -24.3527   23.2974 C   0  0  0  0  0  0  0  0  0  0  0  0
  -20.8885   -6.9749   22.9738 C   0  0  0  0  0  0  0  0  0  0  0  0
  -19.0843   -7.0850   25.0988 C   0  0  0  0  0  0  0  0  0  0  0  0
  -21.0554   -6.1347   24.0746 C   0  0  0  0  0  0  0  0  0  0  0  0
  -24.6183  -11.5804   20.6811 C   0  0  0  0  0  0  0  0  0  0  0  0
  -28.0496  -22.5544   19.6465 C   0  0  0  0  0  0  0  0  0  0  0  0
  -25.1934  -13.6608   20.2611 C   0  0  0  0  0  0  0  0  0  0  0  0
  -22.7642  -13.3608   20.7682 C   0  0  0  0  0  0  0  0  0  0  0  0
  -23.8386  -29.2752   24.1275 C   0  0  0  0  0  0  0  0  0  0  0  0
  -26.6111  -30.1163   25.5863 C   0  0  0  0  0  0  0  0  0  0  0  0
  -29.7599  -29.2274   26.5567 C   0  0  0  0  0  0  0  0  0  0  0  0
  -30.5406  -15.0826   20.9899 C   0  0  0  0  0  0  0  0  0  0  0  0
  -19.0331  -30.9889   23.9589 C   0  0  0  0  0  0  0  0  0  0  0  0
  -24.1457  -27.3767   25.7575 C   0  0  0  0  0  0  0  0  0  0  0  0
  -26.6352  -27.9623   24.2730 C   0  0  0  0  0  0  0  0  0  0  0  0
  -20.4023  -31.6037   24.2373 C   0  0  0  0  0  0  0  0  0  0  0  0
  -29.8600  -12.3402   18.8237 C   0  0  0  0  0  0  0  0  0  0  0  0
  -21.3997  -31.1969   23.1572 C   0  0  0  0  0  0  0  0  0  0  0  0
  -28.3959  -12.0023   19.1103 C   0  0  0  0  0  0  0  0  0  0  0  0
  -30.5966  -12.7760   20.0883 C   0  0  0  0  0  0  0  0  0  0  0  0
  -28.4912  -13.5398   21.1168 C   0  0  0  0  0  0  0  0  0  0  0  0
  -29.2860  -18.4091   22.3714 C   0  0  0  0  0  0  0  0  0  0  0  0
  -30.5600  -18.2742   20.7046 C   0  0  0  0  0  0  0  0  0  0  0  0
  -21.5943  -29.6761   23.1307 C   0  0  1  0  0  0  0  0  0  0  0  0
  -24.5345  -28.8005   25.3716 C   0  0  1  0  0  0  0  0  0  0  0  0
  -27.6925  -13.1487   19.8616 C   0  0  2  0  0  0  0  0  0  0  0  0
  -30.3256  -17.3717   21.9242 C   0  0  0  0  0  0  0  0  0  0  0  0
  -29.0138  -21.4538   23.1077 C   0  0  0  0  0  0  0  0  0  0  0  0
  -27.4070  -23.7048   18.9428 C   0  0  0  0  0  0  0  0  0  0  0  0
  -31.8016  -30.1399   27.6951 C   0  0  0  0  0  0  0  0  0  0  0  0
  -27.3263  -31.6655   23.0568 C   0  0  0  0  0  0  0  0  0  0  0  0
  -29.6969  -31.7431   23.8583 C   0  0  0  0  0  0  0  0  0  0  0  0
  -27.8946  -32.8358   25.1926 C   0  0  0  0  0  0  0  0  0  0  0  0
  -29.5883  -27.2221   28.7265 C   0  0  0  0  0  0  0  0  0  0  0  0
  -27.7474  -23.7491   21.8370 C   0  0  0  0  0  0  0  0  0  1  0  0
  -28.0389  -30.3123   25.1370 C   0  0  1  0  0  0  0  0  0  0  0  0
  -30.4908  -29.3907   27.8771 C   0  0  2  0  0  0  0  0  0  0  0  0
  -28.2258  -31.6143   24.3078 C   0  0  0  0  0  0  0  0  0  0  0  0
  -28.4438  -21.5316   18.8551 N   0  0  0  0  0  0  0  0  0  0  0  0
  -25.9307  -11.5225   20.4398 N   0  0  0  0  0  0  0  0  0  0  0  0
  -26.2513  -12.8030   20.1875 N   0  0  0  0  0  0  0  0  0  0  0  0
  -29.8509  -19.2765   21.4072 N   0  0  0  0  0  0  0  0  0  0  0  0
  -25.9726  -28.9505   25.1401 N   0  0  0  0  0  0  0  0  0  0  0  0
  -29.8787  -13.8667   20.7523 N   0  0  0  0  0  0  0  0  0  0  0  0
  -25.3393  -14.9838   20.0361 N   0  0  0  0  0  0  0  0  0  0  0  0
  -21.7672  -12.4320   21.0966 N   0  0  0  0  0  0  0  0  0  0  0  0
  -22.4595  -29.2583   24.2130 N   0  0  0  0  0  0  0  0  0  0  0  0
  -28.8585  -30.2486   26.3422 N   0  0  0  0  0  0  0  0  0  0  0  0
  -29.7858  -16.0657   21.6181 N   0  0  0  0  0  0  0  0  0  0  0  0
  -30.7901  -28.0574   28.4718 N   0  3  0  0  0  0  0  0  0  0  0  0
  -22.4561  -14.5688   20.6294 O   0  0  0  0  0  0  0  0  0  0  0  0
  -24.5035  -29.6320   23.1620 O   0  0  0  0  0  0  0  0  0  0  0  0
  -26.0840  -30.9628   26.3125 O   0  0  0  0  0  0  0  0  0  0  0  0
  -29.9704  -28.2900   25.7903 O   0  0  0  0  0  0  0  0  0  0  0  0
  -31.7155  -15.2795   20.6614 O   0  0  0  0  0  0  0  0  0  0  0  0
  -21.7836   -6.9221   21.9185 O   0  0  0  0  0  0  0  0  0  0  0  0
  -26.5483  -23.3937   22.5242 O   0  0  0  0  0  0  0  0  0  1  0  0
  -18.2189   -7.1389   26.1197 F   0  0  0  0  0  0  0  0  0  0  0  0
  -22.0812   -5.2734   24.1176 F   0  0  0  0  0  0  0  0  0  0  0  0
  1  2  1  0  0  0  0
  1  5  2  0  0  0  0
  2  6  2  0  0  0  0
  3  8  2  0  0  0  0
  3 16  1  0  0  0  0
  4  9  1  0  0  0  0
  4 16  2  0  0  0  0
  5 18  1  0  0  0  0
  6 20  1  0  0  0  0
  7 10  2  0  0  0  0
  7 19  1  0  0  0  0
  8 25  1  0  0  0  0
  9 25  2  0  0  0  0
 10 26  1  0  0  0  0
 11 12  2  0  0  0  0
 11 27  1  0  0  0  0
 12 28  1  0  0  0  0
 13 21  1  0  0  0  0
 13 26  2  0  0  0  0
 14 28  2  0  0  0  0
 14 29  1  0  0  0  0
 15 24  2  0  0  0  0
 15 64  1  0  0  0  0
 16 30  1  0  0  0  0
 17 30  1  0  0  0  0
 17 32  2  0  0  0  0
 17 33  1  0  0  0  0
 18 20  2  0  0  0  0
 18 38  1  0  0  0  0
 19 21  2  0  0  0  0
 19 39  1  0  0  0  0
 20 49  1  0  0  0  0
 21 40  1  0  0  0  0
 22 23  2  0  0  0  0
 22 24  1  0  0  0  0
 22 53  1  0  0  0  0
 23 31  1  0  0  0  0
 23 60  1  0  0  0  0
 24 67  1  0  0  0  0
 25 81  1  0  0  0  0
 26 82  1  0  0  0  0
 27 29  2  0  0  0  0
 27 81  1  0  0  0  0
 28 83  1  0  0  0  0
 29 84  1  0  0  0  0
 30 65  2  0  0  0  0
 31 54  1  0  0  0  0
 31 64  2  0  0  0  0
 32 66  1  0  0  0  0
 32 70  1  0  0  0  0
 33 71  1  0  0  0  0
 33 76  2  0  0  0  0
 34 50  1  0  0  0  0
 34 72  1  0  0  0  0
 34 77  2  0  0  0  0
 35 61  1  0  0  0  0
 35 68  1  0  0  0  0
 35 78  2  0  0  0  0
 36 62  1  0  0  0  0
 36 73  1  0  0  0  0
 36 79  2  0  0  0  0
 37 69  1  0  0  0  0
 37 74  1  0  0  0  0
 37 80  2  0  0  0  0
 38 41  1  0  0  0  0
 39 50  1  0  0  0  0
 40 68  1  0  0  0  0
 41 43  1  0  0  0  0
 42 44  1  0  0  0  0
 42 45  1  0  0  0  0
 43 49  1  0  0  0  0
 44 51  1  0  0  0  0
 45 69  1  0  0  0  0
 46 51  1  0  0  0  0
 46 69  1  0  0  0  0
 47 52  1  0  0  0  0
 47 67  1  0  0  0  0
 48 52  1  0  0  0  0
 48 67  1  0  0  0  0
 49 72  1  0  0  0  0
 50 68  1  0  0  0  0
 51 66  1  0  0  0  0
 52 74  1  0  0  0  0
 55 62  1  0  0  0  0
 56 63  1  0  0  0  0
 57 63  1  0  0  0  0
 58 63  1  0  0  0  0
 59 75  1  0  0  0  0
 60 82  1  0  0  0  0
 61 63  1  0  0  0  0
 61 73  1  0  0  0  0
 62 75  1  0  0  0  0
 65 66  1  0  0  0  0
M  CHG  1  75   1
M  ISO  4  37 100  60 101  74 100  82 101
M  END
> <Batch ID>
0175

> <Smiles>
CNC(C)C(=O)NC(C(=O)N1Cc2cc([101O:1][101CH2:1]c3c(C)ncc(N4CC([100NH:0][100C:0](=O)N5CCCC(n6nc(-c7ccc(Oc8ccc(F)cc8F)cc7)c(C(N)=O)c6N)C5)C4)c3C)ccc2CC1C(=O)NC1CCCc2ccccc21)C(C)(C)C

> <Shape>
0.327

> <Color>
0.186

> <Negative vol penalty>
0.000

$$$$

  -OEChem-04052322473D

 87 97  0     1  0  0  0  0  0999 V2000
  -27.1206  -23.9166   17.2348 C   0  0  0  0  0  0  0  0  0  0  0  0
  -25.9901  -24.2730   17.9631 C   0  0  0  0  0  0  0  0  0  0  0  0
  -25.2068  -13.3455   21.8296 C   0  0  0  0  0  0  0  0  0  0  0  0
  -26.7688  -13.0416   20.0117 C   0  0  0  0  0  0  0  0  0  0  0  0
  -28.3794  -24.3527   17.6460 C   0  0  0  0  0  0  0  0  0  0  0  0
  -26.1179  -25.0649   19.1037 C   0  0  0  0  0  0  0  0  0  0  0  0
  -22.6705  -28.7696   19.2930 C   0  0  0  0  0  0  0  0  0  0  0  0
  -24.8924  -11.9872   21.7865 C   0  0  0  0  0  0  0  0  0  0  0  0
  -26.4545  -11.6833   19.9686 C   0  0  0  0  0  0  0  0  0  0  0  0
  -21.3806  -28.4193   19.6895 C   0  0  0  0  0  0  0  0  0  0  0  0
  -22.9865   -9.9307   19.8990 C   0  0  0  0  0  0  0  0  0  0  0  0
  -21.6390   -9.5758   19.9606 C   0  0  0  0  0  0  0  0  0  0  0  0
  -18.3098  -23.2773   23.1161 C   0  0  0  0  0  0  0  0  0  0  0  0
  -21.8458  -29.2425   21.9088 C   0  0  0  0  0  0  0  0  0  0  0  0
  -22.0635   -8.3133   21.9762 C   0  0  0  0  0  0  0  0  0  0  0  0
  -26.1450  -13.8727   20.9421 C   0  0  0  0  0  0  0  0  0  0  0  0
  -27.4791  -15.8915   21.7499 C   0  0  0  0  0  0  0  0  0  0  0  0
  -28.5217  -25.1583   18.7868 C   0  0  0  0  0  0  0  0  0  0  0  0
  -23.5629  -29.3499   20.2059 C   0  0  0  0  0  0  0  0  0  0  0  0
  -27.3800  -25.5111   19.5313 C   0  0  0  0  0  0  0  0  0  0  0  0
  -18.1226  -24.6296   23.3390 C   0  0  0  0  0  0  0  0  0  0  0  0
  -23.1457  -29.6015   21.5207 C   0  0  0  0  0  0  0  0  0  0  0  0
  -19.1208  -22.8902   22.0521 C   0  0  0  0  0  0  0  0  0  0  0  0
  -25.5163  -11.1561   20.8561 C   0  0  0  0  0  0  0  0  0  0  0  0
  -20.9690  -28.6531   20.9984 C   0  0  0  0  0  0  0  0  0  0  0  0
  -23.8726   -9.4768   20.8760 C   0  0  0  0  0  0  0  0  0  0  0  0
  -21.1775   -8.7672   20.9992 C   0  0  0  0  0  0  0  0  0  0  0  0
  -23.4111   -8.6681   21.9146 C   0  0  0  0  0  0  0  0  0  0  0  0
  -26.4697  -15.2758   20.9857 C   0  0  0  0  0  0  0  0  0  0  0  0
  -18.7499  -25.5410   22.4906 C   0  0  0  0  0  0  0  0  0  0  0  0
  -19.6973  -23.8795   21.2579 C   0  0  0  0  0  0  0  0  0  0  0  0
  -27.3790  -17.2257   21.4397 C   0  0  0  0  0  0  0  0  0  0  0  0
  -28.4228  -15.3093   22.6587 C   0  0  0  0  0  0  0  0  0  0  0  0
  -26.3786  -28.5212   21.4259 C   0  0  0  0  0  0  0  0  0  0  0  0
  -26.2440  -31.4848   22.7379 C   0  0  0  0  0  0  0  0  0  0  0  0
  -24.3253  -34.1089   23.7767 C   0  0  0  0  0  0  0  0  0  0  0  0
  -23.2373  -21.0617   20.3865 C   0  0  0  0  0  0  0  0  0  0  0  0
  -29.9079  -25.5662   19.2191 C   0  0  0  0  0  0  0  0  0  0  0  0
  -24.9421  -29.7464   19.7553 C   0  0  0  0  0  0  0  0  0  0  0  0
  -24.0586  -30.2407   22.5338 C   0  0  0  0  0  0  0  0  0  0  0  0
  -29.9190  -26.7133   20.2262 C   0  0  0  0  0  0  0  0  0  0  0  0
  -25.4591  -19.8171   17.7169 C   0  0  0  0  0  0  0  0  0  0  0  0
  -28.8967  -26.4639   21.3306 C   0  0  0  0  0  0  0  0  0  0  0  0
  -25.9994  -18.5413   18.3559 C   0  0  0  0  0  0  0  0  0  0  0  0
  -21.6049  -24.4539   19.6136 C   0  0  0  0  0  0  0  0  0  0  0  0
  -17.9005  -26.7547   24.3102 C   0  0  0  0  0  0  0  0  0  0  0  0
  -24.0183  -20.1037   18.1377 C   0  0  0  0  0  0  0  0  0  0  0  0
  -24.3683  -18.8646   20.2559 C   0  0  0  0  0  0  0  0  0  0  0  0
  -27.4753  -26.3894   20.7600 C   0  0  1  0  0  0  0  0  0  0  0  0
  -20.5675  -23.4849   20.1078 C   0  0  1  0  0  0  0  0  0  0  0  0
  -18.3815  -26.9572   22.8571 C   0  0  1  0  0  0  0  0  0  0  0  0
  -25.9370  -29.8600   20.9061 C   0  0  1  0  0  0  0  0  0  0  0  0
  -25.8324  -18.5864   19.8825 C   0  0  1  0  0  0  0  0  0  0  0  0
  -22.0327  -23.2252   20.3602 C   0  0  1  0  0  0  0  0  0  0  0  0
  -17.2903  -25.3279   24.3829 C   0  0  0  0  0  0  0  0  0  0  0  0
  -19.3447  -21.4395   21.7889 C   0  0  0  0  0  0  0  0  0  0  0  0
  -17.4531  -24.7353   25.7849 C   0  0  0  0  0  0  0  0  0  0  0  0
  -15.8105  -25.3312   23.9777 C   0  0  0  0  0  0  0  0  0  0  0  0
  -24.4969  -36.3747   24.8417 C   0  0  0  0  0  0  0  0  0  0  0  0
  -26.7376  -30.1712   25.4474 C   0  0  0  0  0  0  0  0  0  0  0  0
  -25.9627  -32.2881   26.5366 C   0  0  0  0  0  0  0  0  0  0  0  0
  -27.9875  -32.3059   25.0798 C   0  0  0  0  0  0  0  0  0  0  0  0
  -23.1195  -35.4352   21.4217 C   0  0  0  0  0  0  0  0  0  0  0  0
  -19.5313  -27.9459   22.7558 C   0  0  0  0  0  0  0  0  0  1  0  0
  -25.7033  -32.0609   24.0242 C   0  0  1  0  0  0  0  0  0  0  0  0
  -24.4442  -35.6025   23.5326 C   0  0  2  0  0  0  0  0  0  0  0  0
  -26.5809  -31.6927   25.2537 C   0  0  0  0  0  0  0  0  0  0  0  0
  -25.7790  -16.1474   20.2459 N   0  0  0  0  0  0  0  0  0  0  0  0
  -19.5269  -25.2096   21.4442 N   0  0  0  0  0  0  0  0  0  0  0  0
  -26.3553  -17.3244   20.5438 N   0  0  0  0  0  0  0  0  0  0  0  0
  -25.3994  -30.6047   22.0466 N   0  0  0  0  0  0  0  0  0  0  0  0
  -23.8669  -20.0793   19.6011 N   0  0  0  0  0  0  0  0  0  0  0  0
  -28.0675  -18.3125   21.8488 N   0  0  0  0  0  0  0  0  0  0  0  0
  -28.3876  -13.9229   22.8612 N   0  0  0  0  0  0  0  0  0  0  0  0
  -26.9753  -27.7170   20.4737 N   0  0  0  0  0  0  0  0  0  0  0  0
  -25.5599  -33.4954   23.8005 N   0  0  0  0  0  0  0  0  0  0  0  0
  -22.7106  -22.1457   19.6933 N   0  0  0  0  0  0  0  0  0  0  0  0
  -23.2785  -36.0929   22.7442 N   0  3  0  0  0  0  0  0  0  0  0  0
  -29.2615  -16.0001   23.2856 O   0  0  0  0  0  0  0  0  0  0  0  0
  -26.1932  -28.2393   22.6040 O   0  0  0  0  0  0  0  0  0  0  0  0
  -27.3714  -31.8094   22.3568 O   0  0  0  0  0  0  0  0  0  0  0  0
  -23.2454  -33.5437   23.9344 O   0  0  0  0  0  0  0  0  0  0  0  0
  -23.1447  -20.9783   21.6162 O   0  0  0  0  0  0  0  0  0  0  0  0
  -25.2100   -9.8306   20.8139 O   0  0  0  0  0  0  0  0  0  0  0  0
  -19.7107  -28.3116   21.3882 O   0  0  0  0  0  0  0  0  0  1  0  0
  -19.8831   -8.4277   21.0590 F   0  0  0  0  0  0  0  0  0  0  0  0
  -24.2574   -8.2300   22.8567 F   0  0  0  0  0  0  0  0  0  0  0  0
  1  2  1  0  0  0  0
  1  5  2  0  0  0  0
  2  6  2  0  0  0  0
  3  8  2  0  0  0  0
  3 16  1  0  0  0  0
  4  9  1  0  0  0  0
  4 16  2  0  0  0  0
  5 18  1  0  0  0  0
  6 20  1  0  0  0  0
  7 10  2  0  0  0  0
  7 19  1  0  0  0  0
  8 24  1  0  0  0  0
  9 24  2  0  0  0  0
 10 25  1  0  0  0  0
 11 12  2  0  0  0  0
 11 26  1  0  0  0  0
 12 27  1  0  0  0  0
 13 21  1  0  0  0  0
 13 23  2  0  0  0  0
 14 22  1  0  0  0  0
 14 25  2  0  0  0  0
 15 27  2  0  0  0  0
 15 28  1  0  0  0  0
 16 29  1  0  0  0  0
 17 29  1  0  0  0  0
 17 32  2  0  0  0  0
 17 33  1  0  0  0  0
 18 20  2  0  0  0  0
 18 38  1  0  0  0  0
 19 22  2  0  0  0  0
 19 39  1  0  0  0  0
 20 49  1  0  0  0  0
 21 30  2  0  0  0  0
 21 55  1  0  0  0  0
 22 40  1  0  0  0  0
 23 31  1  0  0  0  0
 23 56  1  0  0  0  0
 24 84  1  0  0  0  0
 25 85  1  0  0  0  0
 26 28  2  0  0  0  0
 26 84  1  0  0  0  0
 27 86  1  0  0  0  0
 28 87  1  0  0  0  0
 29 68  2  0  0  0  0
 30 51  1  0  0  0  0
 30 69  1  0  0  0  0
 31 50  1  0  0  0  0
 31 69  2  0  0  0  0
 32 70  1  0  0  0  0
 32 73  1  0  0  0  0
 33 74  1  0  0  0  0
 33 79  2  0  0  0  0
 34 52  1  0  0  0  0
 34 75  1  0  0  0  0
 34 80  2  0  0  0  0
 35 65  1  0  0  0  0
 35 71  1  0  0  0  0
 35 81  2  0  0  0  0
 36 66  1  0  0  0  0
 36 76  1  0  0  0  0
 36 82  2  0  0  0  0
 37 72  1  0  0  0  0
 37 77  1  0  0  0  0
 37 83  2  0  0  0  0
 38 41  1  0  0  0  0
 39 52  1  0  0  0  0
 40 71  1  0  0  0  0
 41 43  1  0  0  0  0
 42 44  1  0  0  0  0
 42 47  1  0  0  0  0
 43 49  1  0  0  0  0
 44 53  1  0  0  0  0
 45 50  1  0  0  0  0
 45 54  1  0  0  0  0
 46 51  1  0  0  0  0
 46 55  1  0  0  0  0
 47 72  1  0  0  0  0
 48 53  1  0  0  0  0
 48 72  1  0  0  0  0
 49 75  1  0  0  0  0
 50 54  1  0  0  0  0
 51 64  1  0  0  0  0
 52 71  1  0  0  0  0
 53 70  1  0  0  0  0
 54 77  1  0  0  0  0
 55 57  1  0  0  0  0
 55 58  1  0  0  0  0
 59 66  1  0  0  0  0
 60 67  1  0  0  0  0
 61 67  1  0  0  0  0
 62 67  1  0  0  0  0
 63 78  1  0  0  0  0
 64 85  1  0  0  0  0
 65 67  1  0  0  0  0
 65 76  1  0  0  0  0
 66 78  1  0  0  0  0
 68 70  1  0  0  0  0
M  CHG  1  78   1
M  ISO  4  37 100  64 101  77 100  85 101
M  END
> <Batch ID>
0175

> <Smiles>
CNC(C)C(=O)NC(C(=O)N1Cc2cc([101O:1][101CH2:1]C3CC(C)(C)c4cc(C)c(C5CC5[100NH:0][100C:0](=O)N5CCCC(n6nc(-c7ccc(Oc8ccc(F)cc8F)cc7)c(C(N)=O)c6N)C5)nc43)ccc2CC1C(=O)NC1CCCc2ccccc21)C(C)(C)C

> <Shape>
0.292

> <Color>
0.081

> <Negative vol penalty>
0.000

$$$$

  -OEChem-04052322473D

 90100  0     1  0  0  0  0  0999 V2000
  -26.4595  -23.0428   20.8620 C   0  0  0  0  0  0  0  0  0  0  0  0
  -27.1573  -22.4781   21.9248 C   0  0  0  0  0  0  0  0  0  0  0  0
  -23.0123   -9.8918   19.9771 C   0  0  0  0  0  0  0  0  0  0  0  0
  -23.7291   -9.9470   22.2837 C   0  0  0  0  0  0  0  0  0  0  0  0
  -26.1782  -24.4083   20.8613 C   0  0  0  0  0  0  0  0  0  0  0  0
  -27.5752  -23.2789   22.9871 C   0  0  0  0  0  0  0  0  0  0  0  0
  -26.6676  -21.1562   27.4944 C   0  0  0  0  0  0  0  0  0  0  0  0
  -22.2476   -8.7558   20.2419 C   0  0  0  0  0  0  0  0  0  0  0  0
  -22.9643   -8.8109   22.5485 C   0  0  0  0  0  0  0  0  0  0  0  0
  -27.5423  -20.1551   27.9144 C   0  0  0  0  0  0  0  0  0  0  0  0
  -23.2185   -5.4721   22.0810 C   0  0  0  0  0  0  0  0  0  0  0  0
  -23.8058   -4.4571   22.8362 C   0  0  0  0  0  0  0  0  0  0  0  0
  -32.0550  -20.8051   23.5250 C   0  0  0  0  0  0  0  0  0  0  0  0
  -31.1635  -18.5915   24.9699 C   0  0  0  0  0  0  0  0  0  0  0  0
  -28.6897  -21.7521   29.3115 C   0  0  0  0  0  0  0  0  0  0  0  0
  -22.0753   -4.6976   24.5050 C   0  0  0  0  0  0  0  0  0  0  0  0
  -23.7531  -10.4874   20.9980 C   0  0  0  0  0  0  0  0  0  0  0  0
  -24.1330  -13.0038   20.8207 C   0  0  0  0  0  0  0  0  0  0  0  0
  -26.5844  -25.2245   21.9288 C   0  0  0  0  0  0  0  0  0  0  0  0
  -26.8044  -22.4674   27.9722 C   0  0  0  0  0  0  0  0  0  0  0  0
  -27.3002  -24.6569   23.0001 C   0  0  0  0  0  0  0  0  0  0  0  0
  -32.3250  -20.7085   24.8901 C   0  0  0  0  0  0  0  0  0  0  0  0
  -30.8935  -18.6882   23.6048 C   0  0  0  0  0  0  0  0  0  0  0  0
  -27.8139  -22.7675   28.8980 C   0  0  0  0  0  0  0  0  0  0  0  0
  -31.3392  -19.7950   22.8824 C   0  0  0  0  0  0  0  0  0  0  0  0
  -31.8793  -19.6017   25.6125 C   0  0  0  0  0  0  0  0  0  0  0  0
  -22.2236   -8.2153   21.5276 C   0  0  0  0  0  0  0  0  0  0  0  0
  -28.5553  -20.4536   28.8209 C   0  0  0  0  0  0  0  0  0  0  0  0
  -22.0596   -6.0999   22.5378 C   0  0  0  0  0  0  0  0  0  0  0  0
  -23.2342   -4.0698   24.0483 C   0  0  0  0  0  0  0  0  0  0  0  0
  -21.4880   -5.7126   23.7498 C   0  0  0  0  0  0  0  0  0  0  0  0
  -24.5437  -11.6607   20.7249 C   0  0  0  0  0  0  0  0  0  0  0  0
  -25.2423  -13.7287   20.4595 C   0  0  0  0  0  0  0  0  0  0  0  0
  -22.8623  -13.5475   21.2021 C   0  0  0  0  0  0  0  0  0  0  0  0
  -27.4069  -25.2893   26.6390 C   0  0  0  0  0  0  0  0  0  0  0  0
  -26.8344  -26.3903   29.6360 C   0  0  0  0  0  0  0  0  0  0  0  0
  -26.7487  -25.7563   32.9883 C   0  0  0  0  0  0  0  0  0  0  0  0
  -30.7372  -14.6332   20.7505 C   0  0  0  0  0  0  0  0  0  0  0  0
  -26.2985  -26.7039   21.8611 C   0  0  0  0  0  0  0  0  0  0  0  0
  -25.8361  -23.5301   27.5298 C   0  0  0  0  0  0  0  0  0  0  0  0
  -27.9906  -24.1550   29.4566 C   0  0  0  0  0  0  0  0  0  0  0  0
  -26.4494  -27.4154   23.2032 C   0  0  0  0  0  0  0  0  0  0  0  0
  -29.5950  -12.2919   18.3637 C   0  0  0  0  0  0  0  0  0  0  0  0
  -32.4956  -22.4923   26.7509 C   0  0  0  0  0  0  0  0  0  0  0  0
  -32.5915  -23.2182   25.4455 C   0  0  0  0  0  0  0  0  0  0  0  0
  -27.7450  -26.9932   23.8886 C   0  0  0  0  0  0  0  0  0  0  0  0
  -28.1577  -11.9970   18.7838 C   0  0  0  0  0  0  0  0  0  0  0  0
  -29.7104  -16.3840   23.8057 C   0  0  0  0  0  0  0  0  0  0  0  0
  -30.4892  -12.4707   19.5833 C   0  0  0  0  0  0  0  0  0  0  0  0
  -29.3353  -15.3211   22.7817 C   0  0  0  0  0  0  0  0  0  0  0  0
  -30.8641  -16.8771   21.7898 C   0  0  0  0  0  0  0  0  0  0  0  0
  -28.5806  -13.2994   20.9327 C   0  0  0  0  0  0  0  0  0  0  0  0
  -33.0939  -21.8036   25.5540 C   0  0  0  0  0  0  0  0  0  0  0  0
  -30.1145  -17.5810   22.9298 C   0  0  2  0  0  0  0  0  0  0  0  0
  -27.7486  -25.4882   24.1824 C   0  0  1  0  0  0  0  0  0  0  0  0
  -26.3875  -24.9438   27.6873 C   0  0  1  0  0  0  0  0  0  0  0  0
  -27.6358  -13.0879   19.7317 C   0  0  2  0  0  0  0  0  0  0  0  0
  -31.0599  -19.9215   21.4207 C   0  0  0  0  0  0  0  0  0  0  0  0
  -26.2804  -26.8633   35.1911 C   0  0  0  0  0  0  0  0  0  0  0  0
  -32.6405  -17.1907   27.5147 C   0  0  0  0  0  0  0  0  0  0  0  0
  -29.5378  -27.7985   29.5003 C   0  0  0  0  0  0  0  0  0  0  0  0
  -29.4429  -28.0699   31.9874 C   0  0  0  0  0  0  0  0  0  0  0  0
  -27.7111  -29.1460   30.5502 C   0  0  0  0  0  0  0  0  0  0  0  0
  -24.5203  -23.9003   33.5790 C   0  0  0  0  0  0  0  0  0  0  0  0
  -31.6995  -18.7425   29.2616 C   0  0  0  0  0  0  0  0  0  0  0  0
  -30.7339  -19.8790   29.5823 C   0  0  0  0  0  0  0  0  0  1  0  0
  -27.6777  -26.6374   30.8635 C   0  0  1  0  0  0  0  0  0  0  0  0
  -25.6982  -26.0534   34.0431 C   0  0  2  0  0  0  0  0  0  0  0  0
  -31.7088  -18.3700   27.7758 C   0  0  1  0  0  0  0  0  0  0  0  0
  -28.5905  -27.8871   30.7135 C   0  0  0  0  0  0  0  0  0  0  0  0
  -25.8147  -11.5368   20.3334 N   0  0  0  0  0  0  0  0  0  0  0  0
  -26.2121  -12.8114   20.1799 N   0  0  0  0  0  0  0  0  0  0  0  0
  -27.0228  -25.1610   28.9886 N   0  0  0  0  0  0  0  0  0  0  0  0
  -29.9690  -13.4921   20.4941 N   0  0  0  0  0  0  0  0  0  0  0  0
  -30.2366  -15.5662   21.6577 N   0  0  0  0  0  0  0  0  0  0  0  0
  -25.4729  -15.0548   20.3569 N   0  0  0  0  0  0  0  0  0  0  0  0
  -21.8314  -12.6612   21.5429 N   0  0  0  0  0  0  0  0  0  0  0  0
  -32.1448  -19.4846   26.9949 N   0  0  0  0  0  0  0  0  0  0  0  0
  -26.9349  -25.1979   25.3435 N   0  0  0  0  0  0  0  0  0  0  0  0
  -26.7513  -26.7057   31.9884 N   0  0  0  0  0  0  0  0  0  0  0  0
  -25.1457  -24.7845   34.5959 N   0  3  0  0  0  0  0  0  0  0  0  0
  -22.6425  -14.7823   21.2238 O   0  0  0  0  0  0  0  0  0  0  0  0
  -28.5376  -25.6162   26.9802 O   0  0  0  0  0  0  0  0  0  0  0  0
  -26.0326  -27.2531   29.2694 O   0  0  0  0  0  0  0  0  0  0  0  0
  -27.4950  -24.7816   33.0475 O   0  0  0  0  0  0  0  0  0  0  0  0
  -31.8458  -14.7937   20.2222 O   0  0  0  0  0  0  0  0  0  0  0  0
  -21.4773   -7.1069   21.7864 O   0  0  0  0  0  0  0  0  0  0  0  0
  -29.4169  -19.4715   29.2350 O   0  0  0  0  0  0  0  0  0  1  0  0
  -23.7975   -3.0941   24.7727 F   0  0  0  0  0  0  0  0  0  0  0  0
  -20.3741   -6.3112   24.1932 F   0  0  0  0  0  0  0  0  0  0  0  0
  1  2  1  0  0  0  0
  1  5  2  0  0  0  0
  2  6  2  0  0  0  0
  3  8  2  0  0  0  0
  3 17  1  0  0  0  0
  4  9  1  0  0  0  0
  4 17  2  0  0  0  0
  5 19  1  0  0  0  0
  6 21  1  0  0  0  0
  7 10  2  0  0  0  0
  7 20  1  0  0  0  0
  8 27  1  0  0  0  0
  9 27  2  0  0  0  0
 10 28  1  0  0  0  0
 11 12  2  0  0  0  0
 11 29  1  0  0  0  0
 12 30  1  0  0  0  0
 13 22  1  0  0  0  0
 13 25  2  0  0  0  0
 14 23  2  0  0  0  0
 14 26  1  0  0  0  0
 15 24  1  0  0  0  0
 15 28  2  0  0  0  0
 16 30  2  0  0  0  0
 16 31  1  0  0  0  0
 17 32  1  0  0  0  0
 18 32  1  0  0  0  0
 18 33  2  0  0  0  0
 18 34  1  0  0  0  0
 19 21  2  0  0  0  0
 19 39  1  0  0  0  0
 20 24  2  0  0  0  0
 20 40  1  0  0  0  0
 21 55  1  0  0  0  0
 22 26  2  0  0  0  0
 22 53  1  0  0  0  0
 23 25  1  0  0  0  0
 23 54  1  0  0  0  0
 24 41  1  0  0  0  0
 25 58  1  0  0  0  0
 26 78  1  0  0  0  0
 27 87  1  0  0  0  0
 28 88  1  0  0  0  0
 29 31  2  0  0  0  0
 29 87  1  0  0  0  0
 30 89  1  0  0  0  0
 31 90  1  0  0  0  0
 32 71  2  0  0  0  0
 33 72  1  0  0  0  0
 33 76  1  0  0  0  0
 34 77  1  0  0  0  0
 34 82  2  0  0  0  0
 35 56  1  0  0  0  0
 35 79  1  0  0  0  0
 35 83  2  0  0  0  0
 36 67  1  0  0  0  0
 36 73  1  0  0  0  0
 36 84  2  0  0  0  0
 37 68  1  0  0  0  0
 37 80  1  0  0  0  0
 37 85  2  0  0  0  0
 38 74  1  0  0  0  0
 38 75  1  0  0  0  0
 38 86  2  0  0  0  0
 39 42  1  0  0  0  0
 40 56  1  0  0  0  0
 41 73  1  0  0  0  0
 42 46  1  0  0  0  0
 43 47  1  0  0  0  0
 43 49  1  0  0  0  0
 44 45  1  0  0  0  0
 44 53  1  0  0  0  0
 45 53  1  0  0  0  0
 46 55  1  0  0  0  0
 47 57  1  0  0  0  0
 48 50  1  0  0  0  0
 48 54  1  0  0  0  0
 49 74  1  0  0  0  0
 50 75  1  0  0  0  0
 51 54  1  0  0  0  0
 51 75  1  0  0  0  0
 52 57  1  0  0  0  0
 52 74  1  0  0  0  0
 55 79  1  0  0  0  0
 56 73  1  0  0  0  0
 57 72  1  0  0  0  0
 59 68  1  0  0  0  0
 60 69  1  0  0  0  0
 61 70  1  0  0  0  0
 62 70  1  0  0  0  0
 63 70  1  0  0  0  0
 64 81  1  0  0  0  0
 65 66  1  0  0  0  0
 65 69  1  0  0  0  0
 66 88  1  0  0  0  0
 67 70  1  0  0  0  0
 67 80  1  0  0  0  0
 68 81  1  0  0  0  0
 69 78  1  0  0  0  0
 71 72  1  0  0  0  0
M  CHG  1  81   1
M  ISO  4  38 100  66 101  75 100  88 101
M  END
> <Batch ID>
0175

> <Smiles>
CNC(C)C(=O)NC(C(=O)N1Cc2cc([101O:1][101CH2:1]CC(C)Nc3cc(C4CC[100N:0]([100C:0](=O)N5CCCC(n6nc(-c7ccc(Oc8ccc(F)cc8F)cc7)c(C(N)=O)c6N)C5)C4)c(C)cc3C3CC3)ccc2CC1C(=O)NC1CCCc2ccccc21)C(C)(C)C

> <Shape>
0.176

> <Color>
0.203

> <Negative vol penalty>
0.000

$$$$

  -OEChem-04052322473D

 89100  0     1  0  0  0  0  0999 V2000
  -21.8986  -11.4466   20.0533 C   0  0  0  0  0  0  0  0  0  0  0  0
  -21.5987  -12.6518   20.6801 C   0  0  0  0  0  0  0  0  0  0  0  0
  -29.4696  -28.3298   20.8647 C   0  0  0  0  0  0  0  0  0  0  0  0
  -28.3576  -26.2514   21.3947 C   0  0  0  0  0  0  0  0  0  0  0  0
  -23.2280  -11.0888   19.8328 C   0  0  0  0  0  0  0  0  0  0  0  0
  -22.6282  -13.4995   21.0878 C   0  0  0  0  0  0  0  0  0  0  0  0
  -22.5613  -19.6232   21.1166 C   0  0  0  0  0  0  0  0  0  0  0  0
  -30.6639  -27.8210   21.3751 C   0  0  0  0  0  0  0  0  0  0  0  0
  -29.5519  -25.7426   21.9051 C   0  0  0  0  0  0  0  0  0  0  0  0
  -22.3252  -20.5540   22.1275 C   0  0  0  0  0  0  0  0  0  0  0  0
  -33.9206  -27.1974   22.8679 C   0  0  0  0  0  0  0  0  0  0  0  0
  -34.6744  -28.0223   23.7027 C   0  0  0  0  0  0  0  0  0  0  0  0
  -24.7020  -20.7594   22.4852 C   0  0  0  0  0  0  0  0  0  0  0  0
  -32.8213  -28.1526   25.2474 C   0  0  0  0  0  0  0  0  0  0  0  0
  -28.3165  -27.5450   20.8745 C   0  0  0  0  0  0  0  0  0  0  0  0
  -26.6175  -27.9806   19.0221 C   0  0  0  0  0  0  0  0  0  0  0  0
  -24.2740  -11.9369   20.2293 C   0  0  0  0  0  0  0  0  0  0  0  0
  -23.8713  -19.2448   20.7893 C   0  0  0  0  0  0  0  0  0  0  0  0
  -23.9728  -13.1520   20.8736 C   0  0  0  0  0  0  0  0  0  0  0  0
  -24.9521  -19.8256   21.4680 C   0  0  0  0  0  0  0  0  0  0  0  0
  -20.4449  -24.9983   23.0022 C   0  0  0  0  0  0  0  0  0  0  0  0
  -21.3025  -23.3491   24.5284 C   0  0  0  0  0  0  0  0  0  0  0  0
  -30.7050  -26.5274   21.8953 C   0  0  0  0  0  0  0  0  0  0  0  0
  -23.3955  -21.1200   22.8139 C   0  0  0  0  0  0  0  0  0  0  0  0
  -32.6171  -26.8502   23.2228 C   0  0  0  0  0  0  0  0  0  0  0  0
  -34.1248  -28.4999   24.8925 C   0  0  0  0  0  0  0  0  0  0  0  0
  -32.0674  -27.3278   24.4125 C   0  0  0  0  0  0  0  0  0  0  0  0
  -20.3889  -24.3551   24.2337 C   0  0  0  0  0  0  0  0  0  0  0  0
  -27.0824  -28.0702   20.3479 C   0  0  0  0  0  0  0  0  0  0  0  0
  -21.4257  -24.6017   22.1074 C   0  0  0  0  0  0  0  0  0  0  0  0
  -22.2450  -23.0264   23.5653 C   0  0  0  0  0  0  0  0  0  1  0  0
  -25.4078  -28.6309   19.0378 C   0  0  0  0  0  0  0  0  0  0  0  0
  -27.2248  -27.3646   17.8787 C   0  0  0  0  0  0  0  0  0  0  0  0
  -25.5006  -16.5163   20.8547 C   0  0  0  0  0  0  0  0  0  0  0  0
  -27.7896  -18.3007   19.4060 C   0  0  0  0  0  0  0  0  0  0  0  0
  -29.1143  -21.3903   18.8174 C   0  0  0  0  0  0  0  0  0  0  0  0
  -21.7161  -29.6642   23.7827 C   0  0  0  0  0  0  0  0  0  0  0  0
  -25.6966  -11.4855   20.0121 C   0  0  0  0  0  0  0  0  0  0  0  0
  -24.1102  -18.2595   19.6782 C   0  0  0  0  0  0  0  0  0  0  0  0
  -26.3783  -19.4683   21.1410 C   0  0  0  0  0  0  0  0  0  0  0  0
  -26.7190  -12.6121   20.1375 C   0  0  0  0  0  0  0  0  0  0  0  0
  -23.0334  -32.1001   21.3322 C   0  0  0  0  0  0  0  0  0  0  0  0
  -26.4423  -13.4478   21.3833 C   0  0  0  0  0  0  0  0  0  0  0  0
  -24.2245  -31.3499   20.7339 C   0  0  0  0  0  0  0  0  0  0  0  0
  -18.0756  -28.0054   22.7998 C   0  0  0  0  0  0  0  0  0  0  0  0
  -19.2492  -27.4010   20.4016 C   0  0  0  0  0  0  0  0  0  0  0  0
  -22.7474  -31.6649   22.7672 C   0  0  0  0  0  0  0  0  0  0  0  0
  -20.1116  -27.8524   24.3619 C   0  0  0  0  0  0  0  0  0  0  0  0
  -23.7704  -29.4605   22.3413 C   0  0  0  0  0  0  0  0  0  0  0  0
  -21.3124  -27.7805   22.1095 C   0  0  0  0  0  0  0  0  0  0  0  0
  -19.4757  -26.0965   22.6336 C   0  0  1  0  0  0  0  0  0  0  0  0
  -25.0611  -14.1096   21.3081 C   0  0  1  0  0  0  0  0  0  0  0  0
  -25.4641  -17.5634   19.7778 C   0  0  1  0  0  0  0  0  0  0  0  0
  -18.9484  -28.2594   21.5988 C   0  0  2  0  0  0  0  0  0  0  0  0
  -18.9401  -27.0702   23.6974 C   0  0  2  0  0  0  0  0  0  0  0  0
  -24.0475  -29.8271   20.8772 C   0  0  2  0  0  0  0  0  0  0  0  0
  -20.0069  -27.1620   21.6755 C   0  0  2  0  0  0  0  0  0  0  0  0
  -21.5368  -25.2556   20.7685 C   0  0  0  0  0  0  0  0  0  0  0  0
  -21.8938  -23.4561   26.9626 C   0  0  0  0  0  0  0  0  0  0  0  0
  -31.0080  -22.5274   17.6264 C   0  0  0  0  0  0  0  0  0  0  0  0
  -29.7119  -17.3812   21.5898 C   0  0  0  0  0  0  0  0  0  0  0  0
  -31.2506  -19.2395   20.9208 C   0  0  0  0  0  0  0  0  0  0  0  0
  -30.6941  -17.4354   19.2904 C   0  0  0  0  0  0  0  0  0  0  0  0
  -27.2614  -22.9431   17.1102 C   0  0  0  0  0  0  0  0  0  0  0  0
  -21.2879  -22.6262   25.8346 C   0  0  0  0  0  0  0  0  0  0  0  0
  -28.9388  -19.1562   19.8817 C   0  0  1  0  0  0  0  0  0  0  0  0
  -29.5616  -22.0667   17.5341 C   0  0  2  0  0  0  0  0  0  0  0  0
  -30.1220  -18.3086   20.4284 C   0  0  0  0  0  0  0  0  0  0  0  0
  -26.2370  -28.7258   21.1476 N   0  0  0  0  0  0  0  0  0  0  0  0
  -22.3303  -23.6289   22.3581 N   0  0  0  0  0  0  0  0  0  0  0  0
  -25.2288  -29.0542   20.3219 N   0  0  0  0  0  0  0  0  0  0  0  0
  -26.5600  -18.4954   20.0511 N   0  0  0  0  0  0  0  0  0  0  0  0
  -22.6221  -30.2115   22.8626 N   0  0  0  0  0  0  0  0  0  0  0  0
  -21.1091  -28.4425   23.4287 N   0  0  0  0  0  0  0  0  0  0  0  0
  -24.4904  -28.8762   18.0783 N   0  0  0  0  0  0  0  0  0  0  0  0
  -28.4694  -26.7403   18.0383 N   0  0  0  0  0  0  0  0  0  0  0  0
  -25.1000  -15.2625   20.4341 N   0  0  0  0  0  0  0  0  0  0  0  0
  -29.2920  -20.0240   18.7634 N   0  0  0  0  0  0  0  0  0  0  0  0
  -28.7074  -23.2542   17.2495 N   0  3  0  0  0  0  0  0  0  0  0  0
  -26.6875  -27.3820   16.7453 O   0  0  0  0  0  0  0  0  0  0  0  0
  -25.8666  -16.8228   21.9833 O   0  0  0  0  0  0  0  0  0  0  0  0
  -27.9742  -17.4946   18.4907 O   0  0  0  0  0  0  0  0  0  0  0  0
  -28.6568  -22.0122   19.7737 O   0  0  0  0  0  0  0  0  0  0  0  0
  -21.4428  -30.2502   24.8374 O   0  0  0  0  0  0  0  0  0  0  0  0
  -31.8702  -26.0305   22.3933 O   0  0  0  0  0  0  0  0  0  0  0  0
  -23.1646  -22.0412   23.8156 O   0  0  0  0  0  0  0  0  0  1  0  0
  -34.8494  -29.2907   25.6948 F   0  0  0  0  0  0  0  0  0  0  0  0
  -30.8161  -26.9966   24.7593 F   0  0  0  0  0  0  0  0  0  0  0  0
  -19.1862  -24.8041   25.3952 Cl  0  0  0  0  0  0  0  0  0  0  0  0
  1  2  1  0  0  0  0
  1  5  2  0  0  0  0
  2  6  2  0  0  0  0
  3  8  2  0  0  0  0
  3 15  1  0  0  0  0
  4  9  1  0  0  0  0
  4 15  2  0  0  0  0
  5 17  1  0  0  0  0
  6 19  1  0  0  0  0
  7 10  2  0  0  0  0
  7 18  1  0  0  0  0
  8 23  1  0  0  0  0
  9 23  2  0  0  0  0
 10 24  1  0  0  0  0
 11 12  2  0  0  0  0
 11 25  1  0  0  0  0
 12 26  1  0  0  0  0
 13 20  1  0  0  0  0
 13 24  2  0  0  0  0
 14 26  2  0  0  0  0
 14 27  1  0  0  0  0
 15 29  1  0  0  0  0
 16 29  1  0  0  0  0
 16 32  2  0  0  0  0
 16 33  1  0  0  0  0
 17 19  2  0  0  0  0
 17 38  1  0  0  0  0
 18 20  2  0  0  0  0
 18 39  1  0  0  0  0
 19 52  1  0  0  0  0
 20 40  1  0  0  0  0
 21 28  2  0  0  0  0
 21 30  1  0  0  0  0
 21 51  1  0  0  0  0
 22 28  1  0  0  0  0
 22 31  2  0  0  0  0
 22 65  1  0  0  0  0
 23 85  1  0  0  0  0
 24 86  1  0  0  0  0
 25 27  2  0  0  0  0
 25 85  1  0  0  0  0
 26 87  1  0  0  0  0
 27 88  1  0  0  0  0
 28 89  1  0  0  0  0
 29 69  2  0  0  0  0
 30 58  1  0  0  0  0
 30 70  2  0  0  0  0
 31 70  1  0  0  0  0
 31 86  1  0  0  0  0
 32 71  1  0  0  0  0
 32 75  1  0  0  0  0
 33 76  1  0  0  0  0
 33 80  2  0  0  0  0
 34 53  1  0  0  0  0
 34 77  1  0  0  0  0
 34 81  2  0  0  0  0
 35 66  1  0  0  0  0
 35 72  1  0  0  0  0
 35 82  2  0  0  0  0
 36 67  1  0  0  0  0
 36 78  1  0  0  0  0
 36 83  2  0  0  0  0
 37 73  1  0  0  0  0
 37 74  1  0  0  0  0
 37 84  2  0  0  0  0
 38 41  1  0  0  0  0
 39 53  1  0  0  0  0
 40 72  1  0  0  0  0
 41 43  1  0  0  0  0
 42 44  1  0  0  0  0
 42 47  1  0  0  0  0
 43 52  1  0  0  0  0
 44 56  1  0  0  0  0
 45 54  1  0  0  0  0
 45 55  1  0  0  0  0
 46 54  1  0  0  0  0
 46 57  1  0  0  0  0
 47 73  1  0  0  0  0
 48 55  1  0  0  0  0
 48 74  1  0  0  0  0
 49 56  1  0  0  0  0
 49 73  1  0  0  0  0
 50 57  1  0  0  0  0
 50 74  1  0  0  0  0
 51 55  1  0  0  0  0
 51 57  1  0  0  0  0
 52 77  1  0  0  0  0
 53 72  1  0  0  0  0
 54 57  1  0  0  0  0
 56 71  1  0  0  0  0
 59 65  1  0  0  0  0
 60 67  1  0  0  0  0
 61 68  1  0  0  0  0
 62 68  1  0  0  0  0
 63 68  1  0  0  0  0
 64 79  1  0  0  0  0
 66 68  1  0  0  0  0
 66 78  1  0  0  0  0
 67 79  1  0  0  0  0
 69 71  1  0  0  0  0
M  CHG  1  79   1
M  ISO  4  31 101  37 100  74 100  86 101
M  END
> <Batch ID>
0175

> <Smiles>
CCc1c(Cl)c(C2C3CC4CC42C[100N:0]([100C:0](=O)N2CCCC(n4nc(-c5ccc(Oc6ccc(F)cc6F)cc5)c(C(N)=O)c4N)C2)C3)c(C)n[101c:1]1[101O:1]c1ccc2c(c1)CN(C(=O)C(NC(=O)C(C)NC)C(C)(C)C)C(C(=O)NC1CCCc3ccccc31)C2

> <Shape>
0.253

> <Color>
0.098

> <Negative vol penalty>
0.000

$$$$

  -OEChem-04052322473D

 89 98  0     1  0  0  0  0  0999 V2000
  -25.5717  -30.0156   12.7021 C   0  0  0  0  0  0  0  0  0  0  0  0
  -25.3649  -28.8808   13.4799 C   0  0  0  0  0  0  0  0  0  0  0  0
  -23.3317   -9.6995   20.1897 C   0  0  0  0  0  0  0  0  0  0  0  0
  -23.7833  -10.1434   22.5212 C   0  0  0  0  0  0  0  0  0  0  0  0
  -26.5355  -30.9505   13.0776 C   0  0  0  0  0  0  0  0  0  0  0  0
  -26.1226  -28.6797   14.6330 C   0  0  0  0  0  0  0  0  0  0  0  0
  -24.2684  -26.0525   19.8451 C   0  0  0  0  0  0  0  0  0  0  0  0
  -22.6317   -8.5464   20.5448 C   0  0  0  0  0  0  0  0  0  0  0  0
  -23.0832   -8.9904   22.8763 C   0  0  0  0  0  0  0  0  0  0  0  0
  -24.4203  -24.7622   20.3509 C   0  0  0  0  0  0  0  0  0  0  0  0
  -19.8574   -8.0434   23.2196 C   0  0  0  0  0  0  0  0  0  0  0  0
  -18.9575   -8.1347   24.2815 C   0  0  0  0  0  0  0  0  0  0  0  0
  -26.3419  -25.4904   21.6144 C   0  0  0  0  0  0  0  0  0  0  0  0
  -20.2053   -6.4509   25.4836 C   0  0  0  0  0  0  0  0  0  0  0  0
  -23.9075  -10.4979   21.1779 C   0  0  0  0  0  0  0  0  0  0  0  0
  -24.1108  -12.9886   20.6651 C   0  0  0  0  0  0  0  0  0  0  0  0
  -27.2988  -30.7655   14.2411 C   0  0  0  0  0  0  0  0  0  0  0  0
  -25.1600  -27.0706   20.2123 C   0  0  0  0  0  0  0  0  0  0  0  0
  -27.0985  -29.6123   15.0237 C   0  0  0  0  0  0  0  0  0  0  0  0
  -26.1975  -26.7933   21.1139 C   0  0  0  0  0  0  0  0  0  0  0  0
  -26.0370  -20.1512   21.5693 C   0  0  0  0  0  0  0  0  0  0  0  0
  -26.2861  -18.9436   22.2120 C   0  0  0  0  0  0  0  0  0  0  0  0
  -24.9628  -20.9374   21.9710 C   0  0  0  0  0  0  0  0  0  0  0  0
  -22.5074   -8.1919   21.8881 C   0  0  0  0  0  0  0  0  0  0  0  0
  -25.4589  -24.4803   21.2335 C   0  0  0  0  0  0  0  0  0  0  0  0
  -20.9312   -7.1559   23.2897 C   0  0  0  0  0  0  0  0  0  0  0  0
  -19.1315   -7.3385   25.4135 C   0  0  0  0  0  0  0  0  0  0  0  0
  -21.1052   -6.3597   24.4217 C   0  0  0  0  0  0  0  0  0  0  0  0
  -24.6313  -11.6888   20.8116 C   0  0  0  0  0  0  0  0  0  0  0  0
  -25.4383  -18.5703   23.2424 C   0  0  0  0  0  0  0  0  0  0  0  0
  -24.1740  -20.4747   23.0120 C   0  0  0  0  0  0  0  0  0  0  0  0
  -25.1944  -13.7544   20.3103 C   0  0  0  0  0  0  0  0  0  0  0  0
  -22.7680  -13.4615   20.8347 C   0  0  0  0  0  0  0  0  0  0  0  0
  -27.2234  -28.9164   18.6504 C   0  0  0  0  0  0  0  0  0  0  0  0
  -27.5294  -30.3529   21.5426 C   0  0  0  0  0  0  0  0  0  0  0  0
  -27.2442  -30.1244   24.9357 C   0  0  0  0  0  0  0  0  0  0  0  0
  -30.9239  -13.9235   21.6267 C   0  0  0  0  0  0  0  0  0  0  0  0
  -28.3618  -31.7800   14.5808 C   0  0  0  0  0  0  0  0  0  0  0  0
  -24.9665  -28.4635   19.6786 C   0  0  0  0  0  0  0  0  0  0  0  0
  -27.1695  -27.8558   21.5553 C   0  0  0  0  0  0  0  0  0  0  0  0
  -28.8626  -31.6791   16.0194 C   0  0  0  0  0  0  0  0  0  0  0  0
  -29.6427  -12.8326   18.3613 C   0  0  0  0  0  0  0  0  0  0  0  0
  -29.1531  -30.2264   16.3828 C   0  0  0  0  0  0  0  0  0  0  0  0
  -28.1812  -12.5002   18.6647 C   0  0  0  0  0  0  0  0  0  0  0  0
  -30.6681  -17.0770   23.5557 C   0  0  0  0  0  0  0  0  0  0  0  0
  -30.5433  -12.6084   19.5739 C   0  0  0  0  0  0  0  0  0  0  0  0
  -31.4112  -15.8048   23.1646 C   0  0  0  0  0  0  0  0  0  0  0  0
  -28.6413  -12.9625   21.1007 C   0  0  0  0  0  0  0  0  0  0  0  0
  -29.3260  -15.9042   21.9680 C   0  0  0  0  0  0  0  0  0  0  0  0
  -27.8834  -29.3711   16.2949 C   0  0  1  0  0  0  0  0  0  0  0  0
  -26.2406  -29.3015   19.7197 C   0  0  1  0  0  0  0  0  0  0  0  0
  -27.6947  -13.2401   19.9246 C   0  0  2  0  0  0  0  0  0  0  0  0
  -29.7550  -17.3205   22.3521 C   0  0  2  0  0  0  0  0  0  0  0  0
  -26.9191  -20.6018   20.4490 C   0  0  0  0  0  0  0  0  0  0  0  0
  -25.6556  -17.2843   23.9705 C   0  0  0  0  0  0  0  0  0  0  0  0
  -23.0045  -21.2738   23.4864 C   0  0  0  0  0  0  0  0  0  0  0  0
  -30.9542  -19.3941   21.6381 C   0  0  0  0  0  0  0  0  0  0  0  0
  -27.6028  -31.4495   27.0364 C   0  0  0  0  0  0  0  0  0  0  0  0
  -30.5397  -29.9169   21.3008 C   0  0  0  0  0  0  0  0  0  0  0  0
  -30.7318  -30.3672   23.7561 C   0  0  0  0  0  0  0  0  0  0  0  0
  -29.8793  -32.1441   22.2269 C   0  0  0  0  0  0  0  0  0  0  0  0
  -24.3823  -29.9535   25.6702 C   0  0  0  0  0  0  0  0  0  0  0  0
  -27.4380  -18.0740   21.8022 C   0  0  0  0  0  0  0  0  0  0  0  0
  -24.6691  -22.2381   21.3014 C   0  0  0  0  0  0  0  0  0  1  0  0
  -30.4549  -18.0545   21.2082 C   0  0  0  0  0  0  0  0  0  0  0  0
  -28.4147  -30.1504   22.7486 C   0  0  1  0  0  0  0  0  0  0  0  0
  -26.6083  -31.0494   25.9577 C   0  0  2  0  0  0  0  0  0  0  0  0
  -29.8743  -30.6240   22.4985 C   0  0  0  0  0  0  0  0  0  0  0  0
  -25.9434  -11.6285   20.5695 N   0  0  0  0  0  0  0  0  0  0  0  0
  -24.3849  -19.3073   23.6604 N   0  0  0  0  0  0  0  0  0  0  0  0
  -26.2566  -12.8999   20.2672 N   0  0  0  0  0  0  0  0  0  0  0  0
  -26.9424  -29.2006   21.0010 N   0  0  0  0  0  0  0  0  0  0  0  0
  -30.0241  -13.3059   20.7508 N   0  0  0  0  0  0  0  0  0  0  0  0
  -30.5021  -15.0818   22.2776 N   0  0  0  0  0  0  0  0  0  0  0  0
  -25.3327  -15.0685   20.0340 N   0  0  0  0  0  0  0  0  0  0  0  0
  -21.7767  -12.5410   21.2012 N   0  0  0  0  0  0  0  0  0  0  0  0
  -27.0467  -29.5878   17.4556 N   0  0  0  0  0  0  0  0  0  0  0  0
  -27.7505  -30.8227   23.8600 N   0  0  0  0  0  0  0  0  0  0  0  0
  -28.5756  -18.1231   22.7605 N   0  3  0  0  0  0  0  0  0  0  0  0
  -25.4491  -30.3795   26.6122 N   0  3  0  0  0  0  0  0  0  0  0  0
  -22.4532  -14.6617   20.6502 O   0  0  0  0  0  0  0  0  0  0  0  0
  -28.0795  -28.0735   18.8918 O   0  0  0  0  0  0  0  0  0  0  0  0
  -27.3592  -31.4924   21.1019 O   0  0  0  0  0  0  0  0  0  0  0  0
  -27.2906  -28.9046   25.0792 O   0  0  0  0  0  0  0  0  0  0  0  0
  -32.0711  -13.4853   21.7854 O   0  0  0  0  0  0  0  0  0  0  0  0
  -21.8242   -7.0670   22.2350 O   0  0  0  0  0  0  0  0  0  0  0  0
  -25.6110  -23.2128   21.7316 O   0  0  0  0  0  0  0  0  0  1  0  0
  -18.2682   -7.4273   26.4337 F   0  0  0  0  0  0  0  0  0  0  0  0
  -22.1356   -5.5060   24.4953 F   0  0  0  0  0  0  0  0  0  0  0  0
  1  2  1  0  0  0  0
  1  5  2  0  0  0  0
  2  6  2  0  0  0  0
  3  8  2  0  0  0  0
  3 15  1  0  0  0  0
  4  9  1  0  0  0  0
  4 15  2  0  0  0  0
  5 17  1  0  0  0  0
  6 19  1  0  0  0  0
  7 10  2  0  0  0  0
  7 18  1  0  0  0  0
  8 24  1  0  0  0  0
  9 24  2  0  0  0  0
 10 25  1  0  0  0  0
 11 12  2  0  0  0  0
 11 26  1  0  0  0  0
 12 27  1  0  0  0  0
 13 20  1  0  0  0  0
 13 25  2  0  0  0  0
 14 27  2  0  0  0  0
 14 28  1  0  0  0  0
 15 29  1  0  0  0  0
 16 29  1  0  0  0  0
 16 32  2  0  0  0  0
 16 33  1  0  0  0  0
 17 19  2  0  0  0  0
 17 38  1  0  0  0  0
 18 20  2  0  0  0  0
 18 39  1  0  0  0  0
 19 50  1  0  0  0  0
 20 40  1  0  0  0  0
 21 22  2  0  0  0  0
 21 23  1  0  0  0  0
 21 54  1  0  0  0  0
 22 30  1  0  0  0  0
 22 63  1  0  0  0  0
 23 31  2  0  0  0  0
 23 64  1  0  0  0  0
 24 86  1  0  0  0  0
 25 87  1  0  0  0  0
 26 28  2  0  0  0  0
 26 86  1  0  0  0  0
 27 88  1  0  0  0  0
 28 89  1  0  0  0  0
 29 69  2  0  0  0  0
 30 55  1  0  0  0  0
 30 70  2  0  0  0  0
 31 56  1  0  0  0  0
 31 70  1  0  0  0  0
 32 71  1  0  0  0  0
 32 75  1  0  0  0  0
 33 76  1  0  0  0  0
 33 81  2  0  0  0  0
 34 51  1  0  0  0  0
 34 77  1  0  0  0  0
 34 82  2  0  0  0  0
 35 66  1  0  0  0  0
 35 72  1  0  0  0  0
 35 83  2  0  0  0  0
 36 67  1  0  0  0  0
 36 78  1  0  0  0  0
 36 84  2  0  0  0  0
 37 73  1  0  0  0  0
 37 74  1  0  0  0  0
 37 85  2  0  0  0  0
 38 41  1  0  0  0  0
 39 51  1  0  0  0  0
 40 72  1  0  0  0  0
 41 43  1  0  0  0  0
 42 44  1  0  0  0  0
 42 46  1  0  0  0  0
 43 50  1  0  0  0  0
 44 52  1  0  0  0  0
 45 47  1  0  0  0  0
 45 53  1  0  0  0  0
 46 73  1  0  0  0  0
 47 74  1  0  0  0  0
 48 52  1  0  0  0  0
 48 73  1  0  0  0  0
 49 53  1  0  0  0  0
 49 74  1  0  0  0  0
 50 77  1  0  0  0  0
 51 72  1  0  0  0  0
 52 71  1  0  0  0  0
 53 65  1  0  0  0  0
 53 79  1  0  0  0  0
 57 65  1  0  0  0  0
 58 67  1  0  0  0  0
 59 68  1  0  0  0  0
 60 68  1  0  0  0  0
 61 68  1  0  0  0  0
 62 80  1  0  0  0  0
 63 79  1  0  0  0  0
 64 87  1  0  0  0  0
 66 68  1  0  0  0  0
 66 78  1  0  0  0  0
 67 80  1  0  0  0  0
 69 71  1  0  0  0  0
M  CHG  2  79   1  80   1
M  ISO  4  37 100  64 101  74 100  87 101
M  END
> <Batch ID>
0175

> <Smiles>
CCC1(NCc2c(C)nc(C)c([101CH2:1][101O:1]c3ccc4c(c3)CN(C(=O)C(NC(=O)C(C)NC)C(C)(C)C)C(C(=O)NC3CCCc5ccccc53)C4)c2C)CC[100N:0]([100C:0](=O)N2CCCC(n3nc(-c4ccc(Oc5ccc(F)cc5F)cc4)c(C(N)=O)c3N)C2)C1

> <Shape>
0.259

> <Color>
0.168

> <Negative vol penalty>
0.000

$$$$
