
  -OEChem-04052322503D

 85 94  0     1  0  0  0  0  0999 V2000
  -28.8145  -37.4486   20.9645 C   0  0  0  0  0  0  0  0  0  0  0  0
  -29.1188  -36.1473   20.5779 C   0  0  0  0  0  0  0  0  0  0  0  0
  -24.6277   -9.7410   21.1182 C   0  0  0  0  0  0  0  0  0  0  0  0
  -22.2157   -9.8277   21.2270 C   0  0  0  0  0  0  0  0  0  0  0  0
  -27.9465  -37.6723   22.0324 C   0  0  0  0  0  0  0  0  0  0  0  0
  -28.5561  -35.0689   21.2597 C   0  0  0  0  0  0  0  0  0  0  0  0
  -26.8754  -29.6816   18.8812 C   0  0  0  0  0  0  0  0  0  0  0  0
  -24.6348   -8.7311   22.0802 C   0  0  0  0  0  0  0  0  0  0  0  0
  -22.2228   -8.8177   22.1891 C   0  0  0  0  0  0  0  0  0  0  0  0
  -27.5043  -28.4380   18.8384 C   0  0  0  0  0  0  0  0  0  0  0  0
  -22.5518   -5.4552   22.2657 C   0  0  0  0  0  0  0  0  0  0  0  0
  -21.6330   -4.4160   22.1189 C   0  0  0  0  0  0  0  0  0  0  0  0
  -26.2702  -27.7533   20.7948 C   0  0  0  0  0  0  0  0  0  0  0  0
  -20.6639   -4.9702   24.2615 C   0  0  0  0  0  0  0  0  0  0  0  0
  -28.8600  -23.6943   17.9041 C   0  0  0  0  0  0  0  0  0  0  0  0
  -23.4181  -10.2894   20.6916 C   0  0  0  0  0  0  0  0  0  0  0  0
  -23.3413  -11.1762   18.3009 C   0  0  0  0  0  0  0  0  0  0  0  0
  -27.3653  -36.5962   22.7215 C   0  0  0  0  0  0  0  0  0  0  0  0
  -25.9457  -29.9747   19.8892 C   0  0  0  0  0  0  0  0  0  0  0  0
  -27.6806  -35.2785   22.3387 C   0  0  0  0  0  0  0  0  0  0  0  0
  -25.6290  -29.0005   20.8466 C   0  0  0  0  0  0  0  0  0  0  0  0
  -23.4324   -8.2694   22.6157 C   0  0  0  0  0  0  0  0  0  0  0  0
  -27.2039  -27.4747   19.7969 C   0  0  0  0  0  0  0  0  0  0  0  0
  -22.5266   -6.2519   23.4104 C   0  0  0  0  0  0  0  0  0  0  0  0
  -20.6891   -4.1735   23.1168 C   0  0  0  0  0  0  0  0  0  0  0  0
  -21.5827   -6.0094   24.4083 C   0  0  0  0  0  0  0  0  0  0  0  0
  -23.4102  -11.3330   19.6982 C   0  0  0  0  0  0  0  0  0  0  0  0
  -29.4108  -22.4385   18.0588 C   0  0  0  0  0  0  0  0  0  0  0  0
  -29.2951  -24.6512   18.7981 C   0  0  0  0  0  0  0  0  0  0  0  0
  -23.3644  -12.4587   17.8099 C   0  0  0  0  0  0  0  0  0  0  0  0
  -30.6609  -23.1485   19.8196 C   0  0  0  0  0  0  0  0  0  0  0  0
  -23.2633   -9.9783   17.5169 C   0  0  0  0  0  0  0  0  0  0  0  0
  -25.7828  -32.1097   22.2385 C   0  0  0  0  0  0  0  0  0  0  0  0
  -22.8113  -30.8701   22.6335 C   0  0  0  0  0  0  0  0  0  0  0  0
  -20.6918  -28.2308   22.1991 C   0  0  0  0  0  0  0  0  0  0  0  0
  -25.2718  -17.4737   17.6311 C   0  0  0  0  0  0  0  0  0  0  0  0
  -26.4699  -36.8873   23.8997 C   0  0  0  0  0  0  0  0  0  0  0  0
  -25.2562  -31.3114   19.9058 C   0  0  0  0  0  0  0  0  0  0  0  0
  -24.6231  -29.2582   21.9376 C   0  0  0  0  0  0  0  0  0  0  0  0
  -25.6225  -35.6929   24.3304 C   0  0  0  0  0  0  0  0  0  0  0  0
  -22.9010  -16.9055   20.1609 C   0  0  0  0  0  0  0  0  0  0  0  0
  -26.4774  -34.4320   24.4079 C   0  0  0  0  0  0  0  0  0  0  0  0
  -22.8137  -15.3796   20.1574 C   0  0  0  0  0  0  0  0  0  0  0  0
  -24.3387  -17.3981   19.9867 C   0  0  0  0  0  0  0  0  0  0  0  0
  -26.2151  -19.4239   18.9468 C   0  0  0  0  0  0  0  0  0  0  0  0
  -25.5998  -19.6873   16.5720 C   0  0  0  0  0  0  0  0  0  0  0  0
  -24.9373  -15.3138   18.7963 C   0  0  0  0  0  0  0  0  0  0  0  0
  -27.6366  -19.8836   18.6393 C   0  0  0  0  0  0  0  0  0  0  0  0
  -27.0134  -20.1252   16.2247 C   0  0  0  0  0  0  0  0  0  0  0  0
  -27.0708  -34.0828   23.0377 C   0  0  1  0  0  0  0  0  0  0  0  0
  -24.7073  -31.6836   21.2796 C   0  0  1  0  0  0  0  0  0  0  0  0
  -23.4973  -14.7902   18.9109 C   0  0  1  0  0  0  0  0  0  0  0  0
  -31.6638  -22.8471   20.8813 C   0  0  0  0  0  0  0  0  0  0  0  0
  -18.3356  -27.5000   22.6593 C   0  0  0  0  0  0  0  0  0  0  0  0
  -23.5288  -30.4101   25.5633 C   0  0  0  0  0  0  0  0  0  0  0  0
  -21.5702  -28.8591   25.7271 C   0  0  0  0  0  0  0  0  0  0  0  0
  -21.2105  -31.2660   25.1789 C   0  0  0  0  0  0  0  0  0  0  0  0
  -20.1059  -27.9075   19.3162 C   0  0  0  0  0  0  0  0  0  0  0  0
  -28.9999  -21.3317   17.1330 C   0  0  0  0  0  0  0  0  0  0  0  0
  -28.7568  -26.0399   18.7080 C   0  0  0  0  0  0  0  0  0  1  0  0
  -22.2242  -29.7367   23.4395 C   0  0  1  0  0  0  0  0  0  0  0  0
  -19.2752  -28.1549   21.6587 C   0  0  2  0  0  0  0  0  0  0  0  0
  -22.1539  -30.0635   24.9579 C   0  0  0  0  0  0  0  0  0  0  0  0
  -23.4726  -12.6142   20.0708 N   0  0  0  0  0  0  0  0  0  0  0  0
  -30.3172  -22.1294   19.0092 N   0  0  0  0  0  0  0  0  0  0  0  0
  -30.1977  -24.4121   19.7720 N   0  0  0  0  0  0  0  0  0  0  0  0
  -23.4430  -13.2740   18.9004 N   0  0  0  0  0  0  0  0  0  0  0  0
  -23.9804  -30.5826   21.9151 N   0  0  0  0  0  0  0  0  0  0  0  0
  -24.9625  -16.7780   18.8094 N   0  0  0  0  0  0  0  0  0  0  0  0
  -25.5854  -18.8350   17.7588 N   0  0  0  0  0  0  0  0  0  0  0  0
  -23.3251  -12.9573   16.5560 N   0  0  0  0  0  0  0  0  0  0  0  0
  -23.2497   -8.7445   18.1816 N   0  0  0  0  0  0  0  0  0  0  0  0
  -26.0702  -33.4607   22.1973 N   0  0  0  0  0  0  0  0  0  0  0  0
  -20.9327  -29.4311   22.8336 N   0  0  0  0  0  0  0  0  0  0  0  0
  -27.6298  -20.7912   17.4328 N   0  3  0  0  0  0  0  0  0  0  0  0
  -19.2440  -27.3629   20.3967 N   0  3  0  0  0  0  0  0  0  0  0  0
  -23.2239  -10.0007   16.2633 O   0  0  0  0  0  0  0  0  0  0  0  0
  -26.3116  -31.2749   22.9631 O   0  0  0  0  0  0  0  0  0  0  0  0
  -22.2491  -31.9681   22.6355 O   0  0  0  0  0  0  0  0  0  0  0  0
  -21.5023  -27.3154   22.0743 O   0  0  0  0  0  0  0  0  0  0  0  0
  -25.2685  -16.9110   16.5289 O   0  0  0  0  0  0  0  0  0  0  0  0
  -23.4389   -7.2838   23.5543 O   0  0  0  0  0  0  0  0  0  0  0  0
  -27.8210  -26.2518   19.7576 O   0  0  0  0  0  0  0  0  0  1  0  0
  -19.8059   -3.1765   22.9750 F   0  0  0  0  0  0  0  0  0  0  0  0
  -21.5529   -6.7722   25.5097 F   0  0  0  0  0  0  0  0  0  0  0  0
  1  2  1  0  0  0  0
  1  5  2  0  0  0  0
  2  6  2  0  0  0  0
  3  8  2  0  0  0  0
  3 16  1  0  0  0  0
  4  9  1  0  0  0  0
  4 16  2  0  0  0  0
  5 18  1  0  0  0  0
  6 20  1  0  0  0  0
  7 10  2  0  0  0  0
  7 19  1  0  0  0  0
  8 22  1  0  0  0  0
  9 22  2  0  0  0  0
 10 23  1  0  0  0  0
 11 12  2  0  0  0  0
 11 24  1  0  0  0  0
 12 25  1  0  0  0  0
 13 21  1  0  0  0  0
 13 23  2  0  0  0  0
 14 25  2  0  0  0  0
 14 26  1  0  0  0  0
 15 28  2  0  0  0  0
 15 29  1  0  0  0  0
 16 27  1  0  0  0  0
 17 27  1  0  0  0  0
 17 30  2  0  0  0  0
 17 32  1  0  0  0  0
 18 20  2  0  0  0  0
 18 37  1  0  0  0  0
 19 21  2  0  0  0  0
 19 38  1  0  0  0  0
 20 50  1  0  0  0  0
 21 39  1  0  0  0  0
 22 82  1  0  0  0  0
 23 83  1  0  0  0  0
 24 26  2  0  0  0  0
 24 82  1  0  0  0  0
 25 84  1  0  0  0  0
 26 85  1  0  0  0  0
 27 64  2  0  0  0  0
 28 59  1  0  0  0  0
 28 65  1  0  0  0  0
 29 60  1  0  0  0  0
 29 66  2  0  0  0  0
 30 67  1  0  0  0  0
 30 71  1  0  0  0  0
 31 53  1  0  0  0  0
 31 65  2  0  0  0  0
 31 66  1  0  0  0  0
 32 72  1  0  0  0  0
 32 77  2  0  0  0  0
 33 51  1  0  0  0  0
 33 73  1  0  0  0  0
 33 78  2  0  0  0  0
 34 61  1  0  0  0  0
 34 68  1  0  0  0  0
 34 79  2  0  0  0  0
 35 62  1  0  0  0  0
 35 74  1  0  0  0  0
 35 80  2  0  0  0  0
 36 69  1  0  0  0  0
 36 70  1  0  0  0  0
 36 81  2  0  0  0  0
 37 40  1  0  0  0  0
 38 51  1  0  0  0  0
 39 68  1  0  0  0  0
 40 42  1  0  0  0  0
 41 43  1  0  0  0  0
 41 44  1  0  0  0  0
 42 50  1  0  0  0  0
 43 52  1  0  0  0  0
 44 69  1  0  0  0  0
 45 48  1  0  0  0  0
 45 70  1  0  0  0  0
 46 49  1  0  0  0  0
 46 70  1  0  0  0  0
 47 52  1  0  0  0  0
 47 69  1  0  0  0  0
 48 75  1  0  0  0  0
 49 75  1  0  0  0  0
 50 73  1  0  0  0  0
 51 68  1  0  0  0  0
 52 67  1  0  0  0  0
 54 62  1  0  0  0  0
 55 63  1  0  0  0  0
 56 63  1  0  0  0  0
 57 63  1  0  0  0  0
 58 76  1  0  0  0  0
 59 75  1  0  0  0  0
 60 83  1  0  0  0  0
 61 63  1  0  0  0  0
 61 74  1  0  0  0  0
 62 76  1  0  0  0  0
 64 67  1  0  0  0  0
M  CHG  2  75   1  76   1
M  ISO  4  36 100  60 101  70 100  83 101
M  END
> <Batch ID>
0176

> <Smiles>
CNC(C)C(=O)NC(C(=O)N1Cc2cc([101O:1][101CH2:1]c3cc(CN4CC[100N:0]([100C:0](=O)N5CCCC(n6nc(-c7ccc(Oc8ccc(F)cc8F)cc7)c(C(N)=O)c6N)C5)CC4)nc(C)n3)ccc2CC1C(=O)NC1CCCc2ccccc21)C(C)(C)C

> <Shape>
0.269

> <Color>
0.088

> <Negative vol penalty>
0.000

$$$$

  -OEChem-04052322503D

 83 92  0     1  0  0  0  0  0999 V2000
  -29.8636  -11.7436   19.6384 C   0  0  0  0  0  0  0  0  0  0  0  0
  -30.1917  -13.0443   19.2698 C   0  0  0  0  0  0  0  0  0  0  0  0
  -19.9936  -27.5146   23.9708 C   0  0  0  0  0  0  0  0  0  0  0  0
  -20.0397  -28.0032   21.6052 C   0  0  0  0  0  0  0  0  0  0  0  0
  -28.5572  -11.4358   20.0160 C   0  0  0  0  0  0  0  0  0  0  0  0
  -29.2133  -14.0378   19.2774 C   0  0  0  0  0  0  0  0  0  0  0  0
  -29.9788  -19.9480   20.6881 C   0  0  0  0  0  0  0  0  0  0  0  0
  -18.6385  -27.8425   24.0122 C   0  0  0  0  0  0  0  0  0  0  0  0
  -18.6845  -28.3311   21.6465 C   0  0  0  0  0  0  0  0  0  0  0  0
  -30.1489  -21.0858   19.9007 C   0  0  0  0  0  0  0  0  0  0  0  0
  -15.2515  -28.8968   24.8126 C   0  0  0  0  0  0  0  0  0  0  0  0
  -14.8093  -29.7018   25.8623 C   0  0  0  0  0  0  0  0  0  0  0  0
  -27.7854  -21.5418   20.0595 C   0  0  0  0  0  0  0  0  0  0  0  0
  -29.3778  -26.3386   19.0486 C   0  0  0  0  0  0  0  0  0  0  0  0
  -16.3119  -31.4548   25.1509 C   0  0  0  0  0  0  0  0  0  0  0  0
  -20.6943  -27.5951   22.7673 C   0  0  0  0  0  0  0  0  0  0  0  0
  -22.6557  -25.9907   22.4733 C   0  0  0  0  0  0  0  0  0  0  0  0
  -27.5645  -12.4281   20.0376 C   0  0  0  0  0  0  0  0  0  0  0  0
  -28.7068  -19.5918   21.1589 C   0  0  0  0  0  0  0  0  0  0  0  0
  -27.8921  -13.7427   19.6544 C   0  0  0  0  0  0  0  0  0  0  0  0
  -27.6022  -20.4003   20.8549 C   0  0  0  0  0  0  0  0  0  0  0  0
  -30.4578  -25.7831   18.3874 C   0  0  0  0  0  0  0  0  0  0  0  0
  -31.7271  -26.3530   18.5108 C   0  0  0  0  0  0  0  0  0  0  0  0
  -17.9839  -28.2507   22.8500 C   0  0  0  0  0  0  0  0  0  0  0  0
  -29.0517  -21.8813   19.5839 C   0  0  0  0  0  0  0  0  0  0  0  0
  -16.2241  -29.3707   23.9321 C   0  0  0  0  0  0  0  0  0  0  0  0
  -15.3394  -30.9809   26.0314 C   0  0  0  0  0  0  0  0  0  0  0  0
  -16.7542  -30.6497   24.1012 C   0  0  0  0  0  0  0  0  0  0  0  0
  -22.0942  -27.2570   22.7241 C   0  0  0  0  0  0  0  0  0  0  0  0
  -31.8889  -27.4656   19.3038 C   0  0  0  0  0  0  0  0  0  0  0  0
  -29.6345  -27.4666   19.8152 C   0  0  0  0  0  0  0  0  0  0  0  0
  -24.0119  -26.1967   22.5414 C   0  0  0  0  0  0  0  0  0  0  0  0
  -22.0090  -24.7399   22.2028 C   0  0  0  0  0  0  0  0  0  0  0  0
  -26.7863  -17.0907   20.7594 C   0  0  0  0  0  0  0  0  0  0  0  0
  -24.9912  -18.6051   22.9969 C   0  0  0  0  0  0  0  0  0  0  0  0
  -24.1474  -21.5293   24.5410 C   0  0  0  0  0  0  0  0  0  0  0  0
  -28.5535  -29.1762   21.3169 C   0  0  0  0  0  0  0  0  0  0  0  0
  -26.1555  -12.0374   20.4076 C   0  0  0  0  0  0  0  0  0  0  0  0
  -28.5443  -18.3761   22.0295 C   0  0  0  0  0  0  0  0  0  0  0  0
  -32.7550  -25.5814   17.7551 C   0  0  0  0  0  0  0  0  0  0  0  0
  -26.2189  -20.0728   21.3525 C   0  0  0  0  0  0  0  0  0  0  0  0
  -25.2631  -13.2279   20.7490 C   0  0  0  0  0  0  0  0  0  0  0  0
  -31.8651  -24.7817   16.7897 C   0  0  0  0  0  0  0  0  0  0  0  0
  -26.6587  -30.1994   24.1524 C   0  0  0  0  0  0  0  0  0  0  0  0
  -25.4229  -14.3309   19.7075 C   0  0  0  0  0  0  0  0  0  0  0  0
  -25.3484  -29.4209   24.0129 C   0  0  0  0  0  0  0  0  0  0  0  0
  -27.2006  -30.6453   22.7955 C   0  0  0  0  0  0  0  0  0  0  0  0
  -26.0333  -28.7955   21.6620 C   0  0  0  0  0  0  0  0  0  0  0  0
  -26.8642  -14.8532   19.6738 C   0  0  1  0  0  0  0  0  0  0  0  0
  -27.1218  -17.8250   22.0266 C   0  0  1  0  0  0  0  0  0  0  0  0
  -25.4825  -28.2692   22.9974 C   0  0  2  0  0  0  0  0  0  0  0  0
  -30.5067  -24.5551   17.5090 C   0  0  2  0  0  0  0  0  0  0  0  0
  -33.2304  -28.0895   19.4809 C   0  0  0  0  0  0  0  0  0  0  0  0
  -29.3592  -24.4843   16.4986 C   0  0  0  0  0  0  0  0  0  0  0  0
  -22.6220  -22.4569   26.3045 C   0  0  0  0  0  0  0  0  0  0  0  0
  -22.6393  -18.4075   21.0630 C   0  0  0  0  0  0  0  0  0  0  0  0
  -21.4577  -20.1385   22.4327 C   0  0  0  0  0  0  0  0  0  0  0  0
  -22.0663  -17.9451   23.4531 C   0  0  0  0  0  0  0  0  0  0  0  0
  -26.4248  -22.4637   26.1839 C   0  0  0  0  0  0  0  0  0  0  0  0
  -30.5380  -23.2833   18.3667 C   0  0  0  0  0  0  0  0  0  1  0  0
  -23.8850  -19.6320   22.9643 C   0  0  1  0  0  0  0  0  0  0  0  0
  -24.0008  -21.8874   26.0089 C   0  0  2  0  0  0  0  0  0  0  0  0
  -22.5377  -19.0362   22.4671 C   0  0  0  0  0  0  0  0  0  0  0  0
  -23.0183  -28.1979   22.9359 N   0  0  0  0  0  0  0  0  0  0  0  0
  -30.8575  -28.0432   19.9602 N   0  0  0  0  0  0  0  0  0  0  0  0
  -24.1741  -27.5223   22.8184 N   0  0  0  0  0  0  0  0  0  0  0  0
  -26.1103  -18.8703   22.1950 N   0  0  0  0  0  0  0  0  0  0  0  0
  -27.3045  -29.5013   21.8871 N   0  0  0  0  0  0  0  0  0  0  0  0
  -25.0696  -25.3715   22.3908 N   0  0  0  0  0  0  0  0  0  0  0  0
  -20.6083  -24.7054   22.1692 N   0  0  0  0  0  0  0  0  0  0  0  0
  -28.5367  -28.0493   20.4957 N   0  0  0  0  0  0  0  0  0  0  0  0
  -27.1043  -15.7463   20.7871 N   0  0  0  0  0  0  0  0  0  0  0  0
  -23.8251  -20.2100   24.3025 N   0  0  0  0  0  0  0  0  0  0  0  0
  -25.0214  -22.9008   26.3993 N   0  3  0  0  0  0  0  0  0  0  0  0
  -22.6539  -23.6808   22.0133 O   0  0  0  0  0  0  0  0  0  0  0  0
  -26.2753  -17.6986   19.8261 O   0  0  0  0  0  0  0  0  0  0  0  0
  -24.8699  -17.6081   23.7130 O   0  0  0  0  0  0  0  0  0  0  0  0
  -24.5079  -22.3398   23.6904 O   0  0  0  0  0  0  0  0  0  0  0  0
  -29.5693  -29.8319   21.5623 O   0  0  0  0  0  0  0  0  0  0  0  0
  -16.6616  -28.5705   22.8899 O   0  0  0  0  0  0  0  0  0  0  0  0
  -29.2149  -22.9922   18.8149 O   0  0  0  0  0  0  0  0  0  1  0  0
  -14.9135  -31.7544   27.0385 F   0  0  0  0  0  0  0  0  0  0  0  0
  -17.6879  -31.1110   23.2578 F   0  0  0  0  0  0  0  0  0  0  0  0
  1  2  1  0  0  0  0
  1  5  2  0  0  0  0
  2  6  2  0  0  0  0
  3  8  2  0  0  0  0
  3 16  1  0  0  0  0
  4  9  1  0  0  0  0
  4 16  2  0  0  0  0
  5 18  1  0  0  0  0
  6 20  1  0  0  0  0
  7 10  2  0  0  0  0
  7 19  1  0  0  0  0
  8 24  1  0  0  0  0
  9 24  2  0  0  0  0
 10 25  1  0  0  0  0
 11 12  2  0  0  0  0
 11 26  1  0  0  0  0
 12 27  1  0  0  0  0
 13 21  1  0  0  0  0
 13 25  2  0  0  0  0
 14 22  2  0  0  0  0
 14 31  1  0  0  0  0
 15 27  2  0  0  0  0
 15 28  1  0  0  0  0
 16 29  1  0  0  0  0
 17 29  1  0  0  0  0
 17 32  2  0  0  0  0
 17 33  1  0  0  0  0
 18 20  2  0  0  0  0
 18 38  1  0  0  0  0
 19 21  2  0  0  0  0
 19 39  1  0  0  0  0
 20 49  1  0  0  0  0
 21 41  1  0  0  0  0
 22 23  1  0  0  0  0
 22 52  1  0  0  0  0
 23 30  2  0  0  0  0
 23 40  1  0  0  0  0
 24 80  1  0  0  0  0
 25 81  1  0  0  0  0
 26 28  2  0  0  0  0
 26 80  1  0  0  0  0
 27 82  1  0  0  0  0
 28 83  1  0  0  0  0
 29 64  2  0  0  0  0
 30 53  1  0  0  0  0
 30 65  1  0  0  0  0
 31 65  2  0  0  0  0
 31 71  1  0  0  0  0
 32 66  1  0  0  0  0
 32 69  1  0  0  0  0
 33 70  1  0  0  0  0
 33 75  2  0  0  0  0
 34 50  1  0  0  0  0
 34 72  1  0  0  0  0
 34 76  2  0  0  0  0
 35 61  1  0  0  0  0
 35 67  1  0  0  0  0
 35 77  2  0  0  0  0
 36 62  1  0  0  0  0
 36 73  1  0  0  0  0
 36 78  2  0  0  0  0
 37 68  1  0  0  0  0
 37 71  1  0  0  0  0
 37 79  2  0  0  0  0
 38 42  1  0  0  0  0
 39 50  1  0  0  0  0
 40 43  1  0  0  0  0
 41 67  1  0  0  0  0
 42 45  1  0  0  0  0
 43 52  1  0  0  0  0
 44 46  1  0  0  0  0
 44 47  1  0  0  0  0
 45 49  1  0  0  0  0
 46 51  1  0  0  0  0
 47 68  1  0  0  0  0
 48 51  1  0  0  0  0
 48 68  1  0  0  0  0
 49 72  1  0  0  0  0
 50 67  1  0  0  0  0
 51 66  1  0  0  0  0
 52 54  1  0  0  0  0
 52 60  1  0  0  0  0
 55 62  1  0  0  0  0
 56 63  1  0  0  0  0
 57 63  1  0  0  0  0
 58 63  1  0  0  0  0
 59 74  1  0  0  0  0
 60 81  1  0  0  0  0
 61 63  1  0  0  0  0
 61 73  1  0  0  0  0
 62 74  1  0  0  0  0
 64 66  1  0  0  0  0
M  CHG  1  74   1
M  ISO  4  37 100  60 101  71 100  81 101
M  END
> <Batch ID>
0176

> <Smiles>
CNC(C)C(=O)NC(C(=O)N1Cc2cc([101O:1][101CH2:1]C3(C)CCc4c3cc([100NH:0][100C:0](=O)N3CCCC(n5nc(-c6ccc(Oc7ccc(F)cc7F)cc6)c(C(N)=O)c5N)C3)nc4C)ccc2CC1C(=O)NC1CCCc2ccccc21)C(C)(C)C

> <Shape>
0.251

> <Color>
0.065

> <Negative vol penalty>
0.000

$$$$

  -OEChem-04052322503D

 83 92  0     1  0  0  0  0  0999 V2000
  -16.6975  -29.6832   24.1427 C   0  0  0  0  0  0  0  0  0  0  0  0
  -17.2176  -28.7642   23.2370 C   0  0  0  0  0  0  0  0  0  0  0  0
  -24.6064   -8.8375   21.3050 C   0  0  0  0  0  0  0  0  0  0  0  0
  -22.7405  -10.2427   20.6876 C   0  0  0  0  0  0  0  0  0  0  0  0
  -17.3379  -30.9061   24.3387 C   0  0  0  0  0  0  0  0  0  0  0  0
  -18.3779  -29.0681   22.5258 C   0  0  0  0  0  0  0  0  0  0  0  0
  -21.6532  -25.2075   22.4107 C   0  0  0  0  0  0  0  0  0  0  0  0
  -23.7420   -7.7521   21.4473 C   0  0  0  0  0  0  0  0  0  0  0  0
  -21.8761   -9.1572   20.8298 C   0  0  0  0  0  0  0  0  0  0  0  0
  -21.3852  -24.1716   21.5168 C   0  0  0  0  0  0  0  0  0  0  0  0
  -21.5409   -6.6055   23.7419 C   0  0  0  0  0  0  0  0  0  0  0  0
  -21.6919   -5.8015   24.8716 C   0  0  0  0  0  0  0  0  0  0  0  0
  -22.9911  -25.0968   19.9727 C   0  0  0  0  0  0  0  0  0  0  0  0
  -22.1261   -3.8929   23.4553 C   0  0  0  0  0  0  0  0  0  0  0  0
  -24.3086  -19.1576   20.5911 C   0  0  0  0  0  0  0  0  0  0  0  0
  -24.1057  -10.0828   20.9252 C   0  0  0  0  0  0  0  0  0  0  0  0
  -25.6815  -11.6005   19.6134 C   0  0  0  0  0  0  0  0  0  0  0  0
  -18.5120  -31.2211   23.6367 C   0  0  0  0  0  0  0  0  0  0  0  0
  -22.5857  -26.2035   22.0871 C   0  0  0  0  0  0  0  0  0  0  0  0
  -19.0339  -30.2969   22.7116 C   0  0  0  0  0  0  0  0  0  0  0  0
  -23.2710  -26.1428   20.8652 C   0  0  0  0  0  0  0  0  0  0  0  0
  -22.3768   -7.9120   21.2097 C   0  0  0  0  0  0  0  0  0  0  0  0
  -22.0521  -24.1178   20.2964 C   0  0  0  0  0  0  0  0  0  0  0  0
  -21.6825   -6.0532   22.4688 C   0  0  0  0  0  0  0  0  0  0  0  0
  -21.9845   -4.4452   24.7283 C   0  0  0  0  0  0  0  0  0  0  0  0
  -21.9751   -4.6970   22.3255 C   0  0  0  0  0  0  0  0  0  0  0  0
  -24.9980  -11.2046   20.7786 C   0  0  0  0  0  0  0  0  0  0  0  0
  -24.0945  -20.4518   20.1627 C   0  0  0  0  0  0  0  0  0  0  0  0
  -25.0193  -19.0278   21.7668 C   0  0  0  0  0  0  0  0  0  0  0  0
  -26.3922  -12.7127   19.9933 C   0  0  0  0  0  0  0  0  0  0  0  0
  -25.2155  -21.2845   21.9563 C   0  0  0  0  0  0  0  0  0  0  0  0
  -25.6745  -11.0153   18.3045 C   0  0  0  0  0  0  0  0  0  0  0  0
  -22.4525  -29.3525   21.6752 C   0  0  0  0  0  0  0  0  0  0  0  0
  -25.6740  -29.0646   21.4281 C   0  0  0  0  0  0  0  0  0  0  0  0
  -28.3597  -27.0817   20.7194 C   0  0  0  0  0  0  0  0  0  0  0  0
  -25.9543  -17.3549   23.4019 C   0  0  0  0  0  0  0  0  0  0  0  0
  -19.1425  -32.5750   23.8472 C   0  0  0  0  0  0  0  0  0  0  0  0
  -22.8830  -27.2994   23.0735 C   0  0  0  0  0  0  0  0  0  0  0  0
  -24.2962  -27.1763   20.4788 C   0  0  0  0  0  0  0  0  0  0  0  0
  -20.5760  -32.6663   23.3303 C   0  0  0  0  0  0  0  0  0  0  0  0
  -27.9429  -14.5476   24.3191 C   0  0  0  0  0  0  0  0  0  0  0  0
  -20.6782  -32.0670   21.9313 C   0  0  0  0  0  0  0  0  0  0  0  0
  -27.4543  -13.4369   23.3864 C   0  0  0  0  0  0  0  0  0  0  0  0
  -23.8950  -20.0894   17.6188 C   0  0  0  0  0  0  0  0  0  0  0  0
  -23.9653  -21.5675   17.8432 C   0  0  0  0  0  0  0  0  0  0  0  0
  -26.7997  -15.4572   24.7654 C   0  0  0  0  0  0  0  0  0  0  0  0
  -25.5041  -14.9099   22.7427 C   0  0  0  0  0  0  0  0  0  0  0  0
  -20.3043  -30.5798   21.9395 C   0  0  1  0  0  0  0  0  0  0  0  0
  -23.4760  -28.5450   22.4221 C   0  0  1  0  0  0  0  0  0  0  0  0
  -26.6307  -14.0066   22.2148 C   0  0  2  0  0  0  0  0  0  0  0  0
  -23.3353  -20.6792   18.9009 C   0  0  0  0  0  0  0  0  0  0  0  0
  -25.7204  -22.4652   22.7142 C   0  0  0  0  0  0  0  0  0  0  0  0
  -30.8639  -27.1375   20.5671 C   0  0  0  0  0  0  0  0  0  0  0  0
  -25.4767  -30.5449   18.7673 C   0  0  0  0  0  0  0  0  0  0  0  0
  -27.7874  -29.7445   18.2303 C   0  0  0  0  0  0  0  0  0  0  0  0
  -27.4095  -31.2276   20.2001 C   0  0  0  0  0  0  0  0  0  0  0  0
  -28.6498  -25.0309   22.8334 C   0  0  0  0  0  0  0  0  0  0  0  0
  -21.8446  -20.7261   19.0569 C   0  0  0  0  0  0  0  0  0  0  0  0
  -21.3963  -21.8543   19.9764 C   0  0  0  0  0  0  0  0  0  1  0  0
  -26.6418  -28.8206   20.2955 C   0  0  1  0  0  0  0  0  0  0  0  0
  -29.6655  -26.8524   21.4588 C   0  0  2  0  0  0  0  0  0  0  0  0
  -26.8082  -30.0659   19.3794 C   0  0  0  0  0  0  0  0  0  0  0  0
  -25.2518  -12.0004   21.8209 N   0  0  0  0  0  0  0  0  0  0  0  0
  -24.5353  -21.5426   20.8230 N   0  0  0  0  0  0  0  0  0  0  0  0
  -25.4896  -20.0735   22.4778 N   0  0  0  0  0  0  0  0  0  0  0  0
  -26.1028  -12.9076   21.3118 N   0  0  0  0  0  0  0  0  0  0  0  0
  -24.5472  -28.2315   21.4743 N   0  0  0  0  0  0  0  0  0  0  0  0
  -26.0670  -15.9629   23.6025 N   0  0  0  0  0  0  0  0  0  0  0  0
  -27.2304  -13.5332   19.3249 N   0  0  0  0  0  0  0  0  0  0  0  0
  -24.8891   -9.8752   18.0865 N   0  0  0  0  0  0  0  0  0  0  0  0
  -25.2638  -17.7169   22.2457 N   0  0  0  0  0  0  0  0  0  0  0  0
  -21.3986  -29.7864   22.4566 N   0  0  0  0  0  0  0  0  0  0  0  0
  -27.8824  -28.3612   20.9105 N   0  0  0  0  0  0  0  0  0  0  0  0
  -29.7541  -25.4407   21.9280 N   0  3  0  0  0  0  0  0  0  0  0  0
  -26.3578  -11.4797   17.3605 O   0  0  0  0  0  0  0  0  0  0  0  0
  -22.6081  -29.5674   20.4788 O   0  0  0  0  0  0  0  0  0  0  0  0
  -25.9128  -29.9567   22.2459 O   0  0  0  0  0  0  0  0  0  0  0  0
  -27.8192  -26.2139   20.0373 O   0  0  0  0  0  0  0  0  0  0  0  0
  -26.4585  -18.1660   24.1828 O   0  0  0  0  0  0  0  0  0  0  0  0
  -21.5331   -6.8530   21.3482 O   0  0  0  0  0  0  0  0  0  0  0  0
  -21.7920  -23.1082   19.4218 O   0  0  0  0  0  0  0  0  0  1  0  0
  -22.1310   -3.6735   25.8134 F   0  0  0  0  0  0  0  0  0  0  0  0
  -22.1134   -4.1610   21.1051 F   0  0  0  0  0  0  0  0  0  0  0  0
  1  2  1  0  0  0  0
  1  5  2  0  0  0  0
  2  6  2  0  0  0  0
  3  8  2  0  0  0  0
  3 16  1  0  0  0  0
  4  9  1  0  0  0  0
  4 16  2  0  0  0  0
  5 18  1  0  0  0  0
  6 20  1  0  0  0  0
  7 10  2  0  0  0  0
  7 19  1  0  0  0  0
  8 22  1  0  0  0  0
  9 22  2  0  0  0  0
 10 23  1  0  0  0  0
 11 12  2  0  0  0  0
 11 24  1  0  0  0  0
 12 25  1  0  0  0  0
 13 21  1  0  0  0  0
 13 23  2  0  0  0  0
 14 25  2  0  0  0  0
 14 26  1  0  0  0  0
 15 28  1  0  0  0  0
 15 29  2  0  0  0  0
 16 27  1  0  0  0  0
 17 27  1  0  0  0  0
 17 30  2  0  0  0  0
 17 32  1  0  0  0  0
 18 20  2  0  0  0  0
 18 37  1  0  0  0  0
 19 21  2  0  0  0  0
 19 38  1  0  0  0  0
 20 48  1  0  0  0  0
 21 39  1  0  0  0  0
 22 80  1  0  0  0  0
 23 81  1  0  0  0  0
 24 26  2  0  0  0  0
 24 80  1  0  0  0  0
 25 82  1  0  0  0  0
 26 83  1  0  0  0  0
 27 63  2  0  0  0  0
 28 51  1  0  0  0  0
 28 64  2  0  0  0  0
 29 65  1  0  0  0  0
 29 71  1  0  0  0  0
 30 66  1  0  0  0  0
 30 69  1  0  0  0  0
 31 52  1  0  0  0  0
 31 64  1  0  0  0  0
 31 65  2  0  0  0  0
 32 70  1  0  0  0  0
 32 75  2  0  0  0  0
 33 49  1  0  0  0  0
 33 72  1  0  0  0  0
 33 76  2  0  0  0  0
 34 60  1  0  0  0  0
 34 67  1  0  0  0  0
 34 77  2  0  0  0  0
 35 61  1  0  0  0  0
 35 73  1  0  0  0  0
 35 78  2  0  0  0  0
 36 68  1  0  0  0  0
 36 71  1  0  0  0  0
 36 79  2  0  0  0  0
 37 40  1  0  0  0  0
 38 49  1  0  0  0  0
 39 67  1  0  0  0  0
 40 42  1  0  0  0  0
 41 43  1  0  0  0  0
 41 46  1  0  0  0  0
 42 48  1  0  0  0  0
 43 50  1  0  0  0  0
 44 45  1  0  0  0  0
 44 51  1  0  0  0  0
 45 51  1  0  0  0  0
 46 68  1  0  0  0  0
 47 50  1  0  0  0  0
 47 68  1  0  0  0  0
 48 72  1  0  0  0  0
 49 67  1  0  0  0  0
 50 66  1  0  0  0  0
 51 58  1  0  0  0  0
 53 61  1  0  0  0  0
 54 62  1  0  0  0  0
 55 62  1  0  0  0  0
 56 62  1  0  0  0  0
 57 74  1  0  0  0  0
 58 59  1  0  0  0  0
 59 81  1  0  0  0  0
 60 62  1  0  0  0  0
 60 73  1  0  0  0  0
 61 74  1  0  0  0  0
 63 66  1  0  0  0  0
M  CHG  1  74   1
M  ISO  4  36 100  59 101  71 100  81 101
M  END
> <Batch ID>
0176

> <Smiles>
CNC(C)C(=O)NC(C(=O)N1Cc2cc([101O:1][101CH2:1]CC3(c4cc([100NH:0][100C:0](=O)N5CCCC(n6nc(-c7ccc(Oc8ccc(F)cc8F)cc7)c(C(N)=O)c6N)C5)nc(C)n4)CC3)ccc2CC1C(=O)NC1CCCc2ccccc21)C(C)(C)C

> <Shape>
0.228

> <Color>
0.112

> <Negative vol penalty>
0.000

$$$$

  -OEChem-04052322503D

 84 93  0     1  0  0  0  0  0999 V2000
  -27.2490  -24.5124   12.3512 C   0  0  0  0  0  0  0  0  0  0  0  0
  -26.3567  -25.3882   12.9614 C   0  0  0  0  0  0  0  0  0  0  0  0
  -26.1675  -16.7930   19.4244 C   0  0  0  0  0  0  0  0  0  0  0  0
  -24.7405  -16.1677   21.2709 C   0  0  0  0  0  0  0  0  0  0  0  0
  -27.9396  -23.5756   13.1189 C   0  0  0  0  0  0  0  0  0  0  0  0
  -26.1537  -25.3268   14.3396 C   0  0  0  0  0  0  0  0  0  0  0  0
  -19.9068  -28.9750   23.1953 C   0  0  0  0  0  0  0  0  0  0  0  0
  -24.6779  -29.5196   19.9574 C   0  0  0  0  0  0  0  0  0  0  0  0
  -18.8762  -28.9866   22.2554 C   0  0  0  0  0  0  0  0  0  0  0  0
  -27.1384  -15.8967   19.8712 C   0  0  0  0  0  0  0  0  0  0  0  0
  -25.7114  -15.2714   21.7177 C   0  0  0  0  0  0  0  0  0  0  0  0
  -23.7843  -29.6174   21.0230 C   0  0  0  0  0  0  0  0  0  0  0  0
  -29.8438  -13.5107   20.3215 C   0  0  0  0  0  0  0  0  0  0  0  0
  -30.4556  -12.6913   19.3730 C   0  0  0  0  0  0  0  0  0  0  0  0
  -25.0919  -28.0108   22.2592 C   0  0  0  0  0  0  0  0  0  0  0  0
  -28.3069  -11.7434   18.8059 C   0  0  0  0  0  0  0  0  0  0  0  0
  -24.9686  -16.9285   20.1243 C   0  0  0  0  0  0  0  0  0  0  0  0
  -22.9154  -17.5921   18.7634 C   0  0  0  0  0  0  0  0  0  0  0  0
  -27.7522  -23.5092   14.5085 C   0  0  0  0  0  0  0  0  0  0  0  0
  -25.7811  -28.6570   20.0305 C   0  0  0  0  0  0  0  0  0  0  0  0
  -26.8414  -24.3873   15.1264 C   0  0  0  0  0  0  0  0  0  0  0  0
  -20.4750  -27.7646   23.5923 C   0  0  0  0  0  0  0  0  0  0  0  0
  -25.9995  -27.9058   21.1942 C   0  0  0  0  0  0  0  0  0  0  0  0
  -18.4138  -27.7878   21.7126 C   0  0  0  0  0  0  0  0  0  0  0  0
  -20.0126  -26.5657   23.0496 C   0  0  0  0  0  0  0  0  0  0  0  0
  -18.9820  -26.5773   22.1097 C   0  0  0  0  0  0  0  0  0  0  0  0
  -26.9104  -15.1359   21.0178 C   0  0  0  0  0  0  0  0  0  0  0  0
  -23.9896  -28.8609   22.1730 C   0  0  0  0  0  0  0  0  0  0  0  0
  -28.4635  -13.4464   20.5124 C   0  0  0  0  0  0  0  0  0  0  0  0
  -29.6872  -11.8077   18.6151 C   0  0  0  0  0  0  0  0  0  0  0  0
  -27.6951  -12.5628   19.7545 C   0  0  0  0  0  0  0  0  0  0  0  0
  -23.9655  -17.8546   19.6635 C   0  0  0  0  0  0  0  0  0  0  0  0
  -22.2492  -18.7882   18.6546 C   0  0  0  0  0  0  0  0  0  0  0  0
  -22.5728  -16.3757   18.0861 C   0  0  0  0  0  0  0  0  0  0  0  0
  -26.7491  -26.1096   18.3941 C   0  0  0  0  0  0  0  0  0  0  0  0
  -29.3882  -26.3997   20.2578 C   0  0  0  0  0  0  0  0  0  0  0  0
  -30.7735  -27.5379   23.1617 C   0  0  0  0  0  0  0  0  0  0  0  0
  -21.7481  -23.3618   22.3542 C   0  0  0  0  0  0  0  0  0  0  0  0
  -28.4858  -22.4482   15.2900 C   0  0  0  0  0  0  0  0  0  0  0  0
  -26.7506  -28.5829   18.8829 C   0  0  0  0  0  0  0  0  0  0  0  0
  -27.1797  -26.9801   21.3307 C   0  0  0  0  0  0  0  0  0  0  0  0
  -28.4942  -22.6976   16.7961 C   0  0  0  0  0  0  0  0  0  0  0  0
  -22.9622  -23.5119   18.9481 C   0  0  0  0  0  0  0  0  0  0  0  0
  -27.0980  -23.0723   17.2829 C   0  0  0  0  0  0  0  0  0  0  0  0
  -23.2571  -22.0378   18.6651 C   0  0  0  0  0  0  0  0  0  0  0  0
  -21.3561  -27.0304   25.9004 C   0  0  0  0  0  0  0  0  0  0  0  0
  -21.3391  -28.5270   25.8974 C   0  0  0  0  0  0  0  0  0  0  0  0
  -23.3142  -23.8799   20.3865 C   0  0  0  0  0  0  0  0  0  0  0  0
  -22.9420  -21.5624   21.1379 C   0  0  0  0  0  0  0  0  0  0  0  0
  -26.6127  -24.3682   16.6222 C   0  0  1  0  0  0  0  0  0  0  0  0
  -27.5557  -27.2872   18.8636 C   0  0  1  0  0  0  0  0  0  0  0  0
  -22.5863  -21.1222   19.7063 C   0  0  2  0  0  0  0  0  0  0  0  0
  -21.5747  -27.7787   24.5977 C   0  0  0  0  0  0  0  0  0  0  0  0
  -17.3091  -27.8284   20.7081 C   0  0  0  0  0  0  0  0  0  0  0  0
  -18.4841  -25.2931   21.5259 C   0  0  0  0  0  0  0  0  0  0  0  0
  -32.9437  -27.5912   24.4206 C   0  0  0  0  0  0  0  0  0  0  0  0
  -29.0011  -23.4771   21.0441 C   0  0  0  0  0  0  0  0  0  0  0  0
  -30.5610  -23.8596   22.9646 C   0  0  0  0  0  0  0  0  0  0  0  0
  -31.3760  -24.1385   20.6236 C   0  0  0  0  0  0  0  0  0  0  0  0
  -30.8631  -30.4957   23.1125 C   0  0  0  0  0  0  0  0  0  0  0  0
  -20.6224  -25.2676   23.4758 C   0  0  0  0  0  0  0  0  0  0  0  0
  -22.9508  -27.7928   24.0267 C   0  0  0  0  0  0  0  0  0  1  0  0
  -29.8100  -25.8640   21.6047 C   0  0  1  0  0  0  0  0  0  0  0  0
  -32.0466  -28.3194   23.4318 C   0  0  2  0  0  0  0  0  0  0  0  0
  -30.1636  -24.3507   21.5562 C   0  0  0  0  0  0  0  0  0  0  0  0
  -23.9702  -19.1184   20.0958 N   0  0  0  0  0  0  0  0  0  0  0  0
  -22.9150  -19.6607   19.4644 N   0  0  0  0  0  0  0  0  0  0  0  0
  -28.0958  -26.9377   20.1790 N   0  0  0  0  0  0  0  0  0  0  0  0
  -22.6289  -22.9827   21.3276 N   0  0  0  0  0  0  0  0  0  0  0  0
  -21.1648  -19.1684   17.9462 N   0  0  0  0  0  0  0  0  0  0  0  0
  -23.3630  -15.2402   18.3113 N   0  0  0  0  0  0  0  0  0  0  0  0
  -27.2355  -25.5168   17.2446 N   0  0  0  0  0  0  0  0  0  0  0  0
  -30.9014  -26.7183   22.0602 N   0  0  0  0  0  0  0  0  0  0  0  0
  -21.5101  -24.7258   22.4710 N   0  0  0  0  0  0  0  0  0  0  0  0
  -31.7214  -29.6614   23.9924 N   0  3  0  0  0  0  0  0  0  0  0  0
  -21.6048  -16.3022   17.2918 O   0  0  0  0  0  0  0  0  0  0  0  0
  -25.7595  -25.7635   19.0288 O   0  0  0  0  0  0  0  0  0  0  0  0
  -30.1789  -26.3495   19.3123 O   0  0  0  0  0  0  0  0  0  0  0  0
  -29.7676  -27.6411   23.8602 O   0  0  0  0  0  0  0  0  0  0  0  0
  -21.2089  -22.5444   23.1080 O   0  0  0  0  0  0  0  0  0  0  0  0
  -27.8575  -14.2611   21.4540 O   0  0  0  0  0  0  0  0  0  0  0  0
  -23.1185  -28.9540   23.2144 O   0  0  0  0  0  0  0  0  0  1  0  0
  -30.2747  -11.0220   17.7031 F   0  0  0  0  0  0  0  0  0  0  0  0
  -26.3685  -12.4974   19.9325 F   0  0  0  0  0  0  0  0  0  0  0  0
  1  2  1  0  0  0  0
  1  5  2  0  0  0  0
  2  6  2  0  0  0  0
  3 10  2  0  0  0  0
  3 17  1  0  0  0  0
  4 11  1  0  0  0  0
  4 17  2  0  0  0  0
  5 19  1  0  0  0  0
  6 21  1  0  0  0  0
  7  9  2  0  0  0  0
  7 22  1  0  0  0  0
  8 12  2  0  0  0  0
  8 20  1  0  0  0  0
  9 24  1  0  0  0  0
 10 27  1  0  0  0  0
 11 27  2  0  0  0  0
 12 28  1  0  0  0  0
 13 14  2  0  0  0  0
 13 29  1  0  0  0  0
 14 30  1  0  0  0  0
 15 23  1  0  0  0  0
 15 28  2  0  0  0  0
 16 30  2  0  0  0  0
 16 31  1  0  0  0  0
 17 32  1  0  0  0  0
 18 32  1  0  0  0  0
 18 33  2  0  0  0  0
 18 34  1  0  0  0  0
 19 21  2  0  0  0  0
 19 39  1  0  0  0  0
 20 23  2  0  0  0  0
 20 40  1  0  0  0  0
 21 50  1  0  0  0  0
 22 25  2  0  0  0  0
 22 53  1  0  0  0  0
 23 41  1  0  0  0  0
 24 26  2  0  0  0  0
 24 54  1  0  0  0  0
 25 26  1  0  0  0  0
 25 61  1  0  0  0  0
 26 55  1  0  0  0  0
 27 81  1  0  0  0  0
 28 82  1  0  0  0  0
 29 31  2  0  0  0  0
 29 81  1  0  0  0  0
 30 83  1  0  0  0  0
 31 84  1  0  0  0  0
 32 66  2  0  0  0  0
 33 67  1  0  0  0  0
 33 70  1  0  0  0  0
 34 71  1  0  0  0  0
 34 76  2  0  0  0  0
 35 51  1  0  0  0  0
 35 72  1  0  0  0  0
 35 77  2  0  0  0  0
 36 63  1  0  0  0  0
 36 68  1  0  0  0  0
 36 78  2  0  0  0  0
 37 64  1  0  0  0  0
 37 73  1  0  0  0  0
 37 79  2  0  0  0  0
 38 69  1  0  0  0  0
 38 74  1  0  0  0  0
 38 80  2  0  0  0  0
 39 42  1  0  0  0  0
 40 51  1  0  0  0  0
 41 68  1  0  0  0  0
 42 44  1  0  0  0  0
 43 45  1  0  0  0  0
 43 48  1  0  0  0  0
 44 50  1  0  0  0  0
 45 52  1  0  0  0  0
 46 47  1  0  0  0  0
 46 53  1  0  0  0  0
 47 53  1  0  0  0  0
 48 69  1  0  0  0  0
 49 52  1  0  0  0  0
 49 69  1  0  0  0  0
 50 72  1  0  0  0  0
 51 68  1  0  0  0  0
 52 67  1  0  0  0  0
 53 62  1  0  0  0  0
 56 64  1  0  0  0  0
 57 65  1  0  0  0  0
 58 65  1  0  0  0  0
 59 65  1  0  0  0  0
 60 75  1  0  0  0  0
 61 74  1  0  0  0  0
 62 82  1  0  0  0  0
 63 65  1  0  0  0  0
 63 73  1  0  0  0  0
 64 75  1  0  0  0  0
 66 67  1  0  0  0  0
M  CHG  1  75   1
M  ISO  4  38 100  62 101  74 100  82 101
M  END
> <Batch ID>
0176

> <Smiles>
CNC(C)C(=O)NC(C(=O)N1Cc2cc([101O:1][101CH2:1]C3(c4ccc(C)c(C)c4C[100NH:0][100C:0](=O)N4CCCC(n5nc(-c6ccc(Oc7ccc(F)cc7F)cc6)c(C(N)=O)c5N)C4)CC3)ccc2CC1C(=O)NC1CCCc2ccccc21)C(C)(C)C

> <Shape>
0.194

> <Color>
0.074

> <Negative vol penalty>
0.000

$$$$

  -OEChem-04052322503D

 86 95  0     1  0  0  0  0  0999 V2000
  -23.0709  -32.0061   18.1802 C   0  0  0  0  0  0  0  0  0  0  0  0
  -23.9388  -31.1282   17.5387 C   0  0  0  0  0  0  0  0  0  0  0  0
  -23.7812  -12.1713   21.0371 C   0  0  0  0  0  0  0  0  0  0  0  0
  -25.1598  -14.1220   21.3995 C   0  0  0  0  0  0  0  0  0  0  0  0
  -23.0130  -32.0339   19.5729 C   0  0  0  0  0  0  0  0  0  0  0  0
  -24.7500  -30.2783   18.2896 C   0  0  0  0  0  0  0  0  0  0  0  0
  -27.6960  -23.7517   18.0869 C   0  0  0  0  0  0  0  0  0  0  0  0
  -24.9252  -11.3770   20.9608 C   0  0  0  0  0  0  0  0  0  0  0  0
  -26.3039  -13.3276   21.3232 C   0  0  0  0  0  0  0  0  0  0  0  0
  -28.9323  -23.1232   18.2293 C   0  0  0  0  0  0  0  0  0  0  0  0
  -29.6023  -11.8713   20.8655 C   0  0  0  0  0  0  0  0  0  0  0  0
  -30.6691  -12.3427   20.1006 C   0  0  0  0  0  0  0  0  0  0  0  0
  -28.6897  -23.2028   20.6281 C   0  0  0  0  0  0  0  0  0  0  0  0
  -29.2544  -12.3668   18.1423 C   0  0  0  0  0  0  0  0  0  0  0  0
  -31.8596  -20.1849   19.8354 C   0  0  0  0  0  0  0  0  0  0  0  0
  -23.8985  -13.5439   21.2564 C   0  0  0  0  0  0  0  0  0  0  0  0
  -21.9734  -14.6766   22.4886 C   0  0  0  0  0  0  0  0  0  0  0  0
  -23.8169  -31.1771   20.3412 C   0  0  0  0  0  0  0  0  0  0  0  0
  -26.9510  -24.1210   19.2161 C   0  0  0  0  0  0  0  0  0  0  0  0
  -24.7037  -30.2956   19.6940 C   0  0  0  0  0  0  0  0  0  0  0  0
  -27.4431  -23.8337   20.4972 C   0  0  0  0  0  0  0  0  0  0  0  0
  -26.1865  -11.9551   21.1039 C   0  0  0  0  0  0  0  0  0  0  0  0
  -29.4306  -22.8512   19.5000 C   0  0  0  0  0  0  0  0  0  0  0  0
  -28.3614  -11.6475   20.2688 C   0  0  0  0  0  0  0  0  0  0  0  0
  -30.4952  -12.5905   18.7390 C   0  0  0  0  0  0  0  0  0  0  0  0
  -28.1875  -11.8953   18.9072 C   0  0  0  0  0  0  0  0  0  0  0  0
  -22.7172  -14.3651   21.3347 C   0  0  0  0  0  0  0  0  0  0  0  0
  -30.7310  -18.1961   19.7925 C   0  0  0  0  0  0  0  0  0  0  0  0
  -29.5406  -18.8746   19.6500 C   0  0  0  0  0  0  0  0  0  0  0  0
  -30.6691  -20.8634   19.6931 C   0  0  0  0  0  0  0  0  0  1  0  0
  -20.9565  -15.4807   22.0349 C   0  0  0  0  0  0  0  0  0  0  0  0
  -22.1830  -14.2752   23.8489 C   0  0  0  0  0  0  0  0  0  0  0  0
  -25.9015  -26.8741   20.4090 C   0  0  0  0  0  0  0  0  0  0  0  0
  -24.3928  -24.9335   22.5256 C   0  0  0  0  0  0  0  0  0  0  0  0
  -24.2216  -22.0520   24.6901 C   0  0  0  0  0  0  0  0  0  0  0  0
  -23.0916  -17.4877   17.5185 C   0  0  0  0  0  0  0  0  0  0  0  0
  -23.7536  -31.2766   21.8448 C   0  0  0  0  0  0  0  0  0  0  0  0
  -25.6069  -24.7742   19.0452 C   0  0  0  0  0  0  0  0  0  0  0  0
  -26.6730  -24.1914   21.7412 C   0  0  0  0  0  0  0  0  0  0  0  0
  -24.3746  -30.0801   22.5611 C   0  0  0  0  0  0  0  0  0  0  0  0
  -20.4730  -15.0567   17.5379 C   0  0  0  0  0  0  0  0  0  0  0  0
  -23.6632  -21.0647   17.6840 C   0  0  0  0  0  0  0  0  0  0  0  0
  -25.7280  -29.7346   21.9483 C   0  0  0  0  0  0  0  0  0  0  0  0
  -19.5799  -15.4537   18.7081 C   0  0  0  0  0  0  0  0  0  0  0  0
  -25.0309  -20.5834   18.1475 C   0  0  0  0  0  0  0  0  0  0  0  0
  -21.0378  -16.2910   16.8520 C   0  0  0  0  0  0  0  0  0  0  0  0
  -22.7460  -19.9352   18.1263 C   0  0  0  0  0  0  0  0  0  0  0  0
  -21.0157  -17.5531   18.9950 C   0  0  0  0  0  0  0  0  0  0  0  0
  -25.5815  -29.3407   20.4735 C   0  0  1  0  0  0  0  0  0  0  0  0
  -25.1689  -25.5695   20.2711 C   0  0  1  0  0  0  0  0  0  0  0  0
  -20.2912  -16.3849   19.7028 C   0  0  2  0  0  0  0  0  0  0  0  0
  -24.9804  -19.0758   17.8852 C   0  0  1  0  0  0  0  0  0  0  0  0
  -30.7751  -16.7074   19.8490 C   0  0  0  0  0  0  0  0  0  0  0  0
  -22.3376  -21.1802   26.1001 C   0  0  0  0  0  0  0  0  0  0  0  0
  -25.1604  -18.1826   20.2398 C   0  0  0  0  0  0  0  0  0  0  0  0
  -25.6910  -26.5635   24.7544 C   0  0  0  0  0  0  0  0  0  0  0  0
  -25.1252  -24.7126   26.3426 C   0  0  0  0  0  0  0  0  0  0  0  0
  -23.3030  -25.9468   25.1683 C   0  0  0  0  0  0  0  0  0  0  0  0
  -24.3465  -19.3848   23.4136 C   0  0  0  0  0  0  0  0  0  0  0  0
  -28.2329  -18.1467   19.5451 C   0  0  0  0  0  0  0  0  0  0  0  0
  -24.7462  -24.3317   23.8642 C   0  0  1  0  0  0  0  0  0  0  0  0
  -23.0845  -21.0505   24.7817 C   0  0  2  0  0  0  0  0  0  0  0  0
  -25.8297  -18.2962   18.8809 C   0  0  2  0  0  0  0  0  0  0  0  0
  -24.7320  -25.3835   25.0092 C   0  0  0  0  0  0  0  0  0  0  0  0
  -31.9119  -18.8390   19.8878 N   0  0  0  0  0  0  0  0  0  0  0  0
  -22.2154  -14.9254   20.2309 N   0  0  0  0  0  0  0  0  0  0  0  0
  -29.4883  -20.2204   19.5977 N   0  0  0  0  0  0  0  0  0  0  0  0
  -21.1454  -15.5971   20.6892 N   0  0  0  0  0  0  0  0  0  0  0  0
  -25.3668  -24.8344   21.5220 N   0  0  0  0  0  0  0  0  0  0  0  0
  -21.7552  -17.1570   17.7879 N   0  0  0  0  0  0  0  0  0  0  0  0
  -23.5566  -18.7273   17.9634 N   0  0  0  0  0  0  0  0  0  0  0  0
  -19.9280  -16.0924   22.6598 N   0  0  0  0  0  0  0  0  0  0  0  0
  -23.2760  -13.4476   24.1405 N   0  0  0  0  0  0  0  0  0  0  0  0
  -25.0835  -27.9867   20.3591 N   0  0  0  0  0  0  0  0  0  0  0  0
  -23.8274  -23.2165   24.0659 N   0  0  0  0  0  0  0  0  0  0  0  0
  -23.6091  -19.6598   24.6737 N   0  3  0  0  0  0  0  0  0  0  0  0
  -27.1261  -19.0062   19.0484 N   0  3  0  0  0  0  0  0  0  0  0  0
  -21.4142  -14.6261   24.7759 O   0  0  0  0  0  0  0  0  0  0  0  0
  -27.1186  -26.8713   20.5516 O   0  0  0  0  0  0  0  0  0  0  0  0
  -23.2902  -25.4654   22.3739 O   0  0  0  0  0  0  0  0  0  0  0  0
  -25.3459  -21.8254   25.1317 O   0  0  0  0  0  0  0  0  0  0  0  0
  -23.8341  -16.7142   16.8992 O   0  0  0  0  0  0  0  0  0  0  0  0
  -27.3030  -11.1802   21.0298 O   0  0  0  0  0  0  0  0  0  0  0  0
  -30.6565  -22.2287   19.6441 O   0  0  0  0  0  0  0  0  0  1  0  0
  -31.5194  -13.0447   18.0049 F   0  0  0  0  0  0  0  0  0  0  0  0
  -26.9975  -11.6833   18.3286 F   0  0  0  0  0  0  0  0  0  0  0  0
  1  2  1  0  0  0  0
  1  5  2  0  0  0  0
  2  6  2  0  0  0  0
  3  8  2  0  0  0  0
  3 16  1  0  0  0  0
  4  9  1  0  0  0  0
  4 16  2  0  0  0  0
  5 18  1  0  0  0  0
  6 20  1  0  0  0  0
  7 10  2  0  0  0  0
  7 19  1  0  0  0  0
  8 22  1  0  0  0  0
  9 22  2  0  0  0  0
 10 23  1  0  0  0  0
 11 12  2  0  0  0  0
 11 24  1  0  0  0  0
 12 25  1  0  0  0  0
 13 21  1  0  0  0  0
 13 23  2  0  0  0  0
 14 25  2  0  0  0  0
 14 26  1  0  0  0  0
 15 30  1  0  0  0  0
 15 65  2  0  0  0  0
 16 27  1  0  0  0  0
 17 27  1  0  0  0  0
 17 31  2  0  0  0  0
 17 32  1  0  0  0  0
 18 20  2  0  0  0  0
 18 37  1  0  0  0  0
 19 21  2  0  0  0  0
 19 38  1  0  0  0  0
 20 49  1  0  0  0  0
 21 39  1  0  0  0  0
 22 83  1  0  0  0  0
 23 84  1  0  0  0  0
 24 26  2  0  0  0  0
 24 83  1  0  0  0  0
 25 85  1  0  0  0  0
 26 86  1  0  0  0  0
 27 66  2  0  0  0  0
 28 29  2  0  0  0  0
 28 53  1  0  0  0  0
 28 65  1  0  0  0  0
 29 60  1  0  0  0  0
 29 67  1  0  0  0  0
 30 67  2  0  0  0  0
 30 84  1  0  0  0  0
 31 68  1  0  0  0  0
 31 72  1  0  0  0  0
 32 73  1  0  0  0  0
 32 78  2  0  0  0  0
 33 50  1  0  0  0  0
 33 74  1  0  0  0  0
 33 79  2  0  0  0  0
 34 61  1  0  0  0  0
 34 69  1  0  0  0  0
 34 80  2  0  0  0  0
 35 62  1  0  0  0  0
 35 75  1  0  0  0  0
 35 81  2  0  0  0  0
 36 70  1  0  0  0  0
 36 71  1  0  0  0  0
 36 82  2  0  0  0  0
 37 40  1  0  0  0  0
 38 50  1  0  0  0  0
 39 69  1  0  0  0  0
 40 43  1  0  0  0  0
 41 44  1  0  0  0  0
 41 46  1  0  0  0  0
 42 45  1  0  0  0  0
 42 47  1  0  0  0  0
 43 49  1  0  0  0  0
 44 51  1  0  0  0  0
 45 52  1  0  0  0  0
 46 70  1  0  0  0  0
 47 71  1  0  0  0  0
 48 51  1  0  0  0  0
 48 70  1  0  0  0  0
 49 74  1  0  0  0  0
 50 69  1  0  0  0  0
 51 68  1  0  0  0  0
 52 63  1  0  0  0  0
 52 71  1  0  0  0  0
 54 62  1  0  0  0  0
 55 63  1  0  0  0  0
 56 64  1  0  0  0  0
 57 64  1  0  0  0  0
 58 64  1  0  0  0  0
 59 76  1  0  0  0  0
 60 77  1  0  0  0  0
 61 64  1  0  0  0  0
 61 75  1  0  0  0  0
 62 76  1  0  0  0  0
 63 77  1  0  0  0  0
 66 68  1  0  0  0  0
M  CHG  2  76   1  77   1
M  ISO  4  30 101  36 100  71 100  84 101
M  END
> <Batch ID>
0176

> <Smiles>
CNC(C)C(=O)NC(C(=O)N1Cc2cc([101O:1][101c:1]3cnc(C)c(CNC(C)C4CCC[100N:0]4[100C:0](=O)N4CCCC(n5nc(-c6ccc(Oc7ccc(F)cc7F)cc6)c(C(N)=O)c5N)C4)n3)ccc2CC1C(=O)NC1CCCc2ccccc21)C(C)(C)C

> <Shape>
0.188

> <Color>
0.075

> <Negative vol penalty>
0.000

$$$$

  -OEChem-04052322503D

 87 96  0     1  0  0  0  0  0999 V2000
  -18.5278  -25.1726   24.4927 C   0  0  0  0  0  0  0  0  0  0  0  0
  -19.8212  -24.9483   24.0319 C   0  0  0  0  0  0  0  0  0  0  0  0
  -22.9660  -10.2082   21.7819 C   0  0  0  0  0  0  0  0  0  0  0  0
  -24.7245   -8.5798   21.4769 C   0  0  0  0  0  0  0  0  0  0  0  0
  -17.8771  -26.3669   24.1861 C   0  0  0  0  0  0  0  0  0  0  0  0
  -20.4642  -25.9179   23.2633 C   0  0  0  0  0  0  0  0  0  0  0  0
  -26.4390  -27.2626   23.2794 C   0  0  0  0  0  0  0  0  0  0  0  0
  -22.0099   -9.2034   21.6343 C   0  0  0  0  0  0  0  0  0  0  0  0
  -23.7683   -7.5749   21.3294 C   0  0  0  0  0  0  0  0  0  0  0  0
  -27.4867  -26.8893   22.4387 C   0  0  0  0  0  0  0  0  0  0  0  0
  -21.7979   -4.5211   21.2317 C   0  0  0  0  0  0  0  0  0  0  0  0
  -22.0059   -3.3218   21.9129 C   0  0  0  0  0  0  0  0  0  0  0  0
  -27.2141  -28.9403   21.1983 C   0  0  0  0  0  0  0  0  0  0  0  0
  -21.9892   -4.5129   24.0149 C   0  0  0  0  0  0  0  0  0  0  0  0
  -27.1469  -24.1491   18.5482 C   0  0  0  0  0  0  0  0  0  0  0  0
  -24.3233   -9.8964   21.7031 C   0  0  0  0  0  0  0  0  0  0  0  0
  -25.9166  -11.3632   23.0513 C   0  0  0  0  0  0  0  0  0  0  0  0
  -18.5161  -27.3557   23.4215 C   0  0  0  0  0  0  0  0  0  0  0  0
  -25.7627  -28.4745   23.0788 C   0  0  0  0  0  0  0  0  0  0  0  0
  -19.8210  -27.1261   22.9451 C   0  0  0  0  0  0  0  0  0  0  0  0
  -26.1598  -29.3278   22.0394 C   0  0  0  0  0  0  0  0  0  0  0  0
  -22.4110   -7.8868   21.4081 C   0  0  0  0  0  0  0  0  0  0  0  0
  -27.8725  -27.7269   21.3962 C   0  0  0  0  0  0  0  0  0  0  0  0
  -21.6856   -5.7163   21.9420 C   0  0  0  0  0  0  0  0  0  0  0  0
  -22.1015   -3.3177   23.3045 C   0  0  0  0  0  0  0  0  0  0  0  0
  -21.7812   -5.7122   23.3336 C   0  0  0  0  0  0  0  0  0  0  0  0
  -25.3115  -10.9340   21.8549 C   0  0  0  0  0  0  0  0  0  0  0  0
  -29.7796  -24.3528   18.1551 C   0  0  0  0  0  0  0  0  0  0  0  0
  -28.9981  -25.4737   18.3290 C   0  0  0  0  0  0  0  0  0  0  0  0
  -27.9282  -23.0282   18.3735 C   0  0  0  0  0  0  0  0  0  0  0  0
  -26.7754  -12.3621   22.6626 C   0  0  0  0  0  0  0  0  0  0  0  0
  -25.7201  -10.9002   24.3940 C   0  0  0  0  0  0  0  0  0  0  0  0
  -22.7678  -29.2841   22.3866 C   0  0  0  0  0  0  0  0  0  0  0  0
  -23.8856  -32.2934   22.8530 C   0  0  0  0  0  0  0  0  0  0  0  0
  -26.5565  -34.4174   22.8977 C   0  0  0  0  0  0  0  0  0  0  0  0
  -28.0173  -16.7869   19.8905 C   0  0  0  0  0  0  0  0  0  0  0  0
  -17.7549  -28.6110   23.0759 C   0  0  0  0  0  0  0  0  0  0  0  0
  -24.6521  -28.8750   24.0108 C   0  0  0  0  0  0  0  0  0  0  0  0
  -25.4794  -30.6489   21.7942 C   0  0  0  0  0  0  0  0  0  0  0  0
  -18.6452  -29.7438   22.5715 C   0  0  0  0  0  0  0  0  0  0  0  0
  -28.3093  -13.7992   18.0690 C   0  0  0  0  0  0  0  0  0  0  0  0
  -19.6304  -29.2247   21.5291 C   0  0  0  0  0  0  0  0  0  0  0  0
  -27.5984  -12.8102   18.9925 C   0  0  0  0  0  0  0  0  0  0  0  0
  -27.0431  -19.4476   17.8025 C   0  0  0  0  0  0  0  0  0  0  0  0
  -28.7297  -20.1595   19.5393 C   0  0  0  0  0  0  0  0  0  0  0  0
  -27.5870  -15.1464   18.0072 C   0  0  0  0  0  0  0  0  0  0  0  0
  -27.7234  -18.0775   17.7284 C   0  0  0  0  0  0  0  0  0  0  0  0
  -29.3912  -18.7902   19.4106 C   0  0  0  0  0  0  0  0  0  0  0  0
  -26.6302  -14.7677   20.2566 C   0  0  0  0  0  0  0  0  0  0  0  0
  -20.5610  -28.1641   22.1296 C   0  0  1  0  0  0  0  0  0  0  0  0
  -23.6963  -29.8941   23.3983 C   0  0  1  0  0  0  0  0  0  0  0  0
  -27.3648  -13.4241   20.3844 C   0  0  1  0  0  0  0  0  0  0  0  0
  -28.0240  -20.5399   18.2351 C   0  0  0  0  0  0  0  0  0  0  0  0
  -31.2501  -24.4569   17.9357 C   0  0  0  0  0  0  0  0  0  0  0  0
  -29.6570  -27.4203   16.8771 C   0  0  0  0  0  0  0  0  0  0  0  0
  -27.1520  -36.8257   23.2755 C   0  0  0  0  0  0  0  0  0  0  0  0
  -22.7814  -32.9963   20.0968 C   0  0  0  0  0  0  0  0  0  0  0  0
  -24.2016  -35.0579   20.1304 C   0  0  0  0  0  0  0  0  0  0  0  0
  -22.4161  -34.7473   21.8446 C   0  0  0  0  0  0  0  0  0  0  0  0
  -28.3055  -33.7459   25.1888 C   0  0  0  0  0  0  0  0  0  0  0  0
  -28.8430  -27.8366   19.2278 C   0  0  0  0  0  0  0  0  0  1  0  0
  -29.5866  -26.8428   18.3055 C   0  0  1  0  0  0  0  0  0  0  0  0
  -24.5171  -33.3472   21.9756 C   0  0  1  0  0  0  0  0  0  0  0  0
  -27.0026  -35.4534   23.9136 C   0  0  2  0  0  0  0  0  0  0  0  0
  -23.4908  -34.0114   21.0150 C   0  0  0  0  0  0  0  0  0  0  0  0
  -27.6678  -25.3920   18.5290 N   0  0  0  0  0  0  0  0  0  0  0  0
  -25.7486  -11.6054   20.7862 N   0  0  0  0  0  0  0  0  0  0  0  0
  -29.2586  -23.1099   18.1739 N   0  0  0  0  0  0  0  0  0  0  0  0
  -26.6376  -12.4667   21.3098 N   0  0  0  0  0  0  0  0  0  0  0  0
  -24.3950  -30.9930   22.7286 N   0  0  0  0  0  0  0  0  0  0  0  0
  -27.3510  -15.6727   19.3588 N   0  0  0  0  0  0  0  0  0  0  0  0
  -28.4259  -17.7765   18.9840 N   0  0  0  0  0  0  0  0  0  0  0  0
  -27.6274  -13.1524   23.3495 N   0  0  0  0  0  0  0  0  0  0  0  0
  -24.8002   -9.8664   24.6163 N   0  0  0  0  0  0  0  0  0  0  0  0
  -27.3146  -21.7885   18.4068 N   0  0  0  0  0  0  0  0  0  0  0  0
  -21.5948  -28.7907   22.9252 N   0  0  0  0  0  0  0  0  0  0  0  0
  -25.1845  -34.2814   22.8758 N   0  0  0  0  0  0  0  0  0  0  0  0
  -28.3136  -35.0658   24.5071 N   0  3  0  0  0  0  0  0  0  0  0  0
  -26.3296  -11.4000   25.3698 O   0  0  0  0  0  0  0  0  0  0  0  0
  -23.0910  -29.2640   21.2048 O   0  0  0  0  0  0  0  0  0  0  0  0
  -22.9788  -32.6136   23.6254 O   0  0  0  0  0  0  0  0  0  0  0  0
  -27.3458  -33.7940   22.1914 O   0  0  0  0  0  0  0  0  0  0  0  0
  -28.2344  -16.8917   21.1042 O   0  0  0  0  0  0  0  0  0  0  0  0
  -21.4783   -6.9060   21.2643 O   0  0  0  0  0  0  0  0  0  0  0  0
  -28.9011  -27.3623   20.5683 O   0  0  0  0  0  0  0  0  0  1  0  0
  -22.2997   -2.1658   23.9586 F   0  0  0  0  0  0  0  0  0  0  0  0
  -21.6729   -6.8571   24.0215 F   0  0  0  0  0  0  0  0  0  0  0  0
  1  2  1  0  0  0  0
  1  5  2  0  0  0  0
  2  6  2  0  0  0  0
  3  8  2  0  0  0  0
  3 16  1  0  0  0  0
  4  9  1  0  0  0  0
  4 16  2  0  0  0  0
  5 18  1  0  0  0  0
  6 20  1  0  0  0  0
  7 10  2  0  0  0  0
  7 19  1  0  0  0  0
  8 22  1  0  0  0  0
  9 22  2  0  0  0  0
 10 23  1  0  0  0  0
 11 12  2  0  0  0  0
 11 24  1  0  0  0  0
 12 25  1  0  0  0  0
 13 21  1  0  0  0  0
 13 23  2  0  0  0  0
 14 25  2  0  0  0  0
 14 26  1  0  0  0  0
 15 30  1  0  0  0  0
 15 66  2  0  0  0  0
 16 27  1  0  0  0  0
 17 27  1  0  0  0  0
 17 31  2  0  0  0  0
 17 32  1  0  0  0  0
 18 20  2  0  0  0  0
 18 37  1  0  0  0  0
 19 21  2  0  0  0  0
 19 38  1  0  0  0  0
 20 50  1  0  0  0  0
 21 39  1  0  0  0  0
 22 84  1  0  0  0  0
 23 85  1  0  0  0  0
 24 26  2  0  0  0  0
 24 84  1  0  0  0  0
 25 86  1  0  0  0  0
 26 87  1  0  0  0  0
 27 67  2  0  0  0  0
 28 29  2  0  0  0  0
 28 54  1  0  0  0  0
 28 68  1  0  0  0  0
 29 62  1  0  0  0  0
 29 66  1  0  0  0  0
 30 68  2  0  0  0  0
 30 75  1  0  0  0  0
 31 69  1  0  0  0  0
 31 73  1  0  0  0  0
 32 74  1  0  0  0  0
 32 79  2  0  0  0  0
 33 51  1  0  0  0  0
 33 76  1  0  0  0  0
 33 80  2  0  0  0  0
 34 63  1  0  0  0  0
 34 70  1  0  0  0  0
 34 81  2  0  0  0  0
 35 64  1  0  0  0  0
 35 77  1  0  0  0  0
 35 82  2  0  0  0  0
 36 71  1  0  0  0  0
 36 72  1  0  0  0  0
 36 83  2  0  0  0  0
 37 40  1  0  0  0  0
 38 51  1  0  0  0  0
 39 70  1  0  0  0  0
 40 42  1  0  0  0  0
 41 43  1  0  0  0  0
 41 46  1  0  0  0  0
 42 50  1  0  0  0  0
 43 52  1  0  0  0  0
 44 47  1  0  0  0  0
 44 53  1  0  0  0  0
 45 48  1  0  0  0  0
 45 53  1  0  0  0  0
 46 71  1  0  0  0  0
 47 72  1  0  0  0  0
 48 72  1  0  0  0  0
 49 52  1  0  0  0  0
 49 71  1  0  0  0  0
 50 76  1  0  0  0  0
 51 70  1  0  0  0  0
 52 69  1  0  0  0  0
 53 75  1  0  0  0  0
 55 62  1  0  0  0  0
 56 64  1  0  0  0  0
 57 65  1  0  0  0  0
 58 65  1  0  0  0  0
 59 65  1  0  0  0  0
 60 78  1  0  0  0  0
 61 62  1  0  0  0  0
 61 85  1  0  0  0  0
 63 65  1  0  0  0  0
 63 77  1  0  0  0  0
 64 78  1  0  0  0  0
 67 69  1  0  0  0  0
M  CHG  1  78   1
M  ISO  4  36 100  61 101  72 100  85 101
M  END
> <Batch ID>
0176

> <Smiles>
CNC(C)C(=O)NC(C(=O)N1Cc2cc([101O:1][101CH2:1]C(C)c3ncc(NC4CC[100N:0]([100C:0](=O)N5CCCC(n6nc(-c7ccc(Oc8ccc(F)cc8F)cc7)c(C(N)=O)c6N)C5)CC4)nc3C)ccc2CC1C(=O)NC1CCCc2ccccc21)C(C)(C)C

> <Shape>
0.330

> <Color>
0.113

> <Negative vol penalty>
0.000

$$$$

  -OEChem-04052322503D

 88 97  0     1  0  0  0  0  0999 V2000
  -20.9675  -17.1703   20.9881 C   0  0  0  0  0  0  0  0  0  0  0  0
  -22.0892  -17.7150   21.6050 C   0  0  0  0  0  0  0  0  0  0  0  0
  -25.3681  -14.0409   22.1323 C   0  0  0  0  0  0  0  0  0  0  0  0
  -25.2258  -13.2690   19.8474 C   0  0  0  0  0  0  0  0  0  0  0  0
  -20.1925  -17.9550   20.1351 C   0  0  0  0  0  0  0  0  0  0  0  0
  -22.4371  -19.0444   21.3685 C   0  0  0  0  0  0  0  0  0  0  0  0
  -25.4134  -24.6977   24.6086 C   0  0  0  0  0  0  0  0  0  0  0  0
  -24.4575  -13.0584   22.5210 C   0  0  0  0  0  0  0  0  0  0  0  0
  -24.3152  -12.2864   20.2360 C   0  0  0  0  0  0  0  0  0  0  0  0
  -26.4279  -25.6356   24.4215 C   0  0  0  0  0  0  0  0  0  0  0  0
  -24.4096   -9.2545   21.7257 C   0  0  0  0  0  0  0  0  0  0  0  0
  -24.5966   -7.9657   21.2261 C   0  0  0  0  0  0  0  0  0  0  0  0
  -24.9696  -26.9188   22.9911 C   0  0  0  0  0  0  0  0  0  0  0  0
  -22.4175   -8.0526   20.1863 C   0  0  0  0  0  0  0  0  0  0  0  0
  -25.7522  -14.1462   20.7955 C   0  0  0  0  0  0  0  0  0  0  0  0
  -28.0948  -15.0494   20.3435 C   0  0  0  0  0  0  0  0  0  0  0  0
  -29.0024  -28.8904   20.3884 C   0  0  0  0  0  0  0  0  0  0  0  0
  -20.5256  -19.2975   19.8955 C   0  0  0  0  0  0  0  0  0  0  0  0
  -24.1709  -24.8580   23.9784 C   0  0  0  0  0  0  0  0  0  0  0  0
  -21.6666  -19.8474   20.5104 C   0  0  0  0  0  0  0  0  0  0  0  0
  -23.9402  -25.9828   23.1738 C   0  0  0  0  0  0  0  0  0  0  0  0
  -23.9311  -12.1811   21.5728 C   0  0  0  0  0  0  0  0  0  0  0  0
  -26.2071  -26.7449   23.6104 C   0  0  0  0  0  0  0  0  0  0  0  0
  -23.2265   -9.9423   21.4557 C   0  0  0  0  0  0  0  0  0  0  0  0
  -23.6006   -7.3648   20.4564 C   0  0  0  0  0  0  0  0  0  0  0  0
  -22.2305   -9.3414   20.6860 C   0  0  0  0  0  0  0  0  0  0  0  0
  -26.6924  -15.1613   20.3933 C   0  0  0  0  0  0  0  0  0  0  0  0
  -29.4589  -30.0751   19.8476 C   0  0  0  0  0  0  0  0  0  0  0  0
  -28.9042  -27.8315   19.5091 C   0  0  0  0  0  0  0  0  0  0  0  0
  -28.5218  -16.2776   19.9011 C   0  0  0  0  0  0  0  0  0  0  0  0
  -29.6571  -29.1200   17.7944 C   0  0  0  0  0  0  0  0  0  0  0  0
  -28.6470  -28.7604   21.7936 C   0  0  0  0  0  0  0  0  0  0  0  0
  -28.9363  -13.9348   20.6681 C   0  0  0  0  0  0  0  0  0  0  0  0
  -22.5045  -23.1884   21.8479 C   0  0  0  0  0  0  0  0  0  0  0  0
  -20.2248  -25.4110   22.4685 C   0  0  0  0  0  0  0  0  0  0  0  0
  -19.4630  -28.5518   23.5649 C   0  0  0  0  0  0  0  0  0  0  0  0
  -28.4745  -21.6451   19.9142 C   0  0  0  0  0  0  0  0  0  0  0  0
  -19.6845  -20.0927   18.9286 C   0  0  0  0  0  0  0  0  0  0  0  0
  -23.0781  -23.8512   24.2118 C   0  0  0  0  0  0  0  0  0  0  0  0
  -22.6173  -26.2116   22.4911 C   0  0  0  0  0  0  0  0  0  0  0  0
  -19.9074  -21.5999   19.0242 C   0  0  0  0  0  0  0  0  0  0  0  0
  -25.9470  -20.1726   17.9736 C   0  0  0  0  0  0  0  0  0  0  0  0
  -21.3988  -21.9174   19.0651 C   0  0  0  0  0  0  0  0  0  0  0  0
  -26.0260  -18.7153   18.4277 C   0  0  0  0  0  0  0  0  0  0  0  0
  -28.7642  -24.9360   18.2308 C   0  0  0  0  0  0  0  0  0  0  0  0
  -26.7156  -24.9484   19.7183 C   0  0  0  0  0  0  0  0  0  0  0  0
  -26.1136  -21.1465   19.1413 C   0  0  0  0  0  0  0  0  0  0  0  0
  -29.3378  -23.7968   19.0721 C   0  0  0  0  0  0  0  0  0  0  0  0
  -27.3374  -23.8123   20.5272 C   0  0  0  0  0  0  0  0  0  0  0  0
  -27.4133  -19.4601   20.3996 C   0  0  0  0  0  0  0  0  0  0  0  0
  -22.0623  -21.2926   20.2983 C   0  0  1  0  0  0  0  0  0  0  0  0
  -22.0234  -23.8478   23.1094 C   0  0  1  0  0  0  0  0  0  0  0  0
  -27.3081  -18.4581   19.2394 C   0  0  1  0  0  0  0  0  0  0  0  0
  -27.7691  -25.7993   19.0070 C   0  0  0  0  0  0  0  0  0  0  0  0
  -29.6098  -31.2914   20.7020 C   0  0  0  0  0  0  0  0  0  0  0  0
  -30.0209  -29.2474   16.3543 C   0  0  0  0  0  0  0  0  0  0  0  0
  -17.5172  -30.0958   23.9216 C   0  0  0  0  0  0  0  0  0  0  0  0
  -20.0830  -25.9226   19.4638 C   0  0  0  0  0  0  0  0  0  0  0  0
  -18.8770  -28.0609   19.9553 C   0  0  0  0  0  0  0  0  0  0  0  0
  -17.8661  -25.8795   20.6205 C   0  0  0  0  0  0  0  0  0  0  0  0
  -19.9886  -28.7304   26.4719 C   0  0  0  0  0  0  0  0  0  0  0  0
  -27.2202  -28.3589   22.1876 C   0  0  0  0  0  0  0  0  0  1  0  0
  -19.8633  -26.7604   21.8961 C   0  0  1  0  0  0  0  0  0  0  0  0
  -18.4228  -29.0494   24.5522 C   0  0  2  0  0  0  0  0  0  0  0  0
  -19.1980  -26.6508   20.4951 C   0  0  0  0  0  0  0  0  0  0  0  0
  -26.2574  -16.3656   20.0130 N   0  0  0  0  0  0  0  0  0  0  0  0
  -29.7965  -30.2259   18.5501 N   0  0  0  0  0  0  0  0  0  0  0  0
  -29.2241  -27.9113   18.2008 N   0  0  0  0  0  0  0  0  0  0  0  0
  -27.3932  -17.0216   19.7202 N   0  0  0  0  0  0  0  0  0  0  0  0
  -21.5824  -25.1958   22.7451 N   0  0  0  0  0  0  0  0  0  0  0  0
  -27.3277  -20.8369   19.9081 N   0  0  0  0  0  0  0  0  0  0  0  0
  -28.2807  -23.0237   19.7232 N   0  0  0  0  0  0  0  0  0  0  0  0
  -29.7488  -16.7829   19.6532 N   0  0  0  0  0  0  0  0  0  0  0  0
  -28.3335  -12.7482   21.1073 N   0  0  0  0  0  0  0  0  0  0  0  0
  -21.7718  -22.0760   21.4800 N   0  0  0  0  0  0  0  0  0  0  0  0
  -19.0367  -27.4215   22.9001 N   0  0  0  0  0  0  0  0  0  0  0  0
  -19.0855  -29.6563   25.7410 N   0  3  0  0  0  0  0  0  0  0  0  0
  -29.4871  -28.9699   22.6911 O   0  0  0  0  0  0  0  0  0  0  0  0
  -30.1866  -13.9949   20.5872 O   0  0  0  0  0  0  0  0  0  0  0  0
  -23.4680  -23.6551   21.2517 O   0  0  0  0  0  0  0  0  0  0  0  0
  -19.3345  -24.5813   22.6697 O   0  0  0  0  0  0  0  0  0  0  0  0
  -20.5440  -29.1121   23.3973 O   0  0  0  0  0  0  0  0  0  0  0  0
  -29.6039  -21.1666   20.0764 O   0  0  0  0  0  0  0  0  0  0  0  0
  -23.0427  -11.2221   21.9518 O   0  0  0  0  0  0  0  0  0  0  0  0
  -27.2048  -27.6699   23.4239 O   0  0  0  0  0  0  0  0  0  1  0  0
  -28.4604  -26.6133   19.9520 O   0  0  0  0  0  0  0  0  0  0  0  0
  -23.7809   -6.1277   19.9753 F   0  0  0  0  0  0  0  0  0  0  0  0
  -21.0923   -9.9977   20.4223 F   0  0  0  0  0  0  0  0  0  0  0  0
  1  2  1  0  0  0  0
  1  5  2  0  0  0  0
  2  6  2  0  0  0  0
  3  8  2  0  0  0  0
  3 15  1  0  0  0  0
  4  9  1  0  0  0  0
  4 15  2  0  0  0  0
  5 18  1  0  0  0  0
  6 20  1  0  0  0  0
  7 10  2  0  0  0  0
  7 19  1  0  0  0  0
  8 22  1  0  0  0  0
  9 22  2  0  0  0  0
 10 23  1  0  0  0  0
 11 12  2  0  0  0  0
 11 24  1  0  0  0  0
 12 25  1  0  0  0  0
 13 21  1  0  0  0  0
 13 23  2  0  0  0  0
 14 25  2  0  0  0  0
 14 26  1  0  0  0  0
 15 27  1  0  0  0  0
 16 27  1  0  0  0  0
 16 30  2  0  0  0  0
 16 33  1  0  0  0  0
 17 28  1  0  0  0  0
 17 29  2  0  0  0  0
 17 32  1  0  0  0  0
 18 20  2  0  0  0  0
 18 38  1  0  0  0  0
 19 21  2  0  0  0  0
 19 39  1  0  0  0  0
 20 51  1  0  0  0  0
 21 40  1  0  0  0  0
 22 84  1  0  0  0  0
 23 85  1  0  0  0  0
 24 26  2  0  0  0  0
 24 84  1  0  0  0  0
 25 87  1  0  0  0  0
 26 88  1  0  0  0  0
 27 66  2  0  0  0  0
 28 55  1  0  0  0  0
 28 67  2  0  0  0  0
 29 68  1  0  0  0  0
 29 86  1  0  0  0  0
 30 69  1  0  0  0  0
 30 73  1  0  0  0  0
 31 56  1  0  0  0  0
 31 67  1  0  0  0  0
 31 68  2  0  0  0  0
 32 62  1  0  0  0  0
 32 78  2  0  0  0  0
 33 74  1  0  0  0  0
 33 79  2  0  0  0  0
 34 52  1  0  0  0  0
 34 75  1  0  0  0  0
 34 80  2  0  0  0  0
 35 63  1  0  0  0  0
 35 70  1  0  0  0  0
 35 81  2  0  0  0  0
 36 64  1  0  0  0  0
 36 76  1  0  0  0  0
 36 82  2  0  0  0  0
 37 71  1  0  0  0  0
 37 72  1  0  0  0  0
 37 83  2  0  0  0  0
 38 41  1  0  0  0  0
 39 52  1  0  0  0  0
 40 70  1  0  0  0  0
 41 43  1  0  0  0  0
 42 44  1  0  0  0  0
 42 47  1  0  0  0  0
 43 51  1  0  0  0  0
 44 53  1  0  0  0  0
 45 48  1  0  0  0  0
 45 54  1  0  0  0  0
 46 49  1  0  0  0  0
 46 54  1  0  0  0  0
 47 71  1  0  0  0  0
 48 72  1  0  0  0  0
 49 72  1  0  0  0  0
 50 53  1  0  0  0  0
 50 71  1  0  0  0  0
 51 75  1  0  0  0  0
 52 70  1  0  0  0  0
 53 69  1  0  0  0  0
 54 86  1  0  0  0  0
 57 64  1  0  0  0  0
 58 65  1  0  0  0  0
 59 65  1  0  0  0  0
 60 65  1  0  0  0  0
 61 77  1  0  0  0  0
 62 85  1  0  0  0  0
 63 65  1  0  0  0  0
 63 76  1  0  0  0  0
 64 77  1  0  0  0  0
 66 69  1  0  0  0  0
M  CHG  1  77   1
M  ISO  4  37 100  62 101  72 100  85 101
M  END
> <Batch ID>
0176

> <Smiles>
CNC(C)C(=O)NC(C(=O)N1Cc2cc([101O:1][101CH2:1]C(=O)c3c(C)nc(C)nc3OC3CC[100N:0]([100C:0](=O)N4CCCC(n5nc(-c6ccc(Oc7ccc(F)cc7F)cc6)c(C(N)=O)c5N)C4)CC3)ccc2CC1C(=O)NC1CCCc2ccccc21)C(C)(C)C

> <Shape>
0.216

> <Color>
0.056

> <Negative vol penalty>
0.000

$$$$

  -OEChem-04052322503D

 81 90  0     1  0  0  0  0  0999 V2000
  -25.4955  -30.2744   22.3312 C   0  0  0  0  0  0  0  0  0  0  0  0
  -25.7560  -28.9079   22.3360 C   0  0  0  0  0  0  0  0  0  0  0  0
  -23.0775   -9.8645   19.9429 C   0  0  0  0  0  0  0  0  0  0  0  0
  -23.8386   -9.8764   22.2358 C   0  0  0  0  0  0  0  0  0  0  0  0
  -26.4667  -31.1697   22.7772 C   0  0  0  0  0  0  0  0  0  0  0  0
  -26.9886  -28.4359   22.7860 C   0  0  0  0  0  0  0  0  0  0  0  0
  -28.0503  -23.2205   25.8155 C   0  0  0  0  0  0  0  0  0  0  0  0
  -22.3359   -8.7104   20.1949 C   0  0  0  0  0  0  0  0  0  0  0  0
  -23.0969   -8.7222   22.4879 C   0  0  0  0  0  0  0  0  0  0  0  0
  -28.5003  -21.9685   25.3986 C   0  0  0  0  0  0  0  0  0  0  0  0
  -19.8706   -7.9192   23.0933 C   0  0  0  0  0  0  0  0  0  0  0  0
  -19.1143   -7.8796   24.2647 C   0  0  0  0  0  0  0  0  0  0  0  0
  -30.7500  -22.5760   26.0223 C   0  0  0  0  0  0  0  0  0  0  0  0
  -20.3598   -5.9456   25.0034 C   0  0  0  0  0  0  0  0  0  0  0  0
  -23.8289  -10.4475   20.9633 C   0  0  0  0  0  0  0  0  0  0  0  0
  -24.1659  -12.9731   20.8393 C   0  0  0  0  0  0  0  0  0  0  0  0
  -27.7082  -30.7078   23.2419 C   0  0  0  0  0  0  0  0  0  0  0  0
  -28.9501  -24.1652   26.3297 C   0  0  0  0  0  0  0  0  0  0  0  0
  -27.9779  -29.3259   23.2374 C   0  0  0  0  0  0  0  0  0  0  0  0
  -30.3085  -23.8383   26.4474 C   0  0  0  0  0  0  0  0  0  0  0  0
  -22.3456   -8.1392   21.4675 C   0  0  0  0  0  0  0  0  0  0  0  0
  -29.8507  -21.6471   25.4992 C   0  0  0  0  0  0  0  0  0  0  0  0
  -20.8714   -6.9720   22.8769 C   0  0  0  0  0  0  0  0  0  0  0  0
  -19.3589   -6.8929   25.2197 C   0  0  0  0  0  0  0  0  0  0  0  0
  -21.1160   -5.9852   23.8320 C   0  0  0  0  0  0  0  0  0  0  0  0
  -24.5956  -11.6395   20.7034 C   0  0  0  0  0  0  0  0  0  0  0  0
  -25.2564  -13.7241   20.4743 C   0  0  0  0  0  0  0  0  0  0  0  0
  -22.8946  -13.4872   21.2581 C   0  0  0  0  0  0  0  0  0  0  0  0
  -29.8881  -27.0749   25.4594 C   0  0  0  0  0  0  0  0  0  0  0  0
  -31.4812  -26.9819   28.2835 C   0  0  0  0  0  0  0  0  0  0  0  0
  -32.8943  -25.0960   30.7520 C   0  0  0  0  0  0  0  0  0  0  0  0
  -30.7383  -14.7538   20.6583 C   0  0  0  0  0  0  0  0  0  0  0  0
  -28.7443  -31.7168   23.6700 C   0  0  0  0  0  0  0  0  0  0  0  0
  -28.4446  -25.5016   26.7999 C   0  0  0  0  0  0  0  0  0  0  0  0
  -31.3119  -24.8098   27.0112 C   0  0  0  0  0  0  0  0  0  0  0  0
  -29.8858  -31.1106   24.4822 C   0  0  0  0  0  0  0  0  0  0  0  0
  -29.6040  -12.3635   18.2757 C   0  0  0  0  0  0  0  0  0  0  0  0
  -30.3964  -29.8365   23.8169 C   0  0  0  0  0  0  0  0  0  0  0  0
  -28.2781  -18.1516   20.0765 C   0  0  0  0  0  0  0  0  0  0  0  0
  -27.9842  -19.3813   20.8897 C   0  0  0  0  0  0  0  0  0  0  0  0
  -28.1673  -12.0678   18.7098 C   0  0  0  0  0  0  0  0  0  0  0  0
  -31.6332  -16.7377   23.1689 C   0  0  0  0  0  0  0  0  0  0  0  0
  -31.1850  -17.8488   24.1187 C   0  0  0  0  0  0  0  0  0  0  0  0
  -30.5213  -12.5879   19.4758 C   0  0  0  0  0  0  0  0  0  0  0  0
  -28.6189  -13.3175   20.8623 C   0  0  0  0  0  0  0  0  0  0  0  0
  -29.2937  -28.7736   23.7412 C   0  0  1  0  0  0  0  0  0  0  0  0
  -29.5294  -26.5738   26.8298 C   0  0  1  0  0  0  0  0  0  0  0  0
  -29.3489  -18.7524   20.9445 C   0  0  0  0  0  0  0  0  0  0  0  0
  -29.8041  -18.0410   22.1865 C   0  0  1  0  0  0  0  0  0  0  0  0
  -27.6445  -13.1393   19.6854 C   0  0  2  0  0  0  0  0  0  0  0  0
  -30.8008  -16.9063   21.8919 C   0  0  2  0  0  0  0  0  0  0  0  0
  -30.5431  -18.9245   23.2229 C   0  0  2  0  0  0  0  0  0  0  0  0
  -31.6336  -19.8244   22.6126 C   0  0  0  0  0  0  0  0  0  0  0  0
  -34.1546  -25.3030   32.9121 C   0  0  0  0  0  0  0  0  0  0  0  0
  -34.0132  -27.6903   26.7354 C   0  0  0  0  0  0  0  0  0  0  0  0
  -35.3492  -26.9577   28.7220 C   0  0  0  0  0  0  0  0  0  0  0  0
  -33.7639  -28.8730   28.9248 C   0  0  0  0  0  0  0  0  0  0  0  0
  -30.7647  -23.7023   32.2625 C   0  0  0  0  0  0  0  0  0  0  0  0
  -29.5752  -19.7957   24.0321 C   0  0  0  0  0  0  0  0  0  1  0  0
  -32.8506  -26.5240   28.7239 C   0  0  1  0  0  0  0  0  0  0  0  0
  -32.7851  -25.1708   32.2643 C   0  0  2  0  0  0  0  0  0  0  0  0
  -33.9759  -27.4934   28.2641 C   0  0  0  0  0  0  0  0  0  0  0  0
  -25.8604  -11.5454   20.2846 N   0  0  0  0  0  0  0  0  0  0  0  0
  -26.2348  -12.8295   20.1541 N   0  0  0  0  0  0  0  0  0  0  0  0
  -30.7698  -26.1058   27.4515 N   0  0  0  0  0  0  0  0  0  0  0  0
  -29.9693  -13.6167   20.3605 N   0  0  0  0  0  0  0  0  0  0  0  0
  -25.4643  -15.0559   20.3992 N   0  0  0  0  0  0  0  0  0  0  0  0
  -21.8846  -12.5766   21.5973 N   0  0  0  0  0  0  0  0  0  0  0  0
  -29.1161  -28.1370   25.0287 N   0  0  0  0  0  0  0  0  0  0  0  0
  -32.7743  -26.3398   30.1691 N   0  0  0  0  0  0  0  0  0  0  0  0
  -30.1379  -15.6827   21.4993 N   0  0  0  0  0  0  0  0  0  0  0  0
  -32.1294  -23.9434   32.7977 N   0  3  0  0  0  0  0  0  0  0  0  0
  -22.6561  -14.7174   21.3137 O   0  0  0  0  0  0  0  0  0  0  0  0
  -30.7989  -26.5387   24.8393 O   0  0  0  0  0  0  0  0  0  0  0  0
  -31.0553  -28.0733   28.6695 O   0  0  0  0  0  0  0  0  0  0  0  0
  -33.0722  -24.0402   30.1485 O   0  0  0  0  0  0  0  0  0  0  0  0
  -31.8737  -14.9307   20.2038 O   0  0  0  0  0  0  0  0  0  0  0  0
  -21.6219   -7.0131   21.7139 O   0  0  0  0  0  0  0  0  0  0  0  0
  -30.2927  -20.4260   25.0924 O   0  0  0  0  0  0  0  0  0  1  0  0
  -18.6336   -6.8559   26.3452 F   0  0  0  0  0  0  0  0  0  0  0  0
  -22.0770   -5.0732   23.6302 F   0  0  0  0  0  0  0  0  0  0  0  0
  1  2  1  0  0  0  0
  1  5  2  0  0  0  0
  2  6  2  0  0  0  0
  3  8  2  0  0  0  0
  3 15  1  0  0  0  0
  4  9  1  0  0  0  0
  4 15  2  0  0  0  0
  5 17  1  0  0  0  0
  6 19  1  0  0  0  0
  7 10  2  0  0  0  0
  7 18  1  0  0  0  0
  8 21  1  0  0  0  0
  9 21  2  0  0  0  0
 10 22  1  0  0  0  0
 11 12  2  0  0  0  0
 11 23  1  0  0  0  0
 12 24  1  0  0  0  0
 13 20  1  0  0  0  0
 13 22  2  0  0  0  0
 14 24  2  0  0  0  0
 14 25  1  0  0  0  0
 15 26  1  0  0  0  0
 16 26  1  0  0  0  0
 16 27  2  0  0  0  0
 16 28  1  0  0  0  0
 17 19  2  0  0  0  0
 17 33  1  0  0  0  0
 18 20  2  0  0  0  0
 18 34  1  0  0  0  0
 19 46  1  0  0  0  0
 20 35  1  0  0  0  0
 21 78  1  0  0  0  0
 22 79  1  0  0  0  0
 23 25  2  0  0  0  0
 23 78  1  0  0  0  0
 24 80  1  0  0  0  0
 25 81  1  0  0  0  0
 26 63  2  0  0  0  0
 27 64  1  0  0  0  0
 27 67  1  0  0  0  0
 28 68  1  0  0  0  0
 28 73  2  0  0  0  0
 29 47  1  0  0  0  0
 29 69  1  0  0  0  0
 29 74  2  0  0  0  0
 30 60  1  0  0  0  0
 30 65  1  0  0  0  0
 30 75  2  0  0  0  0
 31 61  1  0  0  0  0
 31 70  1  0  0  0  0
 31 76  2  0  0  0  0
 32 66  1  0  0  0  0
 32 71  1  0  0  0  0
 32 77  2  0  0  0  0
 33 36  1  0  0  0  0
 34 47  1  0  0  0  0
 35 65  1  0  0  0  0
 36 38  1  0  0  0  0
 37 41  1  0  0  0  0
 37 44  1  0  0  0  0
 38 46  1  0  0  0  0
 39 40  1  0  0  0  0
 39 48  1  0  0  0  0
 40 48  1  0  0  0  0
 41 50  1  0  0  0  0
 42 43  1  0  0  0  0
 42 51  1  0  0  0  0
 43 52  1  0  0  0  0
 44 66  1  0  0  0  0
 45 50  1  0  0  0  0
 45 66  1  0  0  0  0
 46 69  1  0  0  0  0
 47 65  1  0  0  0  0
 48 49  1  0  0  0  0
 49 51  1  0  0  0  0
 49 52  1  0  0  0  0
 50 64  1  0  0  0  0
 51 71  1  0  0  0  0
 52 53  1  0  0  0  0
 52 59  1  0  0  0  0
 54 61  1  0  0  0  0
 55 62  1  0  0  0  0
 56 62  1  0  0  0  0
 57 62  1  0  0  0  0
 58 72  1  0  0  0  0
 59 79  1  0  0  0  0
 60 62  1  0  0  0  0
 60 70  1  0  0  0  0
 61 72  1  0  0  0  0
 63 64  1  0  0  0  0
M  CHG  1  72   1
M  ISO  4  32 100  59 101  71 100  79 101
M  END
> <Batch ID>
0176

> <Smiles>
CNC(C)C(=O)NC(C(=O)N1Cc2cc([101O:1][101CH2:1]C3(C)CCC([100NH:0][100C:0](=O)N4CCCC(n5nc(-c6ccc(Oc7ccc(F)cc7F)cc6)c(C(N)=O)c5N)C4)C3C3CC3)ccc2CC1C(=O)NC1CCCc2ccccc21)C(C)(C)C

> <Shape>
0.222

> <Color>
0.200

> <Negative vol penalty>
0.000

$$$$

  -OEChem-04052322503D

 82 91  0     1  0  0  0  0  0999 V2000
  -25.7543  -33.6741   20.4918 C   0  0  0  0  0  0  0  0  0  0  0  0
  -26.9000  -33.0702   20.9998 C   0  0  0  0  0  0  0  0  0  0  0  0
  -22.9753  -10.0331   19.9076 C   0  0  0  0  0  0  0  0  0  0  0  0
  -23.8525   -9.8141   22.1481 C   0  0  0  0  0  0  0  0  0  0  0  0
  -24.6047  -32.9152   20.2761 C   0  0  0  0  0  0  0  0  0  0  0  0
  -26.8964  -31.7070   21.2935 C   0  0  0  0  0  0  0  0  0  0  0  0
  -31.2152  -25.9919   21.3264 C   0  0  0  0  0  0  0  0  0  0  0  0
  -22.1980   -8.8911   20.1004 C   0  0  0  0  0  0  0  0  0  0  0  0
  -23.0751   -8.6721   22.3409 C   0  0  0  0  0  0  0  0  0  0  0  0
  -31.6386  -24.9667   22.1711 C   0  0  0  0  0  0  0  0  0  0  0  0
  -19.8520   -7.9457   23.0511 C   0  0  0  0  0  0  0  0  0  0  0  0
  -19.1556   -7.8332   24.2545 C   0  0  0  0  0  0  0  0  0  0  0  0
  -29.6199  -23.7395   21.6835 C   0  0  0  0  0  0  0  0  0  0  0  0
  -30.1023  -17.3500   22.9663 C   0  0  0  0  0  0  0  0  0  0  0  0
  -20.3516   -5.7947   24.7558 C   0  0  0  0  0  0  0  0  0  0  0  0
  -23.8027  -10.4946   20.9315 C   0  0  0  0  0  0  0  0  0  0  0  0
  -24.2428  -13.0062   21.0056 C   0  0  0  0  0  0  0  0  0  0  0  0
  -24.5900  -31.5401   20.5583 C   0  0  0  0  0  0  0  0  0  0  0  0
  -29.9839  -25.9033   20.6613 C   0  0  0  0  0  0  0  0  0  0  0  0
  -25.7451  -30.9293   21.0827 C   0  0  0  0  0  0  0  0  0  0  0  0
  -29.1843  -24.7637   20.8290 C   0  0  0  0  0  0  0  0  0  0  0  0
  -30.6701  -18.5132   23.4450 C   0  0  0  0  0  0  0  0  0  0  0  0
  -31.9328  -18.9178   23.0180 C   0  0  0  0  0  0  0  0  0  0  0  0
  -22.2478   -8.2106   21.3169 C   0  0  0  0  0  0  0  0  0  0  0  0
  -30.8396  -23.8416   22.3520 C   0  0  0  0  0  0  0  0  0  0  0  0
  -20.7981   -6.9828   22.7001 C   0  0  0  0  0  0  0  0  0  0  0  0
  -19.4055   -6.7577   25.1068 C   0  0  0  0  0  0  0  0  0  0  0  0
  -21.0480   -5.9073   23.5524 C   0  0  0  0  0  0  0  0  0  0  0  0
  -24.6064  -11.6738   20.7328 C   0  0  0  0  0  0  0  0  0  0  0  0
  -32.6100  -18.1392   22.1090 C   0  0  0  0  0  0  0  0  0  0  0  0
  -30.8533  -16.6354   22.0442 C   0  0  0  0  0  0  0  0  0  0  0  0
  -25.3450  -13.7431   20.6470 C   0  0  0  0  0  0  0  0  0  0  0  0
  -23.0184  -13.5308   21.5358 C   0  0  0  0  0  0  0  0  0  0  0  0
  -27.2954  -27.5991   20.6835 C   0  0  0  0  0  0  0  0  0  0  0  0
  -26.4746  -25.6015   18.2631 C   0  0  0  0  0  0  0  0  0  0  0  0
  -26.9089  -22.5893   16.7189 C   0  0  0  0  0  0  0  0  0  0  0  0
  -30.8518  -14.5661   20.6075 C   0  0  0  0  0  0  0  0  0  0  0  0
  -23.3092  -30.7706   20.3532 C   0  0  0  0  0  0  0  0  0  0  0  0
  -29.5538  -27.0057   19.7328 C   0  0  0  0  0  0  0  0  0  0  0  0
  -30.1212  -19.4623   24.4632 C   0  0  0  0  0  0  0  0  0  0  0  0
  -32.3656  -20.1729   23.6986 C   0  0  0  0  0  0  0  0  0  0  0  0
  -27.8631  -24.6109   20.1221 C   0  0  0  0  0  0  0  0  0  0  0  0
  -23.5040  -29.2567   20.3380 C   0  0  0  0  0  0  0  0  0  0  0  0
  -29.5166  -12.4085   18.1097 C   0  0  0  0  0  0  0  0  0  0  0  0
  -24.3929  -28.8211   21.4985 C   0  0  0  0  0  0  0  0  0  0  0  0
  -28.0902  -12.1346   18.5919 C   0  0  0  0  0  0  0  0  0  0  0  0
  -30.5014  -12.4987   19.2740 C   0  0  0  0  0  0  0  0  0  0  0  0
  -28.7004  -13.1717   20.8143 C   0  0  0  0  0  0  0  0  0  0  0  0
  -25.7881  -29.4482   21.3904 C   0  0  1  0  0  0  0  0  0  0  0  0
  -28.0455  -27.0421   19.5067 C   0  0  1  0  0  0  0  0  0  0  0  0
  -31.0271  -20.7007   24.2659 C   0  0  1  0  0  0  0  0  0  0  0  0
  -27.6615  -13.1369   19.6815 C   0  0  2  0  0  0  0  0  0  0  0  0
  -33.9709  -18.5219   21.6382 C   0  0  0  0  0  0  0  0  0  0  0  0
  -26.0695  -21.2276   14.7854 C   0  0  0  0  0  0  0  0  0  0  0  0
  -23.9314  -24.9600   19.8221 C   0  0  0  0  0  0  0  0  0  0  0  0
  -23.6232  -22.9529   18.3576 C   0  0  0  0  0  0  0  0  0  0  0  0
  -23.6025  -25.2386   17.3587 C   0  0  0  0  0  0  0  0  0  0  0  0
  -29.5877  -22.5079   15.4633 C   0  0  0  0  0  0  0  0  0  0  0  0
  -30.3817  -21.7160   23.3154 C   0  0  0  0  0  0  0  0  0  1  0  0
  -25.7880  -24.2603   18.1701 C   0  0  1  0  0  0  0  0  0  0  0  0
  -27.1143  -22.2258   15.2594 C   0  0  2  0  0  0  0  0  0  0  0  0
  -24.2602  -24.3564   18.4421 C   0  0  0  0  0  0  0  0  0  0  0  0
  -25.8428  -11.5675   20.2389 N   0  0  0  0  0  0  0  0  0  0  0  0
  -32.0883  -16.9981   21.6034 N   0  0  0  0  0  0  0  0  0  0  0  0
  -26.2658  -12.8425   20.1984 N   0  0  0  0  0  0  0  0  0  0  0  0
  -27.4834  -25.7186   19.2297 N   0  0  0  0  0  0  0  0  0  0  0  0
  -30.0321  -13.4701   20.2645 N   0  0  0  0  0  0  0  0  0  0  0  0
  -25.6067  -15.0672   20.6747 N   0  0  0  0  0  0  0  0  0  0  0  0
  -21.9882  -12.6342   21.8507 N   0  0  0  0  0  0  0  0  0  0  0  0
  -30.2868  -15.4405   21.5353 N   0  0  0  0  0  0  0  0  0  0  0  0
  -26.5816  -28.7485   20.4028 N   0  0  0  0  0  0  0  0  0  0  0  0
  -26.1286  -23.7174   16.8595 N   0  0  0  0  0  0  0  0  0  0  0  0
  -28.4633  -21.6246   15.0602 N   0  3  0  0  0  0  0  0  0  0  0  0
  -22.8369  -14.7598   21.7094 O   0  0  0  0  0  0  0  0  0  0  0  0
  -27.3585  -27.0275   21.7656 O   0  0  0  0  0  0  0  0  0  0  0  0
  -26.1333  -26.5097   17.5012 O   0  0  0  0  0  0  0  0  0  0  0  0
  -27.3894  -21.9355   17.6421 O   0  0  0  0  0  0  0  0  0  0  0  0
  -31.9612  -14.7324   20.0942 O   0  0  0  0  0  0  0  0  0  0  0  0
  -21.4892   -7.0964   21.5054 O   0  0  0  0  0  0  0  0  0  0  0  0
  -31.2502  -22.8397   23.1764 O   0  0  0  0  0  0  0  0  0  1  0  0
  -18.7378   -6.6505   26.2631 F   0  0  0  0  0  0  0  0  0  0  0  0
  -21.9566   -4.9797   23.2212 F   0  0  0  0  0  0  0  0  0  0  0  0
  1  2  1  0  0  0  0
  1  5  2  0  0  0  0
  2  6  2  0  0  0  0
  3  8  2  0  0  0  0
  3 16  1  0  0  0  0
  4  9  1  0  0  0  0
  4 16  2  0  0  0  0
  5 18  1  0  0  0  0
  6 20  1  0  0  0  0
  7 10  2  0  0  0  0
  7 19  1  0  0  0  0
  8 24  1  0  0  0  0
  9 24  2  0  0  0  0
 10 25  1  0  0  0  0
 11 12  2  0  0  0  0
 11 26  1  0  0  0  0
 12 27  1  0  0  0  0
 13 21  1  0  0  0  0
 13 25  2  0  0  0  0
 14 22  1  0  0  0  0
 14 31  2  0  0  0  0
 15 27  2  0  0  0  0
 15 28  1  0  0  0  0
 16 29  1  0  0  0  0
 17 29  1  0  0  0  0
 17 32  2  0  0  0  0
 17 33  1  0  0  0  0
 18 20  2  0  0  0  0
 18 38  1  0  0  0  0
 19 21  2  0  0  0  0
 19 39  1  0  0  0  0
 20 49  1  0  0  0  0
 21 42  1  0  0  0  0
 22 23  2  0  0  0  0
 22 40  1  0  0  0  0
 23 30  1  0  0  0  0
 23 41  1  0  0  0  0
 24 79  1  0  0  0  0
 25 80  1  0  0  0  0
 26 28  2  0  0  0  0
 26 79  1  0  0  0  0
 27 81  1  0  0  0  0
 28 82  1  0  0  0  0
 29 63  2  0  0  0  0
 30 53  1  0  0  0  0
 30 64  2  0  0  0  0
 31 64  1  0  0  0  0
 31 70  1  0  0  0  0
 32 65  1  0  0  0  0
 32 68  1  0  0  0  0
 33 69  1  0  0  0  0
 33 74  2  0  0  0  0
 34 50  1  0  0  0  0
 34 71  1  0  0  0  0
 34 75  2  0  0  0  0
 35 60  1  0  0  0  0
 35 66  1  0  0  0  0
 35 76  2  0  0  0  0
 36 61  1  0  0  0  0
 36 72  1  0  0  0  0
 36 77  2  0  0  0  0
 37 67  1  0  0  0  0
 37 70  1  0  0  0  0
 37 78  2  0  0  0  0
 38 43  1  0  0  0  0
 39 50  1  0  0  0  0
 40 51  1  0  0  0  0
 41 51  1  0  0  0  0
 42 66  1  0  0  0  0
 43 45  1  0  0  0  0
 44 46  1  0  0  0  0
 44 47  1  0  0  0  0
 45 49  1  0  0  0  0
 46 52  1  0  0  0  0
 47 67  1  0  0  0  0
 48 52  1  0  0  0  0
 48 67  1  0  0  0  0
 49 71  1  0  0  0  0
 50 66  1  0  0  0  0
 51 59  1  0  0  0  0
 52 65  1  0  0  0  0
 54 61  1  0  0  0  0
 55 62  1  0  0  0  0
 56 62  1  0  0  0  0
 57 62  1  0  0  0  0
 58 73  1  0  0  0  0
 59 80  1  0  0  0  0
 60 62  1  0  0  0  0
 60 72  1  0  0  0  0
 61 73  1  0  0  0  0
 63 65  1  0  0  0  0
M  CHG  1  73   1
M  ISO  4  37 100  59 101  70 100  80 101
M  END
> <Batch ID>
0176

> <Smiles>
CNC(C)C(=O)NC(C(=O)N1Cc2cc([101O:1][101CH2:1]C3Cc4cc([100NH:0][100C:0](=O)N5CCCC(n6nc(-c7ccc(Oc8ccc(F)cc8F)cc7)c(C(N)=O)c6N)C5)nc(C)c4C3)ccc2CC1C(=O)NC1CCCc2ccccc21)C(C)(C)C

> <Shape>
0.279

> <Color>
0.208

> <Negative vol penalty>
0.000

$$$$

  -OEChem-04052322503D

 80 88  0     1  0  0  0  0  0999 V2000
  -16.5407  -30.3722   23.0922 C   0  0  0  0  0  0  0  0  0  0  0  0
  -17.5122  -30.3046   22.0986 C   0  0  0  0  0  0  0  0  0  0  0  0
  -26.8610  -12.5064   21.7621 C   0  0  0  0  0  0  0  0  0  0  0  0
  -26.0705  -14.1002   20.1274 C   0  0  0  0  0  0  0  0  0  0  0  0
  -16.8402  -29.9537   24.3880 C   0  0  0  0  0  0  0  0  0  0  0  0
  -18.7841  -29.8196   22.4007 C   0  0  0  0  0  0  0  0  0  0  0  0
  -24.2024  -26.1580   19.4763 C   0  0  0  0  0  0  0  0  0  0  0  0
  -25.5815  -11.9574   21.8456 C   0  0  0  0  0  0  0  0  0  0  0  0
  -24.7910  -13.5511   20.2108 C   0  0  0  0  0  0  0  0  0  0  0  0
  -25.5785  -26.2501   19.2723 C   0  0  0  0  0  0  0  0  0  0  0  0
  -22.6061   -9.9029   22.2216 C   0  0  0  0  0  0  0  0  0  0  0  0
  -22.4951   -8.5126   22.2120 C   0  0  0  0  0  0  0  0  0  0  0  0
  -25.9582  -25.4812   21.5270 C   0  0  0  0  0  0  0  0  0  0  0  0
  -23.5474   -8.4437   20.0382 C   0  0  0  0  0  0  0  0  0  0  0  0
  -30.5706  -23.8337   20.7075 C   0  0  0  0  0  0  0  0  0  0  0  0
  -29.2504  -21.7330   19.7221 C   0  0  0  0  0  0  0  0  0  0  0  0
  -27.1055  -13.5779   20.9030 C   0  0  0  0  0  0  0  0  0  0  0  0
  -29.4615  -13.7625   19.9425 C   0  0  0  0  0  0  0  0  0  0  0  0
  -18.1135  -29.4542   24.7038 C   0  0  0  0  0  0  0  0  0  0  0  0
  -23.6928  -25.7365   20.7129 C   0  0  0  0  0  0  0  0  0  0  0  0
  -19.1014  -29.3953   23.7022 C   0  0  0  0  0  0  0  0  0  0  0  0
  -24.5753  -25.3822   21.7433 C   0  0  0  0  0  0  0  0  0  0  0  0
  -24.5464  -12.4797   21.0700 C   0  0  0  0  0  0  0  0  0  0  0  0
  -26.4566  -25.9144   20.2986 C   0  0  0  0  0  0  0  0  0  0  0  0
  -23.1877  -10.5637   21.1396 C   0  0  0  0  0  0  0  0  0  0  0  0
  -22.9658   -7.7829   21.1203 C   0  0  0  0  0  0  0  0  0  0  0  0
  -23.6583   -9.8341   20.0479 C   0  0  0  0  0  0  0  0  0  0  0  0
  -28.4269  -14.1458   20.8168 C   0  0  0  0  0  0  0  0  0  0  0  0
  -29.8173  -23.9424   19.5594 C   0  0  0  0  0  0  0  0  0  0  0  0
  -30.0043  -21.6239   20.8698 C   0  0  0  0  0  0  0  0  0  0  0  0
  -30.5035  -14.6011   20.2549 C   0  0  0  0  0  0  0  0  0  0  0  0
  -29.4792  -12.7399   18.9376 C   0  0  0  0  0  0  0  0  0  0  0  0
  -21.8595  -27.0543   22.9503 C   0  0  0  0  0  0  0  0  0  0  0  0
  -22.0022  -24.0906   24.2611 C   0  0  0  0  0  0  0  0  0  0  0  0
  -23.6738  -21.1298   24.5545 C   0  0  0  0  0  0  0  0  0  0  0  0
  -30.7675  -20.0534   22.6856 C   0  0  0  0  0  0  0  0  0  0  0  0
  -18.4048  -29.0580   26.1296 C   0  0  0  0  0  0  0  0  0  0  0  0
  -22.2063  -25.6170   20.9083 C   0  0  0  0  0  0  0  0  0  0  0  0
  -24.0793  -24.9046   23.0829 C   0  0  0  0  0  0  0  0  0  0  0  0
  -19.6626  -28.2063   26.2802 C   0  0  0  0  0  0  0  0  0  0  0  0
  -32.3340  -17.0989   23.9080 C   0  0  0  0  0  0  0  0  0  0  0  0
  -20.8143  -28.8092   25.4821 C   0  0  0  0  0  0  0  0  0  0  0  0
  -31.6081  -15.9717   23.1699 C   0  0  0  0  0  0  0  0  0  0  0  0
  -31.3871  -18.2418   24.2697 C   0  0  0  0  0  0  0  0  0  0  0  0
  -29.8823  -17.6542   22.4097 C   0  0  0  0  0  0  0  0  0  0  0  0
  -20.4851  -28.8519   23.9850 C   0  0  1  0  0  0  0  0  0  0  0  0
  -21.7904  -25.6679   22.3752 C   0  0  1  0  0  0  0  0  0  0  0  0
  -30.8081  -16.5094   21.9671 C   0  0  2  0  0  0  0  0  0  0  0  0
  -30.3038  -25.1604   17.4120 C   0  0  0  0  0  0  0  0  0  0  0  0
  -23.5654  -18.9143   25.7280 C   0  0  0  0  0  0  0  0  0  0  0  0
  -22.9487  -25.4142   26.8422 C   0  0  0  0  0  0  0  0  0  0  0  0
  -23.7176  -23.1659   27.6311 C   0  0  0  0  0  0  0  0  0  0  0  0
  -21.2995  -23.5619   27.1637 C   0  0  0  0  0  0  0  0  0  0  0  0
  -23.5074  -19.6517   21.9959 C   0  0  0  0  0  0  0  0  0  0  0  0
  -28.2780  -25.7942   18.7742 C   0  0  0  0  0  0  0  0  0  1  0  0
  -29.7194  -25.2693   18.8231 C   0  0  1  0  0  0  0  0  0  0  0  0
  -22.9238  -23.3949   25.2335 C   0  0  1  0  0  0  0  0  0  0  0  0
  -23.1962  -19.6911   24.4738 C   0  0  2  0  0  0  0  0  0  0  0  0
  -22.7320  -23.8950   26.6932 C   0  0  0  0  0  0  0  0  0  0  0  0
  -29.1434  -22.8941   19.0462 N   0  0  0  0  0  0  0  0  0  0  0  0
  -30.6779  -22.6724   21.3831 N   0  0  0  0  0  0  0  0  0  0  0  0
  -28.7795  -15.1497   21.6242 N   0  0  0  0  0  0  0  0  0  0  0  0
  -30.0475  -15.4042   21.2586 N   0  0  0  0  0  0  0  0  0  0  0  0
  -22.6171  -24.8106   23.2271 N   0  0  0  0  0  0  0  0  0  0  0  0
  -30.6668  -18.7026   23.0807 N   0  0  0  0  0  0  0  0  0  0  0  0
  -31.7561  -14.7224   19.7664 N   0  0  0  0  0  0  0  0  0  0  0  0
  -28.3234  -11.9703   18.7472 N   0  0  0  0  0  0  0  0  0  0  0  0
  -30.0659  -20.3676   21.5221 N   0  0  0  0  0  0  0  0  0  0  0  0
  -20.6447  -27.5402   23.3948 N   0  0  0  0  0  0  0  0  0  0  0  0
  -22.6983  -21.9643   25.0576 N   0  0  0  0  0  0  0  0  0  0  0  0
  -23.8086  -19.0070   23.3000 N   0  3  0  0  0  0  0  0  0  0  0  0
  -30.4953  -12.5044   18.2408 O   0  0  0  0  0  0  0  0  0  0  0  0
  -22.9356  -27.6393   22.9893 O   0  0  0  0  0  0  0  0  0  0  0  0
  -20.7815  -23.9927   24.4093 O   0  0  0  0  0  0  0  0  0  0  0  0
  -24.8009  -21.4778   24.2094 O   0  0  0  0  0  0  0  0  0  0  0  0
  -31.4496  -20.8650   23.3165 O   0  0  0  0  0  0  0  0  0  0  0  0
  -23.2978  -11.9441   21.1510 O   0  0  0  0  0  0  0  0  0  0  0  0
  -27.8002  -26.0041   20.1023 O   0  0  0  0  0  0  0  0  0  1  0  0
  -22.8605   -6.4476   21.1119 F   0  0  0  0  0  0  0  0  0  0  0  0
  -24.2190  -10.4632   19.0060 F   0  0  0  0  0  0  0  0  0  0  0  0
  1  2  1  0  0  0  0
  1  5  2  0  0  0  0
  2  6  2  0  0  0  0
  3  8  2  0  0  0  0
  3 17  1  0  0  0  0
  4  9  1  0  0  0  0
  4 17  2  0  0  0  0
  5 19  1  0  0  0  0
  6 21  1  0  0  0  0
  7 10  2  0  0  0  0
  7 20  1  0  0  0  0
  8 23  1  0  0  0  0
  9 23  2  0  0  0  0
 10 24  1  0  0  0  0
 11 12  2  0  0  0  0
 11 25  1  0  0  0  0
 12 26  1  0  0  0  0
 13 22  1  0  0  0  0
 13 24  2  0  0  0  0
 14 26  2  0  0  0  0
 14 27  1  0  0  0  0
 15 29  1  0  0  0  0
 15 61  2  0  0  0  0
 16 30  2  0  0  0  0
 16 60  1  0  0  0  0
 17 28  1  0  0  0  0
 18 28  1  0  0  0  0
 18 31  2  0  0  0  0
 18 32  1  0  0  0  0
 19 21  2  0  0  0  0
 19 37  1  0  0  0  0
 20 22  2  0  0  0  0
 20 38  1  0  0  0  0
 21 46  1  0  0  0  0
 22 39  1  0  0  0  0
 23 77  1  0  0  0  0
 24 78  1  0  0  0  0
 25 27  2  0  0  0  0
 25 77  1  0  0  0  0
 26 79  1  0  0  0  0
 27 80  1  0  0  0  0
 28 62  2  0  0  0  0
 29 56  1  0  0  0  0
 29 60  2  0  0  0  0
 30 61  1  0  0  0  0
 30 68  1  0  0  0  0
 31 63  1  0  0  0  0
 31 66  1  0  0  0  0
 32 67  1  0  0  0  0
 32 72  2  0  0  0  0
 33 47  1  0  0  0  0
 33 69  1  0  0  0  0
 33 73  2  0  0  0  0
 34 57  1  0  0  0  0
 34 64  1  0  0  0  0
 34 74  2  0  0  0  0
 35 58  1  0  0  0  0
 35 70  1  0  0  0  0
 35 75  2  0  0  0  0
 36 65  1  0  0  0  0
 36 68  1  0  0  0  0
 36 76  2  0  0  0  0
 37 40  1  0  0  0  0
 38 47  1  0  0  0  0
 39 64  1  0  0  0  0
 40 42  1  0  0  0  0
 41 43  1  0  0  0  0
 41 44  1  0  0  0  0
 42 46  1  0  0  0  0
 43 48  1  0  0  0  0
 44 65  1  0  0  0  0
 45 48  1  0  0  0  0
 45 65  1  0  0  0  0
 46 69  1  0  0  0  0
 47 64  1  0  0  0  0
 48 63  1  0  0  0  0
 49 56  1  0  0  0  0
 50 58  1  0  0  0  0
 51 59  1  0  0  0  0
 52 59  1  0  0  0  0
 53 59  1  0  0  0  0
 54 71  1  0  0  0  0
 55 56  1  0  0  0  0
 55 78  1  0  0  0  0
 57 59  1  0  0  0  0
 57 70  1  0  0  0  0
 58 71  1  0  0  0  0
 62 63  1  0  0  0  0
M  CHG  1  71   1
M  ISO  4  36 100  55 101  68 100  78 101
M  END
> <Batch ID>
0176

> <Smiles>
CNC(C)C(=O)NC(C(=O)N1Cc2cc([101O:1][101CH2:1]C(C)c3cnc([100NH:0][100C:0](=O)N4CCCC(n5nc(-c6ccc(Oc7ccc(F)cc7F)cc6)c(C(N)=O)c5N)C4)cn3)ccc2CC1C(=O)NC1CCCc2ccccc21)C(C)(C)C

> <Shape>
0.246

> <Color>
0.092

> <Negative vol penalty>
0.000

$$$$

  -OEChem-04052322503D

 85 94  0     1  0  0  0  0  0999 V2000
  -24.4565  -20.8092   14.0358 C   0  0  0  0  0  0  0  0  0  0  0  0
  -25.0382  -19.9680   14.9790 C   0  0  0  0  0  0  0  0  0  0  0  0
  -29.6575  -27.1513   19.7109 C   0  0  0  0  0  0  0  0  0  0  0  0
  -27.5473  -26.4601   18.7589 C   0  0  0  0  0  0  0  0  0  0  0  0
  -23.7731  -21.9518   14.4498 C   0  0  0  0  0  0  0  0  0  0  0  0
  -24.9379  -20.2697   16.3367 C   0  0  0  0  0  0  0  0  0  0  0  0
  -23.7476  -16.2254   19.1425 C   0  0  0  0  0  0  0  0  0  0  0  0
  -29.1415  -28.4290   19.9271 C   0  0  0  0  0  0  0  0  0  0  0  0
  -27.0313  -27.7379   18.9751 C   0  0  0  0  0  0  0  0  0  0  0  0
  -24.7722  -15.3234   19.4260 C   0  0  0  0  0  0  0  0  0  0  0  0
  -25.7899  -29.5153   21.5675 C   0  0  0  0  0  0  0  0  0  0  0  0
  -24.5110  -29.6118   22.1159 C   0  0  0  0  0  0  0  0  0  0  0  0
  -25.0238  -16.3063   21.6146 C   0  0  0  0  0  0  0  0  0  0  0  0
  -29.5415  -14.4486   21.1320 C   0  0  0  0  0  0  0  0  0  0  0  0
  -23.7613  -30.8104   20.1566 C   0  0  0  0  0  0  0  0  0  0  0  0
  -28.8604  -26.1668   19.1268 C   0  0  0  0  0  0  0  0  0  0  0  0
  -30.5048  -24.5019   18.1111 C   0  0  0  0  0  0  0  0  0  0  0  0
  -23.6561  -22.2624   15.8138 C   0  0  0  0  0  0  0  0  0  0  0  0
  -23.3602  -17.1834   20.0904 C   0  0  0  0  0  0  0  0  0  0  0  0
  -24.2534  -21.4182   16.7692 C   0  0  0  0  0  0  0  0  0  0  0  0
  -23.9923  -17.2177   21.3416 C   0  0  0  0  0  0  0  0  0  0  0  0
  -29.2326  -13.3860   20.2744 C   0  0  0  0  0  0  0  0  0  0  0  0
  -30.1564  -13.0283   19.2808 C   0  0  0  0  0  0  0  0  0  0  0  0
  -27.8284  -28.7223   19.5592 C   0  0  0  0  0  0  0  0  0  0  0  0
  -25.4124  -15.3656   20.6611 C   0  0  0  0  0  0  0  0  0  0  0  0
  -26.0545  -30.0663   20.3136 C   0  0  0  0  0  0  0  0  0  0  0  0
  -23.4967  -30.2594   21.4105 C   0  0  0  0  0  0  0  0  0  0  0  0
  -25.0403  -30.7139   19.6082 C   0  0  0  0  0  0  0  0  0  0  0  0
  -29.3930  -24.8469   18.9027 C   0  0  0  0  0  0  0  0  0  0  0  0
  -30.7501  -15.1058   20.9679 C   0  0  0  0  0  0  0  0  0  0  0  0
  -31.3448  -13.7533   19.2142 C   0  0  0  0  0  0  0  0  0  0  0  0
  -30.5971  -23.1363   18.2252 C   0  0  0  0  0  0  0  0  0  0  0  0
  -31.3763  -25.3409   17.3415 C   0  0  0  0  0  0  0  0  0  0  0  0
  -23.3404  -20.3605   20.1898 C   0  0  0  0  0  0  0  0  0  0  0  0
  -21.7983  -19.8744   23.0019 C   0  0  0  0  0  0  0  0  0  0  0  0
  -21.1645  -17.8018   25.6381 C   0  0  0  0  0  0  0  0  0  0  0  0
  -30.6230  -18.6112   21.3024 C   0  0  0  0  0  0  0  0  0  0  0  0
  -22.9482  -23.5337   16.2106 C   0  0  0  0  0  0  0  0  0  0  0  0
  -22.2352  -18.1320   19.7791 C   0  0  0  0  0  0  0  0  0  0  0  0
  -29.9368  -11.8656   18.3538 C   0  0  0  0  0  0  0  0  0  0  0  0
  -23.6000  -18.2137   22.4012 C   0  0  0  0  0  0  0  0  0  0  0  0
  -22.5662  -23.5826   17.6877 C   0  0  0  0  0  0  0  0  0  0  0  0
  -28.4858  -11.3944   18.3065 C   0  0  0  0  0  0  0  0  0  0  0  0
  -27.3773  -19.7700   20.1979 C   0  0  0  0  0  0  0  0  0  0  0  0
  -27.9074  -11.2994   19.7143 C   0  0  0  0  0  0  0  0  0  0  0  0
  -23.7406  -23.1458   18.5576 C   0  0  0  0  0  0  0  0  0  0  0  0
  -27.7112  -21.1754   19.6944 C   0  0  0  0  0  0  0  0  0  0  0  0
  -28.1901  -19.4204   21.4409 C   0  0  0  0  0  0  0  0  0  0  0  0
  -30.0010  -20.9492   20.7648 C   0  0  0  0  0  0  0  0  0  0  0  0
  -27.9062  -12.6654   20.4223 C   0  0  2  0  0  0  0  0  0  0  0  0
  -24.1449  -21.6984   18.2524 C   0  0  1  0  0  0  0  0  0  0  0  0
  -22.2708  -19.3999   20.6268 C   0  0  1  0  0  0  0  0  0  0  0  0
  -29.2282  -21.3538   19.4962 C   0  0  2  0  0  0  0  0  0  0  0  0
  -32.3944  -13.4114   18.2056 C   0  0  0  0  0  0  0  0  0  0  0  0
  -31.1557  -15.8303   23.3495 C   0  0  0  0  0  0  0  0  0  0  0  0
  -19.8948  -17.6963   27.8001 C   0  0  0  0  0  0  0  0  0  0  0  0
  -23.8895  -21.6669   24.3147 C   0  0  0  0  0  0  0  0  0  0  0  0
  -23.1604  -20.7722   26.5365 C   0  0  0  0  0  0  0  0  0  0  0  0
  -21.5487  -22.0371   25.1135 C   0  0  0  0  0  0  0  0  0  0  0  0
  -19.5491  -15.5017   24.7113 C   0  0  0  0  0  0  0  0  0  0  0  0
  -26.7560  -13.5480   19.9216 C   0  0  0  0  0  0  0  0  0  1  0  0
  -31.0934  -16.2423   21.8719 C   0  0  2  0  0  0  0  0  0  0  0  0
  -22.2257  -19.6965   24.4388 C   0  0  1  0  0  0  0  0  0  0  0  0
  -19.8654  -17.3948   26.3098 C   0  0  2  0  0  0  0  0  0  0  0  0
  -22.7150  -21.0255   25.0804 C   0  0  0  0  0  0  0  0  0  0  0  0
  -28.8200  -23.7859   19.4771 N   0  0  0  0  0  0  0  0  0  0  0  0
  -31.6623  -14.7846   20.0279 N   0  0  0  0  0  0  0  0  0  0  0  0
  -29.5746  -22.7609   19.0460 N   0  0  0  0  0  0  0  0  0  0  0  0
  -22.4988  -19.1242   22.0467 N   0  0  0  0  0  0  0  0  0  0  0  0
  -29.6261  -19.5933   21.1798 N   0  0  0  0  0  0  0  0  0  0  0  0
  -31.4523  -22.2320   17.7025 N   0  0  0  0  0  0  0  0  0  0  0  0
  -31.0451  -25.6004   16.0046 N   0  0  0  0  0  0  0  0  0  0  0  0
  -23.2229  -20.7738   18.8765 N   0  0  0  0  0  0  0  0  0  0  0  0
  -21.0965  -19.0808   25.1273 N   0  0  0  0  0  0  0  0  0  0  0  0
  -30.1857  -17.3558   21.7069 N   0  0  0  0  0  0  0  0  0  0  0  0
  -19.6247  -15.9350   26.1303 N   0  3  0  0  0  0  0  0  0  0  0  0
  -32.4265  -25.8322   17.8202 O   0  0  0  0  0  0  0  0  0  0  0  0
  -24.2071  -20.7025   20.9857 O   0  0  0  0  0  0  0  0  0  0  0  0
  -20.8721  -20.6450   22.7375 O   0  0  0  0  0  0  0  0  0  0  0  0
  -22.1431  -17.0608   25.5762 O   0  0  0  0  0  0  0  0  0  0  0  0
  -31.8146  -18.8349   21.0636 O   0  0  0  0  0  0  0  0  0  0  0  0
  -27.3245  -29.9690   19.7702 O   0  0  0  0  0  0  0  0  0  0  0  0
  -26.4131  -14.4867   20.9402 O   0  0  0  0  0  0  0  0  0  1  0  0
  -22.2683  -30.3507   21.9366 F   0  0  0  0  0  0  0  0  0  0  0  0
  -25.2882  -31.2442   18.4028 F   0  0  0  0  0  0  0  0  0  0  0  0
  1  2  1  0  0  0  0
  1  5  2  0  0  0  0
  2  6  2  0  0  0  0
  3  8  2  0  0  0  0
  3 16  1  0  0  0  0
  4  9  1  0  0  0  0
  4 16  2  0  0  0  0
  5 18  1  0  0  0  0
  6 20  1  0  0  0  0
  7 10  2  0  0  0  0
  7 19  1  0  0  0  0
  8 24  1  0  0  0  0
  9 24  2  0  0  0  0
 10 25  1  0  0  0  0
 11 12  2  0  0  0  0
 11 26  1  0  0  0  0
 12 27  1  0  0  0  0
 13 21  1  0  0  0  0
 13 25  2  0  0  0  0
 14 22  2  0  0  0  0
 14 30  1  0  0  0  0
 15 27  2  0  0  0  0
 15 28  1  0  0  0  0
 16 29  1  0  0  0  0
 17 29  1  0  0  0  0
 17 32  2  0  0  0  0
 17 33  1  0  0  0  0
 18 20  2  0  0  0  0
 18 38  1  0  0  0  0
 19 21  2  0  0  0  0
 19 39  1  0  0  0  0
 20 51  1  0  0  0  0
 21 41  1  0  0  0  0
 22 23  1  0  0  0  0
 22 50  1  0  0  0  0
 23 31  2  0  0  0  0
 23 40  1  0  0  0  0
 24 82  1  0  0  0  0
 25 83  1  0  0  0  0
 26 28  2  0  0  0  0
 26 82  1  0  0  0  0
 27 84  1  0  0  0  0
 28 85  1  0  0  0  0
 29 66  2  0  0  0  0
 30 62  1  0  0  0  0
 30 67  2  0  0  0  0
 31 54  1  0  0  0  0
 31 67  1  0  0  0  0
 32 68  1  0  0  0  0
 32 71  1  0  0  0  0
 33 72  1  0  0  0  0
 33 77  2  0  0  0  0
 34 52  1  0  0  0  0
 34 73  1  0  0  0  0
 34 78  2  0  0  0  0
 35 63  1  0  0  0  0
 35 69  1  0  0  0  0
 35 79  2  0  0  0  0
 36 64  1  0  0  0  0
 36 74  1  0  0  0  0
 36 80  2  0  0  0  0
 37 70  1  0  0  0  0
 37 75  1  0  0  0  0
 37 81  2  0  0  0  0
 38 42  1  0  0  0  0
 39 52  1  0  0  0  0
 40 43  1  0  0  0  0
 41 69  1  0  0  0  0
 42 46  1  0  0  0  0
 43 45  1  0  0  0  0
 44 47  1  0  0  0  0
 44 48  1  0  0  0  0
 45 50  1  0  0  0  0
 46 51  1  0  0  0  0
 47 53  1  0  0  0  0
 48 70  1  0  0  0  0
 49 53  1  0  0  0  0
 49 70  1  0  0  0  0
 50 61  1  0  0  0  0
 51 73  1  0  0  0  0
 52 69  1  0  0  0  0
 53 68  1  0  0  0  0
 55 62  1  0  0  0  0
 56 64  1  0  0  0  0
 57 65  1  0  0  0  0
 58 65  1  0  0  0  0
 59 65  1  0  0  0  0
 60 76  1  0  0  0  0
 61 83  1  0  0  0  0
 62 75  1  0  0  0  0
 63 65  1  0  0  0  0
 63 74  1  0  0  0  0
 64 76  1  0  0  0  0
 66 68  1  0  0  0  0
M  CHG  1  76   1
M  ISO  4  37 100  61 101  75 100  83 101
M  END
> <Batch ID>
0176

> <Smiles>
CNC(C)C(=O)NC(C(=O)N1Cc2cc([101O:1][101CH2:1]C3CCCc4c3cc(C(C)[100NH:0][100C:0](=O)N3CCCC(n5nc(-c6ccc(Oc7ccc(F)cc7F)cc6)c(C(N)=O)c5N)C3)nc4C)ccc2CC1C(=O)NC1CCCc2ccccc21)C(C)(C)C

> <Shape>
0.228

> <Color>
0.062

> <Negative vol penalty>
0.000

$$$$

  -OEChem-04052322503D

 81 89  0     1  0  0  0  0  0999 V2000
  -16.9230  -30.6367   23.4849 C   0  0  0  0  0  0  0  0  0  0  0  0
  -18.0530  -31.0666   22.7968 C   0  0  0  0  0  0  0  0  0  0  0  0
  -26.4150  -13.5346   21.5506 C   0  0  0  0  0  0  0  0  0  0  0  0
  -25.8030  -12.6824   19.3743 C   0  0  0  0  0  0  0  0  0  0  0  0
  -16.9752  -29.4725   24.2504 C   0  0  0  0  0  0  0  0  0  0  0  0
  -19.2364  -30.3331   22.8746 C   0  0  0  0  0  0  0  0  0  0  0  0
  -24.9784  -28.5694   18.9714 C   0  0  0  0  0  0  0  0  0  0  0  0
  -25.3261  -12.8717   22.1165 C   0  0  0  0  0  0  0  0  0  0  0  0
  -24.7140  -12.0193   19.9402 C   0  0  0  0  0  0  0  0  0  0  0  0
  -26.3709  -28.5816   19.0377 C   0  0  0  0  0  0  0  0  0  0  0  0
  -21.9809   -9.8086   20.8679 C   0  0  0  0  0  0  0  0  0  0  0  0
  -21.7508   -8.4889   20.4794 C   0  0  0  0  0  0  0  0  0  0  0  0
  -26.3215  -26.5433   20.3269 C   0  0  0  0  0  0  0  0  0  0  0  0
  -23.9319   -7.8642   21.3099 C   0  0  0  0  0  0  0  0  0  0  0  0
  -26.6535  -13.4400   20.1794 C   0  0  0  0  0  0  0  0  0  0  0  0
  -29.0826  -13.6251   19.4228 C   0  0  0  0  0  0  0  0  0  0  0  0
  -18.1570  -28.7192   24.3298 C   0  0  0  0  0  0  0  0  0  0  0  0
  -24.2452  -27.5482   19.5927 C   0  0  0  0  0  0  0  0  0  0  0  0
  -19.3049  -29.1585   23.6429 C   0  0  0  0  0  0  0  0  0  0  0  0
  -24.9198  -26.5190   20.2648 C   0  0  0  0  0  0  0  0  0  0  0  0
  -24.4756  -12.1140   21.3113 C   0  0  0  0  0  0  0  0  0  0  0  0
  -27.0426  -27.5701   19.7180 C   0  0  0  0  0  0  0  0  0  0  0  0
  -23.1865  -10.1562   21.4774 C   0  0  0  0  0  0  0  0  0  0  0  0
  -22.7263   -7.5167   20.7004 C   0  0  0  0  0  0  0  0  0  0  0  0
  -24.1620   -9.1840   21.6984 C   0  0  0  0  0  0  0  0  0  0  0  0
  -27.7778  -14.1251   19.5942 C   0  0  0  0  0  0  0  0  0  0  0  0
  -29.7690  -14.6542   18.8258 C   0  0  0  0  0  0  0  0  0  0  0  0
  -29.6256  -12.3449   19.7719 C   0  0  0  0  0  0  0  0  0  0  0  0
  -22.0830  -27.4362   21.9199 C   0  0  0  0  0  0  0  0  0  0  0  0
  -21.9037  -24.3101   21.0727 C   0  0  0  0  0  0  0  0  0  0  0  0
  -30.2090  -25.1022   19.2225 C   0  0  0  0  0  0  0  0  0  0  0  0
  -23.4093  -21.6084   19.6302 C   0  0  0  0  0  0  0  0  0  0  0  0
  -28.8478  -20.5070   18.9771 C   0  0  0  0  0  0  0  0  0  0  0  0
  -18.1787  -27.4931   25.2079 C   0  0  0  0  0  0  0  0  0  0  0  0
  -22.7447  -27.5348   19.4892 C   0  0  0  0  0  0  0  0  0  0  0  0
  -24.1800  -25.3889   20.9313 C   0  0  0  0  0  0  0  0  0  0  0  0
  -19.3643  -26.5706   24.9368 C   0  0  0  0  0  0  0  0  0  0  0  0
  -29.1580  -18.4232   15.9769 C   0  0  0  0  0  0  0  0  0  0  0  0
  -20.6566  -27.3756   24.8429 C   0  0  0  0  0  0  0  0  0  0  0  0
  -28.8957  -17.0367   16.5553 C   0  0  0  0  0  0  0  0  0  0  0  0
  -27.4003  -23.5319   18.7911 C   0  0  0  0  0  0  0  0  0  0  0  0
  -28.3468  -19.5106   16.6825 C   0  0  0  0  0  0  0  0  0  0  0  0
  -27.3548  -22.3298   17.8429 C   0  0  0  0  0  0  0  0  0  0  0  0
  -28.2549  -18.1220   18.7360 C   0  0  0  0  0  0  0  0  0  0  0  0
  -20.5999  -28.3766   23.6826 C   0  0  1  0  0  0  0  0  0  0  0  0
  -22.0766  -26.7252   20.5963 C   0  0  1  0  0  0  0  0  0  0  0  0
  -29.1171  -17.0374   18.0752 C   0  0  1  0  0  0  0  0  0  0  0  0
  -28.7742  -23.0440   19.2755 C   0  0  2  0  0  0  0  0  0  0  0  0
  -23.6416  -19.2784   18.7279 C   0  0  0  0  0  0  0  0  0  0  0  0
  -22.4152  -23.6169   23.9998 C   0  0  0  0  0  0  0  0  0  0  0  0
  -22.9656  -21.2834   23.2786 C   0  0  0  0  0  0  0  0  0  0  0  0
  -20.6816  -22.2039   22.8807 C   0  0  0  0  0  0  0  0  0  0  0  0
  -22.4388  -22.4230   16.9556 C   0  0  0  0  0  0  0  0  0  0  0  0
  -30.4296  -27.4626   18.4918 C   0  0  0  0  0  0  0  0  0  0  0  0
  -29.1023  -28.1717   18.6925 C   0  0  0  0  0  0  0  0  0  1  0  0
  -22.6173  -23.0468   21.4898 C   0  0  1  0  0  0  0  0  0  0  0  0
  -30.0026  -23.6993   18.6756 C   0  0  2  0  0  0  0  0  0  0  0  0
  -22.9117  -20.6068   18.6038 C   0  0  2  0  0  0  0  0  0  0  0  0
  -22.1841  -22.5600   22.9014 C   0  0  0  0  0  0  0  0  0  0  0  0
  -27.6410  -15.3747   19.1427 N   0  0  0  0  0  0  0  0  0  0  0  0
  -28.8688  -15.6686   18.6819 N   0  0  0  0  0  0  0  0  0  0  0  0
  -22.7134  -25.4237   20.8076 N   0  0  0  0  0  0  0  0  0  0  0  0
  -28.4917  -19.4428   18.1415 N   0  0  0  0  0  0  0  0  0  0  0  0
  -28.4610  -21.7770   18.6108 N   0  0  0  0  0  0  0  0  0  0  0  0
  -31.0487  -14.7813   18.4154 N   0  0  0  0  0  0  0  0  0  0  0  0
  -28.7821  -11.4042   20.3784 N   0  0  0  0  0  0  0  0  0  0  0  0
  -20.8233  -27.7021   22.4218 N   0  0  0  0  0  0  0  0  0  0  0  0
  -30.2508  -26.0564   18.2171 N   0  0  0  0  0  0  0  0  0  0  0  0
  -22.3848  -22.0764   20.4256 N   0  0  0  0  0  0  0  0  0  0  0  0
  -31.1903  -22.8492   18.9792 N   0  3  0  0  0  0  0  0  0  0  0  0
  -23.1211  -21.1310   17.2246 N   0  3  0  0  0  0  0  0  0  0  0  0
  -30.8276  -12.0500   19.5675 O   0  0  0  0  0  0  0  0  0  0  0  0
  -23.1517  -27.7211   22.4475 O   0  0  0  0  0  0  0  0  0  0  0  0
  -20.6738  -24.3069   20.9785 O   0  0  0  0  0  0  0  0  0  0  0  0
  -30.3165  -25.3405   20.4234 O   0  0  0  0  0  0  0  0  0  0  0  0
  -24.5895  -21.9396   19.7200 O   0  0  0  0  0  0  0  0  0  0  0  0
  -29.4657  -20.3291   20.0351 O   0  0  0  0  0  0  0  0  0  0  0  0
  -23.4130  -11.4668   21.8632 O   0  0  0  0  0  0  0  0  0  0  0  0
  -28.4113  -27.5801   19.7852 O   0  0  0  0  0  0  0  0  0  1  0  0
  -22.5047   -6.2491   20.3287 F   0  0  0  0  0  0  0  0  0  0  0  0
  -25.3217   -9.5117   22.2845 F   0  0  0  0  0  0  0  0  0  0  0  0
  1  2  1  0  0  0  0
  1  5  2  0  0  0  0
  2  6  2  0  0  0  0
  3  8  2  0  0  0  0
  3 15  1  0  0  0  0
  4  9  1  0  0  0  0
  4 15  2  0  0  0  0
  5 17  1  0  0  0  0
  6 19  1  0  0  0  0
  7 10  2  0  0  0  0
  7 18  1  0  0  0  0
  8 21  1  0  0  0  0
  9 21  2  0  0  0  0
 10 22  1  0  0  0  0
 11 12  2  0  0  0  0
 11 23  1  0  0  0  0
 12 24  1  0  0  0  0
 13 20  1  0  0  0  0
 13 22  2  0  0  0  0
 14 24  2  0  0  0  0
 14 25  1  0  0  0  0
 15 26  1  0  0  0  0
 16 26  1  0  0  0  0
 16 27  2  0  0  0  0
 16 28  1  0  0  0  0
 17 19  2  0  0  0  0
 17 34  1  0  0  0  0
 18 20  2  0  0  0  0
 18 35  1  0  0  0  0
 19 45  1  0  0  0  0
 20 36  1  0  0  0  0
 21 78  1  0  0  0  0
 22 79  1  0  0  0  0
 23 25  2  0  0  0  0
 23 78  1  0  0  0  0
 24 80  1  0  0  0  0
 25 81  1  0  0  0  0
 26 60  2  0  0  0  0
 27 61  1  0  0  0  0
 27 65  1  0  0  0  0
 28 66  1  0  0  0  0
 28 72  2  0  0  0  0
 29 46  1  0  0  0  0
 29 67  1  0  0  0  0
 29 73  2  0  0  0  0
 30 56  1  0  0  0  0
 30 62  1  0  0  0  0
 30 74  2  0  0  0  0
 31 57  1  0  0  0  0
 31 68  1  0  0  0  0
 31 75  2  0  0  0  0
 32 58  1  0  0  0  0
 32 69  1  0  0  0  0
 32 76  2  0  0  0  0
 33 63  1  0  0  0  0
 33 64  1  0  0  0  0
 33 77  2  0  0  0  0
 34 37  1  0  0  0  0
 35 46  1  0  0  0  0
 36 62  1  0  0  0  0
 37 39  1  0  0  0  0
 38 40  1  0  0  0  0
 38 42  1  0  0  0  0
 39 45  1  0  0  0  0
 40 47  1  0  0  0  0
 41 43  1  0  0  0  0
 41 48  1  0  0  0  0
 42 63  1  0  0  0  0
 43 64  1  0  0  0  0
 44 47  1  0  0  0  0
 44 63  1  0  0  0  0
 45 67  1  0  0  0  0
 46 62  1  0  0  0  0
 47 61  1  0  0  0  0
 48 57  1  0  0  0  0
 48 64  1  0  0  0  0
 49 58  1  0  0  0  0
 50 59  1  0  0  0  0
 51 59  1  0  0  0  0
 52 59  1  0  0  0  0
 53 71  1  0  0  0  0
 54 55  1  0  0  0  0
 54 68  1  0  0  0  0
 55 79  1  0  0  0  0
 56 59  1  0  0  0  0
 56 69  1  0  0  0  0
 57 70  1  0  0  0  0
 58 71  1  0  0  0  0
 60 61  1  0  0  0  0
M  CHG  2  70   1  71   1
M  ISO  4  33 100  55 101  64 100  79 101
M  END
> <Batch ID>
0176

> <Smiles>
CNC(C)C(=O)NC(C(=O)N1Cc2cc([101O:1][101CH2:1]CNC(=O)C(N)C3CC[100N:0]3[100C:0](=O)N3CCCC(n4nc(-c5ccc(Oc6ccc(F)cc6F)cc5)c(C(N)=O)c4N)C3)ccc2CC1C(=O)NC1CCCc2ccccc21)C(C)(C)C

> <Shape>
0.264

> <Color>
0.093

> <Negative vol penalty>
0.000

$$$$

  -OEChem-04052322503D

 85 94  0     1  0  0  0  0  0999 V2000
  -27.2807  -32.7821   14.0167 C   0  0  0  0  0  0  0  0  0  0  0  0
  -27.2837  -31.5745   14.7076 C   0  0  0  0  0  0  0  0  0  0  0  0
  -23.6856   -9.6324   20.2525 C   0  0  0  0  0  0  0  0  0  0  0  0
  -24.0562  -10.1301   22.5875 C   0  0  0  0  0  0  0  0  0  0  0  0
  -27.4755  -33.9785   14.7057 C   0  0  0  0  0  0  0  0  0  0  0  0
  -27.4825  -31.5626   16.0877 C   0  0  0  0  0  0  0  0  0  0  0  0
  -24.1773  -28.4676   18.5349 C   0  0  0  0  0  0  0  0  0  0  0  0
  -23.1208   -8.4063   20.6034 C   0  0  0  0  0  0  0  0  0  0  0  0
  -23.4913   -8.9040   22.9384 C   0  0  0  0  0  0  0  0  0  0  0  0
  -24.4138  -27.0938   18.5102 C   0  0  0  0  0  0  0  0  0  0  0  0
  -20.3942   -7.5881   23.2493 C   0  0  0  0  0  0  0  0  0  0  0  0
  -19.4780   -7.5757   24.3009 C   0  0  0  0  0  0  0  0  0  0  0  0
  -25.4268  -27.2351   20.6947 C   0  0  0  0  0  0  0  0  0  0  0  0
  -20.8999   -6.0509   25.5218 C   0  0  0  0  0  0  0  0  0  0  0  0
  -24.1534  -10.4943   21.2445 C   0  0  0  0  0  0  0  0  0  0  0  0
  -24.0708  -12.9908   20.7264 C   0  0  0  0  0  0  0  0  0  0  0  0
  -27.6671  -33.9820   16.0963 C   0  0  0  0  0  0  0  0  0  0  0  0
  -24.5736  -29.2390   19.6370 C   0  0  0  0  0  0  0  0  0  0  0  0
  -27.6813  -32.7601   16.7957 C   0  0  0  0  0  0  0  0  0  0  0  0
  -25.1898  -28.6176   20.7329 C   0  0  0  0  0  0  0  0  0  0  0  0
  -23.0236   -8.0421   21.9464 C   0  0  0  0  0  0  0  0  0  0  0  0
  -25.0407  -26.4778   19.5892 C   0  0  0  0  0  0  0  0  0  0  0  0
  -21.5633   -6.8318   23.3338 C   0  0  0  0  0  0  0  0  0  0  0  0
  -19.7308   -6.8071   25.4372 C   0  0  0  0  0  0  0  0  0  0  0  0
  -21.8161   -6.0633   24.4701 C   0  0  0  0  0  0  0  0  0  0  0  0
  -24.7375  -11.7607   20.8826 C   0  0  0  0  0  0  0  0  0  0  0  0
  -25.0617  -13.8770   20.3811 C   0  0  0  0  0  0  0  0  0  0  0  0
  -22.6802  -13.3042   20.8798 C   0  0  0  0  0  0  0  0  0  0  0  0
  -26.5450  -31.7080   20.1505 C   0  0  0  0  0  0  0  0  0  0  0  0
  -26.0695  -23.0857   20.4014 C   0  0  0  0  0  0  0  0  0  0  0  0
  -25.2053  -31.4748   23.1843 C   0  0  0  0  0  0  0  0  0  0  0  0
  -26.5341  -34.5223   23.9503 C   0  0  0  0  0  0  0  0  0  0  0  0
  -30.2677  -15.7872   21.5505 C   0  0  0  0  0  0  0  0  0  0  0  0
  -27.9207  -35.2965   16.7909 C   0  0  0  0  0  0  0  0  0  0  0  0
  -24.2818  -30.7150   19.6568 C   0  0  0  0  0  0  0  0  0  0  0  0
  -25.6304  -29.4003   21.9403 C   0  0  0  0  0  0  0  0  0  0  0  0
  -27.7508  -35.2274   18.3063 C   0  0  0  0  0  0  0  0  0  0  0  0
  -29.8731  -13.1079   19.0416 C   0  0  0  0  0  0  0  0  0  0  0  0
  -28.4631  -34.0010   18.8680 C   0  0  0  0  0  0  0  0  0  0  0  0
  -28.4672  -12.5827   19.3319 C   0  0  0  0  0  0  0  0  0  0  0  0
  -29.0244  -18.6759   23.6375 C   0  0  0  0  0  0  0  0  0  0  0  0
  -27.4711  -18.1954   21.6687 C   0  0  0  0  0  0  0  0  0  0  0  0
  -30.5355  -13.6817   20.2911 C   0  0  0  0  0  0  0  0  0  0  0  0
  -30.0086  -17.9149   22.7588 C   0  0  0  0  0  0  0  0  0  0  0  0
  -27.9534  -16.7696   21.9171 C   0  0  0  0  0  0  0  0  0  0  0  0
  -26.9047  -20.9091   21.2698 C   0  0  0  0  0  0  0  0  0  0  0  0
  -28.3277  -14.1921   21.2714 C   0  0  0  0  0  0  0  0  0  0  0  0
  -27.2043  -22.8518   22.6652 C   0  0  0  0  0  0  0  0  0  0  0  0
  -27.8690  -32.7080   18.2964 C   0  0  1  0  0  0  0  0  0  0  0  0
  -25.1436  -31.4942   20.6483 C   0  0  1  0  0  0  0  0  0  0  0  0
  -27.7685  -19.1144   22.8653 C   0  0  0  0  0  0  0  0  0  0  0  0
  -27.8742  -20.5680   22.4026 C   0  0  2  0  0  0  0  0  0  0  0  0
  -27.6093  -13.6570   20.0243 C   0  0  2  0  0  0  0  0  0  0  0  0
  -27.4760  -21.5900   23.4688 C   0  0  1  0  0  0  0  0  0  0  0  0
  -26.4898  -36.3024   25.7186 C   0  0  0  0  0  0  0  0  0  0  0  0
  -22.4751  -32.3966   22.1833 C   0  0  0  0  0  0  0  0  0  0  0  0
  -22.9126  -34.6187   23.2508 C   0  0  0  0  0  0  0  0  0  0  0  0
  -22.7896  -32.5632   24.6588 C   0  0  0  0  0  0  0  0  0  0  0  0
  -29.4292  -34.2240   24.4871 C   0  0  0  0  0  0  0  0  0  0  0  0
  -25.9123  -24.5573   20.6884 C   0  0  0  0  0  0  0  0  0  1  0  0
  -24.8008  -32.9278   23.1707 C   0  0  1  0  0  0  0  0  0  0  0  0
  -27.1867  -35.0474   25.2163 C   0  0  2  0  0  0  0  0  0  0  0  0
  -23.2626  -33.1160   23.2966 C   0  0  0  0  0  0  0  0  0  0  0  0
  -26.0504  -11.8533   20.6550 N   0  0  0  0  0  0  0  0  0  0  0  0
  -26.2167  -13.1521   20.3522 N   0  0  0  0  0  0  0  0  0  0  0  0
  -25.2481  -30.8183   21.9477 N   0  0  0  0  0  0  0  0  0  0  0  0
  -26.6860  -22.3463   21.3946 N   0  0  0  0  0  0  0  0  0  0  0  0
  -29.6762  -14.6711   20.9411 N   0  0  0  0  0  0  0  0  0  0  0  0
  -29.4078  -16.7292   22.1417 N   0  0  0  0  0  0  0  0  0  0  0  0
  -25.0491  -15.1978   20.1023 N   0  0  0  0  0  0  0  0  0  0  0  0
  -21.7989  -12.2751   21.2383 N   0  0  0  0  0  0  0  0  0  0  0  0
  -26.6182  -32.3932   18.9528 N   0  0  0  0  0  0  0  0  0  0  0  0
  -25.5705  -33.5756   24.2272 N   0  0  0  0  0  0  0  0  0  0  0  0
  -28.5548  -21.8037   24.4498 N   0  3  0  0  0  0  0  0  0  0  0  0
  -28.6186  -35.3741   24.9638 N   0  3  0  0  0  0  0  0  0  0  0  0
  -22.2298  -14.4592   20.6883 O   0  0  0  0  0  0  0  0  0  0  0  0
  -27.4900  -31.2840   20.8054 O   0  0  0  0  0  0  0  0  0  0  0  0
  -25.6572  -22.6089   19.3427 O   0  0  0  0  0  0  0  0  0  0  0  0
  -25.4690  -30.9325   24.2611 O   0  0  0  0  0  0  0  0  0  0  0  0
  -26.8451  -34.9155   22.8282 O   0  0  0  0  0  0  0  0  0  0  0  0
  -31.4951  -15.9489   21.5482 O   0  0  0  0  0  0  0  0  0  0  0  0
  -22.4723   -6.8458   22.2893 O   0  0  0  0  0  0  0  0  0  0  0  0
  -25.2750  -25.1208   19.5677 O   0  0  0  0  0  0  0  0  0  1  0  0
  -18.8516   -6.7966   26.4477 F   0  0  0  0  0  0  0  0  0  0  0  0
  -22.9380   -5.3357   24.5576 F   0  0  0  0  0  0  0  0  0  0  0  0
  1  2  1  0  0  0  0
  1  5  2  0  0  0  0
  2  6  2  0  0  0  0
  3  8  2  0  0  0  0
  3 15  1  0  0  0  0
  4  9  1  0  0  0  0
  4 15  2  0  0  0  0
  5 17  1  0  0  0  0
  6 19  1  0  0  0  0
  7 10  2  0  0  0  0
  7 18  1  0  0  0  0
  8 21  1  0  0  0  0
  9 21  2  0  0  0  0
 10 22  1  0  0  0  0
 11 12  2  0  0  0  0
 11 23  1  0  0  0  0
 12 24  1  0  0  0  0
 13 20  1  0  0  0  0
 13 22  2  0  0  0  0
 14 24  2  0  0  0  0
 14 25  1  0  0  0  0
 15 26  1  0  0  0  0
 16 26  1  0  0  0  0
 16 27  2  0  0  0  0
 16 28  1  0  0  0  0
 17 19  2  0  0  0  0
 17 34  1  0  0  0  0
 18 20  2  0  0  0  0
 18 35  1  0  0  0  0
 19 49  1  0  0  0  0
 20 36  1  0  0  0  0
 21 82  1  0  0  0  0
 22 83  1  0  0  0  0
 23 25  2  0  0  0  0
 23 82  1  0  0  0  0
 24 84  1  0  0  0  0
 25 85  1  0  0  0  0
 26 64  2  0  0  0  0
 27 65  1  0  0  0  0
 27 70  1  0  0  0  0
 28 71  1  0  0  0  0
 28 76  2  0  0  0  0
 29 50  1  0  0  0  0
 29 72  1  0  0  0  0
 29 77  2  0  0  0  0
 30 60  1  0  0  0  0
 30 67  1  0  0  0  0
 30 78  2  0  0  0  0
 31 61  1  0  0  0  0
 31 66  1  0  0  0  0
 31 79  2  0  0  0  0
 32 62  1  0  0  0  0
 32 73  1  0  0  0  0
 32 80  2  0  0  0  0
 33 68  1  0  0  0  0
 33 69  1  0  0  0  0
 33 81  2  0  0  0  0
 34 37  1  0  0  0  0
 35 50  1  0  0  0  0
 36 66  1  0  0  0  0
 37 39  1  0  0  0  0
 38 40  1  0  0  0  0
 38 43  1  0  0  0  0
 39 49  1  0  0  0  0
 40 53  1  0  0  0  0
 41 44  1  0  0  0  0
 41 51  1  0  0  0  0
 42 45  1  0  0  0  0
 42 51  1  0  0  0  0
 43 68  1  0  0  0  0
 44 69  1  0  0  0  0
 45 69  1  0  0  0  0
 46 52  1  0  0  0  0
 46 67  1  0  0  0  0
 47 53  1  0  0  0  0
 47 68  1  0  0  0  0
 48 54  1  0  0  0  0
 48 67  1  0  0  0  0
 49 72  1  0  0  0  0
 50 66  1  0  0  0  0
 51 52  1  0  0  0  0
 52 54  1  0  0  0  0
 53 65  1  0  0  0  0
 54 74  1  0  0  0  0
 55 62  1  0  0  0  0
 56 63  1  0  0  0  0
 57 63  1  0  0  0  0
 58 63  1  0  0  0  0
 59 75  1  0  0  0  0
 60 83  1  0  0  0  0
 61 63  1  0  0  0  0
 61 73  1  0  0  0  0
 62 75  1  0  0  0  0
 64 65  1  0  0  0  0
M  CHG  2  74   1  75   1
M  ISO  4  33 100  60 101  69 100  83 101
M  END
> <Batch ID>
0176

> <Smiles>
CNC(C)C(=O)NC(C(=O)N1Cc2cc([101O:1][101CH2:1]C(=O)N3CC(N)C(C4CC[100N:0]([100C:0](=O)N5CCCC(n6nc(-c7ccc(Oc8ccc(F)cc8F)cc7)c(C(N)=O)c6N)C5)CC4)C3)ccc2CC1C(=O)NC1CCCc2ccccc21)C(C)(C)C

> <Shape>
0.284

> <Color>
0.187

> <Negative vol penalty>
0.000

$$$$

  -OEChem-04052322503D

 84 92  0     1  0  0  0  0  0999 V2000
  -27.5882  -14.4985   36.5961 C   0  0  0  0  0  0  0  0  0  0  0  0
  -27.9173  -14.7100   35.2611 C   0  0  0  0  0  0  0  0  0  0  0  0
  -23.2886   -9.7997   19.9130 C   0  0  0  0  0  0  0  0  0  0  0  0
  -23.7398   -9.9399   22.2823 C   0  0  0  0  0  0  0  0  0  0  0  0
  -26.7170  -13.4668   36.9432 C   0  0  0  0  0  0  0  0  0  0  0  0
  -27.3762  -13.8891   34.2723 C   0  0  0  0  0  0  0  0  0  0  0  0
  -25.7182  -16.5067   30.2668 C   0  0  0  0  0  0  0  0  0  0  0  0
  -22.5623   -8.6271   20.1207 C   0  0  0  0  0  0  0  0  0  0  0  0
  -23.0135   -8.7674   22.4901 C   0  0  0  0  0  0  0  0  0  0  0  0
  -26.6762  -16.9562   29.3590 C   0  0  0  0  0  0  0  0  0  0  0  0
  -20.9746   -6.0070   23.6909 C   0  0  0  0  0  0  0  0  0  0  0  0
  -20.0733   -5.9816   24.7550 C   0  0  0  0  0  0  0  0  0  0  0  0
  -26.1537  -15.1069   27.9009 C   0  0  0  0  0  0  0  0  0  0  0  0
  -18.8635   -7.8288   23.7745 C   0  0  0  0  0  0  0  0  0  0  0  0
  -23.8774  -10.4561   20.9938 C   0  0  0  0  0  0  0  0  0  0  0  0
  -24.1368  -12.9861   20.7956 C   0  0  0  0  0  0  0  0  0  0  0  0
  -26.1573  -12.6389   35.9573 C   0  0  0  0  0  0  0  0  0  0  0  0
  -24.9772  -15.3457   30.0030 C   0  0  0  0  0  0  0  0  0  0  0  0
  -26.4977  -12.8445   34.6066 C   0  0  0  0  0  0  0  0  0  0  0  0
  -25.1851  -14.6461   28.8057 C   0  0  0  0  0  0  0  0  0  0  0  0
  -31.4047  -15.6975   26.5141 C   0  0  0  0  0  0  0  0  0  0  0  0
  -30.4209  -16.5147   25.9686 C   0  0  0  0  0  0  0  0  0  0  0  0
  -22.4247   -8.1110   21.4092 C   0  0  0  0  0  0  0  0  0  0  0  0
  -26.8961  -16.2547   28.1773 C   0  0  0  0  0  0  0  0  0  0  0  0
  -20.8205   -6.9434   22.6685 C   0  0  0  0  0  0  0  0  0  0  0  0
  -19.0177   -6.8924   24.7969 C   0  0  0  0  0  0  0  0  0  0  0  0
  -19.7650   -7.8543   22.7104 C   0  0  0  0  0  0  0  0  0  0  0  0
  -31.8378  -14.5775   25.8131 C   0  0  0  0  0  0  0  0  0  0  0  0
  -24.6283  -11.6670   20.7798 C   0  0  0  0  0  0  0  0  0  0  0  0
  -31.2598  -14.3205   24.5803 C   0  0  0  0  0  0  0  0  0  0  0  0
  -29.9065  -16.1711   24.7288 C   0  0  0  0  0  0  0  0  0  0  0  0
  -25.2382  -13.7660   20.5405 C   0  0  0  0  0  0  0  0  0  0  0  0
  -22.8037  -13.4637   21.0207 C   0  0  0  0  0  0  0  0  0  0  0  0
  -24.6614  -12.5165   31.4170 C   0  0  0  0  0  0  0  0  0  0  0  0
  -22.3700  -12.0817   29.1625 C   0  0  0  0  0  0  0  0  0  0  0  0
  -21.1264  -12.9184   26.0965 C   0  0  0  0  0  0  0  0  0  0  0  0
  -31.1093  -12.9229   21.3587 C   0  0  0  0  0  0  0  0  0  0  0  0
  -25.2575  -11.5068   36.3852 C   0  0  0  0  0  0  0  0  0  0  0  0
  -23.9287  -14.8889   30.9799 C   0  0  0  0  0  0  0  0  0  0  0  0
  -24.4018  -13.4054   28.4659 C   0  0  0  0  0  0  0  0  0  0  0  0
  -24.4337  -10.9183   35.2427 C   0  0  0  0  0  0  0  0  0  0  0  0
  -29.4598  -13.6628   18.2915 C   0  0  0  0  0  0  0  0  0  0  0  0
  -25.3129  -10.6771   34.0197 C   0  0  0  0  0  0  0  0  0  0  0  0
  -27.9901  -13.3543   18.5828 C   0  0  0  0  0  0  0  0  0  0  0  0
  -30.3932  -12.6833   18.9995 C   0  0  0  0  0  0  0  0  0  0  0  0
  -28.7070  -12.2537   20.7446 C   0  0  0  0  0  0  0  0  0  0  0  0
  -25.9117  -11.9908   33.5030 C   0  0  1  0  0  0  0  0  0  0  0  0
  -23.5934  -13.4066   30.8469 C   0  0  1  0  0  0  0  0  0  0  0  0
  -27.7289  -13.2490   20.0974 C   0  0  2  0  0  0  0  0  0  0  0  0
  -31.9830  -16.0375   27.8522 C   0  0  0  0  0  0  0  0  0  0  0  0
  -19.2626  -12.3668   24.5093 C   0  0  0  0  0  0  0  0  0  0  0  0
  -23.7934   -9.4945   28.3942 C   0  0  0  0  0  0  0  0  0  0  0  0
  -22.4892   -9.4935   26.2571 C   0  0  0  0  0  0  0  0  0  0  0  0
  -21.2979   -9.3373   28.4432 C   0  0  0  0  0  0  0  0  0  0  0  0
  -20.0765  -15.6841   26.1853 C   0  0  0  0  0  0  0  0  0  0  0  0
  -28.4545  -16.5399   22.8818 C   0  0  0  0  0  0  0  0  0  0  0  0
  -29.9245  -17.7394   26.6980 C   0  0  0  0  0  0  0  0  0  0  0  0
  -31.6717  -13.1363   23.7665 C   0  0  0  0  0  0  0  0  0  0  0  0
  -28.9546  -17.3915   27.8220 C   0  0  0  0  0  0  0  0  0  1  0  0
  -22.3444  -11.5339   27.7560 C   0  0  1  0  0  0  0  0  0  0  0  0
  -19.7220  -13.2722   25.6415 C   0  0  2  0  0  0  0  0  0  0  0  0
  -22.4975   -9.9870   27.7196 C   0  0  0  0  0  0  0  0  0  0  0  0
  -25.9399  -11.6084   20.5340 N   0  0  0  0  0  0  0  0  0  0  0  0
  -30.3020  -15.0912   24.0181 N   0  0  0  0  0  0  0  0  0  0  0  0
  -26.2818  -12.9004   20.3928 N   0  0  0  0  0  0  0  0  0  0  0  0
  -23.3923  -12.9952   29.4561 N   0  0  0  0  0  0  0  0  0  0  0  0
  -30.0942  -12.6317   20.4326 N   0  0  0  0  0  0  0  0  0  0  0  0
  -25.4061  -15.1010   20.4302 N   0  0  0  0  0  0  0  0  0  0  0  0
  -21.7912  -12.5267   21.2683 N   0  0  0  0  0  0  0  0  0  0  0  0
  -24.9226  -12.7377   32.7558 N   0  0  0  0  0  0  0  0  0  0  0  0
  -21.1131  -12.0269   27.1483 N   0  0  0  0  0  0  0  0  0  0  0  0
  -30.7399  -12.8572   22.6966 N   0  0  0  0  0  0  0  0  0  0  0  0
  -19.6720  -14.6832   25.1647 N   0  3  0  0  0  0  0  0  0  0  0  0
  -22.5158  -14.6841   20.9867 O   0  0  0  0  0  0  0  0  0  0  0  0
  -25.2069  -11.6893   30.6961 O   0  0  0  0  0  0  0  0  0  0  0  0
  -21.5102  -11.7181   29.9689 O   0  0  0  0  0  0  0  0  0  0  0  0
  -22.1344  -13.3835   25.5691 O   0  0  0  0  0  0  0  0  0  0  0  0
  -32.2583  -13.2248   21.0184 O   0  0  0  0  0  0  0  0  0  0  0  0
  -21.7158   -6.9669   21.6123 O   0  0  0  0  0  0  0  0  0  0  0  0
  -27.8310  -16.6910   27.2899 O   0  0  0  0  0  0  0  0  0  1  0  0
  -28.9369  -16.9516   24.1551 O   0  0  0  0  0  0  0  0  0  0  0  0
  -18.1513   -6.8668   25.8180 F   0  0  0  0  0  0  0  0  0  0  0  0
  -19.6111   -8.7554   21.7305 F   0  0  0  0  0  0  0  0  0  0  0  0
  -33.0551  -13.5389   26.4607 Cl  0  0  0  0  0  0  0  0  0  0  0  0
  1  2  1  0  0  0  0
  1  5  2  0  0  0  0
  2  6  2  0  0  0  0
  3  8  2  0  0  0  0
  3 15  1  0  0  0  0
  4  9  1  0  0  0  0
  4 15  2  0  0  0  0
  5 17  1  0  0  0  0
  6 19  1  0  0  0  0
  7 10  2  0  0  0  0
  7 18  1  0  0  0  0
  8 23  1  0  0  0  0
  9 23  2  0  0  0  0
 10 24  1  0  0  0  0
 11 12  2  0  0  0  0
 11 25  1  0  0  0  0
 12 26  1  0  0  0  0
 13 20  1  0  0  0  0
 13 24  2  0  0  0  0
 14 26  2  0  0  0  0
 14 27  1  0  0  0  0
 15 29  1  0  0  0  0
 16 29  1  0  0  0  0
 16 32  2  0  0  0  0
 16 33  1  0  0  0  0
 17 19  2  0  0  0  0
 17 38  1  0  0  0  0
 18 20  2  0  0  0  0
 18 39  1  0  0  0  0
 19 47  1  0  0  0  0
 20 40  1  0  0  0  0
 21 22  2  0  0  0  0
 21 28  1  0  0  0  0
 21 50  1  0  0  0  0
 22 31  1  0  0  0  0
 22 57  1  0  0  0  0
 23 79  1  0  0  0  0
 24 80  1  0  0  0  0
 25 27  2  0  0  0  0
 25 79  1  0  0  0  0
 26 82  1  0  0  0  0
 27 83  1  0  0  0  0
 28 30  2  0  0  0  0
 28 84  1  0  0  0  0
 29 63  2  0  0  0  0
 30 58  1  0  0  0  0
 30 64  1  0  0  0  0
 31 64  2  0  0  0  0
 31 81  1  0  0  0  0
 32 65  1  0  0  0  0
 32 68  1  0  0  0  0
 33 69  1  0  0  0  0
 33 74  2  0  0  0  0
 34 48  1  0  0  0  0
 34 70  1  0  0  0  0
 34 75  2  0  0  0  0
 35 60  1  0  0  0  0
 35 66  1  0  0  0  0
 35 76  2  0  0  0  0
 36 61  1  0  0  0  0
 36 71  1  0  0  0  0
 36 77  2  0  0  0  0
 37 67  1  0  0  0  0
 37 72  1  0  0  0  0
 37 78  2  0  0  0  0
 38 41  1  0  0  0  0
 39 48  1  0  0  0  0
 40 66  1  0  0  0  0
 41 43  1  0  0  0  0
 42 44  1  0  0  0  0
 42 45  1  0  0  0  0
 43 47  1  0  0  0  0
 44 49  1  0  0  0  0
 45 67  1  0  0  0  0
 46 49  1  0  0  0  0
 46 67  1  0  0  0  0
 47 70  1  0  0  0  0
 48 66  1  0  0  0  0
 49 65  1  0  0  0  0
 51 61  1  0  0  0  0
 52 62  1  0  0  0  0
 53 62  1  0  0  0  0
 54 62  1  0  0  0  0
 55 73  1  0  0  0  0
 56 81  1  0  0  0  0
 57 59  1  0  0  0  0
 58 72  1  0  0  0  0
 59 80  1  0  0  0  0
 60 62  1  0  0  0  0
 60 71  1  0  0  0  0
 61 73  1  0  0  0  0
 63 65  1  0  0  0  0
M  CHG  1  73   1
M  ISO  4  37 100  59 101  72 100  80 101
M  END
> <Batch ID>
0176

> <Smiles>
CNC(C)C(=O)NC(C(=O)N1Cc2cc([101O:1][101CH2:1]Cc3c(OC)nc(C[100NH:0][100C:0](=O)N4CCCC(n5nc(-c6ccc(Oc7ccc(F)cc7F)cc6)c(C(N)=O)c5N)C4)c(Cl)c3C)ccc2CC1C(=O)NC1CCCc2ccccc21)C(C)(C)C

> <Shape>
0.132

> <Color>
0.174

> <Negative vol penalty>
0.000

$$$$

  -OEChem-04052322503D

 83 92  0     1  0  0  0  0  0999 V2000
  -19.1136  -33.0824   20.3317 C   0  0  0  0  0  0  0  0  0  0  0  0
  -20.4156  -32.7121   20.0108 C   0  0  0  0  0  0  0  0  0  0  0  0
  -26.4353  -13.1601   20.3683 C   0  0  0  0  0  0  0  0  0  0  0  0
  -24.7061  -14.8056   19.9948 C   0  0  0  0  0  0  0  0  0  0  0  0
  -18.5196  -32.5988   21.4967 C   0  0  0  0  0  0  0  0  0  0  0  0
  -21.1248  -31.8587   20.8553 C   0  0  0  0  0  0  0  0  0  0  0  0
  -25.2041  -27.5995   19.2045 C   0  0  0  0  0  0  0  0  0  0  0  0
  -25.5089  -12.1388   20.1583 C   0  0  0  0  0  0  0  0  0  0  0  0
  -23.7796  -13.7842   19.7847 C   0  0  0  0  0  0  0  0  0  0  0  0
  -26.5978  -27.5996   19.1685 C   0  0  0  0  0  0  0  0  0  0  0  0
  -23.5191   -9.0962   20.0748 C   0  0  0  0  0  0  0  0  0  0  0  0
  -23.5244   -8.0210   20.9632 C   0  0  0  0  0  0  0  0  0  0  0  0
  -29.7522  -23.1914   21.0765 C   0  0  0  0  0  0  0  0  0  0  0  0
  -26.6479  -26.5462   21.3381 C   0  0  0  0  0  0  0  0  0  0  0  0
  -23.0562   -9.5294   22.7915 C   0  0  0  0  0  0  0  0  0  0  0  0
  -31.6600  -24.5335   21.5410 C   0  0  0  0  0  0  0  0  0  0  0  0
  -30.8576  -23.1397   23.1816 C   0  0  0  0  0  0  0  0  0  0  0  0
  -26.0339  -14.4936   20.2867 C   0  0  0  0  0  0  0  0  0  0  0  0
  -27.7972  -16.1777   19.5368 C   0  0  0  0  0  0  0  0  0  0  0  0
  -19.2185  -31.7314   22.3510 C   0  0  0  0  0  0  0  0  0  0  0  0
  -24.5208  -27.0818   20.3142 C   0  0  0  0  0  0  0  0  0  0  0  0
  -20.5401  -31.3641   22.0335 C   0  0  0  0  0  0  0  0  0  0  0  0
  -30.6772  -24.1371   20.6483 C   0  0  0  0  0  0  0  0  0  0  0  0
  -25.2454  -26.5384   21.3846 C   0  0  0  0  0  0  0  0  0  0  0  0
  -29.8371  -22.6781   22.3659 C   0  0  0  0  0  0  0  0  0  0  0  0
  -24.1810  -12.4508   19.8665 C   0  0  0  0  0  0  0  0  0  0  0  0
  -27.3200  -27.0756   20.2367 C   0  0  0  0  0  0  0  0  0  0  0  0
  -23.2825  -10.3881   20.5447 C   0  0  0  0  0  0  0  0  0  0  0  0
  -23.2929   -8.2375   22.3216 C   0  0  0  0  0  0  0  0  0  0  0  0
  -23.0510  -10.6046   21.9030 C   0  0  0  0  0  0  0  0  0  0  0  0
  -26.9904  -15.5490   20.5041 C   0  0  0  0  0  0  0  0  0  0  0  0
  -28.5239  -17.1034   20.2449 C   0  0  0  0  0  0  0  0  0  0  0  0
  -27.8821  -15.9456   18.1245 C   0  0  0  0  0  0  0  0  0  0  0  0
  -22.5259  -28.2802   22.4794 C   0  0  0  0  0  0  0  0  0  0  0  0
  -22.3035  -25.1832   23.4185 C   0  0  0  0  0  0  0  0  0  0  0  0
  -23.7184  -22.0795   23.5256 C   0  0  0  0  0  0  0  0  0  0  0  0
  -28.8728  -21.1151   24.0903 C   0  0  0  0  0  0  0  0  0  0  0  0
  -18.5514  -31.2722   23.6233 C   0  0  0  0  0  0  0  0  0  0  0  0
  -23.0168  -27.0648   20.3259 C   0  0  0  0  0  0  0  0  0  0  0  0
  -24.5592  -25.9521   22.5903 C   0  0  0  0  0  0  0  0  0  0  0  0
  -19.2383  -30.0737   24.2730 C   0  0  0  0  0  0  0  0  0  0  0  0
  -29.0631  -17.7495   25.2362 C   0  0  0  0  0  0  0  0  0  0  0  0
  -20.7480  -30.2861   24.3227 C   0  0  0  0  0  0  0  0  0  0  0  0
  -28.6072  -16.9287   24.0277 C   0  0  0  0  0  0  0  0  0  0  0  0
  -31.4610  -26.0786   17.7852 C   0  0  0  0  0  0  0  0  0  0  0  0
  -28.2867  -19.0595   25.3576 C   0  0  0  0  0  0  0  0  0  0  0  0
  -27.8220  -19.0696   22.9382 C   0  0  0  0  0  0  0  0  0  0  0  0
  -30.6103  -24.7252   19.2303 C   0  0  1  0  0  0  0  0  0  0  0  0
  -21.3330  -30.4205   22.9116 C   0  0  1  0  0  0  0  0  0  0  0  0
  -22.4311  -26.9802   21.7320 C   0  0  1  0  0  0  0  0  0  0  0  0
  -30.6389  -26.2876   19.0804 C   0  0  2  0  0  0  0  0  0  0  0  0
  -28.6201  -17.7711   22.7371 C   0  0  2  0  0  0  0  0  0  0  0  0
  -31.9193  -24.7305   18.3763 C   0  0  1  0  0  0  0  0  0  0  0  0
  -23.3157  -19.7599   24.3945 C   0  0  0  0  0  0  0  0  0  0  0  0
  -23.0203  -26.1160   26.2338 C   0  0  0  0  0  0  0  0  0  0  0  0
  -23.5306  -23.7354   26.8174 C   0  0  0  0  0  0  0  0  0  0  0  0
  -21.2200  -24.3829   26.1358 C   0  0  0  0  0  0  0  0  0  0  0  0
  -23.7608  -20.9262   20.8003 C   0  0  0  0  0  0  0  0  0  0  0  0
  -29.2997  -26.9810   18.9222 C   0  0  0  0  0  0  0  0  0  1  0  0
  -23.0504  -24.3054   24.3935 C   0  0  1  0  0  0  0  0  0  0  0  0
  -23.1556  -20.7046   23.2135 C   0  0  2  0  0  0  0  0  0  0  0  0
  -22.7186  -24.6477   25.8734 C   0  0  0  0  0  0  0  0  0  0  0  0
  -31.7745  -24.0574   22.8011 N   0  0  0  0  0  0  0  0  0  0  0  0
  -27.1860  -16.0343   21.7330 N   0  0  0  0  0  0  0  0  0  0  0  0
  -28.1241  -16.9776   21.5428 N   0  0  0  0  0  0  0  0  0  0  0  0
  -23.0874  -25.9642   22.5574 N   0  0  0  0  0  0  0  0  0  0  0  0
  -28.3466  -19.8060   24.0990 N   0  0  0  0  0  0  0  0  0  0  0  0
  -29.4597  -18.0045   19.8777 N   0  0  0  0  0  0  0  0  0  0  0  0
  -27.0647  -14.9573   17.5594 N   0  0  0  0  0  0  0  0  0  0  0  0
  -28.9094  -21.7135   22.8312 N   0  0  0  0  0  0  0  0  0  0  0  0
  -21.4464  -29.1207   22.2855 N   0  0  0  0  0  0  0  0  0  0  0  0
  -22.7493  -22.9286   24.0166 N   0  0  0  0  0  0  0  0  0  0  0  0
  -31.9721  -23.6473   17.3871 N   0  3  0  0  0  0  0  0  0  0  0  0
  -23.8566  -20.1122   22.0394 N   0  3  0  0  0  0  0  0  0  0  0  0
  -28.6716  -16.5842   17.3880 O   0  0  0  0  0  0  0  0  0  0  0  0
  -23.5053  -28.5035   23.1813 O   0  0  0  0  0  0  0  0  0  0  0  0
  -21.0700  -25.1709   23.4160 O   0  0  0  0  0  0  0  0  0  0  0  0
  -24.9003  -22.3699   23.3547 O   0  0  0  0  0  0  0  0  0  0  0  0
  -29.2873  -21.6548   25.1193 O   0  0  0  0  0  0  0  0  0  0  0  0
  -23.2768  -11.4545   19.6612 O   0  0  0  0  0  0  0  0  0  0  0  0
  -28.6804  -27.0750   20.2044 O   0  0  0  0  0  0  0  0  0  1  0  0
  -23.2965   -7.2046   23.1744 F   0  0  0  0  0  0  0  0  0  0  0  0
  -22.8219  -11.8433   22.3602 F   0  0  0  0  0  0  0  0  0  0  0  0
  1  2  1  0  0  0  0
  1  5  2  0  0  0  0
  2  6  2  0  0  0  0
  3  8  2  0  0  0  0
  3 18  1  0  0  0  0
  4  9  1  0  0  0  0
  4 18  2  0  0  0  0
  5 20  1  0  0  0  0
  6 22  1  0  0  0  0
  7 10  2  0  0  0  0
  7 21  1  0  0  0  0
  8 26  1  0  0  0  0
  9 26  2  0  0  0  0
 10 27  1  0  0  0  0
 11 12  2  0  0  0  0
 11 28  1  0  0  0  0
 12 29  1  0  0  0  0
 13 23  2  0  0  0  0
 13 25  1  0  0  0  0
 14 24  1  0  0  0  0
 14 27  2  0  0  0  0
 15 29  2  0  0  0  0
 15 30  1  0  0  0  0
 16 23  1  0  0  0  0
 16 63  2  0  0  0  0
 17 25  2  0  0  0  0
 17 63  1  0  0  0  0
 18 31  1  0  0  0  0
 19 31  1  0  0  0  0
 19 32  2  0  0  0  0
 19 33  1  0  0  0  0
 20 22  2  0  0  0  0
 20 38  1  0  0  0  0
 21 24  2  0  0  0  0
 21 39  1  0  0  0  0
 22 49  1  0  0  0  0
 23 48  1  0  0  0  0
 24 40  1  0  0  0  0
 25 70  1  0  0  0  0
 26 80  1  0  0  0  0
 27 81  1  0  0  0  0
 28 30  2  0  0  0  0
 28 80  1  0  0  0  0
 29 82  1  0  0  0  0
 30 83  1  0  0  0  0
 31 64  2  0  0  0  0
 32 65  1  0  0  0  0
 32 68  1  0  0  0  0
 33 69  1  0  0  0  0
 33 75  2  0  0  0  0
 34 50  1  0  0  0  0
 34 71  1  0  0  0  0
 34 76  2  0  0  0  0
 35 60  1  0  0  0  0
 35 66  1  0  0  0  0
 35 77  2  0  0  0  0
 36 61  1  0  0  0  0
 36 72  1  0  0  0  0
 36 78  2  0  0  0  0
 37 67  1  0  0  0  0
 37 70  1  0  0  0  0
 37 79  2  0  0  0  0
 38 41  1  0  0  0  0
 39 50  1  0  0  0  0
 40 66  1  0  0  0  0
 41 43  1  0  0  0  0
 42 44  1  0  0  0  0
 42 46  1  0  0  0  0
 43 49  1  0  0  0  0
 44 52  1  0  0  0  0
 45 51  1  0  0  0  0
 45 53  1  0  0  0  0
 46 67  1  0  0  0  0
 47 52  1  0  0  0  0
 47 67  1  0  0  0  0
 48 51  1  0  0  0  0
 48 53  1  0  0  0  0
 49 71  1  0  0  0  0
 50 66  1  0  0  0  0
 51 59  1  0  0  0  0
 52 65  1  0  0  0  0
 53 73  1  0  0  0  0
 54 61  1  0  0  0  0
 55 62  1  0  0  0  0
 56 62  1  0  0  0  0
 57 62  1  0  0  0  0
 58 74  1  0  0  0  0
 59 81  1  0  0  0  0
 60 62  1  0  0  0  0
 60 72  1  0  0  0  0
 61 74  1  0  0  0  0
 64 65  1  0  0  0  0
M  CHG  2  73   1  74   1
M  ISO  4  37 100  59 101  70 100  81 101
M  END
> <Batch ID>
0176

> <Smiles>
CNC(C)C(=O)NC(C(=O)N1Cc2cc([101O:1][101CH2:1]C3CC(N)C3c3cncc([100NH:0][100C:0](=O)N4CCCC(n5nc(-c6ccc(Oc7ccc(F)cc7F)cc6)c(C(N)=O)c5N)C4)c3)ccc2CC1C(=O)NC1CCCc2ccccc21)C(C)(C)C

> <Shape>
0.196

> <Color>
0.085

> <Negative vol penalty>
0.000

$$$$

  -OEChem-04052322503D

 82 91  0     1  0  0  0  0  0999 V2000
  -32.6261  -14.5502   20.1311 C   0  0  0  0  0  0  0  0  0  0  0  0
  -31.7165  -15.5737   19.8853 C   0  0  0  0  0  0  0  0  0  0  0  0
  -25.0739  -31.1514   24.8614 C   0  0  0  0  0  0  0  0  0  0  0  0
  -25.7021  -28.8274   25.0642 C   0  0  0  0  0  0  0  0  0  0  0  0
  -32.2194  -13.2200   20.0359 C   0  0  0  0  0  0  0  0  0  0  0  0
  -30.3998  -15.2676   19.5431 C   0  0  0  0  0  0  0  0  0  0  0  0
  -25.3725  -18.4144   21.0694 C   0  0  0  0  0  0  0  0  0  0  0  0
  -25.8907  -31.4670   25.9471 C   0  0  0  0  0  0  0  0  0  0  0  0
  -26.5190  -29.1429   26.1499 C   0  0  0  0  0  0  0  0  0  0  0  0
  -24.6067  -19.3519   20.3777 C   0  0  0  0  0  0  0  0  0  0  0  0
  -29.5820  -30.4783   26.6551 C   0  0  0  0  0  0  0  0  0  0  0  0
  -30.8592  -29.9186   26.6875 C   0  0  0  0  0  0  0  0  0  0  0  0
  -21.2761  -22.8189   16.1543 C   0  0  0  0  0  0  0  0  0  0  0  0
  -21.3029  -22.8797   18.9812 C   0  0  0  0  0  0  0  0  0  0  0  0
  -23.0872  -17.6040   19.7031 C   0  0  0  0  0  0  0  0  0  0  0  0
  -30.3296  -28.8311   28.7789 C   0  0  0  0  0  0  0  0  0  0  0  0
  -24.9795  -29.8316   24.4200 C   0  0  0  0  0  0  0  0  0  0  0  0
  -24.4986  -29.4842   21.9389 C   0  0  0  0  0  0  0  0  0  0  0  0
  -30.8946  -12.8975   19.7017 C   0  0  0  0  0  0  0  0  0  0  0  0
  -25.0068  -17.0606   21.0740 C   0  0  0  0  0  0  0  0  0  0  0  0
  -29.9754  -13.9318   19.4420 C   0  0  0  0  0  0  0  0  0  0  0  0
  -20.4060  -23.6335   16.8597 C   0  0  0  0  0  0  0  0  0  0  0  0
  -20.4191  -23.6680   18.2608 C   0  0  0  0  0  0  0  0  0  0  0  0
  -23.8486  -16.6517   20.3976 C   0  0  0  0  0  0  0  0  0  0  0  0
  -22.1799  -22.0352   16.8742 C   0  0  0  0  0  0  0  0  0  0  0  0
  -22.1929  -22.0650   18.2774 C   0  0  0  0  0  0  0  0  0  0  0  0
  -26.6133  -30.4628   26.5914 C   0  0  0  0  0  0  0  0  0  0  0  0
  -23.4655  -18.9464   19.6920 C   0  0  0  0  0  0  0  0  0  0  0  0
  -28.6786  -30.2145   27.6846 C   0  0  0  0  0  0  0  0  0  0  0  0
  -31.2330  -29.0949   27.7493 C   0  0  0  0  0  0  0  0  0  0  0  0
  -29.0524  -29.3909   28.7465 C   0  0  0  0  0  0  0  0  0  0  0  0
  -24.1354  -29.5049   23.2989 C   0  0  0  0  0  0  0  0  0  0  0  0
  -23.3499  -29.1155   21.2824 C   0  0  0  0  0  0  0  0  0  0  0  0
  -25.7614  -29.7724   21.3241 C   0  0  0  0  0  0  0  0  0  0  0  0
  -26.3587  -14.3684   20.0601 C   0  0  0  0  0  0  0  0  0  0  0  0
  -23.8083  -12.9959   21.5210 C   0  0  0  0  0  0  0  0  0  0  0  0
  -20.6013  -13.3055   22.6463 C   0  0  0  0  0  0  0  0  0  0  0  0
  -18.8308  -25.8725   20.8289 C   0  0  0  0  0  0  0  0  0  0  0  0
  -30.5137  -11.4446   19.5647 C   0  0  0  0  0  0  0  0  0  0  0  0
  -25.8287  -16.0660   21.8471 C   0  0  0  0  0  0  0  0  0  0  0  0
  -19.3323  -24.5207   16.3114 C   0  0  0  0  0  0  0  0  0  0  0  0
  -23.4016  -15.2135   20.3885 C   0  0  0  0  0  0  0  0  0  0  0  0
  -29.0056  -11.2079   19.5632 C   0  0  0  0  0  0  0  0  0  0  0  0
  -19.0530  -25.4291   17.5189 C   0  0  0  0  0  0  0  0  0  0  0  0
  -18.5884  -28.7259   22.9445 C   0  0  0  0  0  0  0  0  0  0  0  0
  -28.3113  -12.1948   18.6300 C   0  0  0  0  0  0  0  0  0  0  0  0
  -20.0397  -29.1770   23.1179 C   0  0  0  0  0  0  0  0  0  0  0  0
  -18.4734  -27.2042   22.8868 C   0  0  0  0  0  0  0  0  0  0  0  0
  -20.7837  -27.0072   22.0516 C   0  0  0  0  0  0  0  0  0  0  0  0
  -28.5322  -13.6401   19.0924 C   0  0  1  0  0  0  0  0  0  0  0  0
  -19.3458  -24.5836   18.7715 C   0  0  2  0  0  0  0  0  0  0  0  0
  -25.6480  -14.6325   21.3573 C   0  0  1  0  0  0  0  0  0  0  0  0
  -20.9566  -28.5357   22.0590 C   0  0  2  0  0  0  0  0  0  0  0  0
  -23.1284  -21.1580   16.1230 C   0  0  0  0  0  0  0  0  0  0  0  0
  -18.7707  -12.0014   23.7622 C   0  0  0  0  0  0  0  0  0  0  0  0
  -23.2397  -11.5513   18.8942 C   0  0  0  0  0  0  0  0  0  0  0  0
  -20.9428  -11.0435   19.7514 C   0  0  0  0  0  0  0  0  0  0  0  0
  -22.9429  -10.1473   20.9424 C   0  0  0  0  0  0  0  0  0  0  0  0
  -20.5489  -15.1420   24.9666 C   0  0  0  0  0  0  0  0  0  0  0  0
  -23.1583  -21.2158   19.0506 C   0  0  0  0  0  0  0  0  0  1  0  0
  -22.4108  -12.6141   21.0964 C   0  0  1  0  0  0  0  0  0  0  0  0
  -19.9572  -12.9300   23.9686 C   0  0  2  0  0  0  0  0  0  0  0  0
  -22.3933  -11.3659   20.1695 C   0  0  0  0  0  0  0  0  0  0  0  0
  -22.8560  -29.1758   23.4960 N   0  0  0  0  0  0  0  0  0  0  0  0
  -22.4052  -28.9448   22.2512 N   0  0  0  0  0  0  0  0  0  0  0  0
  -24.2420  -14.2777   21.1538 N   0  0  0  0  0  0  0  0  0  0  0  0
  -19.3668  -26.6589   21.8619 N   0  0  0  0  0  0  0  0  0  0  0  0
  -23.0658  -28.9241   19.9766 N   0  0  0  0  0  0  0  0  0  0  0  0
  -26.8371  -30.1356   22.1458 N   0  0  0  0  0  0  0  0  0  0  0  0
  -27.6673  -13.9509   20.2104 N   0  0  0  0  0  0  0  0  0  0  0  0
  -21.6396  -12.4571   22.3248 N   0  0  0  0  0  0  0  0  0  0  0  0
  -19.7457  -25.4005   19.8956 N   0  0  0  0  0  0  0  0  0  0  0  0
  -19.4805  -14.1510   24.6777 N   0  3  0  0  0  0  0  0  0  0  0  0
  -25.9265  -29.7256   20.0815 O   0  0  0  0  0  0  0  0  0  0  0  0
  -25.7634  -14.5300   19.0012 O   0  0  0  0  0  0  0  0  0  0  0  0
  -24.4874  -12.1894   22.1612 O   0  0  0  0  0  0  0  0  0  0  0  0
  -20.2192  -14.2542   21.9648 O   0  0  0  0  0  0  0  0  0  0  0  0
  -17.6255  -25.6147   20.7416 O   0  0  0  0  0  0  0  0  0  0  0  0
  -27.4107  -30.7704   27.6507 O   0  0  0  0  0  0  0  0  0  0  0  0
  -22.7166  -19.8593   19.0156 O   0  0  0  0  0  0  0  0  0  1  0  0
  -32.4590  -28.5562   27.7795 F   0  0  0  0  0  0  0  0  0  0  0  0
  -28.1884  -29.1329   29.7379 F   0  0  0  0  0  0  0  0  0  0  0  0
  1  2  1  0  0  0  0
  1  5  2  0  0  0  0
  2  6  2  0  0  0  0
  3  8  2  0  0  0  0
  3 17  1  0  0  0  0
  4  9  1  0  0  0  0
  4 17  2  0  0  0  0
  5 19  1  0  0  0  0
  6 21  1  0  0  0  0
  7 10  2  0  0  0  0
  7 20  1  0  0  0  0
  8 27  1  0  0  0  0
  9 27  2  0  0  0  0
 10 28  1  0  0  0  0
 11 12  2  0  0  0  0
 11 29  1  0  0  0  0
 12 30  1  0  0  0  0
 13 22  2  0  0  0  0
 13 25  1  0  0  0  0
 14 23  2  0  0  0  0
 14 26  1  0  0  0  0
 15 24  1  0  0  0  0
 15 28  2  0  0  0  0
 16 30  2  0  0  0  0
 16 31  1  0  0  0  0
 17 32  1  0  0  0  0
 18 32  1  0  0  0  0
 18 33  2  0  0  0  0
 18 34  1  0  0  0  0
 19 21  2  0  0  0  0
 19 39  1  0  0  0  0
 20 24  2  0  0  0  0
 20 40  1  0  0  0  0
 21 50  1  0  0  0  0
 22 23  1  0  0  0  0
 22 41  1  0  0  0  0
 23 51  1  0  0  0  0
 24 42  1  0  0  0  0
 25 26  2  0  0  0  0
 25 54  1  0  0  0  0
 26 60  1  0  0  0  0
 27 79  1  0  0  0  0
 28 80  1  0  0  0  0
 29 31  2  0  0  0  0
 29 79  1  0  0  0  0
 30 81  1  0  0  0  0
 31 82  1  0  0  0  0
 32 64  2  0  0  0  0
 33 65  1  0  0  0  0
 33 68  1  0  0  0  0
 34 69  1  0  0  0  0
 34 74  2  0  0  0  0
 35 52  1  0  0  0  0
 35 70  1  0  0  0  0
 35 75  2  0  0  0  0
 36 61  1  0  0  0  0
 36 66  1  0  0  0  0
 36 76  2  0  0  0  0
 37 62  1  0  0  0  0
 37 71  1  0  0  0  0
 37 77  2  0  0  0  0
 38 67  1  0  0  0  0
 38 72  1  0  0  0  0
 38 78  2  0  0  0  0
 39 43  1  0  0  0  0
 40 52  1  0  0  0  0
 41 44  1  0  0  0  0
 42 66  1  0  0  0  0
 43 46  1  0  0  0  0
 44 51  1  0  0  0  0
 45 47  1  0  0  0  0
 45 48  1  0  0  0  0
 46 50  1  0  0  0  0
 47 53  1  0  0  0  0
 48 67  1  0  0  0  0
 49 53  1  0  0  0  0
 49 67  1  0  0  0  0
 50 70  1  0  0  0  0
 51 72  1  0  0  0  0
 52 66  1  0  0  0  0
 53 65  1  0  0  0  0
 55 62  1  0  0  0  0
 56 63  1  0  0  0  0
 57 63  1  0  0  0  0
 58 63  1  0  0  0  0
 59 73  1  0  0  0  0
 60 80  1  0  0  0  0
 61 63  1  0  0  0  0
 61 71  1  0  0  0  0
 62 73  1  0  0  0  0
 64 65  1  0  0  0  0
M  CHG  1  73   1
M  ISO  4  38 100  60 101  72 100  80 101
M  END
> <Batch ID>
0176

> <Smiles>
CNC(C)C(=O)NC(C(=O)N1Cc2cc([101O:1][101CH2:1]c3cc4c(cc3C)CCC4[100NH:0][100C:0](=O)N3CCCC(n4nc(-c5ccc(Oc6ccc(F)cc6F)cc5)c(C(N)=O)c4N)C3)ccc2CC1C(=O)NC1CCCc2ccccc21)C(C)(C)C

> <Shape>
0.233

> <Color>
0.056

> <Negative vol penalty>
0.000

$$$$

  -OEChem-04052322503D

 88 97  0     1  0  0  0  0  0999 V2000
  -27.2001  -37.9043   26.1017 C   0  0  0  0  0  0  0  0  0  0  0  0
  -28.0450  -37.0766   25.3693 C   0  0  0  0  0  0  0  0  0  0  0  0
  -24.3105   -9.2630   21.3460 C   0  0  0  0  0  0  0  0  0  0  0  0
  -24.2535   -8.1714   19.1914 C   0  0  0  0  0  0  0  0  0  0  0  0
  -25.9929  -37.4080   26.5920 C   0  0  0  0  0  0  0  0  0  0  0  0
  -27.6837  -35.7516   25.1277 C   0  0  0  0  0  0  0  0  0  0  0  0
  -28.3190  -30.6039   20.1867 C   0  0  0  0  0  0  0  0  0  0  0  0
  -23.2354   -8.4822   21.7701 C   0  0  0  0  0  0  0  0  0  0  0  0
  -23.1783   -7.3905   19.6156 C   0  0  0  0  0  0  0  0  0  0  0  0
  -28.7236  -29.2756   20.0611 C   0  0  0  0  0  0  0  0  0  0  0  0
  -20.7379   -6.5233   23.5423 C   0  0  0  0  0  0  0  0  0  0  0  0
  -20.8138   -5.9496   24.8114 C   0  0  0  0  0  0  0  0  0  0  0  0
  -26.5775  -28.5498   20.8896 C   0  0  0  0  0  0  0  0  0  0  0  0
  -28.3270  -23.8888   21.6414 C   0  0  0  0  0  0  0  0  0  0  0  0
  -22.8073   -4.7546   24.1518 C   0  0  0  0  0  0  0  0  0  0  0  0
  -24.8196   -9.1076   20.0566 C   0  0  0  0  0  0  0  0  0  0  0  0
  -27.2996   -9.6112   19.7348 C   0  0  0  0  0  0  0  0  0  0  0  0
  -25.6122  -36.0790   26.3480 C   0  0  0  0  0  0  0  0  0  0  0  0
  -27.0424  -30.9158   20.6759 C   0  0  0  0  0  0  0  0  0  0  0  0
  -26.4709  -35.2367   25.6163 C   0  0  0  0  0  0  0  0  0  0  0  0
  -26.1582  -29.8828   21.0181 C   0  0  0  0  0  0  0  0  0  0  0  0
  -27.9144  -24.5988   20.5194 C   0  0  0  0  0  0  0  0  0  0  0  0
  -28.8955  -22.6290   21.4898 C   0  0  0  0  0  0  0  0  0  0  0  0
  -22.6692   -7.5459   20.9050 C   0  0  0  0  0  0  0  0  0  0  0  0
  -27.8539  -28.2484   20.4152 C   0  0  0  0  0  0  0  0  0  0  0  0
  -21.6966   -6.2126   22.5778 C   0  0  0  0  0  0  0  0  0  0  0  0
  -21.8486   -5.0653   25.1161 C   0  0  0  0  0  0  0  0  0  0  0  0
  -22.7313   -5.3283   22.8826 C   0  0  0  0  0  0  0  0  0  0  0  0
  -25.9298   -9.9143   19.6177 C   0  0  0  0  0  0  0  0  0  0  0  0
  -28.0909  -24.0095   19.2778 C   0  0  0  0  0  0  0  0  0  0  0  0
  -29.0278  -22.1278   20.2048 C   0  0  0  0  0  0  0  0  0  0  0  0
  -27.9390  -10.6882   19.1712 C   0  0  0  0  0  0  0  0  0  0  0  0
  -27.9370   -8.4590   20.3022 C   0  0  0  0  0  0  0  0  0  0  0  0
  -25.9319  -32.4901   23.2042 C   0  0  0  0  0  0  0  0  0  0  0  0
  -23.0691  -32.0142   21.7550 C   0  0  0  0  0  0  0  0  0  0  0  0
  -21.1918  -30.1661   19.5854 C   0  0  0  0  0  0  0  0  0  0  0  0
  -28.6812  -15.9509   18.4235 C   0  0  0  0  0  0  0  0  0  0  0  0
  -24.3196  -35.5742   26.9387 C   0  0  0  0  0  0  0  0  0  0  0  0
  -26.6115  -32.3531   20.7803 C   0  0  0  0  0  0  0  0  0  0  0  0
  -24.7696  -30.1642   21.5292 C   0  0  0  0  0  0  0  0  0  0  0  0
  -23.8373  -34.2649   26.3194 C   0  0  0  0  0  0  0  0  0  0  0  0
  -26.1408  -14.5451   16.4490 C   0  0  0  0  0  0  0  0  0  0  0  0
  -24.9865  -33.2670   26.2183 C   0  0  0  0  0  0  0  0  0  0  0  0
  -25.9645  -13.1781   17.1096 C   0  0  0  0  0  0  0  0  0  0  0  0
  -27.9264  -19.2840   19.2654 C   0  0  0  0  0  0  0  0  0  0  0  0
  -30.3794  -18.9503   18.7768 C   0  0  0  0  0  0  0  0  0  0  0  0
  -26.3478  -15.6570   17.4790 C   0  0  0  0  0  0  0  0  0  0  0  0
  -27.5898  -18.2288   18.2077 C   0  0  0  0  0  0  0  0  0  0  0  0
  -29.9945  -17.9261   17.7129 C   0  0  0  0  0  0  0  0  0  0  0  0
  -27.2725  -14.0269   19.0934 C   0  0  0  0  0  0  0  0  0  0  0  0
  -26.1026  -33.8007   25.3122 C   0  0  1  0  0  0  0  0  0  0  0  0
  -25.4744  -32.5653   21.7750 C   0  0  1  0  0  0  0  0  0  0  0  0
  -27.1206  -12.8809   18.0812 C   0  0  1  0  0  0  0  0  0  0  0  0
  -29.2584  -19.9756   18.9659 C   0  0  0  0  0  0  0  0  0  0  0  0
  -27.6665  -24.7262   18.0380 C   0  0  0  0  0  0  0  0  0  0  0  0
  -28.1693  -21.5428   23.6453 C   0  0  0  0  0  0  0  0  0  0  0  0
  -30.4538  -22.5942   23.4708 C   0  0  0  0  0  0  0  0  0  0  0  0
  -18.8751  -29.9964   18.6359 C   0  0  0  0  0  0  0  0  0  0  0  0
  -22.0883  -30.7918   24.3729 C   0  0  0  0  0  0  0  0  0  0  0  0
  -20.1642  -29.8056   23.1107 C   0  0  0  0  0  0  0  0  0  0  0  0
  -20.4347  -32.2823   23.2335 C   0  0  0  0  0  0  0  0  0  0  0  0
  -22.1656  -30.6057   16.8254 C   0  0  0  0  0  0  0  0  0  0  0  0
  -27.3046  -25.9491   20.6753 C   0  0  0  0  0  0  0  0  0  1  0  0
  -29.3368  -21.8704   22.6950 C   0  0  0  0  0  0  0  0  0  0  0  0
  -22.0168  -30.9325   21.7959 C   0  0  1  0  0  0  0  0  0  0  0  0
  -20.2695  -30.5747   18.4510 C   0  0  2  0  0  0  0  0  0  0  0  0
  -21.2028  -30.9475   23.1205 C   0  0  0  0  0  0  0  0  0  0  0  0
  -25.7110  -11.0918   19.0263 N   0  0  0  0  0  0  0  0  0  0  0  0
  -28.6389  -22.7879   19.0910 N   0  0  0  0  0  0  0  0  0  0  0  0
  -26.9518  -11.5381   18.7669 N   0  0  0  0  0  0  0  0  0  0  0  0
  -24.3972  -31.5857   21.6194 N   0  0  0  0  0  0  0  0  0  0  0  0
  -27.4330  -15.3107   18.4075 N   0  0  0  0  0  0  0  0  0  0  0  0
  -28.7117  -17.2963   18.0272 N   0  0  0  0  0  0  0  0  0  0  0  0
  -29.2437  -10.9818   18.9871 N   0  0  0  0  0  0  0  0  0  0  0  0
  -27.1308   -7.4454   20.8379 N   0  0  0  0  0  0  0  0  0  0  0  0
  -29.5925  -20.8743   20.0487 N   0  0  0  0  0  0  0  0  0  0  0  0
  -25.7359  -33.6558   23.9198 N   0  0  0  0  0  0  0  0  0  0  0  0
  -21.2069  -31.1053   20.5948 N   0  0  0  0  0  0  0  0  0  0  0  0
  -20.8082  -30.0948   17.1470 N   0  3  0  0  0  0  0  0  0  0  0  0
  -29.1848   -8.3396   20.3479 O   0  0  0  0  0  0  0  0  0  0  0  0
  -26.4249  -31.4508   23.6269 O   0  0  0  0  0  0  0  0  0  0  0  0
  -22.7248  -33.1961   21.8331 O   0  0  0  0  0  0  0  0  0  0  0  0
  -21.8318  -29.1169   19.5785 O   0  0  0  0  0  0  0  0  0  0  0  0
  -29.7086  -15.3556   18.7717 O   0  0  0  0  0  0  0  0  0  0  0  0
  -21.6202   -6.7837   21.3186 O   0  0  0  0  0  0  0  0  0  0  0  0
  -28.2491  -26.9424   20.2934 O   0  0  0  0  0  0  0  0  0  1  0  0
  -21.9223   -4.5156   26.3354 F   0  0  0  0  0  0  0  0  0  0  0  0
  -23.6560   -5.0269   21.9607 F   0  0  0  0  0  0  0  0  0  0  0  0
  1  2  1  0  0  0  0
  1  5  2  0  0  0  0
  2  6  2  0  0  0  0
  3  8  2  0  0  0  0
  3 16  1  0  0  0  0
  4  9  1  0  0  0  0
  4 16  2  0  0  0  0
  5 18  1  0  0  0  0
  6 20  1  0  0  0  0
  7 10  2  0  0  0  0
  7 19  1  0  0  0  0
  8 24  1  0  0  0  0
  9 24  2  0  0  0  0
 10 25  1  0  0  0  0
 11 12  2  0  0  0  0
 11 26  1  0  0  0  0
 12 27  1  0  0  0  0
 13 21  1  0  0  0  0
 13 25  2  0  0  0  0
 14 22  1  0  0  0  0
 14 23  2  0  0  0  0
 15 27  2  0  0  0  0
 15 28  1  0  0  0  0
 16 29  1  0  0  0  0
 17 29  1  0  0  0  0
 17 32  2  0  0  0  0
 17 33  1  0  0  0  0
 18 20  2  0  0  0  0
 18 38  1  0  0  0  0
 19 21  2  0  0  0  0
 19 39  1  0  0  0  0
 20 51  1  0  0  0  0
 21 40  1  0  0  0  0
 22 30  2  0  0  0  0
 22 63  1  0  0  0  0
 23 31  1  0  0  0  0
 23 64  1  0  0  0  0
 24 85  1  0  0  0  0
 25 86  1  0  0  0  0
 26 28  2  0  0  0  0
 26 85  1  0  0  0  0
 27 87  1  0  0  0  0
 28 88  1  0  0  0  0
 29 68  2  0  0  0  0
 30 55  1  0  0  0  0
 30 69  1  0  0  0  0
 31 69  2  0  0  0  0
 31 76  1  0  0  0  0
 32 70  1  0  0  0  0
 32 74  1  0  0  0  0
 33 75  1  0  0  0  0
 33 80  2  0  0  0  0
 34 52  1  0  0  0  0
 34 77  1  0  0  0  0
 34 81  2  0  0  0  0
 35 65  1  0  0  0  0
 35 71  1  0  0  0  0
 35 82  2  0  0  0  0
 36 66  1  0  0  0  0
 36 78  1  0  0  0  0
 36 83  2  0  0  0  0
 37 72  1  0  0  0  0
 37 73  1  0  0  0  0
 37 84  2  0  0  0  0
 38 41  1  0  0  0  0
 39 52  1  0  0  0  0
 40 71  1  0  0  0  0
 41 43  1  0  0  0  0
 42 44  1  0  0  0  0
 42 47  1  0  0  0  0
 43 51  1  0  0  0  0
 44 53  1  0  0  0  0
 45 48  1  0  0  0  0
 45 54  1  0  0  0  0
 46 49  1  0  0  0  0
 46 54  1  0  0  0  0
 47 72  1  0  0  0  0
 48 73  1  0  0  0  0
 49 73  1  0  0  0  0
 50 53  1  0  0  0  0
 50 72  1  0  0  0  0
 51 77  1  0  0  0  0
 52 71  1  0  0  0  0
 53 70  1  0  0  0  0
 54 76  1  0  0  0  0
 56 64  1  0  0  0  0
 57 64  1  0  0  0  0
 58 66  1  0  0  0  0
 59 67  1  0  0  0  0
 60 67  1  0  0  0  0
 61 67  1  0  0  0  0
 62 79  1  0  0  0  0
 63 86  1  0  0  0  0
 65 67  1  0  0  0  0
 65 78  1  0  0  0  0
 66 79  1  0  0  0  0
 68 70  1  0  0  0  0
M  CHG  1  79   1
M  ISO  4  37 100  63 101  73 100  86 101
M  END
> <Batch ID>
0176

> <Smiles>
CNC(C)C(=O)NC(C(=O)N1Cc2cc([101O:1][101CH2:1]c3cc(C(C)C)c(NC4CC[100N:0]([100C:0](=O)N5CCCC(n6nc(-c7ccc(Oc8ccc(F)cc8F)cc7)c(C(N)=O)c6N)C5)CC4)nc3C)ccc2CC1C(=O)NC1CCCc2ccccc21)C(C)(C)C

> <Shape>
0.270

> <Color>
0.088

> <Negative vol penalty>
0.000

$$$$

  -OEChem-04052322503D

 83 91  0     1  0  0  0  0  0999 V2000
  -19.9675  -21.1928   24.9199 C   0  0  0  0  0  0  0  0  0  0  0  0
  -21.3393  -21.3890   24.7964 C   0  0  0  0  0  0  0  0  0  0  0  0
  -26.5291  -12.1862   21.7325 C   0  0  0  0  0  0  0  0  0  0  0  0
  -25.5757  -13.7815   20.1888 C   0  0  0  0  0  0  0  0  0  0  0  0
  -19.0829  -21.9786   24.1824 C   0  0  0  0  0  0  0  0  0  0  0  0
  -21.8272  -22.3704   23.9343 C   0  0  0  0  0  0  0  0  0  0  0  0
  -26.8131  -25.8333   24.7437 C   0  0  0  0  0  0  0  0  0  0  0  0
  -25.3131  -11.5044   21.7790 C   0  0  0  0  0  0  0  0  0  0  0  0
  -24.3597  -13.0997   20.2352 C   0  0  0  0  0  0  0  0  0  0  0  0
  -28.1147  -25.7325   24.2545 C   0  0  0  0  0  0  0  0  0  0  0  0
  -22.5660   -9.1362   22.0240 C   0  0  0  0  0  0  0  0  0  0  0  0
  -22.5988   -7.7447   21.9340 C   0  0  0  0  0  0  0  0  0  0  0  0
  -27.5595  -27.2674   22.4782 C   0  0  0  0  0  0  0  0  0  0  0  0
  -23.6487   -7.9098   19.7643 C   0  0  0  0  0  0  0  0  0  0  0  0
  -26.6604  -13.3248   20.9374 C   0  0  0  0  0  0  0  0  0  0  0  0
  -28.9831  -13.8060   19.9989 C   0  0  0  0  0  0  0  0  0  0  0  0
  -19.5600  -22.9766   23.3181 C   0  0  0  0  0  0  0  0  0  0  0  0
  -25.8703  -26.6449   24.0964 C   0  0  0  0  0  0  0  0  0  0  0  0
  -20.9482  -23.1693   23.1834 C   0  0  0  0  0  0  0  0  0  0  0  0
  -26.2473  -27.3788   22.9627 C   0  0  0  0  0  0  0  0  0  0  0  0
  -24.2284  -11.9612   21.0303 C   0  0  0  0  0  0  0  0  0  0  0  0
  -28.4873  -26.4473   23.1199 C   0  0  0  0  0  0  0  0  0  0  0  0
  -23.0744   -9.9146   20.9841 C   0  0  0  0  0  0  0  0  0  0  0  0
  -23.1402   -7.1315   20.8042 C   0  0  0  0  0  0  0  0  0  0  0  0
  -23.6158   -9.3014   19.8543 C   0  0  0  0  0  0  0  0  0  0  0  0
  -27.9161  -14.0298   20.8895 C   0  0  0  0  0  0  0  0  0  0  0  0
  -29.9336  -14.7281   20.3634 C   0  0  0  0  0  0  0  0  0  0  0  0
  -29.1042  -12.8502   18.9371 C   0  0  0  0  0  0  0  0  0  0  0  0
  -23.0892  -26.1322   22.6450 C   0  0  0  0  0  0  0  0  0  0  0  0
  -23.0173  -29.3715   22.4891 C   0  0  0  0  0  0  0  0  0  0  0  0
  -30.2495  -23.3944   20.1519 C   0  0  0  0  0  0  0  0  0  0  0  0
  -24.7517  -32.3107   22.4753 C   0  0  0  0  0  0  0  0  0  0  0  0
  -29.6424  -19.9973   23.1259 C   0  0  0  0  0  0  0  0  0  0  0  0
  -18.5666  -23.7691   22.5058 C   0  0  0  0  0  0  0  0  0  0  0  0
  -24.4777  -26.7637   24.6523 C   0  0  0  0  0  0  0  0  0  0  0  0
  -25.2785  -28.2798   22.2430 C   0  0  0  0  0  0  0  0  0  0  0  0
  -19.1537  -25.0398   21.8967 C   0  0  0  0  0  0  0  0  0  0  0  0
  -31.5256  -17.1991   24.1196 C   0  0  0  0  0  0  0  0  0  0  0  0
  -20.5009  -24.7461   21.2445 C   0  0  0  0  0  0  0  0  0  0  0  0
  -30.9065  -16.0378   23.3455 C   0  0  0  0  0  0  0  0  0  0  0  0
  -27.6311  -21.9316   20.6821 C   0  0  0  0  0  0  0  0  0  0  0  0
  -30.4515  -18.1731   24.5859 C   0  0  0  0  0  0  0  0  0  0  0  0
  -28.9978  -17.5820   22.6679 C   0  0  0  0  0  0  0  0  0  0  0  0
  -27.5519  -19.7727   21.6833 C   0  0  0  0  0  0  0  0  0  0  0  0
  -21.5154  -24.2405   22.2773 C   0  0  1  0  0  0  0  0  0  0  0  0
  -23.4569  -27.2198   23.6144 C   0  0  1  0  0  0  0  0  0  0  0  0
  -30.0433  -16.5563   22.1840 C   0  0  2  0  0  0  0  0  0  0  0  0
  -28.8987  -21.7660   21.5307 C   0  0  2  0  0  0  0  0  0  0  0  0
  -26.6309  -20.9425   21.3052 C   0  0  0  0  0  0  0  0  0  0  0  0
  -25.5577  -20.5183   20.3017 C   0  0  0  0  0  0  0  0  0  0  0  0
  -25.9577  -21.5385   22.5521 C   0  0  0  0  0  0  0  0  0  0  0  0
  -24.4216  -34.7919   22.2970 C   0  0  0  0  0  0  0  0  0  0  0  0
  -22.5565  -29.0919   19.4858 C   0  0  0  0  0  0  0  0  0  0  0  0
  -23.1797  -31.5039   19.2362 C   0  0  0  0  0  0  0  0  0  0  0  0
  -21.1844  -30.8668   20.5910 C   0  0  0  0  0  0  0  0  0  0  0  0
  -25.9160  -32.7751   25.1563 C   0  0  0  0  0  0  0  0  0  0  0  0
  -30.1640  -21.9889   20.7118 C   0  0  0  0  0  0  0  0  0  0  0  0
  -31.0962  -25.6556   20.7631 C   0  0  0  0  0  0  0  0  0  0  0  0
  -29.9351  -26.5129   21.2342 C   0  0  0  0  0  0  0  0  0  1  0  0
  -23.4981  -30.4052   21.4995 C   0  0  1  0  0  0  0  0  0  0  0  0
  -24.5454  -33.6055   23.2403 C   0  0  2  0  0  0  0  0  0  0  0  0
  -22.6227  -30.4486   20.2153 C   0  0  0  0  0  0  0  0  0  0  0  0
  -28.1648  -15.0165   21.7547 N   0  0  0  0  0  0  0  0  0  0  0  0
  -29.3991  -15.4208   21.4096 N   0  0  0  0  0  0  0  0  0  0  0  0
  -23.9269  -28.3576   22.8215 N   0  0  0  0  0  0  0  0  0  0  0  0
  -29.6264  -18.6399   23.4707 N   0  0  0  0  0  0  0  0  0  0  0  0
  -28.8144  -20.4064   22.0770 N   0  0  0  0  0  0  0  0  0  0  0  0
  -31.1662  -15.0056   19.8879 N   0  0  0  0  0  0  0  0  0  0  0  0
  -28.0336  -11.9779   18.6980 N   0  0  0  0  0  0  0  0  0  0  0  0
  -22.0331  -25.3431   23.0589 N   0  0  0  0  0  0  0  0  0  0  0  0
  -30.8770  -24.2546   21.0412 N   0  0  0  0  0  0  0  0  0  0  0  0
  -23.5569  -31.6692   22.2256 N   0  0  0  0  0  0  0  0  0  0  0  0
  -25.6928  -33.8530   24.1586 N   0  3  0  0  0  0  0  0  0  0  0  0
  -30.1380  -12.7611   18.2321 O   0  0  0  0  0  0  0  0  0  0  0  0
  -23.7162  -26.0185   21.5983 O   0  0  0  0  0  0  0  0  0  0  0  0
  -21.8791  -29.4644   22.9556 O   0  0  0  0  0  0  0  0  0  0  0  0
  -29.8143  -23.7092   19.0475 O   0  0  0  0  0  0  0  0  0  0  0  0
  -25.8612  -31.9103   22.1303 O   0  0  0  0  0  0  0  0  0  0  0  0
  -30.3403  -20.8111   23.7450 O   0  0  0  0  0  0  0  0  0  0  0  0
  -23.0418  -11.2960   21.0753 O   0  0  0  0  0  0  0  0  0  0  0  0
  -29.7659  -26.3495   22.6365 O   0  0  0  0  0  0  0  0  0  1  0  0
  -23.1731   -5.7951   20.7186 F   0  0  0  0  0  0  0  0  0  0  0  0
  -24.1068  -10.0438   18.8526 F   0  0  0  0  0  0  0  0  0  0  0  0
  1  2  1  0  0  0  0
  1  5  2  0  0  0  0
  2  6  2  0  0  0  0
  3  8  2  0  0  0  0
  3 15  1  0  0  0  0
  4  9  1  0  0  0  0
  4 15  2  0  0  0  0
  5 17  1  0  0  0  0
  6 19  1  0  0  0  0
  7 10  2  0  0  0  0
  7 18  1  0  0  0  0
  8 21  1  0  0  0  0
  9 21  2  0  0  0  0
 10 22  1  0  0  0  0
 11 12  2  0  0  0  0
 11 23  1  0  0  0  0
 12 24  1  0  0  0  0
 13 20  1  0  0  0  0
 13 22  2  0  0  0  0
 14 24  2  0  0  0  0
 14 25  1  0  0  0  0
 15 26  1  0  0  0  0
 16 26  1  0  0  0  0
 16 27  2  0  0  0  0
 16 28  1  0  0  0  0
 17 19  2  0  0  0  0
 17 34  1  0  0  0  0
 18 20  2  0  0  0  0
 18 35  1  0  0  0  0
 19 45  1  0  0  0  0
 20 36  1  0  0  0  0
 21 80  1  0  0  0  0
 22 81  1  0  0  0  0
 23 25  2  0  0  0  0
 23 80  1  0  0  0  0
 24 82  1  0  0  0  0
 25 83  1  0  0  0  0
 26 63  2  0  0  0  0
 27 64  1  0  0  0  0
 27 68  1  0  0  0  0
 28 69  1  0  0  0  0
 28 74  2  0  0  0  0
 29 46  1  0  0  0  0
 29 70  1  0  0  0  0
 29 75  2  0  0  0  0
 30 60  1  0  0  0  0
 30 65  1  0  0  0  0
 30 76  2  0  0  0  0
 31 57  1  0  0  0  0
 31 71  1  0  0  0  0
 31 77  2  0  0  0  0
 32 61  1  0  0  0  0
 32 72  1  0  0  0  0
 32 78  2  0  0  0  0
 33 66  1  0  0  0  0
 33 67  1  0  0  0  0
 33 79  2  0  0  0  0
 34 37  1  0  0  0  0
 35 46  1  0  0  0  0
 36 65  1  0  0  0  0
 37 39  1  0  0  0  0
 38 40  1  0  0  0  0
 38 42  1  0  0  0  0
 39 45  1  0  0  0  0
 40 47  1  0  0  0  0
 41 48  1  0  0  0  0
 41 49  1  0  0  0  0
 42 66  1  0  0  0  0
 43 47  1  0  0  0  0
 43 66  1  0  0  0  0
 44 49  1  0  0  0  0
 44 67  1  0  0  0  0
 45 70  1  0  0  0  0
 46 65  1  0  0  0  0
 47 64  1  0  0  0  0
 48 57  1  0  0  0  0
 48 67  1  0  0  0  0
 49 50  1  0  0  0  0
 49 51  1  0  0  0  0
 52 61  1  0  0  0  0
 53 62  1  0  0  0  0
 54 62  1  0  0  0  0
 55 62  1  0  0  0  0
 56 73  1  0  0  0  0
 58 59  1  0  0  0  0
 58 71  1  0  0  0  0
 59 81  1  0  0  0  0
 60 62  1  0  0  0  0
 60 72  1  0  0  0  0
 61 73  1  0  0  0  0
 63 64  1  0  0  0  0
M  CHG  1  73   1
M  ISO  4  33 100  59 101  67 100  81 101
M  END
> <Batch ID>
0176

> <Smiles>
CNC(C)C(=O)NC(C(=O)N1Cc2cc([101O:1][101CH2:1]CNC(=O)CC3CC(C)(C)C[100N:0]3[100C:0](=O)N3CCCC(n4nc(-c5ccc(Oc6ccc(F)cc6F)cc5)c(C(N)=O)c4N)C3)ccc2CC1C(=O)NC1CCCc2ccccc21)C(C)(C)C

> <Shape>
0.259

> <Color>
0.064

> <Negative vol penalty>
0.000

$$$$

  -OEChem-04052322503D

 82 91  0     1  0  0  0  0  0999 V2000
  -26.9672  -35.1349   16.3593 C   0  0  0  0  0  0  0  0  0  0  0  0
  -27.2877  -33.8378   15.9716 C   0  0  0  0  0  0  0  0  0  0  0  0
  -22.6847  -16.1226   21.3535 C   0  0  0  0  0  0  0  0  0  0  0  0
  -22.0720  -14.9427   19.3363 C   0  0  0  0  0  0  0  0  0  0  0  0
  -26.9756  -35.4796   17.7102 C   0  0  0  0  0  0  0  0  0  0  0  0
  -27.6178  -32.8849   16.9346 C   0  0  0  0  0  0  0  0  0  0  0  0
  -27.0746  -25.8659   18.2594 C   0  0  0  0  0  0  0  0  0  0  0  0
  -21.5408  -16.9126   21.2389 C   0  0  0  0  0  0  0  0  0  0  0  0
  -20.9281  -15.7326   19.2216 C   0  0  0  0  0  0  0  0  0  0  0  0
  -27.8636  -24.7726   18.6143 C   0  0  0  0  0  0  0  0  0  0  0  0
  -18.9672  -19.4813   21.2787 C   0  0  0  0  0  0  0  0  0  0  0  0
  -19.1029  -20.8549   21.4802 C   0  0  0  0  0  0  0  0  0  0  0  0
  -32.1976  -20.6371   20.7590 C   0  0  0  0  0  0  0  0  0  0  0  0
  -27.7680  -25.4611   20.9243 C   0  0  0  0  0  0  0  0  0  0  0  0
  -20.6694  -20.9693   19.6443 C   0  0  0  0  0  0  0  0  0  0  0  0
  -22.9503  -15.1377   20.4022 C   0  0  0  0  0  0  0  0  0  0  0  0
  -24.2539  -13.0952   21.1999 C   0  0  0  0  0  0  0  0  0  0  0  0
  -27.2966  -34.5279   18.6910 C   0  0  0  0  0  0  0  0  0  0  0  0
  -26.6348  -26.7726   19.2345 C   0  0  0  0  0  0  0  0  0  0  0  0
  -27.6318  -33.2176   18.2999 C   0  0  0  0  0  0  0  0  0  0  0  0
  -31.5792  -19.3887   20.8610 C   0  0  0  0  0  0  0  0  0  0  0  0
  -26.9715  -26.5637   20.5795 C   0  0  0  0  0  0  0  0  0  0  0  0
  -31.5007  -21.7183   20.2342 C   0  0  0  0  0  0  0  0  0  0  0  0
  -20.6625  -16.7176   20.1730 C   0  0  0  0  0  0  0  0  0  0  0  0
  -28.2128  -24.5717   19.9465 C   0  0  0  0  0  0  0  0  0  0  0  0
  -19.6826  -18.8517   20.2601 C   0  0  0  0  0  0  0  0  0  0  0  0
  -19.9540  -21.5988   20.6630 C   0  0  0  0  0  0  0  0  0  0  0  0
  -20.5336  -19.5957   19.4429 C   0  0  0  0  0  0  0  0  0  0  0  0
  -24.1320  -14.3217   20.5197 C   0  0  0  0  0  0  0  0  0  0  0  0
  -30.2638  -19.2709   20.3988 C   0  0  0  0  0  0  0  0  0  0  0  0
  -30.1987  -21.5076   19.8188 C   0  0  0  0  0  0  0  0  0  0  0  0
  -25.5647  -12.7289   21.0150 C   0  0  0  0  0  0  0  0  0  0  0  0
  -23.2703  -12.3533   21.9331 C   0  0  0  0  0  0  0  0  0  0  0  0
  -27.0700  -29.8752   19.7716 C   0  0  0  0  0  0  0  0  0  0  0  0
  -24.8876  -29.3771   22.1192 C   0  0  0  0  0  0  0  0  0  0  0  0
  -23.3816  -27.1845   24.2572 C   0  0  0  0  0  0  0  0  0  0  0  0
  -30.5477  -15.6919   19.9521 C   0  0  0  0  0  0  0  0  0  0  0  0
  -27.3383  -34.9598   20.1355 C   0  0  0  0  0  0  0  0  0  0  0  0
  -25.7621  -27.9321   18.8389 C   0  0  0  0  0  0  0  0  0  0  0  0
  -32.3360  -18.2042   21.3971 C   0  0  0  0  0  0  0  0  0  0  0  0
  -26.5078  -27.4967   21.6672 C   0  0  0  0  0  0  0  0  0  0  0  0
  -29.5241  -17.9564   20.4804 C   0  0  0  0  0  0  0  0  0  0  0  0
  -27.3346  -33.7934   21.1203 C   0  0  0  0  0  0  0  0  0  0  0  0
  -29.1970  -13.1968   17.9505 C   0  0  0  0  0  0  0  0  0  0  0  0
  -28.3368  -32.7274   20.6891 C   0  0  0  0  0  0  0  0  0  0  0  0
  -27.7532  -13.0772   18.4361 C   0  0  0  0  0  0  0  0  0  0  0  0
  -31.3996  -17.0760   21.8180 C   0  0  0  0  0  0  0  0  0  0  0  0
  -29.6346  -14.6557   17.8982 C   0  0  0  0  0  0  0  0  0  0  0  0
  -28.0579  -15.2611   19.7066 C   0  0  0  0  0  0  0  0  0  0  0  0
  -27.9712  -32.1493   19.3167 C   0  0  1  0  0  0  0  0  0  0  0  0
  -25.7985  -29.0780   19.8454 C   0  0  1  0  0  0  0  0  0  0  0  0
  -27.5621  -13.8024   19.7796 C   0  0  1  0  0  0  0  0  0  0  0  0
  -32.1596  -23.0503   20.1318 C   0  0  0  0  0  0  0  0  0  0  0  0
  -21.6629  -27.0789   26.0827 C   0  0  0  0  0  0  0  0  0  0  0  0
  -26.8802  -30.6251   24.0640 C   0  0  0  0  0  0  0  0  0  0  0  0
  -25.5508  -29.6455   25.9458 C   0  0  0  0  0  0  0  0  0  0  0  0
  -24.5032  -31.3168   24.4188 C   0  0  0  0  0  0  0  0  0  0  0  0
  -21.6858  -25.3153   22.7114 C   0  0  0  0  0  0  0  0  0  0  0  0
  -29.3995  -22.6328   19.2476 C   0  0  0  0  0  0  0  0  0  1  0  0
  -24.9541  -28.9772   23.5734 C   0  0  1  0  0  0  0  0  0  0  0  0
  -21.9199  -26.9449   24.5898 C   0  0  2  0  0  0  0  0  0  0  0  0
  -25.4826  -30.1245   24.4800 C   0  0  0  0  0  0  0  0  0  0  0  0
  -25.2742  -14.7088   19.9458 N   0  0  0  0  0  0  0  0  0  0  0  0
  -29.5651  -20.3161   19.8889 N   0  0  0  0  0  0  0  0  0  0  0  0
  -26.1264  -13.7198   20.2649 N   0  0  0  0  0  0  0  0  0  0  0  0
  -25.6619  -28.6193   21.2293 N   0  0  0  0  0  0  0  0  0  0  0  0
  -30.4109  -16.8214   20.7726 N   0  0  0  0  0  0  0  0  0  0  0  0
  -29.4333  -15.3160   19.1882 N   0  0  0  0  0  0  0  0  0  0  0  0
  -26.2801  -11.6591   21.4226 N   0  0  0  0  0  0  0  0  0  0  0  0
  -21.9720  -12.8733   22.0242 N   0  0  0  0  0  0  0  0  0  0  0  0
  -26.8827  -31.2036   19.4403 N   0  0  0  0  0  0  0  0  0  0  0  0
  -23.6211  -28.5017   23.9274 N   0  0  0  0  0  0  0  0  0  0  0  0
  -21.5089  -25.5775   24.1629 N   0  3  0  0  0  0  0  0  0  0  0  0
  -23.5390  -11.2696   22.5049 O   0  0  0  0  0  0  0  0  0  0  0  0
  -28.1415  -29.3261   19.9997 O   0  0  0  0  0  0  0  0  0  0  0  0
  -24.1694  -30.3225   21.7843 O   0  0  0  0  0  0  0  0  0  0  0  0
  -24.2271  -26.2930   24.2905 O   0  0  0  0  0  0  0  0  0  0  0  0
  -31.6100  -15.0590   19.8988 O   0  0  0  0  0  0  0  0  0  0  0  0
  -19.5461  -17.4881   20.0609 O   0  0  0  0  0  0  0  0  0  0  0  0
  -28.9889  -23.4981   20.2980 O   0  0  0  0  0  0  0  0  0  1  0  0
  -20.0831  -22.9181   20.8555 F   0  0  0  0  0  0  0  0  0  0  0  0
  -21.2226  -18.9966   18.4620 F   0  0  0  0  0  0  0  0  0  0  0  0
  1  2  1  0  0  0  0
  1  5  2  0  0  0  0
  2  6  2  0  0  0  0
  3  8  2  0  0  0  0
  3 16  1  0  0  0  0
  4  9  1  0  0  0  0
  4 16  2  0  0  0  0
  5 18  1  0  0  0  0
  6 20  1  0  0  0  0
  7 10  2  0  0  0  0
  7 19  1  0  0  0  0
  8 24  1  0  0  0  0
  9 24  2  0  0  0  0
 10 25  1  0  0  0  0
 11 12  2  0  0  0  0
 11 26  1  0  0  0  0
 12 27  1  0  0  0  0
 13 21  2  0  0  0  0
 13 23  1  0  0  0  0
 14 22  1  0  0  0  0
 14 25  2  0  0  0  0
 15 27  2  0  0  0  0
 15 28  1  0  0  0  0
 16 29  1  0  0  0  0
 17 29  1  0  0  0  0
 17 32  2  0  0  0  0
 17 33  1  0  0  0  0
 18 20  2  0  0  0  0
 18 38  1  0  0  0  0
 19 22  2  0  0  0  0
 19 39  1  0  0  0  0
 20 50  1  0  0  0  0
 21 30  1  0  0  0  0
 21 40  1  0  0  0  0
 22 41  1  0  0  0  0
 23 31  2  0  0  0  0
 23 53  1  0  0  0  0
 24 79  1  0  0  0  0
 25 80  1  0  0  0  0
 26 28  2  0  0  0  0
 26 79  1  0  0  0  0
 27 81  1  0  0  0  0
 28 82  1  0  0  0  0
 29 63  2  0  0  0  0
 30 42  1  0  0  0  0
 30 64  2  0  0  0  0
 31 59  1  0  0  0  0
 31 64  1  0  0  0  0
 32 65  1  0  0  0  0
 32 69  1  0  0  0  0
 33 70  1  0  0  0  0
 33 74  2  0  0  0  0
 34 51  1  0  0  0  0
 34 71  1  0  0  0  0
 34 75  2  0  0  0  0
 35 60  1  0  0  0  0
 35 66  1  0  0  0  0
 35 76  2  0  0  0  0
 36 61  1  0  0  0  0
 36 72  1  0  0  0  0
 36 77  2  0  0  0  0
 37 67  1  0  0  0  0
 37 68  1  0  0  0  0
 37 78  2  0  0  0  0
 38 43  1  0  0  0  0
 39 51  1  0  0  0  0
 40 47  1  0  0  0  0
 41 66  1  0  0  0  0
 42 67  1  0  0  0  0
 43 45  1  0  0  0  0
 44 46  1  0  0  0  0
 44 48  1  0  0  0  0
 45 50  1  0  0  0  0
 46 52  1  0  0  0  0
 47 67  1  0  0  0  0
 48 68  1  0  0  0  0
 49 52  1  0  0  0  0
 49 68  1  0  0  0  0
 50 71  1  0  0  0  0
 51 66  1  0  0  0  0
 52 65  1  0  0  0  0
 54 61  1  0  0  0  0
 55 62  1  0  0  0  0
 56 62  1  0  0  0  0
 57 62  1  0  0  0  0
 58 73  1  0  0  0  0
 59 80  1  0  0  0  0
 60 62  1  0  0  0  0
 60 72  1  0  0  0  0
 61 73  1  0  0  0  0
 63 65  1  0  0  0  0
M  CHG  1  73   1
M  ISO  4  37 100  59 101  67 100  80 101
M  END
> <Batch ID>
0176

> <Smiles>
CNC(C)C(=O)NC(C(=O)N1Cc2cc([101O:1][101CH2:1]c3nc4c(cc3C)CC[100N:0]([100C:0](=O)N3CCCC(n5nc(-c6ccc(Oc7ccc(F)cc7F)cc6)c(C(N)=O)c5N)C3)C4)ccc2CC1C(=O)NC1CCCc2ccccc21)C(C)(C)C

> <Shape>
0.210

> <Color>
0.102

> <Negative vol penalty>
0.000

$$$$

  -OEChem-04052322503D

 85 93  0     1  0  0  0  0  0999 V2000
  -25.4149  -37.6696   20.1786 C   0  0  0  0  0  0  0  0  0  0  0  0
  -26.1302  -36.5284   19.8299 C   0  0  0  0  0  0  0  0  0  0  0  0
  -26.8189  -12.2887   21.8241 C   0  0  0  0  0  0  0  0  0  0  0  0
  -26.0818  -14.0080   20.2951 C   0  0  0  0  0  0  0  0  0  0  0  0
  -24.6458  -37.6805   21.3415 C   0  0  0  0  0  0  0  0  0  0  0  0
  -26.0775  -35.3979   20.6444 C   0  0  0  0  0  0  0  0  0  0  0  0
  -26.2359  -29.5483   18.8379 C   0  0  0  0  0  0  0  0  0  0  0  0
  -25.5218  -11.7783   21.8755 C   0  0  0  0  0  0  0  0  0  0  0  0
  -24.7847  -13.4976   20.3465 C   0  0  0  0  0  0  0  0  0  0  0  0
  -27.2671  -28.6118   18.7808 C   0  0  0  0  0  0  0  0  0  0  0  0
  -23.5292   -9.8409   19.9497 C   0  0  0  0  0  0  0  0  0  0  0  0
  -23.3721   -8.4586   19.8487 C   0  0  0  0  0  0  0  0  0  0  0  0
  -26.5873  -27.7415   20.9255 C   0  0  0  0  0  0  0  0  0  0  0  0
  -22.3222   -8.4191   22.0243 C   0  0  0  0  0  0  0  0  0  0  0  0
  -27.0989  -13.4036   21.0340 C   0  0  0  0  0  0  0  0  0  0  0  0
  -29.4597  -13.5703   20.0819 C   0  0  0  0  0  0  0  0  0  0  0  0
  -24.5759  -36.5463   22.1656 C   0  0  0  0  0  0  0  0  0  0  0  0
  -25.3778  -29.5956   19.9460 C   0  0  0  0  0  0  0  0  0  0  0  0
  -25.3077  -35.3941   21.8201 C   0  0  0  0  0  0  0  0  0  0  0  0
  -25.5443  -28.6778   20.9930 C   0  0  0  0  0  0  0  0  0  0  0  0
  -24.5047  -12.3827   21.1367 C   0  0  0  0  0  0  0  0  0  0  0  0
  -27.4448  -27.7101   19.8260 C   0  0  0  0  0  0  0  0  0  0  0  0
  -23.0829  -10.5123   21.0880 C   0  0  0  0  0  0  0  0  0  0  0  0
  -22.7686   -7.7477   20.8860 C   0  0  0  0  0  0  0  0  0  0  0  0
  -22.4794   -9.8013   22.1253 C   0  0  0  0  0  0  0  0  0  0  0  0
  -28.4385  -13.9317   20.9809 C   0  0  0  0  0  0  0  0  0  0  0  0
  -30.5290  -14.3524   20.4445 C   0  0  0  0  0  0  0  0  0  0  0  0
  -29.4808  -23.7614   19.9592 C   0  0  0  0  0  0  0  0  0  0  0  0
  -29.4432  -12.6133   19.0144 C   0  0  0  0  0  0  0  0  0  0  0  0
  -24.7002  -31.7660   22.1673 C   0  0  0  0  0  0  0  0  0  0  0  0
  -22.4485  -29.6005   23.0406 C   0  0  0  0  0  0  0  0  0  0  0  0
  -21.4065  -26.3508   23.0573 C   0  0  0  0  0  0  0  0  0  0  0  0
  -30.9587  -19.6271   23.2451 C   0  0  0  0  0  0  0  0  0  0  0  0
  -23.7687  -36.6216   23.4374 C   0  0  0  0  0  0  0  0  0  0  0  0
  -24.2537  -30.5943   19.9801 C   0  0  0  0  0  0  0  0  0  0  0  0
  -24.6377  -28.6738   22.1957 C   0  0  0  0  0  0  0  0  0  0  0  0
  -23.4681  -35.2560   24.0498 C   0  0  0  0  0  0  0  0  0  0  0  0
  -32.4460  -16.5484   24.2383 C   0  0  0  0  0  0  0  0  0  0  0  0
  -24.7277  -34.3961   24.0813 C   0  0  0  0  0  0  0  0  0  0  0  0
  -31.6797  -15.4961   23.4350 C   0  0  0  0  0  0  0  0  0  0  0  0
  -31.5369  -17.6929   24.6808 C   0  0  0  0  0  0  0  0  0  0  0  0
  -30.0108  -17.2840   22.7894 C   0  0  0  0  0  0  0  0  0  0  0  0
  -25.2562  -34.1396   22.6649 C   0  0  1  0  0  0  0  0  0  0  0  0
  -30.8459  -23.1167   19.8664 C   0  0  2  0  0  0  0  0  0  0  0  0
  -23.7582  -30.8883   21.3927 C   0  0  1  0  0  0  0  0  0  0  0  0
  -30.8972  -16.1376   22.2733 C   0  0  2  0  0  0  0  0  0  0  0  0
  -31.0297  -25.2386   20.9821 C   0  0  1  0  0  0  0  0  0  0  0  0
  -19.5448  -24.8832   23.8805 C   0  0  0  0  0  0  0  0  0  0  0  0
  -33.0177  -26.7511   20.7291 C   0  0  0  0  0  0  0  0  0  0  0  0
  -31.9860  -25.6841   18.7040 C   0  0  0  0  0  0  0  0  0  0  0  0
  -32.2979  -21.1162   20.2490 C   0  0  0  0  0  0  0  0  0  0  0  0
  -30.0193  -20.8235   19.2657 C   0  0  0  0  0  0  0  0  0  0  0  0
  -23.5958  -29.7332   25.8648 C   0  0  0  0  0  0  0  0  0  0  0  0
  -22.3695  -27.6140   26.3876 C   0  0  0  0  0  0  0  0  0  0  0  0
  -21.0982  -29.6651   25.7556 C   0  0  0  0  0  0  0  0  0  0  0  0
  -20.6722  -25.5420   20.3068 C   0  0  0  0  0  0  0  0  0  0  0  0
  -30.2982  -21.4616   21.7096 C   0  0  0  0  0  0  0  0  0  0  0  0
  -28.5747  -25.9030   20.8778 C   0  0  0  0  0  0  0  0  0  1  0  0
  -22.4068  -28.4230   23.9845 C   0  0  1  0  0  0  0  0  0  0  0  0
  -20.0663  -25.7210   22.7233 C   0  0  2  0  0  0  0  0  0  0  0  0
  -31.7148  -26.2638   20.0930 C   0  0  0  0  0  0  0  0  0  0  0  0
  -30.8481  -21.6578   20.2698 C   0  0  0  0  0  0  0  0  0  0  0  0
  -22.3860  -28.8599   25.4765 C   0  0  0  0  0  0  0  0  0  0  0  0
  -28.8244  -14.8702   21.8494 N   0  0  0  0  0  0  0  0  0  0  0  0
  -30.1000  -15.1051   21.4978 N   0  0  0  0  0  0  0  0  0  0  0  0
  -29.6495  -24.9896   20.6093 N   0  0  0  0  0  0  0  0  0  0  0  0
  -23.5571  -29.6736   22.1854 N   0  0  0  0  0  0  0  0  0  0  0  0
  -30.8252  -18.2586   23.5321 N   0  0  0  0  0  0  0  0  0  0  0  0
  -31.7849  -14.4627   19.9619 N   0  0  0  0  0  0  0  0  0  0  0  0
  -28.2625  -11.8960   18.7782 N   0  0  0  0  0  0  0  0  0  0  0  0
  -24.4678  -33.1188   22.0084 N   0  0  0  0  0  0  0  0  0  0  0  0
  -21.2591  -27.6175   23.5817 N   0  0  0  0  0  0  0  0  0  0  0  0
  -30.2558  -20.0804   22.1355 N   0  0  0  0  0  0  0  0  0  0  0  0
  -31.7034  -23.9101   20.8088 N   0  3  0  0  0  0  0  0  0  0  0  0
  -20.1908  -24.8426   21.5259 N   0  3  0  0  0  0  0  0  0  0  0  0
  -28.4460  -23.2843   19.5182 O   0  0  0  0  0  0  0  0  0  0  0  0
  -30.4509  -12.3887   18.3018 O   0  0  0  0  0  0  0  0  0  0  0  0
  -25.5724  -31.2537   22.8591 O   0  0  0  0  0  0  0  0  0  0  0  0
  -21.5277  -30.4212   23.0565 O   0  0  0  0  0  0  0  0  0  0  0  0
  -22.4770  -25.7751   22.8750 O   0  0  0  0  0  0  0  0  0  0  0  0
  -31.6571  -20.3875   23.9241 O   0  0  0  0  0  0  0  0  0  0  0  0
  -23.2390  -11.8847   21.1864 O   0  0  0  0  0  0  0  0  0  0  0  0
  -28.4510  -26.7954   19.7732 O   0  0  0  0  0  0  0  0  0  1  0  0
  -22.6163   -6.4205   20.7882 F   0  0  0  0  0  0  0  0  0  0  0  0
  -22.0476  -10.4410   23.2208 F   0  0  0  0  0  0  0  0  0  0  0  0
  1  2  1  0  0  0  0
  1  5  2  0  0  0  0
  2  6  2  0  0  0  0
  3  8  2  0  0  0  0
  3 15  1  0  0  0  0
  4  9  1  0  0  0  0
  4 15  2  0  0  0  0
  5 17  1  0  0  0  0
  6 19  1  0  0  0  0
  7 10  2  0  0  0  0
  7 18  1  0  0  0  0
  8 21  1  0  0  0  0
  9 21  2  0  0  0  0
 10 22  1  0  0  0  0
 11 12  2  0  0  0  0
 11 23  1  0  0  0  0
 12 24  1  0  0  0  0
 13 20  1  0  0  0  0
 13 22  2  0  0  0  0
 14 24  2  0  0  0  0
 14 25  1  0  0  0  0
 15 26  1  0  0  0  0
 16 26  1  0  0  0  0
 16 27  2  0  0  0  0
 16 29  1  0  0  0  0
 17 19  2  0  0  0  0
 17 34  1  0  0  0  0
 18 20  2  0  0  0  0
 18 35  1  0  0  0  0
 19 43  1  0  0  0  0
 20 36  1  0  0  0  0
 21 82  1  0  0  0  0
 22 83  1  0  0  0  0
 23 25  2  0  0  0  0
 23 82  1  0  0  0  0
 24 84  1  0  0  0  0
 25 85  1  0  0  0  0
 26 64  2  0  0  0  0
 27 65  1  0  0  0  0
 27 69  1  0  0  0  0
 28 44  1  0  0  0  0
 28 66  1  0  0  0  0
 28 76  2  0  0  0  0
 29 70  1  0  0  0  0
 29 77  2  0  0  0  0
 30 45  1  0  0  0  0
 30 71  1  0  0  0  0
 30 78  2  0  0  0  0
 31 59  1  0  0  0  0
 31 67  1  0  0  0  0
 31 79  2  0  0  0  0
 32 60  1  0  0  0  0
 32 72  1  0  0  0  0
 32 80  2  0  0  0  0
 33 68  1  0  0  0  0
 33 73  1  0  0  0  0
 33 81  2  0  0  0  0
 34 37  1  0  0  0  0
 35 45  1  0  0  0  0
 36 67  1  0  0  0  0
 37 39  1  0  0  0  0
 38 40  1  0  0  0  0
 38 41  1  0  0  0  0
 39 43  1  0  0  0  0
 40 46  1  0  0  0  0
 41 68  1  0  0  0  0
 42 46  1  0  0  0  0
 42 68  1  0  0  0  0
 43 71  1  0  0  0  0
 44 62  1  0  0  0  0
 44 74  1  0  0  0  0
 45 67  1  0  0  0  0
 46 65  1  0  0  0  0
 47 61  1  0  0  0  0
 47 66  1  0  0  0  0
 47 74  1  0  0  0  0
 48 60  1  0  0  0  0
 49 61  1  0  0  0  0
 50 61  1  0  0  0  0
 51 62  1  0  0  0  0
 52 62  1  0  0  0  0
 53 63  1  0  0  0  0
 54 63  1  0  0  0  0
 55 63  1  0  0  0  0
 56 75  1  0  0  0  0
 57 62  1  0  0  0  0
 57 73  1  0  0  0  0
 58 66  1  0  0  0  0
 58 83  1  0  0  0  0
 59 63  1  0  0  0  0
 59 72  1  0  0  0  0
 60 75  1  0  0  0  0
 64 65  1  0  0  0  0
M  CHG  2  74   1  75   1
M  ISO  4  33 100  58 101  73 100  83 101
M  END
> <Batch ID>
0176

> <Smiles>
CNC(C)C(=O)NC(C(=O)N1Cc2cc([101O:1][101CH2:1]N3C(=O)C(C(C)(C)C[100NH:0][100C:0](=O)N4CCCC(n5nc(-c6ccc(Oc7ccc(F)cc7F)cc6)c(C(N)=O)c5N)C4)NC3C(C)C)ccc2CC1C(=O)NC1CCCc2ccccc21)C(C)(C)C

> <Shape>
0.321

> <Color>
0.099

> <Negative vol penalty>
0.000

$$$$

  -OEChem-04052322503D

 82 91  0     1  0  0  0  0  0999 V2000
  -16.7861  -19.6649    7.3413 C   0  0  0  0  0  0  0  0  0  0  0  0
  -17.8548  -19.6993    8.2313 C   0  0  0  0  0  0  0  0  0  0  0  0
  -23.2882   -9.7950   19.9078 C   0  0  0  0  0  0  0  0  0  0  0  0
  -23.7154   -9.9372   22.2814 C   0  0  0  0  0  0  0  0  0  0  0  0
  -15.5200  -19.2891    7.7882 C   0  0  0  0  0  0  0  0  0  0  0  0
  -17.6578  -19.3588    9.5690 C   0  0  0  0  0  0  0  0  0  0  0  0
  -21.2834  -16.3050   11.3507 C   0  0  0  0  0  0  0  0  0  0  0  0
  -22.5548   -8.6259   20.1097 C   0  0  0  0  0  0  0  0  0  0  0  0
  -22.9820   -8.7681   22.4834 C   0  0  0  0  0  0  0  0  0  0  0  0
  -22.5022  -16.8925   11.6872 C   0  0  0  0  0  0  0  0  0  0  0  0
  -19.7291   -7.8711   22.6690 C   0  0  0  0  0  0  0  0  0  0  0  0
  -18.8158   -7.8548   23.7232 C   0  0  0  0  0  0  0  0  0  0  0  0
  -28.5222  -16.7804   17.8815 C   0  0  0  0  0  0  0  0  0  0  0  0
  -21.8608  -16.8768   14.0126 C   0  0  0  0  0  0  0  0  0  0  0  0
  -20.0036   -6.0039   24.7235 C   0  0  0  0  0  0  0  0  0  0  0  0
  -23.8686  -10.4507   20.9936 C   0  0  0  0  0  0  0  0  0  0  0  0
  -28.9184  -15.6926   17.1114 C   0  0  0  0  0  0  0  0  0  0  0  0
  -24.1407  -12.9793   20.7941 C   0  0  0  0  0  0  0  0  0  0  0  0
  -15.3094  -18.9345    9.1300 C   0  0  0  0  0  0  0  0  0  0  0  0
  -20.3381  -16.0085   12.3431 C   0  0  0  0  0  0  0  0  0  0  0  0
  -16.3874  -18.9791   10.0346 C   0  0  0  0  0  0  0  0  0  0  0  0
  -20.6319  -16.2832   13.6864 C   0  0  0  0  0  0  0  0  0  0  0  0
  -28.3792  -15.5131   15.8423 C   0  0  0  0  0  0  0  0  0  0  0  0
  -22.4016   -8.1124   21.3976 C   0  0  0  0  0  0  0  0  0  0  0  0
  -22.7899  -17.1811   13.0180 C   0  0  0  0  0  0  0  0  0  0  0  0
  -20.7795   -6.9538   22.6420 C   0  0  0  0  0  0  0  0  0  0  0  0
  -18.9531   -6.9212   24.7504 C   0  0  0  0  0  0  0  0  0  0  0  0
  -20.9168   -6.0202   23.6692 C   0  0  0  0  0  0  0  0  0  0  0  0
  -24.6268  -11.6581   20.7855 C   0  0  0  0  0  0  0  0  0  0  0  0
  -27.4547  -16.4423   15.3932 C   0  0  0  0  0  0  0  0  0  0  0  0
  -27.5913  -17.6529   17.3411 C   0  0  0  0  0  0  0  0  0  0  0  0
  -25.2480  -13.7541   20.5492 C   0  0  0  0  0  0  0  0  0  0  0  0
  -29.9039  -14.7533   17.6622 C   0  0  0  0  0  0  0  0  0  0  0  0
  -22.8075  -13.4628   21.0046 C   0  0  0  0  0  0  0  0  0  0  0  0
  -17.3669  -16.9518   12.9644 C   0  0  0  0  0  0  0  0  0  0  0  0
  -17.5431  -14.6787   15.2719 C   0  0  0  0  0  0  0  0  0  0  0  0
  -19.4986  -12.7899   17.3348 C   0  0  0  0  0  0  0  0  0  0  0  0
  -13.9131  -18.5805    9.5768 C   0  0  0  0  0  0  0  0  0  0  0  0
  -19.0391  -15.3504   11.9667 C   0  0  0  0  0  0  0  0  0  0  0  0
  -19.6593  -15.9659   14.7918 C   0  0  0  0  0  0  0  0  0  0  0  0
  -13.8670  -17.8732   10.9288 C   0  0  0  0  0  0  0  0  0  0  0  0
  -30.1633  -12.5660   20.4711 C   0  0  0  0  0  0  0  0  0  0  0  0
  -14.7532  -18.5948   11.9392 C   0  0  0  0  0  0  0  0  0  0  0  0
  -28.7074  -12.2257   20.7945 C   0  0  0  0  0  0  0  0  0  0  0  0
  -27.5908  -16.8308   12.8406 C   0  0  0  0  0  0  0  0  0  0  0  0
  -30.3876  -12.7111   18.9681 C   0  0  0  0  0  0  0  0  0  0  0  0
  -28.0206  -13.3307   18.6248 C   0  0  0  0  0  0  0  0  0  0  0  0
  -16.2188  -18.5928   11.4881 C   0  0  1  0  0  0  0  0  0  0  0  0
  -26.8521  -16.2922   14.0467 C   0  0  2  0  0  0  0  0  0  0  0  0
  -17.9393  -15.5630   13.0024 C   0  0  1  0  0  0  0  0  0  0  0  0
  -26.3499  -17.5229   13.3206 C   0  0  2  0  0  0  0  0  0  0  0  0
  -27.7406  -13.2257   20.1329 C   0  0  1  0  0  0  0  0  0  0  0  0
  -28.7858  -14.3547   14.9932 C   0  0  0  0  0  0  0  0  0  0  0  0
  -27.1428  -18.8312   18.1396 C   0  0  0  0  0  0  0  0  0  0  0  0
  -19.3544  -11.0486   19.1359 C   0  0  0  0  0  0  0  0  0  0  0  0
  -16.6949  -16.8212   17.2719 C   0  0  0  0  0  0  0  0  0  0  0  0
  -17.4790  -15.3152   19.1118 C   0  0  0  0  0  0  0  0  0  0  0  0
  -15.6199  -14.5894   17.6153 C   0  0  0  0  0  0  0  0  0  0  0  0
  -21.0182  -10.8287   15.7213 C   0  0  0  0  0  0  0  0  0  0  0  0
  -25.0979  -17.4579   12.5154 C   0  0  0  0  0  0  0  0  0  1  0  0
  -17.9820  -14.6532   16.7161 C   0  0  1  0  0  0  0  0  0  0  0  0
  -19.4954  -11.3036   17.6433 C   0  0  2  0  0  0  0  0  0  0  0  0
  -16.9617  -15.3526   17.6580 C   0  0  0  0  0  0  0  0  0  0  0  0
  -25.9406  -11.5935   20.5534 N   0  0  0  0  0  0  0  0  0  0  0  0
  -27.0454  -17.5114   16.1124 N   0  0  0  0  0  0  0  0  0  0  0  0
  -26.2894  -12.8839   20.4138 N   0  0  0  0  0  0  0  0  0  0  0  0
  -29.4342  -13.6585   18.3917 N   0  0  0  0  0  0  0  0  0  0  0  0
  -18.4002  -15.3285   14.3724 N   0  0  0  0  0  0  0  0  0  0  0  0
  -25.4228  -15.0882   20.4386 N   0  0  0  0  0  0  0  0  0  0  0  0
  -21.7885  -12.5306   21.2431 N   0  0  0  0  0  0  0  0  0  0  0  0
  -16.8244  -17.3034   11.7431 N   0  0  0  0  0  0  0  0  0  0  0  0
  -18.2335  -13.2534   17.0416 N   0  0  0  0  0  0  0  0  0  0  0  0
  -20.7635  -10.6750   17.1768 N   0  3  0  0  0  0  0  0  0  0  0  0
  -31.0857  -15.0157   17.4442 O   0  0  0  0  0  0  0  0  0  0  0  0
  -22.5252  -14.6844   20.9657 O   0  0  0  0  0  0  0  0  0  0  0  0
  -17.4127  -17.6518   13.9691 O   0  0  0  0  0  0  0  0  0  0  0  0
  -16.4826  -14.1357   14.9524 O   0  0  0  0  0  0  0  0  0  0  0  0
  -20.5206  -13.4724   17.3556 O   0  0  0  0  0  0  0  0  0  0  0  0
  -21.6858   -6.9717   21.5951 O   0  0  0  0  0  0  0  0  0  0  0  0
  -23.9785  -17.7551   13.3491 O   0  0  0  0  0  0  0  0  0  1  0  0
  -18.0770   -6.9067   25.7635 F   0  0  0  0  0  0  0  0  0  0  0  0
  -21.9247   -5.1372   23.6494 F   0  0  0  0  0  0  0  0  0  0  0  0
  1  2  1  0  0  0  0
  1  5  2  0  0  0  0
  2  6  2  0  0  0  0
  3  8  2  0  0  0  0
  3 16  1  0  0  0  0
  4  9  1  0  0  0  0
  4 16  2  0  0  0  0
  5 19  1  0  0  0  0
  6 21  1  0  0  0  0
  7 10  2  0  0  0  0
  7 20  1  0  0  0  0
  8 24  1  0  0  0  0
  9 24  2  0  0  0  0
 10 25  1  0  0  0  0
 11 12  2  0  0  0  0
 11 26  1  0  0  0  0
 12 27  1  0  0  0  0
 13 17  2  0  0  0  0
 13 31  1  0  0  0  0
 14 22  1  0  0  0  0
 14 25  2  0  0  0  0
 15 27  2  0  0  0  0
 15 28  1  0  0  0  0
 16 29  1  0  0  0  0
 17 23  1  0  0  0  0
 17 33  1  0  0  0  0
 18 29  1  0  0  0  0
 18 32  2  0  0  0  0
 18 34  1  0  0  0  0
 19 21  2  0  0  0  0
 19 38  1  0  0  0  0
 20 22  2  0  0  0  0
 20 39  1  0  0  0  0
 21 48  1  0  0  0  0
 22 40  1  0  0  0  0
 23 30  2  0  0  0  0
 23 53  1  0  0  0  0
 24 79  1  0  0  0  0
 25 80  1  0  0  0  0
 26 28  2  0  0  0  0
 26 79  1  0  0  0  0
 27 81  1  0  0  0  0
 28 82  1  0  0  0  0
 29 64  2  0  0  0  0
 30 49  1  0  0  0  0
 30 65  1  0  0  0  0
 31 54  1  0  0  0  0
 31 65  2  0  0  0  0
 32 66  1  0  0  0  0
 32 69  1  0  0  0  0
 33 67  1  0  0  0  0
 33 74  2  0  0  0  0
 34 70  1  0  0  0  0
 34 75  2  0  0  0  0
 35 50  1  0  0  0  0
 35 71  1  0  0  0  0
 35 76  2  0  0  0  0
 36 61  1  0  0  0  0
 36 68  1  0  0  0  0
 36 77  2  0  0  0  0
 37 62  1  0  0  0  0
 37 72  1  0  0  0  0
 37 78  2  0  0  0  0
 38 41  1  0  0  0  0
 39 50  1  0  0  0  0
 40 68  1  0  0  0  0
 41 43  1  0  0  0  0
 42 44  1  0  0  0  0
 42 46  1  0  0  0  0
 43 48  1  0  0  0  0
 44 52  1  0  0  0  0
 45 49  1  0  0  0  0
 45 51  1  0  0  0  0
 46 67  1  0  0  0  0
 47 52  1  0  0  0  0
 47 67  1  0  0  0  0
 48 71  1  0  0  0  0
 49 51  1  0  0  0  0
 50 68  1  0  0  0  0
 51 60  1  0  0  0  0
 52 66  1  0  0  0  0
 55 62  1  0  0  0  0
 56 63  1  0  0  0  0
 57 63  1  0  0  0  0
 58 63  1  0  0  0  0
 59 73  1  0  0  0  0
 60 80  1  0  0  0  0
 61 63  1  0  0  0  0
 61 72  1  0  0  0  0
 62 73  1  0  0  0  0
 64 66  1  0  0  0  0
M  CHG  1  73   1
M  ISO  4  17 100  33 100  60 101  80 101
M  END
> <Batch ID>
0176

> <Smiles>
CNC(C)C(=O)NC(C(=O)N1Cc2cc([101O:1][101CH2:1]C3CC3c3nc(C)c[100c:0]([100C:0](=O)N4CCCC(n5nc(-c6ccc(Oc7ccc(F)cc7F)cc6)c(C(N)=O)c5N)C4)c3C)ccc2CC1C(=O)NC1CCCc2ccccc21)C(C)(C)C

> <Shape>
0.136

> <Color>
0.181

> <Negative vol penalty>
0.000

$$$$

  -OEChem-04052322503D

 86 95  0     1  0  0  0  0  0999 V2000
  -21.0231  -30.3721   25.9565 C   0  0  0  0  0  0  0  0  0  0  0  0
  -22.1558  -29.5651   25.9248 C   0  0  0  0  0  0  0  0  0  0  0  0
  -23.9552   -9.8951   22.1332 C   0  0  0  0  0  0  0  0  0  0  0  0
  -24.4353  -11.3503   24.0011 C   0  0  0  0  0  0  0  0  0  0  0  0
  -20.1616  -30.4056   24.8608 C   0  0  0  0  0  0  0  0  0  0  0  0
  -22.4272  -28.7902   24.7977 C   0  0  0  0  0  0  0  0  0  0  0  0
  -27.9412  -27.4273   22.5076 C   0  0  0  0  0  0  0  0  0  0  0  0
  -23.4846   -8.9207   23.0133 C   0  0  0  0  0  0  0  0  0  0  0  0
  -23.9646  -10.3759   24.8812 C   0  0  0  0  0  0  0  0  0  0  0  0
  -28.7545  -26.3013   22.6276 C   0  0  0  0  0  0  0  0  0  0  0  0
  -20.6700   -8.3163   24.7869 C   0  0  0  0  0  0  0  0  0  0  0  0
  -19.4732   -7.6762   24.4655 C   0  0  0  0  0  0  0  0  0  0  0  0
  -27.8813  -25.4561   20.5437 C   0  0  0  0  0  0  0  0  0  0  0  0
  -20.6211   -5.5507   24.4233 C   0  0  0  0  0  0  0  0  0  0  0  0
  -24.4306  -11.1100   22.6271 C   0  0  0  0  0  0  0  0  0  0  0  0
  -24.1722  -13.1443   21.1098 C   0  0  0  0  0  0  0  0  0  0  0  0
  -30.5929  -21.6467   23.1082 C   0  0  0  0  0  0  0  0  0  0  0  0
  -20.4277  -29.6382   23.7158 C   0  0  0  0  0  0  0  0  0  0  0  0
  -27.0824  -27.5712   21.4084 C   0  0  0  0  0  0  0  0  0  0  0  0
  -21.5678  -28.8125   23.6861 C   0  0  0  0  0  0  0  0  0  0  0  0
  -27.0600  -26.5861   20.4109 C   0  0  0  0  0  0  0  0  0  0  0  0
  -23.4893   -9.1610   24.3873 C   0  0  0  0  0  0  0  0  0  0  0  0
  -28.7225  -25.3141   21.6470 C   0  0  0  0  0  0  0  0  0  0  0  0
  -21.8425   -7.5736   24.9264 C   0  0  0  0  0  0  0  0  0  0  0  0
  -19.4487   -6.2934   24.2837 C   0  0  0  0  0  0  0  0  0  0  0  0
  -21.8181   -6.1909   24.7447 C   0  0  0  0  0  0  0  0  0  0  0  0
  -24.9174  -12.1168   21.7186 C   0  0  0  0  0  0  0  0  0  0  0  0
  -31.1647  -22.8744   22.8430 C   0  0  0  0  0  0  0  0  0  0  0  0
  -31.4388  -20.5607   23.0115 C   0  0  0  0  0  0  0  0  0  0  0  0
  -25.0875  -13.8254   20.3451 C   0  0  0  0  0  0  0  0  0  0  0  0
  -33.1826  -21.9054   22.4475 C   0  0  0  0  0  0  0  0  0  0  0  0
  -28.2204  -21.3141   22.5829 C   0  0  0  0  0  0  0  0  0  0  0  0
  -29.1875  -21.5196   23.4655 C   0  0  0  0  0  0  0  0  0  0  0  0
  -22.7774  -13.4554   21.2253 C   0  0  0  0  0  0  0  0  0  0  0  0
  -23.9336  -27.7955   21.0363 C   0  0  0  0  0  0  0  0  0  0  0  0
  -24.7306  -28.3470   17.9407 C   0  0  0  0  0  0  0  0  0  0  0  0
  -27.0055  -27.9743   15.4241 C   0  0  0  0  0  0  0  0  0  0  0  0
  -31.0205  -14.4875   20.6972 C   0  0  0  0  0  0  0  0  0  0  0  0
  -19.4421  -29.6711   22.5746 C   0  0  0  0  0  0  0  0  0  0  0  0
  -26.2310  -28.8046   21.2803 C   0  0  0  0  0  0  0  0  0  0  0  0
  -26.1705  -26.7027   19.2010 C   0  0  0  0  0  0  0  0  0  0  0  0
  -20.0005  -29.1062   21.2711 C   0  0  0  0  0  0  0  0  0  0  0  0
  -29.1823  -13.1860   17.9515 C   0  0  0  0  0  0  0  0  0  0  0  0
  -20.7177  -27.7842   21.5261 C   0  0  0  0  0  0  0  0  0  0  0  0
  -27.8116  -12.8609   18.5476 C   0  0  0  0  0  0  0  0  0  0  0  0
  -30.9874  -16.8397   23.7229 C   0  0  0  0  0  0  0  0  0  0  0  0
  -31.6830  -17.4353   21.7984 C   0  0  0  0  0  0  0  0  0  0  0  0
  -30.3103  -12.8963   18.9393 C   0  0  0  0  0  0  0  0  0  0  0  0
  -28.7925  -13.2149   20.8527 C   0  0  0  0  0  0  0  0  0  0  0  0
  -21.9094  -27.9765   22.4718 C   0  0  1  0  0  0  0  0  0  0  0  0
  -25.0174  -28.6018   20.3784 C   0  0  1  0  0  0  0  0  0  0  0  0
  -27.6179  -13.5437   19.9151 C   0  0  2  0  0  0  0  0  0  0  0  0
  -31.7162  -18.0946   23.1946 C   0  0  0  0  0  0  0  0  0  0  0  0
  -31.6031  -16.0732   22.5281 C   0  0  0  0  0  0  0  0  0  0  0  0
  -34.6206  -22.0491   22.0807 C   0  0  0  0  0  0  0  0  0  0  0  0
  -27.3600  -28.4979   12.9956 C   0  0  0  0  0  0  0  0  0  0  0  0
  -22.8232  -26.0908   17.1782 C   0  0  0  0  0  0  0  0  0  0  0  0
  -23.9128  -26.0249   14.9251 C   0  0  0  0  0  0  0  0  0  0  0  0
  -22.7295  -28.0883   15.6764 C   0  0  0  0  0  0  0  0  0  0  0  0
  -29.3935  -29.6219   16.0085 C   0  0  0  0  0  0  0  0  0  0  0  0
  -30.3546  -24.1354   22.9131 C   0  0  0  0  0  0  0  0  0  1  0  0
  -24.9498  -27.4823   16.7228 C   0  0  1  0  0  0  0  0  0  0  0  0
  -27.5753  -28.9663   14.4264 C   0  0  2  0  0  0  0  0  0  0  0  0
  -23.6193  -26.9181   16.1493 C   0  0  0  0  0  0  0  0  0  0  0  0
  -26.2068  -12.1391   21.3705 N   0  0  0  0  0  0  0  0  0  0  0  0
  -32.4611  -23.0409   22.5085 N   0  0  0  0  0  0  0  0  0  0  0  0
  -32.7438  -20.6540   22.6821 N   0  0  0  0  0  0  0  0  0  0  0  0
  -26.2788  -13.1890   20.5346 N   0  0  0  0  0  0  0  0  0  0  0  0
  -25.3521  -27.9241   19.1242 N   0  0  0  0  0  0  0  0  0  0  0  0
  -30.0664  -13.5789   20.2125 N   0  0  0  0  0  0  0  0  0  0  0  0
  -24.9815  -14.9006   19.5357 N   0  0  0  0  0  0  0  0  0  0  0  0
  -21.9804  -12.6536   22.0538 N   0  0  0  0  0  0  0  0  0  0  0  0
  -30.9207  -19.2670   23.2701 N   0  0  0  0  0  0  0  0  0  0  0  0
  -23.0313  -28.5509   21.7607 N   0  0  0  0  0  0  0  0  0  0  0  0
  -25.7115  -28.2926   15.7786 N   0  0  0  0  0  0  0  0  0  0  0  0
  -30.7157  -15.1030   21.9068 N   0  0  0  0  0  0  0  0  0  0  0  0
  -29.0386  -29.1416   14.6483 N   0  3  0  0  0  0  0  0  0  0  0  0
  -22.2500  -14.4059   20.5993 O   0  0  0  0  0  0  0  0  0  0  0  0
  -23.9163  -26.5783   20.8959 O   0  0  0  0  0  0  0  0  0  0  0  0
  -24.0395  -29.3641   17.8437 O   0  0  0  0  0  0  0  0  0  0  0  0
  -27.6430  -27.0111   15.8440 O   0  0  0  0  0  0  0  0  0  0  0  0
  -32.0693  -14.7433   20.0956 O   0  0  0  0  0  0  0  0  0  0  0  0
  -23.0299   -8.2105   25.2463 O   0  0  0  0  0  0  0  0  0  0  0  0
  -29.5148  -24.2137   21.7620 O   0  0  0  0  0  0  0  0  0  1  0  0
  -18.2989   -5.6787   23.9766 F   0  0  0  0  0  0  0  0  0  0  0  0
  -22.9410   -5.4719   24.8786 F   0  0  0  0  0  0  0  0  0  0  0  0
  1  2  1  0  0  0  0
  1  5  2  0  0  0  0
  2  6  2  0  0  0  0
  3  8  2  0  0  0  0
  3 15  1  0  0  0  0
  4  9  1  0  0  0  0
  4 15  2  0  0  0  0
  5 18  1  0  0  0  0
  6 20  1  0  0  0  0
  7 10  2  0  0  0  0
  7 19  1  0  0  0  0
  8 22  1  0  0  0  0
  9 22  2  0  0  0  0
 10 23  1  0  0  0  0
 11 12  2  0  0  0  0
 11 24  1  0  0  0  0
 12 25  1  0  0  0  0
 13 21  1  0  0  0  0
 13 23  2  0  0  0  0
 14 25  2  0  0  0  0
 14 26  1  0  0  0  0
 15 27  1  0  0  0  0
 16 27  1  0  0  0  0
 16 30  2  0  0  0  0
 16 34  1  0  0  0  0
 17 28  2  0  0  0  0
 17 29  1  0  0  0  0
 17 33  1  0  0  0  0
 18 20  2  0  0  0  0
 18 39  1  0  0  0  0
 19 21  2  0  0  0  0
 19 40  1  0  0  0  0
 20 50  1  0  0  0  0
 21 41  1  0  0  0  0
 22 83  1  0  0  0  0
 23 84  1  0  0  0  0
 24 26  2  0  0  0  0
 24 83  1  0  0  0  0
 25 85  1  0  0  0  0
 26 86  1  0  0  0  0
 27 65  2  0  0  0  0
 28 61  1  0  0  0  0
 28 66  1  0  0  0  0
 29 67  2  0  0  0  0
 29 73  1  0  0  0  0
 30 68  1  0  0  0  0
 30 71  1  0  0  0  0
 31 55  1  0  0  0  0
 31 66  2  0  0  0  0
 31 67  1  0  0  0  0
 32 33  2  0  0  0  0
 34 72  1  0  0  0  0
 34 78  2  0  0  0  0
 35 51  1  0  0  0  0
 35 74  1  0  0  0  0
 35 79  2  0  0  0  0
 36 62  1  0  0  0  0
 36 69  1  0  0  0  0
 36 80  2  0  0  0  0
 37 63  1  0  0  0  0
 37 75  1  0  0  0  0
 37 81  2  0  0  0  0
 38 70  1  0  0  0  0
 38 76  1  0  0  0  0
 38 82  2  0  0  0  0
 39 42  1  0  0  0  0
 40 51  1  0  0  0  0
 41 69  1  0  0  0  0
 42 44  1  0  0  0  0
 43 45  1  0  0  0  0
 43 48  1  0  0  0  0
 44 50  1  0  0  0  0
 45 52  1  0  0  0  0
 46 53  1  0  0  0  0
 46 54  1  0  0  0  0
 47 53  1  0  0  0  0
 47 54  1  0  0  0  0
 48 70  1  0  0  0  0
 49 52  1  0  0  0  0
 49 70  1  0  0  0  0
 50 74  1  0  0  0  0
 51 69  1  0  0  0  0
 52 68  1  0  0  0  0
 53 73  1  0  0  0  0
 54 76  1  0  0  0  0
 56 63  1  0  0  0  0
 57 64  1  0  0  0  0
 58 64  1  0  0  0  0
 59 64  1  0  0  0  0
 60 77  1  0  0  0  0
 61 84  1  0  0  0  0
 62 64  1  0  0  0  0
 62 75  1  0  0  0  0
 63 77  1  0  0  0  0
 65 68  1  0  0  0  0
M  CHG  1  77   1
M  ISO  4  38 100  61 101  76 100  84 101
M  END
> <Batch ID>
0176

> <Smiles>
C=Cc1c(NC2CC([100NH:0][100C:0](=O)N3CCCC(n4nc(-c5ccc(Oc6ccc(F)cc6F)cc5)c(C(N)=O)c4N)C3)C2)nc(C)nc1[101CH2:1][101O:1]c1ccc2c(c1)CN(C(=O)C(NC(=O)C(C)NC)C(C)(C)C)C(C(=O)NC1CCCc3ccccc31)C2

> <Shape>
0.225

> <Color>
0.121

> <Negative vol penalty>
0.000

$$$$

  -OEChem-04052322503D

 86 95  0     1  0  0  0  0  0999 V2000
  -20.2464  -31.4012   22.6032 C   0  0  0  0  0  0  0  0  0  0  0  0
  -21.5193  -30.8458   22.5220 C   0  0  0  0  0  0  0  0  0  0  0  0
  -23.0435  -14.4605   22.3077 C   0  0  0  0  0  0  0  0  0  0  0  0
  -22.3436  -13.5583   20.1786 C   0  0  0  0  0  0  0  0  0  0  0  0
  -19.1287  -30.5713   22.6819 C   0  0  0  0  0  0  0  0  0  0  0  0
  -21.6754  -29.4601   22.5207 C   0  0  0  0  0  0  0  0  0  0  0  0
  -24.9696  -27.8797   19.0142 C   0  0  0  0  0  0  0  0  0  0  0  0
  -21.7090  -14.6533   22.6647 C   0  0  0  0  0  0  0  0  0  0  0  0
  -21.0091  -13.7511   20.5356 C   0  0  0  0  0  0  0  0  0  0  0  0
  -26.3257  -28.0250   19.3032 C   0  0  0  0  0  0  0  0  0  0  0  0
  -18.4944  -15.7161   23.9917 C   0  0  0  0  0  0  0  0  0  0  0  0
  -18.1484  -16.9318   24.5813 C   0  0  0  0  0  0  0  0  0  0  0  0
  -26.4366  -25.6967   19.9245 C   0  0  0  0  0  0  0  0  0  0  0  0
  -18.9075  -18.1041   22.6099 C   0  0  0  0  0  0  0  0  0  0  0  0
  -30.9552  -26.2829   17.1555 C   0  0  0  0  0  0  0  0  0  0  0  0
  -23.3608  -13.9130   21.0646 C   0  0  0  0  0  0  0  0  0  0  0  0
  -25.5235  -12.5675   20.9229 C   0  0  0  0  0  0  0  0  0  0  0  0
  -19.2706  -29.1748   22.6718 C   0  0  0  0  0  0  0  0  0  0  0  0
  -24.3332  -26.6424   19.1889 C   0  0  0  0  0  0  0  0  0  0  0  0
  -20.5588  -28.6108   22.6007 C   0  0  0  0  0  0  0  0  0  0  0  0
  -25.0728  -25.5377   19.6346 C   0  0  0  0  0  0  0  0  0  0  0  0
  -20.6917  -14.2986   21.7787 C   0  0  0  0  0  0  0  0  0  0  0  0
  -27.0588  -26.9342   19.7612 C   0  0  0  0  0  0  0  0  0  0  0  0
  -19.0471  -15.6943   22.7111 C   0  0  0  0  0  0  0  0  0  0  0  0
  -18.3549  -18.1259   23.8904 C   0  0  0  0  0  0  0  0  0  0  0  0
  -19.2536  -16.8883   22.0202 C   0  0  0  0  0  0  0  0  0  0  0  0
  -24.7392  -13.7142   20.6951 C   0  0  0  0  0  0  0  0  0  0  0  0
  -31.1294  -25.0265   16.6119 C   0  0  0  0  0  0  0  0  0  0  0  0
  -30.7779  -26.3222   18.5234 C   0  0  0  0  0  0  0  0  0  0  0  0
  -26.7495  -12.8781   20.3874 C   0  0  0  0  0  0  0  0  0  0  0  0
  -30.9496  -24.0598   18.6613 C   0  0  0  0  0  0  0  0  0  0  0  0
  -25.1749  -11.3321   21.5615 C   0  0  0  0  0  0  0  0  0  0  0  0
  -21.9517  -25.5819   21.0076 C   0  0  0  0  0  0  0  0  0  0  0  0
  -22.3574  -22.8680   19.2777 C   0  0  0  0  0  0  0  0  0  0  0  0
  -24.4215  -20.9247   17.3777 C   0  0  0  0  0  0  0  0  0  0  0  0
  -29.6159  -17.8220   19.5320 C   0  0  0  0  0  0  0  0  0  0  0  0
  -18.0362  -28.3187   22.8065 C   0  0  0  0  0  0  0  0  0  0  0  0
  -22.8757  -26.4956   18.8472 C   0  0  0  0  0  0  0  0  0  0  0  0
  -24.4413  -24.1830   19.8195 C   0  0  0  0  0  0  0  0  0  0  0  0
  -18.2623  -26.8589   22.4215 C   0  0  0  0  0  0  0  0  0  0  0  0
  -28.7929  -15.5458   16.9883 C   0  0  0  0  0  0  0  0  0  0  0  0
  -19.5423  -26.3303   23.0611 C   0  0  0  0  0  0  0  0  0  0  0  0
  -27.7253  -14.6953   17.6760 C   0  0  0  0  0  0  0  0  0  0  0  0
  -29.8136  -21.1031   18.2737 C   0  0  0  0  0  0  0  0  0  0  0  0
  -31.5855  -20.6326   20.0077 C   0  0  0  0  0  0  0  0  0  0  0  0
  -28.6488  -17.0306   17.3271 C   0  0  0  0  0  0  0  0  0  0  0  0
  -29.9146  -19.6499   17.8010 C   0  0  0  0  0  0  0  0  0  0  0  0
  -31.6714  -19.2017   19.4839 C   0  0  0  0  0  0  0  0  0  0  0  0
  -27.5458  -16.4634   19.4672 C   0  0  0  0  0  0  0  0  0  0  0  0
  -20.7673  -27.1122   22.5715 C   0  0  1  0  0  0  0  0  0  0  0  0
  -22.2127  -25.3162   19.5519 C   0  0  1  0  0  0  0  0  0  0  0  0
  -27.7005  -14.9596   19.1920 C   0  0  1  0  0  0  0  0  0  0  0  0
  -31.1250  -21.5834   18.8997 C   0  0  0  0  0  0  0  0  0  0  0  0
  -31.3284  -24.8833   15.1403 C   0  0  0  0  0  0  0  0  0  0  0  0
  -24.4828  -18.7455   16.1349 C   0  0  0  0  0  0  0  0  0  0  0  0
  -22.6162  -21.3695   21.9229 C   0  0  0  0  0  0  0  0  0  0  0  0
  -23.6008  -19.4467   20.6573 C   0  0  0  0  0  0  0  0  0  0  0  0
  -21.2664  -20.1864   20.1815 C   0  0  0  0  0  0  0  0  0  0  0  0
  -24.9422  -22.2777   14.7975 C   0  0  0  0  0  0  0  0  0  0  0  0
  -30.5818  -27.6363   19.2019 C   0  0  0  0  0  0  0  0  0  0  0  0
  -29.1090  -28.0460   19.2961 C   0  0  0  0  0  0  0  0  0  1  0  0
  -23.2017  -21.6248   19.4213 C   0  0  1  0  0  0  0  0  0  0  0  0
  -24.2098  -20.2386   16.0402 C   0  0  2  0  0  0  0  0  0  0  0  0
  -22.6830  -20.6827   20.5442 C   0  0  0  0  0  0  0  0  0  0  0  0
  -25.4107  -14.6811   20.0640 N   0  0  0  0  0  0  0  0  0  0  0  0
  -31.1321  -23.8894   17.3380 N   0  0  0  0  0  0  0  0  0  0  0  0
  -30.7694  -25.2261   19.3101 N   0  0  0  0  0  0  0  0  0  0  0  0
  -26.6299  -14.1428   19.8909 N   0  0  0  0  0  0  0  0  0  0  0  0
  -23.0121  -24.0915   19.4781 N   0  0  0  0  0  0  0  0  0  0  0  0
  -28.5893  -17.2289   18.7820 N   0  0  0  0  0  0  0  0  0  0  0  0
  -30.4046  -18.7835   18.8828 N   0  0  0  0  0  0  0  0  0  0  0  0
  -27.9075  -12.1901   20.2974 N   0  0  0  0  0  0  0  0  0  0  0  0
  -23.8721  -11.1795   22.0553 N   0  0  0  0  0  0  0  0  0  0  0  0
  -30.9470  -22.9143   19.4373 N   0  0  0  0  0  0  0  0  0  0  0  0
  -21.1457  -26.6792   21.2435 N   0  0  0  0  0  0  0  0  0  0  0  0
  -23.2497  -21.0091   18.0996 N   0  0  0  0  0  0  0  0  0  0  0  0
  -25.1186  -20.8182   15.0111 N   0  3  0  0  0  0  0  0  0  0  0  0
  -25.9992  -10.3975   21.7051 O   0  0  0  0  0  0  0  0  0  0  0  0
  -22.4440  -24.8451   21.8540 O   0  0  0  0  0  0  0  0  0  0  0  0
  -21.1627  -22.7579   18.9909 O   0  0  0  0  0  0  0  0  0  0  0  0
  -25.5175  -21.3407   17.7469 O   0  0  0  0  0  0  0  0  0  0  0  0
  -29.8161  -17.5110   20.7128 O   0  0  0  0  0  0  0  0  0  0  0  0
  -19.3894  -14.4864   22.1268 O   0  0  0  0  0  0  0  0  0  0  0  0
  -28.3918  -27.0743   20.0466 O   0  0  0  0  0  0  0  0  0  1  0  0
  -18.0211  -19.2932   24.4562 F   0  0  0  0  0  0  0  0  0  0  0  0
  -19.7831  -16.8736   20.7893 F   0  0  0  0  0  0  0  0  0  0  0  0
  1  2  1  0  0  0  0
  1  5  2  0  0  0  0
  2  6  2  0  0  0  0
  3  8  2  0  0  0  0
  3 16  1  0  0  0  0
  4  9  1  0  0  0  0
  4 16  2  0  0  0  0
  5 18  1  0  0  0  0
  6 20  1  0  0  0  0
  7 10  2  0  0  0  0
  7 19  1  0  0  0  0
  8 22  1  0  0  0  0
  9 22  2  0  0  0  0
 10 23  1  0  0  0  0
 11 12  2  0  0  0  0
 11 24  1  0  0  0  0
 12 25  1  0  0  0  0
 13 21  1  0  0  0  0
 13 23  2  0  0  0  0
 14 25  2  0  0  0  0
 14 26  1  0  0  0  0
 15 28  2  0  0  0  0
 15 29  1  0  0  0  0
 16 27  1  0  0  0  0
 17 27  1  0  0  0  0
 17 30  2  0  0  0  0
 17 32  1  0  0  0  0
 18 20  2  0  0  0  0
 18 37  1  0  0  0  0
 19 21  2  0  0  0  0
 19 38  1  0  0  0  0
 20 50  1  0  0  0  0
 21 39  1  0  0  0  0
 22 83  1  0  0  0  0
 23 84  1  0  0  0  0
 24 26  2  0  0  0  0
 24 83  1  0  0  0  0
 25 85  1  0  0  0  0
 26 86  1  0  0  0  0
 27 65  2  0  0  0  0
 28 54  1  0  0  0  0
 28 66  1  0  0  0  0
 29 60  1  0  0  0  0
 29 67  2  0  0  0  0
 30 68  1  0  0  0  0
 30 72  1  0  0  0  0
 31 66  2  0  0  0  0
 31 67  1  0  0  0  0
 31 74  1  0  0  0  0
 32 73  1  0  0  0  0
 32 78  2  0  0  0  0
 33 51  1  0  0  0  0
 33 75  1  0  0  0  0
 33 79  2  0  0  0  0
 34 62  1  0  0  0  0
 34 69  1  0  0  0  0
 34 80  2  0  0  0  0
 35 63  1  0  0  0  0
 35 76  1  0  0  0  0
 35 81  2  0  0  0  0
 36 70  1  0  0  0  0
 36 71  1  0  0  0  0
 36 82  2  0  0  0  0
 37 40  1  0  0  0  0
 38 51  1  0  0  0  0
 39 69  1  0  0  0  0
 40 42  1  0  0  0  0
 41 43  1  0  0  0  0
 41 46  1  0  0  0  0
 42 50  1  0  0  0  0
 43 52  1  0  0  0  0
 44 47  1  0  0  0  0
 44 53  1  0  0  0  0
 45 48  1  0  0  0  0
 45 53  1  0  0  0  0
 46 70  1  0  0  0  0
 47 71  1  0  0  0  0
 48 71  1  0  0  0  0
 49 52  1  0  0  0  0
 49 70  1  0  0  0  0
 50 75  1  0  0  0  0
 51 69  1  0  0  0  0
 52 68  1  0  0  0  0
 53 74  1  0  0  0  0
 55 63  1  0  0  0  0
 56 64  1  0  0  0  0
 57 64  1  0  0  0  0
 58 64  1  0  0  0  0
 59 77  1  0  0  0  0
 60 61  1  0  0  0  0
 61 84  1  0  0  0  0
 62 64  1  0  0  0  0
 62 76  1  0  0  0  0
 63 77  1  0  0  0  0
 65 68  1  0  0  0  0
M  CHG  1  77   1
M  ISO  4  36 100  61 101  71 100  84 101
M  END
> <Batch ID>
0176

> <Smiles>
CNC(C)C(=O)NC(C(=O)N1Cc2cc([101O:1][101CH2:1]Cc3cc(C)nc(NC4CC[100N:0]([100C:0](=O)N5CCCC(n6nc(-c7ccc(Oc8ccc(F)cc8F)cc7)c(C(N)=O)c6N)C5)CC4)n3)ccc2CC1C(=O)NC1CCCc2ccccc21)C(C)(C)C

> <Shape>
0.223

> <Color>
0.083

> <Negative vol penalty>
0.000

$$$$

  -OEChem-04052322503D

 84 93  0     1  0  0  0  0  0999 V2000
  -29.0982  -11.3086   18.6335 C   0  0  0  0  0  0  0  0  0  0  0  0
  -27.9059  -12.0138   18.7612 C   0  0  0  0  0  0  0  0  0  0  0  0
  -24.4941  -28.6243   21.6516 C   0  0  0  0  0  0  0  0  0  0  0  0
  -23.4588  -29.7903   19.8063 C   0  0  0  0  0  0  0  0  0  0  0  0
  -30.2582  -11.7868   19.2415 C   0  0  0  0  0  0  0  0  0  0  0  0
  -27.8726  -13.1972   19.4980 C   0  0  0  0  0  0  0  0  0  0  0  0
  -25.3055  -16.8765   17.1490 C   0  0  0  0  0  0  0  0  0  0  0  0
  -25.5084  -29.5811   21.6871 C   0  0  0  0  0  0  0  0  0  0  0  0
  -24.4730  -30.7472   19.8418 C   0  0  0  0  0  0  0  0  0  0  0  0
  -23.9137  -16.8142   17.1998 C   0  0  0  0  0  0  0  0  0  0  0  0
  -25.9254  -32.7269   22.8545 C   0  0  0  0  0  0  0  0  0  0  0  0
  -26.3013  -33.2272   24.1011 C   0  0  0  0  0  0  0  0  0  0  0  0
  -23.9111  -18.4509   18.9719 C   0  0  0  0  0  0  0  0  0  0  0  0
  -28.5501  -32.4176   23.7479 C   0  0  0  0  0  0  0  0  0  0  0  0
  -17.0766  -17.7345   18.9093 C   0  0  0  0  0  0  0  0  0  0  0  0
  -23.4693  -28.7288   20.7111 C   0  0  0  0  0  0  0  0  0  0  0  0
  -21.2015  -27.7679   21.3752 C   0  0  0  0  0  0  0  0  0  0  0  0
  -30.2413  -12.9818   19.9780 C   0  0  0  0  0  0  0  0  0  0  0  0
  -26.0125  -17.7199   18.0182 C   0  0  0  0  0  0  0  0  0  0  0  0
  -29.0331  -13.6912   20.1175 C   0  0  0  0  0  0  0  0  0  0  0  0
  -25.3118  -18.5240   18.9284 C   0  0  0  0  0  0  0  0  0  0  0  0
  -25.4979  -30.6426   20.7823 C   0  0  0  0  0  0  0  0  0  0  0  0
  -23.2164  -17.5993   18.1133 C   0  0  0  0  0  0  0  0  0  0  0  0
  -26.8618  -32.0720   22.0546 C   0  0  0  0  0  0  0  0  0  0  0  0
  -27.6136  -33.0726   24.5478 C   0  0  0  0  0  0  0  0  0  0  0  0
  -28.1742  -31.9173   22.5013 C   0  0  0  0  0  0  0  0  0  0  0  0
  -22.4216  -27.7404   20.6735 C   0  0  0  0  0  0  0  0  0  0  0  0
  -17.8460  -17.2260   19.9359 C   0  0  0  0  0  0  0  0  0  0  0  0
  -17.7581  -18.4670   17.9589 C   0  0  0  0  0  0  0  0  0  0  0  0
  -20.5638  -26.6105   21.0005 C   0  0  0  0  0  0  0  0  0  0  0  0
  -19.7268  -18.1434   19.0482 C   0  0  0  0  0  0  0  0  0  0  0  0
  -20.6901  -28.7516   22.2843 C   0  0  0  0  0  0  0  0  0  0  0  0
  -28.1693  -17.2786   20.3110 C   0  0  0  0  0  0  0  0  0  0  0  0
  -28.2710  -20.5208   20.3011 C   0  0  0  0  0  0  0  0  0  0  0  0
  -26.6995  -23.4666   19.5942 C   0  0  0  0  0  0  0  0  0  0  0  0
  -18.9392  -23.1181   17.1241 C   0  0  0  0  0  0  0  0  0  0  0  0
  -31.5099  -13.4343   20.6566 C   0  0  0  0  0  0  0  0  0  0  0  0
  -27.5122  -17.7954   17.9325 C   0  0  0  0  0  0  0  0  0  0  0  0
  -26.0225  -19.4609   19.8694 C   0  0  0  0  0  0  0  0  0  0  0  0
  -31.4730  -14.8924   21.1069 C   0  0  0  0  0  0  0  0  0  0  0  0
  -22.2657  -22.5903   18.4456 C   0  0  0  0  0  0  0  0  0  0  0  0
  -30.1607  -15.1972   21.8223 C   0  0  0  0  0  0  0  0  0  0  0  0
  -22.4993  -23.8965   19.2066 C   0  0  0  0  0  0  0  0  0  0  0  0
  -16.6145  -20.0423   14.6832 C   0  0  0  0  0  0  0  0  0  0  0  0
  -17.1794  -21.4784   14.6369 C   0  0  0  0  0  0  0  0  0  0  0  0
  -21.4937  -22.8336   17.1518 C   0  0  0  0  0  0  0  0  0  0  0  0
  -20.4265  -24.8445   18.0928 C   0  0  0  0  0  0  0  0  0  0  0  0
  -28.9623  -14.9919   20.8879 C   0  0  1  0  0  0  0  0  0  0  0  0
  -28.1590  -18.3073   19.2159 C   0  0  1  0  0  0  0  0  0  0  0  0
  -21.1806  -24.6621   19.4224 C   0  0  2  0  0  0  0  0  0  0  0  0
  -17.5909  -19.7788   15.8501 C   0  0  1  0  0  0  0  0  0  0  0  0
  -17.5534  -21.3020   16.1287 C   0  0  1  0  0  0  0  0  0  0  0  0
  -17.1977  -16.4206   21.0114 C   0  0  0  0  0  0  0  0  0  0  0  0
  -27.0190  -25.9519   19.7304 C   0  0  0  0  0  0  0  0  0  0  0  0
  -27.7400  -20.4220   23.3041 C   0  0  0  0  0  0  0  0  0  0  0  0
  -27.1320  -22.8487   23.2059 C   0  0  0  0  0  0  0  0  0  0  0  0
  -29.4387  -22.1171   22.6003 C   0  0  0  0  0  0  0  0  0  0  0  0
  -26.4658  -23.7742   16.6600 C   0  0  0  0  0  0  0  0  0  0  0  0
  -21.2078  -18.3717   19.1257 C   0  0  0  0  0  0  0  0  0  1  0  0
  -27.5258  -21.6160   21.0250 C   0  0  1  0  0  0  0  0  0  0  0  0
  -27.1728  -24.7110   18.8648 C   0  0  2  0  0  0  0  0  0  0  0  0
  -27.9455  -21.7320   22.5176 C   0  0  0  0  0  0  0  0  0  0  0  0
  -22.5535  -26.6518   19.9110 N   0  0  0  0  0  0  0  0  0  0  0  0
  -19.1785  -17.4118   20.0369 N   0  0  0  0  0  0  0  0  0  0  0  0
  -19.0878  -18.6921   17.9974 N   0  0  0  0  0  0  0  0  0  0  0  0
  -21.4080  -25.9844   20.1313 N   0  0  0  0  0  0  0  0  0  0  0  0
  -27.4897  -19.4945   19.7516 N   0  0  0  0  0  0  0  0  0  0  0  0
  -20.2400  -23.5492   17.4295 N   0  0  0  0  0  0  0  0  0  0  0  0
  -19.3690  -26.0774   21.3331 N   0  0  0  0  0  0  0  0  0  0  0  0
  -21.4748  -29.8802   22.5581 N   0  0  0  0  0  0  0  0  0  0  0  0
  -17.0046  -19.0067   16.8877 N   0  0  0  0  0  0  0  0  0  0  0  0
  -28.8314  -16.1116   19.9804 N   0  0  0  0  0  0  0  0  0  0  0  0
  -27.7348  -22.8337   20.2492 N   0  0  0  0  0  0  0  0  0  0  0  0
  -18.8370  -21.8800   16.4988 N   0  0  0  0  0  0  0  0  0  0  0  0
  -26.3859  -24.9095   17.6149 N   0  3  0  0  0  0  0  0  0  0  0  0
  -19.5777  -28.6254   22.8501 O   0  0  0  0  0  0  0  0  0  0  0  0
  -27.6187  -17.5259   21.3775 O   0  0  0  0  0  0  0  0  0  0  0  0
  -29.5006  -20.5776   20.2197 O   0  0  0  0  0  0  0  0  0  0  0  0
  -25.5279  -23.0953   19.5869 O   0  0  0  0  0  0  0  0  0  0  0  0
  -17.9324  -23.7828   17.3926 O   0  0  0  0  0  0  0  0  0  0  0  0
  -26.4873  -31.5766   20.8168 O   0  0  0  0  0  0  0  0  0  0  0  0
  -21.8578  -17.5400   18.1655 O   0  0  0  0  0  0  0  0  0  1  0  0
  -27.9748  -33.5543   25.7443 F   0  0  0  0  0  0  0  0  0  0  0  0
  -29.0785  -31.2901   21.7368 F   0  0  0  0  0  0  0  0  0  0  0  0
  1  2  1  0  0  0  0
  1  5  2  0  0  0  0
  2  6  2  0  0  0  0
  3  8  2  0  0  0  0
  3 16  1  0  0  0  0
  4  9  1  0  0  0  0
  4 16  2  0  0  0  0
  5 18  1  0  0  0  0
  6 20  1  0  0  0  0
  7 10  2  0  0  0  0
  7 19  1  0  0  0  0
  8 22  1  0  0  0  0
  9 22  2  0  0  0  0
 10 23  1  0  0  0  0
 11 12  2  0  0  0  0
 11 24  1  0  0  0  0
 12 25  1  0  0  0  0
 13 21  1  0  0  0  0
 13 23  2  0  0  0  0
 14 25  2  0  0  0  0
 14 26  1  0  0  0  0
 15 28  1  0  0  0  0
 15 29  2  0  0  0  0
 16 27  1  0  0  0  0
 17 27  1  0  0  0  0
 17 30  2  0  0  0  0
 17 32  1  0  0  0  0
 18 20  2  0  0  0  0
 18 37  1  0  0  0  0
 19 21  2  0  0  0  0
 19 38  1  0  0  0  0
 20 48  1  0  0  0  0
 21 39  1  0  0  0  0
 22 81  1  0  0  0  0
 23 82  1  0  0  0  0
 24 26  2  0  0  0  0
 24 81  1  0  0  0  0
 25 83  1  0  0  0  0
 26 84  1  0  0  0  0
 27 63  2  0  0  0  0
 28 53  1  0  0  0  0
 28 64  2  0  0  0  0
 29 65  1  0  0  0  0
 29 71  1  0  0  0  0
 30 66  1  0  0  0  0
 30 69  1  0  0  0  0
 31 59  1  0  0  0  0
 31 64  1  0  0  0  0
 31 65  2  0  0  0  0
 32 70  1  0  0  0  0
 32 76  2  0  0  0  0
 33 49  1  0  0  0  0
 33 72  1  0  0  0  0
 33 77  2  0  0  0  0
 34 60  1  0  0  0  0
 34 67  1  0  0  0  0
 34 78  2  0  0  0  0
 35 61  1  0  0  0  0
 35 73  1  0  0  0  0
 35 79  2  0  0  0  0
 36 68  1  0  0  0  0
 36 74  1  0  0  0  0
 36 80  2  0  0  0  0
 37 40  1  0  0  0  0
 38 49  1  0  0  0  0
 39 67  1  0  0  0  0
 40 42  1  0  0  0  0
 41 43  1  0  0  0  0
 41 46  1  0  0  0  0
 42 48  1  0  0  0  0
 43 50  1  0  0  0  0
 44 45  1  0  0  0  0
 44 51  1  0  0  0  0
 45 52  1  0  0  0  0
 46 68  1  0  0  0  0
 47 50  1  0  0  0  0
 47 68  1  0  0  0  0
 48 72  1  0  0  0  0
 49 67  1  0  0  0  0
 50 66  1  0  0  0  0
 51 52  1  0  0  0  0
 51 71  1  0  0  0  0
 52 74  1  0  0  0  0
 54 61  1  0  0  0  0
 55 62  1  0  0  0  0
 56 62  1  0  0  0  0
 57 62  1  0  0  0  0
 58 75  1  0  0  0  0
 59 82  1  0  0  0  0
 60 62  1  0  0  0  0
 60 73  1  0  0  0  0
 61 75  1  0  0  0  0
 63 66  1  0  0  0  0
M  CHG  1  75   1
M  ISO  4  36 100  59 101  74 100  82 101
M  END
> <Batch ID>
0176

> <Smiles>
CNC(C)C(=O)NC(C(=O)N1Cc2cc([101O:1][101CH2:1]c3nc(C)cc(NC4CCC4[100NH:0][100C:0](=O)N4CCCC(n5nc(-c6ccc(Oc7ccc(F)cc7F)cc6)c(C(N)=O)c5N)C4)n3)ccc2CC1C(=O)NC1CCCc2ccccc21)C(C)(C)C

> <Shape>
0.208

> <Color>
0.059

> <Negative vol penalty>
0.000

$$$$

  -OEChem-04052322503D

 86 95  0     1  0  0  0  0  0999 V2000
  -16.6952  -25.7923   24.1100 C   0  0  0  0  0  0  0  0  0  0  0  0
  -18.0158  -25.5113   23.7745 C   0  0  0  0  0  0  0  0  0  0  0  0
  -23.0528   -9.8788   20.4918 C   0  0  0  0  0  0  0  0  0  0  0  0
  -23.8215  -10.2505   22.7519 C   0  0  0  0  0  0  0  0  0  0  0  0
  -16.2088  -27.0936   23.9917 C   0  0  0  0  0  0  0  0  0  0  0  0
  -18.8505  -26.5314   23.3194 C   0  0  0  0  0  0  0  0  0  0  0  0
  -23.4283  -26.4055   25.4810 C   0  0  0  0  0  0  0  0  0  0  0  0
  -22.3018   -8.7869   20.9268 C   0  0  0  0  0  0  0  0  0  0  0  0
  -23.0704   -9.1586   23.1869 C   0  0  0  0  0  0  0  0  0  0  0  0
  -24.3335  -25.4602   25.0005 C   0  0  0  0  0  0  0  0  0  0  0  0
  -19.8390   -8.4932   23.9189 C   0  0  0  0  0  0  0  0  0  0  0  0
  -19.0862   -8.6487   25.0828 C   0  0  0  0  0  0  0  0  0  0  0  0
  -29.4117  -19.0998   21.2347 C   0  0  0  0  0  0  0  0  0  0  0  0
  -25.4103  -27.1701   23.6828 C   0  0  0  0  0  0  0  0  0  0  0  0
  -20.3167   -6.8463   26.1194 C   0  0  0  0  0  0  0  0  0  0  0  0
  -23.8127  -10.6106   21.4043 C   0  0  0  0  0  0  0  0  0  0  0  0
  -28.6216  -20.0088   21.9135 C   0  0  0  0  0  0  0  0  0  0  0  0
  -24.1720  -13.0805   20.8769 C   0  0  0  0  0  0  0  0  0  0  0  0
  -17.0407  -28.1320   23.5441 C   0  0  0  0  0  0  0  0  0  0  0  0
  -23.5007  -27.7402   25.0569 C   0  0  0  0  0  0  0  0  0  0  0  0
  -18.3744  -27.8476   23.1937 C   0  0  0  0  0  0  0  0  0  0  0  0
  -24.5064  -28.1308   24.1614 C   0  0  0  0  0  0  0  0  0  0  0  0
  -28.3872  -19.9266   23.2878 C   0  0  0  0  0  0  0  0  0  0  0  0
  -29.9855  -18.0684   21.9790 C   0  0  0  0  0  0  0  0  0  0  0  0
  -28.9561  -18.9036   24.0271 C   0  0  0  0  0  0  0  0  0  0  0  0
  -29.7598  -17.9707   23.3635 C   0  0  0  0  0  0  0  0  0  0  0  0
  -22.3105   -8.4268   22.2743 C   0  0  0  0  0  0  0  0  0  0  0  0
  -25.3229  -25.8419   24.0990 C   0  0  0  0  0  0  0  0  0  0  0  0
  -20.8305   -7.5141   23.8552 C   0  0  0  0  0  0  0  0  0  0  0  0
  -19.3251   -7.8253   26.1831 C   0  0  0  0  0  0  0  0  0  0  0  0
  -21.0694   -6.6908   24.9554 C   0  0  0  0  0  0  0  0  0  0  0  0
  -24.5892  -11.7383   20.9555 C   0  0  0  0  0  0  0  0  0  0  0  0
  -25.2680  -13.7531   20.3944 C   0  0  0  0  0  0  0  0  0  0  0  0
  -27.9128  -21.1697   21.3703 C   0  0  0  0  0  0  0  0  0  0  0  0
  -27.2113  -21.8129   22.5203 C   0  0  0  0  0  0  0  0  0  0  0  0
  -26.4597  -22.9115   22.3897 C   0  0  0  0  0  0  0  0  0  0  0  0
  -22.9068  -13.6669   21.2103 C   0  0  0  0  0  0  0  0  0  0  0  0
  -21.5570  -29.7023   23.4833 C   0  0  0  0  0  0  0  0  0  0  0  0
  -23.8405  -31.8971   24.1838 C   0  0  0  0  0  0  0  0  0  0  0  0
  -27.0997  -32.5380   24.9674 C   0  0  0  0  0  0  0  0  0  0  0  0
  -30.7595  -14.7475   20.4013 C   0  0  0  0  0  0  0  0  0  0  0  0
  -27.4990  -21.0309   23.7765 C   0  0  0  0  0  0  0  0  0  0  0  0
  -16.4567  -29.5137   23.3875 C   0  0  0  0  0  0  0  0  0  0  0  0
  -22.5333  -28.7531   25.6051 C   0  0  0  0  0  0  0  0  0  0  0  0
  -24.6395  -29.5553   23.6906 C   0  0  0  0  0  0  0  0  0  0  0  0
  -17.5114  -30.6092   23.2541 C   0  0  0  0  0  0  0  0  0  0  0  0
  -29.5960  -12.0174   18.4342 C   0  0  0  0  0  0  0  0  0  0  0  0
  -18.5862  -30.1964   22.2535 C   0  0  0  0  0  0  0  0  0  0  0  0
  -28.1581  -11.8084   18.9127 C   0  0  0  0  0  0  0  0  0  0  0  0
  -30.5192  -12.4223   19.5812 C   0  0  0  0  0  0  0  0  0  0  0  0
  -28.6280  -13.3823   20.8364 C   0  0  0  0  0  0  0  0  0  0  0  0
  -19.3177  -28.9319   22.7199 C   0  0  1  0  0  0  0  0  0  0  0  0
  -22.3801  -29.9787   24.7096 C   0  0  1  0  0  0  0  0  0  0  0  0
  -27.6481  -13.0271   19.7050 C   0  0  2  0  0  0  0  0  0  0  0  0
  -28.7121  -18.8068   25.4955 C   0  0  0  0  0  0  0  0  0  0  0  0
  -30.3886  -16.8530   24.1365 C   0  0  0  0  0  0  0  0  0  0  0  0
  -28.6755  -34.4322   25.4433 C   0  0  0  0  0  0  0  0  0  0  0  0
  -23.9418  -32.5576   21.2066 C   0  0  0  0  0  0  0  0  0  0  0  0
  -26.1255  -33.7144   21.6087 C   0  0  0  0  0  0  0  0  0  0  0  0
  -24.0527  -34.5451   22.7205 C   0  0  0  0  0  0  0  0  0  0  0  0
  -27.6695  -31.5326   27.6920 C   0  0  0  0  0  0  0  0  0  0  0  0
  -30.8453  -17.0691   21.2742 C   0  0  0  0  0  0  0  0  0  0  0  0
  -25.7482  -23.5741   23.5224 C   0  0  0  0  0  0  0  0  0  1  0  0
  -25.0999  -32.3827   23.5076 C   0  0  1  0  0  0  0  0  0  0  0  0
  -27.7247  -33.4079   26.0431 C   0  0  2  0  0  0  0  0  0  0  0  0
  -24.8016  -33.2726   22.2680 C   0  0  0  0  0  0  0  0  0  0  0  0
  -25.8518  -11.5665   20.5549 N   0  0  0  0  0  0  0  0  0  0  0  0
  -26.2373  -12.8096   20.2199 N   0  0  0  0  0  0  0  0  0  0  0  0
  -23.6661  -30.5075   24.2504 N   0  0  0  0  0  0  0  0  0  0  0  0
  -29.9793  -13.5847   20.2908 N   0  0  0  0  0  0  0  0  0  0  0  0
  -25.4875  -15.0536   20.1067 N   0  0  0  0  0  0  0  0  0  0  0  0
  -21.8897  -12.8319   21.6927 N   0  0  0  0  0  0  0  0  0  0  0  0
  -20.2776  -29.2555   23.7535 N   0  0  0  0  0  0  0  0  0  0  0  0
  -25.8895  -33.0432   24.5413 N   0  0  0  0  0  0  0  0  0  0  0  0
  -30.1701  -15.8047   21.0837 N   0  0  0  0  0  0  0  0  0  0  0  0
  -28.4873  -32.5684   27.0099 N   0  3  0  0  0  0  0  0  0  0  0  0
  -27.9088  -21.5233   20.2094 O   0  0  0  0  0  0  0  0  0  0  0  0
  -22.6794  -14.8923   21.0686 O   0  0  0  0  0  0  0  0  0  0  0  0
  -22.0459  -29.8825   22.3742 O   0  0  0  0  0  0  0  0  0  0  0  0
  -23.0445  -32.7202   24.6425 O   0  0  0  0  0  0  0  0  0  0  0  0
  -27.6334  -31.5149   24.5446 O   0  0  0  0  0  0  0  0  0  0  0  0
  -31.8949  -14.8387   19.9223 O   0  0  0  0  0  0  0  0  0  0  0  0
  -21.5775   -7.3615   22.6992 O   0  0  0  0  0  0  0  0  0  0  0  0
  -26.2074  -24.9211   23.6280 O   0  0  0  0  0  0  0  0  0  1  0  0
  -18.6032   -7.9758   27.3013 F   0  0  0  0  0  0  0  0  0  0  0  0
  -22.0215   -5.7493   24.9006 F   0  0  0  0  0  0  0  0  0  0  0  0
  1  2  1  0  0  0  0
  1  5  2  0  0  0  0
  2  6  2  0  0  0  0
  3  8  2  0  0  0  0
  3 16  1  0  0  0  0
  4  9  1  0  0  0  0
  4 16  2  0  0  0  0
  5 19  1  0  0  0  0
  6 21  1  0  0  0  0
  7 10  2  0  0  0  0
  7 20  1  0  0  0  0
  8 27  1  0  0  0  0
  9 27  2  0  0  0  0
 10 28  1  0  0  0  0
 11 12  2  0  0  0  0
 11 29  1  0  0  0  0
 12 30  1  0  0  0  0
 13 17  2  0  0  0  0
 13 24  1  0  0  0  0
 14 22  1  0  0  0  0
 14 28  2  0  0  0  0
 15 30  2  0  0  0  0
 15 31  1  0  0  0  0
 16 32  1  0  0  0  0
 17 23  1  0  0  0  0
 17 34  1  0  0  0  0
 18 32  1  0  0  0  0
 18 33  2  0  0  0  0
 18 37  1  0  0  0  0
 19 21  2  0  0  0  0
 19 43  1  0  0  0  0
 20 22  2  0  0  0  0
 20 44  1  0  0  0  0
 21 52  1  0  0  0  0
 22 45  1  0  0  0  0
 23 25  2  0  0  0  0
 23 42  1  0  0  0  0
 24 26  2  0  0  0  0
 24 62  1  0  0  0  0
 25 26  1  0  0  0  0
 25 55  1  0  0  0  0
 26 56  1  0  0  0  0
 27 83  1  0  0  0  0
 28 84  1  0  0  0  0
 29 31  2  0  0  0  0
 29 83  1  0  0  0  0
 30 85  1  0  0  0  0
 31 86  1  0  0  0  0
 32 67  2  0  0  0  0
 33 68  1  0  0  0  0
 33 71  1  0  0  0  0
 34 35  1  0  0  0  0
 34 77  2  0  0  0  0
 35 36  2  0  0  0  0
 35 42  1  0  0  0  0
 36 63  1  0  0  0  0
 37 72  1  0  0  0  0
 37 78  2  0  0  0  0
 38 53  1  0  0  0  0
 38 73  1  0  0  0  0
 38 79  2  0  0  0  0
 39 64  1  0  0  0  0
 39 69  1  0  0  0  0
 39 80  2  0  0  0  0
 40 65  1  0  0  0  0
 40 74  1  0  0  0  0
 40 81  2  0  0  0  0
 41 70  1  0  0  0  0
 41 75  1  0  0  0  0
 41 82  2  0  0  0  0
 43 46  1  0  0  0  0
 44 53  1  0  0  0  0
 45 69  1  0  0  0  0
 46 48  1  0  0  0  0
 47 49  1  0  0  0  0
 47 50  1  0  0  0  0
 48 52  1  0  0  0  0
 49 54  1  0  0  0  0
 50 70  1  0  0  0  0
 51 54  1  0  0  0  0
 51 70  1  0  0  0  0
 52 73  1  0  0  0  0
 53 69  1  0  0  0  0
 54 68  1  0  0  0  0
 57 65  1  0  0  0  0
 58 66  1  0  0  0  0
 59 66  1  0  0  0  0
 60 66  1  0  0  0  0
 61 76  1  0  0  0  0
 62 75  1  0  0  0  0
 63 84  1  0  0  0  0
 64 66  1  0  0  0  0
 64 74  1  0  0  0  0
 65 76  1  0  0  0  0
 67 68  1  0  0  0  0
M  CHG  1  76   1
M  ISO  4  41 100  63 101  75 100  84 101
M  END
> <Batch ID>
0176

> <Smiles>
CNC(C)C(=O)NC(C(=O)N1Cc2cc([101O:1][101CH2:1]C=C3Cc4c(cc(C[100NH:0][100C:0](=O)N5CCCC(n6nc(-c7ccc(Oc8ccc(F)cc8F)cc7)c(C(N)=O)c6N)C5)c(C)c4C)C3=O)ccc2CC1C(=O)NC1CCCc2ccccc21)C(C)(C)C

> <Shape>
0.321

> <Color>
0.208

> <Negative vol penalty>
0.000

$$$$

  -OEChem-04052322503D

 89 99  0     1  0  0  0  0  0999 V2000
  -16.1709  -27.4795   21.2927 C   0  0  0  0  0  0  0  0  0  0  0  0
  -16.5042  -26.3006   20.6334 C   0  0  0  0  0  0  0  0  0  0  0  0
  -28.7765  -26.9554   18.4487 C   0  0  0  0  0  0  0  0  0  0  0  0
  -27.3100  -25.9450   20.0813 C   0  0  0  0  0  0  0  0  0  0  0  0
  -17.1187  -28.1256   22.0851 C   0  0  0  0  0  0  0  0  0  0  0  0
  -17.7860  -25.7678   20.7654 C   0  0  0  0  0  0  0  0  0  0  0  0
  -19.3133  -19.8383   20.8876 C   0  0  0  0  0  0  0  0  0  0  0  0
  -28.4570  -28.2195   18.9440 C   0  0  0  0  0  0  0  0  0  0  0  0
  -26.9906  -27.2092   20.5768 C   0  0  0  0  0  0  0  0  0  0  0  0
  -19.8028  -18.9754   19.9080 C   0  0  0  0  0  0  0  0  0  0  0  0
  -24.9857  -29.7904   19.7117 C   0  0  0  0  0  0  0  0  0  0  0  0
  -23.6423  -30.0663   19.9663 C   0  0  0  0  0  0  0  0  0  0  0  0
  -22.0513  -19.3835   20.6807 C   0  0  0  0  0  0  0  0  0  0  0  0
  -24.4727  -12.0208   21.6019 C   0  0  0  0  0  0  0  0  0  0  0  0
  -24.1654  -30.4678   22.2906 C   0  0  0  0  0  0  0  0  0  0  0  0
  -28.2029  -25.8181   19.0173 C   0  0  0  0  0  0  0  0  0  0  0  0
  -28.3270  -24.0351   17.1970 C   0  0  0  0  0  0  0  0  0  0  0  0
  -18.4099  -27.5952   22.2346 C   0  0  0  0  0  0  0  0  0  0  0  0
  -20.1915  -20.4898   21.7656 C   0  0  0  0  0  0  0  0  0  0  0  0
  -18.7524  -26.4081   21.5596 C   0  0  0  0  0  0  0  0  0  0  0  0
  -21.5702  -20.2521   21.6722 C   0  0  0  0  0  0  0  0  0  0  0  0
  -23.8001  -12.5374   20.5134 C   0  0  0  0  0  0  0  0  0  0  0  0
  -24.3072  -13.6345   19.8159 C   0  0  0  0  0  0  0  0  0  0  0  0
  -27.5641  -28.3465   20.0081 C   0  0  0  0  0  0  0  0  0  0  0  0
  -21.1722  -18.7501   19.8026 C   0  0  0  0  0  0  0  0  0  0  0  0
  -25.9189  -29.8532   20.7465 C   0  0  0  0  0  0  0  0  0  0  0  0
  -23.2321  -30.4050   21.2558 C   0  0  0  0  0  0  0  0  0  0  0  0
  -25.5088  -30.1920   22.0359 C   0  0  0  0  0  0  0  0  0  0  0  0
  -28.5320  -24.5119   18.5056 C   0  0  0  0  0  0  0  0  0  0  0  0
  -25.4949  -14.1932   20.2265 C   0  0  0  0  0  0  0  0  0  0  0  0
  -25.6664  -12.6439   21.9366 C   0  0  0  0  0  0  0  0  0  0  0  0
  -28.8050  -22.7477   17.2219 C   0  0  0  0  0  0  0  0  0  0  0  0
  -27.7557  -24.6968   16.0606 C   0  0  0  0  0  0  0  0  0  0  0  0
  -20.9158  -23.5249   22.3716 C   0  0  0  0  0  0  0  0  0  0  0  0
  -22.6851  -22.2197   24.7567 C   0  0  0  0  0  0  0  0  0  0  0  0
  -24.3489  -19.5003   25.9747 C   0  0  0  0  0  0  0  0  0  0  0  0
  -29.3990  -17.8266   19.5566 C   0  0  0  0  0  0  0  0  0  0  0  0
  -19.4150  -28.3546   23.0640 C   0  0  0  0  0  0  0  0  0  0  0  0
  -19.6455  -21.3969   22.8340 C   0  0  0  0  0  0  0  0  0  0  0  0
  -22.4850  -12.1061   19.9445 C   0  0  0  0  0  0  0  0  0  0  0  0
  -22.5534  -20.9112   22.6036 C   0  0  0  0  0  0  0  0  0  0  0  0
  -20.6360  -27.5244   23.4519 C   0  0  0  0  0  0  0  0  0  0  0  0
  -22.5228  -12.7836   18.5633 C   0  0  0  0  0  0  0  0  0  0  0  0
  -31.5215  -20.3006   20.7067 C   0  0  0  0  0  0  0  0  0  0  0  0
  -21.1716  -26.7652   22.2421 C   0  0  0  0  0  0  0  0  0  0  0  0
  -30.9258  -21.5860   20.1330 C   0  0  0  0  0  0  0  0  0  0  0  0
  -26.2147  -16.6166   20.4015 C   0  0  0  0  0  0  0  0  0  0  0  0
  -27.4850  -15.0259   18.8963 C   0  0  0  0  0  0  0  0  0  0  0  0
  -30.4250  -19.3652   21.2030 C   0  0  0  0  0  0  0  0  0  0  0  0
  -26.8679  -17.7939   19.6717 C   0  0  0  0  0  0  0  0  0  0  0  0
  -28.0858  -16.2362   18.1874 C   0  0  0  0  0  0  0  0  0  0  0  0
  -28.8070  -20.2923   19.5780 C   0  0  0  0  0  0  0  0  0  0  0  0
  -20.1249  -25.7857   21.6978 C   0  0  1  0  0  0  0  0  0  0  0  0
  -23.3946  -14.0447   18.7090 C   0  0  1  0  0  0  0  0  0  0  0  0
  -26.1120  -15.3733   19.4997 C   0  0  0  0  0  0  0  0  0  0  0  0
  -20.6709  -22.4051   23.3432 C   0  0  1  0  0  0  0  0  0  0  0  0
  -29.8742  -21.2744   19.0534 C   0  0  1  0  0  0  0  0  0  0  0  0
  -26.4562  -12.1228   23.0917 C   0  0  0  0  0  0  0  0  0  0  0  0
  -25.7290  -18.7489   27.9313 C   0  0  0  0  0  0  0  0  0  0  0  0
  -25.0738  -23.7732   23.6654 C   0  0  0  0  0  0  0  0  0  0  0  0
  -26.5687  -22.2875   25.0167 C   0  0  0  0  0  0  0  0  0  0  0  0
  -24.8987  -23.7458   26.1600 C   0  0  0  0  0  0  0  0  0  0  0  0
  -22.3958  -17.3957   26.6923 C   0  0  0  0  0  0  0  0  0  0  0  0
  -21.6527  -15.6724   17.9533 C   0  0  0  0  0  0  0  0  0  0  0  0
  -20.8090  -16.8325   18.4437 C   0  0  0  0  0  0  0  0  0  1  0  0
  -24.1020  -21.7143   24.8831 C   0  0  1  0  0  0  0  0  0  0  0  0
  -24.3307  -18.8365   27.3398 C   0  0  2  0  0  0  0  0  0  0  0  0
  -25.1427  -22.8691   24.9123 C   0  0  0  0  0  0  0  0  0  0  0  0
  -29.0961  -23.6015   19.3037 N   0  0  0  0  0  0  0  0  0  0  0  0
  -26.1946  -13.7122   21.2796 N   0  0  0  0  0  0  0  0  0  0  0  0
  -29.2496  -22.5397   18.4944 N   0  0  0  0  0  0  0  0  0  0  0  0
  -21.9711  -21.7945   23.6275 N   0  0  0  0  0  0  0  0  0  0  0  0
  -29.4450  -19.0967   20.1508 N   0  0  0  0  0  0  0  0  0  0  0  0
  -28.1525  -17.3911   19.0824 N   0  0  0  0  0  0  0  0  0  0  0  0
  -28.8840  -21.7846   16.2792 N   0  0  0  0  0  0  0  0  0  0  0  0
  -26.3730  -24.5970   15.8547 N   0  0  0  0  0  0  0  0  0  0  0  0
  -20.0625  -24.6007   22.5263 N   0  0  0  0  0  0  0  0  0  0  0  0
  -24.1262  -20.8581   26.0641 N   0  0  0  0  0  0  0  0  0  0  0  0
  -22.5343  -15.2041   19.0584 N   0  3  0  0  0  0  0  0  0  0  0  0
  -23.7764  -17.4569   27.2375 N   0  3  0  0  0  0  0  0  0  0  0  0
  -28.4531  -25.3433   15.2426 O   0  0  0  0  0  0  0  0  0  0  0  0
  -21.8136  -23.4211   21.5440 O   0  0  0  0  0  0  0  0  0  0  0  0
  -22.2263  -22.9586   25.6314 O   0  0  0  0  0  0  0  0  0  0  0  0
  -24.5451  -18.8773   24.9336 O   0  0  0  0  0  0  0  0  0  0  0  0
  -30.4117  -17.1229   19.4546 O   0  0  0  0  0  0  0  0  0  0  0  0
  -27.2524  -29.5799   20.4919 O   0  0  0  0  0  0  0  0  0  0  0  0
  -21.6562  -17.9028   18.8401 O   0  0  0  0  0  0  0  0  0  1  0  0
  -21.9423  -30.6713   21.4999 F   0  0  0  0  0  0  0  0  0  0  0  0
  -26.4009  -30.2551   23.0339 F   0  0  0  0  0  0  0  0  0  0  0  0
  1  2  1  0  0  0  0
  1  5  2  0  0  0  0
  2  6  2  0  0  0  0
  3  8  2  0  0  0  0
  3 16  1  0  0  0  0
  4  9  1  0  0  0  0
  4 16  2  0  0  0  0
  5 18  1  0  0  0  0
  6 20  1  0  0  0  0
  7 10  2  0  0  0  0
  7 19  1  0  0  0  0
  8 24  1  0  0  0  0
  9 24  2  0  0  0  0
 10 25  1  0  0  0  0
 11 12  2  0  0  0  0
 11 26  1  0  0  0  0
 12 27  1  0  0  0  0
 13 21  1  0  0  0  0
 13 25  2  0  0  0  0
 14 22  1  0  0  0  0
 14 31  2  0  0  0  0
 15 27  2  0  0  0  0
 15 28  1  0  0  0  0
 16 29  1  0  0  0  0
 17 29  1  0  0  0  0
 17 32  2  0  0  0  0
 17 33  1  0  0  0  0
 18 20  2  0  0  0  0
 18 38  1  0  0  0  0
 19 21  2  0  0  0  0
 19 39  1  0  0  0  0
 20 53  1  0  0  0  0
 21 41  1  0  0  0  0
 22 23  2  0  0  0  0
 22 40  1  0  0  0  0
 23 30  1  0  0  0  0
 23 54  1  0  0  0  0
 24 86  1  0  0  0  0
 25 87  1  0  0  0  0
 26 28  2  0  0  0  0
 26 86  1  0  0  0  0
 27 88  1  0  0  0  0
 28 89  1  0  0  0  0
 29 69  2  0  0  0  0
 30 55  1  0  0  0  0
 30 70  2  0  0  0  0
 31 58  1  0  0  0  0
 31 70  1  0  0  0  0
 32 71  1  0  0  0  0
 32 75  1  0  0  0  0
 33 76  1  0  0  0  0
 33 81  2  0  0  0  0
 34 56  1  0  0  0  0
 34 77  1  0  0  0  0
 34 82  2  0  0  0  0
 35 66  1  0  0  0  0
 35 72  1  0  0  0  0
 35 83  2  0  0  0  0
 36 67  1  0  0  0  0
 36 78  1  0  0  0  0
 36 84  2  0  0  0  0
 37 73  1  0  0  0  0
 37 74  1  0  0  0  0
 37 85  2  0  0  0  0
 38 42  1  0  0  0  0
 39 56  1  0  0  0  0
 40 43  1  0  0  0  0
 41 72  1  0  0  0  0
 42 45  1  0  0  0  0
 43 54  1  0  0  0  0
 44 46  1  0  0  0  0
 44 49  1  0  0  0  0
 45 53  1  0  0  0  0
 46 57  1  0  0  0  0
 47 50  1  0  0  0  0
 47 55  1  0  0  0  0
 48 51  1  0  0  0  0
 48 55  1  0  0  0  0
 49 73  1  0  0  0  0
 50 74  1  0  0  0  0
 51 74  1  0  0  0  0
 52 57  1  0  0  0  0
 52 73  1  0  0  0  0
 53 77  1  0  0  0  0
 54 79  1  0  0  0  0
 56 72  1  0  0  0  0
 57 71  1  0  0  0  0
 59 67  1  0  0  0  0
 60 68  1  0  0  0  0
 61 68  1  0  0  0  0
 62 68  1  0  0  0  0
 63 80  1  0  0  0  0
 64 65  1  0  0  0  0
 64 79  1  0  0  0  0
 65 87  1  0  0  0  0
 66 68  1  0  0  0  0
 66 78  1  0  0  0  0
 67 80  1  0  0  0  0
 69 71  1  0  0  0  0
M  CHG  2  79   1  80   1
M  ISO  4  37 100  65 101  74 100  87 101
M  END
> <Batch ID>
0176

> <Smiles>
CNC(C)C(=O)NC(C(=O)N1Cc2cc([101O:1][101CH2:1]CNC3CCc4cc(C)nc(C5CC[100N:0]([100C:0](=O)N6CCCC(n7nc(-c8ccc(Oc9ccc(F)cc9F)cc8)c(C(N)=O)c7N)C6)CC5)c43)ccc2CC1C(=O)NC1CCCc2ccccc21)C(C)(C)C

> <Shape>
0.217

> <Color>
0.063

> <Negative vol penalty>
0.000

$$$$

  -OEChem-04052322503D

 88 97  0     1  0  0  0  0  0999 V2000
  -41.1530  -22.2895   24.7178 C   0  0  0  0  0  0  0  0  0  0  0  0
  -39.8697  -21.8592   25.0393 C   0  0  0  0  0  0  0  0  0  0  0  0
  -23.0699   -9.8806   19.9220 C   0  0  0  0  0  0  0  0  0  0  0  0
  -23.8457   -9.8470   22.2098 C   0  0  0  0  0  0  0  0  0  0  0  0
  -41.3373  -23.2405   23.7150 C   0  0  0  0  0  0  0  0  0  0  0  0
  -38.7698  -22.3804   24.3588 C   0  0  0  0  0  0  0  0  0  0  0  0
  -35.4547  -18.8031   22.9958 C   0  0  0  0  0  0  0  0  0  0  0  0
  -22.3296   -8.7218   20.1560 C   0  0  0  0  0  0  0  0  0  0  0  0
  -23.1054   -8.6882   22.4439 C   0  0  0  0  0  0  0  0  0  0  0  0
  -34.6022  -18.3149   23.9850 C   0  0  0  0  0  0  0  0  0  0  0  0
  -19.8828   -7.8740   23.0540 C   0  0  0  0  0  0  0  0  0  0  0  0
  -19.1341   -7.8113   24.2292 C   0  0  0  0  0  0  0  0  0  0  0  0
  -32.8395  -19.7408   23.1612 C   0  0  0  0  0  0  0  0  0  0  0  0
  -28.5446  -19.6579   23.1670 C   0  0  0  0  0  0  0  0  0  0  0  0
  -20.3837   -5.8629   24.9215 C   0  0  0  0  0  0  0  0  0  0  0  0
  -23.8280  -10.4432   20.9489 C   0  0  0  0  0  0  0  0  0  0  0  0
  -24.1650  -12.9707   20.8727 C   0  0  0  0  0  0  0  0  0  0  0  0
  -40.2399  -23.7665   23.0153 C   0  0  0  0  0  0  0  0  0  0  0  0
  -35.0086  -19.7735   22.0871 C   0  0  0  0  0  0  0  0  0  0  0  0
  -38.9396  -23.3403   23.3467 C   0  0  0  0  0  0  0  0  0  0  0  0
  -33.6875  -20.2378   22.1597 C   0  0  0  0  0  0  0  0  0  0  0  0
  -29.3426  -18.8820   22.3335 C   0  0  0  0  0  0  0  0  0  0  0  0
  -29.9457  -17.7322   22.8308 C   0  0  0  0  0  0  0  0  0  0  0  0
  -22.3473   -8.1256   21.4169 C   0  0  0  0  0  0  0  0  0  0  0  0
  -33.2953  -18.7858   24.0697 C   0  0  0  0  0  0  0  0  0  0  0  0
  -20.8819   -6.9310   22.8125 C   0  0  0  0  0  0  0  0  0  0  0  0
  -19.3845   -6.8058   25.1630 C   0  0  0  0  0  0  0  0  0  0  0  0
  -21.1324   -5.9255   23.7463 C   0  0  0  0  0  0  0  0  0  0  0  0
  -24.5934  -11.6399   20.7077 C   0  0  0  0  0  0  0  0  0  0  0  0
  -29.7212  -17.4043   24.1581 C   0  0  0  0  0  0  0  0  0  0  0  0
  -28.3827  -19.2437   24.4792 C   0  0  0  0  0  0  0  0  0  0  0  0
  -25.2534  -13.7286   20.5157 C   0  0  0  0  0  0  0  0  0  0  0  0
  -22.8966  -13.4766   21.3098 C   0  0  0  0  0  0  0  0  0  0  0  0
  -35.8532  -22.7597   21.3997 C   0  0  0  0  0  0  0  0  0  0  0  0
  -33.6861  -22.4098   19.0116 C   0  0  0  0  0  0  0  0  0  0  0  0
  -30.5445  -21.2564   17.6635 C   0  0  0  0  0  0  0  0  0  0  0  0
  -30.7367  -14.7534   20.6846 C   0  0  0  0  0  0  0  0  0  0  0  0
  -40.4852  -24.8274   21.9717 C   0  0  0  0  0  0  0  0  0  0  0  0
  -35.9324  -20.2703   21.0091 C   0  0  0  0  0  0  0  0  0  0  0  0
  -33.1536  -21.2643   21.1955 C   0  0  0  0  0  0  0  0  0  0  0  0
  -39.2961  -25.0533   21.0416 C   0  0  0  0  0  0  0  0  0  0  0  0
  -29.5863  -12.4110   18.2626 C   0  0  0  0  0  0  0  0  0  0  0  0
  -38.0033  -25.1601   21.8441 C   0  0  0  0  0  0  0  0  0  0  0  0
  -28.1524  -12.1069   18.7000 C   0  0  0  0  0  0  0  0  0  0  0  0
  -29.3763  -15.0744   25.2522 C   0  0  0  0  0  0  0  0  0  0  0  0
  -31.5291  -14.9233   26.4119 C   0  0  0  0  0  0  0  0  0  0  0  0
  -30.5114  -12.6114   19.4609 C   0  0  0  0  0  0  0  0  0  0  0  0
  -28.6182  -13.3137   20.8738 C   0  0  0  0  0  0  0  0  0  0  0  0
  -37.7233  -23.8639   22.6141 C   0  0  1  0  0  0  0  0  0  0  0  0
  -30.3504  -16.1641   24.7564 C   0  0  2  0  0  0  0  0  0  0  0  0
  -35.5288  -21.6346   20.4583 C   0  0  1  0  0  0  0  0  0  0  0  0
  -30.1306  -14.2978   26.3455 C   0  0  2  0  0  0  0  0  0  0  0  0
  -27.6361  -13.1590   19.7000 C   0  0  2  0  0  0  0  0  0  0  0  0
  -31.3376  -16.3776   25.9366 C   0  0  1  0  0  0  0  0  0  0  0  0
  -29.5358  -19.3033   20.9141 C   0  0  0  0  0  0  0  0  0  0  0  0
  -27.5341  -20.0525   25.4025 C   0  0  0  0  0  0  0  0  0  0  0  0
  -30.1744  -12.7990   26.0866 C   0  0  0  0  0  0  0  0  0  0  0  0
  -30.7770  -17.2425   27.0799 C   0  0  0  0  0  0  0  0  0  0  0  0
  -29.0762  -21.0120   15.6432 C   0  0  0  0  0  0  0  0  0  0  0  0
  -32.3469  -24.9581   20.0227 C   0  0  0  0  0  0  0  0  0  0  0  0
  -30.3260  -24.3469   18.6771 C   0  0  0  0  0  0  0  0  0  0  0  0
  -32.5005  -24.7776   17.5331 C   0  0  0  0  0  0  0  0  0  0  0  0
  -31.3789  -18.4467   17.2534 C   0  0  0  0  0  0  0  0  0  0  0  0
  -30.8077  -16.8811   21.9601 C   0  0  0  0  0  0  0  0  0  0  0  0
  -32.6752  -16.9716   25.4769 C   0  0  0  0  0  0  0  0  0  1  0  0
  -32.2028  -22.6524   18.8699 C   0  0  1  0  0  0  0  0  0  0  0  0
  -30.3326  -20.5267   16.3493 C   0  0  2  0  0  0  0  0  0  0  0  0
  -31.8544  -24.1658   18.7952 C   0  0  0  0  0  0  0  0  0  0  0  0
  -25.8554  -11.5539   20.2790 N   0  0  0  0  0  0  0  0  0  0  0  0
  -28.9525  -18.1330   24.9982 N   0  0  0  0  0  0  0  0  0  0  0  0
  -26.2294  -12.8402   20.1715 N   0  0  0  0  0  0  0  0  0  0  0  0
  -34.0973  -21.7240   20.1633 N   0  0  0  0  0  0  0  0  0  0  0  0
  -29.9654  -13.6226   20.3694 N   0  0  0  0  0  0  0  0  0  0  0  0
  -25.4611  -15.0615   20.4655 N   0  0  0  0  0  0  0  0  0  0  0  0
  -21.8885  -12.5597   21.6374 N   0  0  0  0  0  0  0  0  0  0  0  0
  -37.1930  -22.8525   21.7251 N   0  0  0  0  0  0  0  0  0  0  0  0
  -31.7724  -21.8821   17.7081 N   0  0  0  0  0  0  0  0  0  0  0  0
  -30.1419  -15.6657   21.5476 N   0  0  0  0  0  0  0  0  0  0  0  0
  -30.2026  -19.0611   16.5857 N   0  3  0  0  0  0  0  0  0  0  0  0
  -22.6588  -14.7055   21.3913 O   0  0  0  0  0  0  0  0  0  0  0  0
  -34.9548  -23.4906   21.8001 O   0  0  0  0  0  0  0  0  0  0  0  0
  -34.4510  -22.8076   18.1293 O   0  0  0  0  0  0  0  0  0  0  0  0
  -29.7032  -21.2730   18.5593 O   0  0  0  0  0  0  0  0  0  0  0  0
  -31.8692  -14.9391   20.2264 O   0  0  0  0  0  0  0  0  0  0  0  0
  -21.6249   -6.9950   21.6457 O   0  0  0  0  0  0  0  0  0  0  0  0
  -32.4613  -18.3114   25.0347 O   0  0  0  0  0  0  0  0  0  1  0  0
  -18.6665   -6.7467   26.2922 F   0  0  0  0  0  0  0  0  0  0  0  0
  -22.0917   -5.0175   23.5203 F   0  0  0  0  0  0  0  0  0  0  0  0
  1  2  1  0  0  0  0
  1  5  2  0  0  0  0
  2  6  2  0  0  0  0
  3  8  2  0  0  0  0
  3 16  1  0  0  0  0
  4  9  1  0  0  0  0
  4 16  2  0  0  0  0
  5 18  1  0  0  0  0
  6 20  1  0  0  0  0
  7 10  2  0  0  0  0
  7 19  1  0  0  0  0
  8 24  1  0  0  0  0
  9 24  2  0  0  0  0
 10 25  1  0  0  0  0
 11 12  2  0  0  0  0
 11 26  1  0  0  0  0
 12 27  1  0  0  0  0
 13 21  1  0  0  0  0
 13 25  2  0  0  0  0
 14 22  2  0  0  0  0
 14 31  1  0  0  0  0
 15 27  2  0  0  0  0
 15 28  1  0  0  0  0
 16 29  1  0  0  0  0
 17 29  1  0  0  0  0
 17 32  2  0  0  0  0
 17 33  1  0  0  0  0
 18 20  2  0  0  0  0
 18 38  1  0  0  0  0
 19 21  2  0  0  0  0
 19 39  1  0  0  0  0
 20 49  1  0  0  0  0
 21 40  1  0  0  0  0
 22 23  1  0  0  0  0
 22 55  1  0  0  0  0
 23 30  2  0  0  0  0
 23 64  1  0  0  0  0
 24 85  1  0  0  0  0
 25 86  1  0  0  0  0
 26 28  2  0  0  0  0
 26 85  1  0  0  0  0
 27 87  1  0  0  0  0
 28 88  1  0  0  0  0
 29 69  2  0  0  0  0
 30 50  1  0  0  0  0
 30 70  1  0  0  0  0
 31 56  1  0  0  0  0
 31 70  2  0  0  0  0
 32 71  1  0  0  0  0
 32 74  1  0  0  0  0
 33 75  1  0  0  0  0
 33 80  2  0  0  0  0
 34 51  1  0  0  0  0
 34 76  1  0  0  0  0
 34 81  2  0  0  0  0
 35 66  1  0  0  0  0
 35 72  1  0  0  0  0
 35 82  2  0  0  0  0
 36 67  1  0  0  0  0
 36 77  1  0  0  0  0
 36 83  2  0  0  0  0
 37 73  1  0  0  0  0
 37 78  1  0  0  0  0
 37 84  2  0  0  0  0
 38 41  1  0  0  0  0
 39 51  1  0  0  0  0
 40 72  1  0  0  0  0
 41 43  1  0  0  0  0
 42 44  1  0  0  0  0
 42 47  1  0  0  0  0
 43 49  1  0  0  0  0
 44 53  1  0  0  0  0
 45 50  1  0  0  0  0
 45 52  1  0  0  0  0
 46 52  1  0  0  0  0
 46 54  1  0  0  0  0
 47 73  1  0  0  0  0
 48 53  1  0  0  0  0
 48 73  1  0  0  0  0
 49 76  1  0  0  0  0
 50 54  1  0  0  0  0
 51 72  1  0  0  0  0
 52 57  1  0  0  0  0
 53 71  1  0  0  0  0
 54 58  1  0  0  0  0
 54 65  1  0  0  0  0
 59 67  1  0  0  0  0
 60 68  1  0  0  0  0
 61 68  1  0  0  0  0
 62 68  1  0  0  0  0
 63 79  1  0  0  0  0
 64 78  1  0  0  0  0
 65 86  1  0  0  0  0
 66 68  1  0  0  0  0
 66 77  1  0  0  0  0
 67 79  1  0  0  0  0
 69 71  1  0  0  0  0
M  CHG  1  79   1
M  ISO  4  37 100  65 101  78 100  86 101
M  END
> <Batch ID>
0176

> <Smiles>
CNC(C)C(=O)NC(C(=O)N1Cc2cc([101O:1][101CH2:1]C3(C)CC(C)CC3c3nc(C)cc(C)c3C[100NH:0][100C:0](=O)N3CCCC(n4nc(-c5ccc(Oc6ccc(F)cc6F)cc5)c(C(N)=O)c4N)C3)ccc2CC1C(=O)NC1CCCc2ccccc21)C(C)(C)C

> <Shape>
0.193

> <Color>
0.193

> <Negative vol penalty>
0.000

$$$$

  -OEChem-04052322503D

 87 97  0     1  0  0  0  0  0999 V2000
  -24.9495  -31.7587   28.4759 C   0  0  0  0  0  0  0  0  0  0  0  0
  -24.1056  -32.3039   27.5149 C   0  0  0  0  0  0  0  0  0  0  0  0
  -26.1763  -12.8503   19.7511 C   0  0  0  0  0  0  0  0  0  0  0  0
  -24.8911  -14.2895   21.2050 C   0  0  0  0  0  0  0  0  0  0  0  0
  -26.3187  -31.6787   28.2310 C   0  0  0  0  0  0  0  0  0  0  0  0
  -24.6290  -32.7583   26.3039 C   0  0  0  0  0  0  0  0  0  0  0  0
  -27.2220  -30.0558   19.5787 C   0  0  0  0  0  0  0  0  0  0  0  0
  -25.4809  -11.7417   20.2336 C   0  0  0  0  0  0  0  0  0  0  0  0
  -24.1956  -13.1808   21.6876 C   0  0  0  0  0  0  0  0  0  0  0  0
  -27.8987  -28.8652   19.3174 C   0  0  0  0  0  0  0  0  0  0  0  0
  -25.5356   -9.7684   22.9772 C   0  0  0  0  0  0  0  0  0  0  0  0
  -26.2756   -8.6325   23.3052 C   0  0  0  0  0  0  0  0  0  0  0  0
  -26.3889  -27.6914   20.7878 C   0  0  0  0  0  0  0  0  0  0  0  0
  -25.0345   -7.3529   21.6744 C   0  0  0  0  0  0  0  0  0  0  0  0
  -25.8815  -14.1242   20.2368 C   0  0  0  0  0  0  0  0  0  0  0  0
  -26.2561  -16.0760   18.6375 C   0  0  0  0  0  0  0  0  0  0  0  0
  -26.8599  -32.1440   27.0212 C   0  0  0  0  0  0  0  0  0  0  0  0
  -26.1285  -30.0751   20.4565 C   0  0  0  0  0  0  0  0  0  0  0  0
  -26.0051  -32.6642   26.0282 C   0  0  0  0  0  0  0  0  0  0  0  0
  -25.6984  -28.8831   21.0565 C   0  0  0  0  0  0  0  0  0  0  0  0
  -31.1161  -23.3478   19.3722 C   0  0  0  0  0  0  0  0  0  0  0  0
  -30.5967  -24.6214   19.5757 C   0  0  0  0  0  0  0  0  0  0  0  0
  -29.8222  -25.2166   18.5862 C   0  0  0  0  0  0  0  0  0  0  0  0
  -24.4905  -11.9069   21.2019 C   0  0  0  0  0  0  0  0  0  0  0  0
  -27.4840  -27.6833   19.9242 C   0  0  0  0  0  0  0  0  0  0  0  0
  -24.5449   -9.6966   21.9979 C   0  0  0  0  0  0  0  0  0  0  0  0
  -26.0251   -7.4247   22.6538 C   0  0  0  0  0  0  0  0  0  0  0  0
  -24.2944   -8.4889   21.3465 C   0  0  0  0  0  0  0  0  0  0  0  0
  -26.5999  -15.2698   19.7391 C   0  0  0  0  0  0  0  0  0  0  0  0
  -30.8342  -22.7167   18.1714 C   0  0  0  0  0  0  0  0  0  0  0  0
  -29.5983  -24.5019   17.4204 C   0  0  0  0  0  0  0  0  0  0  0  0
  -27.2501  -17.0222   18.5810 C   0  0  0  0  0  0  0  0  0  0  0  0
  -25.1382  -15.9785   17.7451 C   0  0  0  0  0  0  0  0  0  0  0  0
  -25.4970  -31.5098   23.2217 C   0  0  0  0  0  0  0  0  0  0  0  0
  -22.5531  -30.2247   22.7698 C   0  0  0  0  0  0  0  0  0  0  0  0
  -20.6411  -27.8064   21.3059 C   0  0  0  0  0  0  0  0  0  0  0  0
  -30.4218  -20.7134   21.1136 C   0  0  0  0  0  0  0  0  0  0  0  0
  -28.3481  -32.0260   26.8052 C   0  0  0  0  0  0  0  0  0  0  0  0
  -25.3926  -31.3628   20.7070 C   0  0  0  0  0  0  0  0  0  0  0  0
  -24.5177  -28.8467   21.9909 C   0  0  0  0  0  0  0  0  0  0  0  0
  -28.8606  -32.9314   25.6900 C   0  0  0  0  0  0  0  0  0  0  0  0
  -31.6735  -17.3022   21.0221 C   0  0  0  0  0  0  0  0  0  0  0  0
  -28.0023  -32.7601   24.4456 C   0  0  0  0  0  0  0  0  0  0  0  0
  -32.3657  -21.1548   16.7970 C   0  0  0  0  0  0  0  0  0  0  0  0
  -30.9705  -20.6336   16.6480 C   0  0  0  0  0  0  0  0  0  0  0  0
  -30.4257  -16.5339   20.5814 C   0  0  0  0  0  0  0  0  0  0  0  0
  -33.3652  -22.0639   20.0522 C   0  0  0  0  0  0  0  0  0  0  0  0
  -31.3029  -18.4530   21.9503 C   0  0  0  0  0  0  0  0  0  0  0  0
  -33.0362  -20.8019   20.8478 C   0  0  0  0  0  0  0  0  0  0  0  0
  -29.0716  -18.6539   20.9503 C   0  0  0  0  0  0  0  0  0  0  0  0
  -32.0031  -22.6430   20.4824 C   0  0  2  0  0  0  0  0  0  0  0  0
  -26.5558  -33.1929   24.7161 C   0  0  1  0  0  0  0  0  0  0  0  0
  -31.3720  -21.3473   17.9106 C   0  0  0  0  0  0  0  0  0  0  0  0
  -24.6113  -31.3592   22.0173 C   0  0  1  0  0  0  0  0  0  0  0  0
  -29.3616  -17.4808   19.9945 C   0  0  2  0  0  0  0  0  0  0  0  0
  -30.8716  -25.3454   20.8544 C   0  0  0  0  0  0  0  0  0  0  0  0
  -18.2726  -26.9914   21.1534 C   0  0  0  0  0  0  0  0  0  0  0  0
  -22.7982  -28.9991   25.5532 C   0  0  0  0  0  0  0  0  0  0  0  0
  -20.9031  -27.4702   24.9708 C   0  0  0  0  0  0  0  0  0  0  0  0
  -20.5419  -29.9379   25.0217 C   0  0  0  0  0  0  0  0  0  0  0  0
  -20.5494  -28.2638   18.3833 C   0  0  0  0  0  0  0  0  0  0  0  0
  -29.2508  -26.5818   18.7748 C   0  0  0  0  0  0  0  0  0  1  0  0
  -28.7742  -25.0894   16.3217 C   0  0  0  0  0  0  0  0  0  0  0  0
  -21.8877  -28.9208   23.1385 C   0  0  1  0  0  0  0  0  0  0  0  0
  -19.3365  -27.8839   20.5335 C   0  0  2  0  0  0  0  0  0  0  0  0
  -21.5562  -28.8327   24.6550 C   0  0  0  0  0  0  0  0  0  0  0  0
  -27.7246  -15.6688   20.3391 N   0  0  0  0  0  0  0  0  0  0  0  0
  -30.0860  -23.2628   17.1867 N   0  0  0  0  0  0  0  0  0  0  0  0
  -28.0961  -16.7361   19.6118 N   0  0  0  0  0  0  0  0  0  0  0  0
  -23.8348  -30.1326   22.2090 N   0  0  0  0  0  0  0  0  0  0  0  0
  -30.3212  -19.3343   21.3122 N   0  0  0  0  0  0  0  0  0  0  0  0
  -31.6629  -21.2686   20.9009 N   0  0  0  0  0  0  0  0  0  0  0  0
  -27.4744  -18.0626   17.7505 N   0  0  0  0  0  0  0  0  0  0  0  0
  -24.2112  -14.9466   17.9458 N   0  0  0  0  0  0  0  0  0  0  0  0
  -25.7328  -32.8217   23.5861 N   0  0  0  0  0  0  0  0  0  0  0  0
  -20.7264  -28.7937   22.2647 N   0  0  0  0  0  0  0  0  0  0  0  0
  -29.5743  -25.8677   15.3376 N   0  3  0  0  0  0  0  0  0  0  0  0
  -19.5445  -27.4560   19.1212 N   0  3  0  0  0  0  0  0  0  0  0  0
  -24.9752  -16.7726   16.7879 O   0  0  0  0  0  0  0  0  0  0  0  0
  -25.9329  -30.5098   23.7800 O   0  0  0  0  0  0  0  0  0  0  0  0
  -21.9546  -31.2855   22.9653 O   0  0  0  0  0  0  0  0  0  0  0  0
  -21.4971  -26.9530   21.0835 O   0  0  0  0  0  0  0  0  0  0  0  0
  -29.4119  -21.4310   21.0896 O   0  0  0  0  0  0  0  0  0  0  0  0
  -23.8116  -10.8254   21.6728 O   0  0  0  0  0  0  0  0  0  0  0  0
  -28.1478  -26.5118   19.6697 O   0  0  0  0  0  0  0  0  0  1  0  0
  -26.7369   -6.3344   22.9678 F   0  0  0  0  0  0  0  0  0  0  0  0
  -23.3447   -8.4140   20.4039 F   0  0  0  0  0  0  0  0  0  0  0  0
  1  2  1  0  0  0  0
  1  5  2  0  0  0  0
  2  6  2  0  0  0  0
  3  8  2  0  0  0  0
  3 15  1  0  0  0  0
  4  9  1  0  0  0  0
  4 15  2  0  0  0  0
  5 17  1  0  0  0  0
  6 19  1  0  0  0  0
  7 10  2  0  0  0  0
  7 18  1  0  0  0  0
  8 24  1  0  0  0  0
  9 24  2  0  0  0  0
 10 25  1  0  0  0  0
 11 12  2  0  0  0  0
 11 26  1  0  0  0  0
 12 27  1  0  0  0  0
 13 20  1  0  0  0  0
 13 25  2  0  0  0  0
 14 27  2  0  0  0  0
 14 28  1  0  0  0  0
 15 29  1  0  0  0  0
 16 29  1  0  0  0  0
 16 32  2  0  0  0  0
 16 33  1  0  0  0  0
 17 19  2  0  0  0  0
 17 38  1  0  0  0  0
 18 20  2  0  0  0  0
 18 39  1  0  0  0  0
 19 52  1  0  0  0  0
 20 40  1  0  0  0  0
 21 22  1  0  0  0  0
 21 30  2  0  0  0  0
 21 51  1  0  0  0  0
 22 23  2  0  0  0  0
 22 56  1  0  0  0  0
 23 31  1  0  0  0  0
 23 62  1  0  0  0  0
 24 84  1  0  0  0  0
 25 85  1  0  0  0  0
 26 28  2  0  0  0  0
 26 84  1  0  0  0  0
 27 86  1  0  0  0  0
 28 87  1  0  0  0  0
 29 67  2  0  0  0  0
 30 53  1  0  0  0  0
 30 68  1  0  0  0  0
 31 63  1  0  0  0  0
 31 68  2  0  0  0  0
 32 69  1  0  0  0  0
 32 73  1  0  0  0  0
 33 74  1  0  0  0  0
 33 79  2  0  0  0  0
 34 54  1  0  0  0  0
 34 75  1  0  0  0  0
 34 80  2  0  0  0  0
 35 64  1  0  0  0  0
 35 70  1  0  0  0  0
 35 81  2  0  0  0  0
 36 65  1  0  0  0  0
 36 76  1  0  0  0  0
 36 82  2  0  0  0  0
 37 71  1  0  0  0  0
 37 72  1  0  0  0  0
 37 83  2  0  0  0  0
 38 41  1  0  0  0  0
 39 54  1  0  0  0  0
 40 70  1  0  0  0  0
 41 43  1  0  0  0  0
 42 46  1  0  0  0  0
 42 48  1  0  0  0  0
 43 52  1  0  0  0  0
 44 45  1  0  0  0  0
 44 53  1  0  0  0  0
 45 53  1  0  0  0  0
 46 55  1  0  0  0  0
 47 49  1  0  0  0  0
 47 51  1  0  0  0  0
 48 71  1  0  0  0  0
 49 72  1  0  0  0  0
 50 55  1  0  0  0  0
 50 71  1  0  0  0  0
 51 72  1  0  0  0  0
 52 75  1  0  0  0  0
 54 70  1  0  0  0  0
 55 69  1  0  0  0  0
 57 65  1  0  0  0  0
 58 66  1  0  0  0  0
 59 66  1  0  0  0  0
 60 66  1  0  0  0  0
 61 78  1  0  0  0  0
 62 85  1  0  0  0  0
 63 77  1  0  0  0  0
 64 66  1  0  0  0  0
 64 76  1  0  0  0  0
 65 78  1  0  0  0  0
 67 69  1  0  0  0  0
M  CHG  2  77   1  78   1
M  ISO  4  37 100  62 101  72 100  85 101
M  END
> <Batch ID>
0176

> <Smiles>
CNC(C)C(=O)NC(C(=O)N1Cc2cc([101O:1][101CH2:1]c3c(CN)nc(C4CC4)c(C4CC[100N:0]4[100C:0](=O)N4CCCC(n5nc(-c6ccc(Oc7ccc(F)cc7F)cc6)c(C(N)=O)c5N)C4)c3C)ccc2CC1C(=O)NC1CCCc2ccccc21)C(C)(C)C

> <Shape>
0.314

> <Color>
0.068

> <Negative vol penalty>
0.000

$$$$

  -OEChem-04052322503D

 84 93  0     1  0  0  0  0  0999 V2000
  -30.3858  -23.5400   17.3679 C   0  0  0  0  0  0  0  0  0  0  0  0
  -29.0684  -23.3769   17.7842 C   0  0  0  0  0  0  0  0  0  0  0  0
  -22.4621  -10.5767   22.1364 C   0  0  0  0  0  0  0  0  0  0  0  0
  -22.8211  -10.2214   19.7738 C   0  0  0  0  0  0  0  0  0  0  0  0
  -31.2498  -24.3565   18.0964 C   0  0  0  0  0  0  0  0  0  0  0  0
  -28.6145  -24.0294   18.9299 C   0  0  0  0  0  0  0  0  0  0  0  0
  -23.0086  -26.2969   19.8985 C   0  0  0  0  0  0  0  0  0  0  0  0
  -22.0188   -9.2607   22.2671 C   0  0  0  0  0  0  0  0  0  0  0  0
  -22.3778   -8.9053   19.9044 C   0  0  0  0  0  0  0  0  0  0  0  0
  -21.8996  -25.7974   20.5798 C   0  0  0  0  0  0  0  0  0  0  0  0
  -21.1341   -5.8866   23.2907 C   0  0  0  0  0  0  0  0  0  0  0  0
  -21.6148   -5.1444   24.3694 C   0  0  0  0  0  0  0  0  0  0  0  0
  -22.5463  -27.0491   22.5379 C   0  0  0  0  0  0  0  0  0  0  0  0
  -23.8737   -5.4358   23.5633 C   0  0  0  0  0  0  0  0  0  0  0  0
  -22.8632  -11.0571   20.8898 C   0  0  0  0  0  0  0  0  0  0  0  0
  -24.6414  -12.8862   20.8840 C   0  0  0  0  0  0  0  0  0  0  0  0
  -30.8037  -25.0271   19.2461 C   0  0  0  0  0  0  0  0  0  0  0  0
  -23.9024  -27.1692   20.5363 C   0  0  0  0  0  0  0  0  0  0  0  0
  -29.4738  -24.8547   19.6752 C   0  0  0  0  0  0  0  0  0  0  0  0
  -23.6646  -27.5604   21.8616 C   0  0  0  0  0  0  0  0  0  0  0  0
  -21.9767   -8.4249   21.1511 C   0  0  0  0  0  0  0  0  0  0  0  0
  -21.6699  -26.1712   21.9007 C   0  0  0  0  0  0  0  0  0  0  0  0
  -22.0232   -6.4033   22.3482 C   0  0  0  0  0  0  0  0  0  0  0  0
  -22.9846   -4.9190   24.5058 C   0  0  0  0  0  0  0  0  0  0  0  0
  -23.3929   -6.1779   22.4845 C   0  0  0  0  0  0  0  0  0  0  0  0
  -23.3206  -12.4167   20.7541 C   0  0  0  0  0  0  0  0  0  0  0  0
  -24.5480  -14.2390   20.6655 C   0  0  0  0  0  0  0  0  0  0  0  0
  -20.9729  -22.5794   25.4826 C   0  0  0  0  0  0  0  0  0  0  0  0
  -25.8451  -12.1640   21.1760 C   0  0  0  0  0  0  0  0  0  0  0  0
  -26.9890  -27.0632   21.2880 C   0  0  0  0  0  0  0  0  0  0  0  0
  -26.4736  -30.1344   22.1958 C   0  0  0  0  0  0  0  0  0  0  0  0
  -24.2598  -32.5178   23.2279 C   0  0  0  0  0  0  0  0  0  0  0  0
  -22.2656  -19.0461   21.3681 C   0  0  0  0  0  0  0  0  0  0  0  0
  -31.7874  -25.8616   20.0274 C   0  0  0  0  0  0  0  0  0  0  0  0
  -25.0793  -27.7203   19.7789 C   0  0  0  0  0  0  0  0  0  0  0  0
  -24.5827  -28.5101   22.5851 C   0  0  0  0  0  0  0  0  0  0  0  0
  -31.1251  -26.8148   21.0190 C   0  0  0  0  0  0  0  0  0  0  0  0
  -20.7298  -17.0495   18.9207 C   0  0  0  0  0  0  0  0  0  0  0  0
  -30.0472  -26.0894   21.8182 C   0  0  0  0  0  0  0  0  0  0  0  0
  -21.3754  -15.6903   19.1886 C   0  0  0  0  0  0  0  0  0  0  0  0
  -19.9047  -21.0808   22.9993 C   0  0  0  0  0  0  0  0  0  0  0  0
  -22.0974  -22.2716   22.6175 C   0  0  0  0  0  0  0  0  0  0  0  0
  -19.5079  -24.4107   25.9124 C   0  0  0  0  0  0  0  0  0  0  0  0
  -20.3908  -17.7882   20.2166 C   0  0  0  0  0  0  0  0  0  0  0  0
  -20.1027  -20.3310   21.6789 C   0  0  0  0  0  0  0  0  0  0  0  0
  -22.2361  -21.5209   21.2963 C   0  0  0  0  0  0  0  0  0  0  0  0
  -22.1825  -16.5709   21.4114 C   0  0  0  0  0  0  0  0  0  0  0  0
  -28.9374  -25.5655   20.8987 C   0  0  1  0  0  0  0  0  0  0  0  0
  -20.6448  -23.6062   26.5510 C   0  0  1  0  0  0  0  0  0  0  0  0
  -26.2058  -28.1977   20.6903 C   0  0  1  0  0  0  0  0  0  0  0  0
  -22.5868  -15.8298   20.1276 C   0  0  1  0  0  0  0  0  0  0  0  0
  -20.6221  -22.4333   22.9954 C   0  0  0  0  0  0  0  0  0  0  0  0
  -19.8188  -24.3651   24.4181 C   0  0  1  0  0  0  0  0  0  0  0  0
  -20.2582  -22.9757   27.8752 C   0  0  0  0  0  0  0  0  0  0  0  0
  -24.1410  -34.9244   23.9291 C   0  0  0  0  0  0  0  0  0  0  0  0
  -27.6615  -29.4002   24.9087 C   0  0  0  0  0  0  0  0  0  0  0  0
  -26.6631  -31.5005   25.8362 C   0  0  0  0  0  0  0  0  0  0  0  0
  -28.3748  -31.6289   24.0262 C   0  0  0  0  0  0  0  0  0  0  0  0
  -22.4400  -33.1989   20.9956 C   0  0  0  0  0  0  0  0  0  0  0  0
  -20.7051  -25.5247   23.9761 C   0  0  0  0  0  0  0  0  0  1  0  0
  -26.0460  -30.8140   23.4742 C   0  0  1  0  0  0  0  0  0  0  0  0
  -24.0316  -33.9468   22.7693 C   0  0  2  0  0  0  0  0  0  0  0  0
  -27.1699  -30.8165   24.5486 C   0  0  0  0  0  0  0  0  0  0  0  0
  -22.4518  -13.3920   20.4749 N   0  0  0  0  0  0  0  0  0  0  0  0
  -23.2283  -14.4879   20.4277 N   0  0  0  0  0  0  0  0  0  0  0  0
  -20.4882  -23.0839   24.2755 N   0  0  0  0  0  0  0  0  0  0  0  0
  -25.7232  -29.0168   21.8040 N   0  0  0  0  0  0  0  0  0  0  0  0
  -21.5654  -17.8611   21.0967 N   0  0  0  0  0  0  0  0  0  0  0  0
  -21.5301  -20.2404   21.3409 N   0  0  0  0  0  0  0  0  0  0  0  0
  -25.4668  -15.2280   20.6556 N   0  0  0  0  0  0  0  0  0  0  0  0
  -25.7622  -10.7788   21.3725 N   0  0  0  0  0  0  0  0  0  0  0  0
  -28.0517  -26.6424   20.5113 N   0  0  0  0  0  0  0  0  0  0  0  0
  -25.5800  -32.1431   23.0939 N   0  0  0  0  0  0  0  0  0  0  0  0
  -22.6774  -34.0863   22.1631 N   0  3  0  0  0  0  0  0  0  0  0  0
  -21.5818  -21.5365   25.6699 O   0  0  0  0  0  0  0  0  0  0  0  0
  -26.9587  -12.7328   21.2763 O   0  0  0  0  0  0  0  0  0  0  0  0
  -26.6549  -26.6046   22.3741 O   0  0  0  0  0  0  0  0  0  0  0  0
  -27.4335  -30.5832   21.5642 O   0  0  0  0  0  0  0  0  0  0  0  0
  -23.3579  -31.8065   23.6651 O   0  0  0  0  0  0  0  0  0  0  0  0
  -23.4770  -19.0377   21.6204 O   0  0  0  0  0  0  0  0  0  0  0  0
  -21.5444   -7.1406   21.2782 O   0  0  0  0  0  0  0  0  0  0  0  0
  -20.5788  -25.6802   22.5742 O   0  0  0  0  0  0  0  0  0  1  0  0
  -23.4462   -4.2076   25.5426 F   0  0  0  0  0  0  0  0  0  0  0  0
  -24.2520   -6.6728   21.5829 F   0  0  0  0  0  0  0  0  0  0  0  0
  1  2  1  0  0  0  0
  1  5  2  0  0  0  0
  2  6  2  0  0  0  0
  3  8  2  0  0  0  0
  3 15  1  0  0  0  0
  4  9  1  0  0  0  0
  4 15  2  0  0  0  0
  5 17  1  0  0  0  0
  6 19  1  0  0  0  0
  7 10  2  0  0  0  0
  7 18  1  0  0  0  0
  8 21  1  0  0  0  0
  9 21  2  0  0  0  0
 10 22  1  0  0  0  0
 11 12  2  0  0  0  0
 11 23  1  0  0  0  0
 12 24  1  0  0  0  0
 13 20  1  0  0  0  0
 13 22  2  0  0  0  0
 14 24  2  0  0  0  0
 14 25  1  0  0  0  0
 15 26  1  0  0  0  0
 16 26  1  0  0  0  0
 16 27  2  0  0  0  0
 16 29  1  0  0  0  0
 17 19  2  0  0  0  0
 17 34  1  0  0  0  0
 18 20  2  0  0  0  0
 18 35  1  0  0  0  0
 19 48  1  0  0  0  0
 20 36  1  0  0  0  0
 21 81  1  0  0  0  0
 22 82  1  0  0  0  0
 23 25  2  0  0  0  0
 23 81  1  0  0  0  0
 24 83  1  0  0  0  0
 25 84  1  0  0  0  0
 26 64  2  0  0  0  0
 27 65  1  0  0  0  0
 27 70  1  0  0  0  0
 28 49  1  0  0  0  0
 28 66  1  0  0  0  0
 28 75  2  0  0  0  0
 29 71  1  0  0  0  0
 29 76  2  0  0  0  0
 30 50  1  0  0  0  0
 30 72  1  0  0  0  0
 30 77  2  0  0  0  0
 31 61  1  0  0  0  0
 31 67  1  0  0  0  0
 31 78  2  0  0  0  0
 32 62  1  0  0  0  0
 32 73  1  0  0  0  0
 32 79  2  0  0  0  0
 33 68  1  0  0  0  0
 33 69  1  0  0  0  0
 33 80  2  0  0  0  0
 34 37  1  0  0  0  0
 35 50  1  0  0  0  0
 36 67  1  0  0  0  0
 37 39  1  0  0  0  0
 38 40  1  0  0  0  0
 38 44  1  0  0  0  0
 39 48  1  0  0  0  0
 40 51  1  0  0  0  0
 41 45  1  0  0  0  0
 41 52  1  0  0  0  0
 42 46  1  0  0  0  0
 42 52  1  0  0  0  0
 43 49  1  0  0  0  0
 43 53  1  0  0  0  0
 44 68  1  0  0  0  0
 45 69  1  0  0  0  0
 46 69  1  0  0  0  0
 47 51  1  0  0  0  0
 47 68  1  0  0  0  0
 48 72  1  0  0  0  0
 49 54  1  0  0  0  0
 50 67  1  0  0  0  0
 51 65  1  0  0  0  0
 52 66  1  0  0  0  0
 53 60  1  0  0  0  0
 53 66  1  0  0  0  0
 55 62  1  0  0  0  0
 56 63  1  0  0  0  0
 57 63  1  0  0  0  0
 58 63  1  0  0  0  0
 59 74  1  0  0  0  0
 60 82  1  0  0  0  0
 61 63  1  0  0  0  0
 61 73  1  0  0  0  0
 62 74  1  0  0  0  0
 64 65  1  0  0  0  0
M  CHG  1  74   1
M  ISO  4  33 100  60 101  69 100  82 101
M  END
> <Batch ID>
0176

> <Smiles>
CNC(C)C(=O)NC(C(=O)N1Cc2cc([101O:1][101CH2:1]C3CC(C)C(=O)N3C3CC[100N:0]([100C:0](=O)N4CCCC(n5nc(-c6ccc(Oc7ccc(F)cc7F)cc6)c(C(N)=O)c5N)C4)CC3)ccc2CC1C(=O)NC1CCCc2ccccc21)C(C)(C)C

> <Shape>
0.256

> <Color>
0.103

> <Negative vol penalty>
0.000

$$$$

  -OEChem-04052322503D

 82 90  0     1  0  0  0  0  0999 V2000
  -24.8310  -28.4173   21.2010 C   0  0  0  0  0  0  0  0  0  0  0  0
  -25.5139  -27.4036   21.8655 C   0  0  0  0  0  0  0  0  0  0  0  0
  -23.0052   -9.9434   20.0591 C   0  0  0  0  0  0  0  0  0  0  0  0
  -23.6595  -10.1592   22.3748 C   0  0  0  0  0  0  0  0  0  0  0  0
  -25.1669  -28.7368   19.8861 C   0  0  0  0  0  0  0  0  0  0  0  0
  -26.5324  -26.7080   21.2150 C   0  0  0  0  0  0  0  0  0  0  0  0
  -31.6589  -24.4879   23.7242 C   0  0  0  0  0  0  0  0  0  0  0  0
  -22.2198   -8.8374   20.3841 C   0  0  0  0  0  0  0  0  0  0  0  0
  -22.8741   -9.0532   22.6998 C   0  0  0  0  0  0  0  0  0  0  0  0
  -32.0112  -23.2134   24.1660 C   0  0  0  0  0  0  0  0  0  0  0  0
  -23.1004   -5.6868   22.4831 C   0  0  0  0  0  0  0  0  0  0  0  0
  -23.6546   -4.7237   23.3262 C   0  0  0  0  0  0  0  0  0  0  0  0
  -33.0774  -22.7797   22.0460 C   0  0  0  0  0  0  0  0  0  0  0  0
  -21.8824   -5.1026   24.9240 C   0  0  0  0  0  0  0  0  0  0  0  0
  -23.7251  -10.6042   21.0545 C   0  0  0  0  0  0  0  0  0  0  0  0
  -24.1401  -13.0970   20.7058 C   0  0  0  0  0  0  0  0  0  0  0  0
  -26.1966  -28.0512   19.2224 C   0  0  0  0  0  0  0  0  0  0  0  0
  -32.0043  -24.9146   22.4338 C   0  0  0  0  0  0  0  0  0  0  0  0
  -26.8815  -27.0177   19.8895 C   0  0  0  0  0  0  0  0  0  0  0  0
  -32.7306  -24.0611   21.5911 C   0  0  0  0  0  0  0  0  0  0  0  0
  -22.1543   -8.3923   21.7044 C   0  0  0  0  0  0  0  0  0  0  0  0
  -32.7181  -22.3580   23.3259 C   0  0  0  0  0  0  0  0  0  0  0  0
  -21.9372   -6.3579   22.8605 C   0  0  0  0  0  0  0  0  0  0  0  0
  -23.0456   -4.4316   24.5466 C   0  0  0  0  0  0  0  0  0  0  0  0
  -21.3282   -6.0658   24.0809 C   0  0  0  0  0  0  0  0  0  0  0  0
  -24.5370  -11.7464   20.7193 C   0  0  0  0  0  0  0  0  0  0  0  0
  -25.2675  -13.7824   20.3242 C   0  0  0  0  0  0  0  0  0  0  0  0
  -22.8662  -13.6799   21.0109 C   0  0  0  0  0  0  0  0  0  0  0  0
  -30.3745  -25.8132   19.8570 C   0  0  0  0  0  0  0  0  0  0  0  0
  -33.3287  -26.5012   18.7073 C   0  0  0  0  0  0  0  0  0  0  0  0
  -36.6909  -25.9292   18.8300 C   0  0  0  0  0  0  0  0  0  0  0  0
  -30.7625  -14.6920   20.6758 C   0  0  0  0  0  0  0  0  0  0  0  0
  -26.4921  -28.4001   17.7852 C   0  0  0  0  0  0  0  0  0  0  0  0
  -31.6401  -26.3023   21.9818 C   0  0  0  0  0  0  0  0  0  0  0  0
  -33.1431  -24.4787   20.2041 C   0  0  0  0  0  0  0  0  0  0  0  0
  -27.8356  -27.8681   17.2931 C   0  0  0  0  0  0  0  0  0  0  0  0
  -29.6710  -12.1101   18.4806 C   0  0  0  0  0  0  0  0  0  0  0  0
  -28.0134  -26.4087   17.7000 C   0  0  0  0  0  0  0  0  0  0  0  0
  -28.2079  -11.8927   18.8704 C   0  0  0  0  0  0  0  0  0  0  0  0
  -30.5869  -19.1762   22.6848 C   0  0  0  0  0  0  0  0  0  0  0  0
  -30.5380  -12.4275   19.6969 C   0  0  0  0  0  0  0  0  0  0  0  0
  -28.5954  -13.3340   20.9128 C   0  0  0  0  0  0  0  0  0  0  0  0
  -28.0090  -26.2570   19.2260 C   0  0  1  0  0  0  0  0  0  0  0  0
  -31.5960  -26.4438   20.4635 C   0  0  1  0  0  0  0  0  0  0  0  0
  -31.8648  -18.4848   23.1965 C   0  0  2  0  0  0  0  0  0  0  0  0
  -27.6716  -13.0661   19.7123 C   0  0  2  0  0  0  0  0  0  0  0  0
  -30.8298  -16.9519   21.6992 C   0  0  1  0  0  0  0  0  0  0  0  0
  -29.8684  -18.1346   21.8242 C   0  0  2  0  0  0  0  0  0  0  0  0
  -31.5906  -16.9617   23.0502 C   0  0  0  0  0  0  0  0  0  0  0  0
  -30.7483  -16.3944   24.2106 C   0  0  0  0  0  0  0  0  0  0  0  0
  -32.9002  -16.1656   22.9577 C   0  0  0  0  0  0  0  0  0  0  0  0
  -38.8464  -26.6128   17.7419 C   0  0  0  0  0  0  0  0  0  0  0  0
  -32.6528  -24.7708   16.2868 C   0  0  0  0  0  0  0  0  0  0  0  0
  -35.0941  -24.7126   15.7343 C   0  0  0  0  0  0  0  0  0  0  0  0
  -33.8718  -26.8871   15.7485 C   0  0  0  0  0  0  0  0  0  0  0  0
  -37.7737  -26.9870   21.3731 C   0  0  0  0  0  0  0  0  0  0  0  0
  -32.1956  -20.4885   24.6999 C   0  0  0  0  0  0  0  0  0  1  0  0
  -34.3824  -25.7379   17.9418 C   0  0  1  0  0  0  0  0  0  0  0  0
  -37.8733  -26.8799   18.8797 C   0  0  2  0  0  0  0  0  0  0  0  0
  -32.2742  -18.9720   24.5805 C   0  0  2  0  0  0  0  0  0  0  0  0
  -33.9910  -25.5182   16.4532 C   0  0  0  0  0  0  0  0  0  0  0  0
  -25.8166  -11.5816   20.3736 N   0  0  0  0  0  0  0  0  0  0  0  0
  -26.2335  -12.8375   20.1392 N   0  0  0  0  0  0  0  0  0  0  0  0
  -32.7581  -25.8427   19.8058 N   0  0  0  0  0  0  0  0  0  0  0  0
  -29.9756  -13.5504   20.4511 N   0  0  0  0  0  0  0  0  0  0  0  0
  -25.5169  -15.0952   20.1321 N   0  0  0  0  0  0  0  0  0  0  0  0
  -21.8158  -12.8313   21.3861 N   0  0  0  0  0  0  0  0  0  0  0  0
  -29.2850  -26.6595   19.7775 N   0  0  0  0  0  0  0  0  0  0  0  0
  -35.6320  -26.4672   18.1297 N   0  0  0  0  0  0  0  0  0  0  0  0
  -30.1508  -15.7124   21.3936 N   0  0  0  0  0  0  0  0  0  0  0  0
  -29.5390  -18.6882   20.4931 N   0  3  0  0  0  0  0  0  0  0  0  0
  -33.6828  -18.5479   24.8214 N   0  3  0  0  0  0  0  0  0  0  0  0
  -38.6051  -26.7296   20.1691 N   0  3  0  0  0  0  0  0  0  0  0  0
  -22.6609  -14.9152   20.9368 O   0  0  0  0  0  0  0  0  0  0  0  0
  -30.4177  -24.6457   19.4871 O   0  0  0  0  0  0  0  0  0  0  0  0
  -33.0282  -27.6424   18.3483 O   0  0  0  0  0  0  0  0  0  0  0  0
  -36.7066  -24.8187   19.3564 O   0  0  0  0  0  0  0  0  0  0  0  0
  -31.9223  -14.7964   20.2624 O   0  0  0  0  0  0  0  0  0  0  0  0
  -21.3878   -7.3133   22.0220 O   0  0  0  0  0  0  0  0  0  0  0  0
  -33.0650  -21.1048   23.7574 O   0  0  0  0  0  0  0  0  0  1  0  0
  -23.5770   -3.5055   25.3555 F   0  0  0  0  0  0  0  0  0  0  0  0
  -20.2100   -6.7064   24.4483 F   0  0  0  0  0  0  0  0  0  0  0  0
  1  2  1  0  0  0  0
  1  5  2  0  0  0  0
  2  6  2  0  0  0  0
  3  8  2  0  0  0  0
  3 15  1  0  0  0  0
  4  9  1  0  0  0  0
  4 15  2  0  0  0  0
  5 17  1  0  0  0  0
  6 19  1  0  0  0  0
  7 10  2  0  0  0  0
  7 18  1  0  0  0  0
  8 21  1  0  0  0  0
  9 21  2  0  0  0  0
 10 22  1  0  0  0  0
 11 12  2  0  0  0  0
 11 23  1  0  0  0  0
 12 24  1  0  0  0  0
 13 20  1  0  0  0  0
 13 22  2  0  0  0  0
 14 24  2  0  0  0  0
 14 25  1  0  0  0  0
 15 26  1  0  0  0  0
 16 26  1  0  0  0  0
 16 27  2  0  0  0  0
 16 28  1  0  0  0  0
 17 19  2  0  0  0  0
 17 33  1  0  0  0  0
 18 20  2  0  0  0  0
 18 34  1  0  0  0  0
 19 43  1  0  0  0  0
 20 35  1  0  0  0  0
 21 79  1  0  0  0  0
 22 80  1  0  0  0  0
 23 25  2  0  0  0  0
 23 79  1  0  0  0  0
 24 81  1  0  0  0  0
 25 82  1  0  0  0  0
 26 62  2  0  0  0  0
 27 63  1  0  0  0  0
 27 66  1  0  0  0  0
 28 67  1  0  0  0  0
 28 74  2  0  0  0  0
 29 44  1  0  0  0  0
 29 68  1  0  0  0  0
 29 75  2  0  0  0  0
 30 58  1  0  0  0  0
 30 64  1  0  0  0  0
 30 76  2  0  0  0  0
 31 59  1  0  0  0  0
 31 69  1  0  0  0  0
 31 77  2  0  0  0  0
 32 65  1  0  0  0  0
 32 70  1  0  0  0  0
 32 78  2  0  0  0  0
 33 36  1  0  0  0  0
 34 44  1  0  0  0  0
 35 64  1  0  0  0  0
 36 38  1  0  0  0  0
 37 39  1  0  0  0  0
 37 41  1  0  0  0  0
 38 43  1  0  0  0  0
 39 46  1  0  0  0  0
 40 45  1  0  0  0  0
 40 48  1  0  0  0  0
 41 65  1  0  0  0  0
 42 46  1  0  0  0  0
 42 65  1  0  0  0  0
 43 68  1  0  0  0  0
 44 64  1  0  0  0  0
 45 49  1  0  0  0  0
 45 60  1  0  0  0  0
 46 63  1  0  0  0  0
 47 48  1  0  0  0  0
 47 49  1  0  0  0  0
 47 70  1  0  0  0  0
 48 71  1  0  0  0  0
 49 50  1  0  0  0  0
 49 51  1  0  0  0  0
 52 59  1  0  0  0  0
 53 61  1  0  0  0  0
 54 61  1  0  0  0  0
 55 61  1  0  0  0  0
 56 73  1  0  0  0  0
 57 60  1  0  0  0  0
 57 80  1  0  0  0  0
 58 61  1  0  0  0  0
 58 69  1  0  0  0  0
 59 73  1  0  0  0  0
 60 72  1  0  0  0  0
 62 63  1  0  0  0  0
M  CHG  3  71   1  72   1  73   1
M  ISO  4  32 100  57 101  70 100  80 101
M  END
> <Batch ID>
0176

> <Smiles>
CNC(C)C(=O)NC(C(=O)N1Cc2cc([101O:1][101CH2:1]C(N)C3CC(N)C([100NH:0][100C:0](=O)N4CCCC(n5nc(-c6ccc(Oc7ccc(F)cc7F)cc6)c(C(N)=O)c5N)C4)C3(C)C)ccc2CC1C(=O)NC1CCCc2ccccc21)C(C)(C)C

> <Shape>
0.253

> <Color>
0.206

> <Negative vol penalty>
0.000

$$$$

  -OEChem-04052322503D

 80 89  0     1  0  0  0  0  0999 V2000
  -22.1504   -5.9071   22.0391 C   0  0  0  0  0  0  0  0  0  0  0  0
  -23.1852   -6.2703   21.1832 C   0  0  0  0  0  0  0  0  0  0  0  0
  -25.0113  -31.3527   20.8911 C   0  0  0  0  0  0  0  0  0  0  0  0
  -25.0916  -30.1182   22.9663 C   0  0  0  0  0  0  0  0  0  0  0  0
  -21.0401   -6.7385   22.1808 C   0  0  0  0  0  0  0  0  0  0  0  0
  -23.1098   -7.4647   20.4675 C   0  0  0  0  0  0  0  0  0  0  0  0
  -28.1611  -12.5487   21.1952 C   0  0  0  0  0  0  0  0  0  0  0  0
  -24.5081  -32.4621   21.5705 C   0  0  0  0  0  0  0  0  0  0  0  0
  -24.5884  -31.2276   23.6457 C   0  0  0  0  0  0  0  0  0  0  0  0
  -29.1969  -13.4801   21.1206 C   0  0  0  0  0  0  0  0  0  0  0  0
  -23.5422  -35.7379   22.8159 C   0  0  0  0  0  0  0  0  0  0  0  0
  -24.0921  -36.9848   22.5185 C   0  0  0  0  0  0  0  0  0  0  0  0
  -27.8805  -14.8394   19.6148 C   0  0  0  0  0  0  0  0  0  0  0  0
  -26.2639  -36.1952   23.2233 C   0  0  0  0  0  0  0  0  0  0  0  0
  -27.7571  -19.0275   19.0562 C   0  0  0  0  0  0  0  0  0  0  0  0
  -28.5072  -21.2659   20.3030 C   0  0  0  0  0  0  0  0  0  0  0  0
  -25.3030  -30.1807   21.5890 C   0  0  0  0  0  0  0  0  0  0  0  0
  -27.1746  -28.7233   20.6505 C   0  0  0  0  0  0  0  0  0  0  0  0
  -20.9556   -7.9484   21.4739 C   0  0  0  0  0  0  0  0  0  0  0  0
  -26.9736  -12.7670   20.4913 C   0  0  0  0  0  0  0  0  0  0  0  0
  -21.9968   -8.3125   20.5989 C   0  0  0  0  0  0  0  0  0  0  0  0
  -26.8346  -13.9161   19.6956 C   0  0  0  0  0  0  0  0  0  0  0  0
  -24.2967  -32.3996   22.9478 C   0  0  0  0  0  0  0  0  0  0  0  0
  -29.0570  -14.6225   20.3321 C   0  0  0  0  0  0  0  0  0  0  0  0
  -24.3532  -34.7196   23.3171 C   0  0  0  0  0  0  0  0  0  0  0  0
  -25.4529  -37.2135   22.7222 C   0  0  0  0  0  0  0  0  0  0  0  0
  -25.7140  -34.9483   23.5207 C   0  0  0  0  0  0  0  0  0  0  0  0
  -25.8222  -29.0341   20.8876 C   0  0  0  0  0  0  0  0  0  0  0  0
  -28.9861  -19.1209   19.6712 C   0  0  0  0  0  0  0  0  0  0  0  0
  -27.2784  -21.1729   19.6874 C   0  0  0  0  0  0  0  0  0  0  0  0
  -27.1379  -27.5423   19.9504 C   0  0  0  0  0  0  0  0  0  0  0  0
  -28.3583  -29.4382   21.0295 C   0  0  0  0  0  0  0  0  0  0  0  0
  -23.5357  -11.5311   19.6372 C   0  0  0  0  0  0  0  0  0  0  0  0
  -23.3172  -14.5641   20.0420 C   0  0  0  0  0  0  0  0  0  0  0  0
  -23.4217  -17.8414   20.9829 C   0  0  0  0  0  0  0  0  0  0  0  0
  -25.1422  -22.4033   19.1686 C   0  0  0  0  0  0  0  0  0  0  0  0
  -19.7140   -8.7914   21.6237 C   0  0  0  0  0  0  0  0  0  0  0  0
  -25.8553  -11.7603   20.4935 C   0  0  0  0  0  0  0  0  0  0  0  0
  -25.5528  -14.0923   18.9283 C   0  0  0  0  0  0  0  0  0  0  0  0
  -19.8831  -10.2206   21.1147 C   0  0  0  0  0  0  0  0  0  0  0  0
  -23.2538  -25.0999   17.8125 C   0  0  0  0  0  0  0  0  0  0  0  0
  -20.5590  -10.2237   19.7472 C   0  0  0  0  0  0  0  0  0  0  0  0
  -23.8649  -26.3383   18.4721 C   0  0  0  0  0  0  0  0  0  0  0  0
  -30.9564  -17.8285   20.7312 C   0  0  0  0  0  0  0  0  0  0  0  0
  -23.2076  -23.9113   18.7710 C   0  0  0  0  0  0  0  0  0  0  0  0
  -25.0997  -24.8136   20.0652 C   0  0  0  0  0  0  0  0  0  0  0  0
  -21.9631   -9.6121   19.8244 C   0  0  1  0  0  0  0  0  0  0  0  0
  -29.9145  -17.9655   19.6457 C   0  0  1  0  0  0  0  0  0  0  0  0
  -24.4604  -12.4078   20.4295 C   0  0  1  0  0  0  0  0  0  0  0  0
  -25.2270  -26.0182   19.1185 C   0  0  2  0  0  0  0  0  0  0  0  0
  -29.7878  -16.8914   20.7038 C   0  0  1  0  0  0  0  0  0  1  0  0
  -22.5602  -20.1247   21.5674 C   0  0  0  0  0  0  0  0  0  0  0  0
  -23.3386  -14.9479   17.0160 C   0  0  0  0  0  0  0  0  0  0  0  0
  -22.7496  -17.3526   17.3881 C   0  0  0  0  0  0  0  0  0  0  0  0
  -21.1842  -15.5577   18.1301 C   0  0  0  0  0  0  0  0  0  0  0  0
  -23.0440  -17.0991   23.8229 C   0  0  0  0  0  0  0  0  0  0  0  0
  -23.3362  -15.9300   19.4038 C   0  0  1  0  0  0  0  0  0  0  0  0
  -22.5472  -18.6471   21.9267 C   0  0  2  0  0  0  0  0  0  0  0  0
  -22.6755  -15.9358   17.9964 C   0  0  0  0  0  0  0  0  0  0  0  0
  -29.3831  -20.2415   20.3059 N   0  0  0  0  0  0  0  0  0  0  0  0
  -26.8813  -20.0520   19.0529 N   0  0  0  0  0  0  0  0  0  0  0  0
  -24.9872  -28.1241   20.3791 N   0  0  0  0  0  0  0  0  0  0  0  0
  -25.8171  -27.2298   19.8155 N   0  0  0  0  0  0  0  0  0  0  0  0
  -24.4064  -13.7258   19.7746 N   0  0  0  0  0  0  0  0  0  0  0  0
  -24.5338  -23.6645   19.3413 N   0  0  0  0  0  0  0  0  0  0  0  0
  -28.1068  -26.7510   19.4429 N   0  0  0  0  0  0  0  0  0  0  0  0
  -28.2158  -30.6344   21.7458 N   0  0  0  0  0  0  0  0  0  0  0  0
  -26.4159  -22.2964   19.7262 N   0  0  0  0  0  0  0  0  0  0  0  0
  -22.8979  -10.5622   20.3881 N   0  0  0  0  0  0  0  0  0  0  0  0
  -22.7114  -16.8365   20.3610 N   0  0  0  0  0  0  0  0  0  0  0  0
  -23.0272  -18.5004   23.3299 N   0  3  0  0  0  0  0  0  0  0  0  0
  -29.5076  -29.0368   20.7272 O   0  0  0  0  0  0  0  0  0  0  0  0
  -23.4081  -11.7199   18.4331 O   0  0  0  0  0  0  0  0  0  0  0  0
  -22.3612  -14.2443   20.7540 O   0  0  0  0  0  0  0  0  0  0  0  0
  -24.6147  -18.0820   20.8116 O   0  0  0  0  0  0  0  0  0  0  0  0
  -24.5864  -21.4943   18.5466 O   0  0  0  0  0  0  0  0  0  0  0  0
  -23.8059  -33.4820   23.6112 O   0  0  0  0  0  0  0  0  0  0  0  0
  -30.0705  -15.5300   20.2673 O   0  0  0  0  0  0  0  0  0  1  0  0
  -25.9811  -38.4104   22.4350 F   0  0  0  0  0  0  0  0  0  0  0  0
  -26.4984  -33.9735   24.0008 F   0  0  0  0  0  0  0  0  0  0  0  0
  1  2  1  0  0  0  0
  1  5  2  0  0  0  0
  2  6  2  0  0  0  0
  3  8  2  0  0  0  0
  3 17  1  0  0  0  0
  4  9  1  0  0  0  0
  4 17  2  0  0  0  0
  5 19  1  0  0  0  0
  6 21  1  0  0  0  0
  7 10  2  0  0  0  0
  7 20  1  0  0  0  0
  8 23  1  0  0  0  0
  9 23  2  0  0  0  0
 10 24  1  0  0  0  0
 11 12  2  0  0  0  0
 11 25  1  0  0  0  0
 12 26  1  0  0  0  0
 13 22  1  0  0  0  0
 13 24  2  0  0  0  0
 14 26  2  0  0  0  0
 14 27  1  0  0  0  0
 15 29  1  0  0  0  0
 15 61  2  0  0  0  0
 16 30  2  0  0  0  0
 16 60  1  0  0  0  0
 17 28  1  0  0  0  0
 18 28  1  0  0  0  0
 18 31  2  0  0  0  0
 18 32  1  0  0  0  0
 19 21  2  0  0  0  0
 19 37  1  0  0  0  0
 20 22  2  0  0  0  0
 20 38  1  0  0  0  0
 21 47  1  0  0  0  0
 22 39  1  0  0  0  0
 23 77  1  0  0  0  0
 24 78  1  0  0  0  0
 25 27  2  0  0  0  0
 25 77  1  0  0  0  0
 26 79  1  0  0  0  0
 27 80  1  0  0  0  0
 28 62  2  0  0  0  0
 29 48  1  0  0  0  0
 29 60  2  0  0  0  0
 30 61  1  0  0  0  0
 30 68  1  0  0  0  0
 31 63  1  0  0  0  0
 31 66  1  0  0  0  0
 32 67  1  0  0  0  0
 32 72  2  0  0  0  0
 33 49  1  0  0  0  0
 33 69  1  0  0  0  0
 33 73  2  0  0  0  0
 34 57  1  0  0  0  0
 34 64  1  0  0  0  0
 34 74  2  0  0  0  0
 35 58  1  0  0  0  0
 35 70  1  0  0  0  0
 35 75  2  0  0  0  0
 36 65  1  0  0  0  0
 36 68  1  0  0  0  0
 36 76  2  0  0  0  0
 37 40  1  0  0  0  0
 38 49  1  0  0  0  0
 39 64  1  0  0  0  0
 40 42  1  0  0  0  0
 41 43  1  0  0  0  0
 41 45  1  0  0  0  0
 42 47  1  0  0  0  0
 43 50  1  0  0  0  0
 44 48  1  0  0  0  0
 44 51  1  0  0  0  0
 45 65  1  0  0  0  0
 46 50  1  0  0  0  0
 46 65  1  0  0  0  0
 47 69  1  0  0  0  0
 48 51  1  0  0  0  0
 49 64  1  0  0  0  0
 50 63  1  0  0  0  0
 51 78  1  0  0  0  0
 52 58  1  0  0  0  0
 53 59  1  0  0  0  0
 54 59  1  0  0  0  0
 55 59  1  0  0  0  0
 56 71  1  0  0  0  0
 57 59  1  0  0  0  0
 57 70  1  0  0  0  0
 58 71  1  0  0  0  0
 62 63  1  0  0  0  0
M  CHG  1  71   1
M  ISO  4  36 100  51 101  68 100  78 101
M  END
> <Batch ID>
0176

> <Smiles>
CNC(C)C(=O)NC(C(=O)N1Cc2cc([101O:1][101CH:1]3CC3c3cnc([100NH:0][100C:0](=O)N4CCCC(n5nc(-c6ccc(Oc7ccc(F)cc7F)cc6)c(C(N)=O)c5N)C4)cn3)ccc2CC1C(=O)NC1CCCc2ccccc21)C(C)(C)C

> <Shape>
0.284

> <Color>
0.078

> <Negative vol penalty>
0.000

$$$$

  -OEChem-04052322503D

 84 93  0     1  0  0  0  0  0999 V2000
  -29.3268  -34.5730   16.5178 C   0  0  0  0  0  0  0  0  0  0  0  0
  -29.5201  -33.1953   16.5080 C   0  0  0  0  0  0  0  0  0  0  0  0
  -23.3449  -10.1660   20.8269 C   0  0  0  0  0  0  0  0  0  0  0  0
  -24.6906   -8.7207   22.2188 C   0  0  0  0  0  0  0  0  0  0  0  0
  -28.7789  -35.1909   17.6412 C   0  0  0  0  0  0  0  0  0  0  0  0
  -29.1666  -32.4349   17.6220 C   0  0  0  0  0  0  0  0  0  0  0  0
  -26.6634  -25.9617   19.3966 C   0  0  0  0  0  0  0  0  0  0  0  0
  -22.3678   -9.1742   20.7417 C   0  0  0  0  0  0  0  0  0  0  0  0
  -23.7135   -7.7289   22.1337 C   0  0  0  0  0  0  0  0  0  0  0  0
  -26.9588  -24.8842   20.2306 C   0  0  0  0  0  0  0  0  0  0  0  0
  -20.7213   -7.0542   23.5522 C   0  0  0  0  0  0  0  0  0  0  0  0
  -20.3646   -6.3953   24.7287 C   0  0  0  0  0  0  0  0  0  0  0  0
  -25.9470  -26.0496   22.0846 C   0  0  0  0  0  0  0  0  0  0  0  0
  -29.5453  -21.6124   21.2747 C   0  0  0  0  0  0  0  0  0  0  0  0
  -21.0540   -4.2922   23.7599 C   0  0  0  0  0  0  0  0  0  0  0  0
  -24.5064   -9.9392   21.5654 C   0  0  0  0  0  0  0  0  0  0  0  0
  -25.6117  -11.9823   22.6197 C   0  0  0  0  0  0  0  0  0  0  0  0
  -28.4094  -34.4364   18.7658 C   0  0  0  0  0  0  0  0  0  0  0  0
  -26.0163  -27.0977   19.9037 C   0  0  0  0  0  0  0  0  0  0  0  0
  -28.6144  -33.0434   18.7620 C   0  0  0  0  0  0  0  0  0  0  0  0
  -25.6423  -27.1391   21.2544 C   0  0  0  0  0  0  0  0  0  0  0  0
  -28.9203  -22.7196   21.8376 C   0  0  0  0  0  0  0  0  0  0  0  0
  -22.5521   -7.9557   21.3951 C   0  0  0  0  0  0  0  0  0  0  0  0
  -26.6031  -24.9292   21.5754 C   0  0  0  0  0  0  0  0  0  0  0  0
  -21.2443   -6.3321   22.4795 C   0  0  0  0  0  0  0  0  0  0  0  0
  -27.5319  -22.7896   21.8619 C   0  0  0  0  0  0  0  0  0  1  0  0
  -20.5310   -5.0143   24.8326 C   0  0  0  0  0  0  0  0  0  0  0  0
  -21.4107   -4.9511   22.5834 C   0  0  0  0  0  0  0  0  0  0  0  0
  -25.5163  -10.9631   21.6533 C   0  0  0  0  0  0  0  0  0  0  0  0
  -26.8197  -21.7347   21.3144 C   0  0  0  0  0  0  0  0  0  0  0  0
  -28.7431  -20.6100   20.7535 C   0  0  0  0  0  0  0  0  0  0  0  0
  -26.7362  -12.6870   22.2657 C   0  0  0  0  0  0  0  0  0  0  0  0
  -24.7600  -12.2666   23.7375 C   0  0  0  0  0  0  0  0  0  0  0  0
  -26.7717  -30.1727   20.1821 C   0  0  0  0  0  0  0  0  0  0  0  0
  -23.7011  -30.4341   21.1947 C   0  0  0  0  0  0  0  0  0  0  0  0
  -20.9680  -28.9283   22.5767 C   0  0  0  0  0  0  0  0  0  0  0  0
  -29.6604  -15.1560   18.1147 C   0  0  0  0  0  0  0  0  0  0  0  0
  -27.8647  -35.1547   19.9749 C   0  0  0  0  0  0  0  0  0  0  0  0
  -25.6809  -28.2406   18.9851 C   0  0  0  0  0  0  0  0  0  0  0  0
  -24.9278  -28.3271   21.8434 C   0  0  0  0  0  0  0  0  0  0  0  0
  -27.1695  -34.2300   20.9709 C   0  0  0  0  0  0  0  0  0  0  0  0
  -30.3725  -11.6443   18.9105 C   0  0  0  0  0  0  0  0  0  0  0  0
  -28.0182  -32.9891   21.2292 C   0  0  0  0  0  0  0  0  0  0  0  0
  -29.1527  -11.2296   19.7345 C   0  0  0  0  0  0  0  0  0  0  0  0
  -28.2452  -17.3845   20.6735 C   0  0  0  0  0  0  0  0  0  0  0  0
  -30.0311  -12.7266   17.8889 C   0  0  0  0  0  0  0  0  0  0  0  0
  -28.0359  -16.1194   19.8478 C   0  0  0  0  0  0  0  0  0  0  0  0
  -28.1429  -13.4940   19.2741 C   0  0  0  0  0  0  0  0  0  0  0  0
  -29.5976  -17.5569   18.7254 C   0  0  0  0  0  0  0  0  0  0  0  0
  -28.2205  -32.1812   19.9416 C   0  0  1  0  0  0  0  0  0  0  0  0
  -25.4787  -29.5606   19.7227 C   0  0  1  0  0  0  0  0  0  0  0  0
  -28.4615  -12.4561   20.3591 C   0  0  1  0  0  0  0  0  0  0  0  0
  -28.6883  -18.3899   19.6163 C   0  0  2  0  0  0  0  0  0  0  0  0
  -29.7527  -23.8193   22.4084 C   0  0  0  0  0  0  0  0  0  0  0  0
  -25.3262  -21.7574   21.3176 C   0  0  0  0  0  0  0  0  0  0  0  0
  -18.6187  -29.4075   23.3172 C   0  0  0  0  0  0  0  0  0  0  0  0
  -24.7738  -31.8256   23.6892 C   0  0  0  0  0  0  0  0  0  0  0  0
  -22.5574  -31.4233   24.7819 C   0  0  0  0  0  0  0  0  0  0  0  0
  -22.6982  -32.8452   22.7371 C   0  0  0  0  0  0  0  0  0  0  0  0
  -19.8410  -26.9836   20.6514 C   0  0  0  0  0  0  0  0  0  0  0  0
  -23.0047  -30.3440   22.5311 C   0  0  1  0  0  0  0  0  0  0  0  0
  -19.5041  -28.9339   22.1751 C   0  0  2  0  0  0  0  0  0  0  0  0
  -23.2737  -31.5878   23.4245 C   0  0  0  0  0  0  0  0  0  0  0  0
  -26.5016  -11.0125   20.7529 N   0  0  0  0  0  0  0  0  0  0  0  0
  -27.3916  -20.6428   20.7589 N   0  0  0  0  0  0  0  0  0  0  0  0
  -27.2267  -12.0712   21.1519 N   0  0  0  0  0  0  0  0  0  0  0  0
  -24.6276  -29.4221   20.9062 N   0  0  0  0  0  0  0  0  0  0  0  0
  -29.3525  -13.8549   18.5269 N   0  0  0  0  0  0  0  0  0  0  0  0
  -29.0348  -16.2098   18.7797 N   0  0  0  0  0  0  0  0  0  0  0  0
  -27.3434  -13.7672   22.8014 N   0  0  0  0  0  0  0  0  0  0  0  0
  -23.6475  -11.4428   23.9564 N   0  0  0  0  0  0  0  0  0  0  0  0
  -29.3810  -19.5106   20.1953 N   0  0  0  0  0  0  0  0  0  0  0  0
  -27.0323  -31.4143   19.6342 N   0  0  0  0  0  0  0  0  0  0  0  0
  -21.5941  -30.1102   22.2414 N   0  0  0  0  0  0  0  0  0  0  0  0
  -19.0699  -27.5638   21.7809 N   0  3  0  0  0  0  0  0  0  0  0  0
  -24.9698  -13.2328   24.5095 O   0  0  0  0  0  0  0  0  0  0  0  0
  -27.4797  -29.5644   20.9760 O   0  0  0  0  0  0  0  0  0  0  0  0
  -23.4276  -31.3640   20.4317 O   0  0  0  0  0  0  0  0  0  0  0  0
  -21.5018  -27.9727   23.1356 O   0  0  0  0  0  0  0  0  0  0  0  0
  -30.4932  -15.3692   17.2236 O   0  0  0  0  0  0  0  0  0  0  0  0
  -21.5987   -6.9878   21.3124 O   0  0  0  0  0  0  0  0  0  0  0  0
  -26.8961  -23.8599   22.4068 O   0  0  0  0  0  0  0  0  0  1  0  0
  -20.1898   -4.3819   25.9630 F   0  0  0  0  0  0  0  0  0  0  0  0
  -21.9138   -4.2521   21.5566 F   0  0  0  0  0  0  0  0  0  0  0  0
  1  2  1  0  0  0  0
  1  5  2  0  0  0  0
  2  6  2  0  0  0  0
  3  8  2  0  0  0  0
  3 16  1  0  0  0  0
  4  9  1  0  0  0  0
  4 16  2  0  0  0  0
  5 18  1  0  0  0  0
  6 20  1  0  0  0  0
  7 10  2  0  0  0  0
  7 19  1  0  0  0  0
  8 23  1  0  0  0  0
  9 23  2  0  0  0  0
 10 24  1  0  0  0  0
 11 12  2  0  0  0  0
 11 25  1  0  0  0  0
 12 27  1  0  0  0  0
 13 21  1  0  0  0  0
 13 24  2  0  0  0  0
 14 22  2  0  0  0  0
 14 31  1  0  0  0  0
 15 27  2  0  0  0  0
 15 28  1  0  0  0  0
 16 29  1  0  0  0  0
 17 29  1  0  0  0  0
 17 32  2  0  0  0  0
 17 33  1  0  0  0  0
 18 20  2  0  0  0  0
 18 38  1  0  0  0  0
 19 21  2  0  0  0  0
 19 39  1  0  0  0  0
 20 50  1  0  0  0  0
 21 40  1  0  0  0  0
 22 26  1  0  0  0  0
 22 54  1  0  0  0  0
 23 81  1  0  0  0  0
 24 82  1  0  0  0  0
 25 28  2  0  0  0  0
 25 81  1  0  0  0  0
 26 30  2  0  0  0  0
 26 82  1  0  0  0  0
 27 83  1  0  0  0  0
 28 84  1  0  0  0  0
 29 64  2  0  0  0  0
 30 55  1  0  0  0  0
 30 65  1  0  0  0  0
 31 65  2  0  0  0  0
 31 72  1  0  0  0  0
 32 66  1  0  0  0  0
 32 70  1  0  0  0  0
 33 71  1  0  0  0  0
 33 76  2  0  0  0  0
 34 51  1  0  0  0  0
 34 73  1  0  0  0  0
 34 77  2  0  0  0  0
 35 61  1  0  0  0  0
 35 67  1  0  0  0  0
 35 78  2  0  0  0  0
 36 62  1  0  0  0  0
 36 74  1  0  0  0  0
 36 79  2  0  0  0  0
 37 68  1  0  0  0  0
 37 69  1  0  0  0  0
 37 80  2  0  0  0  0
 38 41  1  0  0  0  0
 39 51  1  0  0  0  0
 40 67  1  0  0  0  0
 41 43  1  0  0  0  0
 42 44  1  0  0  0  0
 42 46  1  0  0  0  0
 43 50  1  0  0  0  0
 44 52  1  0  0  0  0
 45 47  1  0  0  0  0
 45 53  1  0  0  0  0
 46 68  1  0  0  0  0
 47 69  1  0  0  0  0
 48 52  1  0  0  0  0
 48 68  1  0  0  0  0
 49 53  1  0  0  0  0
 49 69  1  0  0  0  0
 50 73  1  0  0  0  0
 51 67  1  0  0  0  0
 52 66  1  0  0  0  0
 53 72  1  0  0  0  0
 56 62  1  0  0  0  0
 57 63  1  0  0  0  0
 58 63  1  0  0  0  0
 59 63  1  0  0  0  0
 60 75  1  0  0  0  0
 61 63  1  0  0  0  0
 61 74  1  0  0  0  0
 62 75  1  0  0  0  0
 64 66  1  0  0  0  0
M  CHG  1  75   1
M  ISO  4  26 101  37 100  69 100  82 101
M  END
> <Batch ID>
0176

> <Smiles>
CNC(C)C(=O)NC(C(=O)N1Cc2cc([101O:1][101c:1]3c(C)cc(NC4CC[100N:0]([100C:0](=O)N5CCCC(n6nc(-c7ccc(Oc8ccc(F)cc8F)cc7)c(C(N)=O)c6N)C5)C4)nc3C)ccc2CC1C(=O)NC1CCCc2ccccc21)C(C)(C)C

> <Shape>
0.301

> <Color>
0.089

> <Negative vol penalty>
0.000

$$$$

  -OEChem-04052322503D

 81 90  0     1  0  0  0  0  0999 V2000
  -24.9539  -32.3610   28.6869 C   0  0  0  0  0  0  0  0  0  0  0  0
  -25.0128  -30.9728   28.7556 C   0  0  0  0  0  0  0  0  0  0  0  0
  -23.0009   -9.8894   19.9868 C   0  0  0  0  0  0  0  0  0  0  0  0
  -23.7259   -9.9527   22.2906 C   0  0  0  0  0  0  0  0  0  0  0  0
  -25.4808  -33.0260   27.5805 C   0  0  0  0  0  0  0  0  0  0  0  0
  -25.5976  -30.2486   27.7173 C   0  0  0  0  0  0  0  0  0  0  0  0
  -29.3804  -24.2866   26.5086 C   0  0  0  0  0  0  0  0  0  0  0  0
  -22.2353   -8.7556   20.2589 C   0  0  0  0  0  0  0  0  0  0  0  0
  -22.9603   -8.8189   22.5627 C   0  0  0  0  0  0  0  0  0  0  0  0
  -29.3617  -23.1419   25.7129 C   0  0  0  0  0  0  0  0  0  0  0  0
  -23.2075   -5.4779   22.1078 C   0  0  0  0  0  0  0  0  0  0  0  0
  -23.7959   -4.4650   22.8651 C   0  0  0  0  0  0  0  0  0  0  0  0
  -30.3101  -24.4024   23.8878 C   0  0  0  0  0  0  0  0  0  0  0  0
  -22.0717   -4.7149   24.5390 C   0  0  0  0  0  0  0  0  0  0  0  0
  -23.7462  -10.4879   21.0027 C   0  0  0  0  0  0  0  0  0  0  0  0
  -24.1293  -13.0029   20.8139 C   0  0  0  0  0  0  0  0  0  0  0  0
  -26.0811  -32.3103   26.5327 C   0  0  0  0  0  0  0  0  0  0  0  0
  -29.8548  -25.5024   25.9955 C   0  0  0  0  0  0  0  0  0  0  0  0
  -26.1319  -30.9046   26.5953 C   0  0  0  0  0  0  0  0  0  0  0  0
  -30.3362  -25.5604   24.6798 C   0  0  0  0  0  0  0  0  0  0  0  0
  -29.3903  -19.7729   23.2132 C   0  0  0  0  0  0  0  0  0  0  0  0
  -22.2150   -8.2204   21.5468 C   0  0  0  0  0  0  0  0  0  0  0  0
  -29.8239  -23.2003   24.4014 C   0  0  0  0  0  0  0  0  0  0  0  0
  -22.0513   -6.1093   22.5661 C   0  0  0  0  0  0  0  0  0  0  0  0
  -23.2280   -4.0835   24.0806 C   0  0  0  0  0  0  0  0  0  0  0  0
  -21.4834   -5.7278   23.7816 C   0  0  0  0  0  0  0  0  0  0  0  0
  -24.5377  -11.6588   20.7221 C   0  0  0  0  0  0  0  0  0  0  0  0
  -30.2828  -18.7398   23.1787 C   0  0  0  0  0  0  0  0  0  0  0  0
  -28.5750  -19.5422   22.0680 C   0  0  0  0  0  0  0  0  0  0  0  0
  -25.2385  -13.7246   20.4459 C   0  0  0  0  0  0  0  0  0  0  0  0
  -22.8609  -13.5502   21.1976 C   0  0  0  0  0  0  0  0  0  0  0  0
  -28.5843  -28.3718   25.4894 C   0  0  0  0  0  0  0  0  0  0  0  0
  -31.6361  -29.1572   24.7200 C   0  0  0  0  0  0  0  0  0  0  0  0
  -34.7103  -28.1308   23.6512 C   0  0  0  0  0  0  0  0  0  0  0  0
  -30.7340  -14.6653   20.6900 C   0  0  0  0  0  0  0  0  0  0  0  0
  -26.5945  -33.0701   25.3353 C   0  0  0  0  0  0  0  0  0  0  0  0
  -29.8933  -26.7219   26.8752 C   0  0  0  0  0  0  0  0  0  0  0  0
  -30.8746  -26.8365   24.0880 C   0  0  0  0  0  0  0  0  0  0  0  0
  -31.4486  -18.1644   23.8722 C   0  0  0  0  0  0  0  0  0  0  0  0
  -27.5328  -32.2523   24.4515 C   0  0  0  0  0  0  0  0  0  0  0  0
  -31.5296  -16.7469   23.2342 C   0  0  0  0  0  0  0  0  0  0  0  0
  -29.5956  -12.2287   18.3568 C   0  0  0  0  0  0  0  0  0  0  0  0
  -26.9495  -30.8670   24.1920 C   0  0  0  0  0  0  0  0  0  0  0  0
  -28.1473  -11.9698   18.7756 C   0  0  0  0  0  0  0  0  0  0  0  0
  -30.4977  -12.4710   19.5649 C   0  0  0  0  0  0  0  0  0  0  0  0
  -28.5868  -13.2717   20.8995 C   0  0  0  0  0  0  0  0  0  0  0  0
  -26.7805  -30.0855   25.5005 C   0  0  1  0  0  0  0  0  0  0  0  0
  -29.9196  -28.0272   26.0861 C   0  0  1  0  0  0  0  0  0  0  0  0
  -27.6280  -13.0771   19.7124 C   0  0  2  0  0  0  0  0  0  0  0  0
  -30.8148  -16.8503   21.8640 C   0  0  2  0  0  0  0  0  0  0  0  0
  -27.4390  -20.3576   21.6004 C   0  0  0  0  0  0  0  0  0  0  0  0
  -36.9917  -29.0073   23.0814 C   0  0  0  0  0  0  0  0  0  0  0  0
  -30.5604  -30.2299   22.0739 C   0  0  0  0  0  0  0  0  0  0  0  0
  -32.9030  -30.2027   21.1906 C   0  0  0  0  0  0  0  0  0  0  0  0
  -32.3224  -31.6513   23.1367 C   0  0  0  0  0  0  0  0  0  0  0  0
  -35.9909  -26.5031   25.7653 C   0  0  0  0  0  0  0  0  0  0  0  0
  -29.3006  -20.8881   24.2130 C   0  0  0  0  0  0  0  0  0  1  0  0
  -32.4557  -29.1463   23.4523 C   0  0  1  0  0  0  0  0  0  0  0  0
  -36.1066  -28.4222   24.1709 C   0  0  2  0  0  0  0  0  0  0  0  0
  -32.0485  -30.2838   22.4736 C   0  0  0  0  0  0  0  0  0  0  0  0
  -25.8071  -11.5314   20.3267 N   0  0  0  0  0  0  0  0  0  0  0  0
  -28.9311  -18.4489   21.3710 N   0  0  0  0  0  0  0  0  0  0  0  0
  -29.9512  -17.9983   22.0939 N   0  0  0  0  0  0  0  0  0  0  0  0
  -26.2059  -12.8047   20.1666 N   0  0  0  0  0  0  0  0  0  0  0  0
  -30.8855  -28.0032   24.9858 N   0  0  0  0  0  0  0  0  0  0  0  0
  -29.9499  -13.5336   20.4115 N   0  0  0  0  0  0  0  0  0  0  0  0
  -25.4708  -15.0500   20.3371 N   0  0  0  0  0  0  0  0  0  0  0  0
  -21.8298  -12.6669   21.5455 N   0  0  0  0  0  0  0  0  0  0  0  0
  -28.0549  -29.5638   25.9458 N   0  0  0  0  0  0  0  0  0  0  0  0
  -33.8531  -29.1886   23.8692 N   0  0  0  0  0  0  0  0  0  0  0  0
  -30.1368  -15.6276   21.4949 N   0  0  0  0  0  0  0  0  0  0  0  0
  -36.7437  -27.1722   24.6732 N   0  3  0  0  0  0  0  0  0  0  0  0
  -22.6431  -14.7854   21.2150 O   0  0  0  0  0  0  0  0  0  0  0  0
  -28.0730  -27.6131   24.6742 O   0  0  0  0  0  0  0  0  0  0  0  0
  -31.6666  -30.1502   25.4513 O   0  0  0  0  0  0  0  0  0  0  0  0
  -34.4111  -27.0723   23.1030 O   0  0  0  0  0  0  0  0  0  0  0  0
  -31.8793  -14.8099   20.2492 O   0  0  0  0  0  0  0  0  0  0  0  0
  -21.4679   -7.1142   21.8127 O   0  0  0  0  0  0  0  0  0  0  0  0
  -29.8061  -22.0847   23.6224 O   0  0  0  0  0  0  0  0  0  1  0  0
  -23.7923   -3.1098   24.8070 F   0  0  0  0  0  0  0  0  0  0  0  0
  -20.3719   -6.3300   24.2265 F   0  0  0  0  0  0  0  0  0  0  0  0
  1  2  1  0  0  0  0
  1  5  2  0  0  0  0
  2  6  2  0  0  0  0
  3  8  2  0  0  0  0
  3 15  1  0  0  0  0
  4  9  1  0  0  0  0
  4 15  2  0  0  0  0
  5 17  1  0  0  0  0
  6 19  1  0  0  0  0
  7 10  2  0  0  0  0
  7 18  1  0  0  0  0
  8 22  1  0  0  0  0
  9 22  2  0  0  0  0
 10 23  1  0  0  0  0
 11 12  2  0  0  0  0
 11 24  1  0  0  0  0
 12 25  1  0  0  0  0
 13 20  1  0  0  0  0
 13 23  2  0  0  0  0
 14 25  2  0  0  0  0
 14 26  1  0  0  0  0
 15 27  1  0  0  0  0
 16 27  1  0  0  0  0
 16 30  2  0  0  0  0
 16 31  1  0  0  0  0
 17 19  2  0  0  0  0
 17 36  1  0  0  0  0
 18 20  2  0  0  0  0
 18 37  1  0  0  0  0
 19 47  1  0  0  0  0
 20 38  1  0  0  0  0
 21 28  2  0  0  0  0
 21 29  1  0  0  0  0
 21 57  1  0  0  0  0
 22 78  1  0  0  0  0
 23 79  1  0  0  0  0
 24 26  2  0  0  0  0
 24 78  1  0  0  0  0
 25 80  1  0  0  0  0
 26 81  1  0  0  0  0
 27 61  2  0  0  0  0
 28 39  1  0  0  0  0
 28 63  1  0  0  0  0
 29 51  1  0  0  0  0
 29 62  2  0  0  0  0
 30 64  1  0  0  0  0
 30 67  1  0  0  0  0
 31 68  1  0  0  0  0
 31 73  2  0  0  0  0
 32 48  1  0  0  0  0
 32 69  1  0  0  0  0
 32 74  2  0  0  0  0
 33 58  1  0  0  0  0
 33 65  1  0  0  0  0
 33 75  2  0  0  0  0
 34 59  1  0  0  0  0
 34 70  1  0  0  0  0
 34 76  2  0  0  0  0
 35 66  1  0  0  0  0
 35 71  1  0  0  0  0
 35 77  2  0  0  0  0
 36 40  1  0  0  0  0
 37 48  1  0  0  0  0
 38 65  1  0  0  0  0
 39 41  1  0  0  0  0
 40 43  1  0  0  0  0
 41 50  1  0  0  0  0
 42 44  1  0  0  0  0
 42 45  1  0  0  0  0
 43 47  1  0  0  0  0
 44 49  1  0  0  0  0
 45 66  1  0  0  0  0
 46 49  1  0  0  0  0
 46 66  1  0  0  0  0
 47 69  1  0  0  0  0
 48 65  1  0  0  0  0
 49 64  1  0  0  0  0
 50 63  1  0  0  0  0
 50 71  1  0  0  0  0
 52 59  1  0  0  0  0
 53 60  1  0  0  0  0
 54 60  1  0  0  0  0
 55 60  1  0  0  0  0
 56 72  1  0  0  0  0
 57 79  1  0  0  0  0
 58 60  1  0  0  0  0
 58 70  1  0  0  0  0
 59 72  1  0  0  0  0
 61 64  1  0  0  0  0
 62 63  1  0  0  0  0
M  CHG  1  72   1
M  ISO  4  35 100  57 101  71 100  79 101
M  END
> <Batch ID>
0176

> <Smiles>
CNC(C)C(=O)NC(C(=O)N1Cc2cc([101O:1][101CH2:1]c3c(C)nn4c3CCC4[100NH:0][100C:0](=O)N3CCCC(n4nc(-c5ccc(Oc6ccc(F)cc6F)cc5)c(C(N)=O)c4N)C3)ccc2CC1C(=O)NC1CCCc2ccccc21)C(C)(C)C

> <Shape>
0.244

> <Color>
0.197

> <Negative vol penalty>
0.000

$$$$

  -OEChem-04052322503D

 85 94  0     1  0  0  0  0  0999 V2000
  -22.6526  -23.3030   20.0721 C   0  0  0  0  0  0  0  0  0  0  0  0
  -23.5554  -22.4550   19.4404 C   0  0  0  0  0  0  0  0  0  0  0  0
  -23.6907  -28.1318   20.5419 C   0  0  0  0  0  0  0  0  0  0  0  0
  -24.9231  -28.0321   22.6175 C   0  0  0  0  0  0  0  0  0  0  0  0
  -22.1012  -22.9388   21.2987 C   0  0  0  0  0  0  0  0  0  0  0  0
  -23.8979  -21.2373   20.0293 C   0  0  0  0  0  0  0  0  0  0  0  0
  -27.9287  -17.0023   18.3134 C   0  0  0  0  0  0  0  0  0  0  0  0
  -22.5609  -28.5684   21.2336 C   0  0  0  0  0  0  0  0  0  0  0  0
  -23.7933  -28.4688   23.3093 C   0  0  0  0  0  0  0  0  0  0  0  0
  -29.2702  -16.7036   18.5477 C   0  0  0  0  0  0  0  0  0  0  0  0
  -19.2466  -29.3649   22.5004 C   0  0  0  0  0  0  0  0  0  0  0  0
  -18.0223  -28.7771   22.1824 C   0  0  0  0  0  0  0  0  0  0  0  0
  -28.6154  -15.1298   20.2546 C   0  0  0  0  0  0  0  0  0  0  0  0
  -18.8952  -26.6155   22.8172 C   0  0  0  0  0  0  0  0  0  0  0  0
  -30.7967  -22.3251   23.8248 C   0  0  0  0  0  0  0  0  0  0  0  0
  -24.8718  -27.8636   21.2339 C   0  0  0  0  0  0  0  0  0  0  0  0
  -27.0527  -28.2102   19.9567 C   0  0  0  0  0  0  0  0  0  0  0  0
  -22.4472  -21.7215   21.9082 C   0  0  0  0  0  0  0  0  0  0  0  0
  -26.9193  -16.3740   19.0567 C   0  0  0  0  0  0  0  0  0  0  0  0
  -23.3338  -20.8410   21.2554 C   0  0  0  0  0  0  0  0  0  0  0  0
  -27.2617  -15.4205   20.0260 C   0  0  0  0  0  0  0  0  0  0  0  0
  -22.6122  -28.7369   22.6173 C   0  0  0  0  0  0  0  0  0  0  0  0
  -29.6139  -15.7694   19.5204 C   0  0  0  0  0  0  0  0  0  0  0  0
  -20.2953  -28.5780   22.9766 C   0  0  0  0  0  0  0  0  0  0  0  0
  -17.8466  -27.4024   22.3408 C   0  0  0  0  0  0  0  0  0  0  0  0
  -20.1196  -27.2033   23.1351 C   0  0  0  0  0  0  0  0  0  0  0  0
  -26.0391  -27.4120   20.5199 C   0  0  0  0  0  0  0  0  0  0  0  0
  -32.0354  -20.0161   23.3135 C   0  0  0  0  0  0  0  0  0  0  0  0
  -30.5342  -21.6177   22.6724 C   0  0  0  0  0  0  0  0  0  0  0  0
  -32.2985  -20.7240   24.4656 C   0  0  0  0  0  0  0  0  0  0  0  0
  -27.9262  -27.3107   19.3959 C   0  0  0  0  0  0  0  0  0  0  0  0
  -27.1923  -29.6371   19.9418 C   0  0  0  0  0  0  0  0  0  0  0  0
  -24.6601  -17.3674   21.0599 C   0  0  0  0  0  0  0  0  0  0  0  0
  -23.7331  -14.2612   20.9388 C   0  0  0  0  0  0  0  0  0  0  0  0
  -24.5772  -11.0065   20.3549 C   0  0  0  0  0  0  0  0  0  0  0  0
  -29.1855  -21.5837   20.5449 C   0  0  0  0  0  0  0  0  0  0  0  0
  -21.8145  -21.3736   23.2325 C   0  0  0  0  0  0  0  0  0  0  0  0
  -25.4757  -16.6876   18.7733 C   0  0  0  0  0  0  0  0  0  0  0  0
  -26.2150  -14.7030   20.8372 C   0  0  0  0  0  0  0  0  0  0  0  0
  -22.5699  -20.2821   23.9838 C   0  0  0  0  0  0  0  0  0  0  0  0
  -28.0614  -22.9372   17.4495 C   0  0  0  0  0  0  0  0  0  0  0  0
  -22.8406  -19.1057   23.0578 C   0  0  0  0  0  0  0  0  0  0  0  0
  -27.5130  -24.3135   17.8334 C   0  0  0  0  0  0  0  0  0  0  0  0
  -32.1706  -17.4525   23.6142 C   0  0  0  0  0  0  0  0  0  0  0  0
  -27.7717  -21.8912   18.5245 C   0  0  0  0  0  0  0  0  0  0  0  0
  -27.6569  -23.6330   20.2630 C   0  0  0  0  0  0  0  0  0  0  0  0
  -23.7446  -19.5254   21.8917 C   0  0  1  0  0  0  0  0  0  0  0  0
  -32.7206  -18.7329   23.0257 C   0  0  1  0  0  0  0  0  0  0  0  0
  -24.5532  -16.3658   19.9450 C   0  0  1  0  0  0  0  0  0  0  0  0
  -27.9811  -24.7342   19.2403 C   0  0  2  0  0  0  0  0  0  0  0  0
  -32.0351  -17.7109   22.1449 C   0  0  1  0  0  0  0  0  0  0  0  0
  -23.6161   -8.6884   20.3730 C   0  0  0  0  0  0  0  0  0  0  0  0
  -23.8637  -14.2335   23.9871 C   0  0  0  0  0  0  0  0  0  0  0  0
  -23.8369  -11.7317   23.8960 C   0  0  0  0  0  0  0  0  0  0  0  0
  -21.8976  -13.0308   23.0162 C   0  0  0  0  0  0  0  0  0  0  0  0
  -33.5690  -20.8920   26.6064 C   0  0  0  0  0  0  0  0  0  0  0  0
  -25.1158  -10.6354   17.4685 C   0  0  0  0  0  0  0  0  0  0  0  0
  -32.7226  -15.4465   21.3458 C   0  0  0  0  0  0  0  0  0  0  0  0
  -31.2757  -15.0829   21.0771 C   0  0  0  0  0  0  0  0  0  1  0  0
  -24.0686  -13.0141   21.7205 C   0  0  1  0  0  0  0  0  0  0  0  0
  -23.9032   -9.9230   19.5326 C   0  0  2  0  0  0  0  0  0  0  0  0
  -23.4368  -13.0173   23.1412 C   0  0  0  0  0  0  0  0  0  0  0  0
  -31.6837  -21.8910   24.7421 N   0  0  0  0  0  0  0  0  0  0  0  0
  -26.2480  -26.1060   20.3338 N   0  0  0  0  0  0  0  0  0  0  0  0
  -31.1488  -20.4504   22.3961 N   0  0  0  0  0  0  0  0  0  0  0  0
  -27.4029  -26.0766   19.6472 N   0  0  0  0  0  0  0  0  0  0  0  0
  -24.8178  -15.0486   20.5275 N   0  0  0  0  0  0  0  0  0  0  0  0
  -28.2465  -22.3566   19.8295 N   0  0  0  0  0  0  0  0  0  0  0  0
  -29.0831  -27.4630   18.7171 N   0  0  0  0  0  0  0  0  0  0  0  0
  -26.2042  -30.4116   20.5647 N   0  0  0  0  0  0  0  0  0  0  0  0
  -29.5879  -22.1424   21.7575 N   0  0  0  0  0  0  0  0  0  0  0  0
  -33.2394  -20.2179   25.3907 N   0  0  0  0  0  0  0  0  0  0  0  0
  -23.8066  -18.4465   20.9305 N   0  0  0  0  0  0  0  0  0  0  0  0
  -23.6605  -11.8880   20.8876 N   0  0  0  0  0  0  0  0  0  0  0  0
  -32.8897  -16.9165   21.2216 N   0  3  0  0  0  0  0  0  0  0  0  0
  -24.7732   -9.5224   18.3909 N   0  3  0  0  0  0  0  0  0  0  0  0
  -28.1560  -30.2090   19.3781 O   0  0  0  0  0  0  0  0  0  0  0  0
  -25.4567  -17.1747   21.9709 O   0  0  0  0  0  0  0  0  0  0  0  0
  -22.5524  -14.5232   20.6956 O   0  0  0  0  0  0  0  0  0  0  0  0
  -25.7948  -11.0629   20.5122 O   0  0  0  0  0  0  0  0  0  0  0  0
  -29.6224  -20.5188   20.1008 O   0  0  0  0  0  0  0  0  0  0  0  0
  -21.5100  -29.1632   23.2926 O   0  0  0  0  0  0  0  0  0  0  0  0
  -30.9226  -15.4764   19.7516 O   0  0  0  0  0  0  0  0  0  1  0  0
  -16.6703  -26.8383   22.0370 F   0  0  0  0  0  0  0  0  0  0  0  0
  -21.1230  -26.4424   23.5933 F   0  0  0  0  0  0  0  0  0  0  0  0
  1  2  1  0  0  0  0
  1  5  2  0  0  0  0
  2  6  2  0  0  0  0
  3  8  2  0  0  0  0
  3 16  1  0  0  0  0
  4  9  1  0  0  0  0
  4 16  2  0  0  0  0
  5 18  1  0  0  0  0
  6 20  1  0  0  0  0
  7 10  2  0  0  0  0
  7 19  1  0  0  0  0
  8 22  1  0  0  0  0
  9 22  2  0  0  0  0
 10 23  1  0  0  0  0
 11 12  2  0  0  0  0
 11 24  1  0  0  0  0
 12 25  1  0  0  0  0
 13 21  1  0  0  0  0
 13 23  2  0  0  0  0
 14 25  2  0  0  0  0
 14 26  1  0  0  0  0
 15 29  1  0  0  0  0
 15 63  2  0  0  0  0
 16 27  1  0  0  0  0
 17 27  1  0  0  0  0
 17 31  2  0  0  0  0
 17 32  1  0  0  0  0
 18 20  2  0  0  0  0
 18 37  1  0  0  0  0
 19 21  2  0  0  0  0
 19 38  1  0  0  0  0
 20 47  1  0  0  0  0
 21 39  1  0  0  0  0
 22 82  1  0  0  0  0
 23 83  1  0  0  0  0
 24 26  2  0  0  0  0
 24 82  1  0  0  0  0
 25 84  1  0  0  0  0
 26 85  1  0  0  0  0
 27 64  2  0  0  0  0
 28 30  2  0  0  0  0
 28 48  1  0  0  0  0
 28 65  1  0  0  0  0
 29 65  2  0  0  0  0
 29 71  1  0  0  0  0
 30 63  1  0  0  0  0
 30 72  1  0  0  0  0
 31 66  1  0  0  0  0
 31 69  1  0  0  0  0
 32 70  1  0  0  0  0
 32 77  2  0  0  0  0
 33 49  1  0  0  0  0
 33 73  1  0  0  0  0
 33 78  2  0  0  0  0
 34 60  1  0  0  0  0
 34 67  1  0  0  0  0
 34 79  2  0  0  0  0
 35 61  1  0  0  0  0
 35 74  1  0  0  0  0
 35 80  2  0  0  0  0
 36 68  1  0  0  0  0
 36 71  1  0  0  0  0
 36 81  2  0  0  0  0
 37 40  1  0  0  0  0
 38 49  1  0  0  0  0
 39 67  1  0  0  0  0
 40 42  1  0  0  0  0
 41 43  1  0  0  0  0
 41 45  1  0  0  0  0
 42 47  1  0  0  0  0
 43 50  1  0  0  0  0
 44 48  1  0  0  0  0
 44 51  1  0  0  0  0
 45 68  1  0  0  0  0
 46 50  1  0  0  0  0
 46 68  1  0  0  0  0
 47 73  1  0  0  0  0
 48 51  1  0  0  0  0
 49 67  1  0  0  0  0
 50 66  1  0  0  0  0
 51 75  1  0  0  0  0
 52 61  1  0  0  0  0
 53 62  1  0  0  0  0
 54 62  1  0  0  0  0
 55 62  1  0  0  0  0
 56 72  1  0  0  0  0
 57 76  1  0  0  0  0
 58 59  1  0  0  0  0
 58 75  1  0  0  0  0
 59 83  1  0  0  0  0
 60 62  1  0  0  0  0
 60 74  1  0  0  0  0
 61 76  1  0  0  0  0
 64 66  1  0  0  0  0
M  CHG  2  75   1  76   1
M  ISO  4  36 100  59 101  71 100  83 101
M  END
> <Batch ID>
0176

> <Smiles>
CNc1ncc([100NH:0][100C:0](=O)N2CCCC(n3nc(-c4ccc(Oc5ccc(F)cc5F)cc4)c(C(N)=O)c3N)C2)nc1C1CC1NC[101CH2:1][101O:1]c1ccc2c(c1)CN(C(=O)C(NC(=O)C(C)NC)C(C)(C)C)C(C(=O)NC1CCCc3ccccc31)C2

> <Shape>
0.219

> <Color>
0.069

> <Negative vol penalty>
0.000

$$$$

  -OEChem-04052322503D

 90 99  0     1  0  0  0  0  0999 V2000
  -24.7029   -9.8174   16.7632 C   0  0  0  0  0  0  0  0  0  0  0  0
  -24.3144  -11.1255   16.4921 C   0  0  0  0  0  0  0  0  0  0  0  0
  -29.0798  -26.2436   19.9843 C   0  0  0  0  0  0  0  0  0  0  0  0
  -27.1256  -25.0897   20.8129 C   0  0  0  0  0  0  0  0  0  0  0  0
  -24.4961   -9.2789   18.0325 C   0  0  0  0  0  0  0  0  0  0  0  0
  -23.7177  -11.8954   17.4899 C   0  0  0  0  0  0  0  0  0  0  0  0
  -23.2434  -18.6647   19.7851 C   0  0  0  0  0  0  0  0  0  0  0  0
  -29.8612  -25.1232   20.2666 C   0  0  0  0  0  0  0  0  0  0  0  0
  -27.9070  -23.9692   21.0952 C   0  0  0  0  0  0  0  0  0  0  0  0
  -22.2888  -19.6232   20.1224 C   0  0  0  0  0  0  0  0  0  0  0  0
  -29.3218  -20.6752   21.7001 C   0  0  0  0  0  0  0  0  0  0  0  0
  -28.8228  -19.4260   21.3313 C   0  0  0  0  0  0  0  0  0  0  0  0
  -22.0537  -18.6139   22.3007 C   0  0  0  0  0  0  0  0  0  0  0  0
  -22.1140  -23.9878   23.4671 C   0  0  0  0  0  0  0  0  0  0  0  0
  -20.2717  -22.6733   22.6532 C   0  0  0  0  0  0  0  0  0  0  0  0
  -28.7619  -20.1323   19.0216 C   0  0  0  0  0  0  0  0  0  0  0  0
  -27.7120  -26.2269   20.2575 C   0  0  0  0  0  0  0  0  0  0  0  0
  -26.7077  -27.9897   18.7111 C   0  0  0  0  0  0  0  0  0  0  0  0
  -23.9054  -10.0457   19.0492 C   0  0  0  0  0  0  0  0  0  0  0  0
  -23.6029  -17.6653   20.7008 C   0  0  0  0  0  0  0  0  0  0  0  0
  -23.5015  -11.3661   18.7736 C   0  0  0  0  0  0  0  0  0  0  0  0
  -23.0149  -17.6454   21.9736 C   0  0  0  0  0  0  0  0  0  0  0  0
  -20.7495  -23.8366   23.2465 C   0  0  0  0  0  0  0  0  0  0  0  0
  -29.2748  -23.9860   20.8220 C   0  0  0  0  0  0  0  0  0  0  0  0
  -21.6917  -19.5963   21.3792 C   0  0  0  0  0  0  0  0  0  0  0  0
  -29.5408  -21.6530   20.7297 C   0  0  0  0  0  0  0  0  0  0  0  0
  -28.5429  -19.1545   19.9921 C   0  0  0  0  0  0  0  0  0  0  0  0
  -29.2608  -21.3815   19.3905 C   0  0  0  0  0  0  0  0  0  0  0  0
  -26.9044  -27.3841   19.9666 C   0  0  0  0  0  0  0  0  0  0  0  0
  -22.9522  -22.9549   23.0791 C   0  0  0  0  0  0  0  0  0  0  0  0
  -21.1923  -21.6992   22.3017 C   0  0  0  0  0  0  0  0  0  1  0  0
  -25.8653  -29.0440   18.9666 C   0  0  0  0  0  0  0  0  0  0  0  0
  -27.2390  -27.6313   17.4285 C   0  0  0  0  0  0  0  0  0  0  0  0
  -23.4250  -14.4919   20.7424 C   0  0  0  0  0  0  0  0  0  0  0  0
  -25.0941  -14.8235   23.5041 C   0  0  0  0  0  0  0  0  0  0  0  0
  -25.9514  -16.7986   26.1519 C   0  0  0  0  0  0  0  0  0  0  0  0
  -21.8493  -30.1016   23.2799 C   0  0  0  0  0  0  0  0  0  0  0  0
  -23.6592   -9.4047   20.3920 C   0  0  0  0  0  0  0  0  0  0  0  0
  -24.6538  -16.6546   20.3313 C   0  0  0  0  0  0  0  0  0  0  0  0
  -23.3808  -16.6057   23.0000 C   0  0  0  0  0  0  0  0  0  0  0  0
  -23.3618  -10.4101   21.5015 C   0  0  0  0  0  0  0  0  0  0  0  0
  -24.6572  -32.1181   22.4280 C   0  0  0  0  0  0  0  0  0  0  0  0
  -22.3393  -11.4389   21.0297 C   0  0  0  0  0  0  0  0  0  0  0  0
  -25.5338  -31.1881   21.5873 C   0  0  0  0  0  0  0  0  0  0  0  0
  -18.6437  -27.2848   21.1329 C   0  0  0  0  0  0  0  0  0  0  0  0
  -23.9607  -31.3664   23.5601 C   0  0  0  0  0  0  0  0  0  0  0  0
  -24.0646  -29.2542   22.2945 C   0  0  0  0  0  0  0  0  0  0  0  0
  -22.8737  -12.2410   19.8369 C   0  0  1  0  0  0  0  0  0  0  0  0
  -24.5682  -15.3746   21.1569 C   0  0  1  0  0  0  0  0  0  0  0  0
  -24.7439  -29.9562   21.1061 C   0  0  2  0  0  0  0  0  0  0  0  0
  -19.8136  -28.7300   22.9031 C   0  0  2  0  0  0  0  0  0  0  0  0
  -19.6326  -26.1725   21.4867 C   0  0  1  0  0  0  0  0  0  0  0  0
  -19.5499  -27.4510   23.7263 C   0  0  2  0  0  0  0  0  0  0  0  0
  -19.0251  -28.7235   21.5582 C   0  0  0  0  0  0  0  0  0  0  0  0
  -24.4226  -23.0833   23.3005 C   0  0  0  0  0  0  0  0  0  0  0  0
  -20.8701  -26.1173   20.5967 C   0  0  0  0  0  0  0  0  0  0  0  0
  -19.7690  -29.4466   20.4154 C   0  0  0  0  0  0  0  0  0  0  0  0
  -17.7005  -29.5034   21.7686 C   0  0  0  0  0  0  0  0  0  0  0  0
  -19.6562  -28.6470   25.9171 C   0  0  0  0  0  0  0  0  0  0  0  0
  -27.3015  -16.7806   28.2671 C   0  0  0  0  0  0  0  0  0  0  0  0
  -22.9416  -13.1394   24.8608 C   0  0  0  0  0  0  0  0  0  0  0  0
  -23.8046  -13.9416   27.0698 C   0  0  0  0  0  0  0  0  0  0  0  0
  -25.2812  -12.6072   25.5659 C   0  0  0  0  0  0  0  0  0  0  0  0
  -27.6752  -19.0112   25.2075 C   0  0  0  0  0  0  0  0  0  0  0  0
  -19.7967  -24.9242   23.6467 C   0  0  0  0  0  0  0  0  0  0  0  0
  -20.2141  -27.5280   25.1048 C   0  0  0  0  0  0  0  0  0  0  0  0
  -24.7302  -14.9987   24.9587 C   0  0  1  0  0  0  0  0  0  0  0  0
  -27.2967  -17.1098   26.7824 C   0  0  2  0  0  0  0  0  0  0  0  0
  -24.1809  -13.6903   25.5940 C   0  0  0  0  0  0  0  0  0  0  0  0
  -26.2405  -28.0023   20.9469 N   0  0  0  0  0  0  0  0  0  0  0  0
  -22.5249  -21.8105   22.5000 N   0  0  0  0  0  0  0  0  0  0  0  0
  -25.6184  -29.0074   20.3074 N   0  0  0  0  0  0  0  0  0  0  0  0
  -24.4089  -15.6353   22.5890 N   0  0  0  0  0  0  0  0  0  0  0  0
  -23.2284  -30.2107   23.0367 N   0  0  0  0  0  0  0  0  0  0  0  0
  -25.3190  -29.9895   18.1728 N   0  0  0  0  0  0  0  0  0  0  0  0
  -26.5136  -26.7352   16.6316 N   0  0  0  0  0  0  0  0  0  0  0  0
  -23.8127  -13.2472   20.2844 N   0  0  0  0  0  0  0  0  0  0  0  0
  -25.9200  -15.5285   25.6161 N   0  0  0  0  0  0  0  0  0  0  0  0
  -21.2308  -28.9791   22.7430 N   0  0  0  0  0  0  0  0  0  0  0  0
  -20.0730  -26.2395   22.9522 N   0  3  1  0  0  0  0  0  0  0  0  0
  -27.6229  -18.5549   26.6204 N   0  3  0  0  0  0  0  0  0  0  0  0
  -28.3329  -28.0793   17.0087 O   0  0  0  0  0  0  0  0  0  0  0  0
  -22.2762  -14.9088   20.8329 O   0  0  0  0  0  0  0  0  0  0  0  0
  -25.9596  -14.0018   23.1920 O   0  0  0  0  0  0  0  0  0  0  0  0
  -25.0201  -17.6006   26.1394 O   0  0  0  0  0  0  0  0  0  0  0  0
  -21.2151  -30.9449   23.9229 O   0  0  0  0  0  0  0  0  0  0  0  0
  -30.0369  -22.8925   21.0974 O   0  0  0  0  0  0  0  0  0  0  0  0
  -20.7457  -20.5438   21.7155 O   0  0  0  0  0  0  0  0  0  1  0  0
  -28.0651  -17.9543   19.6378 F   0  0  0  0  0  0  0  0  0  0  0  0
  -29.4703  -22.3165   18.4536 F   0  0  0  0  0  0  0  0  0  0  0  0
  1  2  1  0  0  0  0
  1  5  2  0  0  0  0
  2  6  2  0  0  0  0
  3  8  2  0  0  0  0
  3 17  1  0  0  0  0
  4  9  1  0  0  0  0
  4 17  2  0  0  0  0
  5 19  1  0  0  0  0
  6 21  1  0  0  0  0
  7 10  2  0  0  0  0
  7 20  1  0  0  0  0
  8 24  1  0  0  0  0
  9 24  2  0  0  0  0
 10 25  1  0  0  0  0
 11 12  2  0  0  0  0
 11 26  1  0  0  0  0
 12 27  1  0  0  0  0
 13 22  1  0  0  0  0
 13 25  2  0  0  0  0
 14 23  1  0  0  0  0
 14 30  2  0  0  0  0
 15 23  2  0  0  0  0
 15 31  1  0  0  0  0
 16 27  2  0  0  0  0
 16 28  1  0  0  0  0
 17 29  1  0  0  0  0
 18 29  1  0  0  0  0
 18 32  2  0  0  0  0
 18 33  1  0  0  0  0
 19 21  2  0  0  0  0
 19 38  1  0  0  0  0
 20 22  2  0  0  0  0
 20 39  1  0  0  0  0
 21 48  1  0  0  0  0
 22 40  1  0  0  0  0
 23 65  1  0  0  0  0
 24 87  1  0  0  0  0
 25 88  1  0  0  0  0
 26 28  2  0  0  0  0
 26 87  1  0  0  0  0
 27 89  1  0  0  0  0
 28 90  1  0  0  0  0
 29 70  2  0  0  0  0
 30 55  1  0  0  0  0
 30 71  1  0  0  0  0
 31 71  2  0  0  0  0
 31 88  1  0  0  0  0
 32 72  1  0  0  0  0
 32 75  1  0  0  0  0
 33 76  1  0  0  0  0
 33 82  2  0  0  0  0
 34 49  1  0  0  0  0
 34 77  1  0  0  0  0
 34 83  2  0  0  0  0
 35 67  1  0  0  0  0
 35 73  1  0  0  0  0
 35 84  2  0  0  0  0
 36 68  1  0  0  0  0
 36 78  1  0  0  0  0
 36 85  2  0  0  0  0
 37 74  1  0  0  0  0
 37 79  1  0  0  0  0
 37 86  2  0  0  0  0
 38 41  1  0  0  0  0
 39 49  1  0  0  0  0
 40 73  1  0  0  0  0
 41 43  1  0  0  0  0
 42 44  1  0  0  0  0
 42 46  1  0  0  0  0
 43 48  1  0  0  0  0
 44 50  1  0  0  0  0
 45 52  1  0  0  0  0
 45 54  1  0  0  0  0
 46 74  1  0  0  0  0
 47 50  1  0  0  0  0
 47 74  1  0  0  0  0
 48 77  1  0  0  0  0
 49 73  1  0  0  0  0
 50 72  1  0  0  0  0
 51 53  1  0  0  0  0
 51 54  1  0  0  0  0
 51 79  1  0  0  0  0
 52 56  1  0  0  0  0
 52 80  1  0  0  0  0
 53 66  1  0  0  0  0
 53 80  1  0  0  0  0
 54 57  1  0  0  0  0
 54 58  1  0  0  0  0
 59 66  1  0  0  0  0
 60 68  1  0  0  0  0
 61 69  1  0  0  0  0
 62 69  1  0  0  0  0
 63 69  1  0  0  0  0
 64 81  1  0  0  0  0
 65 80  1  0  0  0  0
 67 69  1  0  0  0  0
 67 78  1  0  0  0  0
 68 81  1  0  0  0  0
 70 72  1  0  0  0  0
M  CHG  2  80   1  81   1
M  ISO  4  31 101  37 100  79 100  88 101
M  END
> <Batch ID>
0176

> <Smiles>
CCC1C([100NH:0][100C:0](=O)N2CCCC(n3nc(-c4ccc(Oc5ccc(F)cc5F)cc4)c(C(N)=O)c3N)C2)C(C)(C)CC(C)N1Cc1cc(C)n[101c:1]([101O:1]c2ccc3c(c2)CN(C(=O)C(NC(=O)C(C)NC)C(C)(C)C)C(C(=O)NC2CCCc4ccccc42)C3)c1

> <Shape>
0.210

> <Color>
0.061

> <Negative vol penalty>
0.000

$$$$

  -OEChem-04052322503D

 88 97  0     1  0  0  0  0  0999 V2000
  -28.7567  -37.4853   23.2939 C   0  0  0  0  0  0  0  0  0  0  0  0
  -29.1843  -36.3570   22.6013 C   0  0  0  0  0  0  0  0  0  0  0  0
  -24.9071  -14.1867   23.3733 C   0  0  0  0  0  0  0  0  0  0  0  0
  -24.2211  -15.3984   21.3988 C   0  0  0  0  0  0  0  0  0  0  0  0
  -27.7187  -37.3821   24.2190 C   0  0  0  0  0  0  0  0  0  0  0  0
  -28.5747  -35.1247   22.8343 C   0  0  0  0  0  0  0  0  0  0  0  0
  -26.7960  -29.0524   19.4757 C   0  0  0  0  0  0  0  0  0  0  0  0
  -24.5886  -15.2920   24.1623 C   0  0  0  0  0  0  0  0  0  0  0  0
  -23.9025  -16.5036   22.1878 C   0  0  0  0  0  0  0  0  0  0  0  0
  -26.9388  -27.6712   19.6001 C   0  0  0  0  0  0  0  0  0  0  0  0
  -24.2935  -17.9222   26.6560 C   0  0  0  0  0  0  0  0  0  0  0  0
  -25.2050  -18.3020   27.6412 C   0  0  0  0  0  0  0  0  0  0  0  0
  -25.1021  -27.6280   21.1633 C   0  0  0  0  0  0  0  0  0  0  0  0
  -26.1342  -22.9217   20.6227 C   0  0  0  0  0  0  0  0  0  0  0  0
  -26.8919  -18.6489   25.9467 C   0  0  0  0  0  0  0  0  0  0  0  0
  -24.7235  -14.2399   21.9915 C   0  0  0  0  0  0  0  0  0  0  0  0
  -24.2025  -12.0353   20.8186 C   0  0  0  0  0  0  0  0  0  0  0  0
  -27.0896  -36.1498   24.4564 C   0  0  0  0  0  0  0  0  0  0  0  0
  -25.8105  -29.7345   20.2038 C   0  0  0  0  0  0  0  0  0  0  0  0
  -27.5282  -35.0047   23.7644 C   0  0  0  0  0  0  0  0  0  0  0  0
  -24.9471  -29.0176   21.0445 C   0  0  0  0  0  0  0  0  0  0  0  0
  -26.1194  -21.5468   20.8295 C   0  0  0  0  0  0  0  0  0  0  0  0
  -27.2405  -23.5177   20.0276 C   0  0  0  0  0  0  0  0  0  0  0  0
  -24.0862  -16.4504   23.5696 C   0  0  0  0  0  0  0  0  0  0  0  0
  -26.0937  -26.9591   20.4462 C   0  0  0  0  0  0  0  0  0  0  0  0
  -24.6813  -17.9056   25.3162 C   0  0  0  0  0  0  0  0  0  0  0  0
  -26.5041  -18.6654   27.2866 C   0  0  0  0  0  0  0  0  0  0  0  0
  -25.9804  -18.2690   24.9616 C   0  0  0  0  0  0  0  0  0  0  0  0
  -25.0529  -13.0987   21.1759 C   0  0  0  0  0  0  0  0  0  0  0  0
  -27.2270  -20.8184   20.4265 C   0  0  0  0  0  0  0  0  0  0  0  0
  -28.2980  -22.7011   19.6607 C   0  0  0  0  0  0  0  0  0  0  0  0
  -24.9852  -11.2156   20.0426 C   0  0  0  0  0  0  0  0  0  0  0  0
  -22.8280  -11.8087   21.1576 C   0  0  0  0  0  0  0  0  0  0  0  0
  -25.8333  -32.0062   22.4270 C   0  0  0  0  0  0  0  0  0  0  0  0
  -22.6165  -31.8866   22.0271 C   0  0  0  0  0  0  0  0  0  0  0  0
  -19.8830  -30.0913   21.0512 C   0  0  0  0  0  0  0  0  0  0  0  0
  -29.5533  -14.3094   19.8981 C   0  0  0  0  0  0  0  0  0  0  0  0
  -26.0035  -36.0784   25.5004 C   0  0  0  0  0  0  0  0  0  0  0  0
  -25.6520  -31.2210   20.0381 C   0  0  0  0  0  0  0  0  0  0  0  0
  -23.8599  -29.7000   21.8324 C   0  0  0  0  0  0  0  0  0  0  0  0
  -25.1594  -34.8093   25.4153 C   0  0  0  0  0  0  0  0  0  0  0  0
  -29.1621  -10.9662   21.0967 C   0  0  0  0  0  0  0  0  0  0  0  0
  -30.2681  -16.1925   16.8826 C   0  0  0  0  0  0  0  0  0  0  0  0
  -26.0534  -33.5827   25.2639 C   0  0  0  0  0  0  0  0  0  0  0  0
  -28.2300  -10.2976   20.0923 C   0  0  0  0  0  0  0  0  0  0  0  0
  -29.5620  -17.2797   17.6804 C   0  0  0  0  0  0  0  0  0  0  0  0
  -30.0859  -11.9512   20.3971 C   0  0  0  0  0  0  0  0  0  0  0  0
  -29.6404  -14.9192   17.4283 C   0  0  0  0  0  0  0  0  0  0  0  0
  -28.3581  -12.4226   18.6713 C   0  0  0  0  0  0  0  0  0  0  0  0
  -26.8755  -33.6552   23.9714 C   0  0  1  0  0  0  0  0  0  0  0  0
  -24.9481  -31.8822   21.2192 C   0  0  1  0  0  0  0  0  0  0  0  0
  -27.4463  -11.3149   19.2477 C   0  0  2  0  0  0  0  0  0  0  0  0
  -29.4268  -16.6610   19.0745 C   0  0  1  0  0  0  0  0  0  0  0  0
  -24.9372  -20.9022   21.4665 C   0  0  0  0  0  0  0  0  0  0  0  0
  -29.5115  -23.2871   19.0163 C   0  0  0  0  0  0  0  0  0  0  0  0
  -17.3845  -30.2462   20.8759 C   0  0  0  0  0  0  0  0  0  0  0  0
  -26.9151  -16.5059   19.2784 C   0  0  0  0  0  0  0  0  0  0  0  0
  -22.3823  -31.4839   25.0425 C   0  0  0  0  0  0  0  0  0  0  0  0
  -20.0285  -30.7087   24.6860 C   0  0  0  0  0  0  0  0  0  0  0  0
  -20.6821  -33.0338   24.0619 C   0  0  0  0  0  0  0  0  0  0  0  0
  -19.9500  -29.7203   18.1158 C   0  0  0  0  0  0  0  0  0  0  0  0
  -27.2628  -24.9903   19.8035 C   0  0  0  0  0  0  0  0  0  1  0  0
  -27.2683  -19.3318   20.6250 C   0  0  0  0  0  0  0  0  0  0  0  0
  -21.4902  -31.0980   22.6506 C   0  0  1  0  0  0  0  0  0  0  0  0
  -18.7094  -30.4493   20.1574 C   0  0  2  0  0  0  0  0  0  0  0  0
  -28.1835  -17.1592   19.8000 C   0  0  2  0  0  0  0  0  0  0  0  0
  -21.1674  -31.5682   24.0970 C   0  0  0  0  0  0  0  0  0  0  0  0
  -26.2818  -12.9690   20.6688 N   0  0  0  0  0  0  0  0  0  0  0  0
  -28.3198  -21.3620   19.8453 N   0  0  0  0  0  0  0  0  0  0  0  0
  -26.2092  -11.8144   19.9849 N   0  0  0  0  0  0  0  0  0  0  0  0
  -23.7490  -31.1555   21.6414 N   0  0  0  0  0  0  0  0  0  0  0  0
  -29.3412  -12.9491   19.6291 N   0  0  0  0  0  0  0  0  0  0  0  0
  -29.4023  -15.2118   18.8426 N   0  0  0  0  0  0  0  0  0  0  0  0
  -24.7389  -10.0483   19.4109 N   0  0  0  0  0  0  0  0  0  0  0  0
  -22.1746  -12.7508   21.9637 N   0  0  0  0  0  0  0  0  0  0  0  0
  -26.0551  -33.3090   22.8306 N   0  0  0  0  0  0  0  0  0  0  0  0
  -20.3653  -31.1926   21.7265 N   0  0  0  0  0  0  0  0  0  0  0  0
  -18.7142  -29.6015   18.9318 N   0  3  0  0  0  0  0  0  0  0  0  0
  -28.0787  -18.6289   19.5957 N   0  3  0  0  0  0  0  0  0  0  0  0
  -22.2026  -10.7923   20.7712 O   0  0  0  0  0  0  0  0  0  0  0  0
  -26.2807  -30.9947   22.9546 O   0  0  0  0  0  0  0  0  0  0  0  0
  -22.4929  -33.1052   21.8809 O   0  0  0  0  0  0  0  0  0  0  0  0
  -20.3252  -28.9484   21.1442 O   0  0  0  0  0  0  0  0  0  0  0  0
  -29.8733  -14.7001   21.0286 O   0  0  0  0  0  0  0  0  0  0  0  0
  -23.7750  -17.5290   24.3392 O   0  0  0  0  0  0  0  0  0  0  0  0
  -26.2323  -25.6019   20.5708 O   0  0  0  0  0  0  0  0  0  1  0  0
  -27.3788  -19.0316   28.2326 F   0  0  0  0  0  0  0  0  0  0  0  0
  -26.3584  -18.2562   23.6759 F   0  0  0  0  0  0  0  0  0  0  0  0
  1  2  1  0  0  0  0
  1  5  2  0  0  0  0
  2  6  2  0  0  0  0
  3  8  2  0  0  0  0
  3 16  1  0  0  0  0
  4  9  1  0  0  0  0
  4 16  2  0  0  0  0
  5 18  1  0  0  0  0
  6 20  1  0  0  0  0
  7 10  2  0  0  0  0
  7 19  1  0  0  0  0
  8 24  1  0  0  0  0
  9 24  2  0  0  0  0
 10 25  1  0  0  0  0
 11 12  2  0  0  0  0
 11 26  1  0  0  0  0
 12 27  1  0  0  0  0
 13 21  1  0  0  0  0
 13 25  2  0  0  0  0
 14 22  2  0  0  0  0
 14 23  1  0  0  0  0
 15 27  2  0  0  0  0
 15 28  1  0  0  0  0
 16 29  1  0  0  0  0
 17 29  1  0  0  0  0
 17 32  2  0  0  0  0
 17 33  1  0  0  0  0
 18 20  2  0  0  0  0
 18 38  1  0  0  0  0
 19 21  2  0  0  0  0
 19 39  1  0  0  0  0
 20 50  1  0  0  0  0
 21 40  1  0  0  0  0
 22 30  1  0  0  0  0
 22 54  1  0  0  0  0
 23 31  2  0  0  0  0
 23 62  1  0  0  0  0
 24 85  1  0  0  0  0
 25 86  1  0  0  0  0
 26 28  2  0  0  0  0
 26 85  1  0  0  0  0
 27 87  1  0  0  0  0
 28 88  1  0  0  0  0
 29 68  2  0  0  0  0
 30 63  1  0  0  0  0
 30 69  2  0  0  0  0
 31 55  1  0  0  0  0
 31 69  1  0  0  0  0
 32 70  1  0  0  0  0
 32 74  1  0  0  0  0
 33 75  1  0  0  0  0
 33 80  2  0  0  0  0
 34 51  1  0  0  0  0
 34 76  1  0  0  0  0
 34 81  2  0  0  0  0
 35 64  1  0  0  0  0
 35 71  1  0  0  0  0
 35 82  2  0  0  0  0
 36 65  1  0  0  0  0
 36 77  1  0  0  0  0
 36 83  2  0  0  0  0
 37 72  1  0  0  0  0
 37 73  1  0  0  0  0
 37 84  2  0  0  0  0
 38 41  1  0  0  0  0
 39 51  1  0  0  0  0
 40 71  1  0  0  0  0
 41 44  1  0  0  0  0
 42 45  1  0  0  0  0
 42 47  1  0  0  0  0
 43 46  1  0  0  0  0
 43 48  1  0  0  0  0
 44 50  1  0  0  0  0
 45 52  1  0  0  0  0
 46 53  1  0  0  0  0
 47 72  1  0  0  0  0
 48 73  1  0  0  0  0
 49 52  1  0  0  0  0
 49 72  1  0  0  0  0
 50 76  1  0  0  0  0
 51 71  1  0  0  0  0
 52 70  1  0  0  0  0
 53 66  1  0  0  0  0
 53 73  1  0  0  0  0
 56 65  1  0  0  0  0
 57 66  1  0  0  0  0
 58 67  1  0  0  0  0
 59 67  1  0  0  0  0
 60 67  1  0  0  0  0
 61 78  1  0  0  0  0
 62 86  1  0  0  0  0
 63 79  1  0  0  0  0
 64 67  1  0  0  0  0
 64 77  1  0  0  0  0
 65 78  1  0  0  0  0
 66 79  1  0  0  0  0
 68 70  1  0  0  0  0
M  CHG  2  78   1  79   1
M  ISO  4  37 100  62 101  73 100  86 101
M  END
> <Batch ID>
0176

> <Smiles>
CNC(C)C(=O)NC(C(=O)N1Cc2cc([101O:1][101CH2:1]c3cc(C)c(CNC(C)C4CCC[100N:0]4[100C:0](=O)N4CCCC(n5nc(-c6ccc(Oc7ccc(F)cc7F)cc6)c(C(N)=O)c5N)C4)nc3C)ccc2CC1C(=O)NC1CCCc2ccccc21)C(C)(C)C

> <Shape>
0.262

> <Color>
0.082

> <Negative vol penalty>
0.000

$$$$

  -OEChem-04052322503D

 87 96  0     1  0  0  0  0  0999 V2000
  -33.1616  -29.6339   19.6289 C   0  0  0  0  0  0  0  0  0  0  0  0
  -32.2657  -28.5807   19.4758 C   0  0  0  0  0  0  0  0  0  0  0  0
  -24.4425   -8.5312   20.5890 C   0  0  0  0  0  0  0  0  0  0  0  0
  -23.0389  -10.4274   21.1100 C   0  0  0  0  0  0  0  0  0  0  0  0
  -32.9520  -30.5867   20.6250 C   0  0  0  0  0  0  0  0  0  0  0  0
  -31.1602  -28.4790   20.3195 C   0  0  0  0  0  0  0  0  0  0  0  0
  -26.8981  -27.3838   17.8135 C   0  0  0  0  0  0  0  0  0  0  0  0
  -23.4096   -7.6670   20.9518 C   0  0  0  0  0  0  0  0  0  0  0  0
  -22.0060   -9.5631   21.4728 C   0  0  0  0  0  0  0  0  0  0  0  0
  -26.7122  -26.0587   17.4221 C   0  0  0  0  0  0  0  0  0  0  0  0
  -22.0631   -6.4551   23.8054 C   0  0  0  0  0  0  0  0  0  0  0  0
  -22.3862   -5.3615   24.6085 C   0  0  0  0  0  0  0  0  0  0  0  0
  -25.2528  -25.7117   19.3113 C   0  0  0  0  0  0  0  0  0  0  0  0
  -21.5887   -3.8633   22.8890 C   0  0  0  0  0  0  0  0  0  0  0  0
  -27.2561  -20.8106   18.4075 C   0  0  0  0  0  0  0  0  0  0  0  0
  -24.2572   -9.9115   20.6681 C   0  0  0  0  0  0  0  0  0  0  0  0
  -25.5748  -11.3416   19.0169 C   0  0  0  0  0  0  0  0  0  0  0  0
  -31.8381  -30.5019   21.4751 C   0  0  0  0  0  0  0  0  0  0  0  0
  -26.2703  -27.8806   18.9648 C   0  0  0  0  0  0  0  0  0  0  0  0
  -30.9362  -29.4307   21.3288 C   0  0  0  0  0  0  0  0  0  0  0  0
  -25.4303  -27.0442   19.7137 C   0  0  0  0  0  0  0  0  0  0  0  0
  -28.2875  -21.1421   19.2623 C   0  0  0  0  0  0  0  0  0  0  0  0
  -22.1913   -8.1829   21.3937 C   0  0  0  0  0  0  0  0  0  0  0  0
  -25.8918  -25.2216   18.1726 C   0  0  0  0  0  0  0  0  0  0  0  0
  -21.5027   -6.2529   22.5441 C   0  0  0  0  0  0  0  0  0  0  0  0
  -22.1490   -4.0655   24.1503 C   0  0  0  0  0  0  0  0  0  0  0  0
  -21.2655   -4.9570   22.0859 C   0  0  0  0  0  0  0  0  0  0  0  0
  -25.3240  -10.8048   20.2939 C   0  0  0  0  0  0  0  0  0  0  0  0
  -28.3877  -22.4798   19.5864 C   0  0  0  0  0  0  0  0  0  0  0  0
  -26.6917  -12.1229   19.1862 C   0  0  0  0  0  0  0  0  0  0  0  0
  -26.5865  -22.9799   18.2931 C   0  0  0  0  0  0  0  0  0  1  0  0
  -24.8619  -11.1511   17.7876 C   0  0  0  0  0  0  0  0  0  0  0  0
  -27.2800  -29.0788   21.7304 C   0  0  0  0  0  0  0  0  0  0  0  0
  -24.1196  -29.6453   22.1926 C   0  0  0  0  0  0  0  0  0  0  0  0
  -20.8908  -28.8353   21.4407 C   0  0  0  0  0  0  0  0  0  0  0  0
  -29.5932  -15.9009   22.0937 C   0  0  0  0  0  0  0  0  0  0  0  0
  -31.6791  -31.5292   22.5679 C   0  0  0  0  0  0  0  0  0  0  0  0
  -26.4598  -29.3199   19.3587 C   0  0  0  0  0  0  0  0  0  0  0  0
  -24.7174  -27.5345   20.9465 C   0  0  0  0  0  0  0  0  0  0  0  0
  -30.2802  -31.5577   23.1782 C   0  0  0  0  0  0  0  0  0  0  0  0
  -29.8888  -12.4950   23.0884 C   0  0  0  0  0  0  0  0  0  0  0  0
  -29.8034  -30.1420   23.4867 C   0  0  0  0  0  0  0  0  0  0  0  0
  -28.7449  -11.7977   22.3499 C   0  0  0  0  0  0  0  0  0  0  0  0
  -30.0446  -19.3553   18.6979 C   0  0  0  0  0  0  0  0  0  0  0  0
  -29.4930  -13.8969   23.5465 C   0  0  0  0  0  0  0  0  0  0  0  0
  -27.8227  -14.0737   21.7431 C   0  0  0  0  0  0  0  0  0  0  0  0
  -29.2328  -20.0893   19.7936 C   0  0  2  0  0  0  0  0  0  0  0  0
  -29.7118  -29.2999   22.2085 C   0  0  1  0  0  0  0  0  0  0  0  0
  -26.1800  -29.5768   20.8362 C   0  0  1  0  0  0  0  0  0  0  0  0
  -28.1927  -12.6780   21.2126 C   0  0  2  0  0  0  0  0  0  0  0  0
  -29.5747  -17.8422   20.5477 C   0  0  2  0  0  0  0  0  0  0  0  0
  -28.5451  -18.9671   20.5801 C   0  0  1  0  0  0  0  0  0  0  0  0
  -30.0503  -17.8471   19.0744 C   0  0  0  0  0  0  0  0  0  0  0  0
  -29.1032  -17.0764   18.1334 C   0  0  0  0  0  0  0  0  0  0  0  0
  -31.4580  -17.2516   18.9445 C   0  0  0  0  0  0  0  0  0  0  0  0
  -29.2271  -24.3816   20.9882 C   0  0  0  0  0  0  0  0  0  0  0  0
  -18.5236  -29.4478   22.0052 C   0  0  0  0  0  0  0  0  0  0  0  0
  -24.3670  -28.1507   24.8412 C   0  0  0  0  0  0  0  0  0  0  0  0
  -21.8707  -27.9656   24.8900 C   0  0  0  0  0  0  0  0  0  0  0  0
  -22.9542  -30.2121   24.9346 C   0  0  0  0  0  0  0  0  0  0  0  0
  -20.3064  -29.6236   18.6486 C   0  0  0  0  0  0  0  0  0  0  0  0
  -29.4662  -22.9548   20.5031 C   0  0  0  0  0  0  0  0  0  0  0  0
  -22.9711  -28.8703   22.7919 C   0  0  1  0  0  0  0  0  0  0  0  0
  -19.6966  -29.6960   21.0697 C   0  0  2  0  0  0  0  0  0  0  0  0
  -23.0556  -28.7896   24.3423 C   0  0  0  0  0  0  0  0  0  0  0  0
  -26.3838  -21.7073   17.9021 N   0  0  0  0  0  0  0  0  0  0  0  0
  -26.2104  -11.2107   21.2070 N   0  0  0  0  0  0  0  0  0  0  0  0
  -27.5513  -23.4292   19.1182 N   0  0  0  0  0  0  0  0  0  0  0  0
  -27.0291  -12.0107   20.5029 N   0  0  0  0  0  0  0  0  0  0  0  0
  -24.9396  -28.9477   21.2943 N   0  0  0  0  0  0  0  0  0  0  0  0
  -28.9791  -14.6806   22.4206 N   0  0  0  0  0  0  0  0  0  0  0  0
  -27.4084  -12.8880   18.3356 N   0  0  0  0  0  0  0  0  0  0  0  0
  -23.7363  -10.3161   17.7906 N   0  0  0  0  0  0  0  0  0  0  0  0
  -28.5162  -29.6368   21.4658 N   0  0  0  0  0  0  0  0  0  0  0  0
  -21.7516  -29.4957   22.2917 N   0  0  0  0  0  0  0  0  0  0  0  0
  -29.0481  -16.5771   21.0091 N   0  0  0  0  0  0  0  0  0  0  0  0
  -28.2634  -19.3895   21.9701 N   0  3  0  0  0  0  0  0  0  0  0  0
  -19.2576  -29.3999   19.6767 N   0  3  0  0  0  0  0  0  0  0  0  0
  -25.2223  -11.6919   16.7147 O   0  0  0  0  0  0  0  0  0  0  0  0
  -27.0257  -28.2508   22.5973 O   0  0  0  0  0  0  0  0  0  0  0  0
  -24.2791  -30.8281   22.5044 O   0  0  0  0  0  0  0  0  0  0  0  0
  -21.0428  -27.6902   21.0209 O   0  0  0  0  0  0  0  0  0  0  0  0
  -30.5593  -16.3516   22.7185 O   0  0  0  0  0  0  0  0  0  0  0  0
  -21.1831   -7.3398   21.7477 O   0  0  0  0  0  0  0  0  0  0  0  0
  -25.7091  -23.9275   17.7931 O   0  0  0  0  0  0  0  0  0  1  0  0
  -22.4608   -3.0153   24.9210 F   0  0  0  0  0  0  0  0  0  0  0  0
  -20.7285   -4.7564   20.8746 F   0  0  0  0  0  0  0  0  0  0  0  0
  1  2  1  0  0  0  0
  1  5  2  0  0  0  0
  2  6  2  0  0  0  0
  3  8  2  0  0  0  0
  3 16  1  0  0  0  0
  4  9  1  0  0  0  0
  4 16  2  0  0  0  0
  5 18  1  0  0  0  0
  6 20  1  0  0  0  0
  7 10  2  0  0  0  0
  7 19  1  0  0  0  0
  8 23  1  0  0  0  0
  9 23  2  0  0  0  0
 10 24  1  0  0  0  0
 11 12  2  0  0  0  0
 11 25  1  0  0  0  0
 12 26  1  0  0  0  0
 13 21  1  0  0  0  0
 13 24  2  0  0  0  0
 14 26  2  0  0  0  0
 14 27  1  0  0  0  0
 15 22  1  0  0  0  0
 15 66  2  0  0  0  0
 16 28  1  0  0  0  0
 17 28  1  0  0  0  0
 17 30  2  0  0  0  0
 17 32  1  0  0  0  0
 18 20  2  0  0  0  0
 18 37  1  0  0  0  0
 19 21  2  0  0  0  0
 19 38  1  0  0  0  0
 20 48  1  0  0  0  0
 21 39  1  0  0  0  0
 22 29  2  0  0  0  0
 22 47  1  0  0  0  0
 23 84  1  0  0  0  0
 24 85  1  0  0  0  0
 25 27  2  0  0  0  0
 25 84  1  0  0  0  0
 26 86  1  0  0  0  0
 27 87  1  0  0  0  0
 28 67  2  0  0  0  0
 29 62  1  0  0  0  0
 29 68  1  0  0  0  0
 30 69  1  0  0  0  0
 30 72  1  0  0  0  0
 31 66  1  0  0  0  0
 31 68  2  0  0  0  0
 31 85  1  0  0  0  0
 32 73  1  0  0  0  0
 32 79  2  0  0  0  0
 33 49  1  0  0  0  0
 33 74  1  0  0  0  0
 33 80  2  0  0  0  0
 34 63  1  0  0  0  0
 34 70  1  0  0  0  0
 34 81  2  0  0  0  0
 35 64  1  0  0  0  0
 35 75  1  0  0  0  0
 35 82  2  0  0  0  0
 36 71  1  0  0  0  0
 36 76  1  0  0  0  0
 36 83  2  0  0  0  0
 37 40  1  0  0  0  0
 38 49  1  0  0  0  0
 39 70  1  0  0  0  0
 40 42  1  0  0  0  0
 41 43  1  0  0  0  0
 41 45  1  0  0  0  0
 42 48  1  0  0  0  0
 43 50  1  0  0  0  0
 44 47  1  0  0  0  0
 44 53  1  0  0  0  0
 45 71  1  0  0  0  0
 46 50  1  0  0  0  0
 46 71  1  0  0  0  0
 47 52  1  0  0  0  0
 48 74  1  0  0  0  0
 49 70  1  0  0  0  0
 50 69  1  0  0  0  0
 51 52  1  0  0  0  0
 51 53  1  0  0  0  0
 51 76  1  0  0  0  0
 52 77  1  0  0  0  0
 53 54  1  0  0  0  0
 53 55  1  0  0  0  0
 56 62  1  0  0  0  0
 57 64  1  0  0  0  0
 58 65  1  0  0  0  0
 59 65  1  0  0  0  0
 60 65  1  0  0  0  0
 61 78  1  0  0  0  0
 63 65  1  0  0  0  0
 63 75  1  0  0  0  0
 64 78  1  0  0  0  0
 67 69  1  0  0  0  0
M  CHG  2  77   1  78   1
M  ISO  4  31 101  36 100  76 100  85 101
M  END
> <Batch ID>
0176

> <Smiles>
CCc1n[101c:1]([101O:1]c2ccc3c(c2)CN(C(=O)C(NC(=O)C(C)NC)C(C)(C)C)C(C(=O)NC2CCCc4ccccc42)C3)ncc1C1CC(C)(C)C([100NH:0][100C:0](=O)N2CCCC(n3nc(-c4ccc(Oc5ccc(F)cc5F)cc4)c(C(N)=O)c3N)C2)C1N

> <Shape>
0.277

> <Color>
0.087

> <Negative vol penalty>
0.000

$$$$

  -OEChem-04052322503D

 84 93  0     1  0  0  0  0  0999 V2000
  -22.4637   -8.2967   20.6011 C   0  0  0  0  0  0  0  0  0  0  0  0
  -21.9241   -9.5567   20.8395 C   0  0  0  0  0  0  0  0  0  0  0  0
  -22.1367  -24.3723   22.2333 C   0  0  0  0  0  0  0  0  0  0  0  0
  -21.7868  -25.5031   20.1272 C   0  0  0  0  0  0  0  0  0  0  0  0
  -23.7938   -8.0361   20.9278 C   0  0  0  0  0  0  0  0  0  0  0  0
  -22.7142  -10.5564   21.4059 C   0  0  0  0  0  0  0  0  0  0  0  0
  -23.6531  -17.6575   21.3064 C   0  0  0  0  0  0  0  0  0  0  0  0
  -21.8782  -23.1472   21.6185 C   0  0  0  0  0  0  0  0  0  0  0  0
  -21.5284  -24.2781   19.5123 C   0  0  0  0  0  0  0  0  0  0  0  0
  -23.7351  -18.7453   22.1745 C   0  0  0  0  0  0  0  0  0  0  0  0
  -23.3108  -21.6643   18.3241 C   0  0  0  0  0  0  0  0  0  0  0  0
  -23.9146  -21.4197   17.0908 C   0  0  0  0  0  0  0  0  0  0  0  0
  -26.0424  -18.2042   22.6248 C   0  0  0  0  0  0  0  0  0  0  0  0
  -25.9002  -23.5998   23.3873 C   0  0  0  0  0  0  0  0  0  0  0  0
  -21.7372  -21.1690   16.0744 C   0  0  0  0  0  0  0  0  0  0  0  0
  -22.0909  -25.5503   21.4877 C   0  0  0  0  0  0  0  0  0  0  0  0
  -21.6509  -27.3952   23.1936 C   0  0  0  0  0  0  0  0  0  0  0  0
  -24.6033   -9.0360   21.4895 C   0  0  0  0  0  0  0  0  0  0  0  0
  -24.7638  -16.8270   21.0990 C   0  0  0  0  0  0  0  0  0  0  0  0
  -24.0560  -10.3085   21.7416 C   0  0  0  0  0  0  0  0  0  0  0  0
  -25.9726  -17.1080   21.7516 C   0  0  0  0  0  0  0  0  0  0  0  0
  -25.5042  -22.4111   23.9748 C   0  0  0  0  0  0  0  0  0  0  0  0
  -21.5741  -23.1001   20.2580 C   0  0  0  0  0  0  0  0  0  0  0  0
  -24.9291  -19.0171   22.8361 C   0  0  0  0  0  0  0  0  0  0  0  0
  -21.9201  -21.6611   18.4327 C   0  0  0  0  0  0  0  0  0  0  0  0
  -23.1279  -21.1721   15.9659 C   0  0  0  0  0  0  0  0  0  0  0  0
  -21.1333  -21.4135   17.3078 C   0  0  0  0  0  0  0  0  0  0  0  0
  -22.3572  -26.8161   22.1224 C   0  0  0  0  0  0  0  0  0  0  0  0
  -26.1661  -23.5938   22.0328 C   0  0  0  0  0  0  0  0  0  0  0  0
  -25.4003  -21.2952   23.1689 C   0  0  0  0  0  0  0  0  0  1  0  0
  -22.2926  -28.5877   23.4232 C   0  0  0  0  0  0  0  0  0  0  0  0
  -20.5163  -26.8996   23.9165 C   0  0  0  0  0  0  0  0  0  0  0  0
  -25.3900  -13.7514   21.6016 C   0  0  0  0  0  0  0  0  0  0  0  0
  -28.1509  -14.4619   20.0539 C   0  0  0  0  0  0  0  0  0  0  0  0
  -30.4330  -16.8287   19.1391 C   0  0  0  0  0  0  0  0  0  0  0  0
  -26.3883  -28.0543   19.7625 C   0  0  0  0  0  0  0  0  0  0  0  0
  -26.0220   -8.6931   21.8696 C   0  0  0  0  0  0  0  0  0  0  0  0
  -24.6668  -15.6732   20.1388 C   0  0  0  0  0  0  0  0  0  0  0  0
  -27.1999  -16.2590   21.5478 C   0  0  0  0  0  0  0  0  0  0  0  0
  -26.8983   -9.9177   22.1204 C   0  0  0  0  0  0  0  0  0  0  0  0
  -23.9030  -30.6131   19.9701 C   0  0  0  0  0  0  0  0  0  0  0  0
  -29.6898  -27.1801   20.9812 C   0  0  0  0  0  0  0  0  0  0  0  0
  -26.1698  -10.9230   23.0066 C   0  0  0  0  0  0  0  0  0  0  0  0
  -23.7637  -30.9025   21.4605 C   0  0  0  0  0  0  0  0  0  0  0  0
  -29.1924  -25.7872   20.6213 C   0  0  0  0  0  0  0  0  0  0  0  0
  -25.3468  -30.2880   19.6200 C   0  0  0  0  0  0  0  0  0  0  0  0
  -28.4019  -27.9173   21.3137 C   0  0  0  0  0  0  0  0  0  0  0  0
  -25.7270  -29.3139   21.8767 C   0  0  0  0  0  0  0  0  0  0  0  0
  -24.8882  -11.4263   22.3316 C   0  0  1  0  0  0  0  0  0  0  0  0
  -25.7106  -14.5912   20.3976 C   0  0  1  0  0  0  0  0  0  0  0  0
  -24.3225  -29.7691   22.3357 C   0  0  2  0  0  0  0  0  0  0  0  0
  -27.8881  -26.0634   19.8684 C   0  0  1  0  0  0  0  0  0  0  0  0
  -25.2041  -22.3580   25.4325 C   0  0  0  0  0  0  0  0  0  0  0  0
  -32.6039  -17.1009   17.9102 C   0  0  0  0  0  0  0  0  0  0  0  0
  -29.6446  -13.2746   22.4349 C   0  0  0  0  0  0  0  0  0  0  0  0
  -31.7184  -14.4099   21.6110 C   0  0  0  0  0  0  0  0  0  0  0  0
  -30.6014  -12.6811   20.2017 C   0  0  0  0  0  0  0  0  0  0  0  0
  -29.2131  -18.6511   17.1516 C   0  0  0  0  0  0  0  0  0  0  0  0
  -26.8741  -24.9424   20.0564 C   0  0  0  0  0  0  0  0  0  0  0  0
  -29.5169  -14.9487   20.4735 C   0  0  1  0  0  0  0  0  0  0  0  0
  -31.0873  -17.1341   17.8038 C   0  0  2  0  0  0  0  0  0  0  0  0
  -30.3468  -13.8436   21.1858 C   0  0  0  0  0  0  0  0  0  0  0  0
  -23.3700  -27.5780   21.7006 N   0  0  0  0  0  0  0  0  0  0  0  0
  -26.0560  -22.4867   21.2684 N   0  0  0  0  0  0  0  0  0  0  0  0
  -25.6667  -21.3185   21.8458 N   0  0  0  0  0  0  0  0  0  0  0  0
  -23.3046  -28.6482   22.5109 N   0  0  0  0  0  0  0  0  0  0  0  0
  -27.0530  -15.1386   20.6040 N   0  0  0  0  0  0  0  0  0  0  0  0
  -25.8674  -29.1790   20.4197 N   0  0  0  0  0  0  0  0  0  0  0  0
  -27.4133  -27.3482   20.3963 N   0  0  0  0  0  0  0  0  0  0  0  0
  -22.0842  -29.5800   24.3145 N   0  0  0  0  0  0  0  0  0  0  0  0
  -19.2344  -27.2276   23.4545 N   0  0  0  0  0  0  0  0  0  0  0  0
  -26.5657  -24.7929   21.4401 N   0  0  0  0  0  0  0  0  0  0  0  0
  -25.2034  -12.4116   21.3195 N   0  0  0  0  0  0  0  0  0  0  0  0
  -30.1453  -15.4868   19.2718 N   0  0  0  0  0  0  0  0  0  0  0  0
  -30.6793  -18.4848   17.3239 N   0  3  0  0  0  0  0  0  0  0  0  0
  -20.6357  -26.2005   24.9512 O   0  0  0  0  0  0  0  0  0  0  0  0
  -25.3187  -14.2797   22.7050 O   0  0  0  0  0  0  0  0  0  0  0  0
  -28.0613  -13.5207   19.2616 O   0  0  0  0  0  0  0  0  0  0  0  0
  -30.2036  -17.6935   19.9817 O   0  0  0  0  0  0  0  0  0  0  0  0
  -25.9637  -27.7022   18.6540 O   0  0  0  0  0  0  0  0  0  0  0  0
  -21.3221  -21.9048   19.6577 O   0  0  0  0  0  0  0  0  0  0  0  0
  -25.0130  -20.0940   23.6973 O   0  0  0  0  0  0  0  0  0  1  0  0
  -23.7078  -20.9389   14.7813 F   0  0  0  0  0  0  0  0  0  0  0  0
  -19.7968  -21.4104   17.4056 F   0  0  0  0  0  0  0  0  0  0  0  0
  1  2  1  0  0  0  0
  1  5  2  0  0  0  0
  2  6  2  0  0  0  0
  3  8  2  0  0  0  0
  3 16  1  0  0  0  0
  4  9  1  0  0  0  0
  4 16  2  0  0  0  0
  5 18  1  0  0  0  0
  6 20  1  0  0  0  0
  7 10  2  0  0  0  0
  7 19  1  0  0  0  0
  8 23  1  0  0  0  0
  9 23  2  0  0  0  0
 10 24  1  0  0  0  0
 11 12  2  0  0  0  0
 11 25  1  0  0  0  0
 12 26  1  0  0  0  0
 13 21  1  0  0  0  0
 13 24  2  0  0  0  0
 14 22  1  0  0  0  0
 14 29  2  0  0  0  0
 15 26  2  0  0  0  0
 15 27  1  0  0  0  0
 16 28  1  0  0  0  0
 17 28  1  0  0  0  0
 17 31  2  0  0  0  0
 17 32  1  0  0  0  0
 18 20  2  0  0  0  0
 18 37  1  0  0  0  0
 19 21  2  0  0  0  0
 19 38  1  0  0  0  0
 20 49  1  0  0  0  0
 21 39  1  0  0  0  0
 22 30  2  0  0  0  0
 22 53  1  0  0  0  0
 23 81  1  0  0  0  0
 24 82  1  0  0  0  0
 25 27  2  0  0  0  0
 25 81  1  0  0  0  0
 26 83  1  0  0  0  0
 27 84  1  0  0  0  0
 28 63  2  0  0  0  0
 29 64  1  0  0  0  0
 29 72  1  0  0  0  0
 30 65  1  0  0  0  0
 30 82  1  0  0  0  0
 31 66  1  0  0  0  0
 31 70  1  0  0  0  0
 32 71  1  0  0  0  0
 32 76  2  0  0  0  0
 33 50  1  0  0  0  0
 33 73  1  0  0  0  0
 33 77  2  0  0  0  0
 34 60  1  0  0  0  0
 34 67  1  0  0  0  0
 34 78  2  0  0  0  0
 35 61  1  0  0  0  0
 35 74  1  0  0  0  0
 35 79  2  0  0  0  0
 36 68  1  0  0  0  0
 36 69  1  0  0  0  0
 36 80  2  0  0  0  0
 37 40  1  0  0  0  0
 38 50  1  0  0  0  0
 39 67  1  0  0  0  0
 40 43  1  0  0  0  0
 41 44  1  0  0  0  0
 41 46  1  0  0  0  0
 42 45  1  0  0  0  0
 42 47  1  0  0  0  0
 43 49  1  0  0  0  0
 44 51  1  0  0  0  0
 45 52  1  0  0  0  0
 46 68  1  0  0  0  0
 47 69  1  0  0  0  0
 48 51  1  0  0  0  0
 48 68  1  0  0  0  0
 49 73  1  0  0  0  0
 50 67  1  0  0  0  0
 51 66  1  0  0  0  0
 52 59  1  0  0  0  0
 52 69  1  0  0  0  0
 54 61  1  0  0  0  0
 55 62  1  0  0  0  0
 56 62  1  0  0  0  0
 57 62  1  0  0  0  0
 58 75  1  0  0  0  0
 59 72  1  0  0  0  0
 60 62  1  0  0  0  0
 60 74  1  0  0  0  0
 61 75  1  0  0  0  0
 63 66  1  0  0  0  0
 64 65  2  0  0  0  0
M  CHG  1  75   1
M  ISO  4  30 101  36 100  69 100  82 101
M  END
> <Batch ID>
0176

> <Smiles>
CNC(C)C(=O)NC(C(=O)N1Cc2cc([101O:1][101c:1]3nnc(NCC4CCC[100N:0]4[100C:0](=O)N4CCCC(n5nc(-c6ccc(Oc7ccc(F)cc7F)cc6)c(C(N)=O)c5N)C4)cc3C)ccc2CC1C(=O)NC1CCCc2ccccc21)C(C)(C)C

> <Shape>
0.211

> <Color>
0.056

> <Negative vol penalty>
0.000

$$$$

  -OEChem-04052322503D

 87 96  0     1  0  0  0  0  0999 V2000
  -28.1165  -37.1528   21.8999 C   0  0  0  0  0  0  0  0  0  0  0  0
  -28.5262  -35.8638   21.5743 C   0  0  0  0  0  0  0  0  0  0  0  0
  -24.6727   -9.1235   22.0547 C   0  0  0  0  0  0  0  0  0  0  0  0
  -24.2546   -8.7510   19.7045 C   0  0  0  0  0  0  0  0  0  0  0  0
  -27.0421  -37.3432   22.7678 C   0  0  0  0  0  0  0  0  0  0  0  0
  -27.8623  -34.7643   22.1173 C   0  0  0  0  0  0  0  0  0  0  0  0
  -26.8416  -29.3705   19.4022 C   0  0  0  0  0  0  0  0  0  0  0  0
  -23.4778   -8.4767   22.3698 C   0  0  0  0  0  0  0  0  0  0  0  0
  -23.0596   -8.1042   20.0196 C   0  0  0  0  0  0  0  0  0  0  0  0
  -27.4966  -28.1423   19.4803 C   0  0  0  0  0  0  0  0  0  0  0  0
  -22.3558   -5.2964   22.6129 C   0  0  0  0  0  0  0  0  0  0  0  0
  -22.3764   -4.3669   23.6528 C   0  0  0  0  0  0  0  0  0  0  0  0
  -25.9039  -27.4050   21.1353 C   0  0  0  0  0  0  0  0  0  0  0  0
  -30.5424  -22.7721   21.0219 C   0  0  0  0  0  0  0  0  0  0  0  0
  -20.7359   -5.6730   24.8527 C   0  0  0  0  0  0  0  0  0  0  0  0
  -25.0611   -9.2607   20.7220 C   0  0  0  0  0  0  0  0  0  0  0  0
  -27.5930   -9.5628   20.7995 C   0  0  0  0  0  0  0  0  0  0  0  0
  -26.3585  -36.2455   23.3141 C   0  0  0  0  0  0  0  0  0  0  0  0
  -25.7174  -29.6296   20.1994 C   0  0  0  0  0  0  0  0  0  0  0  0
  -26.7786  -34.9402   22.9943 C   0  0  0  0  0  0  0  0  0  0  0  0
  -25.2349  -28.6364   21.0635 C   0  0  0  0  0  0  0  0  0  0  0  0
  -30.0676  -24.0672   20.9120 C   0  0  0  0  0  0  0  0  0  0  0  0
  -22.6713   -7.9670   21.3523 C   0  0  0  0  0  0  0  0  0  0  0  0
  -27.0296  -27.1603   20.3490 C   0  0  0  0  0  0  0  0  0  0  0  0
  -21.5252   -6.4142   22.6930 C   0  0  0  0  0  0  0  0  0  0  0  0
  -21.5665   -4.5552   24.7727 C   0  0  0  0  0  0  0  0  0  0  0  0
  -20.7153   -6.6025   23.8129 C   0  0  0  0  0  0  0  0  0  0  0  0
  -26.2951   -9.9293   20.3958 C   0  0  0  0  0  0  0  0  0  0  0  0
  -29.3511  -24.3986   19.7796 C   0  0  0  0  0  0  0  0  0  0  0  0
  -30.2691  -21.8941   19.9924 C   0  0  0  0  0  0  0  0  0  0  0  0
  -28.4096  -10.5098   20.2312 C   0  0  0  0  0  0  0  0  0  0  0  0
  -28.0221   -8.4645   21.6152 C   0  0  0  0  0  0  0  0  0  0  0  0
  -25.0215  -31.7305   22.4810 C   0  0  0  0  0  0  0  0  0  0  0  0
  -22.0641  -30.4186   22.2460 C   0  0  0  0  0  0  0  0  0  0  0  0
  -20.1458  -27.7374   21.3641 C   0  0  0  0  0  0  0  0  0  0  0  0
  -29.7141  -15.5616   18.9731 C   0  0  0  0  0  0  0  0  0  0  0  0
  -25.2329  -36.5012   24.2848 C   0  0  0  0  0  0  0  0  0  0  0  0
  -25.0062  -30.9500   20.0838 C   0  0  0  0  0  0  0  0  0  0  0  0
  -24.0200  -28.8573   21.9258 C   0  0  0  0  0  0  0  0  0  0  0  0
  -24.3450  -35.2824   24.5226 C   0  0  0  0  0  0  0  0  0  0  0  0
  -27.4451  -14.0509   16.7599 C   0  0  0  0  0  0  0  0  0  0  0  0
  -25.1969  -34.0404   24.7648 C   0  0  0  0  0  0  0  0  0  0  0  0
  -27.0415  -12.8028   17.5444 C   0  0  0  0  0  0  0  0  0  0  0  0
  -29.1101  -19.0193   19.2340 C   0  0  0  0  0  0  0  0  0  0  0  0
  -31.5735  -18.4722   19.2499 C   0  0  0  0  0  0  0  0  0  0  0  0
  -27.5638  -15.2811   17.6615 C   0  0  0  0  0  0  0  0  0  0  0  0
  -28.8740  -17.8491   18.2745 C   0  0  0  0  0  0  0  0  0  0  0  0
  -31.2937  -17.3348   18.2715 C   0  0  0  0  0  0  0  0  0  0  0  0
  -28.0524  -13.8391   19.6110 C   0  0  0  0  0  0  0  0  0  0  0  0
  -26.0680  -33.7222   23.5435 C   0  0  1  0  0  0  0  0  0  0  0  0
  -24.1772  -31.2921   21.3180 C   0  0  1  0  0  0  0  0  0  0  0  0
  -27.9819  -12.5745   18.7412 C   0  0  1  0  0  0  0  0  0  0  0  0
  -30.5278  -19.5800   19.0989 C   0  0  0  0  0  0  0  0  0  0  0  0
  -17.7643  -26.9473   21.3235 C   0  0  0  0  0  0  0  0  0  0  0  0
  -22.1748  -29.9381   25.2572 C   0  0  0  0  0  0  0  0  0  0  0  0
  -20.2637  -28.3409   25.0022 C   0  0  0  0  0  0  0  0  0  0  0  0
  -19.9646  -30.7456   24.4101 C   0  0  0  0  0  0  0  0  0  0  0  0
  -20.1737  -27.4373   18.4199 C   0  0  0  0  0  0  0  0  0  0  0  0
  -28.8086  -25.7754   19.5921 C   0  0  0  0  0  0  0  0  0  1  0  0
  -30.3350  -25.0541   21.9952 C   0  0  0  0  0  0  0  0  0  0  0  0
  -21.3522  -29.2619   22.9051 C   0  0  1  0  0  0  0  0  0  0  0  0
  -18.8730  -27.6360   20.5430 C   0  0  2  0  0  0  0  0  0  0  0  0
  -20.9629  -29.5679   24.3789 C   0  0  0  0  0  0  0  0  0  0  0  0
  -26.2830  -11.0238   19.6303 N   0  0  0  0  0  0  0  0  0  0  0  0
  -29.0986  -23.5188   18.7875 N   0  0  0  0  0  0  0  0  0  0  0  0
  -29.5649  -22.2458   18.8958 N   0  0  0  0  0  0  0  0  0  0  0  0
  -27.5833  -11.3532   19.5485 N   0  0  0  0  0  0  0  0  0  0  0  0
  -23.3629  -30.1669   21.7816 N   0  0  0  0  0  0  0  0  0  0  0  0
  -28.4379  -15.0025   18.8094 N   0  0  0  0  0  0  0  0  0  0  0  0
  -29.9270  -16.8341   18.4223 N   0  0  0  0  0  0  0  0  0  0  0  0
  -29.7466  -10.6949   20.2539 N   0  0  0  0  0  0  0  0  0  0  0  0
  -28.3367   -7.2505   20.9895 N   0  0  0  0  0  0  0  0  0  0  0  0
  -30.7438  -20.5991   20.1023 N   0  0  0  0  0  0  0  0  0  0  0  0
  -25.2775  -33.0881   22.5103 N   0  0  0  0  0  0  0  0  0  0  0  0
  -20.2211  -28.9347   22.0438 N   0  0  0  0  0  0  0  0  0  0  0  0
  -19.1218  -26.8595   19.2955 N   0  3  0  0  0  0  0  0  0  0  0  0
  -28.1079   -8.5521   22.8636 O   0  0  0  0  0  0  0  0  0  0  0  0
  -25.4106  -30.8988   23.2926 O   0  0  0  0  0  0  0  0  0  0  0  0
  -21.4864  -31.5034   22.1406 O   0  0  0  0  0  0  0  0  0  0  0  0
  -20.9872  -26.8423   21.4019 O   0  0  0  0  0  0  0  0  0  0  0  0
  -30.6112  -14.9594   19.5763 O   0  0  0  0  0  0  0  0  0  0  0  0
  -21.5053   -7.3356   21.6594 O   0  0  0  0  0  0  0  0  0  0  0  0
  -27.6718  -25.9525   20.4283 O   0  0  0  0  0  0  0  0  0  1  0  0
  -21.5853   -3.6618   25.7705 F   0  0  0  0  0  0  0  0  0  0  0  0
  -19.9144   -7.6738   23.8949 F   0  0  0  0  0  0  0  0  0  0  0  0
  -31.0555  -26.1071   21.5255 F   0  0  0  0  0  0  0  0  0  0  0  0
  -31.0761  -24.4948   22.9884 F   0  0  0  0  0  0  0  0  0  0  0  0
  1  2  1  0  0  0  0
  1  5  2  0  0  0  0
  2  6  2  0  0  0  0
  3  8  2  0  0  0  0
  3 16  1  0  0  0  0
  4  9  1  0  0  0  0
  4 16  2  0  0  0  0
  5 18  1  0  0  0  0
  6 20  1  0  0  0  0
  7 10  2  0  0  0  0
  7 19  1  0  0  0  0
  8 23  1  0  0  0  0
  9 23  2  0  0  0  0
 10 24  1  0  0  0  0
 11 12  2  0  0  0  0
 11 25  1  0  0  0  0
 12 26  1  0  0  0  0
 13 21  1  0  0  0  0
 13 24  2  0  0  0  0
 14 22  1  0  0  0  0
 14 30  2  0  0  0  0
 15 26  2  0  0  0  0
 15 27  1  0  0  0  0
 16 28  1  0  0  0  0
 17 28  1  0  0  0  0
 17 31  2  0  0  0  0
 17 32  1  0  0  0  0
 18 20  2  0  0  0  0
 18 37  1  0  0  0  0
 19 21  2  0  0  0  0
 19 38  1  0  0  0  0
 20 50  1  0  0  0  0
 21 39  1  0  0  0  0
 22 29  2  0  0  0  0
 22 60  1  0  0  0  0
 23 82  1  0  0  0  0
 24 83  1  0  0  0  0
 25 27  2  0  0  0  0
 25 82  1  0  0  0  0
 26 84  1  0  0  0  0
 27 85  1  0  0  0  0
 28 64  2  0  0  0  0
 29 59  1  0  0  0  0
 29 65  1  0  0  0  0
 30 66  1  0  0  0  0
 30 73  1  0  0  0  0
 31 67  1  0  0  0  0
 31 71  1  0  0  0  0
 32 72  1  0  0  0  0
 32 77  2  0  0  0  0
 33 51  1  0  0  0  0
 33 74  1  0  0  0  0
 33 78  2  0  0  0  0
 34 61  1  0  0  0  0
 34 68  1  0  0  0  0
 34 79  2  0  0  0  0
 35 62  1  0  0  0  0
 35 75  1  0  0  0  0
 35 80  2  0  0  0  0
 36 69  1  0  0  0  0
 36 70  1  0  0  0  0
 36 81  2  0  0  0  0
 37 40  1  0  0  0  0
 38 51  1  0  0  0  0
 39 68  1  0  0  0  0
 40 42  1  0  0  0  0
 41 43  1  0  0  0  0
 41 46  1  0  0  0  0
 42 50  1  0  0  0  0
 43 52  1  0  0  0  0
 44 47  1  0  0  0  0
 44 53  1  0  0  0  0
 45 48  1  0  0  0  0
 45 53  1  0  0  0  0
 46 69  1  0  0  0  0
 47 70  1  0  0  0  0
 48 70  1  0  0  0  0
 49 52  1  0  0  0  0
 49 69  1  0  0  0  0
 50 74  1  0  0  0  0
 51 68  1  0  0  0  0
 52 67  1  0  0  0  0
 53 73  1  0  0  0  0
 54 62  1  0  0  0  0
 55 63  1  0  0  0  0
 56 63  1  0  0  0  0
 57 63  1  0  0  0  0
 58 76  1  0  0  0  0
 59 83  1  0  0  0  0
 60 86  1  0  0  0  0
 60 87  1  0  0  0  0
 61 63  1  0  0  0  0
 61 75  1  0  0  0  0
 62 76  1  0  0  0  0
 64 67  1  0  0  0  0
 65 66  2  0  0  0  0
M  CHG  1  76   1
M  ISO  4  36 100  59 101  70 100  83 101
M  END
> <Batch ID>
0176

> <Smiles>
CNC(C)C(=O)NC(C(=O)N1Cc2cc([101O:1][101CH2:1]c3nnc(NC4CC[100N:0]([100C:0](=O)N5CCCC(n6nc(-c7ccc(Oc8ccc(F)cc8F)cc7)c(C(N)=O)c6N)C5)CC4)cc3C(F)F)ccc2CC1C(=O)NC1CCCc2ccccc21)C(C)(C)C

> <Shape>
0.337

> <Color>
0.116

> <Negative vol penalty>
0.000

$$$$

  -OEChem-04052322503D

 91100  0     1  0  0  0  0  0999 V2000
  -21.6634  -35.4389   16.1607 C   0  0  0  0  0  0  0  0  0  0  0  0
  -22.4239  -34.2807   16.0361 C   0  0  0  0  0  0  0  0  0  0  0  0
  -23.1216   -9.7917   19.9566 C   0  0  0  0  0  0  0  0  0  0  0  0
  -24.4289   -9.2931   21.9262 C   0  0  0  0  0  0  0  0  0  0  0  0
  -21.8316  -36.2659   17.2705 C   0  0  0  0  0  0  0  0  0  0  0  0
  -23.3539  -33.9493   17.0208 C   0  0  0  0  0  0  0  0  0  0  0  0
  -24.8550  -28.3252   18.9239 C   0  0  0  0  0  0  0  0  0  0  0  0
  -22.5910   -8.5019   19.9822 C   0  0  0  0  0  0  0  0  0  0  0  0
  -23.8983   -8.0033   21.9519 C   0  0  0  0  0  0  0  0  0  0  0  0
  -25.9186  -27.4808   18.6082 C   0  0  0  0  0  0  0  0  0  0  0  0
  -21.0289   -6.5111   22.9320 C   0  0  0  0  0  0  0  0  0  0  0  0
  -20.5996   -6.0130   24.1620 C   0  0  0  0  0  0  0  0  0  0  0  0
  -27.1081  -28.2604   20.5567 C   0  0  0  0  0  0  0  0  0  0  0  0
  -22.1844   -4.1985   23.9803 C   0  0  0  0  0  0  0  0  0  0  0  0
  -24.0405  -10.1873   20.9286 C   0  0  0  0  0  0  0  0  0  0  0  0
  -24.0716  -12.6647   21.5362 C   0  0  0  0  0  0  0  0  0  0  0  0
  -22.7573  -35.9395   18.2741 C   0  0  0  0  0  0  0  0  0  0  0  0
  -24.9147  -29.1530   20.0543 C   0  0  0  0  0  0  0  0  0  0  0  0
  -23.5357  -34.7735   18.1444 C   0  0  0  0  0  0  0  0  0  0  0  0
  -26.0429  -29.1125   20.8860 C   0  0  0  0  0  0  0  0  0  0  0  0
  -22.9794   -7.6078   20.9798 C   0  0  0  0  0  0  0  0  0  0  0  0
  -27.0465  -27.4505   19.4230 C   0  0  0  0  0  0  0  0  0  0  0  0
  -22.0360   -5.8529   22.2260 C   0  0  0  0  0  0  0  0  0  0  0  0
  -21.1773   -4.8567   24.6862 C   0  0  0  0  0  0  0  0  0  0  0  0
  -22.6138   -4.6966   22.7502 C   0  0  0  0  0  0  0  0  0  0  0  0
  -24.5894  -11.5193   20.9023 C   0  0  0  0  0  0  0  0  0  0  0  0
  -24.9514  -13.6666   21.2069 C   0  0  0  0  0  0  0  0  0  0  0  0
  -22.9001  -12.8099   22.3500 C   0  0  0  0  0  0  0  0  0  0  0  0
  -24.8652  -32.2939   20.5396 C   0  0  0  0  0  0  0  0  0  0  0  0
  -24.7724  -31.4172   23.6614 C   0  0  0  0  0  0  0  0  0  0  0  0
  -25.4485  -29.0532   26.0281 C   0  0  0  0  0  0  0  0  0  0  0  0
  -30.4103  -15.1736   20.8347 C   0  0  0  0  0  0  0  0  0  0  0  0
  -29.5127  -20.1935   23.2141 C   0  0  0  0  0  0  0  0  0  0  0  0
  -22.9376  -36.8890   19.4319 C   0  0  0  0  0  0  0  0  0  0  0  0
  -23.7479  -30.0385   20.3960 C   0  0  0  0  0  0  0  0  0  0  0  0
  -26.1478  -29.9665   22.1222 C   0  0  0  0  0  0  0  0  0  0  0  0
  -23.6775  -36.2720   20.6161 C   0  0  0  0  0  0  0  0  0  0  0  0
  -28.7243  -13.7886   17.8501 C   0  0  0  0  0  0  0  0  0  0  0  0
  -24.9169  -35.5217   20.1389 C   0  0  0  0  0  0  0  0  0  0  0  0
  -27.4908  -13.1132   18.4486 C   0  0  0  0  0  0  0  0  0  0  0  0
  -29.8877  -13.8245   18.8370 C   0  0  0  0  0  0  0  0  0  0  0  0
  -28.6694  -16.9568   21.3442 C   0  0  0  0  0  0  0  0  0  0  0  0
  -30.7789  -16.7753   22.6606 C   0  0  0  0  0  0  0  0  0  0  0  0
  -28.8537  -18.4667   21.4729 C   0  0  0  0  0  0  0  0  0  0  0  0
  -30.0850  -17.8056   23.5386 C   0  0  0  0  0  0  0  0  0  0  0  0
  -28.3199  -13.7594   20.7437 C   0  0  0  0  0  0  0  0  0  0  0  0
  -30.0879  -23.4239   20.6832 C   0  0  0  0  0  0  0  0  0  0  0  0
  -27.5725  -23.3450   20.6595 C   0  0  0  0  0  0  0  0  0  0  0  0
  -24.5371  -34.3673   19.2038 C   0  0  1  0  0  0  0  0  0  0  0  0
  -24.1321  -31.2159   21.2867 C   0  0  1  0  0  0  0  0  0  0  0  0
  -30.0872  -23.2913   22.2084 C   0  0  1  0  0  0  0  0  0  0  0  0
  -27.5561  -23.2012   22.1840 C   0  0  2  0  0  0  0  0  0  0  0  0
  -27.1118  -13.7536   19.7958 C   0  0  2  0  0  0  0  0  0  0  0  0
  -28.8424  -22.5335   22.7157 C   0  0  1  0  0  0  0  0  0  0  0  0
  -31.3948  -22.6561   22.6877 C   0  0  0  0  0  0  0  0  0  0  0  0
  -25.2957  -28.6388   28.4983 C   0  0  0  0  0  0  0  0  0  0  0  0
  -26.2879  -22.2926   24.1512 C   0  0  0  0  0  0  0  0  0  0  0  0
  -25.0456  -23.2228   22.1776 C   0  0  0  0  0  0  0  0  0  0  0  0
  -27.1873  -33.2270   24.1119 C   0  0  0  0  0  0  0  0  0  0  0  0
  -27.5626  -32.0651   26.2976 C   0  0  0  0  0  0  0  0  0  0  0  0
  -25.4518  -33.3365   25.9093 C   0  0  0  0  0  0  0  0  0  0  0  0
  -23.6447  -26.7383   25.6456 C   0  0  0  0  0  0  0  0  0  0  0  0
  -28.8173  -24.3617   18.7543 C   0  0  0  0  0  0  0  0  0  0  0  0
  -27.7773  -25.4163   18.4310 C   0  0  0  0  0  0  0  0  0  1  0  0
  -25.8072  -31.1323   24.7230 C   0  0  1  0  0  0  0  0  0  0  0  0
  -24.6034  -28.4838   27.1532 C   0  0  2  0  0  0  0  0  0  0  0  0
  -26.2903  -22.4685   22.6356 C   0  0  0  0  0  0  0  0  0  0  0  0
  -26.5013  -32.4254   25.2362 C   0  0  0  0  0  0  0  0  0  0  0  0
  -25.7111  -11.7692   20.2217 N   0  0  0  0  0  0  0  0  0  0  0  0
  -25.9054  -13.0832   20.4259 N   0  0  0  0  0  0  0  0  0  0  0  0
  -24.9836  -30.8203   22.4104 N   0  0  0  0  0  0  0  0  0  0  0  0
  -29.4827  -14.4035   20.1180 N   0  0  0  0  0  0  0  0  0  0  0  0
  -29.9067  -16.2189   21.6272 N   0  0  0  0  0  0  0  0  0  0  0  0
  -29.4808  -18.8695   22.7373 N   0  0  0  0  0  0  0  0  0  0  0  0
  -24.9944  -14.9810   21.5119 N   0  0  0  0  0  0  0  0  0  0  0  0
  -22.1079  -11.6787   22.5885 N   0  0  0  0  0  0  0  0  0  0  0  0
  -24.0397  -33.2421   19.9662 N   0  0  0  0  0  0  0  0  0  0  0  0
  -25.1262  -30.3672   25.7619 N   0  0  0  0  0  0  0  0  0  0  0  0
  -28.8985  -21.1278   22.3849 N   0  0  0  0  0  0  0  0  0  0  0  0
  -28.8118  -24.0965   20.2354 N   0  3  2  0  0  0  0  0  0  0  0  0
  -24.3429  -27.0346   26.9230 N   0  3  0  0  0  0  0  0  0  0  0  0
  -22.5569  -13.9137   22.8372 O   0  0  0  0  0  0  0  0  0  0  0  0
  -26.0893  -32.2682   20.4886 O   0  0  0  0  0  0  0  0  0  0  0  0
  -23.8084  -32.1368   23.9342 O   0  0  0  0  0  0  0  0  0  0  0  0
  -26.3111  -28.3990   25.4462 O   0  0  0  0  0  0  0  0  0  0  0  0
  -31.6264  -14.9554   20.7556 O   0  0  0  0  0  0  0  0  0  0  0  0
  -30.0459  -20.5115   24.2814 O   0  0  0  0  0  0  0  0  0  0  0  0
  -22.4617   -6.3492   21.0053 O   0  0  0  0  0  0  0  0  0  0  0  0
  -28.0938  -26.6218   19.1145 O   0  0  0  0  0  0  0  0  0  1  0  0
  -20.7660   -4.3793   25.8682 F   0  0  0  0  0  0  0  0  0  0  0  0
  -23.5824   -4.0606   22.0772 F   0  0  0  0  0  0  0  0  0  0  0  0
  1  2  1  0  0  0  0
  1  5  2  0  0  0  0
  2  6  2  0  0  0  0
  3  8  2  0  0  0  0
  3 15  1  0  0  0  0
  4  9  1  0  0  0  0
  4 15  2  0  0  0  0
  5 17  1  0  0  0  0
  6 19  1  0  0  0  0
  7 10  2  0  0  0  0
  7 18  1  0  0  0  0
  8 21  1  0  0  0  0
  9 21  2  0  0  0  0
 10 22  1  0  0  0  0
 11 12  2  0  0  0  0
 11 23  1  0  0  0  0
 12 24  1  0  0  0  0
 13 20  1  0  0  0  0
 13 22  2  0  0  0  0
 14 24  2  0  0  0  0
 14 25  1  0  0  0  0
 15 26  1  0  0  0  0
 16 26  1  0  0  0  0
 16 27  2  0  0  0  0
 16 28  1  0  0  0  0
 17 19  2  0  0  0  0
 17 34  1  0  0  0  0
 18 20  2  0  0  0  0
 18 35  1  0  0  0  0
 19 49  1  0  0  0  0
 20 36  1  0  0  0  0
 21 88  1  0  0  0  0
 22 89  1  0  0  0  0
 23 25  2  0  0  0  0
 23 88  1  0  0  0  0
 24 90  1  0  0  0  0
 25 91  1  0  0  0  0
 26 69  2  0  0  0  0
 27 70  1  0  0  0  0
 27 75  1  0  0  0  0
 28 76  1  0  0  0  0
 28 82  2  0  0  0  0
 29 50  1  0  0  0  0
 29 77  1  0  0  0  0
 29 83  2  0  0  0  0
 30 65  1  0  0  0  0
 30 71  1  0  0  0  0
 30 84  2  0  0  0  0
 31 66  1  0  0  0  0
 31 78  1  0  0  0  0
 31 85  2  0  0  0  0
 32 72  1  0  0  0  0
 32 73  1  0  0  0  0
 32 86  2  0  0  0  0
 33 74  1  0  0  0  0
 33 79  1  0  0  0  0
 33 87  2  0  0  0  0
 34 37  1  0  0  0  0
 35 50  1  0  0  0  0
 36 71  1  0  0  0  0
 37 39  1  0  0  0  0
 38 40  1  0  0  0  0
 38 41  1  0  0  0  0
 39 49  1  0  0  0  0
 40 53  1  0  0  0  0
 41 72  1  0  0  0  0
 42 44  1  0  0  0  0
 42 73  1  0  0  0  0
 43 45  1  0  0  0  0
 43 73  1  0  0  0  0
 44 74  1  0  0  0  0
 45 74  1  0  0  0  0
 46 53  1  0  0  0  0
 46 72  1  0  0  0  0
 47 51  1  0  0  0  0
 47 80  1  0  0  0  0
 48 52  1  0  0  0  0
 48 80  1  0  0  0  0
 49 77  1  0  0  0  0
 50 71  1  0  0  0  0
 51 54  1  0  0  0  0
 51 55  1  0  0  0  0
 52 54  1  0  0  0  0
 52 67  1  0  0  0  0
 53 70  1  0  0  0  0
 54 79  1  0  0  0  0
 56 66  1  0  0  0  0
 57 67  1  0  0  0  0
 58 67  1  0  0  0  0
 59 68  1  0  0  0  0
 60 68  1  0  0  0  0
 61 68  1  0  0  0  0
 62 81  1  0  0  0  0
 63 64  1  0  0  0  0
 63 80  1  0  0  0  0
 64 89  1  0  0  0  0
 65 68  1  0  0  0  0
 65 78  1  0  0  0  0
 66 81  1  0  0  0  0
 69 70  1  0  0  0  0
M  CHG  2  80   1  81   1
M  ISO  4  32 100  64 101  73 100  89 101
M  END
> <Batch ID>
0176

> <Smiles>
CNC(C)C(=O)NC(C(=O)N1Cc2cc([101O:1][101CH2:1]CN3CC(C)C(NC(=O)N4CC[100N:0]([100C:0](=O)N5CCCC(n6nc(-c7ccc(Oc8ccc(F)cc8F)cc7)c(C(N)=O)c6N)C5)CC4)C(C(C)C)C3)ccc2CC1C(=O)NC1CCCc2ccccc21)C(C)(C)C

> <Shape>
0.332

> <Color>
0.168

> <Negative vol penalty>
0.000

$$$$

  -OEChem-04052322503D

 83 92  0     1  0  0  0  0  0999 V2000
  -27.0168  -17.1708   16.6456 C   0  0  0  0  0  0  0  0  0  0  0  0
  -26.6622  -17.5454   17.9366 C   0  0  0  0  0  0  0  0  0  0  0  0
  -23.2050   -9.8429   19.9782 C   0  0  0  0  0  0  0  0  0  0  0  0
  -23.9104   -9.9552   22.2862 C   0  0  0  0  0  0  0  0  0  0  0  0
  -28.3034  -17.4293   16.1775 C   0  0  0  0  0  0  0  0  0  0  0  0
  -27.5902  -18.1893   18.7559 C   0  0  0  0  0  0  0  0  0  0  0  0
  -27.1953  -19.9297   24.5819 C   0  0  0  0  0  0  0  0  0  0  0  0
  -22.5152   -8.6606   20.2465 C   0  0  0  0  0  0  0  0  0  0  0  0
  -23.2206   -8.7729   22.5546 C   0  0  0  0  0  0  0  0  0  0  0  0
  -27.4915  -19.3991   25.8367 C   0  0  0  0  0  0  0  0  0  0  0  0
  -20.8656   -5.4198   20.2436 C   0  0  0  0  0  0  0  0  0  0  0  0
  -21.0029   -4.3674   19.3386 C   0  0  0  0  0  0  0  0  0  0  0  0
  -29.6063  -20.5595   25.8215 C   0  0  0  0  0  0  0  0  0  0  0  0
  -23.3846   -4.3306   19.7426 C   0  0  0  0  0  0  0  0  0  0  0  0
  -29.9653  -17.4278   28.9503 C   0  0  0  0  0  0  0  0  0  0  0  0
  -23.9027  -10.4901   20.9980 C   0  0  0  0  0  0  0  0  0  0  0  0
  -24.1182  -13.0250   20.8097 C   0  0  0  0  0  0  0  0  0  0  0  0
  -29.2508  -18.0655   16.9964 C   0  0  0  0  0  0  0  0  0  0  0  0
  -28.1087  -20.7718   23.9316 C   0  0  0  0  0  0  0  0  0  0  0  0
  -28.8863  -18.4805   18.2934 C   0  0  0  0  0  0  0  0  0  0  0  0
  -29.3183  -21.1015   24.5596 C   0  0  0  0  0  0  0  0  0  0  0  0
  -22.5230   -8.1256   21.5347 C   0  0  0  0  0  0  0  0  0  0  0  0
  -28.6984  -19.7117   26.4555 C   0  0  0  0  0  0  0  0  0  0  0  0
  -21.9878   -5.9277   20.8981 C   0  0  0  0  0  0  0  0  0  0  0  0
  -22.2624   -3.8228   19.0881 C   0  0  0  0  0  0  0  0  0  0  0  0
  -23.2473   -5.3831   20.6477 C   0  0  0  0  0  0  0  0  0  0  0  0
  -24.6159  -11.7112   20.7213 C   0  0  0  0  0  0  0  0  0  0  0  0
  -30.6267  -16.2174   28.9091 C   0  0  0  0  0  0  0  0  0  0  0  0
  -29.6538  -17.9799   27.7246 C   0  0  0  0  0  0  0  0  0  1  0  0
  -25.1789  -13.8190   20.4477 C   0  0  0  0  0  0  0  0  0  0  0  0
  -30.6040  -16.2251   26.6362 C   0  0  0  0  0  0  0  0  0  0  0  0
  -22.8138  -13.4866   21.1854 C   0  0  0  0  0  0  0  0  0  0  0  0
  -29.7432  -20.6318   21.2090 C   0  0  0  0  0  0  0  0  0  0  0  0
  -30.5893  -23.6579   22.0145 C   0  0  0  0  0  0  0  0  0  0  0  0
  -31.0162  -25.9909   24.4684 C   0  0  0  0  0  0  0  0  0  0  0  0
  -30.9409  -14.0793   20.9440 C   0  0  0  0  0  0  0  0  0  0  0  0
  -30.6266  -18.3278   16.4363 C   0  0  0  0  0  0  0  0  0  0  0  0
  -27.7627  -21.3573   22.5900 C   0  0  0  0  0  0  0  0  0  0  0  0
  -30.3240  -22.0171   23.9126 C   0  0  0  0  0  0  0  0  0  0  0  0
  -31.6650  -18.6085   17.5176 C   0  0  0  0  0  0  0  0  0  0  0  0
  -29.3593  -13.1034   17.9071 C   0  0  0  0  0  0  0  0  0  0  0  0
  -31.1391  -19.6602   18.4829 C   0  0  0  0  0  0  0  0  0  0  0  0
  -27.9286  -12.7671   18.3314 C   0  0  0  0  0  0  0  0  0  0  0  0
  -31.4609  -17.4063   23.8292 C   0  0  0  0  0  0  0  0  0  0  0  0
  -31.5815  -16.8638   22.3889 C   0  0  0  0  0  0  0  0  0  0  0  0
  -30.3749  -12.6926   18.9710 C   0  0  0  0  0  0  0  0  0  0  0  0
  -28.6754  -12.8857   20.7453 C   0  0  0  0  0  0  0  0  0  0  0  0
  -29.8884  -19.1545   19.2131 C   0  0  1  0  0  0  0  0  0  0  0  0
  -28.9891  -21.7924   21.7937 C   0  0  1  0  0  0  0  0  0  0  0  0
  -27.6107  -13.3322   19.7288 C   0  0  2  0  0  0  0  0  0  0  0  0
  -30.6250  -16.1483   24.1505 C   0  0  1  0  0  0  0  0  0  0  0  0
  -31.3611  -15.4501   22.9801 C   0  0  1  0  0  0  0  0  0  0  0  0
  -31.0064  -15.5433   30.1847 C   0  0  0  0  0  0  0  0  0  0  0  0
  -31.7547  -28.3627   24.8246 C   0  0  0  0  0  0  0  0  0  0  0  0
  -33.4983  -22.7998   21.6807 C   0  0  0  0  0  0  0  0  0  0  0  0
  -34.1763  -24.8550   22.9396 C   0  0  0  0  0  0  0  0  0  0  0  0
  -32.9680  -25.0668   20.7675 C   0  0  0  0  0  0  0  0  0  0  0  0
  -28.3741  -26.7737   25.5480 C   0  0  0  0  0  0  0  0  0  0  0  0
  -31.7101  -24.2778   22.8137 C   0  0  1  0  0  0  0  0  0  0  0  0
  -30.5735  -27.4395   24.5691 C   0  0  2  0  0  0  0  0  0  0  0  0
  -33.0703  -24.2310   22.0620 C   0  0  0  0  0  0  0  0  0  0  0  0
  -25.8933  -11.6686   20.3335 N   0  0  0  0  0  0  0  0  0  0  0  0
  -30.9629  -15.5853   27.7655 N   0  0  0  0  0  0  0  0  0  0  0  0
  -29.9591  -17.4037   26.5435 N   0  0  0  0  0  0  0  0  0  0  0  0
  -26.2073  -12.9657   20.1748 N   0  0  0  0  0  0  0  0  0  0  0  0
  -29.9425  -22.5593   22.5981 N   0  0  0  0  0  0  0  0  0  0  0  0
  -30.0166  -13.2625   20.2720 N   0  0  0  0  0  0  0  0  0  0  0  0
  -25.3229  -15.1569   20.3394 N   0  0  0  0  0  0  0  0  0  0  0  0
  -21.8420  -12.5365   21.5279 N   0  0  0  0  0  0  0  0  0  0  0  0
  -30.9404  -15.5935   25.4190 N   0  0  0  0  0  0  0  0  0  0  0  0
  -29.3020  -20.2474   19.9572 N   0  0  0  0  0  0  0  0  0  0  0  0
  -31.2666  -25.6229   23.1634 N   0  0  0  0  0  0  0  0  0  0  0  0
  -30.5192  -14.5838   22.1681 N   0  0  0  0  0  0  0  0  0  0  0  0
  -29.5970  -27.6065   25.6825 N   0  3  0  0  0  0  0  0  0  0  0  0
  -22.5140  -14.7045   21.2007 O   0  0  0  0  0  0  0  0  0  0  0  0
  -30.6586  -20.1236   21.8457 O   0  0  0  0  0  0  0  0  0  0  0  0
  -30.2938  -24.1354   20.9162 O   0  0  0  0  0  0  0  0  0  0  0  0
  -31.1322  -25.2601   25.4497 O   0  0  0  0  0  0  0  0  0  0  0  0
  -32.0570  -14.3441   20.4845 O   0  0  0  0  0  0  0  0  0  0  0  0
  -21.8498   -6.9721   21.7970 O   0  0  0  0  0  0  0  0  0  0  0  0
  -28.9902  -19.1947   27.6800 O   0  0  0  0  0  0  0  0  0  1  0  0
  -22.3938   -2.8111   18.2201 F   0  0  0  0  0  0  0  0  0  0  0  0
  -24.3289   -5.8660   21.2743 F   0  0  0  0  0  0  0  0  0  0  0  0
  1  2  1  0  0  0  0
  1  5  2  0  0  0  0
  2  6  2  0  0  0  0
  3  8  2  0  0  0  0
  3 16  1  0  0  0  0
  4  9  1  0  0  0  0
  4 16  2  0  0  0  0
  5 18  1  0  0  0  0
  6 20  1  0  0  0  0
  7 10  2  0  0  0  0
  7 19  1  0  0  0  0
  8 22  1  0  0  0  0
  9 22  2  0  0  0  0
 10 23  1  0  0  0  0
 11 12  2  0  0  0  0
 11 24  1  0  0  0  0
 12 25  1  0  0  0  0
 13 21  1  0  0  0  0
 13 23  2  0  0  0  0
 14 25  2  0  0  0  0
 14 26  1  0  0  0  0
 15 28  2  0  0  0  0
 15 29  1  0  0  0  0
 16 27  1  0  0  0  0
 17 27  1  0  0  0  0
 17 30  2  0  0  0  0
 17 32  1  0  0  0  0
 18 20  2  0  0  0  0
 18 37  1  0  0  0  0
 19 21  2  0  0  0  0
 19 38  1  0  0  0  0
 20 48  1  0  0  0  0
 21 39  1  0  0  0  0
 22 80  1  0  0  0  0
 23 81  1  0  0  0  0
 24 26  2  0  0  0  0
 24 80  1  0  0  0  0
 25 82  1  0  0  0  0
 26 83  1  0  0  0  0
 27 62  2  0  0  0  0
 28 53  1  0  0  0  0
 28 63  1  0  0  0  0
 29 64  2  0  0  0  0
 29 81  1  0  0  0  0
 30 65  1  0  0  0  0
 30 68  1  0  0  0  0
 31 63  2  0  0  0  0
 31 64  1  0  0  0  0
 31 70  1  0  0  0  0
 32 69  1  0  0  0  0
 32 75  2  0  0  0  0
 33 49  1  0  0  0  0
 33 71  1  0  0  0  0
 33 76  2  0  0  0  0
 34 59  1  0  0  0  0
 34 66  1  0  0  0  0
 34 77  2  0  0  0  0
 35 60  1  0  0  0  0
 35 72  1  0  0  0  0
 35 78  2  0  0  0  0
 36 67  1  0  0  0  0
 36 73  1  0  0  0  0
 36 79  2  0  0  0  0
 37 40  1  0  0  0  0
 38 49  1  0  0  0  0
 39 66  1  0  0  0  0
 40 42  1  0  0  0  0
 41 43  1  0  0  0  0
 41 46  1  0  0  0  0
 42 48  1  0  0  0  0
 43 50  1  0  0  0  0
 44 45  1  0  0  0  0
 44 51  1  0  0  0  0
 45 52  1  0  0  0  0
 46 67  1  0  0  0  0
 47 50  1  0  0  0  0
 47 67  1  0  0  0  0
 48 71  1  0  0  0  0
 49 66  1  0  0  0  0
 50 65  1  0  0  0  0
 51 52  1  0  0  0  0
 51 70  1  0  0  0  0
 52 73  1  0  0  0  0
 54 60  1  0  0  0  0
 55 61  1  0  0  0  0
 56 61  1  0  0  0  0
 57 61  1  0  0  0  0
 58 74  1  0  0  0  0
 59 61  1  0  0  0  0
 59 72  1  0  0  0  0
 60 74  1  0  0  0  0
 62 65  1  0  0  0  0
M  CHG  1  74   1
M  ISO  4  29 101  36 100  73 100  81 101
M  END
> <Batch ID>
0176

> <Smiles>
CNC(C)C(=O)NC(C(=O)N1Cc2cc([101O:1][101c:1]3cc(C)nc(NC4CCC4[100NH:0][100C:0](=O)N4CCCC(n5nc(-c6ccc(Oc7ccc(F)cc7F)cc6)c(C(N)=O)c5N)C4)n3)ccc2CC1C(=O)NC1CCCc2ccccc21)C(C)(C)C

> <Shape>
0.191

> <Color>
0.177

> <Negative vol penalty>
0.000

$$$$

  -OEChem-04052322503D

 88 97  0     1  0  0  0  0  0999 V2000
  -26.9144  -37.5373   22.6096 C   0  0  0  0  0  0  0  0  0  0  0  0
  -27.5761  -36.5442   21.8947 C   0  0  0  0  0  0  0  0  0  0  0  0
  -23.4507  -12.2013   16.1961 C   0  0  0  0  0  0  0  0  0  0  0  0
  -22.6369  -11.0004   18.1282 C   0  0  0  0  0  0  0  0  0  0  0  0
  -26.0723  -37.1910   23.6655 C   0  0  0  0  0  0  0  0  0  0  0  0
  -27.3969  -35.2041   22.2359 C   0  0  0  0  0  0  0  0  0  0  0  0
  -27.1401  -28.6793   19.2901 C   0  0  0  0  0  0  0  0  0  0  0  0
  -22.6358  -11.4261   15.3711 C   0  0  0  0  0  0  0  0  0  0  0  0
  -21.8220  -10.2252   17.3031 C   0  0  0  0  0  0  0  0  0  0  0  0
  -27.7049  -27.4121   19.4284 C   0  0  0  0  0  0  0  0  0  0  0  0
  -18.8625  -10.5575   15.7057 C   0  0  0  0  0  0  0  0  0  0  0  0
  -17.5448  -10.3470   16.1119 C   0  0  0  0  0  0  0  0  0  0  0  0
  -26.1642  -26.9276   21.2202 C   0  0  0  0  0  0  0  0  0  0  0  0
  -17.9378   -7.9635   16.1514 C   0  0  0  0  0  0  0  0  0  0  0  0
  -23.4513  -11.9884   17.5747 C   0  0  0  0  0  0  0  0  0  0  0  0
  -23.9617  -14.0086   19.0464 C   0  0  0  0  0  0  0  0  0  0  0  0
  -25.8751  -35.8455   24.0136 C   0  0  0  0  0  0  0  0  0  0  0  0
  -26.0886  -29.0848   20.1245 C   0  0  0  0  0  0  0  0  0  0  0  0
  -26.5524  -34.8395   23.2982 C   0  0  0  0  0  0  0  0  0  0  0  0
  -25.5861  -28.1994   21.0888 C   0  0  0  0  0  0  0  0  0  0  0  0
  -30.0509  -23.2590   21.0413 C   0  0  0  0  0  0  0  0  0  0  0  0
  -29.2887  -23.5653   19.9195 C   0  0  0  0  0  0  0  0  0  0  0  0
  -30.4553  -21.9473   21.2632 C   0  0  0  0  0  0  0  0  0  0  0  0
  -21.8215  -10.4381   15.9245 C   0  0  0  0  0  0  0  0  0  0  0  0
  -27.2188  -26.5371   20.3954 C   0  0  0  0  0  0  0  0  0  0  0  0
  -19.7178   -9.4710   15.5223 C   0  0  0  0  0  0  0  0  0  0  0  0
  -17.0825   -9.0500   16.3348 C   0  0  0  0  0  0  0  0  0  0  0  0
  -19.2555   -8.1740   15.7452 C   0  0  0  0  0  0  0  0  0  0  0  0
  -24.2932  -12.7884   18.4274 C   0  0  0  0  0  0  0  0  0  0  0  0
  -28.9599  -22.5321   19.0569 C   0  0  0  0  0  0  0  0  0  0  0  0
  -30.0740  -20.9864   20.3406 C   0  0  0  0  0  0  0  0  0  0  0  0
  -25.0930  -14.3592   19.7419 C   0  0  0  0  0  0  0  0  0  0  0  0
  -22.7404  -14.7579   18.9972 C   0  0  0  0  0  0  0  0  0  0  0  0
  -25.6907  -31.3969   22.2691 C   0  0  0  0  0  0  0  0  0  0  0  0
  -22.6346  -30.3096   22.2989 C   0  0  0  0  0  0  0  0  0  0  0  0
  -20.4713  -27.7310   21.7354 C   0  0  0  0  0  0  0  0  0  0  0  0
  -30.7096  -14.9295   19.6613 C   0  0  0  0  0  0  0  0  0  0  0  0
  -24.9920  -35.5226   25.1929 C   0  0  0  0  0  0  0  0  0  0  0  0
  -25.4725  -30.4451   19.9448 C   0  0  0  0  0  0  0  0  0  0  0  0
  -24.4453  -28.5790   21.9960 C   0  0  0  0  0  0  0  0  0  0  0  0
  -24.5642  -34.0584   25.2506 C   0  0  0  0  0  0  0  0  0  0  0  0
  -29.2889  -11.7325   20.7721 C   0  0  0  0  0  0  0  0  0  0  0  0
  -25.7609  -33.1428   25.0130 C   0  0  0  0  0  0  0  0  0  0  0  0
  -27.8476  -11.8084   20.2664 C   0  0  0  0  0  0  0  0  0  0  0  0
  -28.7509  -18.0272   19.9523 C   0  0  0  0  0  0  0  0  0  0  0  0
  -30.2498  -12.5147   19.8796 C   0  0  0  0  0  0  0  0  0  0  0  0
  -28.8281  -16.6382   19.3273 C   0  0  0  0  0  0  0  0  0  0  0  0
  -28.4201  -13.9870   19.1327 C   0  0  0  0  0  0  0  0  0  0  0  0
  -31.0365  -17.3726   19.9177 C   0  0  0  0  0  0  0  0  0  0  0  0
  -26.3643  -33.3733   23.6223 C   0  0  1  0  0  0  0  0  0  0  0  0
  -24.7473  -30.9421   21.1917 C   0  0  1  0  0  0  0  0  0  0  0  0
  -27.4138  -13.2691   20.0426 C   0  0  1  0  0  0  0  0  0  0  0  0
  -30.1447  -18.5817   19.6790 C   0  0  2  0  0  0  0  0  0  0  0  0
  -30.4345  -24.3372   22.0041 C   0  0  0  0  0  0  0  0  0  0  0  0
  -28.1430  -22.7997   17.8353 C   0  0  0  0  0  0  0  0  0  0  0  0
  -32.6585  -21.0391   22.0846 C   0  0  0  0  0  0  0  0  0  0  0  0
  -30.5502  -20.6117   23.3989 C   0  0  0  0  0  0  0  0  0  0  0  0
  -18.0393  -27.1312   21.8864 C   0  0  0  0  0  0  0  0  0  0  0  0
  -22.8904  -30.0456   25.3279 C   0  0  0  0  0  0  0  0  0  0  0  0
  -20.8533  -28.5904   25.3032 C   0  0  0  0  0  0  0  0  0  0  0  0
  -20.6998  -30.9609   24.5418 C   0  0  0  0  0  0  0  0  0  0  0  0
  -20.2991  -27.2129   18.8266 C   0  0  0  0  0  0  0  0  0  0  0  0
  -28.8403  -24.9634   19.6537 C   0  0  0  0  0  0  0  0  0  1  0  0
  -31.2736  -21.5963   22.4619 C   0  0  0  0  0  0  0  0  0  0  0  0
  -21.8792  -29.2649   23.0843 C   0  0  1  0  0  0  0  0  0  0  0  0
  -19.1474  -27.6704   20.9952 C   0  0  2  0  0  0  0  0  0  0  0  0
  -21.6035  -29.7087   24.5486 C   0  0  0  0  0  0  0  0  0  0  0  0
  -25.5377  -12.3908   18.7050 N   0  0  0  0  0  0  0  0  0  0  0  0
  -29.3342  -21.2459   19.2392 N   0  0  0  0  0  0  0  0  0  0  0  0
  -25.9982  -13.3667   19.5061 N   0  0  0  0  0  0  0  0  0  0  0  0
  -23.8805  -29.9222   21.7856 N   0  0  0  0  0  0  0  0  0  0  0  0
  -29.7789  -13.8848   19.6758 N   0  0  0  0  0  0  0  0  0  0  0  0
  -30.2217  -16.2278   19.5178 N   0  0  0  0  0  0  0  0  0  0  0  0
  -25.3919  -15.4168   20.5259 N   0  0  0  0  0  0  0  0  0  0  0  0
  -21.6775  -14.2539   18.2352 N   0  0  0  0  0  0  0  0  0  0  0  0
  -30.4718  -19.6740   20.5569 N   0  0  0  0  0  0  0  0  0  0  0  0
  -25.5570  -32.7299   22.6081 N   0  0  0  0  0  0  0  0  0  0  0  0
  -20.6769  -28.9655   22.3141 N   0  0  0  0  0  0  0  0  0  0  0  0
  -19.2617  -26.7866   19.8007 N   0  3  0  0  0  0  0  0  0  0  0  0
  -22.6015  -15.8506   19.5974 O   0  0  0  0  0  0  0  0  0  0  0  0
  -26.4803  -30.5974   22.7579 O   0  0  0  0  0  0  0  0  0  0  0  0
  -22.1344  -31.4260   22.1405 O   0  0  0  0  0  0  0  0  0  0  0  0
  -21.2441  -26.7773   21.7973 O   0  0  0  0  0  0  0  0  0  0  0  0
  -31.9193  -14.7166   19.8171 O   0  0  0  0  0  0  0  0  0  0  0  0
  -21.0260   -9.6817   15.1198 O   0  0  0  0  0  0  0  0  0  0  0  0
  -27.7726  -25.2913   20.5339 O   0  0  0  0  0  0  0  0  0  1  0  0
  -15.8175   -8.8481   16.7263 F   0  0  0  0  0  0  0  0  0  0  0  0
  -20.0729   -7.1263   15.5718 F   0  0  0  0  0  0  0  0  0  0  0  0
  1  2  1  0  0  0  0
  1  5  2  0  0  0  0
  2  6  2  0  0  0  0
  3  8  2  0  0  0  0
  3 15  1  0  0  0  0
  4  9  1  0  0  0  0
  4 15  2  0  0  0  0
  5 17  1  0  0  0  0
  6 19  1  0  0  0  0
  7 10  2  0  0  0  0
  7 18  1  0  0  0  0
  8 24  1  0  0  0  0
  9 24  2  0  0  0  0
 10 25  1  0  0  0  0
 11 12  2  0  0  0  0
 11 26  1  0  0  0  0
 12 27  1  0  0  0  0
 13 20  1  0  0  0  0
 13 25  2  0  0  0  0
 14 27  2  0  0  0  0
 14 28  1  0  0  0  0
 15 29  1  0  0  0  0
 16 29  1  0  0  0  0
 16 32  2  0  0  0  0
 16 33  1  0  0  0  0
 17 19  2  0  0  0  0
 17 38  1  0  0  0  0
 18 20  2  0  0  0  0
 18 39  1  0  0  0  0
 19 50  1  0  0  0  0
 20 40  1  0  0  0  0
 21 22  2  0  0  0  0
 21 23  1  0  0  0  0
 21 54  1  0  0  0  0
 22 30  1  0  0  0  0
 22 63  1  0  0  0  0
 23 31  2  0  0  0  0
 23 64  1  0  0  0  0
 24 85  1  0  0  0  0
 25 86  1  0  0  0  0
 26 28  2  0  0  0  0
 26 85  1  0  0  0  0
 27 87  1  0  0  0  0
 28 88  1  0  0  0  0
 29 68  2  0  0  0  0
 30 55  1  0  0  0  0
 30 69  2  0  0  0  0
 31 69  1  0  0  0  0
 31 76  1  0  0  0  0
 32 70  1  0  0  0  0
 32 74  1  0  0  0  0
 33 75  1  0  0  0  0
 33 80  2  0  0  0  0
 34 51  1  0  0  0  0
 34 77  1  0  0  0  0
 34 81  2  0  0  0  0
 35 65  1  0  0  0  0
 35 71  1  0  0  0  0
 35 82  2  0  0  0  0
 36 66  1  0  0  0  0
 36 78  1  0  0  0  0
 36 83  2  0  0  0  0
 37 72  1  0  0  0  0
 37 73  1  0  0  0  0
 37 84  2  0  0  0  0
 38 41  1  0  0  0  0
 39 51  1  0  0  0  0
 40 71  1  0  0  0  0
 41 43  1  0  0  0  0
 42 44  1  0  0  0  0
 42 46  1  0  0  0  0
 43 50  1  0  0  0  0
 44 52  1  0  0  0  0
 45 47  1  0  0  0  0
 45 53  1  0  0  0  0
 46 72  1  0  0  0  0
 47 73  1  0  0  0  0
 48 52  1  0  0  0  0
 48 72  1  0  0  0  0
 49 53  1  0  0  0  0
 49 73  1  0  0  0  0
 50 77  1  0  0  0  0
 51 71  1  0  0  0  0
 52 70  1  0  0  0  0
 53 76  1  0  0  0  0
 56 64  1  0  0  0  0
 57 64  1  0  0  0  0
 58 66  1  0  0  0  0
 59 67  1  0  0  0  0
 60 67  1  0  0  0  0
 61 67  1  0  0  0  0
 62 79  1  0  0  0  0
 63 86  1  0  0  0  0
 65 67  1  0  0  0  0
 65 78  1  0  0  0  0
 66 79  1  0  0  0  0
 68 70  1  0  0  0  0
M  CHG  1  79   1
M  ISO  4  37 100  63 101  73 100  86 101
M  END
> <Batch ID>
0176

> <Smiles>
CNC(C)C(=O)NC(C(=O)N1Cc2cc([101O:1][101CH2:1]c3c(C)nc(NC4CC[100N:0]([100C:0](=O)N5CCCC(n6nc(-c7ccc(Oc8ccc(F)cc8F)cc7)c(C(N)=O)c6N)C5)C4)c(C(C)C)c3C)ccc2CC1C(=O)NC1CCCc2ccccc21)C(C)(C)C

> <Shape>
0.295

> <Color>
0.116

> <Negative vol penalty>
0.000

$$$$

  -OEChem-04052322503D

 84 93  0     1  0  0  0  0  0999 V2000
  -23.1367  -19.5408   19.9679 C   0  0  0  0  0  0  0  0  0  0  0  0
  -24.2953  -19.6795   20.7253 C   0  0  0  0  0  0  0  0  0  0  0  0
  -23.0773   -9.8635   19.9482 C   0  0  0  0  0  0  0  0  0  0  0  0
  -23.8349   -9.8839   22.2422 C   0  0  0  0  0  0  0  0  0  0  0  0
  -22.8416  -20.4697   18.9709 C   0  0  0  0  0  0  0  0  0  0  0  0
  -25.1603  -20.7466   20.4854 C   0  0  0  0  0  0  0  0  0  0  0  0
  -26.7250  -22.9767   24.7542 C   0  0  0  0  0  0  0  0  0  0  0  0
  -22.3341   -8.7112   20.2038 C   0  0  0  0  0  0  0  0  0  0  0  0
  -23.0917   -8.7315   22.4979 C   0  0  0  0  0  0  0  0  0  0  0  0
  -27.7295  -22.3344   25.4769 C   0  0  0  0  0  0  0  0  0  0  0  0
  -21.1079   -6.0002   23.8478 C   0  0  0  0  0  0  0  0  0  0  0  0
  -20.3505   -5.9624   25.0184 C   0  0  0  0  0  0  0  0  0  0  0  0
  -29.3625  -23.8367   24.5306 C   0  0  0  0  0  0  0  0  0  0  0  0
  -31.6740  -20.4074   26.1552 C   0  0  0  0  0  0  0  0  0  0  0  0
  -19.1050   -7.8945   24.2749 C   0  0  0  0  0  0  0  0  0  0  0  0
  -23.8277  -10.4499   20.9674 C   0  0  0  0  0  0  0  0  0  0  0  0
  -24.1675  -12.9747   20.8337 C   0  0  0  0  0  0  0  0  0  0  0  0
  -23.6985  -21.5542   18.7251 C   0  0  0  0  0  0  0  0  0  0  0  0
  -27.0338  -24.0486   23.9045 C   0  0  0  0  0  0  0  0  0  0  0  0
  -24.8771  -21.6901   19.4832 C   0  0  0  0  0  0  0  0  0  0  0  0
  -28.3598  -24.4925   23.8002 C   0  0  0  0  0  0  0  0  0  0  0  0
  -31.8883  -18.9405   24.2253 C   0  0  0  0  0  0  0  0  0  0  0  0
  -32.2837  -19.3369   25.5146 C   0  0  0  0  0  0  0  0  0  0  0  0
  -22.3413   -8.1452   21.4787 C   0  0  0  0  0  0  0  0  0  0  0  0
  -29.0489  -22.7625   25.3630 C   0  0  0  0  0  0  0  0  0  0  0  0
  -20.8639   -6.9852   22.8906 C   0  0  0  0  0  0  0  0  0  0  0  0
  -19.3490   -6.9096   25.2320 C   0  0  0  0  0  0  0  0  0  0  0  0
  -19.8624   -7.9323   23.1042 C   0  0  0  0  0  0  0  0  0  0  0  0
  -24.5960  -11.6400   20.7038 C   0  0  0  0  0  0  0  0  0  0  0  0
  -30.8651  -19.6792   23.6224 C   0  0  0  0  0  0  0  0  0  0  0  0
  -30.6713  -21.0664   25.4789 C   0  0  0  0  0  0  0  0  0  1  0  0
  -25.2593  -13.7231   20.4673 C   0  0  0  0  0  0  0  0  0  0  0  0
  -22.8961  -13.4917   21.2485 C   0  0  0  0  0  0  0  0  0  0  0  0
  -26.7762  -24.5816   20.7815 C   0  0  0  0  0  0  0  0  0  0  0  0
  -27.7482  -27.5647   21.6056 C   0  0  0  0  0  0  0  0  0  0  0  0
  -29.3849  -29.5666   23.8328 C   0  0  0  0  0  0  0  0  0  0  0  0
  -30.7420  -14.7479   20.6554 C   0  0  0  0  0  0  0  0  0  0  0  0
  -23.3616  -22.5062   17.6049 C   0  0  0  0  0  0  0  0  0  0  0  0
  -25.9350  -24.7480   23.1523 C   0  0  0  0  0  0  0  0  0  0  0  0
  -28.7409  -25.6517   22.9173 C   0  0  0  0  0  0  0  0  0  0  0  0
  -30.3556  -19.3986   22.2359 C   0  0  0  0  0  0  0  0  0  0  0  0
  -24.1401  -23.8179   17.6655 C   0  0  0  0  0  0  0  0  0  0  0  0
  -29.7571  -18.0069   22.0587 C   0  0  0  0  0  0  0  0  0  0  0  0
  -29.6088  -12.3492   18.2808 C   0  0  0  0  0  0  0  0  0  0  0  0
  -25.6196  -23.5492   17.9217 C   0  0  0  0  0  0  0  0  0  0  0  0
  -28.1712  -12.0566   18.7139 C   0  0  0  0  0  0  0  0  0  0  0  0
  -31.6420  -16.6398   23.1349 C   0  0  0  0  0  0  0  0  0  0  0  0
  -30.5246  -12.5775   19.4813 C   0  0  0  0  0  0  0  0  0  0  0  0
  -28.6208  -13.3146   20.8620 C   0  0  0  0  0  0  0  0  0  0  0  0
  -32.5936  -17.7620   23.5886 C   0  0  1  0  0  0  0  0  0  0  0  0
  -25.8277  -22.8481   19.2696 C   0  0  1  0  0  0  0  0  0  0  0  0
  -26.4367  -25.4985   21.9224 C   0  0  1  0  0  0  0  0  0  0  0  0
  -27.6480  -13.1326   19.6844 C   0  0  2  0  0  0  0  0  0  0  0  0
  -30.8048  -16.9053   21.8804 C   0  0  1  0  0  0  0  0  0  0  0  0
  -33.3795  -18.6503   26.2709 C   0  0  0  0  0  0  0  0  0  0  0  0
  -33.5965  -18.1924   22.5153 C   0  0  0  0  0  0  0  0  0  0  0  0
  -30.0470  -31.9565   24.2165 C   0  0  0  0  0  0  0  0  0  0  0  0
  -29.9605  -27.2836   19.5232 C   0  0  0  0  0  0  0  0  0  0  0  0
  -31.1198  -29.2272   20.5941 C   0  0  0  0  0  0  0  0  0  0  0  0
  -28.8606  -29.5289   19.5802 C   0  0  0  0  0  0  0  0  0  0  0  0
  -27.8286  -29.7156   26.3457 C   0  0  0  0  0  0  0  0  0  0  0  0
  -29.0845  -28.2517   21.7506 C   0  0  1  0  0  0  0  0  0  0  0  0
  -28.9975  -30.8866   24.4745 C   0  0  2  0  0  0  0  0  0  0  0  0
  -29.7498  -28.5497   20.3773 C   0  0  0  0  0  0  0  0  0  0  0  0
  -25.8613  -11.5430   20.2873 N   0  0  0  0  0  0  0  0  0  0  0  0
  -30.2586  -20.7309   24.2392 N   0  0  0  0  0  0  0  0  0  0  0  0
  -26.2373  -12.8261   20.1522 N   0  0  0  0  0  0  0  0  0  0  0  0
  -27.6317  -26.2989   22.1972 N   0  0  0  0  0  0  0  0  0  0  0  0
  -29.9722  -13.6104   20.3610 N   0  0  0  0  0  0  0  0  0  0  0  0
  -25.4687  -15.0543   20.3871 N   0  0  0  0  0  0  0  0  0  0  0  0
  -21.8847  -12.5835   21.5898 N   0  0  0  0  0  0  0  0  0  0  0  0
  -25.7203  -23.7987   20.3555 N   0  0  0  0  0  0  0  0  0  0  0  0
  -28.8481  -29.4358   22.5695 N   0  0  0  0  0  0  0  0  0  0  0  0
  -30.1412  -15.6809   21.4916 N   0  0  0  0  0  0  0  0  0  0  0  0
  -28.8467  -30.7217   25.9479 N   0  3  0  0  0  0  0  0  0  0  0  0
  -22.6588  -14.7224   21.2988 O   0  0  0  0  0  0  0  0  0  0  0  0
  -27.9117  -24.5854   20.3207 O   0  0  0  0  0  0  0  0  0  0  0  0
  -26.8388  -28.1333   20.9962 O   0  0  0  0  0  0  0  0  0  0  0  0
  -30.0960  -28.7362   24.3944 O   0  0  0  0  0  0  0  0  0  0  0  0
  -31.8782  -14.9218   20.2019 O   0  0  0  0  0  0  0  0  0  0  0  0
  -21.6161   -7.0208   21.7285 O   0  0  0  0  0  0  0  0  0  0  0  0
  -30.0458  -22.1277   26.0771 O   0  0  0  0  0  0  0  0  0  1  0  0
  -18.6207   -6.8723   26.3556 F   0  0  0  0  0  0  0  0  0  0  0  0
  -19.6226   -8.8802   22.1879 F   0  0  0  0  0  0  0  0  0  0  0  0
  1  2  1  0  0  0  0
  1  5  2  0  0  0  0
  2  6  2  0  0  0  0
  3  8  2  0  0  0  0
  3 16  1  0  0  0  0
  4  9  1  0  0  0  0
  4 16  2  0  0  0  0
  5 18  1  0  0  0  0
  6 20  1  0  0  0  0
  7 10  2  0  0  0  0
  7 19  1  0  0  0  0
  8 24  1  0  0  0  0
  9 24  2  0  0  0  0
 10 25  1  0  0  0  0
 11 12  2  0  0  0  0
 11 26  1  0  0  0  0
 12 27  1  0  0  0  0
 13 21  1  0  0  0  0
 13 25  2  0  0  0  0
 14 23  2  0  0  0  0
 14 31  1  0  0  0  0
 15 27  2  0  0  0  0
 15 28  1  0  0  0  0
 16 29  1  0  0  0  0
 17 29  1  0  0  0  0
 17 32  2  0  0  0  0
 17 33  1  0  0  0  0
 18 20  2  0  0  0  0
 18 38  1  0  0  0  0
 19 21  2  0  0  0  0
 19 39  1  0  0  0  0
 20 51  1  0  0  0  0
 21 40  1  0  0  0  0
 22 23  1  0  0  0  0
 22 30  2  0  0  0  0
 22 50  1  0  0  0  0
 23 55  1  0  0  0  0
 24 81  1  0  0  0  0
 25 82  1  0  0  0  0
 26 28  2  0  0  0  0
 26 81  1  0  0  0  0
 27 83  1  0  0  0  0
 28 84  1  0  0  0  0
 29 65  2  0  0  0  0
 30 41  1  0  0  0  0
 30 66  1  0  0  0  0
 31 66  2  0  0  0  0
 31 82  1  0  0  0  0
 32 67  1  0  0  0  0
 32 70  1  0  0  0  0
 33 71  1  0  0  0  0
 33 76  2  0  0  0  0
 34 52  1  0  0  0  0
 34 72  1  0  0  0  0
 34 77  2  0  0  0  0
 35 62  1  0  0  0  0
 35 68  1  0  0  0  0
 35 78  2  0  0  0  0
 36 63  1  0  0  0  0
 36 73  1  0  0  0  0
 36 79  2  0  0  0  0
 37 69  1  0  0  0  0
 37 74  1  0  0  0  0
 37 80  2  0  0  0  0
 38 42  1  0  0  0  0
 39 52  1  0  0  0  0
 40 68  1  0  0  0  0
 41 43  1  0  0  0  0
 42 45  1  0  0  0  0
 43 54  1  0  0  0  0
 44 46  1  0  0  0  0
 44 48  1  0  0  0  0
 45 51  1  0  0  0  0
 46 53  1  0  0  0  0
 47 50  1  0  0  0  0
 47 54  1  0  0  0  0
 48 69  1  0  0  0  0
 49 53  1  0  0  0  0
 49 69  1  0  0  0  0
 50 56  1  0  0  0  0
 51 72  1  0  0  0  0
 52 68  1  0  0  0  0
 53 67  1  0  0  0  0
 54 74  1  0  0  0  0
 57 63  1  0  0  0  0
 58 64  1  0  0  0  0
 59 64  1  0  0  0  0
 60 64  1  0  0  0  0
 61 75  1  0  0  0  0
 62 64  1  0  0  0  0
 62 73  1  0  0  0  0
 63 75  1  0  0  0  0
 65 67  1  0  0  0  0
M  CHG  1  75   1
M  ISO  4  31 101  37 100  74 100  82 101
M  END
> <Batch ID>
0176

> <Smiles>
CNC(C)C(=O)NC(C(=O)N1Cc2cc([101O:1][101c:1]3cc(C)c4c(n3)CCC([100NH:0][100C:0](=O)N3CCCC(n5nc(-c6ccc(Oc7ccc(F)cc7F)cc6)c(C(N)=O)c5N)C3)CC4C)ccc2CC1C(=O)NC1CCCc2ccccc21)C(C)(C)C

> <Shape>
0.211

> <Color>
0.192

> <Negative vol penalty>
0.000

$$$$

  -OEChem-04052322503D

 84 93  0     1  0  0  0  0  0999 V2000
  -39.1268  -29.6541   25.8639 C   0  0  0  0  0  0  0  0  0  0  0  0
  -39.0541  -28.2851   26.1002 C   0  0  0  0  0  0  0  0  0  0  0  0
  -23.1029   -9.8602   19.9215 C   0  0  0  0  0  0  0  0  0  0  0  0
  -23.7936   -9.8796   22.2366 C   0  0  0  0  0  0  0  0  0  0  0  0
  -38.0567  -30.3141   25.2611 C   0  0  0  0  0  0  0  0  0  0  0  0
  -37.9108  -27.5753   25.7348 C   0  0  0  0  0  0  0  0  0  0  0  0
  -35.8562  -21.1300   23.3784 C   0  0  0  0  0  0  0  0  0  0  0  0
  -22.3458   -8.7126   20.1570 C   0  0  0  0  0  0  0  0  0  0  0  0
  -23.0364   -8.7320   22.4721 C   0  0  0  0  0  0  0  0  0  0  0  0
  -34.9550  -20.1099   23.6801 C   0  0  0  0  0  0  0  0  0  0  0  0
  -19.3511   -7.9413   21.5245 C   0  0  0  0  0  0  0  0  0  0  0  0
  -18.0592   -7.8982   21.0004 C   0  0  0  0  0  0  0  0  0  0  0  0
  -33.2003  -21.3409   22.5734 C   0  0  0  0  0  0  0  0  0  0  0  0
  -18.6481   -5.9430   19.7092 C   0  0  0  0  0  0  0  0  0  0  0  0
  -23.8269  -10.4437   20.9613 C   0  0  0  0  0  0  0  0  0  0  0  0
  -24.1855  -12.9661   20.8341 C   0  0  0  0  0  0  0  0  0  0  0  0
  -36.9036  -29.6103   24.8793 C   0  0  0  0  0  0  0  0  0  0  0  0
  -35.4330  -22.2701   22.6803 C   0  0  0  0  0  0  0  0  0  0  0  0
  -36.8238  -28.2267   25.1275 C   0  0  0  0  0  0  0  0  0  0  0  0
  -34.0986  -22.3729   22.2619 C   0  0  0  0  0  0  0  0  0  0  0  0
  -22.3125   -8.1485   21.4323 C   0  0  0  0  0  0  0  0  0  0  0  0
  -33.6262  -20.2165   23.2802 C   0  0  0  0  0  0  0  0  0  0  0  0
  -20.2916   -6.9853   21.1408 C   0  0  0  0  0  0  0  0  0  0  0  0
  -17.7077   -6.8991   20.0928 C   0  0  0  0  0  0  0  0  0  0  0  0
  -19.9401   -5.9861   20.2332 C   0  0  0  0  0  0  0  0  0  0  0  0
  -24.6096  -11.6288   20.7186 C   0  0  0  0  0  0  0  0  0  0  0  0
  -25.2920  -13.7075   20.4986 C   0  0  0  0  0  0  0  0  0  0  0  0
  -22.9057  -13.4913   21.2110 C   0  0  0  0  0  0  0  0  0  0  0  0
  -35.3031  -25.3789   23.3303 C   0  0  0  0  0  0  0  0  0  0  0  0
  -34.4005  -25.5941   20.2220 C   0  0  0  0  0  0  0  0  0  0  0  0
  -33.0207  -24.0771   17.4941 C   0  0  0  0  0  0  0  0  0  0  0  0
  -30.6597  -14.7796   20.6730 C   0  0  0  0  0  0  0  0  0  0  0  0
  -35.7535  -30.3753   24.2738 C   0  0  0  0  0  0  0  0  0  0  0  0
  -36.4235  -23.3495   22.3392 C   0  0  0  0  0  0  0  0  0  0  0  0
  -33.5986  -23.5670   21.4922 C   0  0  0  0  0  0  0  0  0  0  0  0
  -34.7293  -29.4840   23.5761 C   0  0  0  0  0  0  0  0  0  0  0  0
  -29.6912  -12.3294   18.4339 C   0  0  0  0  0  0  0  0  0  0  0  0
  -34.3766  -28.2876   24.4542 C   0  0  0  0  0  0  0  0  0  0  0  0
  -28.2451  -12.0288   18.8274 C   0  0  0  0  0  0  0  0  0  0  0  0
  -31.1977  -19.0914   25.5909 C   0  0  0  0  0  0  0  0  0  0  0  0
  -30.3640  -18.1291   26.3888 C   0  0  0  0  0  0  0  0  0  0  0  0
  -30.5650  -12.5176   19.6688 C   0  0  0  0  0  0  0  0  0  0  0  0
  -28.6303  -13.2939   21.0002 C   0  0  0  0  0  0  0  0  0  0  0  0
  -29.3080  -15.3556   22.7279 C   0  0  0  0  0  0  0  0  0  0  0  0
  -35.6106  -27.4177   24.7229 C   0  0  1  0  0  0  0  0  0  0  0  0
  -35.7668  -24.7004   22.0724 C   0  0  1  0  0  0  0  0  0  0  0  0
  -27.6989  -13.1017   19.7863 C   0  0  2  0  0  0  0  0  0  0  0  0
  -31.1856  -17.6326   25.2335 C   0  0  0  0  0  0  0  0  0  0  0  0
  -30.4763  -17.1331   21.4515 C   0  0  2  0  0  0  0  0  0  0  0  0
  -30.0361  -15.7457   24.0206 C   0  0  2  0  0  0  0  0  0  0  0  0
  -31.2710  -17.5368   22.7103 C   0  0  1  0  0  0  0  0  0  0  0  0
  -29.1129  -15.4859   25.2121 C   0  0  0  0  0  0  0  0  0  0  0  0
  -32.3798  -24.5186   15.1084 C   0  0  0  0  0  0  0  0  0  0  0  0
  -29.6975  -19.3182   20.4908 C   0  0  0  0  0  0  0  0  0  0  0  0
  -28.2725  -17.2645   20.2560 C   0  0  0  0  0  0  0  0  0  0  0  0
  -31.9556  -27.1542   21.1701 C   0  0  0  0  0  0  0  0  0  0  0  0
  -30.9103  -26.7395   18.9332 C   0  0  0  0  0  0  0  0  0  0  0  0
  -33.0257  -28.0515   19.0954 C   0  0  0  0  0  0  0  0  0  0  0  0
  -34.8684  -21.9942   16.4907 C   0  0  0  0  0  0  0  0  0  0  0  0
  -31.6654  -19.0150   22.6739 C   0  0  0  0  0  0  0  0  0  1  0  0
  -33.0830  -25.5543   19.4861 C   0  0  1  0  0  0  0  0  0  0  0  0
  -33.4664  -24.0126   16.0444 C   0  0  2  0  0  0  0  0  0  0  0  0
  -29.2574  -18.0139   21.1460 C   0  0  0  0  0  0  0  0  0  0  0  0
  -32.2523  -26.8531   19.6874 C   0  0  0  0  0  0  0  0  0  0  0  0
  -25.8860  -11.5236   20.3392 N   0  0  0  0  0  0  0  0  0  0  0  0
  -26.2733  -12.8043   20.2133 N   0  0  0  0  0  0  0  0  0  0  0  0
  -34.6039  -24.5988   21.1884 N   0  0  0  0  0  0  0  0  0  0  0  0
  -30.0108  -13.5405   20.5554 N   0  0  0  0  0  0  0  0  0  0  0  0
  -30.0766  -15.7221   21.5366 N   0  0  0  0  0  0  0  0  0  0  0  0
  -25.5115  -15.0373   20.4227 N   0  0  0  0  0  0  0  0  0  0  0  0
  -21.8793  -12.5897   21.5240 N   0  0  0  0  0  0  0  0  0  0  0  0
  -35.9109  -26.5965   23.5697 N   0  0  0  0  0  0  0  0  0  0  0  0
  -33.4020  -25.2588   18.0936 N   0  0  0  0  0  0  0  0  0  0  0  0
  -30.4474  -17.2196   23.9641 N   0  3  2  0  0  0  0  0  0  0  0  0
  -33.7969  -22.6096   15.6659 N   0  3  0  0  0  0  0  0  0  0  0  0
  -22.6743  -14.7235   21.2527 O   0  0  0  0  0  0  0  0  0  0  0  0
  -34.4554  -24.8383   24.0310 O   0  0  0  0  0  0  0  0  0  0  0  0
  -35.2219  -26.4715   19.9445 O   0  0  0  0  0  0  0  0  0  0  0  0
  -32.3936  -23.1714   18.0391 O   0  0  0  0  0  0  0  0  0  0  0  0
  -31.6941  -15.0296   20.0421 O   0  0  0  0  0  0  0  0  0  0  0  0
  -21.5737   -7.0289   21.6625 O   0  0  0  0  0  0  0  0  0  0  0  0
  -32.7360  -19.2131   23.5768 O   0  0  0  0  0  0  0  0  0  1  0  0
  -16.4665   -6.8569   19.5909 F   0  0  0  0  0  0  0  0  0  0  0  0
  -20.8390   -5.0642   19.8617 F   0  0  0  0  0  0  0  0  0  0  0  0
  1  2  1  0  0  0  0
  1  5  2  0  0  0  0
  2  6  2  0  0  0  0
  3  8  2  0  0  0  0
  3 15  1  0  0  0  0
  4  9  1  0  0  0  0
  4 15  2  0  0  0  0
  5 17  1  0  0  0  0
  6 19  1  0  0  0  0
  7 10  2  0  0  0  0
  7 18  1  0  0  0  0
  8 21  1  0  0  0  0
  9 21  2  0  0  0  0
 10 22  1  0  0  0  0
 11 12  2  0  0  0  0
 11 23  1  0  0  0  0
 12 24  1  0  0  0  0
 13 20  1  0  0  0  0
 13 22  2  0  0  0  0
 14 24  2  0  0  0  0
 14 25  1  0  0  0  0
 15 26  1  0  0  0  0
 16 26  1  0  0  0  0
 16 27  2  0  0  0  0
 16 28  1  0  0  0  0
 17 19  2  0  0  0  0
 17 33  1  0  0  0  0
 18 20  2  0  0  0  0
 18 34  1  0  0  0  0
 19 45  1  0  0  0  0
 20 35  1  0  0  0  0
 21 81  1  0  0  0  0
 22 82  1  0  0  0  0
 23 25  2  0  0  0  0
 23 81  1  0  0  0  0
 24 83  1  0  0  0  0
 25 84  1  0  0  0  0
 26 65  2  0  0  0  0
 27 66  1  0  0  0  0
 27 70  1  0  0  0  0
 28 71  1  0  0  0  0
 28 76  2  0  0  0  0
 29 46  1  0  0  0  0
 29 72  1  0  0  0  0
 29 77  2  0  0  0  0
 30 61  1  0  0  0  0
 30 67  1  0  0  0  0
 30 78  2  0  0  0  0
 31 62  1  0  0  0  0
 31 73  1  0  0  0  0
 31 79  2  0  0  0  0
 32 68  1  0  0  0  0
 32 69  1  0  0  0  0
 32 80  2  0  0  0  0
 33 36  1  0  0  0  0
 34 46  1  0  0  0  0
 35 67  1  0  0  0  0
 36 38  1  0  0  0  0
 37 39  1  0  0  0  0
 37 42  1  0  0  0  0
 38 45  1  0  0  0  0
 39 47  1  0  0  0  0
 40 41  1  0  0  0  0
 40 48  1  0  0  0  0
 41 48  1  0  0  0  0
 42 68  1  0  0  0  0
 43 47  1  0  0  0  0
 43 68  1  0  0  0  0
 44 50  1  0  0  0  0
 44 69  1  0  0  0  0
 45 72  1  0  0  0  0
 46 67  1  0  0  0  0
 47 66  1  0  0  0  0
 48 74  1  0  0  0  0
 49 51  1  0  0  0  0
 49 63  1  0  0  0  0
 49 69  1  0  0  0  0
 50 52  1  0  0  0  0
 50 74  1  0  0  0  0
 51 60  1  0  0  0  0
 51 74  1  0  0  0  0
 53 62  1  0  0  0  0
 54 63  1  0  0  0  0
 55 63  1  0  0  0  0
 56 64  1  0  0  0  0
 57 64  1  0  0  0  0
 58 64  1  0  0  0  0
 59 75  1  0  0  0  0
 60 82  1  0  0  0  0
 61 64  1  0  0  0  0
 61 73  1  0  0  0  0
 62 75  1  0  0  0  0
 65 66  1  0  0  0  0
M  CHG  2  74   1  75   1
M  ISO  4  32 100  60 101  69 100  82 101
M  END
> <Batch ID>
0176

> <Smiles>
CNC(C)C(=O)NC(C(=O)N1Cc2cc([101O:1][101CH2:1]C3C(C(C)C)[100N:0]([100C:0](=O)N4CCCC(n5nc(-c6ccc(Oc7ccc(F)cc7F)cc6)c(C(N)=O)c5N)C4)CC(C)N3C3CC3)ccc2CC1C(=O)NC1CCCc2ccccc21)C(C)(C)C

> <Shape>
0.182

> <Color>
0.190

> <Negative vol penalty>
0.000

$$$$

  -OEChem-04052322503D

 84 93  0     1  0  0  0  0  0999 V2000
  -29.2096  -31.0237   26.6329 C   0  0  0  0  0  0  0  0  0  0  0  0
  -28.9718  -30.0174   25.7021 C   0  0  0  0  0  0  0  0  0  0  0  0
  -23.1953  -10.5689   21.5034 C   0  0  0  0  0  0  0  0  0  0  0  0
  -24.8128   -8.8077   21.8485 C   0  0  0  0  0  0  0  0  0  0  0  0
  -28.1398  -31.7205   27.1931 C   0  0  0  0  0  0  0  0  0  0  0  0
  -27.6638  -29.7067   25.3318 C   0  0  0  0  0  0  0  0  0  0  0  0
  -27.1450  -29.1366   20.3268 C   0  0  0  0  0  0  0  0  0  0  0  0
  -22.1812   -9.6169   21.3986 C   0  0  0  0  0  0  0  0  0  0  0  0
  -23.7987   -7.8558   21.7437 C   0  0  0  0  0  0  0  0  0  0  0  0
  -27.5798  -27.9325   19.7746 C   0  0  0  0  0  0  0  0  0  0  0  0
  -21.5805   -4.9810   21.9266 C   0  0  0  0  0  0  0  0  0  0  0  0
  -21.5607   -3.9477   22.8633 C   0  0  0  0  0  0  0  0  0  0  0  0
  -25.3024  -27.1384   19.7283 C   0  0  0  0  0  0  0  0  0  0  0  0
  -26.8597  -22.4148   18.9190 C   0  0  0  0  0  0  0  0  0  0  0  0
  -27.1941  -23.5192   16.8089 C   0  0  0  0  0  0  0  0  0  0  0  0
  -21.3286   -5.5652   24.6428 C   0  0  0  0  0  0  0  0  0  0  0  0
  -24.5112  -10.1643   21.7284 C   0  0  0  0  0  0  0  0  0  0  0  0
  -26.0069  -11.7875   23.0072 C   0  0  0  0  0  0  0  0  0  0  0  0
  -26.8185  -31.4247   26.8223 C   0  0  0  0  0  0  0  0  0  0  0  0
  -25.7847  -29.3468   20.5944 C   0  0  0  0  0  0  0  0  0  0  0  0
  -26.5752  -30.3993   25.8886 C   0  0  0  0  0  0  0  0  0  0  0  0
  -24.8526  -28.3471   20.2815 C   0  0  0  0  0  0  0  0  0  0  0  0
  -26.7260  -23.5433   18.1179 C   0  0  0  0  0  0  0  0  0  0  0  0
  -22.4829   -8.2604   21.5188 C   0  0  0  0  0  0  0  0  0  0  0  0
  -26.6587  -26.9320   19.4780 C   0  0  0  0  0  0  0  0  0  0  0  0
  -21.4745   -6.3065   22.3480 C   0  0  0  0  0  0  0  0  0  0  0  0
  -21.4347   -4.2397   24.2214 C   0  0  0  0  0  0  0  0  0  0  0  0
  -21.3485   -6.5986   23.7061 C   0  0  0  0  0  0  0  0  0  0  0  0
  -25.5593  -11.1471   21.8362 C   0  0  0  0  0  0  0  0  0  0  0  0
  -27.4641  -21.2963   18.3681 C   0  0  0  0  0  0  0  0  0  0  0  0
  -27.7837  -22.3514   16.3525 C   0  0  0  0  0  0  0  0  0  0  0  0
  -27.0095  -12.6233   22.5796 C   0  0  0  0  0  0  0  0  0  0  0  0
  -25.5569  -11.6399   24.3605 C   0  0  0  0  0  0  0  0  0  0  0  0
  -24.0737  -29.9009   23.2153 C   0  0  0  0  0  0  0  0  0  0  0  0
  -21.6586  -30.2914   21.0852 C   0  0  0  0  0  0  0  0  0  0  0  0
  -20.3877  -29.6174   17.9905 C   0  0  0  0  0  0  0  0  0  0  0  0
  -29.1558  -16.2428   19.0705 C   0  0  0  0  0  0  0  0  0  0  0  0
  -25.6922  -32.1729   27.4903 C   0  0  0  0  0  0  0  0  0  0  0  0
  -25.3287  -30.6616   21.1654 C   0  0  0  0  0  0  0  0  0  0  0  0
  -23.3787  -28.5310   20.5308 C   0  0  0  0  0  0  0  0  0  0  0  0
  -24.3560  -32.0370   26.7648 C   0  0  0  0  0  0  0  0  0  0  0  0
  -29.3865  -12.9238   18.1332 C   0  0  0  0  0  0  0  0  0  0  0  0
  -24.0943  -30.5801   26.3966 C   0  0  0  0  0  0  0  0  0  0  0  0
  -28.4510  -12.2057   19.1055 C   0  0  0  0  0  0  0  0  0  0  0  0
  -26.8498  -18.8519   18.6313 C   0  0  0  0  0  0  0  0  0  0  0  0
  -29.1074  -19.6805   19.4225 C   0  0  0  0  0  0  0  0  0  0  0  0
  -28.7791  -14.2405   17.6635 C   0  0  0  0  0  0  0  0  0  0  0  0
  -27.0447  -17.5860   19.4708 C   0  0  0  0  0  0  0  0  0  0  0  0
  -29.2371  -18.4120   20.2607 C   0  0  0  0  0  0  0  0  0  0  0  0
  -27.4825  -14.4656   19.7578 C   0  0  0  0  0  0  0  0  0  0  0  0
  -25.1719  -30.0499   25.4430 C   0  0  1  0  0  0  0  0  0  0  0  0
  -27.6269  -20.0466   19.2128 C   0  0  0  0  0  0  0  0  0  0  0  0
  -23.9804  -30.5701   21.8732 C   0  0  1  0  0  0  0  0  0  0  0  0
  -28.0518  -13.1275   20.2714 C   0  0  1  0  0  0  0  0  0  0  0  0
  -18.3766  -30.0434   16.5513 C   0  0  0  0  0  0  0  0  0  0  0  0
  -20.0758  -28.2372   22.6930 C   0  0  0  0  0  0  0  0  0  0  0  0
  -18.5292  -28.0020   20.7383 C   0  0  0  0  0  0  0  0  0  0  0  0
  -18.7395  -30.1979   21.9029 C   0  0  0  0  0  0  0  0  0  0  0  0
  -22.0054  -31.0108   15.9410 C   0  0  0  0  0  0  0  0  0  0  0  0
  -26.0832  -24.7742   18.6605 C   0  0  0  0  0  0  0  0  0  1  0  0
  -20.6380  -29.3802   20.4472 C   0  0  1  0  0  0  0  0  0  0  0  0
  -19.7686  -30.5188   16.9376 C   0  0  2  0  0  0  0  0  0  0  0  0
  -19.5236  -28.9498   21.4423 C   0  0  0  0  0  0  0  0  0  0  0  0
  -26.2228  -11.5423   20.7465 N   0  0  0  0  0  0  0  0  0  0  0  0
  -27.9312  -21.2353   17.1010 N   0  0  0  0  0  0  0  0  0  0  0  0
  -27.0976  -12.4402   21.2309 N   0  0  0  0  0  0  0  0  0  0  0  0
  -22.9830  -29.8314   21.0962 N   0  0  0  0  0  0  0  0  0  0  0  0
  -28.4103  -15.0856   18.7991 N   0  0  0  0  0  0  0  0  0  0  0  0
  -28.4743  -17.3117   19.6720 N   0  0  0  0  0  0  0  0  0  0  0  0
  -28.2561  -22.3420   15.0165 N   0  0  0  0  0  0  0  0  0  0  0  0
  -27.8153  -13.4898   23.2294 N   0  0  0  0  0  0  0  0  0  0  0  0
  -24.5173  -10.7378   24.6242 N   0  0  0  0  0  0  0  0  0  0  0  0
  -24.9344  -30.5261   24.0971 N   0  0  0  0  0  0  0  0  0  0  0  0
  -20.1463  -30.0815   19.2662 N   0  0  0  0  0  0  0  0  0  0  0  0
  -20.6151  -30.5402   15.7113 N   0  3  0  0  0  0  0  0  0  0  0  0
  -26.0507  -12.3010   25.3053 O   0  0  0  0  0  0  0  0  0  0  0  0
  -23.4125  -28.8928   23.4350 O   0  0  0  0  0  0  0  0  0  0  0  0
  -21.2952  -31.3747   21.5502 O   0  0  0  0  0  0  0  0  0  0  0  0
  -21.0190  -28.6010   17.7095 O   0  0  0  0  0  0  0  0  0  0  0  0
  -30.3593  -16.3172   18.7929 O   0  0  0  0  0  0  0  0  0  0  0  0
  -21.4935   -7.3312   21.4168 O   0  0  0  0  0  0  0  0  0  0  0  0
  -27.0833  -25.7475   18.9360 O   0  0  0  0  0  0  0  0  0  1  0  0
  -21.4141   -3.2472   25.1207 F   0  0  0  0  0  0  0  0  0  0  0  0
  -21.2450   -7.8699   24.1169 F   0  0  0  0  0  0  0  0  0  0  0  0
  1  2  1  0  0  0  0
  1  5  2  0  0  0  0
  2  6  2  0  0  0  0
  3  8  2  0  0  0  0
  3 17  1  0  0  0  0
  4  9  1  0  0  0  0
  4 17  2  0  0  0  0
  5 19  1  0  0  0  0
  6 21  1  0  0  0  0
  7 10  2  0  0  0  0
  7 20  1  0  0  0  0
  8 24  1  0  0  0  0
  9 24  2  0  0  0  0
 10 25  1  0  0  0  0
 11 12  2  0  0  0  0
 11 26  1  0  0  0  0
 12 27  1  0  0  0  0
 13 22  1  0  0  0  0
 13 25  2  0  0  0  0
 14 23  2  0  0  0  0
 14 30  1  0  0  0  0
 15 23  1  0  0  0  0
 15 31  2  0  0  0  0
 16 27  2  0  0  0  0
 16 28  1  0  0  0  0
 17 29  1  0  0  0  0
 18 29  1  0  0  0  0
 18 32  2  0  0  0  0
 18 33  1  0  0  0  0
 19 21  2  0  0  0  0
 19 38  1  0  0  0  0
 20 22  2  0  0  0  0
 20 39  1  0  0  0  0
 21 51  1  0  0  0  0
 22 40  1  0  0  0  0
 23 60  1  0  0  0  0
 24 81  1  0  0  0  0
 25 82  1  0  0  0  0
 26 28  2  0  0  0  0
 26 81  1  0  0  0  0
 27 83  1  0  0  0  0
 28 84  1  0  0  0  0
 29 64  2  0  0  0  0
 30 52  1  0  0  0  0
 30 65  2  0  0  0  0
 31 65  1  0  0  0  0
 31 70  1  0  0  0  0
 32 66  1  0  0  0  0
 32 71  1  0  0  0  0
 33 72  1  0  0  0  0
 33 76  2  0  0  0  0
 34 53  1  0  0  0  0
 34 73  1  0  0  0  0
 34 77  2  0  0  0  0
 35 61  1  0  0  0  0
 35 67  1  0  0  0  0
 35 78  2  0  0  0  0
 36 62  1  0  0  0  0
 36 74  1  0  0  0  0
 36 79  2  0  0  0  0
 37 68  1  0  0  0  0
 37 69  1  0  0  0  0
 37 80  2  0  0  0  0
 38 41  1  0  0  0  0
 39 53  1  0  0  0  0
 40 67  1  0  0  0  0
 41 43  1  0  0  0  0
 42 44  1  0  0  0  0
 42 47  1  0  0  0  0
 43 51  1  0  0  0  0
 44 54  1  0  0  0  0
 45 48  1  0  0  0  0
 45 52  1  0  0  0  0
 46 49  1  0  0  0  0
 46 52  1  0  0  0  0
 47 68  1  0  0  0  0
 48 69  1  0  0  0  0
 49 69  1  0  0  0  0
 50 54  1  0  0  0  0
 50 68  1  0  0  0  0
 51 73  1  0  0  0  0
 53 67  1  0  0  0  0
 54 66  1  0  0  0  0
 55 62  1  0  0  0  0
 56 63  1  0  0  0  0
 57 63  1  0  0  0  0
 58 63  1  0  0  0  0
 59 75  1  0  0  0  0
 60 82  1  0  0  0  0
 61 63  1  0  0  0  0
 61 74  1  0  0  0  0
 62 75  1  0  0  0  0
 64 66  1  0  0  0  0
M  CHG  1  75   1
M  ISO  4  37 100  60 101  69 100  82 101
M  END
> <Batch ID>
0176

> <Smiles>
CNC(C)C(=O)NC(C(=O)N1Cc2cc([101O:1][101CH2:1]c3cc(N)nc(C4CC[100N:0]([100C:0](=O)N5CCCC(n6nc(-c7ccc(Oc8ccc(F)cc8F)cc7)c(C(N)=O)c6N)C5)CC4)c3)ccc2CC1C(=O)NC1CCCc2ccccc21)C(C)(C)C

> <Shape>
0.304

> <Color>
0.121

> <Negative vol penalty>
0.000

$$$$

  -OEChem-04052322503D

 85 95  0     1  0  0  0  0  0999 V2000
  -40.3788  -24.4798   30.5605 C   0  0  0  0  0  0  0  0  0  0  0  0
  -39.4446  -23.8280   29.7619 C   0  0  0  0  0  0  0  0  0  0  0  0
  -23.0850   -9.8672   19.9375 C   0  0  0  0  0  0  0  0  0  0  0  0
  -23.8364   -9.8772   22.2336 C   0  0  0  0  0  0  0  0  0  0  0  0
  -41.7130  -24.0754   30.5420 C   0  0  0  0  0  0  0  0  0  0  0  0
  -39.8443  -22.7721   28.9434 C   0  0  0  0  0  0  0  0  0  0  0  0
  -36.6701  -18.8326   29.1658 C   0  0  0  0  0  0  0  0  0  0  0  0
  -22.3422   -8.7130   20.1855 C   0  0  0  0  0  0  0  0  0  0  0  0
  -23.0936   -8.7229   22.4817 C   0  0  0  0  0  0  0  0  0  0  0  0
  -35.4808  -18.9316   28.4450 C   0  0  0  0  0  0  0  0  0  0  0  0
  -19.8647   -7.9198   23.0729 C   0  0  0  0  0  0  0  0  0  0  0  0
  -19.1035   -7.8794   24.2410 C   0  0  0  0  0  0  0  0  0  0  0  0
  -32.1111  -18.4350   24.2667 C   0  0  0  0  0  0  0  0  0  0  0  0
  -36.4405  -17.5856   26.6882 C   0  0  0  0  0  0  0  0  0  0  0  0
  -20.3456   -5.9447   24.9834 C   0  0  0  0  0  0  0  0  0  0  0  0
  -30.3770  -19.9951   23.7127 C   0  0  0  0  0  0  0  0  0  0  0  0
  -23.8321  -10.4493   20.9615 C   0  0  0  0  0  0  0  0  0  0  0  0
  -24.1699  -12.9750   20.8410 C   0  0  0  0  0  0  0  0  0  0  0  0
  -42.1275  -23.0078   29.7301 C   0  0  0  0  0  0  0  0  0  0  0  0
  -37.7591  -18.1172   28.6474 C   0  0  0  0  0  0  0  0  0  0  0  0
  -41.1855  -22.3540   28.9130 C   0  0  0  0  0  0  0  0  0  0  0  0
  -30.8833  -18.6965   23.6629 C   0  0  0  0  0  0  0  0  0  0  0  0
  -32.7643  -19.4799   24.8922 C   0  0  0  0  0  0  0  0  0  0  0  0
  -37.6416  -17.4768   27.4056 C   0  0  0  0  0  0  0  0  0  0  0  0
  -22.3465   -8.1408   21.4576 C   0  0  0  0  0  0  0  0  0  0  0  0
  -35.3669  -18.3105   27.2047 C   0  0  0  0  0  0  0  0  0  0  0  0
  -20.8663   -6.9726   22.8600 C   0  0  0  0  0  0  0  0  0  0  0  0
  -19.3440   -6.8918   25.1963 C   0  0  0  0  0  0  0  0  0  0  0  0
  -21.1068   -5.9851   23.8152 C   0  0  0  0  0  0  0  0  0  0  0  0
  -24.6001  -11.6414   20.7058 C   0  0  0  0  0  0  0  0  0  0  0  0
  -32.1733  -20.7408   24.8874 C   0  0  0  0  0  0  0  0  0  0  0  0
  -25.2621  -13.7262   20.4812 C   0  0  0  0  0  0  0  0  0  0  0  0
  -22.8970  -13.4889   21.2548 C   0  0  0  0  0  0  0  0  0  0  0  0
  -40.7337  -18.8577   27.8065 C   0  0  0  0  0  0  0  0  0  0  0  0
  -41.0022  -15.6507   27.4000 C   0  0  0  0  0  0  0  0  0  0  0  0
  -39.4570  -12.6657   26.8092 C   0  0  0  0  0  0  0  0  0  0  0  0
  -30.7462  -14.7108   20.7117 C   0  0  0  0  0  0  0  0  0  0  0  0
  -43.5893  -22.6374   29.7083 C   0  0  0  0  0  0  0  0  0  0  0  0
  -39.0259  -17.9974   29.4494 C   0  0  0  0  0  0  0  0  0  0  0  0
  -38.7745  -16.6798   26.8140 C   0  0  0  0  0  0  0  0  0  0  0  0
  -33.0523  -21.7476   25.5733 C   0  0  0  0  0  0  0  0  0  0  0  0
  -43.8611  -21.2664   29.0945 C   0  0  0  0  0  0  0  0  0  0  0  0
  -33.9691  -20.8244   26.3892 C   0  0  0  0  0  0  0  0  0  0  0  0
  -29.6038  -12.4109   18.2851 C   0  0  0  0  0  0  0  0  0  0  0  0
  -43.0878  -21.1027   27.7899 C   0  0  0  0  0  0  0  0  0  0  0  0
  -28.1779  -12.0829   18.7193 C   0  0  0  0  0  0  0  0  0  0  0  0
  -29.7395  -16.3695   23.8244 C   0  0  0  0  0  0  0  0  0  0  0  0
  -30.5138  -12.5739   19.4951 C   0  0  0  0  0  0  0  0  0  0  0  0
  -29.3653  -15.3262   22.7802 C   0  0  0  0  0  0  0  0  0  0  0  0
  -30.8541  -16.9303   21.8042 C   0  0  0  0  0  0  0  0  0  0  0  0
  -28.6137  -13.3387   20.8932 C   0  0  0  0  0  0  0  0  0  0  0  0
  -30.1114  -17.5939   22.9725 C   0  0  2  0  0  0  0  0  0  0  0  0
  -41.5757  -21.1883   28.0305 C   0  0  1  0  0  0  0  0  0  0  0  0
  -40.2466  -17.6740   28.5935 C   0  0  1  0  0  0  0  0  0  0  0  0
  -27.6538  -13.1417   19.7017 C   0  0  2  0  0  0  0  0  0  0  0  0
  -34.0872  -19.5015   25.5980 C   0  0  2  0  0  0  0  0  0  1  0  0
  -35.2596  -19.4948   24.6223 C   0  0  0  0  0  0  0  0  0  0  0  0
  -39.9434  -10.2242   26.4932 C   0  0  0  0  0  0  0  0  0  0  0  0
  -42.0066  -16.2189   24.5754 C   0  0  0  0  0  0  0  0  0  0  0  0
  -41.5681  -13.8193   24.0117 C   0  0  0  0  0  0  0  0  0  0  0  0
  -43.2358  -14.4001   25.7735 C   0  0  0  0  0  0  0  0  0  0  0  0
  -37.8331  -11.9180   29.1678 C   0  0  0  0  0  0  0  0  0  0  0  0
  -40.7713  -14.6952   26.2542 C   0  0  1  0  0  0  0  0  0  0  0  0
  -39.5821  -11.3146   27.4898 C   0  0  2  0  0  0  0  0  0  0  0  0
  -41.8746  -14.7999   25.1637 C   0  0  0  0  0  0  0  0  0  0  0  0
  -30.9972  -21.0400   24.3112 N   0  0  0  0  0  0  0  0  0  0  0  0
  -25.8666  -11.5475   20.2922 N   0  0  0  0  0  0  0  0  0  0  0  0
  -26.2417  -12.8316   20.1644 N   0  0  0  0  0  0  0  0  0  0  0  0
  -39.9947  -16.5974   27.6336 N   0  0  0  0  0  0  0  0  0  0  0  0
  -29.9919  -13.5643   20.4387 N   0  0  0  0  0  0  0  0  0  0  0  0
  -30.2451  -15.6132   21.6492 N   0  0  0  0  0  0  0  0  0  0  0  0
  -25.4704  -15.0579   20.4080 N   0  0  0  0  0  0  0  0  0  0  0  0
  -21.8855  -12.5782   21.5890 N   0  0  0  0  0  0  0  0  0  0  0  0
  -41.0809  -19.9460   28.5839 N   0  0  0  0  0  0  0  0  0  0  0  0
  -40.6423  -13.3690   26.8483 N   0  0  0  0  0  0  0  0  0  0  0  0
  -38.2964  -10.9441   28.1461 N   0  3  0  0  0  0  0  0  0  0  0  0
  -22.6584  -14.7191   21.3104 O   0  0  0  0  0  0  0  0  0  0  0  0
  -40.7916  -18.7882   26.5844 O   0  0  0  0  0  0  0  0  0  0  0  0
  -42.0350  -15.5558   28.0677 O   0  0  0  0  0  0  0  0  0  0  0  0
  -38.4132  -13.0565   26.2912 O   0  0  0  0  0  0  0  0  0  0  0  0
  -31.8438  -14.9019   20.1709 O   0  0  0  0  0  0  0  0  0  0  0  0
  -21.6217   -7.0146   21.7001 O   0  0  0  0  0  0  0  0  0  0  0  0
  -34.2000  -18.4068   26.4942 O   0  0  0  0  0  0  0  0  0  1  0  0
  -18.6139   -6.8541   26.3187 F   0  0  0  0  0  0  0  0  0  0  0  0
  -22.0684   -5.0731   23.6168 F   0  0  0  0  0  0  0  0  0  0  0  0
  1  2  1  0  0  0  0
  1  5  2  0  0  0  0
  2  6  2  0  0  0  0
  3  8  2  0  0  0  0
  3 17  1  0  0  0  0
  4  9  1  0  0  0  0
  4 17  2  0  0  0  0
  5 19  1  0  0  0  0
  6 21  1  0  0  0  0
  7 10  2  0  0  0  0
  7 20  1  0  0  0  0
  8 25  1  0  0  0  0
  9 25  2  0  0  0  0
 10 26  1  0  0  0  0
 11 12  2  0  0  0  0
 11 27  1  0  0  0  0
 12 28  1  0  0  0  0
 13 22  2  0  0  0  0
 13 23  1  0  0  0  0
 14 24  1  0  0  0  0
 14 26  2  0  0  0  0
 15 28  2  0  0  0  0
 15 29  1  0  0  0  0
 16 22  1  0  0  0  0
 16 66  2  0  0  0  0
 17 30  1  0  0  0  0
 18 30  1  0  0  0  0
 18 32  2  0  0  0  0
 18 33  1  0  0  0  0
 19 21  2  0  0  0  0
 19 38  1  0  0  0  0
 20 24  2  0  0  0  0
 20 39  1  0  0  0  0
 21 53  1  0  0  0  0
 22 52  1  0  0  0  0
 23 31  2  0  0  0  0
 23 56  1  0  0  0  0
 24 40  1  0  0  0  0
 25 82  1  0  0  0  0
 26 83  1  0  0  0  0
 27 29  2  0  0  0  0
 27 82  1  0  0  0  0
 28 84  1  0  0  0  0
 29 85  1  0  0  0  0
 30 67  2  0  0  0  0
 31 41  1  0  0  0  0
 31 66  1  0  0  0  0
 32 68  1  0  0  0  0
 32 72  1  0  0  0  0
 33 73  1  0  0  0  0
 33 77  2  0  0  0  0
 34 54  1  0  0  0  0
 34 74  1  0  0  0  0
 34 78  2  0  0  0  0
 35 63  1  0  0  0  0
 35 69  1  0  0  0  0
 35 79  2  0  0  0  0
 36 64  1  0  0  0  0
 36 75  1  0  0  0  0
 36 80  2  0  0  0  0
 37 70  1  0  0  0  0
 37 71  1  0  0  0  0
 37 81  2  0  0  0  0
 38 42  1  0  0  0  0
 39 54  1  0  0  0  0
 40 69  1  0  0  0  0
 41 43  1  0  0  0  0
 42 45  1  0  0  0  0
 43 56  1  0  0  0  0
 44 46  1  0  0  0  0
 44 48  1  0  0  0  0
 45 53  1  0  0  0  0
 46 55  1  0  0  0  0
 47 49  1  0  0  0  0
 47 52  1  0  0  0  0
 48 70  1  0  0  0  0
 49 71  1  0  0  0  0
 50 52  1  0  0  0  0
 50 71  1  0  0  0  0
 51 55  1  0  0  0  0
 51 70  1  0  0  0  0
 53 74  1  0  0  0  0
 54 69  1  0  0  0  0
 55 68  1  0  0  0  0
 56 57  1  0  0  0  0
 56 83  1  0  0  0  0
 58 64  1  0  0  0  0
 59 65  1  0  0  0  0
 60 65  1  0  0  0  0
 61 65  1  0  0  0  0
 62 76  1  0  0  0  0
 63 65  1  0  0  0  0
 63 75  1  0  0  0  0
 64 76  1  0  0  0  0
 67 68  1  0  0  0  0
M  CHG  1  76   1
M  ISO  4  37 100  56 101  71 100  83 101
M  END
> <Batch ID>
0176

> <Smiles>
CNC(C)C(=O)NC(C(=O)N1Cc2cc([101O:1][101C:1]3(C)CCc4ncc(C5CC[100N:0]([100C:0](=O)N6CCCC(n7nc(-c8ccc(Oc9ccc(F)cc9F)cc8)c(C(N)=O)c7N)C6)C5)cc43)ccc2CC1C(=O)NC1CCCc2ccccc21)C(C)(C)C

> <Shape>
0.166

> <Color>
0.192

> <Negative vol penalty>
0.000

$$$$

  -OEChem-04052322503D

 84 93  0     1  0  0  0  0  0999 V2000
  -28.9588  -11.2081   19.6286 C   0  0  0  0  0  0  0  0  0  0  0  0
  -28.9703  -12.5729   19.3593 C   0  0  0  0  0  0  0  0  0  0  0  0
  -23.0286  -26.8506   20.8080 C   0  0  0  0  0  0  0  0  0  0  0  0
  -22.0345  -26.1588   22.8985 C   0  0  0  0  0  0  0  0  0  0  0  0
  -27.7850  -10.5945   20.0639 C   0  0  0  0  0  0  0  0  0  0  0  0
  -27.8075  -13.3247   19.5239 C   0  0  0  0  0  0  0  0  0  0  0  0
  -28.6519  -17.7122   21.9076 C   0  0  0  0  0  0  0  0  0  0  0  0
  -22.1047  -26.0721   20.1109 C   0  0  0  0  0  0  0  0  0  0  0  0
  -21.1105  -25.3803   22.2014 C   0  0  0  0  0  0  0  0  0  0  0  0
  -29.2067  -18.7480   21.1572 C   0  0  0  0  0  0  0  0  0  0  0  0
  -21.6744  -22.8088   19.3425 C   0  0  0  0  0  0  0  0  0  0  0  0
  -22.1522  -22.0166   18.2987 C   0  0  0  0  0  0  0  0  0  0  0  0
  -27.0179  -19.7307   20.9067 C   0  0  0  0  0  0  0  0  0  0  0  0
  -20.7144  -23.1888   16.7509 C   0  0  0  0  0  0  0  0  0  0  0  0
  -22.9936  -26.8939   22.2017 C   0  0  0  0  0  0  0  0  0  0  0  0
  -23.8091  -29.0458   23.3027 C   0  0  0  0  0  0  0  0  0  0  0  0
  -26.6097  -11.3409   20.2433 C   0  0  0  0  0  0  0  0  0  0  0  0
  -27.2721  -17.6719   22.1544 C   0  0  0  0  0  0  0  0  0  0  0  0
  -26.6164  -12.7202   19.9607 C   0  0  0  0  0  0  0  0  0  0  0  0
  -26.4485  -18.6946   21.6626 C   0  0  0  0  0  0  0  0  0  0  0  0
  -21.1456  -25.3369   20.8077 C   0  0  0  0  0  0  0  0  0  0  0  0
  -28.3893  -19.7559   20.6542 C   0  0  0  0  0  0  0  0  0  0  0  0
  -20.7165  -23.7910   19.0906 C   0  0  0  0  0  0  0  0  0  0  0  0
  -21.6723  -22.2065   17.0029 C   0  0  0  0  0  0  0  0  0  0  0  0
  -20.2366  -23.9810   17.7947 C   0  0  0  0  0  0  0  0  0  0  0  0
  -23.9481  -27.6975   22.9223 C   0  0  0  0  0  0  0  0  0  0  0  0
  -28.7049  -22.7800   17.2493 C   0  0  0  0  0  0  0  0  0  0  0  0
  -28.7841  -22.7659   18.6244 C   0  0  0  0  0  0  0  0  0  0  0  0
  -30.1385  -24.5604   17.1847 C   0  0  0  0  0  0  0  0  0  0  0  0
  -30.2172  -24.5470   18.5599 C   0  0  0  0  0  0  0  0  0  0  0  0
  -24.9798  -29.3402   23.9578 C   0  0  0  0  0  0  0  0  0  0  0  0
  -22.7191  -29.9511   23.0835 C   0  0  0  0  0  0  0  0  0  0  0  0
  -24.9236  -15.6528   21.4396 C   0  0  0  0  0  0  0  0  0  0  0  0
  -23.1768  -17.6262   23.3308 C   0  0  0  0  0  0  0  0  0  0  0  0
  -22.8692  -21.1831   23.8518 C   0  0  0  0  0  0  0  0  0  0  0  0
  -30.4782  -26.8050   23.6349 C   0  0  0  0  0  0  0  0  0  0  0  0
  -25.3530  -10.6247   20.6702 C   0  0  0  0  0  0  0  0  0  0  0  0
  -26.6930  -16.5621   22.9882 C   0  0  0  0  0  0  0  0  0  0  0  0
  -24.9640  -18.7085   21.9166 C   0  0  0  0  0  0  0  0  0  0  0  0
  -24.2606  -11.5620   21.1787 C   0  0  0  0  0  0  0  0  0  0  0  0
  -28.4416  -27.3435   26.5493 C   0  0  0  0  0  0  0  0  0  0  0  0
  -24.0925  -12.7479   20.2341 C   0  0  0  0  0  0  0  0  0  0  0  0
  -27.0379  -27.5597   25.9936 C   0  0  0  0  0  0  0  0  0  0  0  0
  -29.2133  -26.3408   25.7020 C   0  0  0  0  0  0  0  0  0  0  0  0
  -27.9316  -26.9888   23.6789 C   0  0  0  0  0  0  0  0  0  0  0  0
  -31.6912  -26.4844   21.4146 C   0  0  0  0  0  0  0  0  0  0  0  0
  -29.6989  -25.7383   21.3765 C   0  0  0  0  0  0  0  0  0  0  0  0
  -25.3817  -13.5741   20.1511 C   0  0  1  0  0  0  0  0  0  0  0  0
  -25.2028  -16.3458   22.7432 C   0  0  1  0  0  0  0  0  0  0  0  0
  -27.1035  -27.9816   24.5188 C   0  0  1  0  0  0  0  0  0  0  0  0
  -30.9992  -25.3414   20.6607 C   0  0  0  0  0  0  0  0  0  0  0  0
  -27.8634  -21.7974   16.5092 C   0  0  0  0  0  0  0  0  0  0  0  0
  -30.8962  -25.5577   16.3772 C   0  0  0  0  0  0  0  0  0  0  0  0
  -22.1548  -22.4794   25.8783 C   0  0  0  0  0  0  0  0  0  0  0  0
  -20.4095  -17.5481   22.0478 C   0  0  0  0  0  0  0  0  0  0  0  0
  -20.0489  -19.8929   22.8480 C   0  0  0  0  0  0  0  0  0  0  0  0
  -20.4101  -18.0559   24.4966 C   0  0  0  0  0  0  0  0  0  0  0  0
  -25.3633  -22.7763   23.8551 C   0  0  0  0  0  0  0  0  0  0  0  0
  -28.0326  -21.7672   19.4363 C   0  0  0  0  0  0  0  0  0  1  0  0
  -22.3566  -18.8734   23.1055 C   0  0  1  0  0  0  0  0  0  0  0  0
  -23.3339  -21.9673   25.0657 C   0  0  2  0  0  0  0  0  0  0  0  0
  -20.8285  -18.5862   23.1079 C   0  0  0  0  0  0  0  0  0  0  0  0
  -25.1151  -27.1718   23.3039 N   0  0  0  0  0  0  0  0  0  0  0  0
  -29.3807  -23.6774   16.5047 N   0  0  0  0  0  0  0  0  0  0  0  0
  -29.5416  -23.6493   19.3044 N   0  0  0  0  0  0  0  0  0  0  0  0
  -25.7202  -28.1950   23.9308 N   0  0  0  0  0  0  0  0  0  0  0  0
  -24.4443  -17.5983   22.7320 N   0  0  0  0  0  0  0  0  0  0  0  0
  -29.2426  -26.7213   24.2864 N   0  0  0  0  0  0  0  0  0  0  0  0
  -30.5281  -26.5022   22.2936 N   0  0  0  0  0  0  0  0  0  0  0  0
  -25.4380  -30.4643   24.5485 N   0  0  0  0  0  0  0  0  0  0  0  0
  -21.5922  -29.4852   22.3926 N   0  0  0  0  0  0  0  0  0  0  0  0
  -25.5211  -14.4123   21.3226 N   0  0  0  0  0  0  0  0  0  0  0  0
  -22.7859  -19.8326   24.1175 N   0  0  0  0  0  0  0  0  0  0  0  0
  -24.1567  -23.1359   24.6436 N   0  3  0  0  0  0  0  0  0  0  0  0
  -22.7506  -31.1428   23.4739 O   0  0  0  0  0  0  0  0  0  0  0  0
  -24.2170  -16.2021   20.6025 O   0  0  0  0  0  0  0  0  0  0  0  0
  -22.7130  -16.7135   24.0189 O   0  0  0  0  0  0  0  0  0  0  0  0
  -22.6029  -21.7157   22.7767 O   0  0  0  0  0  0  0  0  0  0  0  0
  -31.5154  -27.1106   24.2383 O   0  0  0  0  0  0  0  0  0  0  0  0
  -20.2438  -24.5773   20.1278 O   0  0  0  0  0  0  0  0  0  0  0  0
  -28.9318  -20.7746   19.9159 O   0  0  0  0  0  0  0  0  0  1  0  0
  -30.9926  -25.4482   19.2268 O   0  0  0  0  0  0  0  0  0  0  0  0
  -22.1323  -21.4467   16.0003 F   0  0  0  0  0  0  0  0  0  0  0  0
  -19.3172  -24.9238   17.5463 F   0  0  0  0  0  0  0  0  0  0  0  0
  1  2  1  0  0  0  0
  1  5  2  0  0  0  0
  2  6  2  0  0  0  0
  3  8  2  0  0  0  0
  3 15  1  0  0  0  0
  4  9  1  0  0  0  0
  4 15  2  0  0  0  0
  5 17  1  0  0  0  0
  6 19  1  0  0  0  0
  7 10  2  0  0  0  0
  7 18  1  0  0  0  0
  8 21  1  0  0  0  0
  9 21  2  0  0  0  0
 10 22  1  0  0  0  0
 11 12  2  0  0  0  0
 11 23  1  0  0  0  0
 12 24  1  0  0  0  0
 13 20  1  0  0  0  0
 13 22  2  0  0  0  0
 14 24  2  0  0  0  0
 14 25  1  0  0  0  0
 15 26  1  0  0  0  0
 16 26  1  0  0  0  0
 16 31  2  0  0  0  0
 16 32  1  0  0  0  0
 17 19  2  0  0  0  0
 17 37  1  0  0  0  0
 18 20  2  0  0  0  0
 18 38  1  0  0  0  0
 19 48  1  0  0  0  0
 20 39  1  0  0  0  0
 21 80  1  0  0  0  0
 22 81  1  0  0  0  0
 23 25  2  0  0  0  0
 23 80  1  0  0  0  0
 24 83  1  0  0  0  0
 25 84  1  0  0  0  0
 26 63  2  0  0  0  0
 27 28  2  0  0  0  0
 27 52  1  0  0  0  0
 27 64  1  0  0  0  0
 28 59  1  0  0  0  0
 28 65  1  0  0  0  0
 29 30  1  0  0  0  0
 29 53  1  0  0  0  0
 29 64  2  0  0  0  0
 30 65  2  0  0  0  0
 30 82  1  0  0  0  0
 31 66  1  0  0  0  0
 31 70  1  0  0  0  0
 32 71  1  0  0  0  0
 32 75  2  0  0  0  0
 33 49  1  0  0  0  0
 33 72  1  0  0  0  0
 33 76  2  0  0  0  0
 34 60  1  0  0  0  0
 34 67  1  0  0  0  0
 34 77  2  0  0  0  0
 35 61  1  0  0  0  0
 35 73  1  0  0  0  0
 35 78  2  0  0  0  0
 36 68  1  0  0  0  0
 36 69  1  0  0  0  0
 36 79  2  0  0  0  0
 37 40  1  0  0  0  0
 38 49  1  0  0  0  0
 39 67  1  0  0  0  0
 40 42  1  0  0  0  0
 41 43  1  0  0  0  0
 41 44  1  0  0  0  0
 42 48  1  0  0  0  0
 43 50  1  0  0  0  0
 44 68  1  0  0  0  0
 45 50  1  0  0  0  0
 45 68  1  0  0  0  0
 46 51  1  0  0  0  0
 46 69  1  0  0  0  0
 47 51  1  0  0  0  0
 47 69  1  0  0  0  0
 48 72  1  0  0  0  0
 49 67  1  0  0  0  0
 50 66  1  0  0  0  0
 51 82  1  0  0  0  0
 54 61  1  0  0  0  0
 55 62  1  0  0  0  0
 56 62  1  0  0  0  0
 57 62  1  0  0  0  0
 58 74  1  0  0  0  0
 59 81  1  0  0  0  0
 60 62  1  0  0  0  0
 60 73  1  0  0  0  0
 61 74  1  0  0  0  0
 63 66  1  0  0  0  0
M  CHG  1  74   1
M  ISO  4  36 100  59 101  69 100  81 101
M  END
> <Batch ID>
0176

> <Smiles>
CNC(C)C(=O)NC(C(=O)N1Cc2cc([101O:1][101CH2:1]c3nc(OC4C[100N:0]([100C:0](=O)N5CCCC(n6nc(-c7ccc(Oc8ccc(F)cc8F)cc7)c(C(N)=O)c6N)C5)C4)c(C)nc3C)ccc2CC1C(=O)NC1CCCc2ccccc21)C(C)(C)C

> <Shape>
0.174

> <Color>
0.081

> <Negative vol penalty>
0.000

$$$$

  -OEChem-04052322503D

 86 95  0     1  0  0  0  0  0999 V2000
  -18.2352  -29.8521   25.8162 C   0  0  0  0  0  0  0  0  0  0  0  0
  -19.6142  -30.0326   25.8505 C   0  0  0  0  0  0  0  0  0  0  0  0
  -25.9567  -12.6523   21.8021 C   0  0  0  0  0  0  0  0  0  0  0  0
  -25.3105  -13.8011   19.7773 C   0  0  0  0  0  0  0  0  0  0  0  0
  -17.6661  -29.0188   24.8540 C   0  0  0  0  0  0  0  0  0  0  0  0
  -20.4251  -29.3789   24.9234 C   0  0  0  0  0  0  0  0  0  0  0  0
  -26.5073  -30.2414   21.2385 C   0  0  0  0  0  0  0  0  0  0  0  0
  -24.7986  -11.8780   21.7325 C   0  0  0  0  0  0  0  0  0  0  0  0
  -24.1524  -13.0267   19.7076 C   0  0  0  0  0  0  0  0  0  0  0  0
  -27.7112  -29.5880   20.9789 C   0  0  0  0  0  0  0  0  0  0  0  0
  -23.7071   -9.1780   20.0144 C   0  0  0  0  0  0  0  0  0  0  0  0
  -23.8298   -7.8066   20.2374 C   0  0  0  0  0  0  0  0  0  0  0  0
  -26.6106  -28.2349   19.3125 C   0  0  0  0  0  0  0  0  0  0  0  0
  -22.3142   -7.9756   22.1113 C   0  0  0  0  0  0  0  0  0  0  0  0
  -26.2126  -13.6139   20.8246 C   0  0  0  0  0  0  0  0  0  0  0  0
  -28.6631  -14.1212   20.3293 C   0  0  0  0  0  0  0  0  0  0  0  0
  -18.4696  -28.3622   23.9086 C   0  0  0  0  0  0  0  0  0  0  0  0
  -25.3416  -29.8884   20.5436 C   0  0  0  0  0  0  0  0  0  0  0  0
  -19.8664  -28.5350   23.9486 C   0  0  0  0  0  0  0  0  0  0  0  0
  -25.3937  -28.8871   19.5633 C   0  0  0  0  0  0  0  0  0  0  0  0
  -31.2735  -27.5833   20.0802 C   0  0  0  0  0  0  0  0  0  0  0  0
  -23.8965  -12.0652   20.6852 C   0  0  0  0  0  0  0  0  0  0  0  0
  -27.7624  -28.5826   20.0178 C   0  0  0  0  0  0  0  0  0  0  0  0
  -22.8879   -9.9483   20.8399 C   0  0  0  0  0  0  0  0  0  0  0  0
  -23.1334   -7.2054   21.2858 C   0  0  0  0  0  0  0  0  0  0  0  0
  -22.1914   -9.3471   21.8883 C   0  0  0  0  0  0  0  0  0  0  0  0
  -27.4084  -14.4145   20.8964 C   0  0  0  0  0  0  0  0  0  0  0  0
  -32.2540  -28.1506   19.2921 C   0  0  0  0  0  0  0  0  0  0  0  0
  -31.4785  -26.2647   20.4315 C   0  0  0  0  0  0  0  0  0  0  0  0
  -29.4558  -15.1866   20.6798 C   0  0  0  0  0  0  0  0  0  0  0  0
  -33.4392  -26.2109   19.2827 C   0  0  0  0  0  0  0  0  0  0  0  0
  -29.0751  -12.9871   19.5549 C   0  0  0  0  0  0  0  0  0  0  0  0
  -22.5070  -28.7113   21.3701 C   0  0  0  0  0  0  0  0  0  0  0  0
  -21.8202  -29.2160   18.2402 C   0  0  0  0  0  0  0  0  0  0  0  0
  -22.9635  -29.5802   15.0454 C   0  0  0  0  0  0  0  0  0  0  0  0
  -29.8258  -20.7926   20.9316 C   0  0  0  0  0  0  0  0  0  0  0  0
  -17.8131  -27.4342   22.9174 C   0  0  0  0  0  0  0  0  0  0  0  0
  -24.0567  -30.6212   20.8164 C   0  0  0  0  0  0  0  0  0  0  0  0
  -24.1749  -28.4848   18.7752 C   0  0  0  0  0  0  0  0  0  0  0  0
  -18.7092  -27.0728   21.7355 C   0  0  0  0  0  0  0  0  0  0  0  0
  -28.6547  -18.9646   23.9439 C   0  0  0  0  0  0  0  0  0  0  0  0
  -20.1040  -26.6903   22.2204 C   0  0  0  0  0  0  0  0  0  0  0  0
  -28.2859  -17.6049   23.3476 C   0  0  0  0  0  0  0  0  0  0  0  0
  -29.7266  -23.9914   22.8626 C   0  0  0  0  0  0  0  0  0  0  0  0
  -28.4731  -20.0755   22.9183 C   0  0  0  0  0  0  0  0  0  0  0  0
  -29.5951  -22.4736   22.8390 C   0  0  0  0  0  0  0  0  0  0  0  0
  -28.8772  -18.5168   21.0506 C   0  0  0  0  0  0  0  0  0  0  0  0
  -20.7771  -27.8627   22.9443 C   0  0  1  0  0  0  0  0  0  0  0  0
  -22.8185  -29.8268   20.4128 C   0  0  1  0  0  0  0  0  0  0  0  0
  -29.0481  -17.3464   22.0345 C   0  0  2  0  0  0  0  0  0  0  0  0
  -30.6193  -24.2700   21.6598 C   0  0  1  0  0  0  0  0  0  0  0  0
  -30.1456  -23.2514   20.6160 C   0  0  2  0  0  0  0  0  0  0  0  0
  -32.1410  -29.5722   18.8488 C   0  0  0  0  0  0  0  0  0  0  0  0
  -34.6419  -25.4488   18.8399 C   0  0  0  0  0  0  0  0  0  0  0  0
  -28.9794  -23.7075   19.7380 C   0  0  0  0  0  0  0  0  0  0  0  0
  -22.1614  -29.9428   12.6954 C   0  0  0  0  0  0  0  0  0  0  0  0
  -20.9486  -26.2958   18.0898 C   0  0  0  0  0  0  0  0  0  0  0  0
  -21.0728  -26.4598   15.5946 C   0  0  0  0  0  0  0  0  0  0  0  0
  -19.4677  -27.8912   16.8585 C   0  0  0  0  0  0  0  0  0  0  0  0
  -24.4330  -32.1388   14.8151 C   0  0  0  0  0  0  0  0  0  0  0  0
  -30.0761  -28.3525   20.5175 C   0  0  0  0  0  0  0  0  0  1  0  0
  -21.9411  -28.4022   16.9744 C   0  0  1  0  0  0  0  0  0  0  0  0
  -22.6479  -30.6078   13.9736 C   0  0  2  0  0  0  0  0  0  0  0  0
  -20.8803  -27.2683   16.8954 C   0  0  0  0  0  0  0  0  0  0  0  0
  -27.3999  -15.5753   21.5571 N   0  0  0  0  0  0  0  0  0  0  0  0
  -33.3541  -27.4911   18.8735 N   0  0  0  0  0  0  0  0  0  0  0  0
  -32.5540  -25.5454   20.0489 N   0  0  0  0  0  0  0  0  0  0  0  0
  -28.6589  -16.0207   21.4074 N   0  0  0  0  0  0  0  0  0  0  0  0
  -22.9408  -29.2264   19.0828 N   0  0  0  0  0  0  0  0  0  0  0  0
  -29.2198  -19.7859   21.6920 N   0  0  0  0  0  0  0  0  0  0  0  0
  -29.7319  -22.0961   21.4282 N   0  0  0  0  0  0  0  0  0  0  0  0
  -30.7499  -15.4820   20.4336 N   0  0  0  0  0  0  0  0  0  0  0  0
  -28.1341  -11.9836   19.2868 N   0  0  0  0  0  0  0  0  0  0  0  0
  -30.5261  -25.6388   21.2239 N   0  0  0  0  0  0  0  0  0  0  0  0
  -21.2765  -28.8274   21.9881 N   0  0  0  0  0  0  0  0  0  0  0  0
  -21.8820  -29.3538   15.8702 N   0  0  0  0  0  0  0  0  0  0  0  0
  -23.8614  -31.4112   13.6528 N   0  3  0  0  0  0  0  0  0  0  0  0
  -30.2476  -12.8592   19.1277 O   0  0  0  0  0  0  0  0  0  0  0  0
  -23.3220  -27.8111   21.5347 O   0  0  0  0  0  0  0  0  0  0  0  0
  -20.7728  -29.8259   18.4693 O   0  0  0  0  0  0  0  0  0  0  0  0
  -24.0587  -29.0304   15.1391 O   0  0  0  0  0  0  0  0  0  0  0  0
  -30.4532  -20.5321   19.8980 O   0  0  0  0  0  0  0  0  0  0  0  0
  -22.7664  -11.3096   20.6167 O   0  0  0  0  0  0  0  0  0  0  0  0
  -28.9438  -27.9385   19.7613 O   0  0  0  0  0  0  0  0  0  1  0  0
  -23.2502   -5.8882   21.4989 F   0  0  0  0  0  0  0  0  0  0  0  0
  -21.4020  -10.0817   22.6839 F   0  0  0  0  0  0  0  0  0  0  0  0
  1  2  1  0  0  0  0
  1  5  2  0  0  0  0
  2  6  2  0  0  0  0
  3  8  2  0  0  0  0
  3 15  1  0  0  0  0
  4  9  1  0  0  0  0
  4 15  2  0  0  0  0
  5 17  1  0  0  0  0
  6 19  1  0  0  0  0
  7 10  2  0  0  0  0
  7 18  1  0  0  0  0
  8 22  1  0  0  0  0
  9 22  2  0  0  0  0
 10 23  1  0  0  0  0
 11 12  2  0  0  0  0
 11 24  1  0  0  0  0
 12 25  1  0  0  0  0
 13 20  1  0  0  0  0
 13 23  2  0  0  0  0
 14 25  2  0  0  0  0
 14 26  1  0  0  0  0
 15 27  1  0  0  0  0
 16 27  1  0  0  0  0
 16 30  2  0  0  0  0
 16 32  1  0  0  0  0
 17 19  2  0  0  0  0
 17 37  1  0  0  0  0
 18 20  2  0  0  0  0
 18 38  1  0  0  0  0
 19 48  1  0  0  0  0
 20 39  1  0  0  0  0
 21 28  1  0  0  0  0
 21 29  2  0  0  0  0
 21 61  1  0  0  0  0
 22 83  1  0  0  0  0
 23 84  1  0  0  0  0
 24 26  2  0  0  0  0
 24 83  1  0  0  0  0
 25 85  1  0  0  0  0
 26 86  1  0  0  0  0
 27 65  2  0  0  0  0
 28 53  1  0  0  0  0
 28 66  2  0  0  0  0
 29 67  1  0  0  0  0
 29 74  1  0  0  0  0
 30 68  1  0  0  0  0
 30 72  1  0  0  0  0
 31 54  1  0  0  0  0
 31 66  1  0  0  0  0
 31 67  2  0  0  0  0
 32 73  1  0  0  0  0
 32 78  2  0  0  0  0
 33 49  1  0  0  0  0
 33 75  1  0  0  0  0
 33 79  2  0  0  0  0
 34 62  1  0  0  0  0
 34 69  1  0  0  0  0
 34 80  2  0  0  0  0
 35 63  1  0  0  0  0
 35 76  1  0  0  0  0
 35 81  2  0  0  0  0
 36 70  1  0  0  0  0
 36 71  1  0  0  0  0
 36 82  2  0  0  0  0
 37 40  1  0  0  0  0
 38 49  1  0  0  0  0
 39 69  1  0  0  0  0
 40 42  1  0  0  0  0
 41 43  1  0  0  0  0
 41 45  1  0  0  0  0
 42 48  1  0  0  0  0
 43 50  1  0  0  0  0
 44 46  1  0  0  0  0
 44 51  1  0  0  0  0
 45 70  1  0  0  0  0
 46 71  1  0  0  0  0
 47 50  1  0  0  0  0
 47 70  1  0  0  0  0
 48 75  1  0  0  0  0
 49 69  1  0  0  0  0
 50 68  1  0  0  0  0
 51 52  1  0  0  0  0
 51 74  1  0  0  0  0
 52 55  1  0  0  0  0
 52 71  1  0  0  0  0
 56 63  1  0  0  0  0
 57 64  1  0  0  0  0
 58 64  1  0  0  0  0
 59 64  1  0  0  0  0
 60 77  1  0  0  0  0
 61 84  1  0  0  0  0
 62 64  1  0  0  0  0
 62 76  1  0  0  0  0
 63 77  1  0  0  0  0
 65 68  1  0  0  0  0
M  CHG  1  77   1
M  ISO  4  36 100  61 101  71 100  84 101
M  END
> <Batch ID>
0176

> <Smiles>
CNC(C)C(=O)NC(C(=O)N1Cc2cc([101O:1][101CH2:1]c3c(C)nc(C)nc3NC3CC[100N:0]([100C:0](=O)N4CCCC(n5nc(-c6ccc(Oc7ccc(F)cc7F)cc6)c(C(N)=O)c5N)C4)C3C)ccc2CC1C(=O)NC1CCCc2ccccc21)C(C)(C)C

> <Shape>
0.288

> <Color>
0.079

> <Negative vol penalty>
0.000

$$$$

  -OEChem-04052322503D

 86 95  0     1  0  0  0  0  0999 V2000
  -24.9094  -36.4348   16.2522 C   0  0  0  0  0  0  0  0  0  0  0  0
  -25.2703  -35.0971   16.1272 C   0  0  0  0  0  0  0  0  0  0  0  0
  -22.5482  -10.5732   21.5538 C   0  0  0  0  0  0  0  0  0  0  0  0
  -24.5310   -9.2160   21.8051 C   0  0  0  0  0  0  0  0  0  0  0  0
  -25.0409  -37.0791   17.4816 C   0  0  0  0  0  0  0  0  0  0  0  0
  -25.7640  -34.4032   17.2313 C   0  0  0  0  0  0  0  0  0  0  0  0
  -24.8731  -28.4926   18.5645 C   0  0  0  0  0  0  0  0  0  0  0  0
  -21.7789   -9.4203   21.3971 C   0  0  0  0  0  0  0  0  0  0  0  0
  -23.7617   -8.0630   21.6484 C   0  0  0  0  0  0  0  0  0  0  0  0
  -25.6589  -27.3579   18.3677 C   0  0  0  0  0  0  0  0  0  0  0  0
  -21.6889   -6.1778   23.5378 C   0  0  0  0  0  0  0  0  0  0  0  0
  -21.9186   -5.1224   24.4203 C   0  0  0  0  0  0  0  0  0  0  0  0
  -26.4945  -27.5528   20.6222 C   0  0  0  0  0  0  0  0  0  0  0  0
  -22.4967   -3.6930   22.5602 C   0  0  0  0  0  0  0  0  0  0  0  0
  -27.5671  -22.6355   17.9441 C   0  0  0  0  0  0  0  0  0  0  0  0
  -23.9243  -10.4711   21.7578 C   0  0  0  0  0  0  0  0  0  0  0  0
  -25.0216  -12.3255   23.1233 C   0  0  0  0  0  0  0  0  0  0  0  0
  -25.5274  -36.3901   18.6037 C   0  0  0  0  0  0  0  0  0  0  0  0
  -24.9005  -29.1734   19.7901 C   0  0  0  0  0  0  0  0  0  0  0  0
  -25.9034  -35.0393   18.4766 C   0  0  0  0  0  0  0  0  0  0  0  0
  -25.7062  -28.6944   20.8329 C   0  0  0  0  0  0  0  0  0  0  0  0
  -27.9932  -23.9402   17.8937 C   0  0  0  0  0  0  0  0  0  0  0  0
  -22.3856   -8.1652   21.4444 C   0  0  0  0  0  0  0  0  0  0  0  0
  -26.4719  -26.8895   19.3956 C   0  0  0  0  0  0  0  0  0  0  0  0
  -21.8630   -5.9909   22.1665 C   0  0  0  0  0  0  0  0  0  0  0  0
  -22.3226   -3.8800   23.9315 C   0  0  0  0  0  0  0  0  0  0  0  0
  -22.2669   -4.7485   21.6777 C   0  0  0  0  0  0  0  0  0  0  0  0
  -24.7196  -11.6617   21.9192 C   0  0  0  0  0  0  0  0  0  0  0  0
  -29.3955  -23.8495   17.8095 C   0  0  0  0  0  0  0  0  0  0  0  0
  -25.8001  -13.3909   22.7422 C   0  0  0  0  0  0  0  0  0  0  0  0
  -24.6332  -12.0074   24.4663 C   0  0  0  0  0  0  0  0  0  0  0  0
  -25.7234  -32.1022   20.7113 C   0  0  0  0  0  0  0  0  0  0  0  0
  -24.5644  -31.1065   23.5727 C   0  0  0  0  0  0  0  0  0  0  0  0
  -23.8310  -28.5034   25.6543 C   0  0  0  0  0  0  0  0  0  0  0  0
  -26.8079  -17.6361   19.5317 C   0  0  0  0  0  0  0  0  0  0  0  0
  -25.6964  -37.1420   19.9002 C   0  0  0  0  0  0  0  0  0  0  0  0
  -24.0267  -30.3804   19.9955 C   0  0  0  0  0  0  0  0  0  0  0  0
  -25.7561  -29.3774   22.1744 C   0  0  0  0  0  0  0  0  0  0  0  0
  -25.8751  -36.2323   21.1130 C   0  0  0  0  0  0  0  0  0  0  0  0
  -27.9956  -14.4725   18.3323 C   0  0  0  0  0  0  0  0  0  0  0  0
  -26.8926  -35.1362   20.8128 C   0  0  0  0  0  0  0  0  0  0  0  0
  -27.2434  -13.5053   19.2430 C   0  0  0  0  0  0  0  0  0  0  0  0
  -27.1450  -15.6830   17.9425 C   0  0  0  0  0  0  0  0  0  0  0  0
  -27.8679  -18.2378   17.2968 C   0  0  0  0  0  0  0  0  0  0  0  0
  -25.8058  -15.4257   20.0122 C   0  0  0  0  0  0  0  0  0  0  0  0
  -26.4196  -34.2459   19.6573 C   0  0  1  0  0  0  0  0  0  0  0  0
  -24.5222  -31.2937   21.1125 C   0  0  1  0  0  0  0  0  0  0  0  0
  -27.9940  -19.6675   16.7698 C   0  0  1  0  0  0  0  0  0  0  0  0
  -26.6718  -14.2417   20.4656 C   0  0  1  0  0  0  0  0  0  0  0  0
  -28.7600  -20.3615   17.9143 C   0  0  2  0  0  0  0  0  0  0  0  0
  -28.1317  -19.7260   19.1769 C   0  0  2  0  0  0  0  0  0  0  0  0
  -28.7093  -19.7346   15.4282 C   0  0  0  0  0  0  0  0  0  0  0  0
  -29.1340  -19.6324   20.3247 C   0  0  0  0  0  0  0  0  0  0  0  0
  -30.8900  -25.4288   19.0999 C   0  0  0  0  0  0  0  0  0  0  0  0
  -22.9296  -28.0045   27.9425 C   0  0  0  0  0  0  0  0  0  0  0  0
  -27.2277  -31.9462   24.8024 C   0  0  0  0  0  0  0  0  0  0  0  0
  -26.6454  -30.5846   26.8211 C   0  0  0  0  0  0  0  0  0  0  0  0
  -25.2173  -32.5246   26.1730 C   0  0  0  0  0  0  0  0  0  0  0  0
  -21.5492  -26.9766   24.5492 C   0  0  0  0  0  0  0  0  0  0  0  0
  -27.1593  -25.1537   17.9224 C   0  0  0  0  0  0  0  0  0  1  0  0
  -30.3687  -24.9528   17.7294 C   0  0  1  0  0  0  0  0  0  0  0  0
  -25.1488  -30.4152   24.7809 C   0  0  1  0  0  0  0  0  0  0  0  0
  -22.5915  -28.1849   26.4708 C   0  0  2  0  0  0  0  0  0  0  0  0
  -26.0606  -31.3557   25.6185 C   0  0  0  0  0  0  0  0  0  0  0  0
  -25.2619  -12.2557   20.8529 N   0  0  0  0  0  0  0  0  0  0  0  0
  -29.8312  -22.5869   17.8066 N   0  0  0  0  0  0  0  0  0  0  0  0
  -28.6961  -21.8723   17.8896 N   0  0  0  0  0  0  0  0  0  0  0  0
  -25.9125  -13.3040   21.3857 N   0  0  0  0  0  0  0  0  0  0  0  0
  -24.8884  -30.5573   22.3241 N   0  0  0  0  0  0  0  0  0  0  0  0
  -26.5505  -16.3212   19.1230 N   0  0  0  0  0  0  0  0  0  0  0  0
  -27.6681  -18.4008   18.7384 N   0  0  0  0  0  0  0  0  0  0  0  0
  -26.3927  -14.3842   23.4383 N   0  0  0  0  0  0  0  0  0  0  0  0
  -23.8318  -10.8776   24.6803 N   0  0  0  0  0  0  0  0  0  0  0  0
  -25.4150  -33.3114   20.1178 N   0  0  0  0  0  0  0  0  0  0  0  0
  -24.0195  -29.8628   25.5211 N   0  0  0  0  0  0  0  0  0  0  0  0
  -31.5855  -24.6399   16.8910 N   0  3  0  0  0  0  0  0  0  0  0  0
  -21.9545  -26.9311   25.9777 N   0  3  0  0  0  0  0  0  0  0  0  0
  -24.9726  -12.7138   25.4458 O   0  0  0  0  0  0  0  0  0  0  0  0
  -26.8469  -31.6623   20.9258 O   0  0  0  0  0  0  0  0  0  0  0  0
  -23.8411  -32.0931   23.7315 O   0  0  0  0  0  0  0  0  0  0  0  0
  -24.5612  -27.6333   25.1849 O   0  0  0  0  0  0  0  0  0  0  0  0
  -26.2717  -18.1141   20.5398 O   0  0  0  0  0  0  0  0  0  0  0  0
  -21.6352   -7.0400   21.2917 O   0  0  0  0  0  0  0  0  0  0  0  0
  -27.2441  -25.7772   19.2050 O   0  0  0  0  0  0  0  0  0  1  0  0
  -22.5446   -2.8669   24.7792 F   0  0  0  0  0  0  0  0  0  0  0  0
  -22.4369   -4.5632   20.3614 F   0  0  0  0  0  0  0  0  0  0  0  0
  1  2  1  0  0  0  0
  1  5  2  0  0  0  0
  2  6  2  0  0  0  0
  3  8  2  0  0  0  0
  3 16  1  0  0  0  0
  4  9  1  0  0  0  0
  4 16  2  0  0  0  0
  5 18  1  0  0  0  0
  6 20  1  0  0  0  0
  7 10  2  0  0  0  0
  7 19  1  0  0  0  0
  8 23  1  0  0  0  0
  9 23  2  0  0  0  0
 10 24  1  0  0  0  0
 11 12  2  0  0  0  0
 11 25  1  0  0  0  0
 12 26  1  0  0  0  0
 13 21  1  0  0  0  0
 13 24  2  0  0  0  0
 14 26  2  0  0  0  0
 14 27  1  0  0  0  0
 15 22  2  0  0  0  0
 15 67  1  0  0  0  0
 16 28  1  0  0  0  0
 17 28  1  0  0  0  0
 17 30  2  0  0  0  0
 17 31  1  0  0  0  0
 18 20  2  0  0  0  0
 18 36  1  0  0  0  0
 19 21  2  0  0  0  0
 19 37  1  0  0  0  0
 20 46  1  0  0  0  0
 21 38  1  0  0  0  0
 22 29  1  0  0  0  0
 22 60  1  0  0  0  0
 23 83  1  0  0  0  0
 24 84  1  0  0  0  0
 25 27  2  0  0  0  0
 25 83  1  0  0  0  0
 26 85  1  0  0  0  0
 27 86  1  0  0  0  0
 28 65  2  0  0  0  0
 29 61  1  0  0  0  0
 29 66  2  0  0  0  0
 30 68  1  0  0  0  0
 30 72  1  0  0  0  0
 31 73  1  0  0  0  0
 31 78  2  0  0  0  0
 32 47  1  0  0  0  0
 32 74  1  0  0  0  0
 32 79  2  0  0  0  0
 33 62  1  0  0  0  0
 33 69  1  0  0  0  0
 33 80  2  0  0  0  0
 34 63  1  0  0  0  0
 34 75  1  0  0  0  0
 34 81  2  0  0  0  0
 35 70  1  0  0  0  0
 35 71  1  0  0  0  0
 35 82  2  0  0  0  0
 36 39  1  0  0  0  0
 37 47  1  0  0  0  0
 38 69  1  0  0  0  0
 39 41  1  0  0  0  0
 40 42  1  0  0  0  0
 40 43  1  0  0  0  0
 41 46  1  0  0  0  0
 42 49  1  0  0  0  0
 43 70  1  0  0  0  0
 44 48  1  0  0  0  0
 44 71  1  0  0  0  0
 45 49  1  0  0  0  0
 45 70  1  0  0  0  0
 46 74  1  0  0  0  0
 47 69  1  0  0  0  0
 48 50  1  0  0  0  0
 48 52  1  0  0  0  0
 49 68  1  0  0  0  0
 50 51  1  0  0  0  0
 50 67  1  0  0  0  0
 51 53  1  0  0  0  0
 51 71  1  0  0  0  0
 54 61  1  0  0  0  0
 55 63  1  0  0  0  0
 56 64  1  0  0  0  0
 57 64  1  0  0  0  0
 58 64  1  0  0  0  0
 59 77  1  0  0  0  0
 60 84  1  0  0  0  0
 61 76  1  0  0  0  0
 62 64  1  0  0  0  0
 62 75  1  0  0  0  0
 63 77  1  0  0  0  0
 65 68  1  0  0  0  0
 66 67  1  0  0  0  0
M  CHG  2  76   1  77   1
M  ISO  4  35 100  60 101  71 100  84 101
M  END
> <Batch ID>
0176

> <Smiles>
CNC(C)C(=O)NC(C(=O)N1Cc2cc([101O:1][101CH2:1]c3cn(C4C(C)C[100N:0]([100C:0](=O)N5CCCC(n6nc(-c7ccc(Oc8ccc(F)cc8F)cc7)c(C(N)=O)c6N)C5)C4C)nc3C(C)N)ccc2CC1C(=O)NC1CCCc2ccccc21)C(C)(C)C

> <Shape>
0.274

> <Color>
0.124

> <Negative vol penalty>
0.000

$$$$

  -OEChem-04052322503D

 81 89  0     1  0  0  0  0  0999 V2000
  -18.2710  -33.2560   23.4289 C   0  0  0  0  0  0  0  0  0  0  0  0
  -19.5442  -32.9579   23.9038 C   0  0  0  0  0  0  0  0  0  0  0  0
  -24.0938  -12.8880   20.5717 C   0  0  0  0  0  0  0  0  0  0  0  0
  -26.4102  -13.4122   21.0147 C   0  0  0  0  0  0  0  0  0  0  0  0
  -17.4176  -32.2273   23.0322 C   0  0  0  0  0  0  0  0  0  0  0  0
  -19.9643  -31.6306   23.9833 C   0  0  0  0  0  0  0  0  0  0  0  0
  -25.8220  -29.3771   20.4477 C   0  0  0  0  0  0  0  0  0  0  0  0
  -24.4146  -11.5326   20.4976 C   0  0  0  0  0  0  0  0  0  0  0  0
  -26.7311  -12.0568   20.9407 C   0  0  0  0  0  0  0  0  0  0  0  0
  -27.0500  -28.9176   19.9711 C   0  0  0  0  0  0  0  0  0  0  0  0
  -24.5630   -7.9008   20.5497 C   0  0  0  0  0  0  0  0  0  0  0  0
  -23.7285   -6.9997   21.2110 C   0  0  0  0  0  0  0  0  0  0  0  0
  -26.5527  -26.6998   20.7969 C   0  0  0  0  0  0  0  0  0  0  0  0
  -24.2062   -8.0974   23.3096 C   0  0  0  0  0  0  0  0  0  0  0  0
  -25.0916  -13.8279   20.8302 C   0  0  0  0  0  0  0  0  0  0  0  0
  -23.8655  -15.8428   21.8020 C   0  0  0  0  0  0  0  0  0  0  0  0
  -17.8310  -30.8874   23.0978 C   0  0  0  0  0  0  0  0  0  0  0  0
  -24.9470  -28.4950   21.0878 C   0  0  0  0  0  0  0  0  0  0  0  0
  -19.1151  -30.5829   23.5883 C   0  0  0  0  0  0  0  0  0  0  0  0
  -25.3160  -27.1514   21.2653 C   0  0  0  0  0  0  0  0  0  0  0  0
  -25.7333  -11.1170   20.6822 C   0  0  0  0  0  0  0  0  0  0  0  0
  -27.4145  -27.5823   20.1456 C   0  0  0  0  0  0  0  0  0  0  0  0
  -25.2192   -8.9001   21.2683 C   0  0  0  0  0  0  0  0  0  0  0  0
  -23.5501   -7.0981   22.5909 C   0  0  0  0  0  0  0  0  0  0  0  0
  -25.0408   -8.9985   22.6482 C   0  0  0  0  0  0  0  0  0  0  0  0
  -24.7609  -15.2282   20.9063 C   0  0  0  0  0  0  0  0  0  0  0  0
  -23.9051  -17.1743   21.4676 C   0  0  0  0  0  0  0  0  0  0  0  0
  -30.8221  -25.0720   18.7297 C   0  0  0  0  0  0  0  0  0  0  0  0
  -31.0753  -24.1863   17.5562 C   0  0  0  0  0  0  0  0  0  0  0  0
  -31.2044  -26.3528   18.6491 C   0  0  0  0  0  0  0  0  0  0  0  0
  -23.0694  -15.2620   22.8434 C   0  0  0  0  0  0  0  0  0  0  0  0
  -21.6309  -28.0027   22.7721 C   0  0  0  0  0  0  0  0  0  0  0  0
  -22.1188  -25.5289   21.0248 C   0  0  0  0  0  0  0  0  0  0  0  0
  -21.5140  -23.2790   18.9094 C   0  0  0  0  0  0  0  0  0  0  0  0
  -28.0918  -20.4678   18.9220 C   0  0  0  0  0  0  0  0  0  0  0  0
  -16.8561  -29.8067   22.7022 C   0  0  0  0  0  0  0  0  0  0  0  0
  -23.6406  -28.9601   21.6716 C   0  0  0  0  0  0  0  0  0  0  0  0
  -24.3578  -26.2466   21.9905 C   0  0  0  0  0  0  0  0  0  0  0  0
  -30.1288  -24.4739   19.9155 C   0  0  0  0  0  0  0  0  0  0  0  0
  -30.0186  -23.1464   17.2447 C   0  0  0  0  0  0  0  0  0  0  0  0
  -17.5141  -28.4498   22.4653 C   0  0  0  0  0  0  0  0  0  0  0  0
  -28.9692  -23.5685   19.5019 C   0  0  0  0  0  0  0  0  0  0  0  0
  -24.6914  -20.0789   17.7456 C   0  0  0  0  0  0  0  0  0  0  0  0
  -18.4859  -28.1233   23.5948 C   0  0  0  0  0  0  0  0  0  0  0  0
  -24.2422  -18.8377   18.5189 C   0  0  0  0  0  0  0  0  0  0  0  0
  -26.1515  -19.9649   17.3173 C   0  0  0  0  0  0  0  0  0  0  0  0
  -26.6561  -18.4680   19.2090 C   0  0  0  0  0  0  0  0  0  0  0  0
  -19.6162  -29.1571   23.6662 C   0  0  1  0  0  0  0  0  0  0  0  0
  -22.5249  -27.9045   21.5710 C   0  0  1  0  0  0  0  0  0  0  0  0
  -25.1950  -18.5316   19.6897 C   0  0  2  0  0  0  0  0  0  0  0  0
  -29.4433  -22.5071   18.5074 C   0  0  1  0  0  0  0  0  0  0  0  0
  -20.8425  -20.9649   18.2086 C   0  0  0  0  0  0  0  0  0  0  0  0
  -24.1499  -24.4434   23.0248 C   0  0  0  0  0  0  0  0  0  0  0  0
  -23.6401  -22.1406   22.1848 C   0  0  0  0  0  0  0  0  0  0  0  0
  -21.8460  -23.4995   23.2606 C   0  0  0  0  0  0  0  0  0  0  0  0
  -19.2238  -24.2952   17.3341 C   0  0  0  0  0  0  0  0  0  0  0  0
  -31.0146  -27.3577   19.7490 C   0  0  0  0  0  0  0  0  0  0  0  0
  -29.6807  -28.0847   19.6266 C   0  0  0  0  0  0  0  0  0  1  0  0
  -22.6525  -24.1210   20.9464 C   0  0  1  0  0  0  0  0  0  0  0  0
  -20.3683  -22.3864   18.4678 C   0  0  2  0  0  0  0  0  0  0  0  0
  -23.0810  -23.5714   22.3363 C   0  0  0  0  0  0  0  0  0  0  0  0
  -25.3277  -16.0979   20.0658 N   0  0  0  0  0  0  0  0  0  0  0  0
  -24.7871  -17.2725   20.4319 N   0  0  0  0  0  0  0  0  0  0  0  0
  -22.9821  -26.5049   21.5373 N   0  0  0  0  0  0  0  0  0  0  0  0
  -27.0072  -19.6917   18.4806 N   0  0  0  0  0  0  0  0  0  0  0  0
  -23.2711  -18.2591   21.9613 N   0  0  0  0  0  0  0  0  0  0  0  0
  -23.6186  -15.1652   24.1292 N   0  0  0  0  0  0  0  0  0  0  0  0
  -20.5959  -28.9072   22.6306 N   0  0  0  0  0  0  0  0  0  0  0  0
  -21.6215  -23.3300   20.2831 N   0  0  0  0  0  0  0  0  0  0  0  0
  -28.3625  -21.6065   18.1730 N   0  0  0  0  0  0  0  0  0  0  0  0
  -19.7544  -22.9126   17.2159 N   0  3  0  0  0  0  0  0  0  0  0  0
  -32.0549  -24.3419   16.8301 O   0  0  0  0  0  0  0  0  0  0  0  0
  -21.9115  -14.8264   22.6360 O   0  0  0  0  0  0  0  0  0  0  0  0
  -21.8612  -27.3081   23.7551 O   0  0  0  0  0  0  0  0  0  0  0  0
  -20.9663  -25.7590   20.6478 O   0  0  0  0  0  0  0  0  0  0  0  0
  -22.2431  -23.8689   18.1151 O   0  0  0  0  0  0  0  0  0  0  0  0
  -28.7662  -20.1708   19.9139 O   0  0  0  0  0  0  0  0  0  0  0  0
  -26.0467   -9.7944   20.6102 O   0  0  0  0  0  0  0  0  0  0  0  0
  -28.6128  -27.1394   19.6739 O   0  0  0  0  0  0  0  0  0  1  0  0
  -22.7475   -6.2337   23.2256 F   0  0  0  0  0  0  0  0  0  0  0  0
  -25.6676   -9.9572   23.3438 F   0  0  0  0  0  0  0  0  0  0  0  0
  1  2  1  0  0  0  0
  1  5  2  0  0  0  0
  2  6  2  0  0  0  0
  3  8  2  0  0  0  0
  3 15  1  0  0  0  0
  4  9  1  0  0  0  0
  4 15  2  0  0  0  0
  5 17  1  0  0  0  0
  6 19  1  0  0  0  0
  7 10  2  0  0  0  0
  7 18  1  0  0  0  0
  8 21  1  0  0  0  0
  9 21  2  0  0  0  0
 10 22  1  0  0  0  0
 11 12  2  0  0  0  0
 11 23  1  0  0  0  0
 12 24  1  0  0  0  0
 13 20  1  0  0  0  0
 13 22  2  0  0  0  0
 14 24  2  0  0  0  0
 14 25  1  0  0  0  0
 15 26  1  0  0  0  0
 16 26  1  0  0  0  0
 16 27  2  0  0  0  0
 16 31  1  0  0  0  0
 17 19  2  0  0  0  0
 17 36  1  0  0  0  0
 18 20  2  0  0  0  0
 18 37  1  0  0  0  0
 19 48  1  0  0  0  0
 20 38  1  0  0  0  0
 21 78  1  0  0  0  0
 22 79  1  0  0  0  0
 23 25  2  0  0  0  0
 23 78  1  0  0  0  0
 24 80  1  0  0  0  0
 25 81  1  0  0  0  0
 26 62  2  0  0  0  0
 27 63  1  0  0  0  0
 27 66  1  0  0  0  0
 28 29  1  0  0  0  0
 28 30  2  0  0  0  0
 28 39  1  0  0  0  0
 29 40  1  0  0  0  0
 29 72  2  0  0  0  0
 30 57  1  0  0  0  0
 31 67  1  0  0  0  0
 31 73  2  0  0  0  0
 32 49  1  0  0  0  0
 32 68  1  0  0  0  0
 32 74  2  0  0  0  0
 33 59  1  0  0  0  0
 33 64  1  0  0  0  0
 33 75  2  0  0  0  0
 34 60  1  0  0  0  0
 34 69  1  0  0  0  0
 34 76  2  0  0  0  0
 35 65  1  0  0  0  0
 35 70  1  0  0  0  0
 35 77  2  0  0  0  0
 36 41  1  0  0  0  0
 37 49  1  0  0  0  0
 38 64  1  0  0  0  0
 39 42  1  0  0  0  0
 40 51  1  0  0  0  0
 41 44  1  0  0  0  0
 42 51  1  0  0  0  0
 43 45  1  0  0  0  0
 43 46  1  0  0  0  0
 44 48  1  0  0  0  0
 45 50  1  0  0  0  0
 46 65  1  0  0  0  0
 47 50  1  0  0  0  0
 47 65  1  0  0  0  0
 48 68  1  0  0  0  0
 49 64  1  0  0  0  0
 50 63  1  0  0  0  0
 51 70  1  0  0  0  0
 52 60  1  0  0  0  0
 53 61  1  0  0  0  0
 54 61  1  0  0  0  0
 55 61  1  0  0  0  0
 56 71  1  0  0  0  0
 57 58  1  0  0  0  0
 58 79  1  0  0  0  0
 59 61  1  0  0  0  0
 59 69  1  0  0  0  0
 60 71  1  0  0  0  0
 62 63  1  0  0  0  0
M  CHG  1  71   1
M  ISO  4  35 100  58 101  70 100  79 101
M  END
> <Batch ID>
0176

> <Smiles>
CNC(C)C(=O)NC(C(=O)N1Cc2cc([101O:1][101CH2:1]CC=C3CCC([100NH:0][100C:0](=O)N4CCCC(n5nc(-c6ccc(Oc7ccc(F)cc7F)cc6)c(C(N)=O)c5N)C4)CC3=O)ccc2CC1C(=O)NC1CCCc2ccccc21)C(C)(C)C

> <Shape>
0.233

> <Color>
0.094

> <Negative vol penalty>
0.000

$$$$

  -OEChem-04052322503D

 82 91  0     1  0  0  0  0  0999 V2000
  -31.1999  -32.6620   28.2302 C   0  0  0  0  0  0  0  0  0  0  0  0
  -31.6453  -31.3453   28.2866 C   0  0  0  0  0  0  0  0  0  0  0  0
  -23.0054   -9.8857   19.9777 C   0  0  0  0  0  0  0  0  0  0  0  0
  -23.7291   -9.9388   22.2821 C   0  0  0  0  0  0  0  0  0  0  0  0
  -30.2752  -33.0429   27.2587 C   0  0  0  0  0  0  0  0  0  0  0  0
  -31.1654  -30.4083   27.3722 C   0  0  0  0  0  0  0  0  0  0  0  0
  -33.2091  -24.5541   23.7851 C   0  0  0  0  0  0  0  0  0  0  0  0
  -22.2418   -8.7492   20.2436 C   0  0  0  0  0  0  0  0  0  0  0  0
  -22.9654   -8.8022   22.5481 C   0  0  0  0  0  0  0  0  0  0  0  0
  -32.8036  -23.2421   23.5443 C   0  0  0  0  0  0  0  0  0  0  0  0
  -23.2190   -5.4639   22.0765 C   0  0  0  0  0  0  0  0  0  0  0  0
  -23.8089   -4.4483   22.8289 C   0  0  0  0  0  0  0  0  0  0  0  0
  -31.2681  -24.0321   21.8599 C   0  0  0  0  0  0  0  0  0  0  0  0
  -29.7464  -17.7048   22.6736 C   0  0  0  0  0  0  0  0  0  0  0  0
  -22.0834   -4.6867   24.5031 C   0  0  0  0  0  0  0  0  0  0  0  0
  -23.7491  -10.4805   20.9969 C   0  0  0  0  0  0  0  0  0  0  0  0
  -24.1277  -12.9971   20.8211 C   0  0  0  0  0  0  0  0  0  0  0  0
  -29.7910  -32.1123   26.3258 C   0  0  0  0  0  0  0  0  0  0  0  0
  -32.6384  -25.6178   23.0715 C   0  0  0  0  0  0  0  0  0  0  0  0
  -30.2324  -30.7768   26.3882 C   0  0  0  0  0  0  0  0  0  0  0  0
  -31.6700  -25.3565   22.0917 C   0  0  0  0  0  0  0  0  0  0  0  0
  -30.2318  -18.9429   23.0798 C   0  0  0  0  0  0  0  0  0  0  0  0
  -31.5063  -19.3440   22.6951 C   0  0  0  0  0  0  0  0  0  0  0  0
  -22.2218   -8.2074   21.5288 C   0  0  0  0  0  0  0  0  0  0  0  0
  -31.8309  -22.9812   22.5837 C   0  0  0  0  0  0  0  0  0  0  0  0
  -22.0614   -6.0910   22.5373 C   0  0  0  0  0  0  0  0  0  0  0  0
  -23.2411   -4.0597   24.0423 C   0  0  0  0  0  0  0  0  0  0  0  0
  -21.4935   -5.7023   23.7506 C   0  0  0  0  0  0  0  0  0  0  0  0
  -24.5386  -11.6542   20.7227 C   0  0  0  0  0  0  0  0  0  0  0  0
  -32.2496  -18.4773   21.9102 C   0  0  0  0  0  0  0  0  0  0  0  0
  -30.5685  -16.9116   21.8895 C   0  0  0  0  0  0  0  0  0  0  0  0
  -25.2358  -13.7227   20.4573 C   0  0  0  0  0  0  0  0  0  0  0  0
  -22.8581  -13.5401   21.2068 C   0  0  0  0  0  0  0  0  0  0  0  0
  -30.9288  -28.1813   23.8521 C   0  0  0  0  0  0  0  0  0  0  0  0
  -31.3014  -28.9046   20.7120 C   0  0  0  0  0  0  0  0  0  0  0  0
  -31.8928  -27.8046   17.5359 C   0  0  0  0  0  0  0  0  0  0  0  0
  -30.7125  -14.6986   20.6945 C   0  0  0  0  0  0  0  0  0  0  0  0
  -28.7565  -32.5600   25.3238 C   0  0  0  0  0  0  0  0  0  0  0  0
  -33.1059  -27.0249   23.3242 C   0  0  0  0  0  0  0  0  0  0  0  0
  -31.0408  -26.4612   21.2840 C   0  0  0  0  0  0  0  0  0  0  0  0
  -28.5808  -31.5925   24.1562 C   0  0  0  0  0  0  0  0  0  0  0  0
  -29.6022  -12.2426   18.3680 C   0  0  0  0  0  0  0  0  0  0  0  0
  -28.4755  -30.1576   24.6631 C   0  0  0  0  0  0  0  0  0  0  0  0
  -33.7882  -19.6982   20.2320 C   0  0  0  0  0  0  0  0  0  0  0  0
  -34.1913  -18.2568   20.2192 C   0  0  0  0  0  0  0  0  0  0  0  0
  -28.1521  -11.9810   18.7813 C   0  0  0  0  0  0  0  0  0  0  0  0
  -30.5013  -12.4885   19.5783 C   0  0  0  0  0  0  0  0  0  0  0  0
  -28.5831  -13.2722   20.9106 C   0  0  0  0  0  0  0  0  0  0  0  0
  -29.7539  -29.7370   25.3981 C   0  0  1  0  0  0  0  0  0  0  0  0
  -33.6260  -18.8647   21.4739 C   0  0  0  0  0  0  0  0  0  0  0  0
  -32.0870  -28.0783   22.9005 C   0  0  1  0  0  0  0  0  0  0  0  0
  -27.6266  -13.0832   19.7219 C   0  0  2  0  0  0  0  0  0  0  0  0
  -29.3689  -19.8196   23.9258 C   0  0  0  0  0  0  0  0  0  0  0  0
  -32.1007  -28.6255   15.1737 C   0  0  0  0  0  0  0  0  0  0  0  0
  -28.2679  -29.1883   20.5462 C   0  0  0  0  0  0  0  0  0  0  0  0
  -28.4620  -29.0597   18.0534 C   0  0  0  0  0  0  0  0  0  0  0  0
  -29.5489  -30.9322   19.2923 C   0  0  0  0  0  0  0  0  0  0  0  0
  -34.6894  -26.8583   17.3304 C   0  0  0  0  0  0  0  0  0  0  0  0
  -32.0536  -20.6749   23.1198 C   0  0  0  0  0  0  0  0  0  1  0  0
  -30.5313  -28.6079   19.4479 C   0  0  1  0  0  0  0  0  0  0  0  0
  -32.8432  -28.2977   16.4598 C   0  0  2  0  0  0  0  0  0  0  0  0
  -29.2128  -29.4262   19.3513 C   0  0  0  0  0  0  0  0  0  0  0  0
  -25.8084  -11.5311   20.3273 N   0  0  0  0  0  0  0  0  0  0  0  0
  -31.8120  -17.2671   21.4960 N   0  0  0  0  0  0  0  0  0  0  0  0
  -26.2051  -12.8060   20.1739 N   0  0  0  0  0  0  0  0  0  0  0  0
  -31.5268  -27.8207   21.5723 N   0  0  0  0  0  0  0  0  0  0  0  0
  -29.9429  -13.5479   20.4212 N   0  0  0  0  0  0  0  0  0  0  0  0
  -25.4657  -15.0490   20.3553 N   0  0  0  0  0  0  0  0  0  0  0  0
  -21.8285  -12.6532   21.5498 N   0  0  0  0  0  0  0  0  0  0  0  0
  -30.0652  -15.6520   21.4796 N   0  0  0  0  0  0  0  0  0  0  0  0
  -30.8008  -29.4203   24.4505 N   0  0  0  0  0  0  0  0  0  0  0  0
  -31.4571  -28.8340   18.3433 N   0  0  0  0  0  0  0  0  0  0  0  0
  -33.8686  -27.2591   16.1588 N   0  3  0  0  0  0  0  0  0  0  0  0
  -22.6380  -14.7748   21.2304 O   0  0  0  0  0  0  0  0  0  0  0  0
  -30.2040  -27.2092   24.0292 O   0  0  0  0  0  0  0  0  0  0  0  0
  -31.6949  -30.0542   20.9247 O   0  0  0  0  0  0  0  0  0  0  0  0
  -31.5664  -26.6249   17.6468 O   0  0  0  0  0  0  0  0  0  0  0  0
  -31.8510  -14.8405   20.2411 O   0  0  0  0  0  0  0  0  0  0  0  0
  -21.4765   -7.0985   21.7887 O   0  0  0  0  0  0  0  0  0  0  0  0
  -31.4328  -21.7015   22.3472 O   0  0  0  0  0  0  0  0  0  1  0  0
  -23.8067   -3.0833   24.7640 F   0  0  0  0  0  0  0  0  0  0  0  0
  -20.3808   -6.3002   24.1980 F   0  0  0  0  0  0  0  0  0  0  0  0
  1  2  1  0  0  0  0
  1  5  2  0  0  0  0
  2  6  2  0  0  0  0
  3  8  2  0  0  0  0
  3 16  1  0  0  0  0
  4  9  1  0  0  0  0
  4 16  2  0  0  0  0
  5 18  1  0  0  0  0
  6 20  1  0  0  0  0
  7 10  2  0  0  0  0
  7 19  1  0  0  0  0
  8 24  1  0  0  0  0
  9 24  2  0  0  0  0
 10 25  1  0  0  0  0
 11 12  2  0  0  0  0
 11 26  1  0  0  0  0
 12 27  1  0  0  0  0
 13 21  1  0  0  0  0
 13 25  2  0  0  0  0
 14 22  2  0  0  0  0
 14 31  1  0  0  0  0
 15 27  2  0  0  0  0
 15 28  1  0  0  0  0
 16 29  1  0  0  0  0
 17 29  1  0  0  0  0
 17 32  2  0  0  0  0
 17 33  1  0  0  0  0
 18 20  2  0  0  0  0
 18 38  1  0  0  0  0
 19 21  2  0  0  0  0
 19 39  1  0  0  0  0
 20 49  1  0  0  0  0
 21 40  1  0  0  0  0
 22 23  1  0  0  0  0
 22 53  1  0  0  0  0
 23 30  2  0  0  0  0
 23 59  1  0  0  0  0
 24 79  1  0  0  0  0
 25 80  1  0  0  0  0
 26 28  2  0  0  0  0
 26 79  1  0  0  0  0
 27 81  1  0  0  0  0
 28 82  1  0  0  0  0
 29 63  2  0  0  0  0
 30 50  1  0  0  0  0
 30 64  1  0  0  0  0
 31 64  2  0  0  0  0
 31 70  1  0  0  0  0
 32 65  1  0  0  0  0
 32 68  1  0  0  0  0
 33 69  1  0  0  0  0
 33 74  2  0  0  0  0
 34 51  1  0  0  0  0
 34 71  1  0  0  0  0
 34 75  2  0  0  0  0
 35 60  1  0  0  0  0
 35 66  1  0  0  0  0
 35 76  2  0  0  0  0
 36 61  1  0  0  0  0
 36 72  1  0  0  0  0
 36 77  2  0  0  0  0
 37 67  1  0  0  0  0
 37 70  1  0  0  0  0
 37 78  2  0  0  0  0
 38 41  1  0  0  0  0
 39 51  1  0  0  0  0
 40 66  1  0  0  0  0
 41 43  1  0  0  0  0
 42 46  1  0  0  0  0
 42 47  1  0  0  0  0
 43 49  1  0  0  0  0
 44 45  1  0  0  0  0
 44 50  1  0  0  0  0
 45 50  1  0  0  0  0
 46 52  1  0  0  0  0
 47 67  1  0  0  0  0
 48 52  1  0  0  0  0
 48 67  1  0  0  0  0
 49 71  1  0  0  0  0
 51 66  1  0  0  0  0
 52 65  1  0  0  0  0
 54 61  1  0  0  0  0
 55 62  1  0  0  0  0
 56 62  1  0  0  0  0
 57 62  1  0  0  0  0
 58 73  1  0  0  0  0
 59 80  1  0  0  0  0
 60 62  1  0  0  0  0
 60 72  1  0  0  0  0
 61 73  1  0  0  0  0
 63 65  1  0  0  0  0
M  CHG  1  73   1
M  ISO  4  37 100  59 101  70 100  80 101
M  END
> <Batch ID>
0176

> <Smiles>
CNC(C)C(=O)NC(C(=O)N1Cc2cc([101O:1][101CH2:1]c3c(C)cc([100NH:0][100C:0](=O)N4CCCC(n5nc(-c6ccc(Oc7ccc(F)cc7F)cc6)c(C(N)=O)c5N)C4)nc3C3CC3)ccc2CC1C(=O)NC1CCCc2ccccc21)C(C)(C)C

> <Shape>
0.218

> <Color>
0.202

> <Negative vol penalty>
0.000

$$$$

  -OEChem-04052322503D

 79 88  0     1  0  0  0  0  0999 V2000
  -27.3242  -19.6215   26.4386 C   0  0  0  0  0  0  0  0  0  0  0  0
  -27.5961  -20.6561   25.5506 C   0  0  0  0  0  0  0  0  0  0  0  0
  -24.0458  -14.7009   19.4293 C   0  0  0  0  0  0  0  0  0  0  0  0
  -24.0379  -14.1455   21.7806 C   0  0  0  0  0  0  0  0  0  0  0  0
  -26.0057  -19.3339   26.7850 C   0  0  0  0  0  0  0  0  0  0  0  0
  -26.5505  -21.4111   25.0180 C   0  0  0  0  0  0  0  0  0  0  0  0
  -27.7777  -25.3386   22.3213 C   0  0  0  0  0  0  0  0  0  0  0  0
  -23.3521  -13.5238   19.1489 C   0  0  0  0  0  0  0  0  0  0  0  0
  -23.3441  -12.9683   21.5002 C   0  0  0  0  0  0  0  0  0  0  0  0
  -28.3260  -25.2342   21.0437 C   0  0  0  0  0  0  0  0  0  0  0  0
  -21.8869   -9.6415   21.3647 C   0  0  0  0  0  0  0  0  0  0  0  0
  -22.3180   -8.4706   21.9883 C   0  0  0  0  0  0  0  0  0  0  0  0
  -26.1926  -25.8270   20.0864 C   0  0  0  0  0  0  0  0  0  0  0  0
  -24.4819   -8.7093   20.9406 C   0  0  0  0  0  0  0  0  0  0  0  0
  -30.6229  -23.3729   17.2440 C   0  0  0  0  0  0  0  0  0  0  0  0
  -24.3888  -15.0118   20.7452 C   0  0  0  0  0  0  0  0  0  0  0  0
  -24.5557  -17.4888   21.3318 C   0  0  0  0  0  0  0  0  0  0  0  0
  -24.9432  -20.0782   26.2463 C   0  0  0  0  0  0  0  0  0  0  0  0
  -26.4278  -25.6779   22.4910 C   0  0  0  0  0  0  0  0  0  0  0  0
  -25.2146  -21.1518   25.3739 C   0  0  0  0  0  0  0  0  0  0  0  0
  -25.6303  -25.9376   21.3673 C   0  0  0  0  0  0  0  0  0  0  0  0
  -30.4173  -22.1795   17.8804 C   0  0  0  0  0  0  0  0  0  0  0  0
  -23.0012  -12.6575   20.1843 C   0  0  0  0  0  0  0  0  0  0  0  0
  -27.5327  -25.4756   19.9259 C   0  0  0  0  0  0  0  0  0  0  0  0
  -22.7533  -10.3462   20.5289 C   0  0  0  0  0  0  0  0  0  0  0  0
  -23.6155   -8.0046   21.7763 C   0  0  0  0  0  0  0  0  0  0  0  0
  -24.0508   -9.8801   20.3169 C   0  0  0  0  0  0  0  0  0  0  0  0
  -25.1059  -16.2274   21.0355 C   0  0  0  0  0  0  0  0  0  0  0  0
  -29.3789  -22.1274   18.7920 C   0  0  0  0  0  0  0  0  0  0  0  0
  -25.6456  -18.3012   21.5282 C   0  0  0  0  0  0  0  0  0  0  0  0
  -28.8642  -24.2773   18.4048 C   0  0  0  0  0  0  0  0  0  1  0  0
  -23.1822  -17.8903   21.4215 C   0  0  0  0  0  0  0  0  0  0  0  0
  -23.8946  -24.2360   23.7589 C   0  0  0  0  0  0  0  0  0  0  0  0
  -22.4678  -27.0915   23.1826 C   0  0  0  0  0  0  0  0  0  0  0  0
  -22.4073  -29.9885   21.3796 C   0  0  0  0  0  0  0  0  0  0  0  0
  -31.0246  -18.8693   19.2577 C   0  0  0  0  0  0  0  0  0  0  0  0
  -23.5358  -19.7290   26.6616 C   0  0  0  0  0  0  0  0  0  0  0  0
  -25.8584  -25.8126   23.8767 C   0  0  0  0  0  0  0  0  0  0  0  0
  -24.1806  -26.3250   21.4961 C   0  0  0  0  0  0  0  0  0  0  0  0
  -31.1188  -20.8770   17.7867 C   0  0  0  0  0  0  0  0  0  0  0  0
  -29.2734  -20.7487   19.3745 C   0  0  0  0  0  0  0  0  0  0  0  0
  -22.4803  -20.2866   25.7123 C   0  0  0  0  0  0  0  0  0  0  0  0
  -30.4110  -17.5512   22.6258 C   0  0  0  0  0  0  0  0  0  0  0  0
  -22.7404  -21.7634   25.4554 C   0  0  0  0  0  0  0  0  0  0  0  0
  -28.9340  -17.1558   22.5659 C   0  0  0  0  0  0  0  0  0  0  0  0
  -31.0918  -17.4314   21.2639 C   0  0  0  0  0  0  0  0  0  0  0  0
  -28.9355  -17.7376   20.1134 C   0  0  0  0  0  0  0  0  0  0  0  0
  -24.0916  -21.9668   24.7584 C   0  0  1  0  0  0  0  0  0  0  0  0
  -24.3407  -25.6621   23.9163 C   0  0  1  0  0  0  0  0  0  0  0  0
  -28.1970  -17.9165   21.4466 C   0  0  1  0  0  0  0  0  0  0  0  0
  -21.0998  -32.1132   21.1087 C   0  0  0  0  0  0  0  0  0  0  0  0
  -20.3002  -25.5626   21.6747 C   0  0  0  0  0  0  0  0  0  0  0  0
  -19.5820  -27.7307   20.6492 C   0  0  0  0  0  0  0  0  0  0  0  0
  -19.4533  -27.4189   23.1208 C   0  0  0  0  0  0  0  0  0  0  0  0
  -24.7386  -31.6542   22.1209 C   0  0  0  0  0  0  0  0  0  0  0  0
  -21.7137  -27.6950   22.0224 C   0  0  1  0  0  0  0  0  0  0  0  0
  -22.2700  -31.4385   21.8074 C   0  0  2  0  0  0  0  0  0  0  0  0
  -20.2891  -27.0926   21.8639 C   0  0  0  0  0  0  0  0  0  0  0  0
  -29.8510  -24.4540   17.4906 N   0  0  0  0  0  0  0  0  0  0  0  0
  -26.4415  -16.2330   21.0418 N   0  0  0  0  0  0  0  0  0  0  0  0
  -28.5690  -23.1519   19.0892 N   0  0  0  0  0  0  0  0  0  0  0  0
  -26.7397  -17.5079   21.3444 N   0  0  0  0  0  0  0  0  0  0  0  0
  -23.6684  -26.4375   22.8718 N   0  0  0  0  0  0  0  0  0  0  0  0
  -30.4226  -20.0342   18.7765 N   0  0  0  0  0  0  0  0  0  0  0  0
  -30.3358  -18.1516   20.2405 N   0  0  0  0  0  0  0  0  0  0  0  0
  -25.7652  -19.6096   21.8384 N   0  0  0  0  0  0  0  0  0  0  0  0
  -22.1887  -16.9292   21.1904 N   0  0  0  0  0  0  0  0  0  0  0  0
  -24.3957  -23.3803   24.7213 N   0  0  0  0  0  0  0  0  0  0  0  0
  -21.7321  -29.1389   22.2302 N   0  0  0  0  0  0  0  0  0  0  0  0
  -23.5118  -32.1948   21.4807 N   0  3  0  0  0  0  0  0  0  0  0  0
  -22.8460  -19.0704   21.6824 O   0  0  0  0  0  0  0  0  0  0  0  0
  -23.1497  -23.9345   22.8338 O   0  0  0  0  0  0  0  0  0  0  0  0
  -22.0121  -27.2028   24.3235 O   0  0  0  0  0  0  0  0  0  0  0  0
  -23.0462  -29.6443   20.3877 O   0  0  0  0  0  0  0  0  0  0  0  0
  -32.1462  -18.5171   18.8706 O   0  0  0  0  0  0  0  0  0  0  0  0
  -22.3241  -11.5088   19.9111 O   0  0  0  0  0  0  0  0  0  0  0  0
  -28.0718  -25.3724   18.6620 O   0  0  0  0  0  0  0  0  0  1  0  0
  -24.0298   -6.8810   22.3765 F   0  0  0  0  0  0  0  0  0  0  0  0
  -24.8880  -10.5535   19.5160 F   0  0  0  0  0  0  0  0  0  0  0  0
  1  2  1  0  0  0  0
  1  5  2  0  0  0  0
  2  6  2  0  0  0  0
  3  8  2  0  0  0  0
  3 16  1  0  0  0  0
  4  9  1  0  0  0  0
  4 16  2  0  0  0  0
  5 18  1  0  0  0  0
  6 20  1  0  0  0  0
  7 10  2  0  0  0  0
  7 19  1  0  0  0  0
  8 23  1  0  0  0  0
  9 23  2  0  0  0  0
 10 24  1  0  0  0  0
 11 12  2  0  0  0  0
 11 25  1  0  0  0  0
 12 26  1  0  0  0  0
 13 21  1  0  0  0  0
 13 24  2  0  0  0  0
 14 26  2  0  0  0  0
 14 27  1  0  0  0  0
 15 22  1  0  0  0  0
 15 59  2  0  0  0  0
 16 28  1  0  0  0  0
 17 28  1  0  0  0  0
 17 30  2  0  0  0  0
 17 32  1  0  0  0  0
 18 20  2  0  0  0  0
 18 37  1  0  0  0  0
 19 21  2  0  0  0  0
 19 38  1  0  0  0  0
 20 48  1  0  0  0  0
 21 39  1  0  0  0  0
 22 29  2  0  0  0  0
 22 40  1  0  0  0  0
 23 76  1  0  0  0  0
 24 77  1  0  0  0  0
 25 27  2  0  0  0  0
 25 76  1  0  0  0  0
 26 78  1  0  0  0  0
 27 79  1  0  0  0  0
 28 60  2  0  0  0  0
 29 41  1  0  0  0  0
 29 61  1  0  0  0  0
 30 62  1  0  0  0  0
 30 66  1  0  0  0  0
 31 59  1  0  0  0  0
 31 61  2  0  0  0  0
 31 77  1  0  0  0  0
 32 67  1  0  0  0  0
 32 71  2  0  0  0  0
 33 49  1  0  0  0  0
 33 68  1  0  0  0  0
 33 72  2  0  0  0  0
 34 56  1  0  0  0  0
 34 63  1  0  0  0  0
 34 73  2  0  0  0  0
 35 57  1  0  0  0  0
 35 69  1  0  0  0  0
 35 74  2  0  0  0  0
 36 64  1  0  0  0  0
 36 65  1  0  0  0  0
 36 75  2  0  0  0  0
 37 42  1  0  0  0  0
 38 49  1  0  0  0  0
 39 63  1  0  0  0  0
 40 64  1  0  0  0  0
 41 64  1  0  0  0  0
 42 44  1  0  0  0  0
 43 45  1  0  0  0  0
 43 46  1  0  0  0  0
 44 48  1  0  0  0  0
 45 50  1  0  0  0  0
 46 65  1  0  0  0  0
 47 50  1  0  0  0  0
 47 65  1  0  0  0  0
 48 68  1  0  0  0  0
 49 63  1  0  0  0  0
 50 62  1  0  0  0  0
 51 57  1  0  0  0  0
 52 58  1  0  0  0  0
 53 58  1  0  0  0  0
 54 58  1  0  0  0  0
 55 70  1  0  0  0  0
 56 58  1  0  0  0  0
 56 69  1  0  0  0  0
 57 70  1  0  0  0  0
 60 62  1  0  0  0  0
M  CHG  1  70   1
M  ISO  4  31 101  36 100  64 100  77 101
M  END
> <Batch ID>
0176

> <Smiles>
CNC(C)C(=O)NC(C(=O)N1Cc2cc([101O:1][101c:1]3ncc4c(n3)C[100N:0]([100C:0](=O)N3CCCC(n5nc(-c6ccc(Oc7ccc(F)cc7F)cc6)c(C(N)=O)c5N)C3)C4)ccc2CC1C(=O)NC1CCCc2ccccc21)C(C)(C)C

> <Shape>
0.211

> <Color>
0.052

> <Negative vol penalty>
0.000

$$$$

  -OEChem-04052322503D

 90100  0     1  0  0  0  0  0999 V2000
  -17.0481  -30.7009   23.3552 C   0  0  0  0  0  0  0  0  0  0  0  0
  -18.2962  -31.0651   22.8603 C   0  0  0  0  0  0  0  0  0  0  0  0
  -24.6031  -12.0020   19.6893 C   0  0  0  0  0  0  0  0  0  0  0  0
  -25.3943  -12.1363   21.9681 C   0  0  0  0  0  0  0  0  0  0  0  0
  -16.8380  -29.4067   23.8292 C   0  0  0  0  0  0  0  0  0  0  0  0
  -19.3354  -30.1355   22.8402 C   0  0  0  0  0  0  0  0  0  0  0  0
  -25.0988  -28.2869   19.0084 C   0  0  0  0  0  0  0  0  0  0  0  0
  -24.8383  -10.6271   19.6886 C   0  0  0  0  0  0  0  0  0  0  0  0
  -25.6295  -10.7614   21.9675 C   0  0  0  0  0  0  0  0  0  0  0  0
  -26.4617  -28.0385   19.1647 C   0  0  0  0  0  0  0  0  0  0  0  0
  -26.0998   -7.2288   22.6872 C   0  0  0  0  0  0  0  0  0  0  0  0
  -25.6846   -6.4986   23.8008 C   0  0  0  0  0  0  0  0  0  0  0  0
  -25.9607  -25.8085   19.9362 C   0  0  0  0  0  0  0  0  0  0  0  0
  -23.4045   -7.1932   23.4062 C   0  0  0  0  0  0  0  0  0  0  0  0
  -24.8811  -12.7566   20.8290 C   0  0  0  0  0  0  0  0  0  0  0  0
  -23.4526  -14.8367   21.2034 C   0  0  0  0  0  0  0  0  0  0  0  0
  -17.8724  -28.4579   23.8059 C   0  0  0  0  0  0  0  0  0  0  0  0
  -24.1544  -27.3000   19.3258 C   0  0  0  0  0  0  0  0  0  0  0  0
  -19.1393  -28.8277   23.3156 C   0  0  0  0  0  0  0  0  0  0  0  0
  -24.5865  -26.0460   19.7806 C   0  0  0  0  0  0  0  0  0  0  0  0
  -25.3515  -10.0068   20.8277 C   0  0  0  0  0  0  0  0  0  0  0  0
  -26.8928  -26.8002   19.6314 C   0  0  0  0  0  0  0  0  0  0  0  0
  -25.1673   -7.9413   21.9332 C   0  0  0  0  0  0  0  0  0  0  0  0
  -24.3370   -6.4807   24.1603 C   0  0  0  0  0  0  0  0  0  0  0  0
  -23.8197   -7.9235   22.2927 C   0  0  0  0  0  0  0  0  0  0  0  0
  -24.6389  -14.1770   20.8302 C   0  0  0  0  0  0  0  0  0  0  0  0
  -31.9779  -25.4016   19.9840 C   0  0  0  0  0  0  0  0  0  0  0  0
  -33.0318  -26.2874   20.0312 C   0  0  0  0  0  0  0  0  0  0  0  0
  -31.5838  -28.0274   19.7059 C   0  0  0  0  0  0  0  0  0  0  0  0
  -30.5301  -27.1414   19.6580 C   0  0  0  0  0  0  0  0  0  0  0  0
  -23.7319  -16.1702   21.0287 C   0  0  0  0  0  0  0  0  0  0  0  0
  -31.2326  -23.1477   20.6238 C   0  0  0  0  0  0  0  0  0  0  0  0
  -31.4252  -21.6809   20.7726 C   0  0  0  0  0  0  0  0  0  0  0  0
  -32.1620  -23.9671   20.1312 C   0  0  0  0  0  0  0  0  0  0  0  0
  -22.2095  -14.2929   21.6666 C   0  0  0  0  0  0  0  0  0  0  0  0
  -21.7743  -27.0632   21.4192 C   0  0  0  0  0  0  0  0  0  0  0  0
  -21.1942  -24.2811   19.8555 C   0  0  0  0  0  0  0  0  0  0  0  0
  -22.2273  -21.2378   18.2158 C   0  0  0  0  0  0  0  0  0  0  0  0
  -28.8139  -19.1726   21.1439 C   0  0  0  0  0  0  0  0  0  0  0  0
  -17.6110  -27.0850   24.3729 C   0  0  0  0  0  0  0  0  0  0  0  0
  -22.6891  -27.5745   19.1262 C   0  0  0  0  0  0  0  0  0  0  0  0
  -23.6140  -24.9458   20.1159 C   0  0  0  0  0  0  0  0  0  0  0  0
  -29.8808  -23.4864   21.1674 C   0  0  0  0  0  0  0  0  0  0  0  0
  -18.6585  -26.0501   23.9701 C   0  0  0  0  0  0  0  0  0  0  0  0
  -26.4452  -19.1161   18.4083 C   0  0  0  0  0  0  0  0  0  0  0  0
  -20.0639  -26.6153   24.1498 C   0  0  0  0  0  0  0  0  0  0  0  0
  -29.1998  -23.4850   24.4667 C   0  0  0  0  0  0  0  0  0  0  0  0
  -29.4357  -22.0252   24.7371 C   0  0  0  0  0  0  0  0  0  0  0  0
  -25.5976  -17.8936   18.7651 C   0  0  0  0  0  0  0  0  0  0  0  0
  -27.9138  -18.8910   18.7558 C   0  0  0  0  0  0  0  0  0  0  0  0
  -27.3143  -17.2955   20.5357 C   0  0  0  0  0  0  0  0  0  0  0  0
  -20.2845  -27.8404   23.2542 C   0  0  1  0  0  0  0  0  0  0  0  0
  -30.3071  -21.1006   21.6027 C   0  0  1  0  0  0  0  0  0  0  0  0
  -21.7921  -26.6725   19.9685 C   0  0  1  0  0  0  0  0  0  0  0  0
  -29.5861  -22.3444   22.1559 C   0  0  1  0  0  0  0  0  0  0  0  0
  -30.0690  -22.6812   23.5479 C   0  0  0  0  0  0  0  0  0  0  0  0
  -25.8155  -17.4687   20.2294 C   0  0  2  0  0  0  0  0  0  0  0  0
  -34.4358  -25.8295   20.2409 C   0  0  0  0  0  0  0  0  0  0  0  0
  -31.3733  -29.4945   19.5507 C   0  0  0  0  0  0  0  0  0  0  0  0
  -20.8739  -19.4575   17.0773 C   0  0  0  0  0  0  0  0  0  0  0  0
  -21.2874  -22.8834   22.5662 C   0  0  0  0  0  0  0  0  0  0  0  0
  -21.5355  -20.7055   21.3566 C   0  0  0  0  0  0  0  0  0  0  0  0
  -19.4774  -22.0789   21.0394 C   0  0  0  0  0  0  0  0  0  0  0  0
  -23.7736  -21.5043   15.7064 C   0  0  0  0  0  0  0  0  0  0  0  0
  -29.1207  -27.6123   19.4501 C   0  0  0  0  0  0  0  0  0  1  0  0
  -21.6539  -22.8515   20.0107 C   0  0  1  0  0  0  0  0  0  0  0  0
  -21.7226  -20.7050   16.8870 C   0  0  2  0  0  0  0  0  0  0  0  0
  -21.0070  -22.1510   21.2388 C   0  0  0  0  0  0  0  0  0  0  0  0
  -25.6001  -15.0216   20.4472 N   0  0  0  0  0  0  0  0  0  0  0  0
  -30.7081  -25.8127   19.7965 N   0  0  0  0  0  0  0  0  0  0  0  0
  -32.8536  -27.6162   19.8930 N   0  0  0  0  0  0  0  0  0  0  0  0
  -25.0182  -16.2258   20.5787 N   0  0  0  0  0  0  0  0  0  0  0  0
  -22.1916  -25.2649   19.9102 N   0  0  0  0  0  0  0  0  0  0  0  0
  -28.0537  -18.5075   20.1676 N   0  0  0  0  0  0  0  0  0  0  0  0
  -23.0001  -17.2887   21.2177 N   0  0  0  0  0  0  0  0  0  0  0  0
  -22.0929  -12.9015   21.7883 N   0  0  0  0  0  0  0  0  0  0  0  0
  -20.5272  -27.4304   21.8877 N   0  0  0  0  0  0  0  0  0  0  0  0
  -21.3822  -22.1948   18.7366 N   0  0  0  0  0  0  0  0  0  0  0  0
  -29.4892  -20.3076   20.7121 N   0  0  0  0  0  0  0  0  0  0  0  0
  -22.8683  -20.3629   15.9973 N   0  3  0  0  0  0  0  0  0  0  0  0
  -32.3138  -21.0395   20.2337 O   0  0  0  0  0  0  0  0  0  0  0  0
  -21.2257  -15.0183   21.9481 O   0  0  0  0  0  0  0  0  0  0  0  0
  -22.8147  -27.0324   22.0661 O   0  0  0  0  0  0  0  0  0  0  0  0
  -19.9952  -24.5156   19.6847 O   0  0  0  0  0  0  0  0  0  0  0  0
  -23.2654  -20.8417   18.7413 O   0  0  0  0  0  0  0  0  0  0  0  0
  -28.8817  -18.7865   22.3158 O   0  0  0  0  0  0  0  0  0  0  0  0
  -25.5809   -8.6652   20.8275 O   0  0  0  0  0  0  0  0  0  0  0  0
  -28.2225  -26.5553   19.7855 O   0  0  0  0  0  0  0  0  0  1  0  0
  -23.9383   -5.7782   25.2287 F   0  0  0  0  0  0  0  0  0  0  0  0
  -22.9190   -8.6050   21.5715 F   0  0  0  0  0  0  0  0  0  0  0  0
  1  2  1  0  0  0  0
  1  5  2  0  0  0  0
  2  6  2  0  0  0  0
  3  8  2  0  0  0  0
  3 15  1  0  0  0  0
  4  9  1  0  0  0  0
  4 15  2  0  0  0  0
  5 17  1  0  0  0  0
  6 19  1  0  0  0  0
  7 10  2  0  0  0  0
  7 18  1  0  0  0  0
  8 21  1  0  0  0  0
  9 21  2  0  0  0  0
 10 22  1  0  0  0  0
 11 12  2  0  0  0  0
 11 23  1  0  0  0  0
 12 24  1  0  0  0  0
 13 20  1  0  0  0  0
 13 22  2  0  0  0  0
 14 24  2  0  0  0  0
 14 25  1  0  0  0  0
 15 26  1  0  0  0  0
 16 26  1  0  0  0  0
 16 31  2  0  0  0  0
 16 35  1  0  0  0  0
 17 19  2  0  0  0  0
 17 40  1  0  0  0  0
 18 20  2  0  0  0  0
 18 41  1  0  0  0  0
 19 52  1  0  0  0  0
 20 42  1  0  0  0  0
 21 87  1  0  0  0  0
 22 88  1  0  0  0  0
 23 25  2  0  0  0  0
 23 87  1  0  0  0  0
 24 89  1  0  0  0  0
 25 90  1  0  0  0  0
 26 69  2  0  0  0  0
 27 28  1  0  0  0  0
 27 34  1  0  0  0  0
 27 70  2  0  0  0  0
 28 58  1  0  0  0  0
 28 71  2  0  0  0  0
 29 30  2  0  0  0  0
 29 59  1  0  0  0  0
 29 71  1  0  0  0  0
 30 65  1  0  0  0  0
 30 70  1  0  0  0  0
 31 72  1  0  0  0  0
 31 75  1  0  0  0  0
 32 33  1  0  0  0  0
 32 34  2  0  0  0  0
 32 43  1  0  0  0  0
 33 53  1  0  0  0  0
 33 81  2  0  0  0  0
 35 76  1  0  0  0  0
 35 82  2  0  0  0  0
 36 54  1  0  0  0  0
 36 77  1  0  0  0  0
 36 83  2  0  0  0  0
 37 66  1  0  0  0  0
 37 73  1  0  0  0  0
 37 84  2  0  0  0  0
 38 67  1  0  0  0  0
 38 78  1  0  0  0  0
 38 85  2  0  0  0  0
 39 74  1  0  0  0  0
 39 79  1  0  0  0  0
 39 86  2  0  0  0  0
 40 44  1  0  0  0  0
 41 54  1  0  0  0  0
 42 73  1  0  0  0  0
 43 55  1  0  0  0  0
 44 46  1  0  0  0  0
 45 49  1  0  0  0  0
 45 50  1  0  0  0  0
 46 52  1  0  0  0  0
 47 48  1  0  0  0  0
 47 56  1  0  0  0  0
 48 56  1  0  0  0  0
 49 57  1  0  0  0  0
 50 74  1  0  0  0  0
 51 57  1  0  0  0  0
 51 74  1  0  0  0  0
 52 77  1  0  0  0  0
 53 55  1  0  0  0  0
 53 79  1  0  0  0  0
 54 73  1  0  0  0  0
 55 56  1  0  0  0  0
 57 72  1  0  0  0  0
 60 67  1  0  0  0  0
 61 68  1  0  0  0  0
 62 68  1  0  0  0  0
 63 68  1  0  0  0  0
 64 80  1  0  0  0  0
 65 88  1  0  0  0  0
 66 68  1  0  0  0  0
 66 78  1  0  0  0  0
 67 80  1  0  0  0  0
 69 72  1  0  0  0  0
M  CHG  1  80   1
M  ISO  4  39 100  65 101  79 100  88 101
M  END
> <Batch ID>
0176

> <Smiles>
CNC(C)C(=O)NC(C(=O)N1Cc2cc([101O:1][101CH2:1]c3nc(C=C4CC(C5CC5)C([100NH:0][100C:0](=O)N5CCCC(n6nc(-c7ccc(Oc8ccc(F)cc8F)cc7)c(C(N)=O)c6N)C5)C4=O)c(C)nc3C)ccc2CC1C(=O)NC1CCCc2ccccc21)C(C)(C)C

> <Shape>
0.223

> <Color>
0.091

> <Negative vol penalty>
0.000

$$$$

  -OEChem-04052322503D

 88 97  0     1  0  0  0  0  0999 V2000
  -29.5263  -35.7672   24.4003 C   0  0  0  0  0  0  0  0  0  0  0  0
  -29.6258  -34.4342   24.0147 C   0  0  0  0  0  0  0  0  0  0  0  0
  -23.8199   -9.7897   22.2759 C   0  0  0  0  0  0  0  0  0  0  0  0
  -23.9429   -8.9750   20.0048 C   0  0  0  0  0  0  0  0  0  0  0  0
  -28.2929  -36.2897   24.7871 C   0  0  0  0  0  0  0  0  0  0  0  0
  -28.4919  -33.6226   24.0168 C   0  0  0  0  0  0  0  0  0  0  0  0
  -27.1995  -29.0929   20.1030 C   0  0  0  0  0  0  0  0  0  0  0  0
  -22.5032   -9.3385   22.3665 C   0  0  0  0  0  0  0  0  0  0  0  0
  -22.6262   -8.5236   20.0954 C   0  0  0  0  0  0  0  0  0  0  0  0
  -27.3454  -27.7091   20.1887 C   0  0  0  0  0  0  0  0  0  0  0  0
  -19.2286   -8.0787   23.3179 C   0  0  0  0  0  0  0  0  0  0  0  0
  -18.8563   -7.3928   24.4739 C   0  0  0  0  0  0  0  0  0  0  0  0
  -25.0449  -27.5159   20.8885 C   0  0  0  0  0  0  0  0  0  0  0  0
  -20.5321   -5.7134   24.0171 C   0  0  0  0  0  0  0  0  0  0  0  0
  -24.5398   -9.6080   21.0950 C   0  0  0  0  0  0  0  0  0  0  0  0
  -27.5538  -20.8115   20.5606 C   0  0  0  0  0  0  0  0  0  0  0  0
  -27.0684   -9.3579   21.3208 C   0  0  0  0  0  0  0  0  0  0  0  0
  -27.1416  -35.4866   24.7848 C   0  0  0  0  0  0  0  0  0  0  0  0
  -25.9763  -29.7007   20.4204 C   0  0  0  0  0  0  0  0  0  0  0  0
  -27.2422  -34.1344   24.4053 C   0  0  0  0  0  0  0  0  0  0  0  0
  -24.8853  -28.9075   20.8035 C   0  0  0  0  0  0  0  0  0  0  0  0
  -27.5990  -21.5399   21.7441 C   0  0  0  0  0  0  0  0  0  0  0  0
  -27.6431  -22.9289   21.6978 C   0  0  0  0  0  0  0  0  0  0  0  0
  -21.9064   -8.7054   21.2763 C   0  0  0  0  0  0  0  0  0  0  0  0
  -26.2689  -26.9206   20.5843 C   0  0  0  0  0  0  0  0  0  0  0  0
  -20.2526   -7.5820   22.5114 C   0  0  0  0  0  0  0  0  0  0  0  0
  -19.5080   -6.2102   24.8236 C   0  0  0  0  0  0  0  0  0  0  0  0
  -20.9044   -6.3994   22.8611 C   0  0  0  0  0  0  0  0  0  0  0  0
  -25.8998  -10.0745   21.0006 C   0  0  0  0  0  0  0  0  0  0  0  0
  -27.5547  -21.5140   19.3663 C   0  0  0  0  0  0  0  0  0  0  0  0
  -27.6402  -23.5366   20.4526 C   0  0  0  0  0  0  0  0  0  0  0  0
  -28.0919  -10.2361   21.0603 C   0  0  0  0  0  0  0  0  0  0  0  0
  -27.5073  -19.3472   20.5765 C   0  0  0  0  0  0  0  0  0  0  0  0
  -27.2157   -8.0182   21.8099 C   0  0  0  0  0  0  0  0  0  0  0  0
  -25.0147  -31.7999   22.6050 C   0  0  0  0  0  0  0  0  0  0  0  0
  -22.2261  -31.6522   20.9545 C   0  0  0  0  0  0  0  0  0  0  0  0
  -20.1859  -29.8858   18.8655 C   0  0  0  0  0  0  0  0  0  0  0  0
  -27.9154  -16.2799   20.8728 C   0  0  0  0  0  0  0  0  0  0  0  0
  -25.8392  -36.0834   25.2563 C   0  0  0  0  0  0  0  0  0  0  0  0
  -25.8274  -31.1924   20.2971 C   0  0  0  0  0  0  0  0  0  0  0  0
  -23.5451  -29.5092   21.1355 C   0  0  0  0  0  0  0  0  0  0  0  0
  -24.6155  -35.2557   24.8722 C   0  0  0  0  0  0  0  0  0  0  0  0
  -29.2278  -13.9569   18.2839 C   0  0  0  0  0  0  0  0  0  0  0  0
  -24.8506  -33.7804   25.1805 C   0  0  0  0  0  0  0  0  0  0  0  0
  -28.5719  -12.6413   18.7039 C   0  0  0  0  0  0  0  0  0  0  0  0
  -29.9726  -19.3532   20.9796 C   0  0  0  0  0  0  0  0  0  0  0  0
  -28.3512  -15.1476   18.6513 C   0  0  0  0  0  0  0  0  0  0  0  0
  -27.3325  -13.9051   20.5250 C   0  0  0  0  0  0  0  0  0  0  0  0
  -30.0846  -17.2170   19.9279 C   0  0  0  0  0  0  0  0  0  0  0  0
  -26.0303  -33.2288   24.3707 C   0  0  1  0  0  0  0  0  0  0  0  0
  -28.6502  -18.6351   21.2281 C   0  0  2  0  0  0  0  0  0  0  0  0
  -24.6848  -31.7505   21.1400 C   0  0  1  0  0  0  0  0  0  0  0  0
  -28.1825  -12.6663   20.1926 C   0  0  1  0  0  0  0  0  0  0  0  0
  -30.9411  -18.2212   20.6751 C   0  0  1  0  0  0  0  0  0  0  0  0
  -27.5994  -20.8353   23.0640 C   0  0  0  0  0  0  0  0  0  0  0  0
  -27.6926  -23.7391   22.9499 C   0  0  0  0  0  0  0  0  0  0  0  0
  -27.5084  -20.7894   18.0603 C   0  0  0  0  0  0  0  0  0  0  0  0
  -17.9552  -30.0080   17.7226 C   0  0  0  0  0  0  0  0  0  0  0  0
  -20.8397  -31.0210   23.5983 C   0  0  0  0  0  0  0  0  0  0  0  0
  -18.8563  -30.2322   22.2898 C   0  0  0  0  0  0  0  0  0  0  0  0
  -19.5948  -32.6089   22.1206 C   0  0  0  0  0  0  0  0  0  0  0  0
  -21.4230  -29.7365   16.1810 C   0  0  0  0  0  0  0  0  0  0  0  0
  -27.6848  -25.0256   20.3394 C   0  0  0  0  0  0  0  0  0  1  0  0
  -20.9830  -30.7990   21.0300 C   0  0  1  0  0  0  0  0  0  0  0  0
  -19.4451  -30.2882   17.6030 C   0  0  2  0  0  0  0  0  0  0  0  0
  -20.0941  -31.1538   22.2553 C   0  0  0  0  0  0  0  0  0  0  0  0
  -26.1558  -11.3126   20.5698 N   0  0  0  0  0  0  0  0  0  0  0  0
  -27.5969  -22.8626   19.2815 N   0  0  0  0  0  0  0  0  0  0  0  0
  -27.4972  -11.3809   20.6175 N   0  0  0  0  0  0  0  0  0  0  0  0
  -23.4514  -30.9727   21.0060 N   0  0  0  0  0  0  0  0  0  0  0  0
  -27.9963  -15.1305   20.0745 N   0  0  0  0  0  0  0  0  0  0  0  0
  -28.7714  -17.3395   20.5589 N   0  0  0  0  0  0  0  0  0  0  0  0
  -29.4335  -10.1331   21.1692 N   0  0  0  0  0  0  0  0  0  0  0  0
  -26.0604   -7.2537   22.0224 N   0  0  0  0  0  0  0  0  0  0  0  0
  -25.6290  -32.9715   23.0042 N   0  0  0  0  0  0  0  0  0  0  0  0
  -20.3110  -30.9420   19.7430 N   0  0  0  0  0  0  0  0  0  0  0  0
  -19.9725  -29.5347   16.4305 N   0  3  0  0  0  0  0  0  0  0  0  0
  -26.6037  -18.6746   20.0910 O   0  0  0  0  0  0  0  0  0  0  0  0
  -28.3377   -7.5196   22.0669 O   0  0  0  0  0  0  0  0  0  0  0  0
  -24.7314  -30.8462   23.3206 O   0  0  0  0  0  0  0  0  0  0  0  0
  -22.1140  -32.8759   20.8465 O   0  0  0  0  0  0  0  0  0  0  0  0
  -20.6079  -28.7473   19.0559 O   0  0  0  0  0  0  0  0  0  0  0  0
  -27.1371  -16.3455   21.8330 O   0  0  0  0  0  0  0  0  0  0  0  0
  -20.6216   -8.2646   21.3644 O   0  0  0  0  0  0  0  0  0  0  0  0
  -26.4098  -25.5599   20.6700 O   0  0  0  0  0  0  0  0  0  1  0  0
  -19.1514   -5.5524   25.9346 F   0  0  0  0  0  0  0  0  0  0  0  0
  -21.8897   -5.9179   22.0909 F   0  0  0  0  0  0  0  0  0  0  0  0
  -31.9534  -18.6633   19.8968 F   0  0  0  0  0  0  0  0  0  0  0  0
  1  2  1  0  0  0  0
  1  5  2  0  0  0  0
  2  6  2  0  0  0  0
  3  8  2  0  0  0  0
  3 15  1  0  0  0  0
  4  9  1  0  0  0  0
  4 15  2  0  0  0  0
  5 18  1  0  0  0  0
  6 20  1  0  0  0  0
  7 10  2  0  0  0  0
  7 19  1  0  0  0  0
  8 24  1  0  0  0  0
  9 24  2  0  0  0  0
 10 25  1  0  0  0  0
 11 12  2  0  0  0  0
 11 26  1  0  0  0  0
 12 27  1  0  0  0  0
 13 21  1  0  0  0  0
 13 25  2  0  0  0  0
 14 27  2  0  0  0  0
 14 28  1  0  0  0  0
 15 29  1  0  0  0  0
 16 22  2  0  0  0  0
 16 30  1  0  0  0  0
 16 33  1  0  0  0  0
 17 29  1  0  0  0  0
 17 32  2  0  0  0  0
 17 34  1  0  0  0  0
 18 20  2  0  0  0  0
 18 39  1  0  0  0  0
 19 21  2  0  0  0  0
 19 40  1  0  0  0  0
 20 50  1  0  0  0  0
 21 41  1  0  0  0  0
 22 23  1  0  0  0  0
 22 55  1  0  0  0  0
 23 31  2  0  0  0  0
 23 56  1  0  0  0  0
 24 84  1  0  0  0  0
 25 85  1  0  0  0  0
 26 28  2  0  0  0  0
 26 84  1  0  0  0  0
 27 86  1  0  0  0  0
 28 87  1  0  0  0  0
 29 67  2  0  0  0  0
 30 57  1  0  0  0  0
 30 68  2  0  0  0  0
 31 63  1  0  0  0  0
 31 68  1  0  0  0  0
 32 69  1  0  0  0  0
 32 73  1  0  0  0  0
 33 51  1  0  0  0  0
 33 78  2  0  0  0  0
 34 74  1  0  0  0  0
 34 79  2  0  0  0  0
 35 52  1  0  0  0  0
 35 75  1  0  0  0  0
 35 80  2  0  0  0  0
 36 64  1  0  0  0  0
 36 70  1  0  0  0  0
 36 81  2  0  0  0  0
 37 65  1  0  0  0  0
 37 76  1  0  0  0  0
 37 82  2  0  0  0  0
 38 71  1  0  0  0  0
 38 72  1  0  0  0  0
 38 83  2  0  0  0  0
 39 42  1  0  0  0  0
 40 52  1  0  0  0  0
 41 70  1  0  0  0  0
 42 44  1  0  0  0  0
 43 45  1  0  0  0  0
 43 47  1  0  0  0  0
 44 50  1  0  0  0  0
 45 53  1  0  0  0  0
 46 51  1  0  0  0  0
 46 54  1  0  0  0  0
 47 71  1  0  0  0  0
 48 53  1  0  0  0  0
 48 71  1  0  0  0  0
 49 54  1  0  0  0  0
 49 72  1  0  0  0  0
 50 75  1  0  0  0  0
 51 72  1  0  0  0  0
 52 70  1  0  0  0  0
 53 69  1  0  0  0  0
 54 88  1  0  0  0  0
 58 65  1  0  0  0  0
 59 66  1  0  0  0  0
 60 66  1  0  0  0  0
 61 66  1  0  0  0  0
 62 77  1  0  0  0  0
 63 85  1  0  0  0  0
 64 66  1  0  0  0  0
 64 76  1  0  0  0  0
 65 77  1  0  0  0  0
 67 69  1  0  0  0  0
M  CHG  1  77   1
M  ISO  4  38 100  63 101  72 100  85 101
M  END
> <Batch ID>
0176

> <Smiles>
CNC(C)C(=O)NC(C(=O)N1Cc2cc([101O:1][101CH2:1]c3nc(C)c(C(=O)C4CC(F)C[100N:0]4[100C:0](=O)N4CCCC(n5nc(-c6ccc(Oc7ccc(F)cc7F)cc6)c(C(N)=O)c5N)C4)c(C)c3C)ccc2CC1C(=O)NC1CCCc2ccccc21)C(C)(C)C

> <Shape>
0.268

> <Color>
0.078

> <Negative vol penalty>
0.000

$$$$

  -OEChem-04052322503D

 81 90  0     1  0  0  0  0  0999 V2000
  -16.8647  -30.6912   23.3143 C   0  0  0  0  0  0  0  0  0  0  0  0
  -18.0767  -31.2731   23.6721 C   0  0  0  0  0  0  0  0  0  0  0  0
  -28.0858  -18.1216   20.4197 C   0  0  0  0  0  0  0  0  0  0  0  0
  -29.8635  -18.3718   22.0366 C   0  0  0  0  0  0  0  0  0  0  0  0
  -16.8196  -29.3467   22.9479 C   0  0  0  0  0  0  0  0  0  0  0  0
  -19.2441  -30.5105   23.6647 C   0  0  0  0  0  0  0  0  0  0  0  0
  -26.2779  -31.0817   22.4337 C   0  0  0  0  0  0  0  0  0  0  0  0
  -28.0541  -16.7492   20.6668 C   0  0  0  0  0  0  0  0  0  0  0  0
  -29.8317  -16.9994   22.2839 C   0  0  0  0  0  0  0  0  0  0  0  0
  -27.5032  -30.7956   23.0342 C   0  0  0  0  0  0  0  0  0  0  0  0
  -29.8431  -14.0189   19.7898 C   0  0  0  0  0  0  0  0  0  0  0  0
  -29.7779  -13.1643   18.6894 C   0  0  0  0  0  0  0  0  0  0  0  0
  -27.3174  -28.5030   22.3072 C   0  0  0  0  0  0  0  0  0  0  0  0
  -27.6875  -12.2707   19.5071 C   0  0  0  0  0  0  0  0  0  0  0  0
  -31.8854  -27.9938   21.8286 C   0  0  0  0  0  0  0  0  0  0  0  0
  -33.0836  -29.8463   20.2981 C   0  0  0  0  0  0  0  0  0  0  0  0
  -28.9905  -18.9329   21.1045 C   0  0  0  0  0  0  0  0  0  0  0  0
  -28.2844  -21.3508   21.5081 C   0  0  0  0  0  0  0  0  0  0  0  0
  -17.9885  -28.5698   22.9267 C   0  0  0  0  0  0  0  0  0  0  0  0
  -25.5568  -30.0763   21.7736 C   0  0  0  0  0  0  0  0  0  0  0  0
  -19.2143  -29.1540   23.2989 C   0  0  0  0  0  0  0  0  0  0  0  0
  -26.0845  -28.7795   21.6969 C   0  0  0  0  0  0  0  0  0  0  0  0
  -28.9270  -16.1881   21.5989 C   0  0  0  0  0  0  0  0  0  0  0  0
  -28.0217  -29.5054   22.9735 C   0  0  0  0  0  0  0  0  0  0  0  0
  -28.8305  -13.9994   20.7490 C   0  0  0  0  0  0  0  0  0  0  0  0
  -28.7001  -12.2902   18.5480 C   0  0  0  0  0  0  0  0  0  0  0  0
  -27.7527  -13.1253   20.6076 C   0  0  0  0  0  0  0  0  0  0  0  0
  -29.0242  -20.3506   20.8493 C   0  0  0  0  0  0  0  0  0  0  0  0
  -32.0581  -29.2963   22.2507 C   0  0  0  0  0  0  0  0  0  0  0  0
  -32.3686  -27.7056   20.5685 C   0  0  0  0  0  0  0  0  0  0  0  0
  -28.6724  -22.5205   20.9017 C   0  0  0  0  0  0  0  0  0  0  0  0
  -27.3316  -21.2331   22.5730 C   0  0  0  0  0  0  0  0  0  0  0  0
  -22.7093  -28.7234   22.1797 C   0  0  0  0  0  0  0  0  0  0  0  0
  -23.4493  -27.2410   19.3909 C   0  0  0  0  0  0  0  0  0  0  0  0
  -25.8649  -26.1722   17.2301 C   0  0  0  0  0  0  0  0  0  0  0  0
  -32.6235  -25.8712   18.8609 C   0  0  0  0  0  0  0  0  0  0  0  0
  -17.8825  -27.1084   22.5691 C   0  0  0  0  0  0  0  0  0  0  0  0
  -24.2493  -30.4073   21.1079 C   0  0  0  0  0  0  0  0  0  0  0  0
  -25.3593  -27.6692   20.9828 C   0  0  0  0  0  0  0  0  0  0  0  0
  -19.2243  -26.4663   22.2261 C   0  0  0  0  0  0  0  0  0  0  0  0
  -31.3984  -23.3114   16.7106 C   0  0  0  0  0  0  0  0  0  0  0  0
  -20.2791  -26.8496   23.2592 C   0  0  0  0  0  0  0  0  0  0  0  0
  -30.6106  -22.3952   17.6498 C   0  0  0  0  0  0  0  0  0  0  0  0
  -32.5788  -30.2176   24.6007 C   0  0  0  0  0  0  0  0  0  0  0  0
  -32.0016  -28.8495   24.7882 C   0  0  0  0  0  0  0  0  0  0  0  0
  -32.6494  -23.8731   17.3837 C   0  0  0  0  0  0  0  0  0  0  0  0
  -31.6281  -23.6214   19.6115 C   0  0  0  0  0  0  0  0  0  0  0  0
  -20.5061  -28.3660   23.2794 C   0  0  1  0  0  0  0  0  0  0  0  0
  -23.3562  -29.1872   20.9053 C   0  0  1  0  0  0  0  0  0  0  0  0
  -30.3247  -23.0829   18.9992 C   0  0  2  0  0  0  0  0  0  0  0  0
  -31.5657  -29.6893   23.6010 C   0  0  0  0  0  0  0  0  0  0  0  0
  -26.1645  -24.9588   15.0541 C   0  0  0  0  0  0  0  0  0  0  0  0
  -22.8767  -24.5917   20.7922 C   0  0  0  0  0  0  0  0  0  0  0  0
  -24.0802  -23.4272   18.9311 C   0  0  0  0  0  0  0  0  0  0  0  0
  -22.0147  -24.7403   18.4492 C   0  0  0  0  0  0  0  0  0  0  0  0
  -27.1588  -28.5157   15.9681 C   0  0  0  0  0  0  0  0  0  0  0  0
  -30.1727  -30.2810   23.6276 C   0  0  0  0  0  0  0  0  0  1  0  0
  -24.1553  -25.9606   19.0153 C   0  0  1  0  0  0  0  0  0  0  0  0
  -26.0045  -26.3140   15.7252 C   0  0  2  0  0  0  0  0  0  0  0  0
  -23.2947  -24.7002   19.3122 C   0  0  0  0  0  0  0  0  0  0  0  0
  -32.6551  -30.2519   21.5086 N   0  0  0  0  0  0  0  0  0  0  0  0
  -32.9752  -28.6110   19.7731 N   0  0  0  0  0  0  0  0  0  0  0  0
  -29.8217  -20.8419   19.8972 N   0  0  0  0  0  0  0  0  0  0  0  0
  -29.5853  -22.1637   19.9533 N   0  0  0  0  0  0  0  0  0  0  0  0
  -24.0815  -28.0412   20.3531 N   0  0  0  0  0  0  0  0  0  0  0  0
  -32.3009  -24.5133   18.6540 N   0  0  0  0  0  0  0  0  0  0  0  0
  -28.3184  -23.8092   21.0926 N   0  0  0  0  0  0  0  0  0  0  0  0
  -27.0497  -19.9569   23.0793 N   0  0  0  0  0  0  0  0  0  0  0  0
  -32.2139  -26.3799   20.0930 N   0  0  0  0  0  0  0  0  0  0  0  0
  -21.3283  -28.7689   22.1586 N   0  0  0  0  0  0  0  0  0  0  0  0
  -24.5430  -26.1035   17.6162 N   0  0  0  0  0  0  0  0  0  0  0  0
  -27.1944  -27.1470   15.3916 N   0  3  0  0  0  0  0  0  0  0  0  0
  -26.7354  -22.2283   23.0501 O   0  0  0  0  0  0  0  0  0  0  0  0
  -23.4110  -28.3504   23.1125 O   0  0  0  0  0  0  0  0  0  0  0  0
  -22.3798  -27.5243   18.8453 O   0  0  0  0  0  0  0  0  0  0  0  0
  -26.8319  -26.1232   17.9871 O   0  0  0  0  0  0  0  0  0  0  0  0
  -33.1950  -26.5413   17.9970 O   0  0  0  0  0  0  0  0  0  0  0  0
  -28.8962  -14.8490   21.8405 O   0  0  0  0  0  0  0  0  0  0  0  0
  -29.2171  -29.2233   23.5594 O   0  0  0  0  0  0  0  0  0  1  0  0
  -28.6369  -11.4707   17.4904 F   0  0  0  0  0  0  0  0  0  0  0  0
  -26.7762  -13.1029   21.5252 F   0  0  0  0  0  0  0  0  0  0  0  0
  1  2  1  0  0  0  0
  1  5  2  0  0  0  0
  2  6  2  0  0  0  0
  3  8  2  0  0  0  0
  3 17  1  0  0  0  0
  4  9  1  0  0  0  0
  4 17  2  0  0  0  0
  5 19  1  0  0  0  0
  6 21  1  0  0  0  0
  7 10  2  0  0  0  0
  7 20  1  0  0  0  0
  8 23  1  0  0  0  0
  9 23  2  0  0  0  0
 10 24  1  0  0  0  0
 11 12  2  0  0  0  0
 11 25  1  0  0  0  0
 12 26  1  0  0  0  0
 13 22  1  0  0  0  0
 13 24  2  0  0  0  0
 14 26  2  0  0  0  0
 14 27  1  0  0  0  0
 15 29  1  0  0  0  0
 15 30  2  0  0  0  0
 16 61  1  0  0  0  0
 16 62  2  0  0  0  0
 17 28  1  0  0  0  0
 18 28  1  0  0  0  0
 18 31  2  0  0  0  0
 18 32  1  0  0  0  0
 19 21  2  0  0  0  0
 19 37  1  0  0  0  0
 20 22  2  0  0  0  0
 20 38  1  0  0  0  0
 21 48  1  0  0  0  0
 22 39  1  0  0  0  0
 23 78  1  0  0  0  0
 24 79  1  0  0  0  0
 25 27  2  0  0  0  0
 25 78  1  0  0  0  0
 26 80  1  0  0  0  0
 27 81  1  0  0  0  0
 28 63  2  0  0  0  0
 29 51  1  0  0  0  0
 29 61  2  0  0  0  0
 30 62  1  0  0  0  0
 30 69  1  0  0  0  0
 31 64  1  0  0  0  0
 31 67  1  0  0  0  0
 32 68  1  0  0  0  0
 32 73  2  0  0  0  0
 33 49  1  0  0  0  0
 33 70  1  0  0  0  0
 33 74  2  0  0  0  0
 34 58  1  0  0  0  0
 34 65  1  0  0  0  0
 34 75  2  0  0  0  0
 35 59  1  0  0  0  0
 35 71  1  0  0  0  0
 35 76  2  0  0  0  0
 36 66  1  0  0  0  0
 36 69  1  0  0  0  0
 36 77  2  0  0  0  0
 37 40  1  0  0  0  0
 38 49  1  0  0  0  0
 39 65  1  0  0  0  0
 40 42  1  0  0  0  0
 41 43  1  0  0  0  0
 41 46  1  0  0  0  0
 42 48  1  0  0  0  0
 43 50  1  0  0  0  0
 44 45  1  0  0  0  0
 44 51  1  0  0  0  0
 45 51  1  0  0  0  0
 46 66  1  0  0  0  0
 47 50  1  0  0  0  0
 47 66  1  0  0  0  0
 48 70  1  0  0  0  0
 49 65  1  0  0  0  0
 50 64  1  0  0  0  0
 51 57  1  0  0  0  0
 52 59  1  0  0  0  0
 53 60  1  0  0  0  0
 54 60  1  0  0  0  0
 55 60  1  0  0  0  0
 56 72  1  0  0  0  0
 57 79  1  0  0  0  0
 58 60  1  0  0  0  0
 58 71  1  0  0  0  0
 59 72  1  0  0  0  0
 63 64  1  0  0  0  0
M  CHG  1  72   1
M  ISO  4  36 100  57 101  69 100  79 101
M  END
> <Batch ID>
0176

> <Smiles>
CNC(C)C(=O)NC(C(=O)N1Cc2cc([101O:1][101CH2:1]C3(c4cc([100NH:0][100C:0](=O)N5CCCC(n6nc(-c7ccc(Oc8ccc(F)cc8F)cc7)c(C(N)=O)c6N)C5)ncn4)CC3)ccc2CC1C(=O)NC1CCCc2ccccc21)C(C)(C)C

> <Shape>
0.273

> <Color>
0.095

> <Negative vol penalty>
0.000

$$$$

  -OEChem-04052322503D

 88 99  0     1  0  0  0  0  0999 V2000
  -28.5101  -37.3153   22.4695 C   0  0  0  0  0  0  0  0  0  0  0  0
  -28.9089  -36.0803   21.9684 C   0  0  0  0  0  0  0  0  0  0  0  0
  -26.8774  -10.7264   23.1923 C   0  0  0  0  0  0  0  0  0  0  0  0
  -25.6959   -9.3485   21.5977 C   0  0  0  0  0  0  0  0  0  0  0  0
  -27.5220  -37.3820   23.4509 C   0  0  0  0  0  0  0  0  0  0  0  0
  -28.3205  -34.9111   22.4491 C   0  0  0  0  0  0  0  0  0  0  0  0
  -27.1361  -29.8106   19.2730 C   0  0  0  0  0  0  0  0  0  0  0  0
  -26.5820   -9.8109   24.2023 C   0  0  0  0  0  0  0  0  0  0  0  0
  -25.4005   -8.4330   22.6077 C   0  0  0  0  0  0  0  0  0  0  0  0
  -27.8171  -28.5998   19.1547 C   0  0  0  0  0  0  0  0  0  0  0  0
  -23.1949   -8.1598   25.1555 C   0  0  0  0  0  0  0  0  0  0  0  0
  -21.8911   -7.6690   25.2242 C   0  0  0  0  0  0  0  0  0  0  0  0
  -26.4062  -27.6461   20.8632 C   0  0  0  0  0  0  0  0  0  0  0  0
  -22.7202   -5.4219   24.9072 C   0  0  0  0  0  0  0  0  0  0  0  0
  -26.4343  -10.4953   21.8900 C   0  0  0  0  0  0  0  0  0  0  0  0
  -27.8680  -11.4450   20.0057 C   0  0  0  0  0  0  0  0  0  0  0  0
  -26.9143  -36.2136   23.9370 C   0  0  0  0  0  0  0  0  0  0  0  0
  -26.0903  -29.9517   20.1966 C   0  0  0  0  0  0  0  0  0  0  0  0
  -27.3242  -34.9621   23.4389 C   0  0  0  0  0  0  0  0  0  0  0  0
  -25.7117  -28.8589   20.9895 C   0  0  0  0  0  0  0  0  0  0  0  0
  -25.8436   -8.6642   23.9100 C   0  0  0  0  0  0  0  0  0  0  0  0
  -27.4542  -27.5182   19.9519 C   0  0  0  0  0  0  0  0  0  0  0  0
  -24.2614   -7.2817   24.9625 C   0  0  0  0  0  0  0  0  0  0  0  0
  -21.6537   -6.3000   25.1001 C   0  0  0  0  0  0  0  0  0  0  0  0
  -24.0241   -5.9128   24.8384 C   0  0  0  0  0  0  0  0  0  0  0  0
  -26.7387  -11.4409   20.8463 C   0  0  0  0  0  0  0  0  0  0  0  0
  -29.8940  -23.9636   20.6885 C   0  0  0  0  0  0  0  0  0  0  0  0
  -28.5371  -24.0845   20.5018 C   0  0  0  0  0  0  0  0  0  0  0  0
  -27.6875  -12.5380   19.1937 C   0  0  0  0  0  0  0  0  0  0  0  0
  -29.0004  -22.0646   20.0164 C   0  0  0  0  0  0  0  0  0  0  0  0
  -28.9805  -10.5416   19.9627 C   0  0  0  0  0  0  0  0  0  0  0  0
  -25.5825  -31.7773   22.7486 C   0  0  0  0  0  0  0  0  0  0  0  0
  -22.6400  -30.4155   22.6538 C   0  0  0  0  0  0  0  0  0  0  0  0
  -20.6926  -27.7906   21.6714 C   0  0  0  0  0  0  0  0  0  0  0  0
  -26.2755  -17.7574   18.3089 C   0  0  0  0  0  0  0  0  0  0  0  0
  -25.8841  -36.3328   25.0320 C   0  0  0  0  0  0  0  0  0  0  0  0
  -25.3480  -31.2563   20.2931 C   0  0  0  0  0  0  0  0  0  0  0  0
  -24.5827  -28.9526   21.9819 C   0  0  0  0  0  0  0  0  0  0  0  0
  -25.0452  -35.0713   25.2190 C   0  0  0  0  0  0  0  0  0  0  0  0
  -23.6599  -15.5054   18.4975 C   0  0  0  0  0  0  0  0  0  0  0  0
  -25.9384  -33.8349   25.2429 C   0  0  0  0  0  0  0  0  0  0  0  0
  -31.7350  -24.7839   22.3646 C   0  0  0  0  0  0  0  0  0  0  0  0
  -30.6081  -25.7649   22.4547 C   0  0  0  0  0  0  0  0  0  0  0  0
  -24.3099  -14.2395   19.0553 C   0  0  0  0  0  0  0  0  0  0  0  0
  -32.6500  -22.6390   19.6596 C   0  0  0  0  0  0  0  0  0  0  0  0
  -32.0536  -21.3444   19.2032 C   0  0  0  0  0  0  0  0  0  0  0  0
  -28.0561  -19.7768   20.5604 C   0  0  0  0  0  0  0  0  0  0  0  0
  -28.4435  -20.4440   18.1491 C   0  0  0  0  0  0  0  0  0  0  0  0
  -24.1965  -16.7484   19.1979 C   0  0  0  0  0  0  0  0  0  0  0  0
  -27.9609  -18.3140   20.1173 C   0  0  0  0  0  0  0  0  0  0  0  0
  -28.3657  -18.9686   17.7677 C   0  0  0  0  0  0  0  0  0  0  0  0
  -26.3473  -15.6272   19.6828 C   0  0  0  0  0  0  0  0  0  0  0  0
  -26.6920  -33.6731   23.9173 C   0  0  1  0  0  0  0  0  0  0  0  0
  -30.8694  -25.0432   21.1461 C   0  0  0  0  0  0  0  0  0  0  0  0
  -28.9278  -20.6072   19.6012 C   0  0  0  0  0  0  0  0  0  0  0  0
  -24.6370  -31.4417   21.6301 C   0  0  1  0  0  0  0  0  0  0  0  0
  -31.4832  -22.0453   20.4138 C   0  0  0  0  0  0  0  0  0  0  0  0
  -25.8449  -14.3371   19.0034 C   0  0  1  0  0  0  0  0  0  0  0  0
  -18.3328  -26.9429   21.7711 C   0  0  0  0  0  0  0  0  0  0  0  0
  -23.0513  -29.6203   25.5707 C   0  0  0  0  0  0  0  0  0  0  0  0
  -21.1530  -28.0064   25.3259 C   0  0  0  0  0  0  0  0  0  0  0  0
  -20.7554  -30.4512   25.0298 C   0  0  0  0  0  0  0  0  0  0  0  0
  -20.4394  -27.8066   18.7228 C   0  0  0  0  0  0  0  0  0  0  0  0
  -27.6862  -25.2703   20.6928 C   0  0  0  0  0  0  0  0  0  1  0  0
  -22.0161  -29.1757   23.2477 C   0  0  1  0  0  0  0  0  0  0  0  0
  -19.3480  -27.7416   20.9685 C   0  0  2  0  0  0  0  0  0  0  0  0
  -21.7665  -29.3119   24.7763 C   0  0  0  0  0  0  0  0  0  0  0  0
  -25.9028  -12.4512   20.5919 N   0  0  0  0  0  0  0  0  0  0  0  0
  -27.9867  -22.8988   20.0837 N   0  0  0  0  0  0  0  0  0  0  0  0
  -30.1760  -22.6641   20.3740 N   0  0  0  0  0  0  0  0  0  0  0  0
  -26.5074  -13.1004   19.5824 N   0  0  0  0  0  0  0  0  0  0  0  0
  -23.8917  -30.2512   22.0438 N   0  0  0  0  0  0  0  0  0  0  0  0
  -25.6567  -16.8027   19.1299 N   0  0  0  0  0  0  0  0  0  0  0  0
  -27.5354  -18.2234   18.7136 N   0  0  0  0  0  0  0  0  0  0  0  0
  -28.4250  -13.0633   18.1924 N   0  0  0  0  0  0  0  0  0  0  0  0
  -29.0079   -9.4719   20.8679 N   0  0  0  0  0  0  0  0  0  0  0  0
  -25.8161  -33.1307   22.9009 N   0  0  0  0  0  0  0  0  0  0  0  0
  -20.8125  -28.9104   22.4671 N   0  0  0  0  0  0  0  0  0  0  0  0
  -19.4880  -27.1097   19.6261 N   0  3  0  0  0  0  0  0  0  0  0  0
  -29.9304  -10.6884   19.1568 O   0  0  0  0  0  0  0  0  0  0  0  0
  -26.0633  -30.8752   23.4245 O   0  0  0  0  0  0  0  0  0  0  0  0
  -22.0357  -31.4887   22.7221 O   0  0  0  0  0  0  0  0  0  0  0  0
  -21.5494  -26.9206   21.5318 O   0  0  0  0  0  0  0  0  0  0  0  0
  -25.7352  -18.1691   17.2746 O   0  0  0  0  0  0  0  0  0  0  0  0
  -25.5553   -7.7705   24.8953 O   0  0  0  0  0  0  0  0  0  0  0  0
  -28.1208  -26.3299   19.8384 O   0  0  0  0  0  0  0  0  0  1  0  0
  -20.4018   -5.8287   25.1677 F   0  0  0  0  0  0  0  0  0  0  0  0
  -25.0447   -5.0642   24.6541 F   0  0  0  0  0  0  0  0  0  0  0  0
  1  2  1  0  0  0  0
  1  5  2  0  0  0  0
  2  6  2  0  0  0  0
  3  8  2  0  0  0  0
  3 15  1  0  0  0  0
  4  9  1  0  0  0  0
  4 15  2  0  0  0  0
  5 17  1  0  0  0  0
  6 19  1  0  0  0  0
  7 10  2  0  0  0  0
  7 18  1  0  0  0  0
  8 21  1  0  0  0  0
  9 21  2  0  0  0  0
 10 22  1  0  0  0  0
 11 12  2  0  0  0  0
 11 23  1  0  0  0  0
 12 24  1  0  0  0  0
 13 20  1  0  0  0  0
 13 22  2  0  0  0  0
 14 24  2  0  0  0  0
 14 25  1  0  0  0  0
 15 26  1  0  0  0  0
 16 26  1  0  0  0  0
 16 29  2  0  0  0  0
 16 31  1  0  0  0  0
 17 19  2  0  0  0  0
 17 36  1  0  0  0  0
 18 20  2  0  0  0  0
 18 37  1  0  0  0  0
 19 53  1  0  0  0  0
 20 38  1  0  0  0  0
 21 85  1  0  0  0  0
 22 86  1  0  0  0  0
 23 25  2  0  0  0  0
 23 85  1  0  0  0  0
 24 87  1  0  0  0  0
 25 88  1  0  0  0  0
 26 68  2  0  0  0  0
 27 28  2  0  0  0  0
 27 54  1  0  0  0  0
 27 70  1  0  0  0  0
 28 64  1  0  0  0  0
 28 69  1  0  0  0  0
 29 71  1  0  0  0  0
 29 75  1  0  0  0  0
 30 55  1  0  0  0  0
 30 69  2  0  0  0  0
 30 70  1  0  0  0  0
 31 76  1  0  0  0  0
 31 80  2  0  0  0  0
 32 56  1  0  0  0  0
 32 77  1  0  0  0  0
 32 81  2  0  0  0  0
 33 65  1  0  0  0  0
 33 72  1  0  0  0  0
 33 82  2  0  0  0  0
 34 66  1  0  0  0  0
 34 78  1  0  0  0  0
 34 83  2  0  0  0  0
 35 73  1  0  0  0  0
 35 74  1  0  0  0  0
 35 84  2  0  0  0  0
 36 39  1  0  0  0  0
 37 56  1  0  0  0  0
 38 72  1  0  0  0  0
 39 41  1  0  0  0  0
 40 44  1  0  0  0  0
 40 49  1  0  0  0  0
 41 53  1  0  0  0  0
 42 43  1  0  0  0  0
 42 54  1  0  0  0  0
 43 54  1  0  0  0  0
 44 58  1  0  0  0  0
 45 46  1  0  0  0  0
 45 57  1  0  0  0  0
 46 57  1  0  0  0  0
 47 50  1  0  0  0  0
 47 55  1  0  0  0  0
 48 51  1  0  0  0  0
 48 55  1  0  0  0  0
 49 73  1  0  0  0  0
 50 74  1  0  0  0  0
 51 74  1  0  0  0  0
 52 58  1  0  0  0  0
 52 73  1  0  0  0  0
 53 77  1  0  0  0  0
 56 72  1  0  0  0  0
 57 70  1  0  0  0  0
 58 71  1  0  0  0  0
 59 66  1  0  0  0  0
 60 67  1  0  0  0  0
 61 67  1  0  0  0  0
 62 67  1  0  0  0  0
 63 79  1  0  0  0  0
 64 86  1  0  0  0  0
 65 67  1  0  0  0  0
 65 78  1  0  0  0  0
 66 79  1  0  0  0  0
 68 71  1  0  0  0  0
M  CHG  1  79   1
M  ISO  4  35 100  64 101  74 100  86 101
M  END
> <Batch ID>
0176

> <Smiles>
CNC(C)C(=O)NC(C(=O)N1Cc2cc([101O:1][101CH2:1]c3nc(C4CC[100N:0]([100C:0](=O)N5CCCC(n6nc(-c7ccc(Oc8ccc(F)cc8F)cc7)c(C(N)=O)c6N)C5)CC4)n(C4CC4)c3C3CC3)ccc2CC1C(=O)NC1CCCc2ccccc21)C(C)(C)C

> <Shape>
0.295

> <Color>
0.066

> <Negative vol penalty>
0.000

$$$$

  -OEChem-04052322503D

 85 94  0     1  0  0  0  0  0999 V2000
  -32.5610  -32.1196   16.4575 C   0  0  0  0  0  0  0  0  0  0  0  0
  -31.9459  -30.9028   16.1811 C   0  0  0  0  0  0  0  0  0  0  0  0
  -26.5743  -11.1099   21.0040 C   0  0  0  0  0  0  0  0  0  0  0  0
  -25.7438  -13.0624   19.8485 C   0  0  0  0  0  0  0  0  0  0  0  0
  -32.5759  -32.6114   17.7620 C   0  0  0  0  0  0  0  0  0  0  0  0
  -31.3464  -30.1764   17.2094 C   0  0  0  0  0  0  0  0  0  0  0  0
  -25.8470  -25.7572   18.4521 C   0  0  0  0  0  0  0  0  0  0  0  0
  -25.2745  -10.7877   21.3940 C   0  0  0  0  0  0  0  0  0  0  0  0
  -24.4439  -12.7402   20.2385 C   0  0  0  0  0  0  0  0  0  0  0  0
  -25.5730  -24.5090   19.0095 C   0  0  0  0  0  0  0  0  0  0  0  0
  -22.5402   -9.3596   20.0094 C   0  0  0  0  0  0  0  0  0  0  0  0
  -22.1347   -8.0314   19.8792 C   0  0  0  0  0  0  0  0  0  0  0  0
  -25.5912  -25.4949   21.2111 C   0  0  0  0  0  0  0  0  0  0  0  0
  -21.7260   -7.9230   22.2579 C   0  0  0  0  0  0  0  0  0  0  0  0
  -27.1460  -20.2865   21.5615 C   0  0  0  0  0  0  0  0  0  0  0  0
  -26.8091  -12.2473   20.2313 C   0  0  0  0  0  0  0  0  0  0  0  0
  -28.8147  -12.1697   18.6569 C   0  0  0  0  0  0  0  0  0  0  0  0
  -31.9679  -31.8954   18.8052 C   0  0  0  0  0  0  0  0  0  0  0  0
  -26.0063  -26.8835   19.2722 C   0  0  0  0  0  0  0  0  0  0  0  0
  -31.3544  -30.6584   18.5293 C   0  0  0  0  0  0  0  0  0  0  0  0
  -25.8647  -26.7567   20.6614 C   0  0  0  0  0  0  0  0  0  0  0  0
  -28.3557  -20.8256   21.9493 C   0  0  0  0  0  0  0  0  0  0  0  0
  -24.2092  -11.6028   21.0112 C   0  0  0  0  0  0  0  0  0  0  0  0
  -25.4479  -24.3772   20.3894 C   0  0  0  0  0  0  0  0  0  0  0  0
  -22.5386   -9.9696   21.2638 C   0  0  0  0  0  0  0  0  0  0  0  0
  -21.7277   -7.3131   21.0035 C   0  0  0  0  0  0  0  0  0  0  0  0
  -22.1315   -9.2513   22.3881 C   0  0  0  0  0  0  0  0  0  0  0  0
  -28.1517  -12.5809   19.8287 C   0  0  0  0  0  0  0  0  0  0  0  0
  -28.4151  -22.2041   21.9722 C   0  0  0  0  0  0  0  0  0  0  0  0
  -30.0565  -12.7502   18.7434 C   0  0  0  0  0  0  0  0  0  0  0  0
  -26.2547  -22.3589   21.2827 C   0  0  0  0  0  0  0  0  0  1  0  0
  -28.3497  -11.3376   17.5859 C   0  0  0  0  0  0  0  0  0  0  0  0
  -28.3807  -28.9138   19.8584 C   0  0  0  0  0  0  0  0  0  0  0  0
  -26.1126  -30.4594   21.5872 C   0  0  0  0  0  0  0  0  0  0  0  0
  -23.1693  -30.2970   23.3071 C   0  0  0  0  0  0  0  0  0  0  0  0
  -31.9748  -17.6256   21.7950 C   0  0  0  0  0  0  0  0  0  0  0  0
  -32.0508  -32.4446   20.2074 C   0  0  0  0  0  0  0  0  0  0  0  0
  -26.2751  -28.2279   18.6534 C   0  0  0  0  0  0  0  0  0  0  0  0
  -26.0064  -27.9387   21.5841 C   0  0  0  0  0  0  0  0  0  0  0  0
  -31.0663  -31.7938   21.1756 C   0  0  0  0  0  0  0  0  0  0  0  0
  -33.2800  -14.2763   21.9022 C   0  0  0  0  0  0  0  0  0  0  0  0
  -31.0943  -30.2761   21.0257 C   0  0  0  0  0  0  0  0  0  0  0  0
  -32.1576  -13.4156   21.3318 C   0  0  0  0  0  0  0  0  0  0  0  0
  -32.7174  -15.4504   22.6922 C   0  0  0  0  0  0  0  0  0  0  0  0
  -29.4830  -18.3751   22.0938 C   0  0  0  0  0  0  0  0  0  0  0  0
  -30.8222  -19.8716   21.4151 C   0  0  0  0  0  0  0  0  0  0  0  0
  -30.6775  -15.4864   21.2810 C   0  0  0  0  0  0  0  0  0  0  0  0
  -29.5827  -19.9003   22.3387 C   0  0  0  0  0  0  0  0  0  0  0  0
  -30.6716  -29.8532   19.6136 C   0  0  1  0  0  0  0  0  0  0  0  0
  -26.9272  -29.2111   19.6206 C   0  0  1  0  0  0  0  0  0  0  0  0
  -31.2000  -14.2709   20.4898 C   0  0  2  0  0  0  0  0  0  0  0  0
  -21.5870  -31.7153   24.6420 C   0  0  0  0  0  0  0  0  0  0  0  0
  -28.0367  -30.3745   23.9537 C   0  0  0  0  0  0  0  0  0  0  0  0
  -26.1062  -30.9151   25.4533 C   0  0  0  0  0  0  0  0  0  0  0  0
  -26.8039  -32.5342   23.6885 C   0  0  0  0  0  0  0  0  0  0  0  0
  -30.9243  -26.4982   22.7590 C   0  0  0  0  0  0  0  0  0  0  0  0
  -20.9502  -29.8112   21.4101 C   0  0  0  0  0  0  0  0  0  0  0  0
  -29.5868  -24.4255   22.3667 C   0  0  0  0  0  0  0  0  0  0  0  0
  -29.6746  -22.8954   22.3777 C   0  0  1  0  0  0  0  0  0  0  0  0
  -25.6310  -30.3976   23.0166 C   0  0  1  0  0  0  0  0  0  0  0  0
  -21.9280  -31.1698   23.2640 C   0  0  2  0  0  0  0  0  0  0  0  0
  -26.6437  -31.0325   24.0111 C   0  0  0  0  0  0  0  0  0  0  0  0
  -26.0706  -21.0263   21.2202 N   0  0  0  0  0  0  0  0  0  0  0  0
  -28.9096  -13.3621   20.6029 N   0  0  0  0  0  0  0  0  0  0  0  0
  -27.3799  -23.0046   21.6438 N   0  0  0  0  0  0  0  0  0  0  0  0
  -30.0617  -13.4463   19.9162 N   0  0  0  0  0  0  0  0  0  0  0  0
  -26.2753  -29.2308   20.9317 N   0  0  0  0  0  0  0  0  0  0  0  0
  -31.7722  -16.2451   21.9019 N   0  0  0  0  0  0  0  0  0  0  0  0
  -30.8720  -18.4374   21.6716 N   0  0  0  0  0  0  0  0  0  0  0  0
  -31.1337  -12.7278   17.9299 N   0  0  0  0  0  0  0  0  0  0  0  0
  -27.0475  -10.8241   17.6559 N   0  0  0  0  0  0  0  0  0  0  0  0
  -29.2334  -29.9303   19.4722 N   0  0  0  0  0  0  0  0  0  0  0  0
  -24.3110  -31.0188   23.0299 N   0  0  0  0  0  0  0  0  0  0  0  0
  -30.8813  -25.0116   22.7983 N   0  3  0  0  0  0  0  0  0  0  0  0
  -20.7615  -30.3871   22.7664 N   0  3  0  0  0  0  0  0  0  0  0  0
  -29.0734  -11.0442   16.6042 O   0  0  0  0  0  0  0  0  0  0  0  0
  -28.7045  -27.8421   20.3568 O   0  0  0  0  0  0  0  0  0  0  0  0
  -26.3292  -31.5577   21.0690 O   0  0  0  0  0  0  0  0  0  0  0  0
  -23.1305  -29.0959   23.5647 O   0  0  0  0  0  0  0  0  0  0  0  0
  -33.1070  -18.1249   21.8384 O   0  0  0  0  0  0  0  0  0  0  0  0
  -22.9406  -11.2886   21.3913 O   0  0  0  0  0  0  0  0  0  0  0  0
  -25.1778  -23.1444   20.9430 O   0  0  0  0  0  0  0  0  0  1  0  0
  -21.3369   -6.0380   20.8781 F   0  0  0  0  0  0  0  0  0  0  0  0
  -22.1267   -9.8323   23.5957 F   0  0  0  0  0  0  0  0  0  0  0  0
  -30.1320  -22.5258   23.6194 F   0  0  0  0  0  0  0  0  0  0  0  0
  1  2  1  0  0  0  0
  1  5  2  0  0  0  0
  2  6  2  0  0  0  0
  3  8  2  0  0  0  0
  3 16  1  0  0  0  0
  4  9  1  0  0  0  0
  4 16  2  0  0  0  0
  5 18  1  0  0  0  0
  6 20  1  0  0  0  0
  7 10  2  0  0  0  0
  7 19  1  0  0  0  0
  8 23  1  0  0  0  0
  9 23  2  0  0  0  0
 10 24  1  0  0  0  0
 11 12  2  0  0  0  0
 11 25  1  0  0  0  0
 12 26  1  0  0  0  0
 13 21  1  0  0  0  0
 13 24  2  0  0  0  0
 14 26  2  0  0  0  0
 14 27  1  0  0  0  0
 15 22  1  0  0  0  0
 15 63  2  0  0  0  0
 16 28  1  0  0  0  0
 17 28  1  0  0  0  0
 17 30  2  0  0  0  0
 17 32  1  0  0  0  0
 18 20  2  0  0  0  0
 18 37  1  0  0  0  0
 19 21  2  0  0  0  0
 19 38  1  0  0  0  0
 20 49  1  0  0  0  0
 21 39  1  0  0  0  0
 22 29  2  0  0  0  0
 22 48  1  0  0  0  0
 23 81  1  0  0  0  0
 24 82  1  0  0  0  0
 25 27  2  0  0  0  0
 25 81  1  0  0  0  0
 26 83  1  0  0  0  0
 27 84  1  0  0  0  0
 28 64  2  0  0  0  0
 29 59  1  0  0  0  0
 29 65  1  0  0  0  0
 30 66  1  0  0  0  0
 30 70  1  0  0  0  0
 31 63  1  0  0  0  0
 31 65  2  0  0  0  0
 31 82  1  0  0  0  0
 32 71  1  0  0  0  0
 32 76  2  0  0  0  0
 33 50  1  0  0  0  0
 33 72  1  0  0  0  0
 33 77  2  0  0  0  0
 34 60  1  0  0  0  0
 34 67  1  0  0  0  0
 34 78  2  0  0  0  0
 35 61  1  0  0  0  0
 35 73  1  0  0  0  0
 35 79  2  0  0  0  0
 36 68  1  0  0  0  0
 36 69  1  0  0  0  0
 36 80  2  0  0  0  0
 37 40  1  0  0  0  0
 38 50  1  0  0  0  0
 39 67  1  0  0  0  0
 40 42  1  0  0  0  0
 41 43  1  0  0  0  0
 41 44  1  0  0  0  0
 42 49  1  0  0  0  0
 43 51  1  0  0  0  0
 44 68  1  0  0  0  0
 45 48  1  0  0  0  0
 45 69  1  0  0  0  0
 46 48  1  0  0  0  0
 46 69  1  0  0  0  0
 47 51  1  0  0  0  0
 47 68  1  0  0  0  0
 49 72  1  0  0  0  0
 50 67  1  0  0  0  0
 51 66  1  0  0  0  0
 52 61  1  0  0  0  0
 53 62  1  0  0  0  0
 54 62  1  0  0  0  0
 55 62  1  0  0  0  0
 56 74  1  0  0  0  0
 57 75  1  0  0  0  0
 58 59  1  0  0  0  0
 58 74  1  0  0  0  0
 59 85  1  0  0  0  0
 60 62  1  0  0  0  0
 60 73  1  0  0  0  0
 61 75  1  0  0  0  0
 64 66  1  0  0  0  0
M  CHG  2  74   1  75   1
M  ISO  4  31 101  36 100  69 100  82 101
M  END
> <Batch ID>
0176

> <Smiles>
CNCC(F)c1n[101c:1]([101O:1]c2ccc3c(c2)CN(C(=O)C(NC(=O)C(C)NC)C(C)(C)C)C(C(=O)NC2CCCc4ccccc42)C3)ncc1C1C[100N:0]([100C:0](=O)N2CCCC(n3nc(-c4ccc(Oc5ccc(F)cc5F)cc4)c(C(N)=O)c3N)C2)C1

> <Shape>
0.270

> <Color>
0.078

> <Negative vol penalty>
0.000

$$$$

  -OEChem-04052322503D

 84 93  0     1  0  0  0  0  0999 V2000
  -24.3257  -38.3970   19.3795 C   0  0  0  0  0  0  0  0  0  0  0  0
  -24.6726  -37.2835   18.6211 C   0  0  0  0  0  0  0  0  0  0  0  0
  -23.7814  -12.4720   19.2021 C   0  0  0  0  0  0  0  0  0  0  0  0
  -24.9191  -11.6234   21.1573 C   0  0  0  0  0  0  0  0  0  0  0  0
  -24.5942  -38.4184   20.7475 C   0  0  0  0  0  0  0  0  0  0  0  0
  -25.2892  -36.1911   19.2301 C   0  0  0  0  0  0  0  0  0  0  0  0
  -25.6925  -29.0519   18.7989 C   0  0  0  0  0  0  0  0  0  0  0  0
  -23.5229  -11.1661   18.7858 C   0  0  0  0  0  0  0  0  0  0  0  0
  -24.6605  -10.3175   20.7410 C   0  0  0  0  0  0  0  0  0  0  0  0
  -26.6366  -28.0299   18.7094 C   0  0  0  0  0  0  0  0  0  0  0  0
  -23.9860   -6.7635   20.3775 C   0  0  0  0  0  0  0  0  0  0  0  0
  -23.5249   -5.8570   21.3321 C   0  0  0  0  0  0  0  0  0  0  0  0
  -26.9796  -28.1463   21.0944 C   0  0  0  0  0  0  0  0  0  0  0  0
  -21.5944   -7.2549   21.7272 C   0  0  0  0  0  0  0  0  0  0  0  0
  -24.4796  -12.7007   20.3879 C   0  0  0  0  0  0  0  0  0  0  0  0
  -23.9377  -14.8563   21.6399 C   0  0  0  0  0  0  0  0  0  0  0  0
  -25.2056  -37.3218   21.3754 C   0  0  0  0  0  0  0  0  0  0  0  0
  -25.3923  -29.6372   20.0373 C   0  0  0  0  0  0  0  0  0  0  0  0
  -25.5673  -36.1984   20.6075 C   0  0  0  0  0  0  0  0  0  0  0  0
  -26.0295  -29.1738   21.1972 C   0  0  0  0  0  0  0  0  0  0  0  0
  -23.9624  -10.0889   19.5552 C   0  0  0  0  0  0  0  0  0  0  0  0
  -27.2824  -27.5789   19.8569 C   0  0  0  0  0  0  0  0  0  0  0  0
  -23.2513   -7.9158   20.0978 C   0  0  0  0  0  0  0  0  0  0  0  0
  -22.3291   -6.1027   22.0069 C   0  0  0  0  0  0  0  0  0  0  0  0
  -22.0556   -8.1615   20.7726 C   0  0  0  0  0  0  0  0  0  0  0  0
  -24.7475  -14.0494   20.8183 C   0  0  0  0  0  0  0  0  0  0  0  0
  -24.6300  -16.0373   21.7507 C   0  0  0  0  0  0  0  0  0  0  0  0
  -22.6728  -14.5642   22.2486 C   0  0  0  0  0  0  0  0  0  0  0  0
  -25.6464  -32.5617   21.2566 C   0  0  0  0  0  0  0  0  0  0  0  0
  -24.0782  -31.2303   23.7647 C   0  0  0  0  0  0  0  0  0  0  0  0
  -29.5436  -24.9025   18.6218 C   0  0  0  0  0  0  0  0  0  0  0  0
  -23.2778  -28.4122   25.5153 C   0  0  0  0  0  0  0  0  0  0  0  0
  -27.9750  -19.2973   18.2587 C   0  0  0  0  0  0  0  0  0  0  0  0
  -25.5187  -37.4103   22.8481 C   0  0  0  0  0  0  0  0  0  0  0  0
  -24.3520  -30.7204   20.1207 C   0  0  0  0  0  0  0  0  0  0  0  0
  -25.7282  -29.7550   22.5536 C   0  0  0  0  0  0  0  0  0  0  0  0
  -25.8350  -36.0599   23.4857 C   0  0  0  0  0  0  0  0  0  0  0  0
  -29.3391  -17.3968   21.1324 C   0  0  0  0  0  0  0  0  0  0  0  0
  -26.8140  -35.2758   22.6176 C   0  0  0  0  0  0  0  0  0  0  0  0
  -28.2190  -16.3866   21.3854 C   0  0  0  0  0  0  0  0  0  0  0  0
  -28.8896  -25.4276   15.7185 C   0  0  0  0  0  0  0  0  0  0  0  0
  -29.7574  -24.3309   15.1773 C   0  0  0  0  0  0  0  0  0  0  0  0
  -29.7175  -22.2243   19.5123 C   0  0  0  0  0  0  0  0  0  0  0  0
  -29.4221  -17.7608   19.6557 C   0  0  0  0  0  0  0  0  0  0  0  0
  -29.6197  -20.7045   19.5721 C   0  0  0  0  0  0  0  0  0  0  0  0
  -27.0235  -17.2816   19.3295 C   0  0  0  0  0  0  0  0  0  0  0  0
  -26.2151  -34.9839   21.2365 C   0  0  1  0  0  0  0  0  0  0  0  0
  -24.4997  -31.5964   21.3610 C   0  0  1  0  0  0  0  0  0  0  0  0
  -26.8805  -16.8834   20.8092 C   0  0  1  0  0  0  0  0  0  0  0  0
  -28.8708  -24.0690   16.3638 C   0  0  0  0  0  0  0  0  0  0  0  0
  -28.8953  -21.4622   17.3966 C   0  0  1  0  0  0  0  0  0  0  0  0
  -29.8619  -22.5098   18.0073 C   0  0  2  0  0  0  0  0  0  0  0  0
  -29.2258  -21.0358   15.9687 C   0  0  0  0  0  0  0  0  0  0  0  0
  -31.3272  -22.3470   17.5721 C   0  0  0  0  0  0  0  0  0  0  0  0
  -22.0114  -27.6450   27.5414 C   0  0  0  0  0  0  0  0  0  0  0  0
  -26.3206  -32.2665   25.5557 C   0  0  0  0  0  0  0  0  0  0  0  0
  -25.5251  -30.7003   27.3396 C   0  0  0  0  0  0  0  0  0  0  0  0
  -24.0232  -32.5123   26.5127 C   0  0  0  0  0  0  0  0  0  0  0  0
  -21.4671  -26.7283   23.8891 C   0  0  0  0  0  0  0  0  0  0  0  0
  -28.5051  -26.0026   18.5010 C   0  0  0  0  0  0  0  0  0  1  0  0
  -24.4939  -30.5193   25.0299 C   0  0  1  0  0  0  0  0  0  0  0  0
  -21.9509  -27.8970   26.0429 C   0  0  2  0  0  0  0  0  0  0  0  0
  -25.0980  -31.4898   26.0838 C   0  0  0  0  0  0  0  0  0  0  0  0
  -25.8684  -14.6659   20.4342 N   0  0  0  0  0  0  0  0  0  0  0  0
  -25.7679  -15.8727   21.0170 N   0  0  0  0  0  0  0  0  0  0  0  0
  -24.7081  -30.8162   22.5825 N   0  0  0  0  0  0  0  0  0  0  0  0
  -28.1269  -18.2277   19.1518 N   0  0  0  0  0  0  0  0  0  0  0  0
  -28.9101  -20.3352   18.3455 N   0  0  0  0  0  0  0  0  0  0  0  0
  -24.3703  -17.1903   22.4031 N   0  0  0  0  0  0  0  0  0  0  0  0
  -22.1025  -13.3024   22.0318 N   0  0  0  0  0  0  0  0  0  0  0  0
  -25.2707  -33.8901   21.3160 N   0  0  0  0  0  0  0  0  0  0  0  0
  -23.3183  -29.7903   25.4935 N   0  0  0  0  0  0  0  0  0  0  0  0
  -29.4298  -23.8557   17.6931 N   0  0  0  0  0  0  0  0  0  0  0  0
  -21.5848  -26.6207   25.3661 N   0  3  0  0  0  0  0  0  0  0  0  0
  -22.0585  -15.4033   22.9500 O   0  0  0  0  0  0  0  0  0  0  0  0
  -26.7877  -32.1330   21.1329 O   0  0  0  0  0  0  0  0  0  0  0  0
  -23.2208  -32.1153   23.8221 O   0  0  0  0  0  0  0  0  0  0  0  0
  -30.4227  -24.9613   19.4853 O   0  0  0  0  0  0  0  0  0  0  0  0
  -24.1887  -27.6668   25.1617 O   0  0  0  0  0  0  0  0  0  0  0  0
  -27.0368  -19.3386   17.4531 O   0  0  0  0  0  0  0  0  0  0  0  0
  -23.7101   -8.8144   19.1493 O   0  0  0  0  0  0  0  0  0  0  0  0
  -28.2254  -26.5597   19.7704 O   0  0  0  0  0  0  0  0  0  1  0  0
  -21.8856   -5.2313   22.9224 F   0  0  0  0  0  0  0  0  0  0  0  0
  -21.3448   -9.2662   20.5074 F   0  0  0  0  0  0  0  0  0  0  0  0
  1  2  1  0  0  0  0
  1  5  2  0  0  0  0
  2  6  2  0  0  0  0
  3  8  2  0  0  0  0
  3 15  1  0  0  0  0
  4  9  1  0  0  0  0
  4 15  2  0  0  0  0
  5 17  1  0  0  0  0
  6 19  1  0  0  0  0
  7 10  2  0  0  0  0
  7 18  1  0  0  0  0
  8 21  1  0  0  0  0
  9 21  2  0  0  0  0
 10 22  1  0  0  0  0
 11 12  2  0  0  0  0
 11 23  1  0  0  0  0
 12 24  1  0  0  0  0
 13 20  1  0  0  0  0
 13 22  2  0  0  0  0
 14 24  2  0  0  0  0
 14 25  1  0  0  0  0
 15 26  1  0  0  0  0
 16 26  1  0  0  0  0
 16 27  2  0  0  0  0
 16 28  1  0  0  0  0
 17 19  2  0  0  0  0
 17 34  1  0  0  0  0
 18 20  2  0  0  0  0
 18 35  1  0  0  0  0
 19 47  1  0  0  0  0
 20 36  1  0  0  0  0
 21 81  1  0  0  0  0
 22 82  1  0  0  0  0
 23 25  2  0  0  0  0
 23 81  1  0  0  0  0
 24 83  1  0  0  0  0
 25 84  1  0  0  0  0
 26 64  2  0  0  0  0
 27 65  1  0  0  0  0
 27 69  1  0  0  0  0
 28 70  1  0  0  0  0
 28 75  2  0  0  0  0
 29 48  1  0  0  0  0
 29 71  1  0  0  0  0
 29 76  2  0  0  0  0
 30 61  1  0  0  0  0
 30 66  1  0  0  0  0
 30 77  2  0  0  0  0
 31 60  1  0  0  0  0
 31 73  1  0  0  0  0
 31 78  2  0  0  0  0
 32 62  1  0  0  0  0
 32 72  1  0  0  0  0
 32 79  2  0  0  0  0
 33 67  1  0  0  0  0
 33 68  1  0  0  0  0
 33 80  2  0  0  0  0
 34 37  1  0  0  0  0
 35 48  1  0  0  0  0
 36 66  1  0  0  0  0
 37 39  1  0  0  0  0
 38 40  1  0  0  0  0
 38 44  1  0  0  0  0
 39 47  1  0  0  0  0
 40 49  1  0  0  0  0
 41 42  1  0  0  0  0
 41 50  1  0  0  0  0
 42 50  1  0  0  0  0
 43 45  1  0  0  0  0
 43 52  1  0  0  0  0
 44 67  1  0  0  0  0
 45 68  1  0  0  0  0
 46 49  1  0  0  0  0
 46 67  1  0  0  0  0
 47 71  1  0  0  0  0
 48 66  1  0  0  0  0
 49 65  1  0  0  0  0
 50 73  1  0  0  0  0
 51 52  1  0  0  0  0
 51 53  1  0  0  0  0
 51 68  1  0  0  0  0
 52 54  1  0  0  0  0
 52 73  1  0  0  0  0
 55 62  1  0  0  0  0
 56 63  1  0  0  0  0
 57 63  1  0  0  0  0
 58 63  1  0  0  0  0
 59 74  1  0  0  0  0
 60 82  1  0  0  0  0
 61 63  1  0  0  0  0
 61 72  1  0  0  0  0
 62 74  1  0  0  0  0
 64 65  1  0  0  0  0
M  CHG  1  74   1
M  ISO  4  33 100  60 101  68 100  82 101
M  END
> <Batch ID>
0176

> <Smiles>
CNC(C)C(=O)NC(C(=O)N1Cc2cc([101O:1][101CH2:1]C(=O)N(C3CC3)C3(C)CC[100N:0]([100C:0](=O)N4CCCC(n5nc(-c6ccc(Oc7ccc(F)cc7F)cc6)c(C(N)=O)c5N)C4)C3C)ccc2CC1C(=O)NC1CCCc2ccccc21)C(C)(C)C

> <Shape>
0.288

> <Color>
0.116

> <Negative vol penalty>
0.000

$$$$

  -OEChem-04052322503D

 85 94  0     1  0  0  0  0  0999 V2000
  -23.4431  -31.8479   17.5238 C   0  0  0  0  0  0  0  0  0  0  0  0
  -23.7003  -30.5121   17.2322 C   0  0  0  0  0  0  0  0  0  0  0  0
  -23.1791   -9.8320   19.9606 C   0  0  0  0  0  0  0  0  0  0  0  0
  -23.6416   -9.9804   22.3272 C   0  0  0  0  0  0  0  0  0  0  0  0
  -24.2668  -32.5372   18.4127 C   0  0  0  0  0  0  0  0  0  0  0  0
  -24.7821  -29.8652   17.8286 C   0  0  0  0  0  0  0  0  0  0  0  0
  -25.0709  -23.9929   19.5427 C   0  0  0  0  0  0  0  0  0  0  0  0
  -22.3835   -8.7089   20.1864 C   0  0  0  0  0  0  0  0  0  0  0  0
  -22.8460   -8.8572   22.5531 C   0  0  0  0  0  0  0  0  0  0  0  0
  -25.6170  -22.8638   18.9338 C   0  0  0  0  0  0  0  0  0  0  0  0
  -20.5202   -5.5873   20.0978 C   0  0  0  0  0  0  0  0  0  0  0  0
  -20.6786   -4.4961   19.2437 C   0  0  0  0  0  0  0  0  0  0  0  0
  -27.6346  -23.1509   20.2247 C   0  0  0  0  0  0  0  0  0  0  0  0
  -22.9955   -4.3152   19.9044 C   0  0  0  0  0  0  0  0  0  0  0  0
  -23.8083  -10.4678   21.0310 C   0  0  0  0  0  0  0  0  0  0  0  0
  -28.4211  -17.4100   17.4995 C   0  0  0  0  0  0  0  0  0  0  0  0
  -24.2199  -12.9742   20.7943 C   0  0  0  0  0  0  0  0  0  0  0  0
  -25.3534  -31.8958   19.0278 C   0  0  0  0  0  0  0  0  0  0  0  0
  -25.8080  -24.7170   20.4907 C   0  0  0  0  0  0  0  0  0  0  0  0
  -25.6218  -30.5471   18.7257 C   0  0  0  0  0  0  0  0  0  0  0  0
  -27.0945  -24.2874   20.8460 C   0  0  0  0  0  0  0  0  0  0  0  0
  -28.6861  -17.3507   16.1404 C   0  0  0  0  0  0  0  0  0  0  0  0
  -27.7560  -18.4671   18.0799 C   0  0  0  0  0  0  0  0  0  0  0  0
  -22.2169   -8.2214   21.4827 C   0  0  0  0  0  0  0  0  0  0  0  0
  -26.9001  -22.4444   19.2726 C   0  0  0  0  0  0  0  0  0  0  0  0
  -21.5995   -6.0426   20.8553 C   0  0  0  0  0  0  0  0  0  0  0  0
  -21.9162   -3.8600   19.1470 C   0  0  0  0  0  0  0  0  0  0  0  0
  -22.8370   -5.4065   20.7586 C   0  0  0  0  0  0  0  0  0  0  0  0
  -24.6307  -11.6277   20.7982 C   0  0  0  0  0  0  0  0  0  0  0  0
  -28.2553  -18.3915   15.3532 C   0  0  0  0  0  0  0  0  0  0  0  0
  -27.3631  -19.4674   17.2047 C   0  0  0  0  0  0  0  0  0  0  0  0
  -25.3661  -13.6821   20.5268 C   0  0  0  0  0  0  0  0  0  0  0  0
  -28.9454  -16.1944   18.1222 C   0  0  0  0  0  0  0  0  0  0  0  0
  -22.9186  -13.5349   21.0130 C   0  0  0  0  0  0  0  0  0  0  0  0
  -26.9216  -27.6886   20.6732 C   0  0  0  0  0  0  0  0  0  0  0  0
  -27.7529  -26.7775   23.6734 C   0  0  0  0  0  0  0  0  0  0  0  0
  -28.5078  -24.2390   25.8258 C   0  0  0  0  0  0  0  0  0  0  0  0
  -29.9521  -14.0663   17.1871 C   0  0  0  0  0  0  0  0  0  0  0  0
  -26.2437  -32.6955   19.9457 C   0  0  0  0  0  0  0  0  0  0  0  0
  -25.1943  -25.9173   21.1580 C   0  0  0  0  0  0  0  0  0  0  0  0
  -27.9193  -25.0181   21.8728 C   0  0  0  0  0  0  0  0  0  0  0  0
  -27.1468  -31.8321   20.8228 C   0  0  0  0  0  0  0  0  0  0  0  0
  -30.2027  -12.2465   20.4100 C   0  0  0  0  0  0  0  0  0  0  0  0
  -27.8143  -30.7414   19.9910 C   0  0  0  0  0  0  0  0  0  0  0  0
  -28.7398  -11.9659   20.7476 C   0  0  0  0  0  0  0  0  0  0  0  0
  -30.4257  -12.3544   18.9047 C   0  0  0  0  0  0  0  0  0  0  0  0
  -28.0813  -13.0806   18.5782 C   0  0  0  0  0  0  0  0  0  0  0  0
  -26.7709  -29.8038   19.3716 C   0  0  1  0  0  0  0  0  0  0  0  0
  -29.4493  -16.1131   15.7983 C   0  0  1  0  0  0  0  0  0  0  0  0
  -26.2317  -26.8768   21.7328 C   0  0  1  0  0  0  0  0  0  0  0  0
  -27.8200  -13.0086   20.0901 C   0  0  1  0  0  0  0  0  0  0  0  0
  -28.4617  -18.3886   13.8783 C   0  0  0  0  0  0  0  0  0  0  0  0
  -30.8610  -16.4675   15.3315 C   0  0  0  0  0  0  0  0  0  0  0  0
  -29.1830  -23.8080   28.2040 C   0  0  0  0  0  0  0  0  0  0  0  0
  -30.5899  -27.7001   23.0326 C   0  0  0  0  0  0  0  0  0  0  0  0
  -31.3861  -26.4023   25.0200 C   0  0  0  0  0  0  0  0  0  0  0  0
  -29.7921  -28.2964   25.3266 C   0  0  0  0  0  0  0  0  0  0  0  0
  -26.0730  -22.6400   26.3492 C   0  0  0  0  0  0  0  0  0  0  0  0
  -27.4777  -18.5392   19.5377 C   0  0  0  0  0  0  0  0  0  0  0  0
  -26.6299  -20.6641   17.7190 C   0  0  0  0  0  0  0  0  0  1  0  0
  -28.9695  -26.1383   24.2980 C   0  0  1  0  0  0  0  0  0  0  0  0
  -28.0212  -23.9311   27.2304 C   0  0  2  0  0  0  0  0  0  0  0  0
  -30.1699  -27.1214   24.3985 C   0  0  0  0  0  0  0  0  0  0  0  0
  -25.9360  -11.4861   20.5525 N   0  0  0  0  0  0  0  0  0  0  0  0
  -27.5920  -19.4580   15.8612 N   0  0  0  0  0  0  0  0  0  0  0  0
  -26.3552  -12.7528   20.3917 N   0  0  0  0  0  0  0  0  0  0  0  0
  -29.4200  -15.3663   17.0737 N   0  0  0  0  0  0  0  0  0  0  0  0
  -27.2779  -26.1894   22.4926 N   0  0  0  0  0  0  0  0  0  0  0  0
  -29.5047  -13.3095   18.2869 N   0  0  0  0  0  0  0  0  0  0  0  0
  -25.6143  -15.0026   20.3963 N   0  0  0  0  0  0  0  0  0  0  0  0
  -21.8516  -12.6648   21.2753 N   0  0  0  0  0  0  0  0  0  0  0  0
  -26.2779  -28.8712   20.3624 N   0  0  0  0  0  0  0  0  0  0  0  0
  -28.5327  -25.5956   25.5798 N   0  0  0  0  0  0  0  0  0  0  0  0
  -28.5568  -19.2099   20.3183 N   0  3  0  0  0  0  0  0  0  0  0  0
  -27.2580  -22.6512   27.2452 N   0  3  0  0  0  0  0  0  0  0  0  0
  -28.9473  -16.0095   19.3262 O   0  0  0  0  0  0  0  0  0  0  0  0
  -22.7050  -14.7699   20.9607 O   0  0  0  0  0  0  0  0  0  0  0  0
  -27.9616  -27.2735   20.1755 O   0  0  0  0  0  0  0  0  0  0  0  0
  -27.2387  -27.7581   24.2170 O   0  0  0  0  0  0  0  0  0  0  0  0
  -28.8367  -23.3639   25.0280 O   0  0  0  0  0  0  0  0  0  0  0  0
  -30.8002  -13.6353   16.3990 O   0  0  0  0  0  0  0  0  0  0  0  0
  -21.4404   -7.1256   21.7035 O   0  0  0  0  0  0  0  0  0  0  0  0
  -27.4397  -21.3350   18.6751 O   0  0  0  0  0  0  0  0  0  1  0  0
  -22.0678   -2.8111   18.3278 F   0  0  0  0  0  0  0  0  0  0  0  0
  -23.8772   -5.8385   21.4847 F   0  0  0  0  0  0  0  0  0  0  0  0
  1  2  1  0  0  0  0
  1  5  2  0  0  0  0
  2  6  2  0  0  0  0
  3  8  2  0  0  0  0
  3 15  1  0  0  0  0
  4  9  1  0  0  0  0
  4 15  2  0  0  0  0
  5 18  1  0  0  0  0
  6 20  1  0  0  0  0
  7 10  2  0  0  0  0
  7 19  1  0  0  0  0
  8 24  1  0  0  0  0
  9 24  2  0  0  0  0
 10 25  1  0  0  0  0
 11 12  2  0  0  0  0
 11 26  1  0  0  0  0
 12 27  1  0  0  0  0
 13 21  1  0  0  0  0
 13 25  2  0  0  0  0
 14 27  2  0  0  0  0
 14 28  1  0  0  0  0
 15 29  1  0  0  0  0
 16 22  2  0  0  0  0
 16 23  1  0  0  0  0
 16 33  1  0  0  0  0
 17 29  1  0  0  0  0
 17 32  2  0  0  0  0
 17 34  1  0  0  0  0
 18 20  2  0  0  0  0
 18 39  1  0  0  0  0
 19 21  2  0  0  0  0
 19 40  1  0  0  0  0
 20 48  1  0  0  0  0
 21 41  1  0  0  0  0
 22 30  1  0  0  0  0
 22 49  1  0  0  0  0
 23 31  2  0  0  0  0
 23 59  1  0  0  0  0
 24 82  1  0  0  0  0
 25 83  1  0  0  0  0
 26 28  2  0  0  0  0
 26 82  1  0  0  0  0
 27 84  1  0  0  0  0
 28 85  1  0  0  0  0
 29 64  2  0  0  0  0
 30 52  1  0  0  0  0
 30 65  2  0  0  0  0
 31 60  1  0  0  0  0
 31 65  1  0  0  0  0
 32 66  1  0  0  0  0
 32 70  1  0  0  0  0
 33 67  1  0  0  0  0
 33 76  2  0  0  0  0
 34 71  1  0  0  0  0
 34 77  2  0  0  0  0
 35 50  1  0  0  0  0
 35 72  1  0  0  0  0
 35 78  2  0  0  0  0
 36 61  1  0  0  0  0
 36 68  1  0  0  0  0
 36 79  2  0  0  0  0
 37 62  1  0  0  0  0
 37 73  1  0  0  0  0
 37 80  2  0  0  0  0
 38 67  1  0  0  0  0
 38 69  1  0  0  0  0
 38 81  2  0  0  0  0
 39 42  1  0  0  0  0
 40 50  1  0  0  0  0
 41 68  1  0  0  0  0
 42 44  1  0  0  0  0
 43 45  1  0  0  0  0
 43 46  1  0  0  0  0
 44 48  1  0  0  0  0
 45 51  1  0  0  0  0
 46 69  1  0  0  0  0
 47 51  1  0  0  0  0
 47 69  1  0  0  0  0
 48 72  1  0  0  0  0
 49 53  1  0  0  0  0
 49 67  1  0  0  0  0
 50 68  1  0  0  0  0
 51 66  1  0  0  0  0
 54 62  1  0  0  0  0
 55 63  1  0  0  0  0
 56 63  1  0  0  0  0
 57 63  1  0  0  0  0
 58 75  1  0  0  0  0
 59 74  1  0  0  0  0
 60 83  1  0  0  0  0
 61 63  1  0  0  0  0
 61 73  1  0  0  0  0
 62 75  1  0  0  0  0
 64 66  1  0  0  0  0
M  CHG  2  74   1  75   1
M  ISO  4  38 100  60 101  67 100  83 101
M  END
> <Batch ID>
0176

> <Smiles>
CNC(C)C(=O)NC(C(=O)N1Cc2cc([101O:1][101CH2:1]c3nc(C)c4c(c3CN)C(=O)[100N:0]([100C:0](=O)N3CCCC(n5nc(-c6ccc(Oc7ccc(F)cc7F)cc6)c(C(N)=O)c5N)C3)C4C)ccc2CC1C(=O)NC1CCCc2ccccc21)C(C)(C)C

> <Shape>
0.189

> <Color>
0.173

> <Negative vol penalty>
0.000

$$$$

  -OEChem-04052322503D

 83 92  0     1  0  0  0  0  0999 V2000
  -27.1727  -34.4906   25.0945 C   0  0  0  0  0  0  0  0  0  0  0  0
  -27.4902  -33.2185   24.6294 C   0  0  0  0  0  0  0  0  0  0  0  0
  -26.5310  -12.6676   19.6956 C   0  0  0  0  0  0  0  0  0  0  0  0
  -25.0577  -14.5675   19.9341 C   0  0  0  0  0  0  0  0  0  0  0  0
  -25.8529  -34.8046   25.4163 C   0  0  0  0  0  0  0  0  0  0  0  0
  -26.4883  -32.2592   24.4869 C   0  0  0  0  0  0  0  0  0  0  0  0
  -26.8253  -29.7333   20.1107 C   0  0  0  0  0  0  0  0  0  0  0  0
  -25.4313  -11.8104   19.7308 C   0  0  0  0  0  0  0  0  0  0  0  0
  -23.9580  -13.7103   19.9692 C   0  0  0  0  0  0  0  0  0  0  0  0
  -27.7886  -28.7289   20.0278 C   0  0  0  0  0  0  0  0  0  0  0  0
  -23.3759  -10.4910   22.0672 C   0  0  0  0  0  0  0  0  0  0  0  0
  -23.4682   -9.3521   22.8672 C   0  0  0  0  0  0  0  0  0  0  0  0
  -26.0842  -27.0694   20.4280 C   0  0  0  0  0  0  0  0  0  0  0  0
  -23.1330   -7.9587   20.9221 C   0  0  0  0  0  0  0  0  0  0  0  0
  -26.3443  -14.0462   19.7973 C   0  0  0  0  0  0  0  0  0  0  0  0
  -28.0602  -15.5252   18.6243 C   0  0  0  0  0  0  0  0  0  0  0  0
  -24.8327  -33.8517   25.2685 C   0  0  0  0  0  0  0  0  0  0  0  0
  -25.4836  -29.4135   20.3641 C   0  0  0  0  0  0  0  0  0  0  0  0
  -25.1538  -32.5603   24.8083 C   0  0  0  0  0  0  0  0  0  0  0  0
  -25.1053  -28.0714   20.5111 C   0  0  0  0  0  0  0  0  0  0  0  0
  -29.7643  -23.7672   19.0050 C   0  0  0  0  0  0  0  0  0  0  0  0
  -29.0851  -24.1458   20.1916 C   0  0  0  0  0  0  0  0  0  0  0  0
  -24.1448  -12.3317   19.8676 C   0  0  0  0  0  0  0  0  0  0  0  0
  -27.4187  -27.3969   20.1893 C   0  0  0  0  0  0  0  0  0  0  0  0
  -23.1620  -10.3638   20.6947 C   0  0  0  0  0  0  0  0  0  0  0  0
  -23.3468   -8.0860   22.2946 C   0  0  0  0  0  0  0  0  0  0  0  0
  -23.0406   -9.0977   20.1221 C   0  0  0  0  0  0  0  0  0  0  0  0
  -27.4800  -14.9322   19.7616 C   0  0  0  0  0  0  0  0  0  0  0  0
  -30.7887  -22.9137   19.3638 C   0  0  0  0  0  0  0  0  0  0  0  0
  -29.7009  -23.5053   21.2452 C   0  0  0  0  0  0  0  0  0  0  0  0
  -29.1014  -16.2715   19.1195 C   0  0  0  0  0  0  0  0  0  0  0  0
  -31.8006  -22.2412   18.6373 C   0  0  0  0  0  0  0  0  0  0  0  0
  -32.8187  -21.6543   19.2847 C   0  0  0  0  0  0  0  0  0  0  0  0
  -27.6908  -15.4116   17.2435 C   0  0  0  0  0  0  0  0  0  0  0  0
  -23.4172  -30.0856   22.6840 C   0  0  0  0  0  0  0  0  0  0  0  0
  -21.3202  -28.5789   20.7206 C   0  0  0  0  0  0  0  0  0  0  0  0
  -20.8113  -26.3398   18.1958 C   0  0  0  0  0  0  0  0  0  0  0  0
  -31.1788  -19.8350   22.8787 C   0  0  0  0  0  0  0  0  0  0  0  0
  -23.4283  -34.2229   25.6740 C   0  0  0  0  0  0  0  0  0  0  0  0
  -24.4522  -30.5067   20.4240 C   0  0  0  0  0  0  0  0  0  0  0  0
  -23.6749  -27.6739   20.7647 C   0  0  0  0  0  0  0  0  0  0  0  0
  -32.9361  -21.6526   20.7840 C   0  0  0  0  0  0  0  0  0  0  0  0
  -22.3666  -33.2653   25.1391 C   0  0  0  0  0  0  0  0  0  0  0  0
  -31.1732  -16.3785   23.7328 C   0  0  0  0  0  0  0  0  0  0  0  0
  -22.7908  -31.8176   25.3654 C   0  0  0  0  0  0  0  0  0  0  0  0
  -30.2552  -15.7446   22.6862 C   0  0  0  0  0  0  0  0  0  0  0  0
  -30.6846  -17.7650   24.1465 C   0  0  0  0  0  0  0  0  0  0  0  0
  -29.5442  -18.0681   21.9828 C   0  0  0  0  0  0  0  0  0  0  0  0
  -24.0909  -31.5003   24.6167 C   0  0  1  0  0  0  0  0  0  0  0  0
  -23.2000  -30.1049   21.1973 C   0  0  1  0  0  0  0  0  0  0  0  0
  -30.0269  -16.6920   21.4931 C   0  0  2  0  0  0  0  0  0  0  0  0
  -31.5822  -21.8498   21.4869 C   0  0  1  0  0  0  0  0  0  0  0  0
  -29.4408  -24.2188   17.6346 C   0  0  0  0  0  0  0  0  0  0  0  0
  -29.3812  -23.5422   22.6889 C   0  0  0  0  0  0  0  0  0  0  0  0
  -18.9848  -25.2906   16.8318 C   0  0  0  0  0  0  0  0  0  0  0  0
  -20.5891  -26.7889   23.0810 C   0  0  0  0  0  0  0  0  0  0  0  0
  -19.5183  -25.2085   21.4611 C   0  0  0  0  0  0  0  0  0  0  0  0
  -18.6451  -27.5335   21.6949 C   0  0  0  0  0  0  0  0  0  0  0  0
  -21.9036  -27.4393   15.6746 C   0  0  0  0  0  0  0  0  0  0  0  0
  -27.9080  -25.0716   20.2850 C   0  0  0  0  0  0  0  0  0  1  0  0
  -20.8613  -27.1522   20.5393 C   0  0  1  0  0  0  0  0  0  0  0  0
  -19.9906  -26.4277   16.9218 C   0  0  2  0  0  0  0  0  0  0  0  0
  -19.9308  -26.6781   21.6912 C   0  0  0  0  0  0  0  0  0  0  0  0
  -28.1012  -15.2724   20.8941 N   0  0  0  0  0  0  0  0  0  0  0  0
  -30.7226  -22.7542   20.7304 N   0  0  0  0  0  0  0  0  0  0  0  0
  -29.0825  -16.0871   20.4708 N   0  0  0  0  0  0  0  0  0  0  0  0
  -22.7043  -28.7794   20.8210 N   0  0  0  0  0  0  0  0  0  0  0  0
  -30.4895  -18.6145   22.9691 N   0  0  0  0  0  0  0  0  0  0  0  0
  -30.0222  -17.0609   18.5266 N   0  0  0  0  0  0  0  0  0  0  0  0
  -26.5957  -14.6034   16.9092 N   0  0  0  0  0  0  0  0  0  0  0  0
  -23.8265  -31.2967   23.2085 N   0  0  0  0  0  0  0  0  0  0  0  0
  -20.2543  -27.0838   19.2144 N   0  0  0  0  0  0  0  0  0  0  0  0
  -30.9417  -20.5759   21.7274 N   0  0  0  0  0  0  0  0  0  0  0  0
  -20.8797  -26.3643   15.7275 N   0  3  0  0  0  0  0  0  0  0  0  0
  -28.3236  -15.9960   16.3317 O   0  0  0  0  0  0  0  0  0  0  0  0
  -23.2260  -29.0491   23.3091 O   0  0  0  0  0  0  0  0  0  0  0  0
  -20.4821  -29.4829   20.7641 O   0  0  0  0  0  0  0  0  0  0  0  0
  -21.8412  -25.6745   18.2802 O   0  0  0  0  0  0  0  0  0  0  0  0
  -31.9527  -20.2323   23.7564 O   0  0  0  0  0  0  0  0  0  0  0  0
  -23.0714  -11.4955   19.9017 O   0  0  0  0  0  0  0  0  0  0  0  0
  -28.3571  -26.4147   20.1096 O   0  0  0  0  0  0  0  0  0  1  0  0
  -23.4370   -6.9923   23.0627 F   0  0  0  0  0  0  0  0  0  0  0  0
  -22.8363   -8.9691   18.8040 F   0  0  0  0  0  0  0  0  0  0  0  0
  1  2  1  0  0  0  0
  1  5  2  0  0  0  0
  2  6  2  0  0  0  0
  3  8  2  0  0  0  0
  3 15  1  0  0  0  0
  4  9  1  0  0  0  0
  4 15  2  0  0  0  0
  5 17  1  0  0  0  0
  6 19  1  0  0  0  0
  7 10  2  0  0  0  0
  7 18  1  0  0  0  0
  8 23  1  0  0  0  0
  9 23  2  0  0  0  0
 10 24  1  0  0  0  0
 11 12  2  0  0  0  0
 11 25  1  0  0  0  0
 12 26  1  0  0  0  0
 13 20  1  0  0  0  0
 13 24  2  0  0  0  0
 14 26  2  0  0  0  0
 14 27  1  0  0  0  0
 15 28  1  0  0  0  0
 16 28  1  0  0  0  0
 16 31  2  0  0  0  0
 16 34  1  0  0  0  0
 17 19  2  0  0  0  0
 17 39  1  0  0  0  0
 18 20  2  0  0  0  0
 18 40  1  0  0  0  0
 19 49  1  0  0  0  0
 20 41  1  0  0  0  0
 21 22  1  0  0  0  0
 21 29  2  0  0  0  0
 21 53  1  0  0  0  0
 22 30  2  0  0  0  0
 22 60  1  0  0  0  0
 23 80  1  0  0  0  0
 24 81  1  0  0  0  0
 25 27  2  0  0  0  0
 25 80  1  0  0  0  0
 26 82  1  0  0  0  0
 27 83  1  0  0  0  0
 28 64  2  0  0  0  0
 29 32  1  0  0  0  0
 29 65  1  0  0  0  0
 30 54  1  0  0  0  0
 30 65  1  0  0  0  0
 31 66  1  0  0  0  0
 31 69  1  0  0  0  0
 32 33  2  0  0  0  0
 33 42  1  0  0  0  0
 34 70  1  0  0  0  0
 34 75  2  0  0  0  0
 35 50  1  0  0  0  0
 35 71  1  0  0  0  0
 35 76  2  0  0  0  0
 36 61  1  0  0  0  0
 36 67  1  0  0  0  0
 36 77  2  0  0  0  0
 37 62  1  0  0  0  0
 37 72  1  0  0  0  0
 37 78  2  0  0  0  0
 38 68  1  0  0  0  0
 38 73  1  0  0  0  0
 38 79  2  0  0  0  0
 39 43  1  0  0  0  0
 40 50  1  0  0  0  0
 41 67  1  0  0  0  0
 42 52  1  0  0  0  0
 43 45  1  0  0  0  0
 44 46  1  0  0  0  0
 44 47  1  0  0  0  0
 45 49  1  0  0  0  0
 46 51  1  0  0  0  0
 47 68  1  0  0  0  0
 48 51  1  0  0  0  0
 48 68  1  0  0  0  0
 49 71  1  0  0  0  0
 50 67  1  0  0  0  0
 51 66  1  0  0  0  0
 52 65  1  0  0  0  0
 52 73  1  0  0  0  0
 55 62  1  0  0  0  0
 56 63  1  0  0  0  0
 57 63  1  0  0  0  0
 58 63  1  0  0  0  0
 59 74  1  0  0  0  0
 60 81  1  0  0  0  0
 61 63  1  0  0  0  0
 61 72  1  0  0  0  0
 62 74  1  0  0  0  0
 64 66  1  0  0  0  0
M  CHG  1  74   1
M  ISO  4  38 100  60 101  73 100  81 101
M  END
> <Batch ID>
0176

> <Smiles>
CNC(C)C(=O)NC(C(=O)N1Cc2cc([101O:1][101CH2:1]c3c(C)c4n(c3C)C([100NH:0][100C:0](=O)N3CCCC(n5nc(-c6ccc(Oc7ccc(F)cc7F)cc6)c(C(N)=O)c5N)C3)CC=C4)ccc2CC1C(=O)NC1CCCc2ccccc21)C(C)(C)C

> <Shape>
0.296

> <Color>
0.082

> <Negative vol penalty>
0.000

$$$$

  -OEChem-04052322503D

 83 92  0     1  0  0  0  0  0999 V2000
  -24.8224  -22.3923   17.1457 C   0  0  0  0  0  0  0  0  0  0  0  0
  -25.8570  -21.4622   17.1523 C   0  0  0  0  0  0  0  0  0  0  0  0
  -25.6122  -27.1399   19.5863 C   0  0  0  0  0  0  0  0  0  0  0  0
  -27.3133  -28.5902   20.5028 C   0  0  0  0  0  0  0  0  0  0  0  0
  -23.8459  -22.3541   18.1402 C   0  0  0  0  0  0  0  0  0  0  0  0
  -25.9162  -20.4940   18.1540 C   0  0  0  0  0  0  0  0  0  0  0  0
  -27.9092  -14.7306   17.5904 C   0  0  0  0  0  0  0  0  0  0  0  0
  -24.6497  -28.1225   19.8178 C   0  0  0  0  0  0  0  0  0  0  0  0
  -26.3507  -29.5729   20.7342 C   0  0  0  0  0  0  0  0  0  0  0  0
  -29.1293  -14.1265   17.8905 C   0  0  0  0  0  0  0  0  0  0  0  0
  -24.2824  -32.3258   21.8977 C   0  0  0  0  0  0  0  0  0  0  0  0
  -24.3047  -32.9775   23.1307 C   0  0  0  0  0  0  0  0  0  0  0  0
  -28.2485  -13.4209   20.0226 C   0  0  0  0  0  0  0  0  0  0  0  0
  -23.9646  -30.8653   24.2532 C   0  0  0  0  0  0  0  0  0  0  0  0
  -26.9440  -27.3737   19.9289 C   0  0  0  0  0  0  0  0  0  0  0  0
  -28.7138  -26.1845   18.5284 C   0  0  0  0  0  0  0  0  0  0  0  0
  -23.8879  -21.3789   19.1491 C   0  0  0  0  0  0  0  0  0  0  0  0
  -26.8514  -14.6938   18.5101 C   0  0  0  0  0  0  0  0  0  0  0  0
  -24.9401  -20.4436   19.1637 C   0  0  0  0  0  0  0  0  0  0  0  0
  -27.0152  -14.0232   19.7306 C   0  0  0  0  0  0  0  0  0  0  0  0
  -33.2851  -15.1553   21.2968 C   0  0  0  0  0  0  0  0  0  0  0  0
  -25.0189  -29.3390   20.3917 C   0  0  0  0  0  0  0  0  0  0  0  0
  -29.3001  -13.4740   19.1080 C   0  0  0  0  0  0  0  0  0  0  0  0
  -24.1011  -30.9438   21.8424 C   0  0  0  0  0  0  0  0  0  0  0  0
  -24.1458  -32.2473   24.3085 C   0  0  0  0  0  0  0  0  0  0  0  0
  -23.9422  -30.2136   23.0202 C   0  0  0  0  0  0  0  0  0  0  0  0
  -27.9387  -26.3589   19.6905 C   0  0  0  0  0  0  0  0  0  0  0  0
  -33.5195  -13.8373   20.9618 C   0  0  0  0  0  0  0  0  0  0  0  0
  -32.0442  -15.6483   20.9483 C   0  0  0  0  0  0  0  0  0  0  0  0
  -29.5000  -25.0917   18.8007 C   0  0  0  0  0  0  0  0  0  0  0  0
  -31.4466  -13.6482   20.0486 C   0  0  0  0  0  0  0  0  0  1  0  0
  -28.7224  -26.9426   17.3115 C   0  0  0  0  0  0  0  0  0  0  0  0
  -25.1977  -16.8826   20.1158 C   0  0  0  0  0  0  0  0  0  0  0  0
  -23.4250  -14.3194   21.0157 C   0  0  0  0  0  0  0  0  0  0  0  0
  -23.2479  -10.9461   21.5019 C   0  0  0  0  0  0  0  0  0  0  0  0
  -29.9436  -19.9430   20.6265 C   0  0  0  0  0  0  0  0  0  0  0  0
  -22.8362  -21.4068   20.2298 C   0  0  0  0  0  0  0  0  0  0  0  0
  -25.5328  -15.3273   18.1601 C   0  0  0  0  0  0  0  0  0  0  0  0
  -25.9041  -13.9377   20.7438 C   0  0  0  0  0  0  0  0  0  0  0  0
  -22.7629  -20.1162   21.0417 C   0  0  0  0  0  0  0  0  0  0  0  0
  -30.3471  -22.6152   23.1037 C   0  0  0  0  0  0  0  0  0  0  0  0
  -24.1607  -19.6623   21.4501 C   0  0  0  0  0  0  0  0  0  0  0  0
  -29.7587  -23.8035   22.3506 C   0  0  0  0  0  0  0  0  0  0  0  0
  -29.0965  -16.8444   21.6065 C   0  0  0  0  0  0  0  0  0  0  0  0
  -29.6395  -21.3029   22.7636 C   0  0  0  0  0  0  0  0  0  0  0  0
  -28.9890  -18.1950   22.3209 C   0  0  0  0  0  0  0  0  0  0  0  0
  -28.9863  -22.2181   20.5524 C   0  0  0  0  0  0  0  0  0  0  0  0
  -25.0250  -19.3626   20.2194 C   0  0  1  0  0  0  0  0  0  0  0  0
  -24.6912  -15.6713   19.3852 C   0  0  1  0  0  0  0  0  0  0  0  0
  -29.7371  -23.5258   20.8402 C   0  0  1  0  0  0  0  0  0  0  0  0
  -30.2709  -17.4142   20.7962 C   0  0  2  0  0  0  0  0  0  0  0  0
  -34.3038  -15.9914   21.9869 C   0  0  0  0  0  0  0  0  0  0  0  0
  -34.8272  -13.1947   21.2901 C   0  0  0  0  0  0  0  0  0  0  0  0
  -21.6802   -9.1476   22.2798 C   0  0  0  0  0  0  0  0  0  0  0  0
  -23.8758  -15.1808   23.9079 C   0  0  0  0  0  0  0  0  0  0  0  0
  -23.1349  -12.9007   24.6292 C   0  0  0  0  0  0  0  0  0  0  0  0
  -21.5564  -14.3934   23.4034 C   0  0  0  0  0  0  0  0  0  0  0  0
  -23.3403   -9.5714   18.8826 C   0  0  0  0  0  0  0  0  0  0  0  0
  -31.6734  -17.0761   21.2617 C   0  0  0  0  0  0  0  0  0  0  0  0
  -23.4789  -13.3287   22.1535 C   0  0  1  0  0  0  0  0  0  0  0  0
  -22.2098   -9.9211   21.0823 C   0  0  2  0  0  0  0  0  0  0  0  0
  -23.0333  -13.9540   23.5054 C   0  0  0  0  0  0  0  0  0  0  0  0
  -28.2079  -25.4495   20.6311 N   0  0  0  0  0  0  0  0  0  0  0  0
  -32.6194  -13.0516   20.3351 N   0  0  0  0  0  0  0  0  0  0  0  0
  -31.0974  -14.9199   20.3211 N   0  0  0  0  0  0  0  0  0  0  0  0
  -29.1609  -24.6932   20.0603 N   0  0  0  0  0  0  0  0  0  0  0  0
  -24.6359  -14.5781   20.3579 N   0  0  0  0  0  0  0  0  0  0  0  0
  -29.5410  -21.0930   21.3142 N   0  0  0  0  0  0  0  0  0  0  0  0
  -29.8476  -18.7320   21.2753 N   0  0  0  0  0  0  0  0  0  0  0  0
  -30.4412  -24.4423   18.0832 N   0  0  0  0  0  0  0  0  0  0  0  0
  -27.8512  -28.0347   17.1984 N   0  0  0  0  0  0  0  0  0  0  0  0
  -24.6743  -18.0762   19.6566 N   0  0  0  0  0  0  0  0  0  0  0  0
  -22.6811  -12.1815   21.7339 N   0  0  0  0  0  0  0  0  0  0  0  0
  -22.8010   -8.9494   20.1193 N   0  3  0  0  0  0  0  0  0  0  0  0
  -29.4685  -26.6501   16.3465 O   0  0  0  0  0  0  0  0  0  0  0  0
  -26.0025  -16.7445   21.0295 O   0  0  0  0  0  0  0  0  0  0  0  0
  -22.3469  -14.8391   20.7169 O   0  0  0  0  0  0  0  0  0  0  0  0
  -24.4416  -10.6769   21.6162 O   0  0  0  0  0  0  0  0  0  0  0  0
  -30.3481  -19.9885   19.4573 O   0  0  0  0  0  0  0  0  0  0  0  0
  -24.0800  -30.2982   20.6175 O   0  0  0  0  0  0  0  0  0  0  0  0
  -30.5052  -12.8765   19.4075 O   0  0  0  0  0  0  0  0  0  1  0  0
  -24.1688  -32.8730   25.4925 F   0  0  0  0  0  0  0  0  0  0  0  0
  -23.7689  -28.8856   22.9735 F   0  0  0  0  0  0  0  0  0  0  0  0
  1  2  1  0  0  0  0
  1  5  2  0  0  0  0
  2  6  2  0  0  0  0
  3  8  2  0  0  0  0
  3 15  1  0  0  0  0
  4  9  1  0  0  0  0
  4 15  2  0  0  0  0
  5 17  1  0  0  0  0
  6 19  1  0  0  0  0
  7 10  2  0  0  0  0
  7 18  1  0  0  0  0
  8 22  1  0  0  0  0
  9 22  2  0  0  0  0
 10 23  1  0  0  0  0
 11 12  2  0  0  0  0
 11 24  1  0  0  0  0
 12 25  1  0  0  0  0
 13 20  1  0  0  0  0
 13 23  2  0  0  0  0
 14 25  2  0  0  0  0
 14 26  1  0  0  0  0
 15 27  1  0  0  0  0
 16 27  1  0  0  0  0
 16 30  2  0  0  0  0
 16 32  1  0  0  0  0
 17 19  2  0  0  0  0
 17 37  1  0  0  0  0
 18 20  2  0  0  0  0
 18 38  1  0  0  0  0
 19 48  1  0  0  0  0
 20 39  1  0  0  0  0
 21 28  1  0  0  0  0
 21 29  2  0  0  0  0
 21 52  1  0  0  0  0
 22 80  1  0  0  0  0
 23 81  1  0  0  0  0
 24 26  2  0  0  0  0
 24 80  1  0  0  0  0
 25 82  1  0  0  0  0
 26 83  1  0  0  0  0
 27 63  2  0  0  0  0
 28 53  1  0  0  0  0
 28 64  2  0  0  0  0
 29 59  1  0  0  0  0
 29 65  1  0  0  0  0
 30 66  1  0  0  0  0
 30 70  1  0  0  0  0
 31 64  1  0  0  0  0
 31 65  2  0  0  0  0
 31 81  1  0  0  0  0
 32 71  1  0  0  0  0
 32 75  2  0  0  0  0
 33 49  1  0  0  0  0
 33 72  1  0  0  0  0
 33 76  2  0  0  0  0
 34 60  1  0  0  0  0
 34 67  1  0  0  0  0
 34 77  2  0  0  0  0
 35 61  1  0  0  0  0
 35 73  1  0  0  0  0
 35 78  2  0  0  0  0
 36 68  1  0  0  0  0
 36 69  1  0  0  0  0
 36 79  2  0  0  0  0
 37 40  1  0  0  0  0
 38 49  1  0  0  0  0
 39 67  1  0  0  0  0
 40 42  1  0  0  0  0
 41 43  1  0  0  0  0
 41 45  1  0  0  0  0
 42 48  1  0  0  0  0
 43 50  1  0  0  0  0
 44 46  1  0  0  0  0
 44 51  1  0  0  0  0
 45 68  1  0  0  0  0
 46 69  1  0  0  0  0
 47 50  1  0  0  0  0
 47 68  1  0  0  0  0
 48 72  1  0  0  0  0
 49 67  1  0  0  0  0
 50 66  1  0  0  0  0
 51 59  1  0  0  0  0
 51 69  1  0  0  0  0
 54 61  1  0  0  0  0
 55 62  1  0  0  0  0
 56 62  1  0  0  0  0
 57 62  1  0  0  0  0
 58 74  1  0  0  0  0
 60 62  1  0  0  0  0
 60 73  1  0  0  0  0
 61 74  1  0  0  0  0
 63 66  1  0  0  0  0
M  CHG  1  74   1
M  ISO  4  31 101  36 100  69 100  81 101
M  END
> <Batch ID>
0176

> <Smiles>
CNC(C)C(=O)NC(C(=O)N1Cc2cc([101O:1][101c:1]3nc(C)c(C)c(CC4CC[100N:0]4[100C:0](=O)N4CCCC(n5nc(-c6ccc(Oc7ccc(F)cc7F)cc6)c(C(N)=O)c5N)C4)n3)ccc2CC1C(=O)NC1CCCc2ccccc21)C(C)(C)C

> <Shape>
0.275

> <Color>
0.066

> <Negative vol penalty>
0.000

$$$$

  -OEChem-04052322503D

 84 93  0     1  0  0  0  0  0999 V2000
  -29.8365   -5.4430   26.8931 C   0  0  0  0  0  0  0  0  0  0  0  0
  -30.2426   -6.7442   27.1708 C   0  0  0  0  0  0  0  0  0  0  0  0
  -23.2887   -9.7995   19.9127 C   0  0  0  0  0  0  0  0  0  0  0  0
  -23.7392   -9.9398   22.2822 C   0  0  0  0  0  0  0  0  0  0  0  0
  -28.5638   -5.2067   26.3752 C   0  0  0  0  0  0  0  0  0  0  0  0
  -29.3766   -7.8102   26.9297 C   0  0  0  0  0  0  0  0  0  0  0  0
  -28.8863  -12.9669   30.1968 C   0  0  0  0  0  0  0  0  0  0  0  0
  -22.5624   -8.6269   20.1201 C   0  0  0  0  0  0  0  0  0  0  0  0
  -23.0128   -8.7672   22.4897 C   0  0  0  0  0  0  0  0  0  0  0  0
  -29.4070  -14.2470   30.0126 C   0  0  0  0  0  0  0  0  0  0  0  0
  -20.9738   -6.0067   23.6898 C   0  0  0  0  0  0  0  0  0  0  0  0
  -20.0721   -5.9812   24.7537 C   0  0  0  0  0  0  0  0  0  0  0  0
  -27.3435  -14.9292   28.9657 C   0  0  0  0  0  0  0  0  0  0  0  0
  -18.8625   -7.8284   23.7728 C   0  0  0  0  0  0  0  0  0  0  0  0
  -31.9223  -15.5296   24.4344 C   0  0  0  0  0  0  0  0  0  0  0  0
  -23.8772  -10.4559   20.9937 C   0  0  0  0  0  0  0  0  0  0  0  0
  -24.1364  -12.9860   20.7955 C   0  0  0  0  0  0  0  0  0  0  0  0
  -27.6781   -6.2694   26.1367 C   0  0  0  0  0  0  0  0  0  0  0  0
  -27.5921  -12.6548   29.7562 C   0  0  0  0  0  0  0  0  0  0  0  0
  -28.0913   -7.5880   26.4068 C   0  0  0  0  0  0  0  0  0  0  0  0
  -26.8078  -13.6451   29.1478 C   0  0  0  0  0  0  0  0  0  0  0  0
  -31.2745  -14.3192   24.5753 C   0  0  0  0  0  0  0  0  0  0  0  0
  -22.4244   -8.1108   21.4086 C   0  0  0  0  0  0  0  0  0  0  0  0
  -28.6367  -15.2276   29.3944 C   0  0  0  0  0  0  0  0  0  0  0  0
  -20.8199   -6.9431   22.6674 C   0  0  0  0  0  0  0  0  0  0  0  0
  -19.0164   -6.8920   24.7952 C   0  0  0  0  0  0  0  0  0  0  0  0
  -19.7643   -7.8539   22.7089 C   0  0  0  0  0  0  0  0  0  0  0  0
  -24.6281  -11.6670   20.7799 C   0  0  0  0  0  0  0  0  0  0  0  0
  -30.2532  -14.2931   25.5029 C   0  0  0  0  0  0  0  0  0  0  0  0
  -25.2379  -13.7660   20.5408 C   0  0  0  0  0  0  0  0  0  0  0  0
  -30.5918  -16.4825   26.0120 C   0  0  0  0  0  0  0  0  0  0  0  0
  -22.8033  -13.4635   21.0202 C   0  0  0  0  0  0  0  0  0  0  0  0
  -26.3720  -10.6149   27.6458 C   0  0  0  0  0  0  0  0  0  0  0  0
  -23.5481  -11.6673   28.8459 C   0  0  0  0  0  0  0  0  0  0  0  0
  -21.8210  -14.1373   30.4469 C   0  0  0  0  0  0  0  0  0  0  0  0
  -31.1088  -12.9232   21.3609 C   0  0  0  0  0  0  0  0  0  0  0  0
  -26.3297   -5.9688   25.5316 C   0  0  0  0  0  0  0  0  0  0  0  0
  -27.0352  -11.2766   29.9864 C   0  0  0  0  0  0  0  0  0  0  0  0
  -25.4051  -13.3666   28.6751 C   0  0  0  0  0  0  0  0  0  0  0  0
  -25.3357   -7.1206   25.6563 C   0  0  0  0  0  0  0  0  0  0  0  0
  -29.4602  -13.6630   18.2931 C   0  0  0  0  0  0  0  0  0  0  0  0
  -25.9929   -8.4383   25.2581 C   0  0  0  0  0  0  0  0  0  0  0  0
  -27.9905  -13.3544   18.5840 C   0  0  0  0  0  0  0  0  0  0  0  0
  -28.7949  -18.2089   26.6701 C   0  0  0  0  0  0  0  0  0  0  0  0
  -29.9280  -18.9722   26.0589 C   0  0  0  0  0  0  0  0  0  0  0  0
  -30.3935  -12.6836   19.0014 C   0  0  0  0  0  0  0  0  0  0  0  0
  -28.7067  -12.2538   20.7461 C   0  0  0  0  0  0  0  0  0  0  0  0
  -27.1714   -8.7684   26.1821 C   0  0  1  0  0  0  0  0  0  0  0  0
  -25.8943  -10.9268   29.0359 C   0  0  1  0  0  0  0  0  0  0  0  0
  -27.7287  -13.2491   20.0985 C   0  0  2  0  0  0  0  0  0  0  0  0
  -30.2123  -17.6831   26.8087 C   0  0  0  0  0  0  0  0  0  0  0  0
  -29.4793  -13.0377   25.7382 C   0  0  0  0  0  0  0  0  0  0  0  0
  -19.5189  -14.7267   31.2532 C   0  0  0  0  0  0  0  0  0  0  0  0
  -22.7088  -12.2980   25.9810 C   0  0  0  0  0  0  0  0  0  0  0  0
  -20.8675  -13.7192   26.9072 C   0  0  0  0  0  0  0  0  0  0  0  0
  -20.9161  -11.2726   27.3915 C   0  0  0  0  0  0  0  0  0  0  0  0
  -22.7220  -14.2983   33.2614 C   0  0  0  0  0  0  0  0  0  0  0  0
  -31.6704  -13.1366   23.7689 C   0  0  0  0  0  0  0  0  0  0  0  0
  -30.8681  -17.7856   28.1533 C   0  0  0  0  0  0  0  0  0  0  0  0
  -30.5550  -16.5880   29.0405 C   0  0  0  0  0  0  0  0  0  1  0  0
  -22.5975  -12.7918   28.5127 C   0  0  1  0  0  0  0  0  0  0  0  0
  -20.8537  -14.0949   31.6161 C   0  0  2  0  0  0  0  0  0  0  0  0
  -21.7996  -12.5254   27.2051 C   0  0  0  0  0  0  0  0  0  0  0  0
  -31.6057  -16.6357   25.1391 N   0  0  0  0  0  0  0  0  0  0  0  0
  -25.9397  -11.6084   20.5345 N   0  0  0  0  0  0  0  0  0  0  0  0
  -29.8839  -15.3600   26.2416 N   0  0  0  0  0  0  0  0  0  0  0  0
  -26.2816  -12.9004   20.3935 N   0  0  0  0  0  0  0  0  0  0  0  0
  -24.9077  -12.0022   28.9171 N   0  0  0  0  0  0  0  0  0  0  0  0
  -30.0940  -12.6319   20.4345 N   0  0  0  0  0  0  0  0  0  0  0  0
  -25.4057  -15.1009   20.4306 N   0  0  0  0  0  0  0  0  0  0  0  0
  -21.7908  -12.5265   21.2674 N   0  0  0  0  0  0  0  0  0  0  0  0
  -26.6930   -9.2857   27.4462 N   0  0  0  0  0  0  0  0  0  0  0  0
  -21.7626  -12.9839   29.6936 N   0  0  0  0  0  0  0  0  0  0  0  0
  -30.7390  -12.8575   22.6987 N   0  0  0  0  0  0  0  0  0  0  0  0
  -21.4193  -14.8289   32.7832 N   0  3  0  0  0  0  0  0  0  0  0  0
  -22.5154  -14.6839   20.9861 O   0  0  0  0  0  0  0  0  0  0  0  0
  -26.4426  -11.5133   26.8154 O   0  0  0  0  0  0  0  0  0  0  0  0
  -23.1000  -10.5351   29.0430 O   0  0  0  0  0  0  0  0  0  0  0  0
  -22.5524  -15.0991   30.2220 O   0  0  0  0  0  0  0  0  0  0  0  0
  -32.2578  -13.2252   21.0210 O   0  0  0  0  0  0  0  0  0  0  0  0
  -21.7156   -6.9667   21.6115 O   0  0  0  0  0  0  0  0  0  0  0  0
  -29.1427  -16.4777   29.2129 O   0  0  0  0  0  0  0  0  0  1  0  0
  -18.1497   -6.8664   25.8161 F   0  0  0  0  0  0  0  0  0  0  0  0
  -19.6107   -8.7551   21.7290 F   0  0  0  0  0  0  0  0  0  0  0  0
  1  2  1  0  0  0  0
  1  5  2  0  0  0  0
  2  6  2  0  0  0  0
  3  8  2  0  0  0  0
  3 16  1  0  0  0  0
  4  9  1  0  0  0  0
  4 16  2  0  0  0  0
  5 18  1  0  0  0  0
  6 20  1  0  0  0  0
  7 10  2  0  0  0  0
  7 19  1  0  0  0  0
  8 23  1  0  0  0  0
  9 23  2  0  0  0  0
 10 24  1  0  0  0  0
 11 12  2  0  0  0  0
 11 25  1  0  0  0  0
 12 26  1  0  0  0  0
 13 21  1  0  0  0  0
 13 24  2  0  0  0  0
 14 26  2  0  0  0  0
 14 27  1  0  0  0  0
 15 22  1  0  0  0  0
 15 64  2  0  0  0  0
 16 28  1  0  0  0  0
 17 28  1  0  0  0  0
 17 30  2  0  0  0  0
 17 32  1  0  0  0  0
 18 20  2  0  0  0  0
 18 37  1  0  0  0  0
 19 21  2  0  0  0  0
 19 38  1  0  0  0  0
 20 48  1  0  0  0  0
 21 39  1  0  0  0  0
 22 29  2  0  0  0  0
 22 58  1  0  0  0  0
 23 81  1  0  0  0  0
 24 82  1  0  0  0  0
 25 27  2  0  0  0  0
 25 81  1  0  0  0  0
 26 83  1  0  0  0  0
 27 84  1  0  0  0  0
 28 65  2  0  0  0  0
 29 52  1  0  0  0  0
 29 66  1  0  0  0  0
 30 67  1  0  0  0  0
 30 70  1  0  0  0  0
 31 51  1  0  0  0  0
 31 64  1  0  0  0  0
 31 66  2  0  0  0  0
 32 71  1  0  0  0  0
 32 76  2  0  0  0  0
 33 49  1  0  0  0  0
 33 72  1  0  0  0  0
 33 77  2  0  0  0  0
 34 61  1  0  0  0  0
 34 68  1  0  0  0  0
 34 78  2  0  0  0  0
 35 62  1  0  0  0  0
 35 73  1  0  0  0  0
 35 79  2  0  0  0  0
 36 69  1  0  0  0  0
 36 74  1  0  0  0  0
 36 80  2  0  0  0  0
 37 40  1  0  0  0  0
 38 49  1  0  0  0  0
 39 68  1  0  0  0  0
 40 42  1  0  0  0  0
 41 43  1  0  0  0  0
 41 46  1  0  0  0  0
 42 48  1  0  0  0  0
 43 50  1  0  0  0  0
 44 45  1  0  0  0  0
 44 51  1  0  0  0  0
 45 51  1  0  0  0  0
 46 69  1  0  0  0  0
 47 50  1  0  0  0  0
 47 69  1  0  0  0  0
 48 72  1  0  0  0  0
 49 68  1  0  0  0  0
 50 67  1  0  0  0  0
 51 59  1  0  0  0  0
 53 62  1  0  0  0  0
 54 63  1  0  0  0  0
 55 63  1  0  0  0  0
 56 63  1  0  0  0  0
 57 75  1  0  0  0  0
 58 74  1  0  0  0  0
 59 60  1  0  0  0  0
 60 82  1  0  0  0  0
 61 63  1  0  0  0  0
 61 73  1  0  0  0  0
 62 75  1  0  0  0  0
 65 67  1  0  0  0  0
M  CHG  1  75   1
M  ISO  4  36 100  60 101  74 100  82 101
M  END
> <Batch ID>
0176

> <Smiles>
CNC(C)C(=O)NC(C(=O)N1Cc2cc([101O:1][101CH2:1]CC3(c4ncc(C[100NH:0][100C:0](=O)N5CCCC(n6nc(-c7ccc(Oc8ccc(F)cc8F)cc7)c(C(N)=O)c6N)C5)c(C)n4)CC3)ccc2CC1C(=O)NC1CCCc2ccccc21)C(C)(C)C

> <Shape>
0.129

> <Color>
0.174

> <Negative vol penalty>
0.000

$$$$

  -OEChem-04052322503D

 83 92  0     1  0  0  0  0  0999 V2000
  -25.1233  -33.8918   21.6001 C   0  0  0  0  0  0  0  0  0  0  0  0
  -26.0790  -32.9617   21.2038 C   0  0  0  0  0  0  0  0  0  0  0  0
  -23.0707   -9.8774   19.9546 C   0  0  0  0  0  0  0  0  0  0  0  0
  -23.7113   -9.9684   22.2823 C   0  0  0  0  0  0  0  0  0  0  0  0
  -24.0354  -33.4860   22.3719 C   0  0  0  0  0  0  0  0  0  0  0  0
  -25.9479  -31.6254   21.5800 C   0  0  0  0  0  0  0  0  0  0  0  0
  -27.3340  -25.0020   19.2293 C   0  0  0  0  0  0  0  0  0  0  0  0
  -22.3108   -8.7356   20.2084 C   0  0  0  0  0  0  0  0  0  0  0  0
  -22.9514   -8.8266   22.5361 C   0  0  0  0  0  0  0  0  0  0  0  0
  -27.9605  -23.8244   19.6347 C   0  0  0  0  0  0  0  0  0  0  0  0
  -23.2588   -5.4857   22.1180 C   0  0  0  0  0  0  0  0  0  0  0  0
  -23.8328   -4.4868   22.9043 C   0  0  0  0  0  0  0  0  0  0  0  0
  -25.9979  -23.2237   20.9021 C   0  0  0  0  0  0  0  0  0  0  0  0
  -28.1967  -18.7404   21.1499 C   0  0  0  0  0  0  0  0  0  0  0  0
  -22.0463   -4.7266   24.5131 C   0  0  0  0  0  0  0  0  0  0  0  0
  -23.7710  -10.4938   20.9916 C   0  0  0  0  0  0  0  0  0  0  0  0
  -24.1276  -13.0122   20.7958 C   0  0  0  0  0  0  0  0  0  0  0  0
  -23.8858  -32.1423   22.7497 C   0  0  0  0  0  0  0  0  0  0  0  0
  -26.0366  -25.3051   19.6668 C   0  0  0  0  0  0  0  0  0  0  0  0
  -24.8577  -31.2015   22.3587 C   0  0  0  0  0  0  0  0  0  0  0  0
  -25.3561  -24.4046   20.4988 C   0  0  0  0  0  0  0  0  0  0  0  0
  -28.9799  -17.6748   21.5454 C   0  0  0  0  0  0  0  0  0  0  0  0
  -29.5281  -17.6215   22.8245 C   0  0  0  0  0  0  0  0  0  0  0  0
  -22.2511   -8.2102   21.4991 C   0  0  0  0  0  0  0  0  0  0  0  0
  -27.2936  -22.9363   20.4736 C   0  0  0  0  0  0  0  0  0  0  0  0
  -22.0786   -6.1051   22.5293 C   0  0  0  0  0  0  0  0  0  0  0  0
  -23.2265   -4.1072   24.1018 C   0  0  0  0  0  0  0  0  0  0  0  0
  -21.4723   -5.7256   23.7268 C   0  0  0  0  0  0  0  0  0  0  0  0
  -24.5566  -11.6730   20.7299 C   0  0  0  0  0  0  0  0  0  0  0  0
  -27.9979  -19.7380   22.0924 C   0  0  0  0  0  0  0  0  0  0  0  0
  -29.2749  -18.6617   23.6923 C   0  0  0  0  0  0  0  0  0  0  0  0
  -25.2397  -13.7458   20.4619 C   0  0  0  0  0  0  0  0  0  0  0  0
  -22.8391  -13.5453   21.1292 C   0  0  0  0  0  0  0  0  0  0  0  0
  -24.7393  -27.6365   21.3945 C   0  0  0  0  0  0  0  0  0  0  0  0
  -21.9643  -26.1702   20.5751 C   0  0  0  0  0  0  0  0  0  0  0  0
  -20.3786  -23.3149   19.5852 C   0  0  0  0  0  0  0  0  0  0  0  0
  -30.7579  -14.4294   21.4042 C   0  0  0  0  0  0  0  0  0  0  0  0
  -22.7181  -31.7597   23.6242 C   0  0  0  0  0  0  0  0  0  0  0  0
  -25.3646  -26.5667   19.1989 C   0  0  0  0  0  0  0  0  0  0  0  0
  -23.9546  -24.6736   20.9801 C   0  0  0  0  0  0  0  0  0  0  0  0
  -29.3819  -16.4793   20.7523 C   0  0  0  0  0  0  0  0  0  0  0  0
  -22.4546  -30.2567   23.6653 C   0  0  0  0  0  0  0  0  0  0  0  0
  -29.6908  -12.3045   18.5423 C   0  0  0  0  0  0  0  0  0  0  0  0
  -23.7571  -29.4921   23.8793 C   0  0  0  0  0  0  0  0  0  0  0  0
  -28.2308  -12.0248   18.9041 C   0  0  0  0  0  0  0  0  0  0  0  0
  -30.5273  -12.5335   19.7938 C   0  0  0  0  0  0  0  0  0  0  0  0
  -28.5672  -13.3541   21.0426 C   0  0  0  0  0  0  0  0  0  0  0  0
  -24.7372  -29.7384   22.7260 C   0  0  1  0  0  0  0  0  0  0  0  0
  -24.2361  -27.0196   20.1202 C   0  0  1  0  0  0  0  0  0  0  0  0
  -27.6622  -13.1247   19.8201 C   0  0  2  0  0  0  0  0  0  0  0  0
  -30.3202  -16.3511   23.0225 C   0  0  0  0  0  0  0  0  0  0  0  0
  -29.8192  -18.6876   25.0787 C   0  0  0  0  0  0  0  0  0  0  0  0
  -31.7743  -16.6657   23.3917 C   0  0  0  0  0  0  0  0  0  0  0  0
  -29.6420  -15.5043   24.1113 C   0  0  0  0  0  0  0  0  0  0  0  0
  -18.1015  -22.4166   19.0327 C   0  0  0  0  0  0  0  0  0  0  0  0
  -21.2851  -26.0700   23.5480 C   0  0  0  0  0  0  0  0  0  0  0  0
  -19.5282  -24.3668   23.0180 C   0  0  0  0  0  0  0  0  0  0  0  0
  -19.3656  -26.6639   22.0589 C   0  0  0  0  0  0  0  0  0  0  0  0
  -21.1835  -22.6560   16.8145 C   0  0  0  0  0  0  0  0  0  0  0  0
  -27.1630  -20.9217   21.7306 C   0  0  0  0  0  0  0  0  0  1  0  0
  -21.1184  -25.0719   21.1727 C   0  0  1  0  0  0  0  0  0  0  0  0
  -19.3679  -23.0544   18.4829 C   0  0  2  0  0  0  0  0  0  0  0  0
  -20.3515  -25.5387   22.4421 C   0  0  0  0  0  0  0  0  0  0  0  0
  -25.8410  -11.5596   20.3814 N   0  0  0  0  0  0  0  0  0  0  0  0
  -28.5158  -19.7281   23.3495 N   0  0  0  0  0  0  0  0  0  0  0  0
  -26.2286  -12.8368   20.2252 N   0  0  0  0  0  0  0  0  0  0  0  0
  -23.3424  -25.9236   20.5002 N   0  0  0  0  0  0  0  0  0  0  0  0
  -30.2439  -15.7072   21.6725 N   0  0  0  0  0  0  0  0  0  0  0  0
  -29.9487  -13.5901   20.6261 N   0  0  0  0  0  0  0  0  0  0  0  0
  -25.4584  -15.0733   20.3506 N   0  0  0  0  0  0  0  0  0  0  0  0
  -21.8079  -12.6510   21.4472 N   0  0  0  0  0  0  0  0  0  0  0  0
  -24.3629  -28.9547   21.5684 N   0  0  0  0  0  0  0  0  0  0  0  0
  -20.2577  -24.5891   20.0983 N   0  0  0  0  0  0  0  0  0  0  0  0
  -19.9456  -22.1425   17.4554 N   0  3  0  0  0  0  0  0  0  0  0  0
  -22.6046  -14.7776   21.1286 O   0  0  0  0  0  0  0  0  0  0  0  0
  -25.4176  -26.9658   22.1638 O   0  0  0  0  0  0  0  0  0  0  0  0
  -21.4212  -27.2059   20.1823 O   0  0  0  0  0  0  0  0  0  0  0  0
  -21.1914  -22.4712   19.9567 O   0  0  0  0  0  0  0  0  0  0  0  0
  -31.8339  -14.0299   21.8616 O   0  0  0  0  0  0  0  0  0  0  0  0
  -21.5095   -7.0962   21.7472 O   0  0  0  0  0  0  0  0  0  0  0  0
  -27.9074  -21.7783   20.8741 O   0  0  0  0  0  0  0  0  0  1  0  0
  -23.7770   -3.1468   24.8560 F   0  0  0  0  0  0  0  0  0  0  0  0
  -20.3378   -6.3162   24.1265 F   0  0  0  0  0  0  0  0  0  0  0  0
  1  2  1  0  0  0  0
  1  5  2  0  0  0  0
  2  6  2  0  0  0  0
  3  8  2  0  0  0  0
  3 16  1  0  0  0  0
  4  9  1  0  0  0  0
  4 16  2  0  0  0  0
  5 18  1  0  0  0  0
  6 20  1  0  0  0  0
  7 10  2  0  0  0  0
  7 19  1  0  0  0  0
  8 24  1  0  0  0  0
  9 24  2  0  0  0  0
 10 25  1  0  0  0  0
 11 12  2  0  0  0  0
 11 26  1  0  0  0  0
 12 27  1  0  0  0  0
 13 21  1  0  0  0  0
 13 25  2  0  0  0  0
 14 22  2  0  0  0  0
 14 30  1  0  0  0  0
 15 27  2  0  0  0  0
 15 28  1  0  0  0  0
 16 29  1  0  0  0  0
 17 29  1  0  0  0  0
 17 32  2  0  0  0  0
 17 33  1  0  0  0  0
 18 20  2  0  0  0  0
 18 38  1  0  0  0  0
 19 21  2  0  0  0  0
 19 39  1  0  0  0  0
 20 48  1  0  0  0  0
 21 40  1  0  0  0  0
 22 23  1  0  0  0  0
 22 41  1  0  0  0  0
 23 31  2  0  0  0  0
 23 51  1  0  0  0  0
 24 80  1  0  0  0  0
 25 81  1  0  0  0  0
 26 28  2  0  0  0  0
 26 80  1  0  0  0  0
 27 82  1  0  0  0  0
 28 83  1  0  0  0  0
 29 64  2  0  0  0  0
 30 60  1  0  0  0  0
 30 65  2  0  0  0  0
 31 52  1  0  0  0  0
 31 65  1  0  0  0  0
 32 66  1  0  0  0  0
 32 70  1  0  0  0  0
 33 71  1  0  0  0  0
 33 75  2  0  0  0  0
 34 49  1  0  0  0  0
 34 72  1  0  0  0  0
 34 76  2  0  0  0  0
 35 61  1  0  0  0  0
 35 67  1  0  0  0  0
 35 77  2  0  0  0  0
 36 62  1  0  0  0  0
 36 73  1  0  0  0  0
 36 78  2  0  0  0  0
 37 68  1  0  0  0  0
 37 69  1  0  0  0  0
 37 79  2  0  0  0  0
 38 42  1  0  0  0  0
 39 49  1  0  0  0  0
 40 67  1  0  0  0  0
 41 68  1  0  0  0  0
 42 44  1  0  0  0  0
 43 45  1  0  0  0  0
 43 46  1  0  0  0  0
 44 48  1  0  0  0  0
 45 50  1  0  0  0  0
 46 69  1  0  0  0  0
 47 50  1  0  0  0  0
 47 69  1  0  0  0  0
 48 72  1  0  0  0  0
 49 67  1  0  0  0  0
 50 66  1  0  0  0  0
 51 53  1  0  0  0  0
 51 54  1  0  0  0  0
 51 68  1  0  0  0  0
 55 62  1  0  0  0  0
 56 63  1  0  0  0  0
 57 63  1  0  0  0  0
 58 63  1  0  0  0  0
 59 74  1  0  0  0  0
 60 81  1  0  0  0  0
 61 63  1  0  0  0  0
 61 73  1  0  0  0  0
 62 74  1  0  0  0  0
 64 66  1  0  0  0  0
M  CHG  1  74   1
M  ISO  4  37 100  60 101  68 100  81 101
M  END
> <Batch ID>
0176

> <Smiles>
CNC(C)C(=O)NC(C(=O)N1Cc2cc([101O:1][101CH2:1]c3cc4c(c(C)n3)C(C)(C)[100N:0]([100C:0](=O)N3CCCC(n5nc(-c6ccc(Oc7ccc(F)cc7F)cc6)c(C(N)=O)c5N)C3)C4)ccc2CC1C(=O)NC1CCCc2ccccc21)C(C)(C)C

> <Shape>
0.295

> <Color>
0.177

> <Negative vol penalty>
0.000

$$$$

  -OEChem-04052322503D

 86 96  0     1  0  0  0  0  0999 V2000
  -24.1836  -35.0172   26.2261 C   0  0  0  0  0  0  0  0  0  0  0  0
  -25.1031  -34.1430   25.6554 C   0  0  0  0  0  0  0  0  0  0  0  0
  -26.4503  -13.9802   20.9484 C   0  0  0  0  0  0  0  0  0  0  0  0
  -27.2747  -11.9004   21.8605 C   0  0  0  0  0  0  0  0  0  0  0  0
  -22.8535  -34.6272   26.3771 C   0  0  0  0  0  0  0  0  0  0  0  0
  -24.6932  -32.8778   25.2363 C   0  0  0  0  0  0  0  0  0  0  0  0
  -26.7839  -29.7423   20.4089 C   0  0  0  0  0  0  0  0  0  0  0  0
  -25.4333  -13.2885   20.2905 C   0  0  0  0  0  0  0  0  0  0  0  0
  -26.2576  -11.2087   21.2026 C   0  0  0  0  0  0  0  0  0  0  0  0
  -27.7242  -28.7198   20.2903 C   0  0  0  0  0  0  0  0  0  0  0  0
  -22.9607  -10.6144   21.6468 C   0  0  0  0  0  0  0  0  0  0  0  0
  -22.2684   -9.6420   22.3685 C   0  0  0  0  0  0  0  0  0  0  0  0
  -25.9486  -27.0880   20.3515 C   0  0  0  0  0  0  0  0  0  0  0  0
  -22.9689   -7.9632   20.7785 C   0  0  0  0  0  0  0  0  0  0  0  0
  -28.7858  -21.7995   18.9410 C   0  0  0  0  0  0  0  0  0  0  0  0
  -30.9025  -21.8500   18.3476 C   0  0  0  0  0  0  0  0  0  0  0  0
  -27.3711  -13.2861   21.7334 C   0  0  0  0  0  0  0  0  0  0  0  0
  -28.3770  -14.5498   23.7079 C   0  0  0  0  0  0  0  0  0  0  0  0
  -22.4251  -33.3602   25.9508 C   0  0  0  0  0  0  0  0  0  0  0  0
  -25.4174  -29.4443   20.5108 C   0  0  0  0  0  0  0  0  0  0  0  0
  -23.3565  -32.4700   25.3829 C   0  0  0  0  0  0  0  0  0  0  0  0
  -24.9928  -28.1086   20.4687 C   0  0  0  0  0  0  0  0  0  0  0  0
  -29.7015  -22.4728   18.1104 C   0  0  0  0  0  0  0  0  0  0  0  0
  -25.3369  -11.9028   20.4176 C   0  0  0  0  0  0  0  0  0  0  0  0
  -27.3069  -27.3923   20.2645 C   0  0  0  0  0  0  0  0  0  0  0  0
  -23.6570  -10.2612   20.4909 C   0  0  0  0  0  0  0  0  0  0  0  0
  -22.2725   -8.3165   21.9343 C   0  0  0  0  0  0  0  0  0  0  0  0
  -23.6611   -8.9357   20.0567 C   0  0  0  0  0  0  0  0  0  0  0  0
  -28.4223  -13.9999   22.4128 C   0  0  0  0  0  0  0  0  0  0  0  0
  -29.6156  -15.1168   23.8837 C   0  0  0  0  0  0  0  0  0  0  0  0
  -27.3108  -14.5480   24.6665 C   0  0  0  0  0  0  0  0  0  0  0  0
  -23.1755  -29.9223   22.7128 C   0  0  0  0  0  0  0  0  0  0  0  0
  -21.2184  -28.7249   20.4197 C   0  0  0  0  0  0  0  0  0  0  0  0
  -20.8723  -26.8070   17.6181 C   0  0  0  0  0  0  0  0  0  0  0  0
  -33.6603  -17.1606   19.9161 C   0  0  0  0  0  0  0  0  0  0  0  0
  -20.9873  -32.9656   26.1780 C   0  0  0  0  0  0  0  0  0  0  0  0
  -24.4136  -30.5599   20.6113 C   0  0  0  0  0  0  0  0  0  0  0  0
  -23.5358  -27.7366   20.5543 C   0  0  0  0  0  0  0  0  0  0  0  0
  -20.5541  -31.7480   25.3655 C   0  0  0  0  0  0  0  0  0  0  0  0
  -34.1756  -14.6797   22.4884 C   0  0  0  0  0  0  0  0  0  0  0  0
  -21.5981  -30.6405   25.4657 C   0  0  0  0  0  0  0  0  0  0  0  0
  -28.3682  -24.0165   14.7966 C   0  0  0  0  0  0  0  0  0  0  0  0
  -28.8003  -22.5774   14.8418 C   0  0  0  0  0  0  0  0  0  0  0  0
  -32.7543  -14.2553   22.8628 C   0  0  0  0  0  0  0  0  0  0  0  0
  -34.2938  -15.0364   21.0074 C   0  0  0  0  0  0  0  0  0  0  0  0
  -31.9000  -15.5975   20.9056 C   0  0  0  0  0  0  0  0  0  0  0  0
  -32.8427  -19.3567   18.9032 C   0  0  0  0  0  0  0  0  0  0  0  0
  -31.3732  -18.4196   20.1089 C   0  0  0  0  0  0  0  0  0  0  0  0
  -22.9450  -31.0985   24.8932 C   0  0  1  0  0  0  0  0  0  0  0  0
  -23.0889  -30.1182   21.2256 C   0  0  1  0  0  0  0  0  0  0  0  0
  -28.3870  -23.2781   16.1063 C   0  0  0  0  0  0  0  0  0  0  0  0
  -31.7214  -15.3009   22.4018 C   0  0  1  0  0  0  0  0  0  0  0  0
  -31.7464  -19.8992   19.8486 C   0  0  0  0  0  0  0  0  0  0  0  0
  -19.1445  -25.9859   15.9940 C   0  0  0  0  0  0  0  0  0  0  0  0
  -20.2383  -26.7058   22.4868 C   0  0  0  0  0  0  0  0  0  0  0  0
  -19.2714  -25.3592   20.6106 C   0  0  0  0  0  0  0  0  0  0  0  0
  -18.4423  -27.6725   21.0396 C   0  0  0  0  0  0  0  0  0  0  0  0
  -22.2081  -28.1458   15.3417 C   0  0  0  0  0  0  0  0  0  0  0  0
  -29.9728  -25.4147   18.8213 C   0  0  0  0  0  0  0  0  0  0  0  0
  -29.4201  -26.6876   19.4316 C   0  0  0  0  0  0  0  0  0  1  0  0
  -29.4275  -23.6228   17.1689 C   0  0  1  0  0  0  0  0  0  0  0  0
  -20.7397  -27.3455   20.0362 C   0  0  1  0  0  0  0  0  0  0  0  0
  -20.1680  -27.0685   16.2990 C   0  0  2  0  0  0  0  0  0  0  0  0
  -19.7006  -26.7773   21.0436 C   0  0  0  0  0  0  0  0  0  0  0  0
  -29.3561  -20.8235   19.6525 N   0  0  0  0  0  0  0  0  0  0  0  0
  -29.5965  -14.1998   21.8085 N   0  0  0  0  0  0  0  0  0  0  0  0
  -30.6431  -20.8790   19.2697 N   0  0  0  0  0  0  0  0  0  0  0  0
  -30.3006  -14.8816   22.7280 N   0  0  0  0  0  0  0  0  0  0  0  0
  -22.5932  -28.8628   20.6577 N   0  0  0  0  0  0  0  0  0  0  0  0
  -33.2774  -16.0209   20.6280 N   0  0  0  0  0  0  0  0  0  0  0  0
  -32.6934  -18.0859   19.6021 N   0  0  0  0  0  0  0  0  0  0  0  0
  -30.1746  -15.7888   24.9124 N   0  0  0  0  0  0  0  0  0  0  0  0
  -26.1052  -13.9207   24.3237 N   0  0  0  0  0  0  0  0  0  0  0  0
  -22.9172  -31.0643   23.4467 N   0  0  0  0  0  0  0  0  0  0  0  0
  -20.2486  -27.4500   18.6664 N   0  0  0  0  0  0  0  0  0  0  0  0
  -21.1556  -27.1093   15.1837 N   0  3  0  0  0  0  0  0  0  0  0  0
  -28.9750  -24.8501   17.8779 N   0  3  0  0  0  0  0  0  0  0  0  0
  -27.4181  -15.1010   25.7872 O   0  0  0  0  0  0  0  0  0  0  0  0
  -23.4544  -28.8165   23.1613 O   0  0  0  0  0  0  0  0  0  0  0  0
  -20.4035  -29.6476   20.4980 O   0  0  0  0  0  0  0  0  0  0  0  0
  -21.8733  -26.0998   17.7100 O   0  0  0  0  0  0  0  0  0  0  0  0
  -34.8387  -17.3637   19.5951 O   0  0  0  0  0  0  0  0  0  0  0  0
  -24.3445  -11.2276   19.7759 O   0  0  0  0  0  0  0  0  0  0  0  0
  -28.2227  -26.3923   20.1495 O   0  0  0  0  0  0  0  0  0  1  0  0
  -21.6089   -7.3825   22.6283 F   0  0  0  0  0  0  0  0  0  0  0  0
  -24.3293   -8.5901   18.9477 F   0  0  0  0  0  0  0  0  0  0  0  0
  1  2  1  0  0  0  0
  1  5  2  0  0  0  0
  2  6  2  0  0  0  0
  3  8  2  0  0  0  0
  3 17  1  0  0  0  0
  4  9  1  0  0  0  0
  4 17  2  0  0  0  0
  5 19  1  0  0  0  0
  6 21  1  0  0  0  0
  7 10  2  0  0  0  0
  7 20  1  0  0  0  0
  8 24  1  0  0  0  0
  9 24  2  0  0  0  0
 10 25  1  0  0  0  0
 11 12  2  0  0  0  0
 11 26  1  0  0  0  0
 12 27  1  0  0  0  0
 13 22  1  0  0  0  0
 13 25  2  0  0  0  0
 14 27  2  0  0  0  0
 14 28  1  0  0  0  0
 15 23  1  0  0  0  0
 15 65  2  0  0  0  0
 16 23  2  0  0  0  0
 16 67  1  0  0  0  0
 17 29  1  0  0  0  0
 18 29  1  0  0  0  0
 18 30  2  0  0  0  0
 18 31  1  0  0  0  0
 19 21  2  0  0  0  0
 19 36  1  0  0  0  0
 20 22  2  0  0  0  0
 20 37  1  0  0  0  0
 21 49  1  0  0  0  0
 22 38  1  0  0  0  0
 23 61  1  0  0  0  0
 24 83  1  0  0  0  0
 25 84  1  0  0  0  0
 26 28  2  0  0  0  0
 26 83  1  0  0  0  0
 27 85  1  0  0  0  0
 28 86  1  0  0  0  0
 29 66  2  0  0  0  0
 30 68  1  0  0  0  0
 30 72  1  0  0  0  0
 31 73  1  0  0  0  0
 31 78  2  0  0  0  0
 32 50  1  0  0  0  0
 32 74  1  0  0  0  0
 32 79  2  0  0  0  0
 33 62  1  0  0  0  0
 33 69  1  0  0  0  0
 33 80  2  0  0  0  0
 34 63  1  0  0  0  0
 34 75  1  0  0  0  0
 34 81  2  0  0  0  0
 35 70  1  0  0  0  0
 35 71  1  0  0  0  0
 35 82  2  0  0  0  0
 36 39  1  0  0  0  0
 37 50  1  0  0  0  0
 38 69  1  0  0  0  0
 39 41  1  0  0  0  0
 40 44  1  0  0  0  0
 40 45  1  0  0  0  0
 41 49  1  0  0  0  0
 42 43  1  0  0  0  0
 42 51  1  0  0  0  0
 43 51  1  0  0  0  0
 44 52  1  0  0  0  0
 45 70  1  0  0  0  0
 46 52  1  0  0  0  0
 46 70  1  0  0  0  0
 47 53  1  0  0  0  0
 47 71  1  0  0  0  0
 48 53  1  0  0  0  0
 48 71  1  0  0  0  0
 49 74  1  0  0  0  0
 50 69  1  0  0  0  0
 51 61  1  0  0  0  0
 52 68  1  0  0  0  0
 53 67  1  0  0  0  0
 54 63  1  0  0  0  0
 55 64  1  0  0  0  0
 56 64  1  0  0  0  0
 57 64  1  0  0  0  0
 58 76  1  0  0  0  0
 59 60  1  0  0  0  0
 59 77  1  0  0  0  0
 60 84  1  0  0  0  0
 61 77  1  0  0  0  0
 62 64  1  0  0  0  0
 62 75  1  0  0  0  0
 63 76  1  0  0  0  0
 65 67  1  0  0  0  0
 66 68  1  0  0  0  0
M  CHG  2  76   1  77   1
M  ISO  4  35 100  60 101  71 100  84 101
M  END
> <Batch ID>
0176

> <Smiles>
CNC(C)C(=O)NC(C(=O)N1Cc2cc([101O:1][101CH2:1]CNC(c3cnn(C4C[100N:0]([100C:0](=O)N5CCCC(n6nc(-c7ccc(Oc8ccc(F)cc8F)cc7)c(C(N)=O)c6N)C5)C4)c3)C3CC3)ccc2CC1C(=O)NC1CCCc2ccccc21)C(C)(C)C

> <Shape>
0.239

> <Color>
0.094

> <Negative vol penalty>
0.000

$$$$

  -OEChem-04052322503D

 85 94  0     1  0  0  0  0  0999 V2000
  -22.3111  -11.1942   21.9649 C   0  0  0  0  0  0  0  0  0  0  0  0
  -21.9818  -12.5306   22.1673 C   0  0  0  0  0  0  0  0  0  0  0  0
  -29.9732  -26.9187   21.7331 C   0  0  0  0  0  0  0  0  0  0  0  0
  -28.3571  -25.1690   22.1375 C   0  0  0  0  0  0  0  0  0  0  0  0
  -23.5777  -10.8534   21.4919 C   0  0  0  0  0  0  0  0  0  0  0  0
  -22.9194  -13.5270   21.8979 C   0  0  0  0  0  0  0  0  0  0  0  0
  -20.9308  -17.4295   19.3560 C   0  0  0  0  0  0  0  0  0  0  0  0
  -30.8952  -26.2541   22.5417 C   0  0  0  0  0  0  0  0  0  0  0  0
  -29.2791  -24.5043   22.9461 C   0  0  0  0  0  0  0  0  0  0  0  0
  -20.1763  -18.3468   20.0861 C   0  0  0  0  0  0  0  0  0  0  0  0
  -31.9849  -22.5236   22.5265 C   0  0  0  0  0  0  0  0  0  0  0  0
  -32.1256  -21.1471   22.3500 C   0  0  0  0  0  0  0  0  0  0  0  0
  -22.0711  -19.8380   20.1591 C   0  0  0  0  0  0  0  0  0  0  0  0
  -17.9237  -27.1368   22.8529 C   0  0  0  0  0  0  0  0  0  0  0  0
  -20.2806  -26.8277   22.4867 C   0  0  0  0  0  0  0  0  0  0  0  0
  -31.4714  -20.7857   24.6475 C   0  0  0  0  0  0  0  0  0  0  0  0
  -28.7041  -26.3762   21.5311 C   0  0  0  0  0  0  0  0  0  0  0  0
  -27.5702  -26.9087   19.3088 C   0  0  0  0  0  0  0  0  0  0  0  0
  -24.5279  -11.8467   21.2074 C   0  0  0  0  0  0  0  0  0  0  0  0
  -22.2667  -17.7053   19.0308 C   0  0  0  0  0  0  0  0  0  0  0  0
  -24.2003  -13.1991   21.4219 C   0  0  0  0  0  0  0  0  0  0  0  0
  -22.8396  -18.9236   19.4226 C   0  0  0  0  0  0  0  0  0  0  0  0
  -19.0148  -26.2901   22.6921 C   0  0  0  0  0  0  0  0  0  0  0  0
  -30.5482  -25.0468   23.1481 C   0  0  0  0  0  0  0  0  0  0  0  0
  -20.7473  -19.5500   20.4903 C   0  0  0  0  0  0  0  0  0  0  0  0
  -31.5876  -23.0311   23.7636 C   0  0  0  0  0  0  0  0  0  0  0  0
  -31.8688  -20.2782   23.4105 C   0  0  0  0  0  0  0  0  0  0  0  0
  -31.3308  -22.1622   24.8240 C   0  0  0  0  0  0  0  0  0  0  0  0
  -27.7511  -27.0626   20.6964 C   0  0  0  0  0  0  0  0  0  0  0  0
  -18.1496  -28.5028   22.8006 C   0  0  0  0  0  0  0  0  0  0  0  0
  -20.4009  -28.2076   22.4505 C   0  0  0  0  0  0  0  0  0  0  0  0
  -26.5519  -27.7760   18.9970 C   0  0  0  0  0  0  0  0  0  0  0  0
  -28.2609  -26.0577   18.3845 C   0  0  0  0  0  0  0  0  0  0  0  0
  -25.0641  -16.3545   19.7042 C   0  0  0  0  0  0  0  0  0  0  0  0
  -26.1936  -18.5679   17.6192 C   0  0  0  0  0  0  0  0  0  0  0  0
  -25.7646  -21.5841   16.0814 C   0  0  0  0  0  0  0  0  0  0  0  0
  -22.0481  -30.0926   22.1679 C   0  0  0  0  0  0  0  0  0  0  0  0
  -25.9000  -11.4270   20.7428 C   0  0  0  0  0  0  0  0  0  0  0  0
  -23.0589  -16.7169   18.2197 C   0  0  0  0  0  0  0  0  0  0  0  0
  -24.2635  -19.2764   19.0814 C   0  0  0  0  0  0  0  0  0  0  0  0
  -26.7088  -12.5651   20.1257 C   0  0  0  0  0  0  0  0  0  0  0  0
  -24.5741  -31.8973   20.4245 C   0  0  0  0  0  0  0  0  0  0  0  0
  -26.6274  -13.8128   20.9995 C   0  0  0  0  0  0  0  0  0  0  0  0
  -25.6564  -30.8468   20.1647 C   0  0  0  0  0  0  0  0  0  0  0  0
  -19.3199  -24.1158   21.4712 C   0  0  0  0  0  0  0  0  0  0  0  0
  -23.9052  -31.6983   21.7834 C   0  0  0  0  0  0  0  0  0  0  0  0
  -24.4611  -29.2984   21.7649 C   0  0  0  0  0  0  0  0  0  0  0  0
  -19.6870  -24.1507   23.8192 C   0  0  0  0  0  0  0  0  0  0  0  0
  -18.8289  -24.8158   22.7393 C   0  0  1  0  0  0  0  0  0  0  0  0
  -25.1817  -14.3102   21.1177 C   0  0  1  0  0  0  0  0  0  0  0  0
  -24.5666  -16.8788   18.3869 C   0  0  1  0  0  0  0  0  0  0  0  0
  -25.1187  -29.4185   20.3805 C   0  0  2  0  0  0  0  0  0  0  0  0
  -19.4047  -22.6568   21.8970 C   0  0  1  0  0  0  0  0  0  0  0  0
  -17.0017  -29.4417   22.9684 C   0  0  0  0  0  0  0  0  0  0  0  0
  -26.8741  -23.1430   14.4577 C   0  0  0  0  0  0  0  0  0  0  0  0
  -28.1549  -19.4307   19.7915 C   0  0  0  0  0  0  0  0  0  0  0  0
  -28.5515  -21.5379   18.4990 C   0  0  0  0  0  0  0  0  0  0  0  0
  -29.1261  -19.3305   17.4891 C   0  0  0  0  0  0  0  0  0  0  0  0
  -19.3667  -21.6787   24.2269 C   0  0  0  0  0  0  0  0  0  0  0  0
  -23.5010  -21.4043   14.1832 C   0  0  0  0  0  0  0  0  0  0  0  0
  -20.3357  -21.8272   21.0389 C   0  0  0  0  0  0  0  0  0  1  0  0
  -26.6968  -19.9865   17.7345 C   0  0  1  0  0  0  0  0  0  0  0  0
  -25.8861  -21.9992   14.6262 C   0  0  2  0  0  0  0  0  0  0  0  0
  -28.1061  -20.0642   18.3868 C   0  0  0  0  0  0  0  0  0  0  0  0
  -26.9148  -27.9574   21.2293 N   0  0  0  0  0  0  0  0  0  0  0  0
  -19.3644  -29.0620   22.6028 N   0  0  0  0  0  0  0  0  0  0  0  0
  -26.1987  -28.3737   20.1710 N   0  0  0  0  0  0  0  0  0  0  0  0
  -24.9991  -18.2746   18.2922 N   0  0  0  0  0  0  0  0  0  0  0  0
  -23.4167  -30.3239   21.9147 N   0  0  0  0  0  0  0  0  0  0  0  0
  -25.9332  -28.0781   17.8359 N   0  0  0  0  0  0  0  0  0  0  0  0
  -29.2808  -25.2295   18.8726 N   0  0  0  0  0  0  0  0  0  0  0  0
  -21.6948  -28.7455   22.2403 N   0  0  0  0  0  0  0  0  0  0  0  0
  -24.7905  -15.0168   19.9168 N   0  0  0  0  0  0  0  0  0  0  0  0
  -26.6274  -20.5546   16.3925 N   0  0  0  0  0  0  0  0  0  0  0  0
  -19.9270  -22.7343   23.3222 N   0  3  2  0  0  0  0  0  0  0  0  0
  -24.5629  -22.4400   14.1011 N   0  3  0  0  0  0  0  0  0  0  0  0
  -27.9930  -26.0445   17.1591 O   0  0  0  0  0  0  0  0  0  0  0  0
  -25.6538  -17.1074   20.4704 O   0  0  0  0  0  0  0  0  0  0  0  0
  -26.8329  -17.7519   16.9505 O   0  0  0  0  0  0  0  0  0  0  0  0
  -24.9851  -22.1221   16.8646 O   0  0  0  0  0  0  0  0  0  0  0  0
  -21.2435  -31.0207   22.2829 O   0  0  0  0  0  0  0  0  0  0  0  0
  -31.4477  -24.3979   23.9370 O   0  0  0  0  0  0  0  0  0  0  0  0
  -20.0133  -20.4469   21.2036 O   0  0  0  0  0  0  0  0  0  1  0  0
  -32.0024  -18.9563   23.2404 F   0  0  0  0  0  0  0  0  0  0  0  0
  -30.9477  -22.6438   26.0144 F   0  0  0  0  0  0  0  0  0  0  0  0
  1  2  1  0  0  0  0
  1  5  2  0  0  0  0
  2  6  2  0  0  0  0
  3  8  2  0  0  0  0
  3 17  1  0  0  0  0
  4  9  1  0  0  0  0
  4 17  2  0  0  0  0
  5 19  1  0  0  0  0
  6 21  1  0  0  0  0
  7 10  2  0  0  0  0
  7 20  1  0  0  0  0
  8 24  1  0  0  0  0
  9 24  2  0  0  0  0
 10 25  1  0  0  0  0
 11 12  2  0  0  0  0
 11 26  1  0  0  0  0
 12 27  1  0  0  0  0
 13 22  1  0  0  0  0
 13 25  2  0  0  0  0
 14 23  1  0  0  0  0
 14 30  2  0  0  0  0
 15 23  2  0  0  0  0
 15 31  1  0  0  0  0
 16 27  2  0  0  0  0
 16 28  1  0  0  0  0
 17 29  1  0  0  0  0
 18 29  1  0  0  0  0
 18 32  2  0  0  0  0
 18 33  1  0  0  0  0
 19 21  2  0  0  0  0
 19 38  1  0  0  0  0
 20 22  2  0  0  0  0
 20 39  1  0  0  0  0
 21 50  1  0  0  0  0
 22 40  1  0  0  0  0
 23 49  1  0  0  0  0
 24 82  1  0  0  0  0
 25 83  1  0  0  0  0
 26 28  2  0  0  0  0
 26 82  1  0  0  0  0
 27 84  1  0  0  0  0
 28 85  1  0  0  0  0
 29 65  2  0  0  0  0
 30 54  1  0  0  0  0
 30 66  1  0  0  0  0
 31 66  2  0  0  0  0
 31 72  1  0  0  0  0
 32 67  1  0  0  0  0
 32 70  1  0  0  0  0
 33 71  1  0  0  0  0
 33 77  2  0  0  0  0
 34 51  1  0  0  0  0
 34 73  1  0  0  0  0
 34 78  2  0  0  0  0
 35 62  1  0  0  0  0
 35 68  1  0  0  0  0
 35 79  2  0  0  0  0
 36 63  1  0  0  0  0
 36 74  1  0  0  0  0
 36 80  2  0  0  0  0
 37 69  1  0  0  0  0
 37 72  1  0  0  0  0
 37 81  2  0  0  0  0
 38 41  1  0  0  0  0
 39 51  1  0  0  0  0
 40 68  1  0  0  0  0
 41 43  1  0  0  0  0
 42 44  1  0  0  0  0
 42 46  1  0  0  0  0
 43 50  1  0  0  0  0
 44 52  1  0  0  0  0
 45 49  1  0  0  0  0
 45 53  1  0  0  0  0
 46 69  1  0  0  0  0
 47 52  1  0  0  0  0
 47 69  1  0  0  0  0
 48 49  1  0  0  0  0
 48 75  1  0  0  0  0
 50 73  1  0  0  0  0
 51 68  1  0  0  0  0
 52 67  1  0  0  0  0
 53 61  1  0  0  0  0
 53 75  1  0  0  0  0
 55 63  1  0  0  0  0
 56 64  1  0  0  0  0
 57 64  1  0  0  0  0
 58 64  1  0  0  0  0
 59 75  1  0  0  0  0
 60 76  1  0  0  0  0
 61 83  1  0  0  0  0
 62 64  1  0  0  0  0
 62 74  1  0  0  0  0
 63 76  1  0  0  0  0
 65 67  1  0  0  0  0
M  CHG  2  75   1  76   1
M  ISO  4  37 100  61 101  72 100  83 101
M  END
> <Batch ID>
0176

> <Smiles>
CNC(C)C(=O)NC(C(=O)N1Cc2cc([101O:1][101CH2:1]C3CC(c4cc(C)nc([100NH:0][100C:0](=O)N5CCCC(n6nc(-c7ccc(Oc8ccc(F)cc8F)cc7)c(C(N)=O)c6N)C5)c4)CN3C)ccc2CC1C(=O)NC1CCCc2ccccc21)C(C)(C)C

> <Shape>
0.209

> <Color>
0.075

> <Negative vol penalty>
0.000

$$$$

  -OEChem-04052322503D

 88 97  0     1  0  0  0  0  0999 V2000
  -24.8738  -28.9161   19.6901 C   0  0  0  0  0  0  0  0  0  0  0  0
  -24.7348  -27.6002   19.2606 C   0  0  0  0  0  0  0  0  0  0  0  0
  -19.9217  -22.4783   21.2833 C   0  0  0  0  0  0  0  0  0  0  0  0
  -21.7908  -22.6803   19.7659 C   0  0  0  0  0  0  0  0  0  0  0  0
  -26.0813  -29.3449   20.2398 C   0  0  0  0  0  0  0  0  0  0  0  0
  -25.8036  -26.7125   19.3796 C   0  0  0  0  0  0  0  0  0  0  0  0
  -27.2039  -19.7858   20.5526 C   0  0  0  0  0  0  0  0  0  0  0  0
  -20.2912  -23.6747   21.8978 C   0  0  0  0  0  0  0  0  0  0  0  0
  -22.1604  -23.8767   20.3804 C   0  0  0  0  0  0  0  0  0  0  0  0
  -27.9213  -18.7240   20.0034 C   0  0  0  0  0  0  0  0  0  0  0  0
  -20.0074  -26.9861   21.2756 C   0  0  0  0  0  0  0  0  0  0  0  0
  -19.0012  -27.9130   21.5475 C   0  0  0  0  0  0  0  0  0  0  0  0
  -26.8591  -13.7253   19.3644 C   0  0  0  0  0  0  0  0  0  0  0  0
  -29.9341  -19.5551   21.0414 C   0  0  0  0  0  0  0  0  0  0  0  0
  -19.5246  -27.7900   23.9030 C   0  0  0  0  0  0  0  0  0  0  0  0
  -20.6715  -21.9811   20.2174 C   0  0  0  0  0  0  0  0  0  0  0  0
  -28.0344  -13.7789   20.1178 C   0  0  0  0  0  0  0  0  0  0  0  0
  -19.4198  -20.5845   18.4881 C   0  0  0  0  0  0  0  0  0  0  0  0
  -27.1623  -28.4595   20.3744 C   0  0  0  0  0  0  0  0  0  0  0  0
  -27.8493  -20.7479   21.3426 C   0  0  0  0  0  0  0  0  0  0  0  0
  -27.0271  -27.1302   19.9303 C   0  0  0  0  0  0  0  0  0  0  0  0
  -29.2220  -20.6267   21.6015 C   0  0  0  0  0  0  0  0  0  0  0  0
  -28.1500  -13.0394   21.3042 C   0  0  0  0  0  0  0  0  0  0  0  0
  -21.4106  -24.3739   21.4464 C   0  0  0  0  0  0  0  0  0  0  0  0
  -29.2872  -18.6101   20.2454 C   0  0  0  0  0  0  0  0  0  0  0  0
  -20.7722  -26.4611   22.3173 C   0  0  0  0  0  0  0  0  0  0  0  0
  -18.7598  -28.3150   22.8612 C   0  0  0  0  0  0  0  0  0  0  0  0
  -20.5308  -26.8631   23.6310 C   0  0  0  0  0  0  0  0  0  0  0  0
  -20.2906  -20.7449   19.5825 C   0  0  0  0  0  0  0  0  0  0  0  0
  -25.8291  -12.9241   19.8244 C   0  0  0  0  0  0  0  0  0  0  0  0
  -27.0491  -12.2573   21.6534 C   0  0  0  0  0  0  0  0  0  0  0  0
  -19.3896  -19.2288   18.2693 C   0  0  0  0  0  0  0  0  0  0  0  0
  -29.1680  -14.6016   19.6184 C   0  0  0  0  0  0  0  0  0  0  0  0
  -18.7023  -21.5724   17.7366 C   0  0  0  0  0  0  0  0  0  0  0  0
  -28.3297  -23.8818   21.1151 C   0  0  0  0  0  0  0  0  0  0  0  0
  -29.5775  -23.5124   24.0864 C   0  0  0  0  0  0  0  0  0  0  0  0
  -31.0204  -21.4447   26.3863 C   0  0  0  0  0  0  0  0  0  0  0  0
  -23.3057  -14.9679   19.4374 C   0  0  0  0  0  0  0  0  0  0  0  0
  -28.4632  -28.9814   20.9312 C   0  0  0  0  0  0  0  0  0  0  0  0
  -27.0560  -21.8725   21.9496 C   0  0  0  0  0  0  0  0  0  0  0  0
  -29.9581  -21.6219   22.4596 C   0  0  0  0  0  0  0  0  0  0  0  0
  -29.4253  -27.8791   21.3665 C   0  0  0  0  0  0  0  0  0  0  0  0
  -19.8665  -15.0540   20.5608 C   0  0  0  0  0  0  0  0  0  0  0  0
  -29.5174  -26.7971   20.2952 C   0  0  0  0  0  0  0  0  0  0  0  0
  -19.5071  -16.5227   20.3279 C   0  0  0  0  0  0  0  0  0  0  0  0
  -21.3055  -14.9073   21.0463 C   0  0  0  0  0  0  0  0  0  0  0  0
  -21.9664  -16.9969   19.9191 C   0  0  0  0  0  0  0  0  0  0  0  0
  -30.0902  -14.4527   21.9214 C   0  0  0  0  0  0  0  0  0  0  0  0
  -28.1555  -26.1309   20.0654 C   0  0  1  0  0  0  0  0  0  0  0  0
  -27.9143  -23.0795   22.3157 C   0  0  1  0  0  0  0  0  0  0  0  0
  -20.5309  -17.2105   19.4055 C   0  0  2  0  0  0  0  0  0  0  0  0
  -29.4335  -13.0722   22.1157 C   0  0  0  0  0  0  0  0  0  0  0  0
  -26.9818  -11.4514   22.9059 C   0  0  0  0  0  0  0  0  0  0  0  0
  -29.2026  -12.8824   23.6294 C   0  0  0  0  0  0  0  0  0  0  0  0
  -30.3725  -11.9549   21.6194 C   0  0  0  0  0  0  0  0  0  0  0  0
  -31.9645  -21.4384   28.7114 C   0  0  0  0  0  0  0  0  0  0  0  0
  -32.0969  -24.8976   23.0645 C   0  0  0  0  0  0  0  0  0  0  0  0
  -33.3076  -24.0260   25.0752 C   0  0  0  0  0  0  0  0  0  0  0  0
  -31.3843  -25.5889   25.3599 C   0  0  0  0  0  0  0  0  0  0  0  0
  -29.0244  -19.4672   27.3162 C   0  0  0  0  0  0  0  0  0  0  0  0
  -24.5527  -12.8572   19.0544 C   0  0  0  0  0  0  0  0  0  0  0  0
  -31.3536  -15.6420   20.1399 C   0  0  0  0  0  0  0  0  0  0  0  0
  -31.1235  -17.1118   20.4429 C   0  0  0  0  0  0  0  0  0  1  0  0
  -30.9480  -23.2050   24.6398 C   0  0  1  0  0  0  0  0  0  0  0  0
  -30.7263  -21.2134   27.8576 C   0  0  2  0  0  0  0  0  0  0  0  0
  -31.9210  -24.4115   24.5171 C   0  0  0  0  0  0  0  0  0  0  0  0
  -20.7783  -19.5840   20.0280 N   0  0  0  0  0  0  0  0  0  0  0  0
  -25.8944  -12.1852   20.9499 N   0  0  0  0  0  0  0  0  0  0  0  0
  -20.2119  -18.6811   19.2095 N   0  0  0  0  0  0  0  0  0  0  0  0
  -30.2097  -14.8265   20.5175 N   0  0  0  0  0  0  0  0  0  0  0  0
  -29.1398  -22.7072   23.0253 N   0  0  0  0  0  0  0  0  0  0  0  0
  -22.2308  -15.5675   20.1146 N   0  0  0  0  0  0  0  0  0  0  0  0
  -18.7402  -18.4639   17.3663 N   0  0  0  0  0  0  0  0  0  0  0  0
  -18.8468  -22.9196   18.0950 N   0  0  0  0  0  0  0  0  0  0  0  0
  -27.8706  -25.1851   21.1231 N   0  0  0  0  0  0  0  0  0  0  0  0
  -30.7414  -22.7407   26.0073 N   0  0  0  0  0  0  0  0  0  0  0  0
  -23.4921  -13.6130   19.6828 N   0  0  0  0  0  0  0  0  0  0  0  0
  -30.2507  -19.8183   28.0777 N   0  3  0  0  0  0  0  0  0  0  0  0
  -29.1382  -15.0216   18.4639 O   0  0  0  0  0  0  0  0  0  0  0  0
  -17.9424  -21.2681   16.7860 O   0  0  0  0  0  0  0  0  0  0  0  0
  -29.0172  -23.3577   20.2466 O   0  0  0  0  0  0  0  0  0  0  0  0
  -28.9167  -24.4284   24.5822 O   0  0  0  0  0  0  0  0  0  0  0  0
  -31.4576  -20.5647   25.6481 O   0  0  0  0  0  0  0  0  0  0  0  0
  -24.0420  -15.5928   18.6665 O   0  0  0  0  0  0  0  0  0  0  0  0
  -21.7714  -25.5415   22.0456 O   0  0  0  0  0  0  0  0  0  0  0  0
  -29.9900  -17.5750   19.7101 O   0  0  0  0  0  0  0  0  0  1  0  0
  -17.7945  -29.2063   23.1221 F   0  0  0  0  0  0  0  0  0  0  0  0
  -21.2630  -26.3631   24.6359 F   0  0  0  0  0  0  0  0  0  0  0  0
  1  2  1  0  0  0  0
  1  5  2  0  0  0  0
  2  6  2  0  0  0  0
  3  8  2  0  0  0  0
  3 16  1  0  0  0  0
  4  9  1  0  0  0  0
  4 16  2  0  0  0  0
  5 19  1  0  0  0  0
  6 21  1  0  0  0  0
  7 10  2  0  0  0  0
  7 20  1  0  0  0  0
  8 24  1  0  0  0  0
  9 24  2  0  0  0  0
 10 25  1  0  0  0  0
 11 12  2  0  0  0  0
 11 26  1  0  0  0  0
 12 27  1  0  0  0  0
 13 17  2  0  0  0  0
 13 30  1  0  0  0  0
 14 22  1  0  0  0  0
 14 25  2  0  0  0  0
 15 27  2  0  0  0  0
 15 28  1  0  0  0  0
 16 29  1  0  0  0  0
 17 23  1  0  0  0  0
 17 33  1  0  0  0  0
 18 29  1  0  0  0  0
 18 32  2  0  0  0  0
 18 34  1  0  0  0  0
 19 21  2  0  0  0  0
 19 39  1  0  0  0  0
 20 22  2  0  0  0  0
 20 40  1  0  0  0  0
 21 49  1  0  0  0  0
 22 41  1  0  0  0  0
 23 31  2  0  0  0  0
 23 52  1  0  0  0  0
 24 85  1  0  0  0  0
 25 86  1  0  0  0  0
 26 28  2  0  0  0  0
 26 85  1  0  0  0  0
 27 87  1  0  0  0  0
 28 88  1  0  0  0  0
 29 67  2  0  0  0  0
 30 61  1  0  0  0  0
 30 68  2  0  0  0  0
 31 53  1  0  0  0  0
 31 68  1  0  0  0  0
 32 69  1  0  0  0  0
 32 73  1  0  0  0  0
 33 70  1  0  0  0  0
 33 79  2  0  0  0  0
 34 74  1  0  0  0  0
 34 80  2  0  0  0  0
 35 50  1  0  0  0  0
 35 75  1  0  0  0  0
 35 81  2  0  0  0  0
 36 64  1  0  0  0  0
 36 71  1  0  0  0  0
 36 82  2  0  0  0  0
 37 65  1  0  0  0  0
 37 76  1  0  0  0  0
 37 83  2  0  0  0  0
 38 72  1  0  0  0  0
 38 77  1  0  0  0  0
 38 84  2  0  0  0  0
 39 42  1  0  0  0  0
 40 50  1  0  0  0  0
 41 71  1  0  0  0  0
 42 44  1  0  0  0  0
 43 45  1  0  0  0  0
 43 46  1  0  0  0  0
 44 49  1  0  0  0  0
 45 51  1  0  0  0  0
 46 72  1  0  0  0  0
 47 51  1  0  0  0  0
 47 72  1  0  0  0  0
 48 52  1  0  0  0  0
 48 70  1  0  0  0  0
 49 75  1  0  0  0  0
 50 71  1  0  0  0  0
 51 69  1  0  0  0  0
 52 54  1  0  0  0  0
 52 55  1  0  0  0  0
 56 65  1  0  0  0  0
 57 66  1  0  0  0  0
 58 66  1  0  0  0  0
 59 66  1  0  0  0  0
 60 78  1  0  0  0  0
 61 77  1  0  0  0  0
 62 63  1  0  0  0  0
 62 70  1  0  0  0  0
 63 86  1  0  0  0  0
 64 66  1  0  0  0  0
 64 76  1  0  0  0  0
 65 78  1  0  0  0  0
 67 69  1  0  0  0  0
M  CHG  1  78   1
M  ISO  4  38 100  63 101  77 100  86 101
M  END
> <Batch ID>
0176

> <Smiles>
CNC(C)C(=O)NC(C(=O)N1Cc2cc([101O:1][101CH2:1]CN3CC(C)(C)c4c(cc(C[100NH:0][100C:0](=O)N5CCCC(n6nc(-c7ccc(Oc8ccc(F)cc8F)cc7)c(C(N)=O)c6N)C5)nc4C)C3=O)ccc2CC1C(=O)NC1CCCc2ccccc21)C(C)(C)C

> <Shape>
0.213

> <Color>
0.062

> <Negative vol penalty>
0.000

$$$$

  -OEChem-04052322503D

 81 90  0     1  0  0  0  0  0999 V2000
  -27.6880  -17.1271   17.5194 C   0  0  0  0  0  0  0  0  0  0  0  0
  -26.8261  -18.1334   17.9404 C   0  0  0  0  0  0  0  0  0  0  0  0
  -22.8710  -16.9200   22.5795 C   0  0  0  0  0  0  0  0  0  0  0  0
  -22.2038  -17.7663   20.4171 C   0  0  0  0  0  0  0  0  0  0  0  0
  -29.0322  -17.1683   17.8837 C   0  0  0  0  0  0  0  0  0  0  0  0
  -27.3104  -19.1875   18.7158 C   0  0  0  0  0  0  0  0  0  0  0  0
  -24.4411  -25.5127   19.2848 C   0  0  0  0  0  0  0  0  0  0  0  0
  -23.0448  -15.6503   22.0289 C   0  0  0  0  0  0  0  0  0  0  0  0
  -22.3776  -16.4965   19.8665 C   0  0  0  0  0  0  0  0  0  0  0  0
  -23.8242  -26.7426   19.5149 C   0  0  0  0  0  0  0  0  0  0  0  0
  -24.0116  -12.2666   21.1172 C   0  0  0  0  0  0  0  0  0  0  0  0
  -25.1650  -11.5624   21.4626 C   0  0  0  0  0  0  0  0  0  0  0  0
  -25.6008  -27.3616   21.0342 C   0  0  0  0  0  0  0  0  0  0  0  0
  -26.5232  -13.3276   20.5265 C   0  0  0  0  0  0  0  0  0  0  0  0
  -20.2537  -27.2554   22.1126 C   0  0  0  0  0  0  0  0  0  0  0  0
  -22.4504  -17.9780   21.7736 C   0  0  0  0  0  0  0  0  0  0  0  0
  -23.2331  -20.3115   22.4443 C   0  0  0  0  0  0  0  0  0  0  0  0
  -29.5298  -18.2171   18.6745 C   0  0  0  0  0  0  0  0  0  0  0  0
  -25.6496  -25.2084   19.9175 C   0  0  0  0  0  0  0  0  0  0  0  0
  -28.6688  -19.2595   19.0739 C   0  0  0  0  0  0  0  0  0  0  0  0
  -26.2298  -26.1363   20.7980 C   0  0  0  0  0  0  0  0  0  0  0  0
  -22.7982  -15.4385   20.6725 C   0  0  0  0  0  0  0  0  0  0  0  0
  -24.4025  -27.6646   20.3876 C   0  0  0  0  0  0  0  0  0  0  0  0
  -24.1140  -13.5014   20.4764 C   0  0  0  0  0  0  0  0  0  0  0  0
  -26.4208  -12.0929   21.1673 C   0  0  0  0  0  0  0  0  0  0  0  0
  -25.3697  -14.0319   20.1811 C   0  0  0  0  0  0  0  0  0  0  0  0
  -22.2701  -19.2898   22.3418 C   0  0  0  0  0  0  0  0  0  0  0  0
  -20.3122  -28.6314   22.0256 C   0  0  0  0  0  0  0  0  0  0  0  0
  -19.1848  -26.7470   22.8220 C   0  0  0  0  0  0  0  0  0  0  0  0
  -22.5700  -21.3484   23.0539 C   0  0  0  0  0  0  0  0  0  0  0  0
  -18.4079  -28.8401   23.2492 C   0  0  0  0  0  0  0  0  0  0  0  0
  -24.6044  -20.3223   22.0259 C   0  0  0  0  0  0  0  0  0  0  0  0
  -28.4189  -22.7257   20.4103 C   0  0  0  0  0  0  0  0  0  0  0  0
  -29.7242  -25.4975   20.2563 C   0  0  0  0  0  0  0  0  0  0  0  0
  -30.8003  -28.6703   19.6141 C   0  0  0  0  0  0  0  0  0  0  0  0
  -18.0943  -24.6148   23.6037 C   0  0  0  0  0  0  0  0  0  0  0  0
  -30.9949  -18.2163   19.0332 C   0  0  0  0  0  0  0  0  0  0  0  0
  -26.3179  -23.8712   19.7469 C   0  0  0  0  0  0  0  0  0  0  0  0
  -27.5127  -25.7520   21.4831 C   0  0  0  0  0  0  0  0  0  0  0  0
  -31.3180  -19.1242   20.2153 C   0  0  0  0  0  0  0  0  0  0  0  0
  -18.0402  -21.4894   25.3084 C   0  0  0  0  0  0  0  0  0  0  0  0
  -30.6965  -20.4964   20.0020 C   0  0  0  0  0  0  0  0  0  0  0  0
  -19.2151  -20.7226   24.6970 C   0  0  0  0  0  0  0  0  0  0  0  0
  -22.2927  -30.2898   21.9690 C   0  0  0  0  0  0  0  0  0  0  0  0
  -17.3218  -22.3488   24.2697 C   0  0  0  0  0  0  0  0  0  0  0  0
  -19.3635  -22.4918   22.8984 C   0  0  0  0  0  0  0  0  0  0  0  0
  -29.1667  -20.3998   19.9435 C   0  0  1  0  0  0  0  0  0  0  0  0
  -21.4302  -29.2578   21.2806 C   0  0  1  0  0  0  0  0  0  0  0  0
  -27.8546  -23.9577   19.7661 C   0  0  1  0  0  0  0  0  0  0  0  0
  -20.1581  -21.6621   23.9202 C   0  0  2  0  0  0  0  0  0  0  0  0
  -22.8548  -28.9329   21.6735 C   0  0  1  0  0  0  0  0  0  1  0  0
  -17.3833  -29.7196   23.8817 C   0  0  0  0  0  0  0  0  0  0  0  0
  -32.8942  -30.0421   19.4369 C   0  0  0  0  0  0  0  0  0  0  0  0
  -29.9523  -25.5355   23.2977 C   0  0  0  0  0  0  0  0  0  0  0  0
  -31.3717  -27.5878   23.0948 C   0  0  0  0  0  0  0  0  0  0  0  0
  -32.1391  -25.4382   22.0883 C   0  0  0  0  0  0  0  0  0  0  0  0
  -30.2640  -29.3344   16.7803 C   0  0  0  0  0  0  0  0  0  0  0  0
  -30.2319  -26.7003   21.0106 C   0  0  1  0  0  0  0  0  0  0  0  0
  -31.8761  -29.2003   18.6834 C   0  0  2  0  0  0  0  0  0  0  0  0
  -30.8975  -26.3148   22.3618 C   0  0  0  0  0  0  0  0  0  0  0  0
  -21.0854  -19.6453   22.8460 N   0  0  0  0  0  0  0  0  0  0  0  0
  -19.4029  -29.4571   22.5839 N   0  0  0  0  0  0  0  0  0  0  0  0
  -18.2399  -27.5131   23.4057 N   0  0  0  0  0  0  0  0  0  0  0  0
  -21.2997  -20.9020   23.2712 N   0  0  0  0  0  0  0  0  0  0  0  0
  -28.4131  -25.0878   20.5277 N   0  0  0  0  0  0  0  0  0  0  0  0
  -18.2772  -23.2160   23.5768 N   0  0  0  0  0  0  0  0  0  0  0  0
  -22.9554  -22.5894   23.4198 N   0  0  0  0  0  0  0  0  0  0  0  0
  -25.1260  -19.1732   21.4161 N   0  0  0  0  0  0  0  0  0  0  0  0
  -19.0833  -25.3385   22.9383 N   0  0  0  0  0  0  0  0  0  0  0  0
  -28.6283  -21.6781   19.5338 N   0  0  0  0  0  0  0  0  0  0  0  0
  -31.1123  -27.4156   20.0933 N   0  0  0  0  0  0  0  0  0  0  0  0
  -31.2679  -30.0430   17.6153 N   0  3  0  0  0  0  0  0  0  0  0  0
  -25.3498  -21.3156   22.2029 O   0  0  0  0  0  0  0  0  0  0  0  0
  -28.6495  -22.7248   21.6139 O   0  0  0  0  0  0  0  0  0  0  0  0
  -30.4695  -24.9313   19.4519 O   0  0  0  0  0  0  0  0  0  0  0  0
  -29.7865  -29.3073   19.8914 O   0  0  0  0  0  0  0  0  0  0  0  0
  -17.1461  -25.1340   24.1981 O   0  0  0  0  0  0  0  0  0  0  0  0
  -22.9679  -14.1997   20.1349 O   0  0  0  0  0  0  0  0  0  0  0  0
  -23.7973  -28.8652   20.6041 O   0  0  0  0  0  0  0  0  0  1  0  0
  -27.5283  -11.4172   21.5004 F   0  0  0  0  0  0  0  0  0  0  0  0
  -25.4744  -15.2182   19.5666 F   0  0  0  0  0  0  0  0  0  0  0  0
  1  2  1  0  0  0  0
  1  5  2  0  0  0  0
  2  6  2  0  0  0  0
  3  8  2  0  0  0  0
  3 16  1  0  0  0  0
  4  9  1  0  0  0  0
  4 16  2  0  0  0  0
  5 18  1  0  0  0  0
  6 20  1  0  0  0  0
  7 10  2  0  0  0  0
  7 19  1  0  0  0  0
  8 22  1  0  0  0  0
  9 22  2  0  0  0  0
 10 23  1  0  0  0  0
 11 12  2  0  0  0  0
 11 24  1  0  0  0  0
 12 25  1  0  0  0  0
 13 21  1  0  0  0  0
 13 23  2  0  0  0  0
 14 25  2  0  0  0  0
 14 26  1  0  0  0  0
 15 28  1  0  0  0  0
 15 29  2  0  0  0  0
 16 27  1  0  0  0  0
 17 27  1  0  0  0  0
 17 30  2  0  0  0  0
 17 32  1  0  0  0  0
 18 20  2  0  0  0  0
 18 37  1  0  0  0  0
 19 21  2  0  0  0  0
 19 38  1  0  0  0  0
 20 47  1  0  0  0  0
 21 39  1  0  0  0  0
 22 78  1  0  0  0  0
 23 79  1  0  0  0  0
 24 26  2  0  0  0  0
 24 78  1  0  0  0  0
 25 80  1  0  0  0  0
 26 81  1  0  0  0  0
 27 61  2  0  0  0  0
 28 48  1  0  0  0  0
 28 62  2  0  0  0  0
 29 63  1  0  0  0  0
 29 69  1  0  0  0  0
 30 64  1  0  0  0  0
 30 67  1  0  0  0  0
 31 52  1  0  0  0  0
 31 62  1  0  0  0  0
 31 63  2  0  0  0  0
 32 68  1  0  0  0  0
 32 73  2  0  0  0  0
 33 49  1  0  0  0  0
 33 70  1  0  0  0  0
 33 74  2  0  0  0  0
 34 58  1  0  0  0  0
 34 65  1  0  0  0  0
 34 75  2  0  0  0  0
 35 59  1  0  0  0  0
 35 71  1  0  0  0  0
 35 76  2  0  0  0  0
 36 66  1  0  0  0  0
 36 69  1  0  0  0  0
 36 77  2  0  0  0  0
 37 40  1  0  0  0  0
 38 49  1  0  0  0  0
 39 65  1  0  0  0  0
 40 42  1  0  0  0  0
 41 43  1  0  0  0  0
 41 45  1  0  0  0  0
 42 47  1  0  0  0  0
 43 50  1  0  0  0  0
 44 48  1  0  0  0  0
 44 51  1  0  0  0  0
 45 66  1  0  0  0  0
 46 50  1  0  0  0  0
 46 66  1  0  0  0  0
 47 70  1  0  0  0  0
 48 51  1  0  0  0  0
 49 65  1  0  0  0  0
 50 64  1  0  0  0  0
 51 79  1  0  0  0  0
 53 59  1  0  0  0  0
 54 60  1  0  0  0  0
 55 60  1  0  0  0  0
 56 60  1  0  0  0  0
 57 72  1  0  0  0  0
 58 60  1  0  0  0  0
 58 71  1  0  0  0  0
 59 72  1  0  0  0  0
 61 64  1  0  0  0  0
M  CHG  1  72   1
M  ISO  4  36 100  51 101  69 100  79 101
M  END
> <Batch ID>
0176

> <Smiles>
CNC(C)C(=O)NC(C(=O)N1Cc2cc([101O:1][101CH:1]3CC3c3cc([100NH:0][100C:0](=O)N4CCCC(n5nc(-c6ccc(Oc7ccc(F)cc7F)cc6)c(C(N)=O)c5N)C4)nc(C)n3)ccc2CC1C(=O)NC1CCCc2ccccc21)C(C)(C)C

> <Shape>
0.211

> <Color>
0.058

> <Negative vol penalty>
0.000

$$$$

  -OEChem-04052322503D

 81 90  0     1  0  0  0  0  0999 V2000
  -16.4672  -29.0573   23.1389 C   0  0  0  0  0  0  0  0  0  0  0  0
  -17.2851  -27.9507   22.9342 C   0  0  0  0  0  0  0  0  0  0  0  0
  -24.0548   -9.9128   21.7277 C   0  0  0  0  0  0  0  0  0  0  0  0
  -24.6533  -11.1192   23.7336 C   0  0  0  0  0  0  0  0  0  0  0  0
  -17.0345  -30.3180   23.3200 C   0  0  0  0  0  0  0  0  0  0  0  0
  -18.6708  -28.1044   22.9094 C   0  0  0  0  0  0  0  0  0  0  0  0
  -22.8539  -24.1171   24.9366 C   0  0  0  0  0  0  0  0  0  0  0  0
  -28.7713  -19.6694   22.2657 C   0  0  0  0  0  0  0  0  0  0  0  0
  -23.6249   -8.8362   22.5035 C   0  0  0  0  0  0  0  0  0  0  0  0
  -24.2234  -10.0426   24.5094 C   0  0  0  0  0  0  0  0  0  0  0  0
  -23.6388  -23.1678   24.2836 C   0  0  0  0  0  0  0  0  0  0  0  0
  -22.0351   -5.9139   23.9691 C   0  0  0  0  0  0  0  0  0  0  0  0
  -20.8176   -5.3202   23.6364 C   0  0  0  0  0  0  0  0  0  0  0  0
  -28.1466  -20.7197   22.9349 C   0  0  0  0  0  0  0  0  0  0  0  0
  -25.4583  -24.7486   24.1854 C   0  0  0  0  0  0  0  0  0  0  0  0
  -19.6896   -7.4238   24.0099 C   0  0  0  0  0  0  0  0  0  0  0  0
  -24.5691  -11.0542   22.3428 C   0  0  0  0  0  0  0  0  0  0  0  0
  -24.2457  -13.2646   21.1109 C   0  0  0  0  0  0  0  0  0  0  0  0
  -18.4282  -30.4856   23.3070 C   0  0  0  0  0  0  0  0  0  0  0  0
  -23.3625  -25.3951   25.2098 C   0  0  0  0  0  0  0  0  0  0  0  0
  -19.2572  -29.3687   23.0892 C   0  0  0  0  0  0  0  0  0  0  0  0
  -28.9073  -19.7604   20.8938 C   0  0  0  0  0  0  0  0  0  0  0  0
  -24.6787  -25.7115   24.8444 C   0  0  0  0  0  0  0  0  0  0  0  0
  -23.7091   -8.9011   23.8943 C   0  0  0  0  0  0  0  0  0  0  0  0
  -24.9402  -23.4844   23.9053 C   0  0  0  0  0  0  0  0  0  0  0  0
  -22.0799   -7.2626   24.3223 C   0  0  0  0  0  0  0  0  0  0  0  0
  -19.6449   -6.0751   23.6568 C   0  0  0  0  0  0  0  0  0  0  0  0
  -20.9071   -8.0176   24.3426 C   0  0  0  0  0  0  0  0  0  0  0  0
  -25.0138  -12.1664   21.5420 C   0  0  0  0  0  0  0  0  0  0  0  0
  -28.4365  -20.9010   20.2483 C   0  0  0  0  0  0  0  0  0  0  0  0
  -27.7031  -21.8150   22.1946 C   0  0  0  0  0  0  0  0  0  0  0  0
  -25.1231  -14.0344   20.3871 C   0  0  0  0  0  0  0  0  0  0  0  0
  -22.8627  -13.5622   21.3441 C   0  0  0  0  0  0  0  0  0  0  0  0
  -22.5797  -28.3524   24.3466 C   0  0  0  0  0  0  0  0  0  0  0  0
  -24.8931  -29.1671   26.4695 C   0  0  0  0  0  0  0  0  0  0  0  0
  -27.7231  -28.2744   28.1551 C   0  0  0  0  0  0  0  0  0  0  0  0
  -30.1300  -16.4173   19.7563 C   0  0  0  0  0  0  0  0  0  0  0  0
  -18.9936  -31.8754   23.4602 C   0  0  0  0  0  0  0  0  0  0  0  0
  -22.5121  -26.3989   25.9388 C   0  0  0  0  0  0  0  0  0  0  0  0
  -25.2787  -27.0625   25.1326 C   0  0  0  0  0  0  0  0  0  0  0  0
  -28.7329  -20.8429   18.7766 C   0  0  0  0  0  0  0  0  0  0  0  0
  -20.4831  -31.8937   23.7938 C   0  0  0  0  0  0  0  0  0  0  0  0
  -28.9797  -19.3384   18.5902 C   0  0  0  0  0  0  0  0  0  0  0  0
  -29.7940  -13.0250   18.7286 C   0  0  0  0  0  0  0  0  0  0  0  0
  -21.2454  -30.9343   22.8853 C   0  0  0  0  0  0  0  0  0  0  0  0
  -28.4608  -12.5885   19.3384 C   0  0  0  0  0  0  0  0  0  0  0  0
  -30.5510  -13.9785   19.6506 C   0  0  0  0  0  0  0  0  0  0  0  0
  -28.4479  -14.7209   20.6990 C   0  0  0  0  0  0  0  0  0  0  0  0
  -20.7655  -29.4910   23.0804 C   0  0  1  0  0  0  0  0  0  0  0  0
  -29.5606  -18.8271   19.9235 C   0  0  2  0  0  0  0  0  0  0  0  0
  -22.9575  -27.8396   25.7074 C   0  0  1  0  0  0  0  0  0  0  0  0
  -27.6225  -13.8027   19.7815 C   0  0  2  0  0  0  0  0  0  0  0  0
  -29.4055  -29.1648   29.7903 C   0  0  0  0  0  0  0  0  0  0  0  0
  -26.1788  -30.8141   24.2460 C   0  0  0  0  0  0  0  0  0  0  0  0
  -28.2782  -30.8858   25.6083 C   0  0  0  0  0  0  0  0  0  0  0  0
  -26.1836  -31.9116   26.4932 C   0  0  0  0  0  0  0  0  0  0  0  0
  -27.0609  -26.1899   30.1489 C   0  0  0  0  0  0  0  0  0  0  0  0
  -27.0326  -22.9519   22.9082 C   0  0  0  0  0  0  0  0  0  1  0  0
  -26.3836  -29.3933   26.3920 C   0  0  1  0  0  0  0  0  0  0  0  0
  -28.1042  -28.3967   29.6194 C   0  0  2  0  0  0  0  0  0  0  0  0
  -26.7444  -30.7263   25.6776 C   0  0  0  0  0  0  0  0  0  0  0  0
  -26.2817  -12.2292   21.1265 N   0  0  0  0  0  0  0  0  0  0  0  0
  -27.8375  -21.9406   20.8529 N   0  0  0  0  0  0  0  0  0  0  0  0
  -26.3169  -13.3760   20.4268 N   0  0  0  0  0  0  0  0  0  0  0  0
  -24.4054  -28.0121   25.8419 N   0  0  0  0  0  0  0  0  0  0  0  0
  -29.7009  -15.1087   20.0325 N   0  0  0  0  0  0  0  0  0  0  0  0
  -24.9823  -15.2035   19.7269 N   0  0  0  0  0  0  0  0  0  0  0  0
  -22.1057  -12.6644   22.1091 N   0  0  0  0  0  0  0  0  0  0  0  0
  -21.3262  -28.9314   24.2915 N   0  0  0  0  0  0  0  0  0  0  0  0
  -26.8833  -29.2938   27.7591 N   0  0  0  0  0  0  0  0  0  0  0  0
  -29.2617  -17.4299   20.1454 N   0  0  0  0  0  0  0  0  0  0  0  0
  -28.2729  -27.0457   30.2254 N   0  3  0  0  0  0  0  0  0  0  0  0
  -22.3102  -14.5856   20.8738 O   0  0  0  0  0  0  0  0  0  0  0  0
  -23.3678  -28.2331   23.4157 O   0  0  0  0  0  0  0  0  0  0  0  0
  -24.1883  -29.9813   27.0711 O   0  0  0  0  0  0  0  0  0  0  0  0
  -28.1326  -27.3675   27.4337 O   0  0  0  0  0  0  0  0  0  0  0  0
  -31.2049  -16.6648   19.1990 O   0  0  0  0  0  0  0  0  0  0  0  0
  -23.2895   -7.8509   24.6516 O   0  0  0  0  0  0  0  0  0  0  0  0
  -25.7083  -22.5599   23.2671 O   0  0  0  0  0  0  0  0  0  1  0  0
  -18.4760   -5.5051   23.3358 F   0  0  0  0  0  0  0  0  0  0  0  0
  -20.9440   -9.3140   24.6800 F   0  0  0  0  0  0  0  0  0  0  0  0
  1  2  1  0  0  0  0
  1  5  2  0  0  0  0
  2  6  2  0  0  0  0
  3  9  2  0  0  0  0
  3 17  1  0  0  0  0
  4 10  1  0  0  0  0
  4 17  2  0  0  0  0
  5 19  1  0  0  0  0
  6 21  1  0  0  0  0
  7 11  2  0  0  0  0
  7 20  1  0  0  0  0
  8 14  2  0  0  0  0
  8 22  1  0  0  0  0
  9 24  1  0  0  0  0
 10 24  2  0  0  0  0
 11 25  1  0  0  0  0
 12 13  2  0  0  0  0
 12 26  1  0  0  0  0
 13 27  1  0  0  0  0
 14 31  1  0  0  0  0
 15 23  1  0  0  0  0
 15 25  2  0  0  0  0
 16 27  2  0  0  0  0
 16 28  1  0  0  0  0
 17 29  1  0  0  0  0
 18 29  1  0  0  0  0
 18 32  2  0  0  0  0
 18 33  1  0  0  0  0
 19 21  2  0  0  0  0
 19 38  1  0  0  0  0
 20 23  2  0  0  0  0
 20 39  1  0  0  0  0
 21 49  1  0  0  0  0
 22 30  2  0  0  0  0
 22 50  1  0  0  0  0
 23 40  1  0  0  0  0
 24 78  1  0  0  0  0
 25 79  1  0  0  0  0
 26 28  2  0  0  0  0
 26 78  1  0  0  0  0
 27 80  1  0  0  0  0
 28 81  1  0  0  0  0
 29 62  2  0  0  0  0
 30 41  1  0  0  0  0
 30 63  1  0  0  0  0
 31 58  1  0  0  0  0
 31 63  2  0  0  0  0
 32 64  1  0  0  0  0
 32 67  1  0  0  0  0
 33 68  1  0  0  0  0
 33 73  2  0  0  0  0
 34 51  1  0  0  0  0
 34 69  1  0  0  0  0
 34 74  2  0  0  0  0
 35 59  1  0  0  0  0
 35 65  1  0  0  0  0
 35 75  2  0  0  0  0
 36 60  1  0  0  0  0
 36 70  1  0  0  0  0
 36 76  2  0  0  0  0
 37 66  1  0  0  0  0
 37 71  1  0  0  0  0
 37 77  2  0  0  0  0
 38 42  1  0  0  0  0
 39 51  1  0  0  0  0
 40 65  1  0  0  0  0
 41 43  1  0  0  0  0
 42 45  1  0  0  0  0
 43 50  1  0  0  0  0
 44 46  1  0  0  0  0
 44 47  1  0  0  0  0
 45 49  1  0  0  0  0
 46 52  1  0  0  0  0
 47 66  1  0  0  0  0
 48 52  1  0  0  0  0
 48 66  1  0  0  0  0
 49 69  1  0  0  0  0
 50 71  1  0  0  0  0
 51 65  1  0  0  0  0
 52 64  1  0  0  0  0
 53 60  1  0  0  0  0
 54 61  1  0  0  0  0
 55 61  1  0  0  0  0
 56 61  1  0  0  0  0
 57 72  1  0  0  0  0
 58 79  1  0  0  0  0
 59 61  1  0  0  0  0
 59 70  1  0  0  0  0
 60 72  1  0  0  0  0
 62 64  1  0  0  0  0
M  CHG  1  72   1
M  ISO  4  37 100  58 101  71 100  79 101
M  END
> <Batch ID>
0176

> <Smiles>
CNC(C)C(=O)NC(C(=O)N1Cc2cc([101O:1][101CH2:1]c3ccc4c(n3)CCC4[100NH:0][100C:0](=O)N3CCCC(n4nc(-c5ccc(Oc6ccc(F)cc6F)cc5)c(C(N)=O)c4N)C3)ccc2CC1C(=O)NC1CCCc2ccccc21)C(C)(C)C

> <Shape>
0.258

> <Color>
0.145

> <Negative vol penalty>
0.000

$$$$

  -OEChem-04052322503D

 89 99  0     1  0  0  0  0  0999 V2000
  -25.0898  -10.2258   20.8157 C   0  0  0  0  0  0  0  0  0  0  0  0
  -26.2219  -10.8719   20.3296 C   0  0  0  0  0  0  0  0  0  0  0  0
  -22.2509  -26.4537   23.6051 C   0  0  0  0  0  0  0  0  0  0  0  0
  -21.4807  -27.9409   25.3465 C   0  0  0  0  0  0  0  0  0  0  0  0
  -23.8769  -10.9092   20.8910 C   0  0  0  0  0  0  0  0  0  0  0  0
  -26.1414  -12.2016   19.9174 C   0  0  0  0  0  0  0  0  0  0  0  0
  -30.0334  -18.2098   19.6535 C   0  0  0  0  0  0  0  0  0  0  0  0
  -21.1327  -25.6436   23.8024 C   0  0  0  0  0  0  0  0  0  0  0  0
  -20.3625  -27.1307   25.5438 C   0  0  0  0  0  0  0  0  0  0  0  0
  -30.4401  -19.1909   18.7503 C   0  0  0  0  0  0  0  0  0  0  0  0
  -18.6634  -22.9902   24.0950 C   0  0  0  0  0  0  0  0  0  0  0  0
  -18.8617  -21.6106   24.1491 C   0  0  0  0  0  0  0  0  0  0  0  0
  -28.3100  -20.2953   19.0000 C   0  0  0  0  0  0  0  0  0  0  0  0
  -20.3243  -21.8953   26.0509 C   0  0  0  0  0  0  0  0  0  0  0  0
  -22.4249  -27.6024   24.3772 C   0  0  0  0  0  0  0  0  0  0  0  0
  -23.6945  -29.5311   23.2928 C   0  0  0  0  0  0  0  0  0  0  0  0
  -23.7837  -12.2509   20.4886 C   0  0  0  0  0  0  0  0  0  0  0  0
  -28.7558  -18.2582   20.2295 C   0  0  0  0  0  0  0  0  0  0  0  0
  -24.9258  -12.9032   19.9862 C   0  0  0  0  0  0  0  0  0  0  0  0
  -27.8905  -19.3150   19.9123 C   0  0  0  0  0  0  0  0  0  0  0  0
  -20.1885  -25.9820   24.7717 C   0  0  0  0  0  0  0  0  0  0  0  0
  -29.5773  -20.2322   18.4212 C   0  0  0  0  0  0  0  0  0  0  0  0
  -19.2956  -23.8224   25.0189 C   0  0  0  0  0  0  0  0  0  0  0  0
  -19.6921  -21.0631   25.1270 C   0  0  0  0  0  0  0  0  0  0  0  0
  -20.1260  -23.2750   25.9968 C   0  0  0  0  0  0  0  0  0  0  0  0
  -23.5800  -28.4394   24.1743 C   0  0  0  0  0  0  0  0  0  0  0  0
  -24.9780  -29.9853   23.4738 C   0  0  0  0  0  0  0  0  0  0  0  0
  -29.3342  -26.9425   18.1452 C   0  0  0  0  0  0  0  0  0  0  0  0
  -30.0565  -25.6789   18.4400 C   0  0  0  0  0  0  0  0  0  0  0  0
  -22.7271  -30.0851   22.3912 C   0  0  0  0  0  0  0  0  0  0  0  0
  -29.2352  -27.9260   19.0437 C   0  0  0  0  0  0  0  0  0  0  0  0
  -26.2032  -16.3645   20.1876 C   0  0  0  0  0  0  0  0  0  0  0  0
  -25.0763  -18.4870   22.3664 C   0  0  0  0  0  0  0  0  0  0  0  0
  -25.1866  -21.6416   23.6638 C   0  0  0  0  0  0  0  0  0  0  0  0
  -30.2673  -28.2156   24.4924 C   0  0  0  0  0  0  0  0  0  0  0  0
  -22.4401  -12.9338   20.5442 C   0  0  0  0  0  0  0  0  0  0  0  0
  -28.3422  -17.2069   21.2225 C   0  0  0  0  0  0  0  0  0  0  0  0
  -26.5160  -19.4238   20.5185 C   0  0  0  0  0  0  0  0  0  0  0  0
  -22.5249  -14.4543   20.4385 C   0  0  0  0  0  0  0  0  0  0  0  0
  -28.3650  -29.5670   27.0419 C   0  0  0  0  0  0  0  0  0  0  0  0
  -23.4587  -14.8591   19.3023 C   0  0  0  0  0  0  0  0  0  0  0  0
  -27.1052  -29.1857   18.4272 C   0  0  0  0  0  0  0  0  0  0  0  0
  -27.4783  -29.6036   19.8187 C   0  0  0  0  0  0  0  0  0  0  0  0
  -26.9401  -29.5315   26.4896 C   0  0  0  0  0  0  0  0  0  0  0  0
  -29.1202  -28.2915   26.6859 C   0  0  0  0  0  0  0  0  0  0  0  0
  -31.0518  -28.7163   22.2066 C   0  0  0  0  0  0  0  0  0  0  0  0
  -29.6141  -26.7362   22.5547 C   0  0  0  0  0  0  0  0  0  0  0  0
  -29.0544  -25.4748   16.2934 C   0  0  0  0  0  0  0  0  0  0  0  0
  -27.7496  -27.9697   24.6526 C   0  0  0  0  0  0  0  0  0  0  0  0
  -30.3757  -28.9897   20.8696 C   0  0  0  0  0  0  0  0  0  0  0  0
  -28.9099  -26.9841   21.2288 C   0  0  0  0  0  0  0  0  0  0  0  0
  -24.8842  -14.3525   19.5527 C   0  0  1  0  0  0  0  0  0  0  0  0
  -28.7591  -26.9037   16.7563 C   0  0  2  0  0  0  0  0  0  0  0  0
  -28.5411  -29.2114   18.8428 C   0  0  0  0  0  0  0  0  0  0  0  0
  -26.8283  -17.0734   21.3556 C   0  0  1  0  0  0  0  0  0  0  0  0
  -26.9405  -29.2414   24.9780 C   0  0  1  0  0  0  0  0  0  0  0  0
  -29.3906  -27.9394   15.8312 C   0  0  0  0  0  0  0  0  0  0  0  0
  -24.1203  -23.0904   25.4135 C   0  0  0  0  0  0  0  0  0  0  0  0
  -22.6079  -18.7991   20.6002 C   0  0  0  0  0  0  0  0  0  0  0  0
  -22.0566  -20.8911   21.8602 C   0  0  0  0  0  0  0  0  0  0  0  0
  -22.1299  -18.7015   23.0530 C   0  0  0  0  0  0  0  0  0  0  0  0
  -27.7593  -22.0330   25.0734 C   0  0  0  0  0  0  0  0  0  0  0  0
  -30.3948  -23.5337   17.1781 C   0  0  0  0  0  0  0  0  0  0  0  0
  -29.4219  -22.4959   17.7086 C   0  0  0  0  0  0  0  0  0  1  0  0
  -24.2910  -19.7745   22.2977 C   0  0  1  0  0  0  0  0  0  0  0  0
  -25.2640  -22.1397   25.0957 C   0  0  2  0  0  0  0  0  0  0  0  0
  -22.7965  -19.5387   21.9397 C   0  0  0  0  0  0  0  0  0  0  0  0
  -24.7014  -28.2136   24.8638 N   0  0  0  0  0  0  0  0  0  0  0  0
  -25.5328  -29.1697   24.4156 N   0  0  0  0  0  0  0  0  0  0  0  0
  -29.8790  -24.8789   17.3235 N   0  0  0  0  0  0  0  0  0  0  0  0
  -26.1554  -18.3681   21.4792 N   0  0  0  0  0  0  0  0  0  0  0  0
  -29.0940  -28.0492   25.2435 N   0  0  0  0  0  0  0  0  0  0  0  0
  -30.1757  -27.9739   23.1120 N   0  0  0  0  0  0  0  0  0  0  0  0
  -25.6749  -30.9989   22.9175 N   0  0  0  0  0  0  0  0  0  0  0  0
  -21.4565  -29.4967   22.3306 N   0  0  0  0  0  0  0  0  0  0  0  0
  -25.5554  -15.1908   20.5228 N   0  0  0  0  0  0  0  0  0  0  0  0
  -24.5004  -20.4489   23.5743 N   0  0  0  0  0  0  0  0  0  0  0  0
  -29.8643  -27.6921   20.3025 N   0  3  0  0  0  0  0  0  0  0  0  0
  -26.5496  -22.8575   25.3257 N   0  3  0  0  0  0  0  0  0  0  0  0
  -30.6675  -25.4363   19.4671 O   0  0  0  0  0  0  0  0  0  0  0  0
  -22.9872  -31.0623   21.6490 O   0  0  0  0  0  0  0  0  0  0  0  0
  -26.3001  -16.8474   19.0655 O   0  0  0  0  0  0  0  0  0  0  0  0
  -24.7488  -17.6217   23.1823 O   0  0  0  0  0  0  0  0  0  0  0  0
  -25.6820  -22.2515   22.7187 O   0  0  0  0  0  0  0  0  0  0  0  0
  -31.3314  -28.5639   25.0189 O   0  0  0  0  0  0  0  0  0  0  0  0
  -19.0972  -25.1918   24.9643 O   0  0  0  0  0  0  0  0  0  0  0  0
  -29.9742  -21.1975   17.5331 O   0  0  0  0  0  0  0  0  0  1  0  0
  -19.8811  -19.7381   25.1798 F   0  0  0  0  0  0  0  0  0  0  0  0
  -20.7352  -24.0693   26.8877 F   0  0  0  0  0  0  0  0  0  0  0  0
  1  2  1  0  0  0  0
  1  5  2  0  0  0  0
  2  6  2  0  0  0  0
  3  8  2  0  0  0  0
  3 15  1  0  0  0  0
  4  9  1  0  0  0  0
  4 15  2  0  0  0  0
  5 17  1  0  0  0  0
  6 19  1  0  0  0  0
  7 10  2  0  0  0  0
  7 18  1  0  0  0  0
  8 21  1  0  0  0  0
  9 21  2  0  0  0  0
 10 22  1  0  0  0  0
 11 12  2  0  0  0  0
 11 23  1  0  0  0  0
 12 24  1  0  0  0  0
 13 20  1  0  0  0  0
 13 22  2  0  0  0  0
 14 24  2  0  0  0  0
 14 25  1  0  0  0  0
 15 26  1  0  0  0  0
 16 26  1  0  0  0  0
 16 27  2  0  0  0  0
 16 30  1  0  0  0  0
 17 19  2  0  0  0  0
 17 36  1  0  0  0  0
 18 20  2  0  0  0  0
 18 37  1  0  0  0  0
 19 52  1  0  0  0  0
 20 38  1  0  0  0  0
 21 86  1  0  0  0  0
 22 87  1  0  0  0  0
 23 25  2  0  0  0  0
 23 86  1  0  0  0  0
 24 88  1  0  0  0  0
 25 89  1  0  0  0  0
 26 68  2  0  0  0  0
 27 69  1  0  0  0  0
 27 74  1  0  0  0  0
 28 29  1  0  0  0  0
 28 31  2  0  0  0  0
 28 53  1  0  0  0  0
 29 70  1  0  0  0  0
 29 80  2  0  0  0  0
 30 75  1  0  0  0  0
 30 81  2  0  0  0  0
 31 54  1  0  0  0  0
 31 78  1  0  0  0  0
 32 55  1  0  0  0  0
 32 76  1  0  0  0  0
 32 82  2  0  0  0  0
 33 65  1  0  0  0  0
 33 71  1  0  0  0  0
 33 83  2  0  0  0  0
 34 66  1  0  0  0  0
 34 77  1  0  0  0  0
 34 84  2  0  0  0  0
 35 72  1  0  0  0  0
 35 73  1  0  0  0  0
 35 85  2  0  0  0  0
 36 39  1  0  0  0  0
 37 55  1  0  0  0  0
 38 71  1  0  0  0  0
 39 41  1  0  0  0  0
 40 44  1  0  0  0  0
 40 45  1  0  0  0  0
 41 52  1  0  0  0  0
 42 43  1  0  0  0  0
 42 54  1  0  0  0  0
 43 54  1  0  0  0  0
 44 56  1  0  0  0  0
 45 72  1  0  0  0  0
 46 50  1  0  0  0  0
 46 73  1  0  0  0  0
 47 51  1  0  0  0  0
 47 73  1  0  0  0  0
 48 53  1  0  0  0  0
 48 70  1  0  0  0  0
 49 56  1  0  0  0  0
 49 72  1  0  0  0  0
 50 78  1  0  0  0  0
 51 78  1  0  0  0  0
 52 76  1  0  0  0  0
 53 57  1  0  0  0  0
 55 71  1  0  0  0  0
 56 69  1  0  0  0  0
 58 66  1  0  0  0  0
 59 67  1  0  0  0  0
 60 67  1  0  0  0  0
 61 67  1  0  0  0  0
 62 79  1  0  0  0  0
 63 64  1  0  0  0  0
 63 70  1  0  0  0  0
 64 87  1  0  0  0  0
 65 67  1  0  0  0  0
 65 77  1  0  0  0  0
 66 79  1  0  0  0  0
 68 69  1  0  0  0  0
M  CHG  2  78   1  79   1
M  ISO  4  35 100  64 101  73 100  87 101
M  END
> <Batch ID>
0176

> <Smiles>
CNC(C)C(=O)NC(C(=O)N1Cc2cc([101O:1][101CH2:1]CN3CC(C)C(=C(C4CC4)N4CC[100N:0]([100C:0](=O)N5CCCC(n6nc(-c7ccc(Oc8ccc(F)cc8F)cc7)c(C(N)=O)c6N)C5)CC4)C3=O)ccc2CC1C(=O)NC1CCCc2ccccc21)C(C)(C)C

> <Shape>
0.193

> <Color>
0.060

> <Negative vol penalty>
0.000

$$$$

  -OEChem-04052322503D

 87 96  0     1  0  0  0  0  0999 V2000
  -28.8015  -21.1530   15.7469 C   0  0  0  0  0  0  0  0  0  0  0  0
  -28.4139  -22.4808   15.8877 C   0  0  0  0  0  0  0  0  0  0  0  0
  -23.9131  -17.0782   19.0615 C   0  0  0  0  0  0  0  0  0  0  0  0
  -24.3177  -18.0128   21.2523 C   0  0  0  0  0  0  0  0  0  0  0  0
  -29.0075  -20.3674   16.8789 C   0  0  0  0  0  0  0  0  0  0  0  0
  -28.2437  -23.0266   17.1604 C   0  0  0  0  0  0  0  0  0  0  0  0
  -26.2802  -28.5328   18.8791 C   0  0  0  0  0  0  0  0  0  0  0  0
  -24.6666  -15.9548   19.4016 C   0  0  0  0  0  0  0  0  0  0  0  0
  -25.0712  -16.8894   21.5925 C   0  0  0  0  0  0  0  0  0  0  0  0
  -25.0681  -29.1348   19.2141 C   0  0  0  0  0  0  0  0  0  0  0  0
  -26.1829  -12.6772   19.8182 C   0  0  0  0  0  0  0  0  0  0  0  0
  -25.6676  -11.4250   19.4834 C   0  0  0  0  0  0  0  0  0  0  0  0
  -25.5413  -28.7730   21.5517 C   0  0  0  0  0  0  0  0  0  0  0  0
  -18.9794  -27.5599   23.9411 C   0  0  0  0  0  0  0  0  0  0  0  0
  -23.7227  -11.8603   20.8490 C   0  0  0  0  0  0  0  0  0  0  0  0
  -23.7387  -18.1073   19.9868 C   0  0  0  0  0  0  0  0  0  0  0  0
  -21.5764  -19.4498   19.8144 C   0  0  0  0  0  0  0  0  0  0  0  0
  -28.8275  -20.9011   18.1657 C   0  0  0  0  0  0  0  0  0  0  0  0
  -27.1284  -28.0357   19.8791 C   0  0  0  0  0  0  0  0  0  0  0  0
  -28.4700  -22.2565   18.3156 C   0  0  0  0  0  0  0  0  0  0  0  0
  -26.7648  -28.1674   21.2269 C   0  0  0  0  0  0  0  0  0  0  0  0
  -19.5544  -28.7332   23.4658 C   0  0  0  0  0  0  0  0  0  0  0  0
  -20.2382  -28.7249   22.2552 C   0  0  0  0  0  0  0  0  0  0  0  0
  -25.2457  -15.8603   20.6671 C   0  0  0  0  0  0  0  0  0  0  0  0
  -24.6971  -29.2524   20.5504 C   0  0  0  0  0  0  0  0  0  0  0  0
  -25.4682  -13.5209   20.6685 C   0  0  0  0  0  0  0  0  0  0  0  0
  -24.4375  -11.0166   19.9988 C   0  0  0  0  0  0  0  0  0  0  0  0
  -24.2381  -13.1125   21.1839 C   0  0  0  0  0  0  0  0  0  0  0  0
  -22.9610  -19.2683   19.6359 C   0  0  0  0  0  0  0  0  0  0  0  0
  -19.1153  -26.4140   23.1742 C   0  0  0  0  0  0  0  0  0  0  0  0
  -20.3180  -27.5268   21.5638 C   0  0  0  0  0  0  0  0  0  0  0  0
  -21.3290  -20.7086   19.3240 C   0  0  0  0  0  0  0  0  0  0  0  0
  -20.6011  -18.5600   20.3736 C   0  0  0  0  0  0  0  0  0  0  0  0
  -28.2686  -25.1655   20.6308 C   0  0  0  0  0  0  0  0  0  0  0  0
  -22.7433  -26.1090   18.9699 C   0  0  0  0  0  0  0  0  0  0  0  0
  -29.9893  -26.8485   22.8054 C   0  0  0  0  0  0  0  0  0  0  0  0
  -30.2907  -29.6652   24.7087 C   0  0  0  0  0  0  0  0  0  0  0  0
  -29.0716  -20.0081   19.3566 C   0  0  0  0  0  0  0  0  0  0  0  0
  -28.4448  -27.4131   19.5025 C   0  0  0  0  0  0  0  0  0  0  0  0
  -27.6492  -27.6683   22.3392 C   0  0  0  0  0  0  0  0  0  0  0  0
  -28.4404  -20.5412   20.6387 C   0  0  0  0  0  0  0  0  0  0  0  0
  -24.2470  -23.8384   16.6411 C   0  0  0  0  0  0  0  0  0  0  0  0
  -18.0499  -30.4585   24.6632 C   0  0  0  0  0  0  0  0  0  0  0  0
  -18.8310  -31.2087   23.6301 C   0  0  0  0  0  0  0  0  0  0  0  0
  -28.8097  -22.0046   20.8303 C   0  0  0  0  0  0  0  0  0  0  0  0
  -23.9590  -22.4637   17.2431 C   0  0  0  0  0  0  0  0  0  0  0  0
  -24.4932  -24.8825   17.7258 C   0  0  0  0  0  0  0  0  0  0  0  0
  -23.0995  -23.6162   19.3308 C   0  0  0  0  0  0  0  0  0  0  0  0
  -19.4235  -29.9832   24.2725 C   0  0  0  0  0  0  0  0  0  0  0  0
  -28.2492  -22.8632   19.6895 C   0  0  1  0  0  0  0  0  0  0  0  0
  -28.9938  -26.4803   20.5776 C   0  0  1  0  0  0  0  0  0  0  0  0
  -22.8148  -22.5386   18.2696 C   0  0  2  0  0  0  0  0  0  0  0  0
  -18.5110  -25.1365   23.6535 C   0  0  0  0  0  0  0  0  0  0  0  0
  -31.7845  -30.7388   26.4155 C   0  0  0  0  0  0  0  0  0  0  0  0
  -21.8807  -32.0432   21.9186 C   0  0  0  0  0  0  0  0  0  0  0  0
  -28.9013  -24.9608   24.9414 C   0  0  0  0  0  0  0  0  0  0  0  0
  -29.6317  -26.6133   26.6747 C   0  0  0  0  0  0  0  0  0  0  0  0
  -31.3227  -25.5345   25.1915 C   0  0  0  0  0  0  0  0  0  0  0  0
  -30.8271  -31.9845   22.9503 C   0  0  0  0  0  0  0  0  0  0  0  0
  -21.6199  -26.0541   19.9744 C   0  0  0  0  0  0  0  0  0  0  0  0
  -23.1974  -29.9261   22.2687 C   0  0  0  0  0  0  0  0  0  1  0  0
  -21.0392  -27.4522   20.2570 C   0  0  1  0  0  0  0  0  0  0  0  0
  -29.7716  -27.2862   24.2337 C   0  0  1  0  0  0  0  0  0  0  0  0
  -31.4592  -30.6072   24.9357 C   0  0  2  0  0  0  0  0  0  0  0  0
  -21.8496  -30.6191   22.4576 C   0  0  2  0  0  0  0  0  0  0  0  0
  -29.8890  -26.1065   25.2395 C   0  0  0  0  0  0  0  0  0  0  0  0
  -23.5517  -20.3272   19.0756 N   0  0  0  0  0  0  0  0  0  0  0  0
  -19.7722  -26.3670   21.9935 N   0  0  0  0  0  0  0  0  0  0  0  0
  -22.5335  -21.1860   18.8978 N   0  0  0  0  0  0  0  0  0  0  0  0
  -28.9233  -27.0615   21.9198 N   0  0  0  0  0  0  0  0  0  0  0  0
  -23.3949  -24.9069   18.6935 N   0  0  0  0  0  0  0  0  0  0  0  0
  -20.2009  -21.4427   19.2199 N   0  0  0  0  0  0  0  0  0  0  0  0
  -21.0258  -17.3047   20.8299 N   0  0  0  0  0  0  0  0  0  0  0  0
  -20.8201  -29.8766   21.7583 N   0  0  0  0  0  0  0  0  0  0  0  0
  -28.7928  -24.1995   19.7933 N   0  0  0  0  0  0  0  0  0  0  0  0
  -30.7136  -28.3737   24.4755 N   0  0  0  0  0  0  0  0  0  0  0  0
  -20.1679  -27.8401   19.0918 N   0  3  0  0  0  0  0  0  0  0  0  0
  -31.1437  -31.9622   24.4016 N   0  3  0  0  0  0  0  0  0  0  0  0
  -19.3862  -18.8625   20.4510 O   0  0  0  0  0  0  0  0  0  0  0  0
  -27.3056  -25.0364   21.3776 O   0  0  0  0  0  0  0  0  0  0  0  0
  -23.0296  -27.1884   18.4454 O   0  0  0  0  0  0  0  0  0  0  0  0
  -31.0681  -26.3431   22.4856 O   0  0  0  0  0  0  0  0  0  0  0  0
  -29.1197  -30.0371   24.7391 O   0  0  0  0  0  0  0  0  0  0  0  0
  -25.9808  -14.7641   20.9994 O   0  0  0  0  0  0  0  0  0  0  0  0
  -23.5143  -29.8389   20.8800 O   0  0  0  0  0  0  0  0  0  1  0  0
  -23.9420   -9.8147   19.6759 F   0  0  0  0  0  0  0  0  0  0  0  0
  -23.5463  -13.9191   22.0003 F   0  0  0  0  0  0  0  0  0  0  0  0
  1  2  1  0  0  0  0
  1  5  2  0  0  0  0
  2  6  2  0  0  0  0
  3  8  2  0  0  0  0
  3 16  1  0  0  0  0
  4  9  1  0  0  0  0
  4 16  2  0  0  0  0
  5 18  1  0  0  0  0
  6 20  1  0  0  0  0
  7 10  2  0  0  0  0
  7 19  1  0  0  0  0
  8 24  1  0  0  0  0
  9 24  2  0  0  0  0
 10 25  1  0  0  0  0
 11 12  2  0  0  0  0
 11 26  1  0  0  0  0
 12 27  1  0  0  0  0
 13 21  1  0  0  0  0
 13 25  2  0  0  0  0
 14 22  2  0  0  0  0
 14 30  1  0  0  0  0
 15 27  2  0  0  0  0
 15 28  1  0  0  0  0
 16 29  1  0  0  0  0
 17 29  1  0  0  0  0
 17 32  2  0  0  0  0
 17 33  1  0  0  0  0
 18 20  2  0  0  0  0
 18 38  1  0  0  0  0
 19 21  2  0  0  0  0
 19 39  1  0  0  0  0
 20 50  1  0  0  0  0
 21 40  1  0  0  0  0
 22 23  1  0  0  0  0
 22 49  1  0  0  0  0
 23 31  2  0  0  0  0
 23 74  1  0  0  0  0
 24 84  1  0  0  0  0
 25 85  1  0  0  0  0
 26 28  2  0  0  0  0
 26 84  1  0  0  0  0
 27 86  1  0  0  0  0
 28 87  1  0  0  0  0
 29 67  2  0  0  0  0
 30 53  1  0  0  0  0
 30 68  2  0  0  0  0
 31 62  1  0  0  0  0
 31 68  1  0  0  0  0
 32 69  1  0  0  0  0
 32 72  1  0  0  0  0
 33 73  1  0  0  0  0
 33 79  2  0  0  0  0
 34 51  1  0  0  0  0
 34 75  1  0  0  0  0
 34 80  2  0  0  0  0
 35 60  1  0  0  0  0
 35 71  1  0  0  0  0
 35 81  2  0  0  0  0
 36 63  1  0  0  0  0
 36 70  1  0  0  0  0
 36 82  2  0  0  0  0
 37 64  1  0  0  0  0
 37 76  1  0  0  0  0
 37 83  2  0  0  0  0
 38 41  1  0  0  0  0
 39 51  1  0  0  0  0
 40 70  1  0  0  0  0
 41 45  1  0  0  0  0
 42 46  1  0  0  0  0
 42 47  1  0  0  0  0
 43 44  1  0  0  0  0
 43 49  1  0  0  0  0
 44 49  1  0  0  0  0
 45 50  1  0  0  0  0
 46 52  1  0  0  0  0
 47 71  1  0  0  0  0
 48 52  1  0  0  0  0
 48 71  1  0  0  0  0
 50 75  1  0  0  0  0
 51 70  1  0  0  0  0
 52 69  1  0  0  0  0
 54 64  1  0  0  0  0
 55 65  1  0  0  0  0
 56 66  1  0  0  0  0
 57 66  1  0  0  0  0
 58 66  1  0  0  0  0
 59 78  1  0  0  0  0
 60 62  1  0  0  0  0
 61 65  1  0  0  0  0
 61 85  1  0  0  0  0
 62 77  1  0  0  0  0
 63 66  1  0  0  0  0
 63 76  1  0  0  0  0
 64 78  1  0  0  0  0
 65 74  1  0  0  0  0
 67 69  1  0  0  0  0
M  CHG  2  77   1  78   1
M  ISO  4  35 100  60 100  61 101  85 101
M  END
> <Batch ID>
0176

> <Smiles>
CNC(C)C(=O)NC(C(=O)N1Cc2cc([101O:1][101CH2:1]C(C)Nc3c(C4CC4)cc(C)nc3C(N)[100CH2:0][100C:0](=O)N3CCCC(n4nc(-c5ccc(Oc6ccc(F)cc6F)cc5)c(C(N)=O)c4N)C3)ccc2CC1C(=O)NC1CCCc2ccccc21)C(C)(C)C

> <Shape>
0.211

> <Color>
0.060

> <Negative vol penalty>
0.000

$$$$

  -OEChem-04052322503D

 85 93  0     1  0  0  0  0  0999 V2000
  -30.7257  -13.2112   22.6102 C   0  0  0  0  0  0  0  0  0  0  0  0
  -29.9559  -14.2908   23.0282 C   0  0  0  0  0  0  0  0  0  0  0  0
  -30.0947  -20.2465   17.8126 C   0  0  0  0  0  0  0  0  0  0  0  0
  -28.6640  -20.6265   19.7220 C   0  0  0  0  0  0  0  0  0  0  0  0
  -30.4643  -12.6077   21.3820 C   0  0  0  0  0  0  0  0  0  0  0  0
  -28.9168  -14.7596   22.2235 C   0  0  0  0  0  0  0  0  0  0  0  0
  -25.2097  -19.5437   22.9290 C   0  0  0  0  0  0  0  0  0  0  0  0
  -30.4710  -19.0114   18.3403 C   0  0  0  0  0  0  0  0  0  0  0  0
  -29.0403  -19.3914   20.2497 C   0  0  0  0  0  0  0  0  0  0  0  0
  -25.1799  -20.8865   22.5551 C   0  0  0  0  0  0  0  0  0  0  0  0
  -32.5801  -17.8564   20.7156 C   0  0  0  0  0  0  0  0  0  0  0  0
  -33.9356  -17.5283   20.6921 C   0  0  0  0  0  0  0  0  0  0  0  0
  -23.7959  -20.3223   20.6616 C   0  0  0  0  0  0  0  0  0  0  0  0
  -22.8548  -29.3899   22.2167 C   0  0  0  0  0  0  0  0  0  0  0  0
  -33.4426  -15.5892   19.3377 C   0  0  0  0  0  0  0  0  0  0  0  0
  -29.1913  -21.0541   18.5035 C   0  0  0  0  0  0  0  0  0  0  0  0
  -28.1677  -22.5707   16.7259 C   0  0  0  0  0  0  0  0  0  0  0  0
  -29.4294  -13.0778   20.5569 C   0  0  0  0  0  0  0  0  0  0  0  0
  -24.5406  -18.5770   22.1646 C   0  0  0  0  0  0  0  0  0  0  0  0
  -28.6219  -14.1486   20.9913 C   0  0  0  0  0  0  0  0  0  0  0  0
  -23.8165  -18.9683   21.0294 C   0  0  0  0  0  0  0  0  0  0  0  0
  -22.7625  -28.3072   21.3493 C   0  0  0  0  0  0  0  0  0  0  0  0
  -23.9197  -27.7476   20.8192 C   0  0  0  0  0  0  0  0  0  0  0  0
  -29.9438  -18.5838   19.5589 C   0  0  0  0  0  0  0  0  0  0  0  0
  -24.4754  -21.2756   21.4197 C   0  0  0  0  0  0  0  0  0  0  0  0
  -31.6558  -17.0510   20.0503 C   0  0  0  0  0  0  0  0  0  0  0  0
  -34.3668  -16.3947   20.0031 C   0  0  0  0  0  0  0  0  0  0  0  0
  -32.0871  -15.9174   19.3614 C   0  0  0  0  0  0  0  0  0  0  0  0
  -28.8026  -22.3303   17.9591 C   0  0  0  0  0  0  0  0  0  0  0  0
  -25.1351  -28.3031   21.1850 C   0  0  0  0  0  0  0  0  0  0  0  0
  -24.1180  -29.8718   22.5201 C   0  0  0  0  0  0  0  0  0  0  0  0
  -28.0171  -23.9351   16.6774 C   0  0  0  0  0  0  0  0  0  0  0  0
  -27.7512  -21.6437   15.7146 C   0  0  0  0  0  0  0  0  0  0  0  0
  -25.4320  -16.0094   20.5165 C   0  0  0  0  0  0  0  0  0  0  0  0
  -22.2323  -15.5906   20.1871 C   0  0  0  0  0  0  0  0  0  0  0  0
  -19.1156  -16.9807   20.1642 C   0  0  0  0  0  0  0  0  0  0  0  0
  -27.6329  -28.1519   20.8936 C   0  0  0  0  0  0  0  0  0  0  0  0
  -29.1850  -12.3824   19.2409 C   0  0  0  0  0  0  0  0  0  0  0  0
  -24.5602  -17.1363   22.5964 C   0  0  0  0  0  0  0  0  0  0  0  0
  -23.0647  -17.9723   20.1861 C   0  0  0  0  0  0  0  0  0  0  0  0
  -28.3629  -13.2220   18.2685 C   0  0  0  0  0  0  0  0  0  0  0  0
  -30.0260  -27.9830   18.2627 C   0  0  0  0  0  0  0  0  0  0  0  0
  -27.1222  -13.7593   18.9660 C   0  0  0  0  0  0  0  0  0  0  0  0
  -29.9217  -26.5378   17.7700 C   0  0  0  0  0  0  0  0  0  0  0  0
  -29.8518  -28.0798   19.7773 C   0  0  0  0  0  0  0  0  0  0  0  0
  -28.5332  -25.9991   19.8118 C   0  0  0  0  0  0  0  0  0  0  0  0
  -27.5061  -14.6951   20.1191 C   0  0  1  0  0  0  0  0  0  0  0  0
  -24.2694  -16.1665   21.4552 C   0  0  1  0  0  0  0  0  0  0  0  0
  -28.6375  -25.8583   18.2844 C   0  0  2  0  0  0  0  0  0  0  0  0
  -21.4141  -27.7665   21.0044 C   0  0  0  0  0  0  0  0  0  0  0  0
  -24.4720  -26.8622   18.5162 C   0  0  0  0  0  0  0  0  0  0  0  0
  -16.6094  -17.0767   20.0797 C   0  0  0  0  0  0  0  0  0  0  0  0
  -22.6897  -15.4305   17.1746 C   0  0  0  0  0  0  0  0  0  0  0  0
  -20.2346  -15.8003   16.8524 C   0  0  0  0  0  0  0  0  0  0  0  0
  -21.0403  -13.7769   18.0686 C   0  0  0  0  0  0  0  0  0  0  0  0
  -18.8887  -16.6614   23.0978 C   0  0  0  0  0  0  0  0  0  0  0  0
  -25.5540  -31.3934   23.6508 C   0  0  0  0  0  0  0  0  0  0  0  0
  -23.8409  -24.8304   21.6665 C   0  0  0  0  0  0  0  0  0  0  0  0
  -24.5394  -23.5550   22.0949 C   0  0  0  0  0  0  0  0  0  1  0  0
  -23.8395  -26.5705   19.8747 C   0  0  1  0  0  0  0  0  0  0  0  0
  -21.1927  -16.0385   19.1883 C   0  0  1  0  0  0  0  0  0  0  0  0
  -17.8221  -16.5647   20.8412 C   0  0  2  0  0  0  0  0  0  0  0  0
  -21.3050  -15.2803   17.8356 C   0  0  0  0  0  0  0  0  0  0  0  0
  -29.0392  -23.4520   18.6446 N   0  0  0  0  0  0  0  0  0  0  0  0
  -25.2646  -29.3546   22.0248 N   0  0  0  0  0  0  0  0  0  0  0  0
  -28.5505  -24.4105   17.8392 N   0  0  0  0  0  0  0  0  0  0  0  0
  -23.1193  -16.5747   20.6459 N   0  0  0  0  0  0  0  0  0  0  0  0
  -28.6123  -27.4185   20.1911 N   0  0  0  0  0  0  0  0  0  0  0  0
  -27.4818  -24.7625   15.7548 N   0  0  0  0  0  0  0  0  0  0  0  0
  -26.4575  -21.1097   15.7896 N   0  0  0  0  0  0  0  0  0  0  0  0
  -26.3221  -27.7421   20.6519 N   0  0  0  0  0  0  0  0  0  0  0  0
  -26.3198  -15.0155   20.8820 N   0  0  0  0  0  0  0  0  0  0  0  0
  -19.9008  -15.8917   19.8501 N   0  0  0  0  0  0  0  0  0  0  0  0
  -17.7674  -17.1039   22.2295 N   0  3  0  0  0  0  0  0  0  0  0  0
  -24.4776  -25.3456   20.4282 N   0  3  0  0  0  0  0  0  0  0  0  0
  -28.5097  -21.2864   14.7815 O   0  0  0  0  0  0  0  0  0  0  0  0
  -25.5166  -16.7350   19.5326 O   0  0  0  0  0  0  0  0  0  0  0  0
  -22.2519  -14.4125   20.5523 O   0  0  0  0  0  0  0  0  0  0  0  0
  -19.3992  -18.1541   19.9335 O   0  0  0  0  0  0  0  0  0  0  0  0
  -27.9328  -29.0931   21.6326 O   0  0  0  0  0  0  0  0  0  0  0  0
  -30.3105  -17.3786   20.0740 O   0  0  0  0  0  0  0  0  0  0  0  0
  -24.4453  -22.5855   21.0521 O   0  0  0  0  0  0  0  0  0  1  0  0
  -24.2352  -30.9381   23.3728 O   0  0  0  0  0  0  0  0  0  0  0  0
  -35.6687  -16.0805   19.9793 F   0  0  0  0  0  0  0  0  0  0  0  0
  -31.2039  -15.1404   18.7193 F   0  0  0  0  0  0  0  0  0  0  0  0
  1  2  1  0  0  0  0
  1  5  2  0  0  0  0
  2  6  2  0  0  0  0
  3  8  2  0  0  0  0
  3 16  1  0  0  0  0
  4  9  1  0  0  0  0
  4 16  2  0  0  0  0
  5 18  1  0  0  0  0
  6 20  1  0  0  0  0
  7 10  2  0  0  0  0
  7 19  1  0  0  0  0
  8 24  1  0  0  0  0
  9 24  2  0  0  0  0
 10 25  1  0  0  0  0
 11 12  2  0  0  0  0
 11 26  1  0  0  0  0
 12 27  1  0  0  0  0
 13 21  1  0  0  0  0
 13 25  2  0  0  0  0
 14 22  2  0  0  0  0
 14 31  1  0  0  0  0
 15 27  2  0  0  0  0
 15 28  1  0  0  0  0
 16 29  1  0  0  0  0
 17 29  1  0  0  0  0
 17 32  2  0  0  0  0
 17 33  1  0  0  0  0
 18 20  2  0  0  0  0
 18 38  1  0  0  0  0
 19 21  2  0  0  0  0
 19 39  1  0  0  0  0
 20 47  1  0  0  0  0
 21 40  1  0  0  0  0
 22 23  1  0  0  0  0
 22 50  1  0  0  0  0
 23 30  2  0  0  0  0
 23 60  1  0  0  0  0
 24 81  1  0  0  0  0
 25 82  1  0  0  0  0
 26 28  2  0  0  0  0
 26 81  1  0  0  0  0
 27 84  1  0  0  0  0
 28 85  1  0  0  0  0
 29 64  2  0  0  0  0
 30 65  1  0  0  0  0
 30 71  1  0  0  0  0
 31 65  2  0  0  0  0
 31 83  1  0  0  0  0
 32 66  1  0  0  0  0
 32 69  1  0  0  0  0
 33 70  1  0  0  0  0
 33 76  2  0  0  0  0
 34 48  1  0  0  0  0
 34 72  1  0  0  0  0
 34 77  2  0  0  0  0
 35 61  1  0  0  0  0
 35 67  1  0  0  0  0
 35 78  2  0  0  0  0
 36 62  1  0  0  0  0
 36 73  1  0  0  0  0
 36 79  2  0  0  0  0
 37 68  1  0  0  0  0
 37 71  1  0  0  0  0
 37 80  2  0  0  0  0
 38 41  1  0  0  0  0
 39 48  1  0  0  0  0
 40 67  1  0  0  0  0
 41 43  1  0  0  0  0
 42 44  1  0  0  0  0
 42 45  1  0  0  0  0
 43 47  1  0  0  0  0
 44 49  1  0  0  0  0
 45 68  1  0  0  0  0
 46 49  1  0  0  0  0
 46 68  1  0  0  0  0
 47 72  1  0  0  0  0
 48 67  1  0  0  0  0
 49 66  1  0  0  0  0
 51 60  1  0  0  0  0
 52 62  1  0  0  0  0
 53 63  1  0  0  0  0
 54 63  1  0  0  0  0
 55 63  1  0  0  0  0
 56 74  1  0  0  0  0
 57 83  1  0  0  0  0
 58 59  1  0  0  0  0
 58 75  1  0  0  0  0
 59 82  1  0  0  0  0
 60 75  1  0  0  0  0
 61 63  1  0  0  0  0
 61 73  1  0  0  0  0
 62 74  1  0  0  0  0
 64 66  1  0  0  0  0
M  CHG  2  74   1  75   1
M  ISO  4  37 100  59 101  71 100  82 101
M  END
> <Batch ID>
0176

> <Smiles>
CNC(C)C(=O)NC(C(=O)N1Cc2cc([101O:1][101CH2:1]CNC(C)c3c(C)cc(OC)nc3[100NH:0][100C:0](=O)N3CCCC(n4nc(-c5ccc(Oc6ccc(F)cc6F)cc5)c(C(N)=O)c4N)C3)ccc2CC1C(=O)NC1CCCc2ccccc21)C(C)(C)C

> <Shape>
0.193

> <Color>
0.065

> <Negative vol penalty>
0.000

$$$$

  -OEChem-04052322503D

 81 90  0     1  0  0  0  0  0999 V2000
  -18.3050  -25.8956   23.6256 C   0  0  0  0  0  0  0  0  0  0  0  0
  -19.6262  -25.8691   24.0607 C   0  0  0  0  0  0  0  0  0  0  0  0
  -26.6563  -13.4597   22.7356 C   0  0  0  0  0  0  0  0  0  0  0  0
  -26.0246  -13.2394   20.4141 C   0  0  0  0  0  0  0  0  0  0  0  0
  -17.9556  -26.6512   22.5072 C   0  0  0  0  0  0  0  0  0  0  0  0
  -20.5990  -26.5975   23.3769 C   0  0  0  0  0  0  0  0  0  0  0  0
  -25.4738  -29.4063   25.7960 C   0  0  0  0  0  0  0  0  0  0  0  0
  -31.1335  -26.3651   23.8803 C   0  0  0  0  0  0  0  0  0  0  0  0
  -25.5379  -12.7153   23.1106 C   0  0  0  0  0  0  0  0  0  0  0  0
  -24.9062  -12.4949   20.7891 C   0  0  0  0  0  0  0  0  0  0  0  0
  -26.8130  -29.0342   25.9039 C   0  0  0  0  0  0  0  0  0  0  0  0
  -24.2316   -9.3222   21.7375 C   0  0  0  0  0  0  0  0  0  0  0  0
  -23.9548   -8.1622   21.0141 C   0  0  0  0  0  0  0  0  0  0  0  0
  -30.7616  -27.5434   24.5180 C   0  0  0  0  0  0  0  0  0  0  0  0
  -27.3150  -30.2825   23.9017 C   0  0  0  0  0  0  0  0  0  0  0  0
  -21.8049   -9.0674   20.3852 C   0  0  0  0  0  0  0  0  0  0  0  0
  -26.8996  -13.7218   21.3873 C   0  0  0  0  0  0  0  0  0  0  0  0
  -29.3391  -14.0020   20.6960 C   0  0  0  0  0  0  0  0  0  0  0  0
  -18.9229  -27.3968   21.8151 C   0  0  0  0  0  0  0  0  0  0  0  0
  -25.0423  -30.2117   24.7323 C   0  0  0  0  0  0  0  0  0  0  0  0
  -20.2624  -27.3627   22.2473 C   0  0  0  0  0  0  0  0  0  0  0  0
  -30.1820  -25.6275   23.1846 C   0  0  0  0  0  0  0  0  0  0  0  0
  -25.9702  -30.6656   23.7840 C   0  0  0  0  0  0  0  0  0  0  0  0
  -24.6629  -12.2328   22.1374 C   0  0  0  0  0  0  0  0  0  0  0  0
  -27.7333  -29.4699   24.9551 C   0  0  0  0  0  0  0  0  0  0  0  0
  -23.2950  -10.3548   21.7849 C   0  0  0  0  0  0  0  0  0  0  0  0
  -22.7415   -8.0348   20.3379 C   0  0  0  0  0  0  0  0  0  0  0  0
  -22.0817  -10.2274   21.1087 C   0  0  0  0  0  0  0  0  0  0  0  0
  -28.0544  -14.4912   20.9994 C   0  0  0  0  0  0  0  0  0  0  0  0
  -28.8824  -26.1075   23.1569 C   0  0  0  0  0  0  0  0  0  0  0  0
  -29.4362  -27.9376   24.4308 C   0  0  0  0  0  0  0  0  0  1  0  0
  -30.0702  -15.1237   20.3898 C   0  0  0  0  0  0  0  0  0  0  0  0
  -29.8279  -12.6541   20.6914 C   0  0  0  0  0  0  0  0  0  0  0  0
  -22.9999  -29.8433   22.3247 C   0  0  0  0  0  0  0  0  0  0  0  0
  -23.6558  -32.9766   21.8013 C   0  0  0  0  0  0  0  0  0  0  0  0
  -25.8195  -35.5874   22.1871 C   0  0  0  0  0  0  0  0  0  0  0  0
  -29.3229  -20.7828   22.0973 C   0  0  0  0  0  0  0  0  0  0  0  0
  -18.5060  -28.1609   20.5834 C   0  0  0  0  0  0  0  0  0  0  0  0
  -23.5991  -30.6264   24.6450 C   0  0  0  0  0  0  0  0  0  0  0  0
  -25.5616  -31.5485   22.6343 C   0  0  0  0  0  0  0  0  0  0  0  0
  -19.5288  -29.2028   20.1377 C   0  0  0  0  0  0  0  0  0  0  0  0
  -29.6217  -19.5351   18.6380 C   0  0  0  0  0  0  0  0  0  0  0  0
  -20.9329  -28.6068   20.1382 C   0  0  0  0  0  0  0  0  0  0  0  0
  -29.3139  -18.0535   18.8329 C   0  0  0  0  0  0  0  0  0  0  0  0
  -31.2590  -23.2819   23.2897 C   0  0  0  0  0  0  0  0  0  0  0  0
  -28.8328  -20.4169   19.6052 C   0  0  0  0  0  0  0  0  0  0  0  0
  -28.6990  -18.5505   21.2309 C   0  0  0  0  0  0  0  0  0  0  0  0
  -30.5728  -24.3640   22.4987 C   0  0  1  0  0  0  0  0  0  0  0  0
  -21.3417  -28.1592   21.5467 C   0  0  1  0  0  0  0  0  0  0  0  0
  -23.1765  -31.0259   23.2346 C   0  0  1  0  0  0  0  0  0  0  0  0
  -29.5197  -17.6450   20.2997 C   0  0  1  0  0  0  0  0  0  0  0  0
  -29.8403  -23.0868   22.8427 C   0  0  1  0  0  0  0  0  0  0  0  0
  -27.8172  -25.3580   22.4253 C   0  0  0  0  0  0  0  0  0  0  0  0
  -26.0976  -38.0159   21.6190 C   0  0  0  0  0  0  0  0  0  0  0  0
  -24.3482  -32.2225   18.9270 C   0  0  0  0  0  0  0  0  0  0  0  0
  -25.4969  -34.4352   18.6968 C   0  0  0  0  0  0  0  0  0  0  0  0
  -23.0481  -34.3457   19.1641 C   0  0  0  0  0  0  0  0  0  0  0  0
  -25.9222  -36.3628   25.0414 C   0  0  0  0  0  0  0  0  0  0  0  0
  -24.6823  -33.7336   20.9936 C   0  0  1  0  0  0  0  0  0  0  0  0
  -25.6016  -37.0160   22.6520 C   0  0  2  0  0  0  0  0  0  0  0  0
  -24.4015  -33.6660   19.4658 C   0  0  0  0  0  0  0  0  0  0  0  0
  -27.9710  -15.8202   20.8955 N   0  0  0  0  0  0  0  0  0  0  0  0
  -28.4837  -27.2475   23.7643 N   0  0  0  0  0  0  0  0  0  0  0  0
  -29.2125  -16.1756   20.5235 N   0  0  0  0  0  0  0  0  0  0  0  0
  -24.1381  -31.9216   22.5888 N   0  0  0  0  0  0  0  0  0  0  0  0
  -28.9925  -19.9699   20.9979 N   0  0  0  0  0  0  0  0  0  0  0  0
  -31.3567  -15.3030   20.0220 N   0  0  0  0  0  0  0  0  0  0  0  0
  -28.9433  -11.6214   21.0309 N   0  0  0  0  0  0  0  0  0  0  0  0
  -21.7291  -29.3008   22.3473 N   0  0  0  0  0  0  0  0  0  0  0  0
  -24.7114  -35.0874   21.5365 N   0  0  0  0  0  0  0  0  0  0  0  0
  -29.5054  -22.1327   21.8195 N   0  0  0  0  0  0  0  0  0  0  0  0
  -26.3279  -37.2613   23.9300 N   0  3  0  0  0  0  0  0  0  0  0  0
  -31.0184  -12.3753   20.4109 O   0  0  0  0  0  0  0  0  0  0  0  0
  -23.9460  -29.4527   21.6509 O   0  0  0  0  0  0  0  0  0  0  0  0
  -22.4707  -33.3137   21.7414 O   0  0  0  0  0  0  0  0  0  0  0  0
  -26.8692  -34.9775   22.3784 O   0  0  0  0  0  0  0  0  0  0  0  0
  -29.4417  -20.3407   23.2455 O   0  0  0  0  0  0  0  0  0  0  0  0
  -23.5716  -11.5062   22.5029 O   0  0  0  0  0  0  0  0  0  0  0  0
  -29.0410  -29.1076   25.0577 O   0  0  0  0  0  0  0  0  0  1  0  0
  -22.4765   -6.9214   19.6420 F   0  0  0  0  0  0  0  0  0  0  0  0
  -21.1784  -11.2165   21.1495 F   0  0  0  0  0  0  0  0  0  0  0  0
  1  2  1  0  0  0  0
  1  5  2  0  0  0  0
  2  6  2  0  0  0  0
  3  9  2  0  0  0  0
  3 17  1  0  0  0  0
  4 10  1  0  0  0  0
  4 17  2  0  0  0  0
  5 19  1  0  0  0  0
  6 21  1  0  0  0  0
  7 11  2  0  0  0  0
  7 20  1  0  0  0  0
  8 14  2  0  0  0  0
  8 22  1  0  0  0  0
  9 24  1  0  0  0  0
 10 24  2  0  0  0  0
 11 25  1  0  0  0  0
 12 13  2  0  0  0  0
 12 26  1  0  0  0  0
 13 27  1  0  0  0  0
 14 31  1  0  0  0  0
 15 23  1  0  0  0  0
 15 25  2  0  0  0  0
 16 27  2  0  0  0  0
 16 28  1  0  0  0  0
 17 29  1  0  0  0  0
 18 29  1  0  0  0  0
 18 32  2  0  0  0  0
 18 33  1  0  0  0  0
 19 21  2  0  0  0  0
 19 38  1  0  0  0  0
 20 23  2  0  0  0  0
 20 39  1  0  0  0  0
 21 49  1  0  0  0  0
 22 30  2  0  0  0  0
 22 48  1  0  0  0  0
 23 40  1  0  0  0  0
 24 78  1  0  0  0  0
 25 79  1  0  0  0  0
 26 28  2  0  0  0  0
 26 78  1  0  0  0  0
 27 80  1  0  0  0  0
 28 81  1  0  0  0  0
 29 62  2  0  0  0  0
 30 53  1  0  0  0  0
 30 63  1  0  0  0  0
 31 63  2  0  0  0  0
 31 79  1  0  0  0  0
 32 64  1  0  0  0  0
 32 67  1  0  0  0  0
 33 68  1  0  0  0  0
 33 73  2  0  0  0  0
 34 50  1  0  0  0  0
 34 69  1  0  0  0  0
 34 74  2  0  0  0  0
 35 59  1  0  0  0  0
 35 65  1  0  0  0  0
 35 75  2  0  0  0  0
 36 60  1  0  0  0  0
 36 70  1  0  0  0  0
 36 76  2  0  0  0  0
 37 66  1  0  0  0  0
 37 71  1  0  0  0  0
 37 77  2  0  0  0  0
 38 41  1  0  0  0  0
 39 50  1  0  0  0  0
 40 65  1  0  0  0  0
 41 43  1  0  0  0  0
 42 44  1  0  0  0  0
 42 46  1  0  0  0  0
 43 49  1  0  0  0  0
 44 51  1  0  0  0  0
 45 48  1  0  0  0  0
 45 52  1  0  0  0  0
 46 66  1  0  0  0  0
 47 51  1  0  0  0  0
 47 66  1  0  0  0  0
 48 52  1  0  0  0  0
 49 69  1  0  0  0  0
 50 65  1  0  0  0  0
 51 64  1  0  0  0  0
 52 71  1  0  0  0  0
 54 60  1  0  0  0  0
 55 61  1  0  0  0  0
 56 61  1  0  0  0  0
 57 61  1  0  0  0  0
 58 72  1  0  0  0  0
 59 61  1  0  0  0  0
 59 70  1  0  0  0  0
 60 72  1  0  0  0  0
 62 64  1  0  0  0  0
M  CHG  1  72   1
M  ISO  4  31 101  37 100  71 100  79 101
M  END
> <Batch ID>
0176

> <Smiles>
CNC(C)C(=O)NC(C(=O)N1Cc2cc([101O:1][101c:1]3ccc(C4CC4[100NH:0][100C:0](=O)N4CCCC(n5nc(-c6ccc(Oc7ccc(F)cc7F)cc6)c(C(N)=O)c5N)C4)c(C)n3)ccc2CC1C(=O)NC1CCCc2ccccc21)C(C)(C)C

> <Shape>
0.287

> <Color>
0.120

> <Negative vol penalty>
0.000

$$$$

  -OEChem-04052322503D

 87 96  0     1  0  0  0  0  0999 V2000
  -25.8150   -7.3295   21.8156 C   0  0  0  0  0  0  0  0  0  0  0  0
  -26.3516   -8.4961   21.2802 C   0  0  0  0  0  0  0  0  0  0  0  0
  -23.4056  -29.2264   20.9169 C   0  0  0  0  0  0  0  0  0  0  0  0
  -24.7862  -28.4204   22.7284 C   0  0  0  0  0  0  0  0  0  0  0  0
  -24.4386   -7.2221   22.0105 C   0  0  0  0  0  0  0  0  0  0  0  0
  -25.5119   -9.5556   20.9384 C   0  0  0  0  0  0  0  0  0  0  0  0
  -27.3043  -14.0320   22.4855 C   0  0  0  0  0  0  0  0  0  0  0  0
  -22.2779  -29.1258   21.7316 C   0  0  0  0  0  0  0  0  0  0  0  0
  -23.6585  -28.3199   23.5431 C   0  0  0  0  0  0  0  0  0  0  0  0
  -28.3245  -14.6057   21.7279 C   0  0  0  0  0  0  0  0  0  0  0  0
  -20.2042  -26.6906   22.8242 C   0  0  0  0  0  0  0  0  0  0  0  0
  -19.0589  -26.1133   22.2760 C   0  0  0  0  0  0  0  0  0  0  0  0
  -26.7108  -16.0404   20.6523 C   0  0  0  0  0  0  0  0  0  0  0  0
  -17.8374  -28.1597   22.6725 C   0  0  0  0  0  0  0  0  0  0  0  0
  -31.2429  -18.9003   20.3684 C   0  0  0  0  0  0  0  0  0  0  0  0
  -24.6598  -28.8736   21.4153 C   0  0  0  0  0  0  0  0  0  0  0  0
  -26.6707  -30.0924   20.4262 C   0  0  0  0  0  0  0  0  0  0  0  0
  -23.5826   -8.2845   21.6800 C   0  0  0  0  0  0  0  0  0  0  0  0
  -25.9759  -14.4514   22.3241 C   0  0  0  0  0  0  0  0  0  0  0  0
  -24.1226   -9.4618   21.1279 C   0  0  0  0  0  0  0  0  0  0  0  0
  -25.6760  -15.4722   21.4109 C   0  0  0  0  0  0  0  0  0  0  0  0
  -30.9031  -19.4402   21.5921 C   0  0  0  0  0  0  0  0  0  0  0  0
  -22.4043  -28.6726   23.0447 C   0  0  0  0  0  0  0  0  0  0  0  0
  -28.0274  -15.6080   20.8091 C   0  0  0  0  0  0  0  0  0  0  0  0
  -20.1661  -28.0025   23.2967 C   0  0  0  0  0  0  0  0  0  0  0  0
  -17.8755  -26.8478   22.2000 C   0  0  0  0  0  0  0  0  0  0  0  0
  -18.9827  -28.7371   23.2208 C   0  0  0  0  0  0  0  0  0  0  0  0
  -25.8250  -28.9768   20.5741 C   0  0  0  0  0  0  0  0  0  0  0  0
  -29.8835  -18.7987   22.2652 C   0  0  0  0  0  0  0  0  0  0  0  0
  -27.6211  -29.6855   19.5219 C   0  0  0  0  0  0  0  0  0  0  0  0
  -29.6615  -17.2821   20.5866 C   0  0  0  0  0  0  0  0  0  1  0  0
  -26.6033  -31.3814   21.0504 C   0  0  0  0  0  0  0  0  0  0  0  0
  -23.2774  -13.0485   21.4004 C   0  0  0  0  0  0  0  0  0  0  0  0
  -21.9670  -15.8934   22.2441 C   0  0  0  0  0  0  0  0  0  0  0  0
  -22.3908  -19.2413   22.7523 C   0  0  0  0  0  0  0  0  0  0  0  0
  -29.7406  -24.3023   17.9791 C   0  0  0  0  0  0  0  0  0  0  0  0
  -22.0967   -8.1040   21.8648 C   0  0  0  0  0  0  0  0  0  0  0  0
  -24.8907  -13.8412   23.1681 C   0  0  0  0  0  0  0  0  0  0  0  0
  -24.2689  -15.9723   21.2144 C   0  0  0  0  0  0  0  0  0  0  0  0
  -21.3144   -9.4142   21.8253 C   0  0  0  0  0  0  0  0  0  0  0  0
  -28.2428  -26.7107   15.8267 C   0  0  0  0  0  0  0  0  0  0  0  0
  -21.7645  -10.2694   20.6452 C   0  0  0  0  0  0  0  0  0  0  0  0
  -27.5296  -27.6652   16.7860 C   0  0  0  0  0  0  0  0  0  0  0  0
  -31.9438  -24.0080   20.9712 C   0  0  0  0  0  0  0  0  0  0  0  0
  -28.1776  -25.2656   16.3162 C   0  0  0  0  0  0  0  0  0  0  0  0
  -27.9456  -26.0109   18.6538 C   0  0  0  0  0  0  0  0  0  0  0  0
  -32.7257  -22.8222   21.5144 C   0  0  0  0  0  0  0  0  0  0  0  0
  -30.7769  -22.0822   20.2344 C   0  0  0  0  0  0  0  0  0  0  0  0
  -23.2469  -10.6423   20.7678 C   0  0  1  0  0  0  0  0  0  0  0  0
  -23.5023  -13.9863   22.5526 C   0  0  1  0  0  0  0  0  0  0  0  0
  -28.0327  -27.4874   18.2311 C   0  0  2  0  0  0  0  0  0  0  0  0
  -31.2328  -23.4453   19.7525 C   0  0  1  0  0  0  0  0  0  0  0  0
  -29.4308  -19.2952   23.5986 C   0  0  0  0  0  0  0  0  0  0  0  0
  -21.1282  -21.3107   23.4011 C   0  0  0  0  0  0  0  0  0  0  0  0
  -32.6182  -19.4576   24.1988 C   0  0  0  0  0  0  0  0  0  0  0  0
  -33.9410  -19.6110   22.0929 C   0  0  0  0  0  0  0  0  0  0  0  0
  -20.7197  -16.0019   19.4615 C   0  0  0  0  0  0  0  0  0  0  0  0
  -20.2932  -18.4421   19.8240 C   0  0  0  0  0  0  0  0  0  0  0  0
  -19.2130  -16.7548   21.3102 C   0  0  0  0  0  0  0  0  0  0  0  0
  -24.0827  -19.6641   25.1434 C   0  0  0  0  0  0  0  0  0  0  0  0
  -31.6041  -20.6356   22.1267 C   0  0  1  0  0  0  0  0  0  0  0  0
  -21.6923  -17.1966   21.5334 C   0  0  1  0  0  0  0  0  0  0  0  0
  -21.9731  -20.1473   23.8965 C   0  0  2  0  0  0  0  0  0  0  0  0
  -32.8905  -20.3213   22.9595 C   0  0  0  0  0  0  0  0  0  0  0  0
  -20.5059  -17.0883   20.5343 C   0  0  0  0  0  0  0  0  0  0  0  0
  -30.6408  -17.8179   19.8334 N   0  0  0  0  0  0  0  0  0  0  0  0
  -26.2046  -27.9390   19.8237 N   0  0  0  0  0  0  0  0  0  0  0  0
  -29.2383  -17.7132   21.7902 N   0  0  0  0  0  0  0  0  0  0  0  0
  -27.2992  -28.4009   19.1956 N   0  0  0  0  0  0  0  0  0  0  0  0
  -23.2417  -15.3399   22.0585 N   0  0  0  0  0  0  0  0  0  0  0  0
  -28.6703  -25.1654   17.6921 N   0  0  0  0  0  0  0  0  0  0  0  0
  -28.6923  -30.3047   18.9820 N   0  0  0  0  0  0  0  0  0  0  0  0
  -25.5621  -31.6323   21.9545 N   0  0  0  0  0  0  0  0  0  0  0  0
  -23.4212  -11.7131   21.7255 N   0  0  0  0  0  0  0  0  0  0  0  0
  -21.5053  -18.1990   22.5767 N   0  0  0  0  0  0  0  0  0  0  0  0
  -30.1497  -24.2721   19.3067 N   0  0  0  0  0  0  0  0  0  0  0  0
  -31.9645  -21.5967   21.0399 N   0  3  2  0  0  0  0  0  0  0  0  0
  -23.1740  -20.6985   24.5856 N   0  3  0  0  0  0  0  0  0  0  0  0
  -27.4320  -32.2895   20.8011 O   0  0  0  0  0  0  0  0  0  0  0  0
  -22.9928  -13.5026   20.2984 O   0  0  0  0  0  0  0  0  0  0  0  0
  -21.0854  -15.3888   22.9440 O   0  0  0  0  0  0  0  0  0  0  0  0
  -23.3995  -19.4406   22.0790 O   0  0  0  0  0  0  0  0  0  0  0  0
  -30.2944  -23.6139   17.1152 O   0  0  0  0  0  0  0  0  0  0  0  0
  -21.3041  -28.5746   23.8400 O   0  0  0  0  0  0  0  0  0  0  0  0
  -29.0212  -16.1691   20.0678 O   0  0  0  0  0  0  0  0  0  1  0  0
  -16.7762  -26.2938   21.6721 F   0  0  0  0  0  0  0  0  0  0  0  0
  -18.9403  -29.9982   23.6720 F   0  0  0  0  0  0  0  0  0  0  0  0
  1  2  1  0  0  0  0
  1  5  2  0  0  0  0
  2  6  2  0  0  0  0
  3  8  2  0  0  0  0
  3 16  1  0  0  0  0
  4  9  1  0  0  0  0
  4 16  2  0  0  0  0
  5 18  1  0  0  0  0
  6 20  1  0  0  0  0
  7 10  2  0  0  0  0
  7 19  1  0  0  0  0
  8 23  1  0  0  0  0
  9 23  2  0  0  0  0
 10 24  1  0  0  0  0
 11 12  2  0  0  0  0
 11 25  1  0  0  0  0
 12 26  1  0  0  0  0
 13 21  1  0  0  0  0
 13 24  2  0  0  0  0
 14 26  2  0  0  0  0
 14 27  1  0  0  0  0
 15 22  1  0  0  0  0
 15 66  2  0  0  0  0
 16 28  1  0  0  0  0
 17 28  1  0  0  0  0
 17 30  2  0  0  0  0
 17 32  1  0  0  0  0
 18 20  2  0  0  0  0
 18 37  1  0  0  0  0
 19 21  2  0  0  0  0
 19 38  1  0  0  0  0
 20 49  1  0  0  0  0
 21 39  1  0  0  0  0
 22 29  2  0  0  0  0
 22 61  1  0  0  0  0
 23 84  1  0  0  0  0
 24 85  1  0  0  0  0
 25 27  2  0  0  0  0
 25 84  1  0  0  0  0
 26 86  1  0  0  0  0
 27 87  1  0  0  0  0
 28 67  2  0  0  0  0
 29 53  1  0  0  0  0
 29 68  1  0  0  0  0
 30 69  1  0  0  0  0
 30 72  1  0  0  0  0
 31 66  1  0  0  0  0
 31 68  2  0  0  0  0
 31 85  1  0  0  0  0
 32 73  1  0  0  0  0
 32 79  2  0  0  0  0
 33 50  1  0  0  0  0
 33 74  1  0  0  0  0
 33 80  2  0  0  0  0
 34 62  1  0  0  0  0
 34 70  1  0  0  0  0
 34 81  2  0  0  0  0
 35 63  1  0  0  0  0
 35 75  1  0  0  0  0
 35 82  2  0  0  0  0
 36 71  1  0  0  0  0
 36 76  1  0  0  0  0
 36 83  2  0  0  0  0
 37 40  1  0  0  0  0
 38 50  1  0  0  0  0
 39 70  1  0  0  0  0
 40 42  1  0  0  0  0
 41 43  1  0  0  0  0
 41 45  1  0  0  0  0
 42 49  1  0  0  0  0
 43 51  1  0  0  0  0
 44 47  1  0  0  0  0
 44 52  1  0  0  0  0
 45 71  1  0  0  0  0
 46 51  1  0  0  0  0
 46 71  1  0  0  0  0
 47 77  1  0  0  0  0
 48 52  1  0  0  0  0
 48 77  1  0  0  0  0
 49 74  1  0  0  0  0
 50 70  1  0  0  0  0
 51 69  1  0  0  0  0
 52 76  1  0  0  0  0
 54 63  1  0  0  0  0
 55 64  1  0  0  0  0
 56 64  1  0  0  0  0
 57 65  1  0  0  0  0
 58 65  1  0  0  0  0
 59 65  1  0  0  0  0
 60 78  1  0  0  0  0
 61 64  1  0  0  0  0
 61 77  1  0  0  0  0
 62 65  1  0  0  0  0
 62 75  1  0  0  0  0
 63 78  1  0  0  0  0
 67 69  1  0  0  0  0
M  CHG  2  77   1  78   1
M  ISO  4  31 101  36 100  76 100  85 101
M  END
> <Batch ID>
0176

> <Smiles>
CNC(C)C(=O)NC(C(=O)N1Cc2cc([101O:1][101c:1]3ncc(C(C(C)C)N4CCC([100NH:0][100C:0](=O)N5CCCC(n6nc(-c7ccc(Oc8ccc(F)cc8F)cc7)c(C(N)=O)c6N)C5)C4)c(C)n3)ccc2CC1C(=O)NC1CCCc2ccccc21)C(C)(C)C

> <Shape>
0.250

> <Color>
0.055

> <Negative vol penalty>
0.000

$$$$

  -OEChem-04052322503D

 84 93  0     1  0  0  0  0  0999 V2000
  -18.0964  -27.9076   22.4694 C   0  0  0  0  0  0  0  0  0  0  0  0
  -18.9525  -26.8121   22.5172 C   0  0  0  0  0  0  0  0  0  0  0  0
  -23.0310   -9.9156   19.9075 C   0  0  0  0  0  0  0  0  0  0  0  0
  -24.0181   -9.6102   22.0914 C   0  0  0  0  0  0  0  0  0  0  0  0
  -18.6095  -29.1819   22.2311 C   0  0  0  0  0  0  0  0  0  0  0  0
  -20.3222  -26.9901   22.3256 C   0  0  0  0  0  0  0  0  0  0  0  0
  -24.8525  -23.8764   25.0250 C   0  0  0  0  0  0  0  0  0  0  0  0
  -29.1992  -18.5067   21.5833 C   0  0  0  0  0  0  0  0  0  0  0  0
  -22.3201   -8.7256   20.0623 C   0  0  0  0  0  0  0  0  0  0  0  0
  -23.3072   -8.4201   22.2463 C   0  0  0  0  0  0  0  0  0  0  0  0
  -25.6327  -22.8007   24.6029 C   0  0  0  0  0  0  0  0  0  0  0  0
  -20.1590   -7.4873   23.0457 C   0  0  0  0  0  0  0  0  0  0  0  0
  -19.5240   -7.2679   24.2681 C   0  0  0  0  0  0  0  0  0  0  0  0
  -28.2726  -19.4621   21.9767 C   0  0  0  0  0  0  0  0  0  0  0  0
  -27.3541  -24.3350   23.8945 C   0  0  0  0  0  0  0  0  0  0  0  0
  -20.8400   -5.2679   24.5927 C   0  0  0  0  0  0  0  0  0  0  0  0
  -23.8801  -10.3579   20.9220 C   0  0  0  0  0  0  0  0  0  0  0  0
  -24.1993  -12.8802   21.1314 C   0  0  0  0  0  0  0  0  0  0  0  0
  -19.9873  -29.3770   22.0460 C   0  0  0  0  0  0  0  0  0  0  0  0
  -25.3135  -25.1922   24.8747 C   0  0  0  0  0  0  0  0  0  0  0  0
  -20.8540  -28.2680   22.0832 C   0  0  0  0  0  0  0  0  0  0  0  0
  -29.9166  -17.7727   22.5387 C   0  0  0  0  0  0  0  0  0  0  0  0
  -26.5790  -25.4255   24.3178 C   0  0  0  0  0  0  0  0  0  0  0  0
  -22.4582   -7.9778   21.2317 C   0  0  0  0  0  0  0  0  0  0  0  0
  -26.8824  -23.0301   24.0350 C   0  0  0  0  0  0  0  0  0  0  0  0
  -21.1344   -6.5970   22.5967 C   0  0  0  0  0  0  0  0  0  0  0  0
  -19.8646   -6.1583   25.0416 C   0  0  0  0  0  0  0  0  0  0  0  0
  -21.4750   -5.4874   23.3703 C   0  0  0  0  0  0  0  0  0  0  0  0
  -24.6151  -11.5869   20.7624 C   0  0  0  0  0  0  0  0  0  0  0  0
  -29.6552  -18.0312   23.8909 C   0  0  0  0  0  0  0  0  0  0  0  0
  -28.0890  -19.6552   23.3302 C   0  0  0  0  0  0  0  0  0  0  0  0
  -25.2467  -13.6931   20.7726 C   0  0  0  0  0  0  0  0  0  0  0  0
  -22.9757  -13.3085   21.7439 C   0  0  0  0  0  0  0  0  0  0  0  0
  -24.3127  -27.7507   23.2759 C   0  0  0  0  0  0  0  0  0  0  0  0
  -26.7386  -29.2080   24.8614 C   0  0  0  0  0  0  0  0  0  0  0  0
  -29.7339  -28.9193   26.4714 C   0  0  0  0  0  0  0  0  0  0  0  0
  -30.7179  -14.7727   20.5598 C   0  0  0  0  0  0  0  0  0  0  0  0
  -20.4897  -30.7667   21.7443 C   0  0  0  0  0  0  0  0  0  0  0  0
  -24.4712  -26.3402   25.3595 C   0  0  0  0  0  0  0  0  0  0  0  0
  -27.1283  -26.8181   24.1529 C   0  0  0  0  0  0  0  0  0  0  0  0
  -21.9976  -30.9216   21.9240 C   0  0  0  0  0  0  0  0  0  0  0  0
  -29.3539  -12.7316   17.9810 C   0  0  0  0  0  0  0  0  0  0  0  0
  -22.7359  -29.7618   21.2631 C   0  0  0  0  0  0  0  0  0  0  0  0
  -31.8922  -16.3322   23.1748 C   0  0  0  0  0  0  0  0  0  0  0  0
  -27.9684  -12.3538   18.5079 C   0  0  0  0  0  0  0  0  0  0  0  0
  -31.1695  -16.0671   24.4911 C   0  0  0  0  0  0  0  0  0  0  0  0
  -30.3866  -12.7959   19.1041 C   0  0  0  0  0  0  0  0  0  0  0  0
  -28.6317  -13.2884   20.7629 C   0  0  0  0  0  0  0  0  0  0  0  0
  -22.3487  -28.4240   21.9048 C   0  0  1  0  0  0  0  0  0  0  0  0
  -30.9007  -16.7265   22.0791 C   0  0  1  0  0  0  0  0  0  0  0  0
  -24.8215  -27.6640   24.6870 C   0  0  1  0  0  0  0  0  0  0  0  0
  -27.5445  -13.2656   19.6750 C   0  0  2  0  0  0  0  0  0  0  0  0
  -30.4161  -17.3174   25.0067 C   0  0  0  0  0  0  0  0  0  0  0  0
  -29.4407  -16.8541   26.1094 C   0  0  0  0  0  0  0  0  0  0  0  0
  -31.4147  -18.3165   25.6275 C   0  0  0  0  0  0  0  0  0  0  0  0
  -31.4897  -30.2906   27.6263 C   0  0  0  0  0  0  0  0  0  0  0  0
  -27.7598  -30.1762   22.1541 C   0  0  0  0  0  0  0  0  0  0  0  0
  -29.9522  -30.6966   23.2453 C   0  0  0  0  0  0  0  0  0  0  0  0
  -27.8822  -31.8764   23.9840 C   0  0  0  0  0  0  0  0  0  0  0  0
  -29.3385  -27.4832   29.0288 C   0  0  0  0  0  0  0  0  0  0  0  0
  -27.1052  -20.6740   23.7996 C   0  0  0  0  0  0  0  0  0  1  0  0
  -28.2048  -29.4430   24.5893 C   0  0  1  0  0  0  0  0  0  0  0  0
  -30.2208  -29.4704   27.7994 C   0  0  2  0  0  0  0  0  0  0  0  0
  -28.4389  -30.5218   23.4944 C   0  0  0  0  0  0  0  0  0  0  0  0
  -25.8317  -11.5740   20.2112 N   0  0  0  0  0  0  0  0  0  0  0  0
  -28.7549  -18.9723   24.2861 N   0  0  0  0  0  0  0  0  0  0  0  0
  -26.1893  -12.8693   20.2312 N   0  0  0  0  0  0  0  0  0  0  0  0
  -26.2645  -27.9078   24.6364 N   0  0  0  0  0  0  0  0  0  0  0  0
  -29.9245  -13.6781   20.1784 N   0  0  0  0  0  0  0  0  0  0  0  0
  -25.4441  -15.0249   20.8705 N   0  0  0  0  0  0  0  0  0  0  0  0
  -22.0061  -12.3427   22.0462 N   0  0  0  0  0  0  0  0  0  0  0  0
  -23.0303  -28.2543   23.1701 N   0  0  0  0  0  0  0  0  0  0  0  0
  -28.8138  -29.7570   25.8773 N   0  0  0  0  0  0  0  0  0  0  0  0
  -30.2035  -15.5616   21.5814 N   0  0  0  0  0  0  0  0  0  0  0  0
  -30.5064  -28.3575   28.7486 N   0  3  0  0  0  0  0  0  0  0  0  0
  -22.7422  -14.5141   22.0000 O   0  0  0  0  0  0  0  0  0  0  0  0
  -25.0311  -27.3890   22.3513 O   0  0  0  0  0  0  0  0  0  0  0  0
  -26.0413  -30.1418   25.2657 O   0  0  0  0  0  0  0  0  0  0  0  0
  -30.1328  -27.8542   26.0057 O   0  0  0  0  0  0  0  0  0  0  0  0
  -31.8018  -15.0311   20.0255 O   0  0  0  0  0  0  0  0  0  0  0  0
  -21.7645   -6.8167   21.3833 O   0  0  0  0  0  0  0  0  0  0  0  0
  -27.6510  -21.9747   23.6188 O   0  0  0  0  0  0  0  0  0  1  0  0
  -19.2558   -5.9485   26.2162 F   0  0  0  0  0  0  0  0  0  0  0  0
  -22.4121   -4.6292   22.9447 F   0  0  0  0  0  0  0  0  0  0  0  0
  1  2  1  0  0  0  0
  1  5  2  0  0  0  0
  2  6  2  0  0  0  0
  3  9  2  0  0  0  0
  3 17  1  0  0  0  0
  4 10  1  0  0  0  0
  4 17  2  0  0  0  0
  5 19  1  0  0  0  0
  6 21  1  0  0  0  0
  7 11  2  0  0  0  0
  7 20  1  0  0  0  0
  8 14  2  0  0  0  0
  8 22  1  0  0  0  0
  9 24  1  0  0  0  0
 10 24  2  0  0  0  0
 11 25  1  0  0  0  0
 12 13  2  0  0  0  0
 12 26  1  0  0  0  0
 13 27  1  0  0  0  0
 14 31  1  0  0  0  0
 15 23  1  0  0  0  0
 15 25  2  0  0  0  0
 16 27  2  0  0  0  0
 16 28  1  0  0  0  0
 17 29  1  0  0  0  0
 18 29  1  0  0  0  0
 18 32  2  0  0  0  0
 18 33  1  0  0  0  0
 19 21  2  0  0  0  0
 19 38  1  0  0  0  0
 20 23  2  0  0  0  0
 20 39  1  0  0  0  0
 21 49  1  0  0  0  0
 22 30  2  0  0  0  0
 22 50  1  0  0  0  0
 23 40  1  0  0  0  0
 24 81  1  0  0  0  0
 25 82  1  0  0  0  0
 26 28  2  0  0  0  0
 26 81  1  0  0  0  0
 27 83  1  0  0  0  0
 28 84  1  0  0  0  0
 29 65  2  0  0  0  0
 30 53  1  0  0  0  0
 30 66  1  0  0  0  0
 31 61  1  0  0  0  0
 31 66  2  0  0  0  0
 32 67  1  0  0  0  0
 32 70  1  0  0  0  0
 33 71  1  0  0  0  0
 33 76  2  0  0  0  0
 34 51  1  0  0  0  0
 34 72  1  0  0  0  0
 34 77  2  0  0  0  0
 35 62  1  0  0  0  0
 35 68  1  0  0  0  0
 35 78  2  0  0  0  0
 36 63  1  0  0  0  0
 36 73  1  0  0  0  0
 36 79  2  0  0  0  0
 37 69  1  0  0  0  0
 37 74  1  0  0  0  0
 37 80  2  0  0  0  0
 38 41  1  0  0  0  0
 39 51  1  0  0  0  0
 40 68  1  0  0  0  0
 41 43  1  0  0  0  0
 42 45  1  0  0  0  0
 42 47  1  0  0  0  0
 43 49  1  0  0  0  0
 44 46  1  0  0  0  0
 44 50  1  0  0  0  0
 45 52  1  0  0  0  0
 46 53  1  0  0  0  0
 47 69  1  0  0  0  0
 48 52  1  0  0  0  0
 48 69  1  0  0  0  0
 49 72  1  0  0  0  0
 50 74  1  0  0  0  0
 51 68  1  0  0  0  0
 52 67  1  0  0  0  0
 53 54  1  0  0  0  0
 53 55  1  0  0  0  0
 56 63  1  0  0  0  0
 57 64  1  0  0  0  0
 58 64  1  0  0  0  0
 59 64  1  0  0  0  0
 60 75  1  0  0  0  0
 61 82  1  0  0  0  0
 62 64  1  0  0  0  0
 62 73  1  0  0  0  0
 63 75  1  0  0  0  0
 65 67  1  0  0  0  0
M  CHG  1  75   1
M  ISO  4  37 100  61 101  74 100  82 101
M  END
> <Batch ID>
0176

> <Smiles>
CNC(C)C(=O)NC(C(=O)N1Cc2cc([101O:1][101CH2:1]c3ccc4c(n3)C(C)(C)CCC4[100NH:0][100C:0](=O)N3CCCC(n4nc(-c5ccc(Oc6ccc(F)cc6F)cc5)c(C(N)=O)c4N)C3)ccc2CC1C(=O)NC1CCCc2ccccc21)C(C)(C)C

> <Shape>
0.287

> <Color>
0.185

> <Negative vol penalty>
0.000

$$$$

  -OEChem-04052322503D

 87 97  0     1  0  0  0  0  0999 V2000
  -27.4609  -37.7182   26.4899 C   0  0  0  0  0  0  0  0  0  0  0  0
  -26.9980  -36.5445   27.0762 C   0  0  0  0  0  0  0  0  0  0  0  0
  -22.9799   -9.9456   22.4922 C   0  0  0  0  0  0  0  0  0  0  0  0
  -23.7064   -9.6399   20.2084 C   0  0  0  0  0  0  0  0  0  0  0  0
  -27.0579  -38.0571   25.1989 C   0  0  0  0  0  0  0  0  0  0  0  0
  -26.1310  -35.7096   26.3722 C   0  0  0  0  0  0  0  0  0  0  0  0
  -25.9081  -29.5940   26.6074 C   0  0  0  0  0  0  0  0  0  0  0  0
  -22.2982   -8.7299   22.4381 C   0  0  0  0  0  0  0  0  0  0  0  0
  -23.0248   -8.4241   20.1543 C   0  0  0  0  0  0  0  0  0  0  0  0
  -25.0856  -28.7115   27.3062 C   0  0  0  0  0  0  0  0  0  0  0  0
  -20.6655   -5.5344   23.0195 C   0  0  0  0  0  0  0  0  0  0  0  0
  -20.7999   -4.6668   24.1033 C   0  0  0  0  0  0  0  0  0  0  0  0
  -23.6666  -28.5073   25.3661 C   0  0  0  0  0  0  0  0  0  0  0  0
  -21.8894  -24.5297   26.3743 C   0  0  0  0  0  0  0  0  0  0  0  0
  -23.1852   -4.5716   23.7313 C   0  0  0  0  0  0  0  0  0  0  0  0
  -23.9628  -22.8342   25.8529 C   0  0  0  0  0  0  0  0  0  0  0  0
  -23.6839  -10.4007   21.3773 C   0  0  0  0  0  0  0  0  0  0  0  0
  -25.7222  -11.8668   21.8286 C   0  0  0  0  0  0  0  0  0  0  0  0
  -26.1931  -37.2211   24.4751 C   0  0  0  0  0  0  0  0  0  0  0  0
  -25.6096  -29.9488   25.2839 C   0  0  0  0  0  0  0  0  0  0  0  0
  -25.7150  -36.0384   25.0708 C   0  0  0  0  0  0  0  0  0  0  0  0
  -24.4884  -29.3924   24.6518 C   0  0  0  0  0  0  0  0  0  0  0  0
  -22.9233  -22.9000   24.9392 C   0  0  0  0  0  0  0  0  0  0  0  0
  -21.8707  -23.7664   25.2123 C   0  0  0  0  0  0  0  0  0  0  0  0
  -22.3207   -7.9691   21.2692 C   0  0  0  0  0  0  0  0  0  0  0  0
  -23.9630  -28.1703   26.6866 C   0  0  0  0  0  0  0  0  0  0  0  0
  -21.7909   -5.9206   22.2915 C   0  0  0  0  0  0  0  0  0  0  0  0
  -22.0598   -4.1854   24.4593 C   0  0  0  0  0  0  0  0  0  0  0  0
  -23.0508   -5.4392   22.6474 C   0  0  0  0  0  0  0  0  0  0  0  0
  -24.3878  -11.6568   21.4324 C   0  0  0  0  0  0  0  0  0  0  0  0
  -22.9751  -24.3908   27.2239 C   0  0  0  0  0  0  0  0  0  0  0  0
  -25.9077  -13.2221   21.7053 C   0  0  0  0  0  0  0  0  0  0  0  0
  -26.7061  -10.9214   22.2687 C   0  0  0  0  0  0  0  0  0  0  0  0
  -24.9032  -32.6669   23.7952 C   0  0  0  0  0  0  0  0  0  0  0  0
  -25.0682  -30.8041   21.1447 C   0  0  0  0  0  0  0  0  0  0  0  0
  -24.8654  -27.6826   19.7802 C   0  0  0  0  0  0  0  0  0  0  0  0
  -24.2912  -18.4240   22.2960 C   0  0  0  0  0  0  0  0  0  0  0  0
  -25.7478  -37.6531   23.1004 C   0  0  0  0  0  0  0  0  0  0  0  0
  -26.5218  -30.8812   24.5351 C   0  0  0  0  0  0  0  0  0  0  0  0
  -24.1354  -29.7254   23.2260 C   0  0  0  0  0  0  0  0  0  0  0  0
  -25.1240  -36.5268   22.2803 C   0  0  0  0  0  0  0  0  0  0  0  0
  -23.0337  -16.7646   19.5368 C   0  0  0  0  0  0  0  0  0  0  0  0
  -24.1152  -35.7501   23.1206 C   0  0  0  0  0  0  0  0  0  0  0  0
  -23.3795  -15.3000   19.8048 C   0  0  0  0  0  0  0  0  0  0  0  0
  -23.0734  -24.4572   29.7984 C   0  0  0  0  0  0  0  0  0  0  0  0
  -21.8089  -25.1481   29.3936 C   0  0  0  0  0  0  0  0  0  0  0  0
  -24.3895  -21.8198   23.1770 C   0  0  0  0  0  0  0  0  0  0  0  0
  -22.2343  -20.6986   23.8895 C   0  0  0  0  0  0  0  0  0  0  0  0
  -22.5625  -17.4560   20.8109 C   0  0  0  0  0  0  0  0  0  0  0  0
  -24.4159  -20.9285   21.9320 C   0  0  0  0  0  0  0  0  0  0  0  0
  -22.2973  -19.8552   22.6193 C   0  0  0  0  0  0  0  0  0  0  0  0
  -23.8977  -15.9201   22.2167 C   0  0  0  0  0  0  0  0  0  0  0  0
  -22.9545  -22.0440   23.6870 C   0  0  0  0  0  0  0  0  0  0  0  0
  -24.7930  -35.0945   24.3298 C   0  0  1  0  0  0  0  0  0  0  0  0
  -25.8363  -31.5723   23.3604 C   0  0  1  0  0  0  0  0  0  0  0  0
  -24.3881  -15.1724   20.9601 C   0  0  1  0  0  0  0  0  0  0  0  0
  -23.0166  -25.1999   28.4767 C   0  0  0  0  0  0  0  0  0  0  0  0
  -20.7151  -23.8923   24.2757 C   0  0  0  0  0  0  0  0  0  0  0  0
  -25.0078  -26.4806   17.5820 C   0  0  0  0  0  0  0  0  0  0  0  0
  -22.2806  -31.8091   20.4174 C   0  0  0  0  0  0  0  0  0  0  0  0
  -22.0965  -29.9126   18.7933 C   0  0  0  0  0  0  0  0  0  0  0  0
  -23.8660  -31.6446   18.4902 C   0  0  0  0  0  0  0  0  0  0  0  0
  -27.1747  -26.0660   20.6818 C   0  0  0  0  0  0  0  0  0  0  0  0
  -23.7623  -26.5001   28.3676 C   0  0  0  0  0  0  0  0  0  1  0  0
  -24.0854  -29.9636   20.3659 C   0  0  1  0  0  0  0  0  0  0  0  0
  -25.7726  -26.9459   18.8113 C   0  0  2  0  0  0  0  0  0  0  0  0
  -23.0874  -30.8275   19.5442 C   0  0  0  0  0  0  0  0  0  0  0  0
  -24.0161  -23.5599   26.9923 N   0  0  0  0  0  0  0  0  0  0  0  0
  -23.7693  -12.7881   21.0837 N   0  0  0  0  0  0  0  0  0  0  0  0
  -24.7193  -13.7221   21.2604 N   0  0  0  0  0  0  0  0  0  0  0  0
  -25.0547  -30.6467   22.5379 N   0  0  0  0  0  0  0  0  0  0  0  0
  -23.5452  -17.3092   21.8845 N   0  0  0  0  0  0  0  0  0  0  0  0
  -23.6787  -19.6801   22.1716 N   0  0  0  0  0  0  0  0  0  0  0  0
  -26.9697  -14.0231   21.9352 N   0  0  0  0  0  0  0  0  0  0  0  0
  -26.3486   -9.5679   22.3369 N   0  0  0  0  0  0  0  0  0  0  0  0
  -25.5074  -33.9030   23.9242 N   0  0  0  0  0  0  0  0  0  0  0  0
  -24.8825  -29.0438   19.5614 N   0  0  0  0  0  0  0  0  0  0  0  0
  -26.3740  -25.7522   19.4704 N   0  3  0  0  0  0  0  0  0  0  0  0
  -27.8629  -11.2686   22.6075 O   0  0  0  0  0  0  0  0  0  0  0  0
  -23.7223  -32.4095   23.9971 O   0  0  0  0  0  0  0  0  0  0  0  0
  -25.8251  -31.5667   20.5388 O   0  0  0  0  0  0  0  0  0  0  0  0
  -24.2046  -27.1075   20.6424 O   0  0  0  0  0  0  0  0  0  0  0  0
  -25.4366  -18.3048   22.7487 O   0  0  0  0  0  0  0  0  0  0  0  0
  -21.6559   -6.7826   21.2162 O   0  0  0  0  0  0  0  0  0  0  0  0
  -23.1509  -27.3016   27.3726 O   0  0  0  0  0  0  0  0  0  1  0  0
  -22.1889   -3.3534   25.5011 F   0  0  0  0  0  0  0  0  0  0  0  0
  -24.1358   -5.8076   21.9525 F   0  0  0  0  0  0  0  0  0  0  0  0
  1  2  1  0  0  0  0
  1  5  2  0  0  0  0
  2  6  2  0  0  0  0
  3  8  2  0  0  0  0
  3 17  1  0  0  0  0
  4  9  1  0  0  0  0
  4 17  2  0  0  0  0
  5 19  1  0  0  0  0
  6 21  1  0  0  0  0
  7 10  2  0  0  0  0
  7 20  1  0  0  0  0
  8 25  1  0  0  0  0
  9 25  2  0  0  0  0
 10 26  1  0  0  0  0
 11 12  2  0  0  0  0
 11 27  1  0  0  0  0
 12 28  1  0  0  0  0
 13 22  1  0  0  0  0
 13 26  2  0  0  0  0
 14 24  2  0  0  0  0
 14 31  1  0  0  0  0
 15 28  2  0  0  0  0
 15 29  1  0  0  0  0
 16 23  2  0  0  0  0
 16 68  1  0  0  0  0
 17 30  1  0  0  0  0
 18 30  1  0  0  0  0
 18 32  2  0  0  0  0
 18 33  1  0  0  0  0
 19 21  2  0  0  0  0
 19 38  1  0  0  0  0
 20 22  2  0  0  0  0
 20 39  1  0  0  0  0
 21 54  1  0  0  0  0
 22 40  1  0  0  0  0
 23 24  1  0  0  0  0
 23 53  1  0  0  0  0
 24 58  1  0  0  0  0
 25 84  1  0  0  0  0
 26 85  1  0  0  0  0
 27 29  2  0  0  0  0
 27 84  1  0  0  0  0
 28 86  1  0  0  0  0
 29 87  1  0  0  0  0
 30 69  2  0  0  0  0
 31 57  1  0  0  0  0
 31 68  2  0  0  0  0
 32 70  1  0  0  0  0
 32 74  1  0  0  0  0
 33 75  1  0  0  0  0
 33 79  2  0  0  0  0
 34 55  1  0  0  0  0
 34 76  1  0  0  0  0
 34 80  2  0  0  0  0
 35 65  1  0  0  0  0
 35 71  1  0  0  0  0
 35 81  2  0  0  0  0
 36 66  1  0  0  0  0
 36 77  1  0  0  0  0
 36 82  2  0  0  0  0
 37 72  1  0  0  0  0
 37 73  1  0  0  0  0
 37 83  2  0  0  0  0
 38 41  1  0  0  0  0
 39 55  1  0  0  0  0
 40 71  1  0  0  0  0
 41 43  1  0  0  0  0
 42 44  1  0  0  0  0
 42 49  1  0  0  0  0
 43 54  1  0  0  0  0
 44 56  1  0  0  0  0
 45 46  1  0  0  0  0
 45 57  1  0  0  0  0
 46 57  1  0  0  0  0
 47 50  1  0  0  0  0
 47 53  1  0  0  0  0
 48 51  1  0  0  0  0
 48 53  1  0  0  0  0
 49 72  1  0  0  0  0
 50 73  1  0  0  0  0
 51 73  1  0  0  0  0
 52 56  1  0  0  0  0
 52 72  1  0  0  0  0
 54 76  1  0  0  0  0
 55 71  1  0  0  0  0
 56 70  1  0  0  0  0
 57 64  1  0  0  0  0
 59 66  1  0  0  0  0
 60 67  1  0  0  0  0
 61 67  1  0  0  0  0
 62 67  1  0  0  0  0
 63 78  1  0  0  0  0
 64 85  1  0  0  0  0
 65 67  1  0  0  0  0
 65 77  1  0  0  0  0
 66 78  1  0  0  0  0
 69 70  1  0  0  0  0
M  CHG  1  78   1
M  ISO  4  37 100  64 101  73 100  85 101
M  END
> <Batch ID>
0176

> <Smiles>
CNC(C)C(=O)NC(C(=O)N1Cc2cc([101O:1][101CH2:1]C3(c4cc(C)c(C5CC[100N:0]([100C:0](=O)N6CCCC(n7nc(-c8ccc(Oc9ccc(F)cc9F)cc8)c(C(N)=O)c7N)C6)CC5)cn4)CC3)ccc2CC1C(=O)NC1CCCc2ccccc21)C(C)(C)C

> <Shape>
0.241

> <Color>
0.100

> <Negative vol penalty>
0.000

$$$$

  -OEChem-04052322503D

 81 90  0     1  0  0  0  0  0999 V2000
  -25.6984  -35.3641   23.3178 C   0  0  0  0  0  0  0  0  0  0  0  0
  -26.3031  -34.1313   23.0943 C   0  0  0  0  0  0  0  0  0  0  0  0
  -27.0132  -11.9015   20.3689 C   0  0  0  0  0  0  0  0  0  0  0  0
  -25.7754  -13.6466   19.2466 C   0  0  0  0  0  0  0  0  0  0  0  0
  -24.3770  -35.4214   23.7588 C   0  0  0  0  0  0  0  0  0  0  0  0
  -25.5870  -32.9550   23.3128 C   0  0  0  0  0  0  0  0  0  0  0  0
  -26.1981  -29.5870   19.5807 C   0  0  0  0  0  0  0  0  0  0  0  0
  -25.9479  -11.0219   20.1762 C   0  0  0  0  0  0  0  0  0  0  0  0
  -24.7101  -12.7670   19.0538 C   0  0  0  0  0  0  0  0  0  0  0  0
  -27.3844  -28.8547   19.5719 C   0  0  0  0  0  0  0  0  0  0  0  0
  -23.4102   -8.4202   20.2968 C   0  0  0  0  0  0  0  0  0  0  0  0
  -23.0188   -7.6270   21.3753 C   0  0  0  0  0  0  0  0  0  0  0  0
  -26.2311  -26.9857   20.5697 C   0  0  0  0  0  0  0  0  0  0  0  0
  -22.5442   -9.6144   22.6646 C   0  0  0  0  0  0  0  0  0  0  0  0
  -26.9269  -13.2139   19.9041 C   0  0  0  0  0  0  0  0  0  0  0  0
  -29.1168  -14.3410   19.2396 C   0  0  0  0  0  0  0  0  0  0  0  0
  -23.6413  -34.2453   23.9736 C   0  0  0  0  0  0  0  0  0  0  0  0
  -25.0198  -29.0271   20.0950 C   0  0  0  0  0  0  0  0  0  0  0  0
  -24.2549  -32.9965   23.7584 C   0  0  0  0  0  0  0  0  0  0  0  0
  -25.0305  -27.7121   20.5816 C   0  0  0  0  0  0  0  0  0  0  0  0
  -28.8238  -22.2174   22.1337 C   0  0  0  0  0  0  0  0  0  0  0  0
  -24.7964  -11.4547   19.5186 C   0  0  0  0  0  0  0  0  0  0  0  0
  -27.4017  -27.5549   20.0690 C   0  0  0  0  0  0  0  0  0  0  0  0
  -23.3686   -9.8105   20.4022 C   0  0  0  0  0  0  0  0  0  0  0  0
  -22.5858   -8.2241   22.5592 C   0  0  0  0  0  0  0  0  0  0  0  0
  -22.9356  -10.4076   21.5861 C   0  0  0  0  0  0  0  0  0  0  0  0
  -28.0267  -14.1231   20.1034 C   0  0  0  0  0  0  0  0  0  0  0  0
  -28.2246  -23.3081   21.4755 C   0  0  0  0  0  0  0  0  0  0  0  0
  -29.8760  -15.2911   19.8778 C   0  0  0  0  0  0  0  0  0  0  0  0
  -27.8172  -21.2900   22.2478 C   0  0  0  0  0  0  0  0  0  0  0  0
  -29.4162  -13.7385   17.9735 C   0  0  0  0  0  0  0  0  0  0  0  0
  -23.0644  -29.7330   22.4995 C   0  0  0  0  0  0  0  0  0  0  0  0
  -21.2826  -27.3316   21.2422 C   0  0  0  0  0  0  0  0  0  0  0  0
  -21.1704  -24.4855   19.3622 C   0  0  0  0  0  0  0  0  0  0  0  0
  -28.5850  -19.5338   23.8826 C   0  0  0  0  0  0  0  0  0  0  0  0
  -22.2307  -34.3565   24.4958 C   0  0  0  0  0  0  0  0  0  0  0  0
  -23.7423  -29.8207   20.0729 C   0  0  0  0  0  0  0  0  0  0  0  0
  -23.7880  -27.0578   21.1261 C   0  0  0  0  0  0  0  0  0  0  0  0
  -21.4219  -33.0708   24.3442 C   0  0  0  0  0  0  0  0  0  0  0  0
  -30.9536  -16.9020   24.2571 C   0  0  0  0  0  0  0  0  0  0  0  0
  -22.2377  -31.8689   24.8096 C   0  0  0  0  0  0  0  0  0  0  0  0
  -30.5748  -15.9134   23.1519 C   0  0  0  0  0  0  0  0  0  0  0  0
  -29.7319  -24.6660   19.8157 C   0  0  0  0  0  0  0  0  0  0  0  0
  -29.7216  -17.5600   24.8760 C   0  0  0  0  0  0  0  0  0  0  0  0
  -28.4270  -17.2009   22.8110 C   0  0  0  0  0  0  0  0  0  0  0  0
  -23.5031  -31.6987   23.9603 C   0  0  1  0  0  0  0  0  0  0  0  0
  -28.9548  -24.6120   21.1103 C   0  0  1  0  0  0  0  0  0  0  0  0
  -22.7182  -29.3331   21.0931 C   0  0  1  0  0  0  0  0  0  0  0  0
  -29.6383  -16.5610   22.1132 C   0  0  2  0  0  0  0  0  0  0  0  0
  -28.4438  -25.4211   19.9384 C   0  0  1  0  0  0  0  0  0  1  0  0
  -30.2177  -22.0928   22.5977 C   0  0  0  0  0  0  0  0  0  0  0  0
  -19.5787  -22.7261   18.5447 C   0  0  0  0  0  0  0  0  0  0  0  0
  -21.2727  -26.0560   24.0140 C   0  0  0  0  0  0  0  0  0  0  0  0
  -20.5256  -23.9163   22.9503 C   0  0  0  0  0  0  0  0  0  0  0  0
  -19.0845  -25.9475   22.8079 C   0  0  0  0  0  0  0  0  0  0  0  0
  -25.4017  -21.2784   21.5479 C   0  0  0  0  0  0  0  0  0  0  0  0
  -21.6979  -25.1598   16.5292 C   0  0  0  0  0  0  0  0  0  0  0  0
  -21.2094  -25.8370   21.4422 C   0  0  1  0  0  0  0  0  0  0  0  0
  -20.2460  -24.0575   18.2368 C   0  0  2  0  0  0  0  0  0  0  0  0
  -20.5471  -25.4519   22.7952 C   0  0  0  0  0  0  0  0  0  0  0  0
  -28.0847  -14.8742   21.2063 N   0  0  0  0  0  0  0  0  0  0  0  0
  -26.9371  -23.0947   21.1912 N   0  0  0  0  0  0  0  0  0  0  0  0
  -29.2203  -15.5733   21.0400 N   0  0  0  0  0  0  0  0  0  0  0  0
  -26.7191  -21.8592   21.6730 N   0  0  0  0  0  0  0  0  0  0  0  0
  -22.5651  -27.8768   21.0887 N   0  0  0  0  0  0  0  0  0  0  0  0
  -28.8838  -18.1558   23.8330 N   0  0  0  0  0  0  0  0  0  0  0  0
  -31.0339  -15.9043   19.5527 N   0  0  0  0  0  0  0  0  0  0  0  0
  -28.5296  -12.7804   17.4632 N   0  0  0  0  0  0  0  0  0  0  0  0
  -27.8077  -19.9938   22.8201 N   0  0  0  0  0  0  0  0  0  0  0  0
  -23.1785  -31.0976   22.6845 N   0  0  0  0  0  0  0  0  0  0  0  0
  -20.5274  -25.3011   20.2692 N   0  0  0  0  0  0  0  0  0  0  0  0
  -21.0093  -23.9175   16.9644 N   0  3  0  0  0  0  0  0  0  0  0  0
  -30.4481  -14.0288   17.3220 O   0  0  0  0  0  0  0  0  0  0  0  0
  -23.2152  -28.8675   23.3539 O   0  0  0  0  0  0  0  0  0  0  0  0
  -20.2398  -27.9900   21.2158 O   0  0  0  0  0  0  0  0  0  0  0  0
  -22.3445  -24.1287   19.4320 O   0  0  0  0  0  0  0  0  0  0  0  0
  -29.0117  -20.2583   24.7854 O   0  0  0  0  0  0  0  0  0  0  0  0
  -23.7568  -10.5966   19.3302 O   0  0  0  0  0  0  0  0  0  0  0  0
  -28.5585  -26.8381   20.0622 O   0  0  0  0  0  0  0  0  0  1  0  0
  -22.2085   -7.4623   23.5944 F   0  0  0  0  0  0  0  0  0  0  0  0
  -22.8924  -11.7427   21.6928 F   0  0  0  0  0  0  0  0  0  0  0  0
  1  2  1  0  0  0  0
  1  5  2  0  0  0  0
  2  6  2  0  0  0  0
  3  8  2  0  0  0  0
  3 15  1  0  0  0  0
  4  9  1  0  0  0  0
  4 15  2  0  0  0  0
  5 17  1  0  0  0  0
  6 19  1  0  0  0  0
  7 10  2  0  0  0  0
  7 18  1  0  0  0  0
  8 22  1  0  0  0  0
  9 22  2  0  0  0  0
 10 23  1  0  0  0  0
 11 12  2  0  0  0  0
 11 24  1  0  0  0  0
 12 25  1  0  0  0  0
 13 20  1  0  0  0  0
 13 23  2  0  0  0  0
 14 25  2  0  0  0  0
 14 26  1  0  0  0  0
 15 27  1  0  0  0  0
 16 27  1  0  0  0  0
 16 29  2  0  0  0  0
 16 31  1  0  0  0  0
 17 19  2  0  0  0  0
 17 36  1  0  0  0  0
 18 20  2  0  0  0  0
 18 37  1  0  0  0  0
 19 46  1  0  0  0  0
 20 38  1  0  0  0  0
 21 28  1  0  0  0  0
 21 30  2  0  0  0  0
 21 51  1  0  0  0  0
 22 78  1  0  0  0  0
 23 79  1  0  0  0  0
 24 26  2  0  0  0  0
 24 78  1  0  0  0  0
 25 80  1  0  0  0  0
 26 81  1  0  0  0  0
 27 61  2  0  0  0  0
 28 47  1  0  0  0  0
 28 62  2  0  0  0  0
 29 63  1  0  0  0  0
 29 67  1  0  0  0  0
 30 64  1  0  0  0  0
 30 69  1  0  0  0  0
 31 68  1  0  0  0  0
 31 73  2  0  0  0  0
 32 48  1  0  0  0  0
 32 70  1  0  0  0  0
 32 74  2  0  0  0  0
 33 58  1  0  0  0  0
 33 65  1  0  0  0  0
 33 75  2  0  0  0  0
 34 59  1  0  0  0  0
 34 71  1  0  0  0  0
 34 76  2  0  0  0  0
 35 66  1  0  0  0  0
 35 69  1  0  0  0  0
 35 77  2  0  0  0  0
 36 39  1  0  0  0  0
 37 48  1  0  0  0  0
 38 65  1  0  0  0  0
 39 41  1  0  0  0  0
 40 42  1  0  0  0  0
 40 44  1  0  0  0  0
 41 46  1  0  0  0  0
 42 49  1  0  0  0  0
 43 47  1  0  0  0  0
 43 50  1  0  0  0  0
 44 66  1  0  0  0  0
 45 49  1  0  0  0  0
 45 66  1  0  0  0  0
 46 70  1  0  0  0  0
 47 50  1  0  0  0  0
 48 65  1  0  0  0  0
 49 63  1  0  0  0  0
 50 79  1  0  0  0  0
 52 59  1  0  0  0  0
 53 60  1  0  0  0  0
 54 60  1  0  0  0  0
 55 60  1  0  0  0  0
 56 64  1  0  0  0  0
 57 72  1  0  0  0  0
 58 60  1  0  0  0  0
 58 71  1  0  0  0  0
 59 72  1  0  0  0  0
 61 63  1  0  0  0  0
 62 64  1  0  0  0  0
M  CHG  1  72   1
M  ISO  4  35 100  50 101  69 100  79 101
M  END
> <Batch ID>
0176

> <Smiles>
CNC(C)C(=O)NC(C(=O)N1Cc2cc([101O:1][101CH:1]3CC3c3nn(C)c([100NH:0][100C:0](=O)N4CCCC(n5nc(-c6ccc(Oc7ccc(F)cc7F)cc6)c(C(N)=O)c5N)C4)c3C)ccc2CC1C(=O)NC1CCCc2ccccc21)C(C)(C)C

> <Shape>
0.266

> <Color>
0.082

> <Negative vol penalty>
0.000

$$$$

  -OEChem-04052322503D

 86 95  0     1  0  0  0  0  0999 V2000
  -28.1919  -34.6537   26.1247 C   0  0  0  0  0  0  0  0  0  0  0  0
  -28.5225  -33.7857   25.0890 C   0  0  0  0  0  0  0  0  0  0  0  0
  -24.8162  -10.6595   22.2542 C   0  0  0  0  0  0  0  0  0  0  0  0
  -24.8412  -12.2579   24.0657 C   0  0  0  0  0  0  0  0  0  0  0  0
  -27.2121  -34.2933   27.0488 C   0  0  0  0  0  0  0  0  0  0  0  0
  -27.8742  -32.5562   24.9774 C   0  0  0  0  0  0  0  0  0  0  0  0
  -26.4085  -29.6231   19.8050 C   0  0  0  0  0  0  0  0  0  0  0  0
  -24.6632   -9.6210   23.1727 C   0  0  0  0  0  0  0  0  0  0  0  0
  -24.6881  -11.2194   24.9842 C   0  0  0  0  0  0  0  0  0  0  0  0
  -27.0236  -28.5826   19.1101 C   0  0  0  0  0  0  0  0  0  0  0  0
  -22.1660   -8.2625   25.0034 C   0  0  0  0  0  0  0  0  0  0  0  0
  -21.2163   -7.2810   24.7199 C   0  0  0  0  0  0  0  0  0  0  0  0
  -25.5696  -26.9997   20.2053 C   0  0  0  0  0  0  0  0  0  0  0  0
  -22.9507   -5.5990   24.7334 C   0  0  0  0  0  0  0  0  0  0  0  0
  -24.9052  -11.9780   22.7007 C   0  0  0  0  0  0  0  0  0  0  0  0
  -24.0423  -13.7845   21.1197 C   0  0  0  0  0  0  0  0  0  0  0  0
  -26.5446  -33.0629   26.9429 C   0  0  0  0  0  0  0  0  0  0  0  0
  -25.3749  -29.3581   20.7149 C   0  0  0  0  0  0  0  0  0  0  0  0
  -26.8854  -32.1784   25.9018 C   0  0  0  0  0  0  0  0  0  0  0  0
  -24.9413  -28.0388   20.9086 C   0  0  0  0  0  0  0  0  0  0  0  0
  -29.2397  -22.4059   20.7644 C   0  0  0  0  0  0  0  0  0  0  0  0
  -24.5991   -9.9009   24.5377 C   0  0  0  0  0  0  0  0  0  0  0  0
  -26.6062  -27.2704   19.3124 C   0  0  0  0  0  0  0  0  0  0  0  0
  -23.5080   -7.9123   25.1519 C   0  0  0  0  0  0  0  0  0  0  0  0
  -21.6087   -5.9493   24.5849 C   0  0  0  0  0  0  0  0  0  0  0  0
  -23.9003   -6.5806   25.0170 C   0  0  0  0  0  0  0  0  0  0  0  0
  -25.0639  -13.0512   21.7524 C   0  0  0  0  0  0  0  0  0  0  0  0
  -29.7930  -21.1530   20.9334 C   0  0  0  0  0  0  0  0  0  0  0  0
  -29.7056  -23.1231   19.6815 C   0  0  0  0  0  0  0  0  0  0  0  0
  -24.7080  -14.6813   20.3203 C   0  0  0  0  0  0  0  0  0  0  0  0
  -31.1011  -21.4274   19.0948 C   0  0  0  0  0  0  0  0  0  0  0  0
  -22.6188  -13.6657   21.2436 C   0  0  0  0  0  0  0  0  0  0  0  0
  -24.9740  -29.7811   23.8397 C   0  0  0  0  0  0  0  0  0  0  0  0
  -21.9627  -28.7611   23.1965 C   0  0  0  0  0  0  0  0  0  0  0  0
  -19.8747  -27.0040   21.1471 C   0  0  0  0  0  0  0  0  0  0  0  0
  -30.1676  -17.1089   20.5699 C   0  0  0  0  0  0  0  0  0  0  0  0
  -25.5259  -32.6968   27.9932 C   0  0  0  0  0  0  0  0  0  0  0  0
  -24.7036  -30.4942   21.4367 C   0  0  0  0  0  0  0  0  0  0  0  0
  -23.8223  -27.7032   21.8592 C   0  0  0  0  0  0  0  0  0  0  0  0
  -24.6216  -31.5363   27.5862 C   0  0  0  0  0  0  0  0  0  0  0  0
  -28.7986  -15.2169   17.8944 C   0  0  0  0  0  0  0  0  0  0  0  0
  -25.4476  -30.3965   26.9986 C   0  0  0  0  0  0  0  0  0  0  0  0
  -29.7910  -20.5583   23.5692 C   0  0  0  0  0  0  0  0  0  0  0  0
  -27.5910  -14.5164   18.5196 C   0  0  0  0  0  0  0  0  0  0  0  0
  -29.9747  -19.0564   23.8555 C   0  0  0  0  0  0  0  0  0  0  0  0
  -29.9643  -15.3156   18.8760 C   0  0  0  0  0  0  0  0  0  0  0  0
  -28.4263  -15.2318   20.7980 C   0  0  0  0  0  0  0  0  0  0  0  0
  -26.1870  -30.8466   25.7329 C   0  0  1  0  0  0  0  0  0  0  0  0
  -29.4005  -20.1653   22.1119 C   0  0  2  0  0  0  0  0  0  0  0  0
  -24.0081  -30.0576   22.7224 C   0  0  1  0  0  0  0  0  0  0  0  0
  -27.2046  -15.1582   19.8659 C   0  0  2  0  0  0  0  0  0  0  0  0
  -30.2598  -18.8806   22.3477 C   0  0  2  0  0  0  0  0  0  0  0  0
  -28.2099  -22.9307   21.7006 C   0  0  0  0  0  0  0  0  0  0  0  0
  -32.1350  -20.8843   18.1678 C   0  0  0  0  0  0  0  0  0  0  0  0
  -17.4734  -26.3179   20.9015 C   0  0  0  0  0  0  0  0  0  0  0  0
  -22.3411  -26.6636   25.3799 C   0  0  0  0  0  0  0  0  0  0  0  0
  -20.3586  -25.4452   24.4561 C   0  0  0  0  0  0  0  0  0  0  0  0
  -20.0908  -27.7547   25.3602 C   0  0  0  0  0  0  0  0  0  0  0  0
  -19.6126  -28.4236   18.5635 C   0  0  0  0  0  0  0  0  0  0  0  0
  -29.2521  -25.0696   18.1878 C   0  0  0  0  0  0  0  0  0  0  0  0
  -28.5764  -26.4274   18.2812 C   0  0  0  0  0  0  0  0  0  1  0  0
  -21.2756  -27.4176   23.1523 C   0  0  1  0  0  0  0  0  0  0  0  0
  -18.5270  -27.3542   20.5425 C   0  0  2  0  0  0  0  0  0  0  0  0
  -21.0389  -26.8261   24.5706 C   0  0  0  0  0  0  0  0  0  0  0  0
  -26.2857  -13.4476   21.3864 N   0  0  0  0  0  0  0  0  0  0  0  0
  -30.7293  -20.6304   20.1146 N   0  0  0  0  0  0  0  0  0  0  0  0
  -30.6393  -22.6629   18.8231 N   0  0  0  0  0  0  0  0  0  0  0  0
  -26.0361  -14.4398   20.5149 N   0  0  0  0  0  0  0  0  0  0  0  0
  -23.2017  -28.8481   22.5461 N   0  0  0  0  0  0  0  0  0  0  0  0
  -29.5298  -15.9387   20.1288 N   0  0  0  0  0  0  0  0  0  0  0  0
  -24.2810  -15.6449   19.4768 N   0  0  0  0  0  0  0  0  0  0  0  0
  -22.1025  -12.6917   22.1091 N   0  0  0  0  0  0  0  0  0  0  0  0
  -29.1873  -24.3884   19.4605 N   0  0  0  0  0  0  0  0  0  0  0  0
  -25.2800  -30.8895   24.6060 N   0  0  0  0  0  0  0  0  0  0  0  0
  -20.0569  -27.6078   22.3733 N   0  0  0  0  0  0  0  0  0  0  0  0
  -29.6950  -17.6475   21.7621 N   0  0  0  0  0  0  0  0  0  0  0  0
  -18.6285  -27.4264   19.0575 N   0  3  0  0  0  0  0  0  0  0  0  0
  -21.8281  -14.3904   20.5932 O   0  0  0  0  0  0  0  0  0  0  0  0
  -25.4083  -28.6459   23.9959 O   0  0  0  0  0  0  0  0  0  0  0  0
  -21.4167  -29.7006   23.7802 O   0  0  0  0  0  0  0  0  0  0  0  0
  -20.6833  -26.2655   20.5892 O   0  0  0  0  0  0  0  0  0  0  0  0
  -31.0890  -17.6465   19.9459 O   0  0  0  0  0  0  0  0  0  0  0  0
  -24.4495   -8.8878   25.4342 O   0  0  0  0  0  0  0  0  0  0  0  0
  -27.2053  -26.2529   18.6359 O   0  0  0  0  0  0  0  0  0  1  0  0
  -20.6964   -5.0066   24.3141 F   0  0  0  0  0  0  0  0  0  0  0  0
  -25.1880   -6.2379   25.1597 F   0  0  0  0  0  0  0  0  0  0  0  0
  1  2  1  0  0  0  0
  1  5  2  0  0  0  0
  2  6  2  0  0  0  0
  3  8  2  0  0  0  0
  3 15  1  0  0  0  0
  4  9  1  0  0  0  0
  4 15  2  0  0  0  0
  5 17  1  0  0  0  0
  6 19  1  0  0  0  0
  7 10  2  0  0  0  0
  7 18  1  0  0  0  0
  8 22  1  0  0  0  0
  9 22  2  0  0  0  0
 10 23  1  0  0  0  0
 11 12  2  0  0  0  0
 11 24  1  0  0  0  0
 12 25  1  0  0  0  0
 13 20  1  0  0  0  0
 13 23  2  0  0  0  0
 14 25  2  0  0  0  0
 14 26  1  0  0  0  0
 15 27  1  0  0  0  0
 16 27  1  0  0  0  0
 16 30  2  0  0  0  0
 16 32  1  0  0  0  0
 17 19  2  0  0  0  0
 17 37  1  0  0  0  0
 18 20  2  0  0  0  0
 18 38  1  0  0  0  0
 19 48  1  0  0  0  0
 20 39  1  0  0  0  0
 21 28  1  0  0  0  0
 21 29  2  0  0  0  0
 21 53  1  0  0  0  0
 22 83  1  0  0  0  0
 23 84  1  0  0  0  0
 24 26  2  0  0  0  0
 24 83  1  0  0  0  0
 25 85  1  0  0  0  0
 26 86  1  0  0  0  0
 27 65  2  0  0  0  0
 28 49  1  0  0  0  0
 28 66  2  0  0  0  0
 29 67  1  0  0  0  0
 29 73  1  0  0  0  0
 30 68  1  0  0  0  0
 30 71  1  0  0  0  0
 31 54  1  0  0  0  0
 31 66  1  0  0  0  0
 31 67  2  0  0  0  0
 32 72  1  0  0  0  0
 32 78  2  0  0  0  0
 33 50  1  0  0  0  0
 33 74  1  0  0  0  0
 33 79  2  0  0  0  0
 34 62  1  0  0  0  0
 34 69  1  0  0  0  0
 34 80  2  0  0  0  0
 35 63  1  0  0  0  0
 35 75  1  0  0  0  0
 35 81  2  0  0  0  0
 36 70  1  0  0  0  0
 36 76  1  0  0  0  0
 36 82  2  0  0  0  0
 37 40  1  0  0  0  0
 38 50  1  0  0  0  0
 39 69  1  0  0  0  0
 40 42  1  0  0  0  0
 41 44  1  0  0  0  0
 41 46  1  0  0  0  0
 42 48  1  0  0  0  0
 43 45  1  0  0  0  0
 43 49  1  0  0  0  0
 44 51  1  0  0  0  0
 45 52  1  0  0  0  0
 46 70  1  0  0  0  0
 47 51  1  0  0  0  0
 47 70  1  0  0  0  0
 48 74  1  0  0  0  0
 49 52  1  0  0  0  0
 50 69  1  0  0  0  0
 51 68  1  0  0  0  0
 52 76  1  0  0  0  0
 55 63  1  0  0  0  0
 56 64  1  0  0  0  0
 57 64  1  0  0  0  0
 58 64  1  0  0  0  0
 59 77  1  0  0  0  0
 60 61  1  0  0  0  0
 60 73  1  0  0  0  0
 61 84  1  0  0  0  0
 62 64  1  0  0  0  0
 62 75  1  0  0  0  0
 63 77  1  0  0  0  0
 65 68  1  0  0  0  0
M  CHG  1  77   1
M  ISO  4  36 100  61 101  76 100  84 101
M  END
> <Batch ID>
0176

> <Smiles>
CNC(C)C(=O)NC(C(=O)N1Cc2cc([101O:1][101CH2:1]CNc3nc(C)nc(C4CCC4[100NH:0][100C:0](=O)N4CCCC(n5nc(-c6ccc(Oc7ccc(F)cc7F)cc6)c(C(N)=O)c5N)C4)c3C)ccc2CC1C(=O)NC1CCCc2ccccc21)C(C)(C)C

> <Shape>
0.305

> <Color>
0.076

> <Negative vol penalty>
0.000

$$$$

  -OEChem-04052322503D

 81 90  0     1  0  0  0  0  0999 V2000
  -28.0144  -34.7629   15.6177 C   0  0  0  0  0  0  0  0  0  0  0  0
  -27.9880  -33.4188   15.9756 C   0  0  0  0  0  0  0  0  0  0  0  0
  -24.3190   -8.7642   19.7872 C   0  0  0  0  0  0  0  0  0  0  0  0
  -24.0261   -9.5024   22.0690 C   0  0  0  0  0  0  0  0  0  0  0  0
  -27.9717  -35.7469   16.6045 C   0  0  0  0  0  0  0  0  0  0  0  0
  -27.9200  -33.0579   17.3208 C   0  0  0  0  0  0  0  0  0  0  0  0
  -24.5597  -29.3668   18.1745 C   0  0  0  0  0  0  0  0  0  0  0  0
  -23.2990   -7.8285   19.9589 C   0  0  0  0  0  0  0  0  0  0  0  0
  -23.0060   -8.5667   22.2407 C   0  0  0  0  0  0  0  0  0  0  0  0
  -24.9466  -28.0666   17.8527 C   0  0  0  0  0  0  0  0  0  0  0  0
  -22.7426   -5.2441   22.8082 C   0  0  0  0  0  0  0  0  0  0  0  0
  -22.7499   -4.4848   23.9783 C   0  0  0  0  0  0  0  0  0  0  0  0
  -25.4434  -27.6460   20.1756 C   0  0  0  0  0  0  0  0  0  0  0  0
  -20.5777   -5.3658   24.5635 C   0  0  0  0  0  0  0  0  0  0  0  0
  -24.6827   -9.6011   20.8423 C   0  0  0  0  0  0  0  0  0  0  0  0
  -27.0788  -10.3095   20.3280 C   0  0  0  0  0  0  0  0  0  0  0  0
  -27.8934  -35.3979   17.9620 C   0  0  0  0  0  0  0  0  0  0  0  0
  -24.6222  -29.8206   19.4999 C   0  0  0  0  0  0  0  0  0  0  0  0
  -27.8775  -34.0382   18.3268 C   0  0  0  0  0  0  0  0  0  0  0  0
  -25.0543  -28.9516   20.5119 C   0  0  0  0  0  0  0  0  0  0  0  0
  -22.6424   -7.7298   21.1856 C   0  0  0  0  0  0  0  0  0  0  0  0
  -25.3913  -27.2069   18.8529 C   0  0  0  0  0  0  0  0  0  0  0  0
  -21.6529   -6.0644   22.5158 C   0  0  0  0  0  0  0  0  0  0  0  0
  -21.6674   -4.5456   24.8559 C   0  0  0  0  0  0  0  0  0  0  0  0
  -20.5704   -6.1252   23.3935 C   0  0  0  0  0  0  0  0  0  0  0  0
  -25.7367  -10.5675   20.6657 C   0  0  0  0  0  0  0  0  0  0  0  0
  -27.6661  -11.5502   20.2827 C   0  0  0  0  0  0  0  0  0  0  0  0
  -27.7358   -9.0599   20.0776 C   0  0  0  0  0  0  0  0  0  0  0  0
  -26.2153  -32.1188   21.0112 C   0  0  0  0  0  0  0  0  0  0  0  0
  -24.3681  -31.2130   23.5191 C   0  0  0  0  0  0  0  0  0  0  0  0
  -22.5056  -28.7753   25.0142 C   0  0  0  0  0  0  0  0  0  0  0  0
  -25.2388  -16.9006   19.2428 C   0  0  0  0  0  0  0  0  0  0  0  0
  -27.8972  -36.4965   18.9953 C   0  0  0  0  0  0  0  0  0  0  0  0
  -24.1759  -31.2174   19.8345 C   0  0  0  0  0  0  0  0  0  0  0  0
  -25.1208  -29.3836   21.9532 C   0  0  0  0  0  0  0  0  0  0  0  0
  -27.4476  -36.0332   20.3786 C   0  0  0  0  0  0  0  0  0  0  0  0
  -27.3371  -15.9308   22.1298 C   0  0  0  0  0  0  0  0  0  0  0  0
  -28.1411  -34.7280   20.7559 C   0  0  0  0  0  0  0  0  0  0  0  0
  -27.2263  -14.4105   22.0728 C   0  0  0  0  0  0  0  0  0  0  0  0
  -23.3964  -19.2390   18.0541 C   0  0  0  0  0  0  0  0  0  0  0  0
  -23.5188  -20.7719   17.9203 C   0  0  0  0  0  0  0  0  0  0  0  0
  -27.0754  -22.7778   20.1390 C   0  0  0  0  0  0  0  0  0  0  0  0
  -26.0571  -16.6193   21.6574 C   0  0  0  0  0  0  0  0  0  0  0  0
  -25.5018  -14.6557   20.2465 C   0  0  0  0  0  0  0  0  0  0  0  0
  -26.9825  -21.4183   19.4660 C   0  0  0  0  0  0  0  0  0  0  0  0
  -25.3787  -22.9959   18.4941 C   0  0  0  0  0  0  0  0  0  0  0  0
  -27.7791  -33.6071   19.7741 C   0  0  1  0  0  0  0  0  0  0  0  0
  -24.7679  -31.7369   21.1411 C   0  0  1  0  0  0  0  0  0  0  0  0
  -26.5749  -23.7402   19.0689 C   0  0  1  0  0  0  0  0  0  0  0  0
  -26.7997  -13.9518   20.6704 C   0  0  2  0  0  0  0  0  0  0  0  0
  -24.9074  -19.2186   18.3881 C   0  0  1  0  0  0  0  0  0  0  0  0
  -24.7339  -20.6807   18.8702 C   0  0  1  0  0  0  0  0  0  0  0  0
  -21.1504  -28.3175   27.0761 C   0  0  0  0  0  0  0  0  0  0  0  0
  -26.9373  -30.8877   25.1327 C   0  0  0  0  0  0  0  0  0  0  0  0
  -25.6354  -29.5555   26.8056 C   0  0  0  0  0  0  0  0  0  0  0  0
  -25.0461  -31.9424   26.3839 C   0  0  0  0  0  0  0  0  0  0  0  0
  -20.0455  -28.3132   23.4353 C   0  0  0  0  0  0  0  0  0  0  0  0
  -26.2154  -25.1105   19.6158 C   0  0  0  0  0  0  0  0  0  1  0  0
  -24.4986  -30.2025   24.6331 C   0  0  1  0  0  0  0  0  0  0  0  0
  -21.1208  -28.8042   25.6356 C   0  0  2  0  0  0  0  0  0  0  0  0
  -25.5300  -30.6392   25.7115 C   0  0  0  0  0  0  0  0  0  0  0  0
  -25.4860  -11.8699   20.8238 N   0  0  0  0  0  0  0  0  0  0  0  0
  -26.6787  -12.4413   20.5846 N   0  0  0  0  0  0  0  0  0  0  0  0
  -24.6797  -30.7609   22.2291 N   0  0  0  0  0  0  0  0  0  0  0  0
  -25.6195  -16.1157   20.3458 N   0  0  0  0  0  0  0  0  0  0  0  0
  -28.9257  -11.9550   20.0146 N   0  0  0  0  0  0  0  0  0  0  0  0
  -28.3253   -8.3871   21.1565 N   0  0  0  0  0  0  0  0  0  0  0  0
  -26.4573  -33.0918   20.0604 N   0  0  0  0  0  0  0  0  0  0  0  0
  -23.1509  -29.9865   25.1482 N   0  0  0  0  0  0  0  0  0  0  0  0
  -25.2801  -18.2782   19.4343 N   0  0  0  0  0  0  0  0  0  0  0  0
  -25.8438  -21.5584   18.4815 N   0  3  2  0  0  0  0  0  0  0  0  0
  -20.1888  -27.9337   24.8644 N   0  3  0  0  0  0  0  0  0  0  0  0
  -27.8125   -8.5631   18.9284 O   0  0  0  0  0  0  0  0  0  0  0  0
  -27.0505  -31.5721   21.7220 O   0  0  0  0  0  0  0  0  0  0  0  0
  -23.9963  -32.3592   23.7829 O   0  0  0  0  0  0  0  0  0  0  0  0
  -22.9700  -27.7769   24.4683 O   0  0  0  0  0  0  0  0  0  0  0  0
  -24.8798  -16.4154   18.1644 O   0  0  0  0  0  0  0  0  0  0  0  0
  -21.6468   -6.8170   21.3534 O   0  0  0  0  0  0  0  0  0  0  0  0
  -25.7702  -25.9375   18.5414 O   0  0  0  0  0  0  0  0  0  1  0  0
  -21.6739   -3.8152   25.9787 F   0  0  0  0  0  0  0  0  0  0  0  0
  -19.5202   -6.9104   23.1173 F   0  0  0  0  0  0  0  0  0  0  0  0
  1  2  1  0  0  0  0
  1  5  2  0  0  0  0
  2  6  2  0  0  0  0
  3  8  2  0  0  0  0
  3 15  1  0  0  0  0
  4  9  1  0  0  0  0
  4 15  2  0  0  0  0
  5 17  1  0  0  0  0
  6 19  1  0  0  0  0
  7 10  2  0  0  0  0
  7 18  1  0  0  0  0
  8 21  1  0  0  0  0
  9 21  2  0  0  0  0
 10 22  1  0  0  0  0
 11 12  2  0  0  0  0
 11 23  1  0  0  0  0
 12 24  1  0  0  0  0
 13 20  1  0  0  0  0
 13 22  2  0  0  0  0
 14 24  2  0  0  0  0
 14 25  1  0  0  0  0
 15 26  1  0  0  0  0
 16 26  1  0  0  0  0
 16 27  2  0  0  0  0
 16 28  1  0  0  0  0
 17 19  2  0  0  0  0
 17 33  1  0  0  0  0
 18 20  2  0  0  0  0
 18 34  1  0  0  0  0
 19 47  1  0  0  0  0
 20 35  1  0  0  0  0
 21 78  1  0  0  0  0
 22 79  1  0  0  0  0
 23 25  2  0  0  0  0
 23 78  1  0  0  0  0
 24 80  1  0  0  0  0
 25 81  1  0  0  0  0
 26 62  2  0  0  0  0
 27 63  1  0  0  0  0
 27 66  1  0  0  0  0
 28 67  1  0  0  0  0
 28 73  2  0  0  0  0
 29 48  1  0  0  0  0
 29 68  1  0  0  0  0
 29 74  2  0  0  0  0
 30 59  1  0  0  0  0
 30 64  1  0  0  0  0
 30 75  2  0  0  0  0
 31 60  1  0  0  0  0
 31 69  1  0  0  0  0
 31 76  2  0  0  0  0
 32 65  1  0  0  0  0
 32 70  1  0  0  0  0
 32 77  2  0  0  0  0
 33 36  1  0  0  0  0
 34 48  1  0  0  0  0
 35 64  1  0  0  0  0
 36 38  1  0  0  0  0
 37 39  1  0  0  0  0
 37 43  1  0  0  0  0
 38 47  1  0  0  0  0
 39 50  1  0  0  0  0
 40 41  1  0  0  0  0
 40 51  1  0  0  0  0
 41 52  1  0  0  0  0
 42 45  1  0  0  0  0
 42 49  1  0  0  0  0
 43 65  1  0  0  0  0
 44 50  1  0  0  0  0
 44 65  1  0  0  0  0
 45 71  1  0  0  0  0
 46 49  1  0  0  0  0
 46 71  1  0  0  0  0
 47 68  1  0  0  0  0
 48 64  1  0  0  0  0
 49 58  1  0  0  0  0
 50 63  1  0  0  0  0
 51 52  1  0  0  0  0
 51 70  1  0  0  0  0
 52 71  1  0  0  0  0
 53 60  1  0  0  0  0
 54 61  1  0  0  0  0
 55 61  1  0  0  0  0
 56 61  1  0  0  0  0
 57 72  1  0  0  0  0
 58 79  1  0  0  0  0
 59 61  1  0  0  0  0
 59 69  1  0  0  0  0
 60 72  1  0  0  0  0
 62 63  1  0  0  0  0
M  CHG  2  71   1  72   1
M  ISO  4  32 100  58 101  70 100  79 101
M  END
> <Batch ID>
0176

> <Smiles>
CNC(C)C(=O)NC(C(=O)N1Cc2cc([101O:1][101CH2:1]C3CCN(C4CCC4[100NH:0][100C:0](=O)N4CCCC(n5nc(-c6ccc(Oc7ccc(F)cc7F)cc6)c(C(N)=O)c5N)C4)C3)ccc2CC1C(=O)NC1CCCc2ccccc21)C(C)(C)C

> <Shape>
0.221

> <Color>
0.106

> <Negative vol penalty>
0.000

$$$$

  -OEChem-04052322503D

 84 94  0     1  0  0  0  0  0999 V2000
  -29.6642  -31.7343   26.4834 C   0  0  0  0  0  0  0  0  0  0  0  0
  -29.2072  -30.6205   25.7864 C   0  0  0  0  0  0  0  0  0  0  0  0
  -24.3079   -9.2066   21.5514 C   0  0  0  0  0  0  0  0  0  0  0  0
  -24.6830  -10.6694   23.4373 C   0  0  0  0  0  0  0  0  0  0  0  0
  -28.7883  -32.7781   26.7788 C   0  0  0  0  0  0  0  0  0  0  0  0
  -27.8735  -30.5492   25.3854 C   0  0  0  0  0  0  0  0  0  0  0  0
  -27.3638  -28.9373   20.6118 C   0  0  0  0  0  0  0  0  0  0  0  0
  -23.9919   -8.1642   22.4228 C   0  0  0  0  0  0  0  0  0  0  0  0
  -24.3669   -9.6271   24.3087 C   0  0  0  0  0  0  0  0  0  0  0  0
  -27.4978  -27.5684   20.3843 C   0  0  0  0  0  0  0  0  0  0  0  0
  -22.7359   -5.2181   24.1427 C   0  0  0  0  0  0  0  0  0  0  0  0
  -21.6147   -4.4430   23.8468 C   0  0  0  0  0  0  0  0  0  0  0  0
  -27.0959  -21.6148   18.3122 C   0  0  0  0  0  0  0  0  0  0  0  0
  -27.1344  -22.9819   18.5225 C   0  0  0  0  0  0  0  0  0  0  0  0
  -25.0962  -27.3494   20.3238 C   0  0  0  0  0  0  0  0  0  0  0  0
  -20.2187   -6.4101   23.9836 C   0  0  0  0  0  0  0  0  0  0  0  0
  -24.6536  -10.4592   22.0587 C   0  0  0  0  0  0  0  0  0  0  0  0
  -24.0948  -12.4790   20.6042 C   0  0  0  0  0  0  0  0  0  0  0  0
  -27.4456  -32.7239   26.3728 C   0  0  0  0  0  0  0  0  0  0  0  0
  -26.0927  -29.5218   20.7081 C   0  0  0  0  0  0  0  0  0  0  0  0
  -26.9785  -31.5926   25.6768 C   0  0  0  0  0  0  0  0  0  0  0  0
  -24.9488  -28.7264   20.5501 C   0  0  0  0  0  0  0  0  0  0  0  0
  -24.0214   -8.3745   23.8014 C   0  0  0  0  0  0  0  0  0  0  0  0
  -26.3639  -26.7737   20.2431 C   0  0  0  0  0  0  0  0  0  0  0  0
  -22.5985   -6.5893   24.3591 C   0  0  0  0  0  0  0  0  0  0  0  0
  -20.3561   -5.0390   23.7673 C   0  0  0  0  0  0  0  0  0  0  0  0
  -21.3399   -7.1853   24.2795 C   0  0  0  0  0  0  0  0  0  0  0  0
  -24.9807  -11.5361   21.1592 C   0  0  0  0  0  0  0  0  0  0  0  0
  -27.6752  -20.7984   19.2627 C   0  0  0  0  0  0  0  0  0  0  0  0
  -27.7493  -23.4422   19.6695 C   0  0  0  0  0  0  0  0  0  0  0  0
  -24.8915  -13.2814   19.8245 C   0  0  0  0  0  0  0  0  0  0  0  0
  -22.6783  -12.6174   20.7781 C   0  0  0  0  0  0  0  0  0  0  0  0
  -24.5049  -31.0763   22.9810 C   0  0  0  0  0  0  0  0  0  0  0  0
  -22.3230  -31.5065   20.6195 C   0  0  0  0  0  0  0  0  0  0  0  0
  -21.0078  -30.4323   17.6592 C   0  0  0  0  0  0  0  0  0  0  0  0
  -29.5272  -16.1686   18.9739 C   0  0  0  0  0  0  0  0  0  0  0  0
  -26.5250  -33.8553   26.7565 C   0  0  0  0  0  0  0  0  0  0  0  0
  -25.9653  -31.0044   20.9272 C   0  0  0  0  0  0  0  0  0  0  0  0
  -23.5617  -29.3085   20.6247 C   0  0  0  0  0  0  0  0  0  0  0  0
  -25.2174  -33.8703   25.9689 C   0  0  0  0  0  0  0  0  0  0  0  0
  -29.6855  -12.7393   18.3457 C   0  0  0  0  0  0  0  0  0  0  0  0
  -24.6091  -32.4724   25.9173 C   0  0  0  0  0  0  0  0  0  0  0  0
  -28.4134  -12.1847   18.9836 C   0  0  0  0  0  0  0  0  0  0  0  0
  -30.1292  -16.9520   22.0455 C   0  0  0  0  0  0  0  0  0  0  0  0
  -29.6053  -18.3560   21.9902 C   0  0  0  0  0  0  0  0  0  0  0  0
  -28.2052  -18.7386   17.7966 C   0  0  0  0  0  0  0  0  0  0  0  0
  -30.2971  -13.8308   19.2150 C   0  0  0  0  0  0  0  0  0  0  0  0
  -28.0774  -14.4323   20.1325 C   0  0  0  0  0  0  0  0  0  0  0  0
  -25.5449  -31.4896   25.2032 C   0  0  1  0  0  0  0  0  0  0  0  0
  -27.6538  -19.3209   19.0709 C   0  0  1  0  0  0  0  0  0  0  0  0
  -24.6185  -31.4073   21.5197 C   0  0  1  0  0  0  0  0  0  0  0  0
  -27.4191  -13.3157   19.2960 C   0  0  2  0  0  0  0  0  0  0  0  0
  -28.9509  -17.2788   21.1693 C   0  0  0  0  0  0  0  0  0  0  0  0
  -28.9614  -18.5622   19.0801 C   0  0  1  0  0  0  0  0  0  0  0  0
  -19.2071  -30.9655   15.9947 C   0  0  0  0  0  0  0  0  0  0  0  0
  -20.2334  -30.3323   22.5075 C   0  0  0  0  0  0  0  0  0  0  0  0
  -18.7305  -30.0095   20.5313 C   0  0  0  0  0  0  0  0  0  0  0  0
  -19.4526  -32.3060   21.1850 C   0  0  0  0  0  0  0  0  0  0  0  0
  -22.9776  -30.8703   15.4943 C   0  0  0  0  0  0  0  0  0  0  0  0
  -27.8180  -24.9155   19.9452 C   0  0  0  0  0  0  0  0  0  1  0  0
  -21.1243  -30.7377   20.1184 C   0  0  1  0  0  0  0  0  0  0  0  0
  -20.6628  -31.1757   16.3815 C   0  0  2  0  0  0  0  0  0  0  0  0
  -19.9112  -30.8347   21.0860 C   0  0  0  0  0  0  0  0  0  0  0  0
  -26.2435  -11.7210   20.7653 N   0  0  0  0  0  0  0  0  0  0  0  0
  -28.2702  -21.2763   20.3761 N   0  0  0  0  0  0  0  0  0  0  0  0
  -28.3077  -22.6200   20.5829 N   0  0  0  0  0  0  0  0  0  0  0  0
  -26.1569  -12.7892   19.9545 N   0  0  0  0  0  0  0  0  0  0  0  0
  -23.4892  -30.7622   20.8468 N   0  0  0  0  0  0  0  0  0  0  0  0
  -29.3277  -14.8876   19.5069 N   0  0  0  0  0  0  0  0  0  0  0  0
  -24.6262  -14.3527   19.0472 N   0  0  0  0  0  0  0  0  0  0  0  0
  -22.0159  -11.7082   21.6141 N   0  0  0  0  0  0  0  0  0  0  0  0
  -25.4707  -31.6721   23.7695 N   0  0  0  0  0  0  0  0  0  0  0  0
  -20.8560  -31.2319   18.7723 N   0  0  0  0  0  0  0  0  0  0  0  0
  -29.0616  -17.2629   19.7226 N   0  0  0  0  0  0  0  0  0  0  0  0
  -21.5206  -30.7018   15.2587 N   0  3  0  0  0  0  0  0  0  0  0  0
  -22.0171  -13.5104   20.1960 O   0  0  0  0  0  0  0  0  0  0  0  0
  -23.6066  -30.3364   23.3648 O   0  0  0  0  0  0  0  0  0  0  0  0
  -22.2301  -32.7239   20.7957 O   0  0  0  0  0  0  0  0  0  0  0  0
  -21.3718  -29.2584   17.6693 O   0  0  0  0  0  0  0  0  0  0  0  0
  -30.1106  -16.3358   17.8946 O   0  0  0  0  0  0  0  0  0  0  0  0
  -23.7128   -7.3576   24.6519 O   0  0  0  0  0  0  0  0  0  0  0  0
  -26.4919  -25.4371   20.0216 O   0  0  0  0  0  0  0  0  0  1  0  0
  -19.2796   -4.2947   23.4817 F   0  0  0  0  0  0  0  0  0  0  0  0
  -21.2019   -8.5022   24.4852 F   0  0  0  0  0  0  0  0  0  0  0  0
  1  2  1  0  0  0  0
  1  5  2  0  0  0  0
  2  6  2  0  0  0  0
  3  8  2  0  0  0  0
  3 17  1  0  0  0  0
  4  9  1  0  0  0  0
  4 17  2  0  0  0  0
  5 19  1  0  0  0  0
  6 21  1  0  0  0  0
  7 10  2  0  0  0  0
  7 20  1  0  0  0  0
  8 23  1  0  0  0  0
  9 23  2  0  0  0  0
 10 24  1  0  0  0  0
 11 12  2  0  0  0  0
 11 25  1  0  0  0  0
 12 26  1  0  0  0  0
 13 14  2  0  0  0  0
 13 29  1  0  0  0  0
 14 30  1  0  0  0  0
 15 22  1  0  0  0  0
 15 24  2  0  0  0  0
 16 26  2  0  0  0  0
 16 27  1  0  0  0  0
 17 28  1  0  0  0  0
 18 28  1  0  0  0  0
 18 31  2  0  0  0  0
 18 32  1  0  0  0  0
 19 21  2  0  0  0  0
 19 37  1  0  0  0  0
 20 22  2  0  0  0  0
 20 38  1  0  0  0  0
 21 49  1  0  0  0  0
 22 39  1  0  0  0  0
 23 81  1  0  0  0  0
 24 82  1  0  0  0  0
 25 27  2  0  0  0  0
 25 81  1  0  0  0  0
 26 83  1  0  0  0  0
 27 84  1  0  0  0  0
 28 64  2  0  0  0  0
 29 50  1  0  0  0  0
 29 65  2  0  0  0  0
 30 60  1  0  0  0  0
 30 66  2  0  0  0  0
 31 67  1  0  0  0  0
 31 70  1  0  0  0  0
 32 71  1  0  0  0  0
 32 76  2  0  0  0  0
 33 51  1  0  0  0  0
 33 72  1  0  0  0  0
 33 77  2  0  0  0  0
 34 61  1  0  0  0  0
 34 68  1  0  0  0  0
 34 78  2  0  0  0  0
 35 62  1  0  0  0  0
 35 73  1  0  0  0  0
 35 79  2  0  0  0  0
 36 69  1  0  0  0  0
 36 74  1  0  0  0  0
 36 80  2  0  0  0  0
 37 40  1  0  0  0  0
 38 51  1  0  0  0  0
 39 68  1  0  0  0  0
 40 42  1  0  0  0  0
 41 43  1  0  0  0  0
 41 47  1  0  0  0  0
 42 49  1  0  0  0  0
 43 52  1  0  0  0  0
 44 45  1  0  0  0  0
 44 53  1  0  0  0  0
 45 53  1  0  0  0  0
 46 50  1  0  0  0  0
 46 54  1  0  0  0  0
 47 69  1  0  0  0  0
 48 52  1  0  0  0  0
 48 69  1  0  0  0  0
 49 72  1  0  0  0  0
 50 54  1  0  0  0  0
 51 68  1  0  0  0  0
 52 67  1  0  0  0  0
 53 74  1  0  0  0  0
 54 74  1  0  0  0  0
 55 62  1  0  0  0  0
 56 63  1  0  0  0  0
 57 63  1  0  0  0  0
 58 63  1  0  0  0  0
 59 75  1  0  0  0  0
 60 82  1  0  0  0  0
 61 63  1  0  0  0  0
 61 73  1  0  0  0  0
 62 75  1  0  0  0  0
 64 67  1  0  0  0  0
 65 66  1  0  0  0  0
M  CHG  1  75   1
M  ISO  4  36 100  60 101  74 100  82 101
M  END
> <Batch ID>
0176

> <Smiles>
CNC(C)C(=O)NC(C(=O)N1Cc2cc([101O:1][101CH2:1]c3ccc(C4CC4[100N:0](C4CC4)[100C:0](=O)N4CCCC(n5nc(-c6ccc(Oc7ccc(F)cc7F)cc6)c(C(N)=O)c5N)C4)nn3)ccc2CC1C(=O)NC1CCCc2ccccc21)C(C)(C)C

> <Shape>
0.335

> <Color>
0.110

> <Negative vol penalty>
0.000

$$$$

  -OEChem-04052322503D

 88 98  0     1  0  0  0  0  0999 V2000
  -33.9901  -29.5246   34.1862 C   0  0  0  0  0  0  0  0  0  0  0  0
  -33.7811  -28.2959   33.5682 C   0  0  0  0  0  0  0  0  0  0  0  0
  -23.0398   -9.8542   19.9396 C   0  0  0  0  0  0  0  0  0  0  0  0
  -23.6490   -9.9236   22.2765 C   0  0  0  0  0  0  0  0  0  0  0  0
  -34.0909  -30.6827   33.4164 C   0  0  0  0  0  0  0  0  0  0  0  0
  -33.6716  -28.2247   32.1799 C   0  0  0  0  0  0  0  0  0  0  0  0
  -35.6065  -23.6773   28.5629 C   0  0  0  0  0  0  0  0  0  0  0  0
  -22.2716   -8.7138   20.1736 C   0  0  0  0  0  0  0  0  0  0  0  0
  -22.8807   -8.7831   22.5106 C   0  0  0  0  0  0  0  0  0  0  0  0
  -34.9461  -22.5964   27.9803 C   0  0  0  0  0  0  0  0  0  0  0  0
  -21.3701   -5.6820   23.6556 C   0  0  0  0  0  0  0  0  0  0  0  0
  -21.9273   -4.6757   24.4445 C   0  0  0  0  0  0  0  0  0  0  0  0
  -33.7129  -18.3269   25.6184 C   0  0  0  0  0  0  0  0  0  0  0  0
  -34.6849  -23.8617   25.9432 C   0  0  0  0  0  0  0  0  0  0  0  0
  -23.7369   -4.4368   22.8617 C   0  0  0  0  0  0  0  0  0  0  0  0
  -23.7286  -10.4591   20.9910 C   0  0  0  0  0  0  0  0  0  0  0  0
  -24.0987  -12.9774   20.8207 C   0  0  0  0  0  0  0  0  0  0  0  0
  -33.9923  -30.6244   32.0173 C   0  0  0  0  0  0  0  0  0  0  0  0
  -35.8018  -24.8644   27.8424 C   0  0  0  0  0  0  0  0  0  0  0  0
  -33.7698  -29.3833   31.3907 C   0  0  0  0  0  0  0  0  0  0  0  0
  -33.0698  -17.3410   24.8784 C   0  0  0  0  0  0  0  0  0  0  0  0
  -35.3503  -24.9553   26.5180 C   0  0  0  0  0  0  0  0  0  0  0  0
  -32.9862  -19.4069   26.1070 C   0  0  0  0  0  0  0  0  0  0  0  0
  -22.1920   -8.1782   21.4591 C   0  0  0  0  0  0  0  0  0  0  0  0
  -34.4826  -22.6895   26.6713 C   0  0  0  0  0  0  0  0  0  0  0  0
  -21.9963   -6.0657   22.4697 C   0  0  0  0  0  0  0  0  0  0  0  0
  -23.1107   -4.0531   24.0476 C   0  0  0  0  0  0  0  0  0  0  0  0
  -23.1797   -5.4431   22.0728 C   0  0  0  0  0  0  0  0  0  0  0  0
  -24.5228  -11.6369   20.7497 C   0  0  0  0  0  0  0  0  0  0  0  0
  -31.7093  -17.4805   24.6564 C   0  0  0  0  0  0  0  0  0  0  0  0
  -31.6294  -19.4540   25.8298 C   0  0  0  0  0  0  0  0  0  0  0  0
  -25.2184  -13.7088   20.5080 C   0  0  0  0  0  0  0  0  0  0  0  0
  -22.8080  -13.5135   21.1407 C   0  0  0  0  0  0  0  0  0  0  0  0
  -34.8735  -27.8834   28.1992 C   0  0  0  0  0  0  0  0  0  0  0  0
  -36.8290  -28.3763   25.6585 C   0  0  0  0  0  0  0  0  0  0  0  0
  -38.3832  -27.0894   22.9062 C   0  0  0  0  0  0  0  0  0  0  0  0
  -30.7453  -14.4958   21.3765 C   0  0  0  0  0  0  0  0  0  0  0  0
  -34.0604  -31.9093   31.2305 C   0  0  0  0  0  0  0  0  0  0  0  0
  -36.5396  -26.0117   28.4760 C   0  0  0  0  0  0  0  0  0  0  0  0
  -35.5527  -26.2003   25.6948 C   0  0  0  0  0  0  0  0  0  0  0  0
  -34.3077  -31.6979   29.7391 C   0  0  0  0  0  0  0  0  0  0  0  0
  -29.6933  -12.2746   18.6446 C   0  0  0  0  0  0  0  0  0  0  0  0
  -33.8838  -14.9045   25.1517 C   0  0  0  0  0  0  0  0  0  0  0  0
  -35.1073  -15.7611   25.0535 C   0  0  0  0  0  0  0  0  0  0  0  0
  -33.3941  -30.6036   29.1963 C   0  0  0  0  0  0  0  0  0  0  0  0
  -28.2324  -11.9828   18.9892 C   0  0  0  0  0  0  0  0  0  0  0  0
  -30.2293  -18.1013   22.0914 C   0  0  0  0  0  0  0  0  0  0  0  0
  -30.5340  -12.5323   19.8928 C   0  0  0  0  0  0  0  0  0  0  0  0
  -28.5359  -13.2831   21.1293 C   0  0  0  0  0  0  0  0  0  0  0  0
  -29.2079  -16.4239   20.7391 C   0  0  0  0  0  0  0  0  0  0  0  0
  -33.8416  -16.1807   24.3515 C   0  0  0  0  0  0  0  0  0  0  0  0
  -33.6706  -29.2620   29.8855 C   0  0  1  0  0  0  0  0  0  0  0  0
  -36.2290  -27.3552   27.8235 C   0  0  1  0  0  0  0  0  0  0  0  0
  -27.6465  -13.0821   19.8943 C   0  0  2  0  0  0  0  0  0  0  0  0
  -29.6226  -17.8883   20.7096 C   0  0  2  0  0  0  0  0  0  0  0  0
  -30.9451  -16.7747   22.3752 C   0  0  1  0  0  0  0  0  0  0  0  0
  -30.7988  -20.5907   26.3290 C   0  0  0  0  0  0  0  0  0  0  0  0
  -39.8851  -27.7444   21.0055 C   0  0  0  0  0  0  0  0  0  0  0  0
  -34.4753  -29.7325   24.2691 C   0  0  0  0  0  0  0  0  0  0  0  0
  -35.7121  -29.5051   22.1042 C   0  0  0  0  0  0  0  0  0  0  0  0
  -36.6755  -30.8780   23.9508 C   0  0  0  0  0  0  0  0  0  0  0  0
  -40.4888  -25.1950   23.7646 C   0  0  0  0  0  0  0  0  0  0  0  0
  -33.6692  -20.4665   26.9005 C   0  0  0  0  0  0  0  0  0  1  0  0
  -30.9589  -16.4450   23.8624 C   0  0  0  0  0  0  0  0  0  0  0  0
  -36.6582  -28.3583   24.1587 C   0  0  1  0  0  0  0  0  0  0  0  0
  -39.8178  -27.1903   22.4201 C   0  0  2  0  0  0  0  0  0  0  0  0
  -35.8746  -29.5956   23.6366 C   0  0  0  0  0  0  0  0  0  0  0  0
  -25.8113  -11.5206   20.4178 N   0  0  0  0  0  0  0  0  0  0  0  0
  -30.9698  -18.5153   25.1147 N   0  0  0  0  0  0  0  0  0  0  0  0
  -26.2065  -12.7974   20.2774 N   0  0  0  0  0  0  0  0  0  0  0  0
  -36.2742  -27.2971   26.3610 N   0  0  0  0  0  0  0  0  0  0  0  0
  -29.9228  -13.5595   20.7364 N   0  0  0  0  0  0  0  0  0  0  0  0
  -30.2213  -15.7761   21.5794 N   0  0  0  0  0  0  0  0  0  0  0  0
  -25.4443  -15.0361   20.4104 N   0  0  0  0  0  0  0  0  0  0  0  0
  -21.7687  -12.6212   21.4373 N   0  0  0  0  0  0  0  0  0  0  0  0
  -34.8681  -28.6540   29.3462 N   0  0  0  0  0  0  0  0  0  0  0  0
  -37.9974  -28.2186   23.5970 N   0  0  0  0  0  0  0  0  0  0  0  0
  -40.4637  -25.8472   22.4300 N   0  3  0  0  0  0  0  0  0  0  0  0
  -22.5789  -14.7468   21.1469 O   0  0  0  0  0  0  0  0  0  0  0  0
  -33.9045  -27.6131   27.4995 O   0  0  0  0  0  0  0  0  0  0  0  0
  -37.4386  -29.3096   26.1866 O   0  0  0  0  0  0  0  0  0  0  0  0
  -37.6744  -26.1086   22.6911 O   0  0  0  0  0  0  0  0  0  0  0  0
  -31.9005  -14.2124   21.7187 O   0  0  0  0  0  0  0  0  0  0  0  0
  -30.6035  -18.0790   19.6980 O   0  0  0  0  0  0  0  0  0  0  0  0
  -21.4423   -7.0655   21.6879 O   0  0  0  0  0  0  0  0  0  0  0  0
  -33.8328  -21.6292   26.0967 O   0  0  0  0  0  0  0  0  0  1  0  0
  -23.6464   -3.0878   24.8061 F   0  0  0  0  0  0  0  0  0  0  0  0
  -23.7865   -5.8083   20.9351 F   0  0  0  0  0  0  0  0  0  0  0  0
  1  2  1  0  0  0  0
  1  5  2  0  0  0  0
  2  6  2  0  0  0  0
  3  8  2  0  0  0  0
  3 16  1  0  0  0  0
  4  9  1  0  0  0  0
  4 16  2  0  0  0  0
  5 18  1  0  0  0  0
  6 20  1  0  0  0  0
  7 10  2  0  0  0  0
  7 19  1  0  0  0  0
  8 24  1  0  0  0  0
  9 24  2  0  0  0  0
 10 25  1  0  0  0  0
 11 12  2  0  0  0  0
 11 26  1  0  0  0  0
 12 27  1  0  0  0  0
 13 21  2  0  0  0  0
 13 23  1  0  0  0  0
 14 22  1  0  0  0  0
 14 25  2  0  0  0  0
 15 27  2  0  0  0  0
 15 28  1  0  0  0  0
 16 29  1  0  0  0  0
 17 29  1  0  0  0  0
 17 32  2  0  0  0  0
 17 33  1  0  0  0  0
 18 20  2  0  0  0  0
 18 38  1  0  0  0  0
 19 22  2  0  0  0  0
 19 39  1  0  0  0  0
 20 52  1  0  0  0  0
 21 30  1  0  0  0  0
 21 51  1  0  0  0  0
 22 40  1  0  0  0  0
 23 31  2  0  0  0  0
 23 63  1  0  0  0  0
 24 85  1  0  0  0  0
 25 86  1  0  0  0  0
 26 28  2  0  0  0  0
 26 85  1  0  0  0  0
 27 87  1  0  0  0  0
 28 88  1  0  0  0  0
 29 68  2  0  0  0  0
 30 64  1  0  0  0  0
 30 69  2  0  0  0  0
 31 57  1  0  0  0  0
 31 69  1  0  0  0  0
 32 70  1  0  0  0  0
 32 74  1  0  0  0  0
 33 75  1  0  0  0  0
 33 79  2  0  0  0  0
 34 53  1  0  0  0  0
 34 76  1  0  0  0  0
 34 80  2  0  0  0  0
 35 65  1  0  0  0  0
 35 71  1  0  0  0  0
 35 81  2  0  0  0  0
 36 66  1  0  0  0  0
 36 77  1  0  0  0  0
 36 82  2  0  0  0  0
 37 72  1  0  0  0  0
 37 73  1  0  0  0  0
 37 83  2  0  0  0  0
 38 41  1  0  0  0  0
 39 53  1  0  0  0  0
 40 71  1  0  0  0  0
 41 45  1  0  0  0  0
 42 46  1  0  0  0  0
 42 48  1  0  0  0  0
 43 44  1  0  0  0  0
 43 51  1  0  0  0  0
 44 51  1  0  0  0  0
 45 52  1  0  0  0  0
 46 54  1  0  0  0  0
 47 55  1  0  0  0  0
 47 56  1  0  0  0  0
 48 72  1  0  0  0  0
 49 54  1  0  0  0  0
 49 72  1  0  0  0  0
 50 55  1  0  0  0  0
 50 73  1  0  0  0  0
 52 76  1  0  0  0  0
 53 71  1  0  0  0  0
 54 70  1  0  0  0  0
 55 84  1  0  0  0  0
 56 64  1  0  0  0  0
 56 73  1  0  0  0  0
 58 66  1  0  0  0  0
 59 67  1  0  0  0  0
 60 67  1  0  0  0  0
 61 67  1  0  0  0  0
 62 78  1  0  0  0  0
 63 86  1  0  0  0  0
 65 67  1  0  0  0  0
 65 77  1  0  0  0  0
 66 78  1  0  0  0  0
 68 70  1  0  0  0  0
M  CHG  1  78   1
M  ISO  4  37 100  63 101  73 100  86 101
M  END
> <Batch ID>
0176

> <Smiles>
CNC(C)C(=O)NC(C(=O)N1Cc2cc([101O:1][101CH2:1]c3cc(C4CC4)c(CC4CC(O)C[100N:0]4[100C:0](=O)N4CCCC(n5nc(-c6ccc(Oc7ccc(F)cc7F)cc6)c(C(N)=O)c5N)C4)nc3C)ccc2CC1C(=O)NC1CCCc2ccccc21)C(C)(C)C

> <Shape>
0.180

> <Color>
0.191

> <Negative vol penalty>
0.000

$$$$

  -OEChem-04052322503D

 83 92  0     1  0  0  0  0  0999 V2000
  -21.7516  -23.5453    8.2442 C   0  0  0  0  0  0  0  0  0  0  0  0
  -22.9710  -23.2243    8.8319 C   0  0  0  0  0  0  0  0  0  0  0  0
  -22.6273  -10.3418   20.2597 C   0  0  0  0  0  0  0  0  0  0  0  0
  -24.2461   -9.5677   21.8776 C   0  0  0  0  0  0  0  0  0  0  0  0
  -20.5875  -23.5441    9.0115 C   0  0  0  0  0  0  0  0  0  0  0  0
  -23.0272  -22.9031   10.1877 C   0  0  0  0  0  0  0  0  0  0  0  0
  -26.6159  -18.7592   14.7991 C   0  0  0  0  0  0  0  0  0  0  0  0
  -29.7409  -20.2488   21.6982 C   0  0  0  0  0  0  0  0  0  0  0  0
  -21.8483   -9.2095   20.4974 C   0  0  0  0  0  0  0  0  0  0  0  0
  -23.4670   -8.4354   22.1154 C   0  0  0  0  0  0  0  0  0  0  0  0
  -27.3152  -18.8419   16.0024 C   0  0  0  0  0  0  0  0  0  0  0  0
  -19.6607   -8.1386   22.8428 C   0  0  0  0  0  0  0  0  0  0  0  0
  -18.2868   -8.3188   23.0019 C   0  0  0  0  0  0  0  0  0  0  0  0
  -29.2050  -20.2366   20.4175 C   0  0  0  0  0  0  0  0  0  0  0  0
  -25.2283  -18.7952   17.2114 C   0  0  0  0  0  0  0  0  0  0  0  0
  -17.8785   -6.8817   21.1031 C   0  0  0  0  0  0  0  0  0  0  0  0
  -23.8263  -10.5209   20.9497 C   0  0  0  0  0  0  0  0  0  0  0  0
  -24.2562  -13.0346   20.8856 C   0  0  0  0  0  0  0  0  0  0  0  0
  -20.6280  -23.2133   10.3752 C   0  0  0  0  0  0  0  0  0  0  0  0
  -25.2147  -18.7047   14.7924 C   0  0  0  0  0  0  0  0  0  0  0  0
  -21.8627  -22.8988   10.9742 C   0  0  0  0  0  0  0  0  0  0  0  0
  -30.3383  -19.0981   22.2295 C   0  0  0  0  0  0  0  0  0  0  0  0
  -24.5137  -18.7093   16.0068 C   0  0  0  0  0  0  0  0  0  0  0  0
  -22.2681   -8.2563   21.4253 C   0  0  0  0  0  0  0  0  0  0  0  0
  -26.6213  -18.8629   17.2087 C   0  0  0  0  0  0  0  0  0  0  0  0
  -20.1436   -7.3300   21.8138 C   0  0  0  0  0  0  0  0  0  0  0  0
  -17.3956   -7.6904   22.1320 C   0  0  0  0  0  0  0  0  0  0  0  0
  -19.2525   -6.7016   20.9440 C   0  0  0  0  0  0  0  0  0  0  0  0
  -24.6318  -11.6901   20.7041 C   0  0  0  0  0  0  0  0  0  0  0  0
  -30.3639  -17.9502   21.4274 C   0  0  0  0  0  0  0  0  0  0  0  0
  -29.2873  -19.0608   19.6987 C   0  0  0  0  0  0  0  0  0  0  0  0
  -25.3662  -13.7541   20.5158 C   0  0  0  0  0  0  0  0  0  0  0  0
  -23.0150  -13.5840   21.3474 C   0  0  0  0  0  0  0  0  0  0  0  0
  -22.9036  -20.5536   13.6332 C   0  0  0  0  0  0  0  0  0  0  0  0
  -20.9969  -18.1230   14.6224 C   0  0  0  0  0  0  0  0  0  0  0  0
  -20.5491  -15.4540   16.7015 C   0  0  0  0  0  0  0  0  0  0  0  0
  -30.8860  -14.5726   20.6003 C   0  0  0  0  0  0  0  0  0  0  0  0
  -19.3504  -23.2717   11.1745 C   0  0  0  0  0  0  0  0  0  0  0  0
  -24.4764  -18.5888   13.4871 C   0  0  0  0  0  0  0  0  0  0  0  0
  -23.0103  -18.6326   16.0548 C   0  0  0  0  0  0  0  0  0  0  0  0
  -19.4401  -22.5550   12.5194 C   0  0  0  0  0  0  0  0  0  0  0  0
  -29.6092  -12.2932   18.1814 C   0  0  0  0  0  0  0  0  0  0  0  0
  -20.7262  -22.9390   13.2442 C   0  0  0  0  0  0  0  0  0  0  0  0
  -31.8755  -17.9666   23.8888 C   0  0  0  0  0  0  0  0  0  0  0  0
  -31.3064  -16.6374   23.3999 C   0  0  0  0  0  0  0  0  0  0  0  0
  -28.1723  -12.0394   18.6406 C   0  0  0  0  0  0  0  0  0  0  0  0
  -30.5607  -12.4498   19.3655 C   0  0  0  0  0  0  0  0  0  0  0  0
  -28.7186  -13.2114   20.8147 C   0  0  0  0  0  0  0  0  0  0  0  0
  -21.9607  -22.5207   12.4363 C   0  0  1  0  0  0  0  0  0  0  0  0
  -30.9035  -19.1200   23.6259 C   0  0  2  0  0  0  0  0  0  0  0  0
  -31.0575  -16.6863   21.8893 C   0  0  1  0  0  0  0  0  0  0  0  0
  -23.0273  -19.0573   13.5766 C   0  0  1  0  0  0  0  0  0  0  0  0
  -27.7123  -13.1024   19.6564 C   0  0  2  0  0  0  0  0  0  0  0  0
  -18.8734  -13.6859   17.3043 C   0  0  0  0  0  0  0  0  0  0  0  0
  -19.3737  -20.1922   16.1695 C   0  0  0  0  0  0  0  0  0  0  0  0
  -18.3476  -18.3139   17.4684 C   0  0  0  0  0  0  0  0  0  0  0  0
  -18.0061  -18.4545   15.0013 C   0  0  0  0  0  0  0  0  0  0  0  0
  -22.3903  -13.2756   15.9118 C   0  0  0  0  0  0  0  0  0  0  0  0
  -28.7250  -19.0049   18.3087 C   0  0  0  0  0  0  0  0  0  1  0  0
  -20.2716  -17.7863   15.9029 C   0  0  1  0  0  0  0  0  0  0  0  0
  -20.0700  -14.0384   16.4346 C   0  0  2  0  0  0  0  0  0  0  0  0
  -19.0280  -18.6902   16.1349 C   0  0  0  0  0  0  0  0  0  0  0  0
  -25.8826  -11.5604   20.2538 N   0  0  0  0  0  0  0  0  0  0  0  0
  -29.8562  -17.9286   20.1664 N   0  0  0  0  0  0  0  0  0  0  0  0
  -26.3025  -12.8327   20.1491 N   0  0  0  0  0  0  0  0  0  0  0  0
  -22.3333  -18.5267   14.7517 N   0  0  0  0  0  0  0  0  0  0  0  0
  -30.0679  -13.4737   20.2900 N   0  0  0  0  0  0  0  0  0  0  0  0
  -25.6228  -15.0787   20.4716 N   0  0  0  0  0  0  0  0  0  0  0  0
  -22.8499  -13.7989   22.7225 N   0  0  0  0  0  0  0  0  0  0  0  0
  -22.1995  -21.1003   12.5773 N   0  0  0  0  0  0  0  0  0  0  0  0
  -19.9702  -16.3603   15.8385 N   0  0  0  0  0  0  0  0  0  0  0  0
  -30.3400  -15.4997   21.4795 N   0  0  0  0  0  0  0  0  0  0  0  0
  -21.1595  -13.0612   16.7157 N   0  3  0  0  0  0  0  0  0  0  0  0
  -22.0739  -13.8605   20.5655 O   0  0  0  0  0  0  0  0  0  0  0  0
  -23.4082  -21.1668   14.5665 O   0  0  0  0  0  0  0  0  0  0  0  0
  -20.4017  -18.0243   13.5464 O   0  0  0  0  0  0  0  0  0  0  0  0
  -21.3532  -15.7288   17.5894 O   0  0  0  0  0  0  0  0  0  0  0  0
  -32.0170  -14.7194   20.1245 O   0  0  0  0  0  0  0  0  0  0  0  0
  -21.5080   -7.1514   21.6577 O   0  0  0  0  0  0  0  0  0  0  0  0
  -27.3013  -18.9442   18.3846 O   0  0  0  0  0  0  0  0  0  1  0  0
  -16.0762   -7.8623   22.2859 F   0  0  0  0  0  0  0  0  0  0  0  0
  -19.7104   -5.9226   19.9544 F   0  0  0  0  0  0  0  0  0  0  0  0
  -29.5504  -19.0678   24.8034 Cl  0  0  0  0  0  0  0  0  0  0  0  0
  1  2  1  0  0  0  0
  1  5  2  0  0  0  0
  2  6  2  0  0  0  0
  3  9  2  0  0  0  0
  3 17  1  0  0  0  0
  4 10  1  0  0  0  0
  4 17  2  0  0  0  0
  5 19  1  0  0  0  0
  6 21  1  0  0  0  0
  7 11  2  0  0  0  0
  7 20  1  0  0  0  0
  8 14  2  0  0  0  0
  8 22  1  0  0  0  0
  9 24  1  0  0  0  0
 10 24  2  0  0  0  0
 11 25  1  0  0  0  0
 12 13  2  0  0  0  0
 12 26  1  0  0  0  0
 13 27  1  0  0  0  0
 14 31  1  0  0  0  0
 15 23  1  0  0  0  0
 15 25  2  0  0  0  0
 16 27  2  0  0  0  0
 16 28  1  0  0  0  0
 17 29  1  0  0  0  0
 18 29  1  0  0  0  0
 18 32  2  0  0  0  0
 18 33  1  0  0  0  0
 19 21  2  0  0  0  0
 19 38  1  0  0  0  0
 20 23  2  0  0  0  0
 20 39  1  0  0  0  0
 21 49  1  0  0  0  0
 22 30  2  0  0  0  0
 22 50  1  0  0  0  0
 23 40  1  0  0  0  0
 24 79  1  0  0  0  0
 25 80  1  0  0  0  0
 26 28  2  0  0  0  0
 26 79  1  0  0  0  0
 27 81  1  0  0  0  0
 28 82  1  0  0  0  0
 29 63  2  0  0  0  0
 30 51  1  0  0  0  0
 30 64  1  0  0  0  0
 31 59  1  0  0  0  0
 31 64  2  0  0  0  0
 32 65  1  0  0  0  0
 32 68  1  0  0  0  0
 33 69  1  0  0  0  0
 33 74  2  0  0  0  0
 34 52  1  0  0  0  0
 34 70  1  0  0  0  0
 34 75  2  0  0  0  0
 35 60  1  0  0  0  0
 35 66  1  0  0  0  0
 35 76  2  0  0  0  0
 36 61  1  0  0  0  0
 36 71  1  0  0  0  0
 36 77  2  0  0  0  0
 37 67  1  0  0  0  0
 37 72  1  0  0  0  0
 37 78  2  0  0  0  0
 38 41  1  0  0  0  0
 39 52  1  0  0  0  0
 40 66  1  0  0  0  0
 41 43  1  0  0  0  0
 42 46  1  0  0  0  0
 42 47  1  0  0  0  0
 43 49  1  0  0  0  0
 44 45  1  0  0  0  0
 44 50  1  0  0  0  0
 45 51  1  0  0  0  0
 46 53  1  0  0  0  0
 47 67  1  0  0  0  0
 48 53  1  0  0  0  0
 48 67  1  0  0  0  0
 49 70  1  0  0  0  0
 50 83  1  0  0  0  0
 51 72  1  0  0  0  0
 52 66  1  0  0  0  0
 53 65  1  0  0  0  0
 54 61  1  0  0  0  0
 55 62  1  0  0  0  0
 56 62  1  0  0  0  0
 57 62  1  0  0  0  0
 58 73  1  0  0  0  0
 59 80  1  0  0  0  0
 60 62  1  0  0  0  0
 60 71  1  0  0  0  0
 61 73  1  0  0  0  0
 63 65  1  0  0  0  0
M  CHG  1  73   1
M  ISO  4  37 100  59 101  72 100  80 101
M  END
> <Batch ID>
0176

> <Smiles>
CNC(C)C(=O)NC(C(=O)N1Cc2cc([101O:1][101CH2:1]c3ccc4c(n3)C([100NH:0][100C:0](=O)N3CCCC(n5nc(-c6ccc(Oc7ccc(F)cc7F)cc6)c(C(N)=O)c5N)C3)CCC4Cl)ccc2CC1C(=O)NC1CCCc2ccccc21)C(C)(C)C

> <Shape>
0.185

> <Color>
0.188

> <Negative vol penalty>
0.000

$$$$

  -OEChem-04052322503D

 79 87  0     1  0  0  0  0  0999 V2000
  -27.8289  -31.4405   20.0932 C   0  0  0  0  0  0  0  0  0  0  0  0
  -28.0089  -30.0611   20.1099 C   0  0  0  0  0  0  0  0  0  0  0  0
  -23.0957   -9.8792   19.9387 C   0  0  0  0  0  0  0  0  0  0  0  0
  -23.8665   -9.8887   22.2284 C   0  0  0  0  0  0  0  0  0  0  0  0
  -27.1722  -32.0437   19.0214 C   0  0  0  0  0  0  0  0  0  0  0  0
  -27.5313  -29.2840   19.0552 C   0  0  0  0  0  0  0  0  0  0  0  0
  -30.8910  -25.8212   17.5167 C   0  0  0  0  0  0  0  0  0  0  0  0
  -22.3685   -8.7154   20.1883 C   0  0  0  0  0  0  0  0  0  0  0  0
  -23.1393   -8.7249   22.4781 C   0  0  0  0  0  0  0  0  0  0  0  0
  -31.0222  -24.6718   18.2947 C   0  0  0  0  0  0  0  0  0  0  0  0
  -19.9250   -7.8821   23.0933 C   0  0  0  0  0  0  0  0  0  0  0  0
  -19.1743   -7.8282   24.2677 C   0  0  0  0  0  0  0  0  0  0  0  0
  -29.6247  -23.4675   16.7404 C   0  0  0  0  0  0  0  0  0  0  0  0
  -20.4450   -5.9051   24.9917 C   0  0  0  0  0  0  0  0  0  0  0  0
  -29.2979  -18.7527   20.8765 C   0  0  0  0  0  0  0  0  0  0  0  0
  -31.2847  -19.4405   19.2313 C   0  0  0  0  0  0  0  0  0  0  0  0
  -23.8448  -10.4659   20.9588 C   0  0  0  0  0  0  0  0  0  0  0  0
  -24.1523  -12.9957   20.8456 C   0  0  0  0  0  0  0  0  0  0  0  0
  -26.6949  -31.2747   17.9484 C   0  0  0  0  0  0  0  0  0  0  0  0
  -30.1154  -25.8053   16.3486 C   0  0  0  0  0  0  0  0  0  0  0  0
  -26.8664  -29.8773   17.9687 C   0  0  0  0  0  0  0  0  0  0  0  0
  -29.4873  -24.6174   15.9480 C   0  0  0  0  0  0  0  0  0  0  0  0
  -22.3903   -8.1383   21.4580 C   0  0  0  0  0  0  0  0  0  0  0  0
  -30.3867  -23.4954   17.9082 C   0  0  0  0  0  0  0  0  0  0  0  0
  -20.9357   -6.9474   22.8681 C   0  0  0  0  0  0  0  0  0  0  0  0
  -19.4343   -6.8397   25.2169 C   0  0  0  0  0  0  0  0  0  0  0  0
  -21.1957   -5.9590   23.8172 C   0  0  0  0  0  0  0  0  0  0  0  0
  -24.5967  -11.6677   20.7014 C   0  0  0  0  0  0  0  0  0  0  0  0
  -30.5125  -18.1043   20.9189 C   0  0  0  0  0  0  0  0  0  0  0  0
  -30.0698  -20.0884   19.1883 C   0  0  0  0  0  0  0  0  0  0  0  0
  -25.2326  -13.7609   20.4797 C   0  0  0  0  0  0  0  0  0  0  0  0
  -22.8771  -13.4931   21.2723 C   0  0  0  0  0  0  0  0  0  0  0  0
  -27.5043  -27.3305   15.3688 C   0  0  0  0  0  0  0  0  0  0  0  0
  -28.1379  -25.8106   12.5740 C   0  0  0  0  0  0  0  0  0  0  0  0
  -29.6215  -23.1858   10.9751 C   0  0  0  0  0  0  0  0  0  0  0  0
  -30.7031  -14.8525   20.6452 C   0  0  0  0  0  0  0  0  0  0  0  0
  -25.9495  -31.9664   16.8346 C   0  0  0  0  0  0  0  0  0  0  0  0
  -30.0056  -27.0466   15.5061 C   0  0  0  0  0  0  0  0  0  0  0  0
  -28.6598  -24.5425   14.6918 C   0  0  0  0  0  0  0  0  0  0  0  0
  -25.8045  -31.1132   15.5771 C   0  0  0  0  0  0  0  0  0  0  0  0
  -29.5859  -12.4609   18.2559 C   0  0  0  0  0  0  0  0  0  0  0  0
  -25.3519  -29.7021   15.9386 C   0  0  0  0  0  0  0  0  0  0  0  0
  -28.1546  -12.1466   18.6947 C   0  0  0  0  0  0  0  0  0  0  0  0
  -30.5058  -12.6900   19.4531 C   0  0  0  0  0  0  0  0  0  0  0  0
  -28.6012  -13.3910   20.8513 C   0  0  0  0  0  0  0  0  0  0  0  0
  -26.3845  -29.0032   16.8312 C   0  0  1  0  0  0  0  0  0  0  0  0
  -28.7711  -27.0531   14.6099 C   0  0  1  0  0  0  0  0  0  0  0  0
  -27.6238  -13.2073   19.6777 C   0  0  2  0  0  0  0  0  0  0  0  0
  -29.9341  -22.1920    8.6921 C   0  0  0  0  0  0  0  0  0  0  0  0
  -25.2773  -24.7516   12.6460 C   0  0  0  0  0  0  0  0  0  0  0  0
  -25.9344  -23.0593   10.9218 C   0  0  0  0  0  0  0  0  0  0  0  0
  -26.0587  -25.4931   10.3890 C   0  0  0  0  0  0  0  0  0  0  0  0
  -32.5624  -23.4838   11.1210 C   0  0  0  0  0  0  0  0  0  0  0  0
  -30.7463  -16.9996   21.8891 C   0  0  0  0  0  0  0  0  0  0  0  0
  -29.8344  -21.2021   18.2108 C   0  0  0  0  0  0  0  0  0  1  0  0
  -27.7541  -24.4820   11.9686 C   0  0  1  0  0  0  0  0  0  0  0  0
  -30.5087  -23.1271    9.7447 C   0  0  2  0  0  0  0  0  0  0  0  0
  -26.2700  -24.4481   11.5061 C   0  0  0  0  0  0  0  0  0  0  0  0
  -31.5278  -18.4368   20.0973 N   0  0  0  0  0  0  0  0  0  0  0  0
  -29.0546  -19.7562   20.0103 N   0  0  0  0  0  0  0  0  0  0  0  0
  -25.8607  -11.5902   20.2767 N   0  0  0  0  0  0  0  0  0  0  0  0
  -26.2198  -12.8791   20.1509 N   0  0  0  0  0  0  0  0  0  0  0  0
  -28.5775  -25.7842   13.9051 N   0  0  0  0  0  0  0  0  0  0  0  0
  -29.9459  -13.7081   20.3452 N   0  0  0  0  0  0  0  0  0  0  0  0
  -25.4249  -15.0953   20.4101 N   0  0  0  0  0  0  0  0  0  0  0  0
  -21.8791  -12.5694   21.6114 N   0  0  0  0  0  0  0  0  0  0  0  0
  -27.5038  -28.5380   16.0405 N   0  0  0  0  0  0  0  0  0  0  0  0
  -28.7178  -24.2248   10.9040 N   0  0  0  0  0  0  0  0  0  0  0  0
  -30.0957  -15.7704   21.4933 N   0  0  0  0  0  0  0  0  0  0  0  0
  -31.8700  -22.6433   10.1104 N   0  3  0  0  0  0  0  0  0  0  0  0
  -22.6247  -14.7203   21.3350 O   0  0  0  0  0  0  0  0  0  0  0  0
  -26.5941  -26.5103   15.3454 O   0  0  0  0  0  0  0  0  0  0  0  0
  -28.0577  -26.8331   11.8887 O   0  0  0  0  0  0  0  0  0  0  0  0
  -29.7178  -22.3874   11.9044 O   0  0  0  0  0  0  0  0  0  0  0  0
  -31.8344  -15.0446   20.1868 O   0  0  0  0  0  0  0  0  0  0  0  0
  -21.6806   -7.0028   21.7020 O   0  0  0  0  0  0  0  0  0  0  0  0
  -30.5126  -22.3722   18.6661 O   0  0  0  0  0  0  0  0  0  1  0  0
  -18.7144   -6.7890   26.3453 F   0  0  0  0  0  0  0  0  0  0  0  0
  -22.1661   -5.0590   23.6070 F   0  0  0  0  0  0  0  0  0  0  0  0
  1  2  1  0  0  0  0
  1  5  2  0  0  0  0
  2  6  2  0  0  0  0
  3  8  2  0  0  0  0
  3 17  1  0  0  0  0
  4  9  1  0  0  0  0
  4 17  2  0  0  0  0
  5 19  1  0  0  0  0
  6 21  1  0  0  0  0
  7 10  2  0  0  0  0
  7 20  1  0  0  0  0
  8 23  1  0  0  0  0
  9 23  2  0  0  0  0
 10 24  1  0  0  0  0
 11 12  2  0  0  0  0
 11 25  1  0  0  0  0
 12 26  1  0  0  0  0
 13 22  1  0  0  0  0
 13 24  2  0  0  0  0
 14 26  2  0  0  0  0
 14 27  1  0  0  0  0
 15 29  2  0  0  0  0
 15 60  1  0  0  0  0
 16 30  1  0  0  0  0
 16 59  2  0  0  0  0
 17 28  1  0  0  0  0
 18 28  1  0  0  0  0
 18 31  2  0  0  0  0
 18 32  1  0  0  0  0
 19 21  2  0  0  0  0
 19 37  1  0  0  0  0
 20 22  2  0  0  0  0
 20 38  1  0  0  0  0
 21 46  1  0  0  0  0
 22 39  1  0  0  0  0
 23 76  1  0  0  0  0
 24 77  1  0  0  0  0
 25 27  2  0  0  0  0
 25 76  1  0  0  0  0
 26 78  1  0  0  0  0
 27 79  1  0  0  0  0
 28 61  2  0  0  0  0
 29 54  1  0  0  0  0
 29 59  1  0  0  0  0
 30 55  1  0  0  0  0
 30 60  2  0  0  0  0
 31 62  1  0  0  0  0
 31 65  1  0  0  0  0
 32 66  1  0  0  0  0
 32 71  2  0  0  0  0
 33 47  1  0  0  0  0
 33 67  1  0  0  0  0
 33 72  2  0  0  0  0
 34 56  1  0  0  0  0
 34 63  1  0  0  0  0
 34 73  2  0  0  0  0
 35 57  1  0  0  0  0
 35 68  1  0  0  0  0
 35 74  2  0  0  0  0
 36 64  1  0  0  0  0
 36 69  1  0  0  0  0
 36 75  2  0  0  0  0
 37 40  1  0  0  0  0
 38 47  1  0  0  0  0
 39 63  1  0  0  0  0
 40 42  1  0  0  0  0
 41 43  1  0  0  0  0
 41 44  1  0  0  0  0
 42 46  1  0  0  0  0
 43 48  1  0  0  0  0
 44 64  1  0  0  0  0
 45 48  1  0  0  0  0
 45 64  1  0  0  0  0
 46 67  1  0  0  0  0
 47 63  1  0  0  0  0
 48 62  1  0  0  0  0
 49 57  1  0  0  0  0
 50 58  1  0  0  0  0
 51 58  1  0  0  0  0
 52 58  1  0  0  0  0
 53 70  1  0  0  0  0
 54 69  1  0  0  0  0
 55 77  1  0  0  0  0
 56 58  1  0  0  0  0
 56 68  1  0  0  0  0
 57 70  1  0  0  0  0
 61 62  1  0  0  0  0
M  CHG  1  70   1
M  ISO  4  36 100  55 101  69 100  77 101
M  END
> <Batch ID>
0176

> <Smiles>
CNC(C)C(=O)NC(C(=O)N1Cc2cc([101O:1][101CH2:1]c3cnc(C[100NH:0][100C:0](=O)N4CCCC(n5nc(-c6ccc(Oc7ccc(F)cc7F)cc6)c(C(N)=O)c5N)C4)cn3)ccc2CC1C(=O)NC1CCCc2ccccc21)C(C)(C)C

> <Shape>
0.233

> <Color>
0.211

> <Negative vol penalty>
0.000

$$$$

  -OEChem-04052322503D

 79 87  0     1  0  0  0  0  0999 V2000
  -34.1329  -24.1630   32.9130 C   0  0  0  0  0  0  0  0  0  0  0  0
  -33.7013  -23.5162   31.7593 C   0  0  0  0  0  0  0  0  0  0  0  0
  -22.9994   -9.8918   19.9819 C   0  0  0  0  0  0  0  0  0  0  0  0
  -23.7244   -9.9456   22.2859 C   0  0  0  0  0  0  0  0  0  0  0  0
  -34.1120  -25.5555   32.9793 C   0  0  0  0  0  0  0  0  0  0  0  0
  -33.2476  -24.2616   30.6717 C   0  0  0  0  0  0  0  0  0  0  0  0
  -35.1087  -22.5992   26.2652 C   0  0  0  0  0  0  0  0  0  0  0  0
  -30.2468  -18.9345   23.0719 C   0  0  0  0  0  0  0  0  0  0  0  0
  -22.2333   -8.7573   20.2494 C   0  0  0  0  0  0  0  0  0  0  0  0
  -22.9583   -8.8111   22.5535 C   0  0  0  0  0  0  0  0  0  0  0  0
  -34.5248  -21.4579   25.7174 C   0  0  0  0  0  0  0  0  0  0  0  0
  -21.4779   -5.7188   23.7601 C   0  0  0  0  0  0  0  0  0  0  0  0
  -22.0643   -4.7040   24.5165 C   0  0  0  0  0  0  0  0  0  0  0  0
  -29.7590  -17.6973   22.6660 C   0  0  0  0  0  0  0  0  0  0  0  0
  -33.2314  -22.8433   24.2250 C   0  0  0  0  0  0  0  0  0  0  0  0
  -23.7908   -4.4557   22.8448 C   0  0  0  0  0  0  0  0  0  0  0  0
  -23.7450  -10.4860   21.0001 C   0  0  0  0  0  0  0  0  0  0  0  0
  -24.1293  -13.0015   20.8214 C   0  0  0  0  0  0  0  0  0  0  0  0
  -33.6668  -26.3186   31.8884 C   0  0  0  0  0  0  0  0  0  0  0  0
  -34.7498  -23.8738   25.8038 C   0  0  0  0  0  0  0  0  0  0  0  0
  -33.2194  -25.6656   30.7240 C   0  0  0  0  0  0  0  0  0  0  0  0
  -33.8142  -23.9991   24.7669 C   0  0  0  0  0  0  0  0  0  0  0  0
  -31.5222  -19.3330   22.6873 C   0  0  0  0  0  0  0  0  0  0  0  0
  -22.2127   -8.2170   21.5352 C   0  0  0  0  0  0  0  0  0  0  0  0
  -33.5838  -21.5799   24.6992 C   0  0  0  0  0  0  0  0  0  0  0  0
  -22.0479   -6.1019   22.5460 C   0  0  0  0  0  0  0  0  0  0  0  0
  -23.2208   -4.0725   24.0588 C   0  0  0  0  0  0  0  0  0  0  0  0
  -23.2044   -5.4704   22.0884 C   0  0  0  0  0  0  0  0  0  0  0  0
  -24.5370  -11.6576   20.7243 C   0  0  0  0  0  0  0  0  0  0  0  0
  -32.2639  -18.4645   21.9028 C   0  0  0  0  0  0  0  0  0  0  0  0
  -30.5796  -16.9022   21.8823 C   0  0  0  0  0  0  0  0  0  0  0  0
  -25.2388  -13.7241   20.4563 C   0  0  0  0  0  0  0  0  0  0  0  0
  -22.8611  -13.5478   21.2073 C   0  0  0  0  0  0  0  0  0  0  0  0
  -33.4035  -26.4373   27.1152 C   0  0  0  0  0  0  0  0  0  0  0  0
  -34.0708  -27.7783   24.2380 C   0  0  0  0  0  0  0  0  0  0  0  0
  -34.6804  -27.3402   20.9088 C   0  0  0  0  0  0  0  0  0  0  0  0
  -30.7179  -14.6876   20.6895 C   0  0  0  0  0  0  0  0  0  0  0  0
  -33.6180  -27.8199   32.0244 C   0  0  0  0  0  0  0  0  0  0  0  0
  -35.4086  -25.0939   26.3867 C   0  0  0  0  0  0  0  0  0  0  0  0
  -33.4095  -25.3437   24.2221 C   0  0  0  0  0  0  0  0  0  0  0  0
  -33.4750  -28.5480   30.6904 C   0  0  0  0  0  0  0  0  0  0  0  0
  -29.6007  -12.2317   18.3662 C   0  0  0  0  0  0  0  0  0  0  0  0
  -32.3892  -27.8961   29.8401 C   0  0  0  0  0  0  0  0  0  0  0  0
  -28.1502  -11.9740   18.7806 C   0  0  0  0  0  0  0  0  0  0  0  0
  -30.5011  -12.4768   19.5758 C   0  0  0  0  0  0  0  0  0  0  0  0
  -28.5853  -13.2664   20.9083 C   0  0  0  0  0  0  0  0  0  0  0  0
  -32.7435  -26.4402   29.5142 C   0  0  1  0  0  0  0  0  0  0  0  0
  -34.5883  -26.3656   26.1940 C   0  0  1  0  0  0  0  0  0  0  0  0
  -27.6278  -13.0784   19.7203 C   0  0  2  0  0  0  0  0  0  0  0  0
  -33.6407  -18.8402   21.4614 C   0  0  0  0  0  0  0  0  0  0  0  0
  -35.1529  -28.6266   18.8067 C   0  0  0  0  0  0  0  0  0  0  0  0
  -31.1309  -28.5771   24.0689 C   0  0  0  0  0  0  0  0  0  0  0  0
  -31.4539  -28.9828   21.6196 C   0  0  0  0  0  0  0  0  0  0  0  0
  -32.7345  -30.3285   23.2845 C   0  0  0  0  0  0  0  0  0  0  0  0
  -37.3090  -26.0263   20.5575 C   0  0  0  0  0  0  0  0  0  0  0  0
  -32.0553  -20.6661   23.1229 C   0  0  0  0  0  0  0  0  0  1  0  0
  -33.3428  -27.9016   22.9213 C   0  0  1  0  0  0  0  0  0  0  0  0
  -35.7579  -27.9029   19.9995 C   0  0  2  0  0  0  0  0  0  0  0  0
  -32.1715  -28.9221   22.9850 C   0  0  0  0  0  0  0  0  0  0  0  0
  -25.8064  -11.5311   20.3283 N   0  0  0  0  0  0  0  0  0  0  0  0
  -31.8240  -17.2551   21.4889 N   0  0  0  0  0  0  0  0  0  0  0  0
  -26.2059  -12.8049   20.1733 N   0  0  0  0  0  0  0  0  0  0  0  0
  -34.0771  -26.5070   24.8291 N   0  0  0  0  0  0  0  0  0  0  0  0
  -29.9456  -13.5385   20.4179 N   0  0  0  0  0  0  0  0  0  0  0  0
  -25.4718  -15.0498   20.3528 N   0  0  0  0  0  0  0  0  0  0  0  0
  -21.8297  -12.6637   21.5517 N   0  0  0  0  0  0  0  0  0  0  0  0
  -30.0732  -15.6434   21.4740 N   0  0  0  0  0  0  0  0  0  0  0  0
  -33.7301  -26.3846   28.4569 N   0  0  0  0  0  0  0  0  0  0  0  0
  -34.3574  -28.2180   21.9219 N   0  0  0  0  0  0  0  0  0  0  0  0
  -36.6308  -26.8072   19.4911 N   0  3  0  0  0  0  0  0  0  0  0  0
  -22.6439  -14.7831   21.2297 O   0  0  0  0  0  0  0  0  0  0  0  0
  -32.2766  -26.5348   26.6438 O   0  0  0  0  0  0  0  0  0  0  0  0
  -34.6200  -28.7719   24.7206 O   0  0  0  0  0  0  0  0  0  0  0  0
  -34.1733  -26.2342   20.7355 O   0  0  0  0  0  0  0  0  0  0  0  0
  -31.8566  -14.8265   20.2354 O   0  0  0  0  0  0  0  0  0  0  0  0
  -21.4650   -7.1101   21.7967 O   0  0  0  0  0  0  0  0  0  0  0  0
  -33.0118  -20.4676   24.1631 O   0  0  0  0  0  0  0  0  0  1  0  0
  -23.7846   -3.0992   24.7860 F   0  0  0  0  0  0  0  0  0  0  0  0
  -23.7573   -5.8351   20.9234 F   0  0  0  0  0  0  0  0  0  0  0  0
  1  2  1  0  0  0  0
  1  5  2  0  0  0  0
  2  6  2  0  0  0  0
  3  9  2  0  0  0  0
  3 17  1  0  0  0  0
  4 10  1  0  0  0  0
  4 17  2  0  0  0  0
  5 19  1  0  0  0  0
  6 21  1  0  0  0  0
  7 11  2  0  0  0  0
  7 20  1  0  0  0  0
  8 14  2  0  0  0  0
  8 23  1  0  0  0  0
  9 24  1  0  0  0  0
 10 24  2  0  0  0  0
 11 25  1  0  0  0  0
 12 13  2  0  0  0  0
 12 26  1  0  0  0  0
 13 27  1  0  0  0  0
 14 31  1  0  0  0  0
 15 22  1  0  0  0  0
 15 25  2  0  0  0  0
 16 27  2  0  0  0  0
 16 28  1  0  0  0  0
 17 29  1  0  0  0  0
 18 29  1  0  0  0  0
 18 32  2  0  0  0  0
 18 33  1  0  0  0  0
 19 21  2  0  0  0  0
 19 38  1  0  0  0  0
 20 22  2  0  0  0  0
 20 39  1  0  0  0  0
 21 47  1  0  0  0  0
 22 40  1  0  0  0  0
 23 30  2  0  0  0  0
 23 56  1  0  0  0  0
 24 76  1  0  0  0  0
 25 77  1  0  0  0  0
 26 28  2  0  0  0  0
 26 76  1  0  0  0  0
 27 78  1  0  0  0  0
 28 79  1  0  0  0  0
 29 60  2  0  0  0  0
 30 50  1  0  0  0  0
 30 61  1  0  0  0  0
 31 61  2  0  0  0  0
 31 67  1  0  0  0  0
 32 62  1  0  0  0  0
 32 65  1  0  0  0  0
 33 66  1  0  0  0  0
 33 71  2  0  0  0  0
 34 48  1  0  0  0  0
 34 68  1  0  0  0  0
 34 72  2  0  0  0  0
 35 57  1  0  0  0  0
 35 63  1  0  0  0  0
 35 73  2  0  0  0  0
 36 58  1  0  0  0  0
 36 69  1  0  0  0  0
 36 74  2  0  0  0  0
 37 64  1  0  0  0  0
 37 67  1  0  0  0  0
 37 75  2  0  0  0  0
 38 41  1  0  0  0  0
 39 48  1  0  0  0  0
 40 63  1  0  0  0  0
 41 43  1  0  0  0  0
 42 44  1  0  0  0  0
 42 45  1  0  0  0  0
 43 47  1  0  0  0  0
 44 49  1  0  0  0  0
 45 64  1  0  0  0  0
 46 49  1  0  0  0  0
 46 64  1  0  0  0  0
 47 68  1  0  0  0  0
 48 63  1  0  0  0  0
 49 62  1  0  0  0  0
 51 58  1  0  0  0  0
 52 59  1  0  0  0  0
 53 59  1  0  0  0  0
 54 59  1  0  0  0  0
 55 70  1  0  0  0  0
 56 77  1  0  0  0  0
 57 59  1  0  0  0  0
 57 69  1  0  0  0  0
 58 70  1  0  0  0  0
 60 62  1  0  0  0  0
M  CHG  1  70   1
M  ISO  4  37 100  56 101  67 100  77 101
M  END
> <Batch ID>
0176

> <Smiles>
CNC(C)C(=O)NC(C(=O)N1Cc2cc([101O:1][101CH2:1]c3ccc([100NH:0][100C:0](=O)N4CCCC(n5nc(-c6ccc(Oc7ccc(F)cc7F)cc6)c(C(N)=O)c5N)C4)nc3C)ccc2CC1C(=O)NC1CCCc2ccccc21)C(C)(C)C

> <Shape>
0.177

> <Color>
0.202

> <Negative vol penalty>
0.000

$$$$

  -OEChem-04052322503D

 85 94  0     1  0  0  0  0  0999 V2000
  -26.7947  -35.3511   21.4212 C   0  0  0  0  0  0  0  0  0  0  0  0
  -27.6814  -34.3698   20.9896 C   0  0  0  0  0  0  0  0  0  0  0  0
  -23.0150   -9.8736   20.0124 C   0  0  0  0  0  0  0  0  0  0  0  0
  -23.6964  -10.0179   22.3258 C   0  0  0  0  0  0  0  0  0  0  0  0
  -25.8008  -35.0331   22.3457 C   0  0  0  0  0  0  0  0  0  0  0  0
  -27.5752  -33.0700   21.4833 C   0  0  0  0  0  0  0  0  0  0  0  0
  -28.5659  -26.2531   19.5172 C   0  0  0  0  0  0  0  0  0  0  0  0
  -22.2503   -8.7452   20.3080 C   0  0  0  0  0  0  0  0  0  0  0  0
  -22.9316   -8.8895   22.6214 C   0  0  0  0  0  0  0  0  0  0  0  0
  -29.2178  -25.0947   19.9377 C   0  0  0  0  0  0  0  0  0  0  0  0
  -23.2043   -5.5365   22.2833 C   0  0  0  0  0  0  0  0  0  0  0  0
  -23.7835   -4.5529   23.0848 C   0  0  0  0  0  0  0  0  0  0  0  0
  -27.4118  -24.6424   21.4716 C   0  0  0  0  0  0  0  0  0  0  0  0
  -22.0270   -4.8487   24.7171 C   0  0  0  0  0  0  0  0  0  0  0  0
  -23.7381  -10.5099   21.0213 C   0  0  0  0  0  0  0  0  0  0  0  0
  -24.1120  -13.0194   20.7555 C   0  0  0  0  0  0  0  0  0  0  0  0
  -25.6763  -33.7265   22.8437 C   0  0  0  0  0  0  0  0  0  0  0  0
  -27.3351  -26.6212   20.0794 C   0  0  0  0  0  0  0  0  0  0  0  0
  -26.5795  -32.7345   22.4164 C   0  0  0  0  0  0  0  0  0  0  0  0
  -26.7450  -25.8045   21.0546 C   0  0  0  0  0  0  0  0  0  0  0  0
  -29.4931  -21.2030   22.6747 C   0  0  0  0  0  0  0  0  0  0  0  0
  -22.2085   -8.2531   21.6125 C   0  0  0  0  0  0  0  0  0  0  0  0
  -28.6422  -24.2907   20.9171 C   0  0  0  0  0  0  0  0  0  0  0  0
  -22.0365   -6.1763   22.6987 C   0  0  0  0  0  0  0  0  0  0  0  0
  -23.1949   -4.2090   24.3018 C   0  0  0  0  0  0  0  0  0  0  0  0
  -21.4478   -5.8324   23.9156 C   0  0  0  0  0  0  0  0  0  0  0  0
  -24.5288  -11.6753   20.7164 C   0  0  0  0  0  0  0  0  0  0  0  0
  -29.1652  -19.8743   22.5582 C   0  0  0  0  0  0  0  0  0  0  0  0
  -30.8082  -21.1981   23.1771 C   0  0  0  0  0  0  0  0  0  0  0  0
  -25.2241  -13.7347   20.3842 C   0  0  0  0  0  0  0  0  0  0  0  0
  -22.8338  -13.5719   21.0971 C   0  0  0  0  0  0  0  0  0  0  0  0
  -26.2906  -29.1101   21.7582 C   0  0  0  0  0  0  0  0  0  0  0  0
  -23.4148  -27.6551   21.3909 C   0  0  0  0  0  0  0  0  0  0  0  0
  -21.6774  -24.7729   20.8244 C   0  0  0  0  0  0  0  0  0  0  0  0
  -30.7093  -14.7143   20.6985 C   0  0  0  0  0  0  0  0  0  0  0  0
  -24.6158  -33.4415   23.8774 C   0  0  0  0  0  0  0  0  0  0  0  0
  -26.6318  -27.8597   19.5958 C   0  0  0  0  0  0  0  0  0  0  0  0
  -25.4155  -26.1447   21.6753 C   0  0  0  0  0  0  0  0  0  0  0  0
  -24.3356  -31.9531   24.0683 C   0  0  0  0  0  0  0  0  0  0  0  0
  -29.6272  -12.1947   18.4276 C   0  0  0  0  0  0  0  0  0  0  0  0
  -25.6421  -31.1748   24.1869 C   0  0  0  0  0  0  0  0  0  0  0  0
  -28.1726  -11.9417   18.8279 C   0  0  0  0  0  0  0  0  0  0  0  0
  -31.6814  -17.0269   22.9780 C   0  0  0  0  0  0  0  0  0  0  0  0
  -30.5053  -12.4824   19.6434 C   0  0  0  0  0  0  0  0  0  0  0  0
  -28.5656  -13.3163   20.9147 C   0  0  0  0  0  0  0  0  0  0  0  0
  -26.4810  -31.3073   22.9100 C   0  0  1  0  0  0  0  0  0  0  0  0
  -25.6289  -28.4100   20.6051 C   0  0  1  0  0  0  0  0  0  0  0  0
  -27.6303  -13.0767   19.7172 C   0  0  2  0  0  0  0  0  0  0  0  0
  -30.3471  -17.7311   23.0246 C   0  0  2  0  0  0  0  0  0  0  0  0
  -30.7569  -16.9378   21.8000 C   0  0  2  0  0  0  0  0  0  0  0  0
  -27.5991  -19.5343   20.6126 C   0  0  0  0  0  0  0  0  0  0  0  0
  -26.6992  -19.5497   22.9674 C   0  0  0  0  0  0  0  0  0  0  0  0
  -19.3368  -23.8920   20.6174 C   0  0  0  0  0  0  0  0  0  0  0  0
  -23.0948  -27.8003   24.4218 C   0  0  0  0  0  0  0  0  0  0  0  0
  -21.2605  -26.1060   24.2394 C   0  0  0  0  0  0  0  0  0  0  0  0
  -21.0205  -28.3261   23.1274 C   0  0  0  0  0  0  0  0  0  0  0  0
  -32.8448  -22.4156   23.9489 C   0  0  0  0  0  0  0  0  0  0  0  0
  -22.1345  -23.8834   18.0389 C   0  0  0  0  0  0  0  0  0  0  0  0
  -28.6299  -22.3828   22.3369 C   0  0  0  0  0  0  0  0  0  1  0  0
  -27.9286  -19.2182   22.0900 C   0  0  0  0  0  0  0  0  0  0  0  0
  -22.6294  -26.6274   22.1693 C   0  0  1  0  0  0  0  0  0  0  0  0
  -20.5381  -24.4539   19.8732 C   0  0  2  0  0  0  0  0  0  0  0  0
  -22.0273  -27.2093   23.4794 C   0  0  0  0  0  0  0  0  0  0  0  0
  -25.8060  -11.5420   20.3491 N   0  0  0  0  0  0  0  0  0  0  0  0
  -31.2831  -19.9643   23.3669 N   0  0  0  0  0  0  0  0  0  0  0  0
  -30.2609  -19.1814   22.9818 N   0  0  0  0  0  0  0  0  0  0  0  0
  -26.2013  -12.8115   20.1539 N   0  0  0  0  0  0  0  0  0  0  0  0
  -24.7701  -27.3691   21.1736 N   0  0  0  0  0  0  0  0  0  0  0  0
  -29.9363  -13.5695   20.4437 N   0  0  0  0  0  0  0  0  0  0  0  0
  -25.4517  -15.0570   20.2354 N   0  0  0  0  0  0  0  0  0  0  0  0
  -21.8009  -12.6948   21.4552 N   0  0  0  0  0  0  0  0  0  0  0  0
  -31.4839  -22.3502   23.4275 N   0  0  0  0  0  0  0  0  0  0  0  0
  -25.9584  -30.4467   21.8705 N   0  0  0  0  0  0  0  0  0  0  0  0
  -21.6388  -26.0852   21.2457 N   0  0  0  0  0  0  0  0  0  0  0  0
  -30.0922  -15.6996   21.4595 N   0  0  0  0  0  0  0  0  0  0  0  0
  -20.9743  -23.4517   18.8602 N   0  3  0  0  0  0  0  0  0  0  0  0
  -22.6094  -14.8058   21.0691 O   0  0  0  0  0  0  0  0  0  0  0  0
  -27.0455  -28.4836   22.4926 O   0  0  0  0  0  0  0  0  0  0  0  0
  -22.8450  -28.6708   20.9842 O   0  0  0  0  0  0  0  0  0  0  0  0
  -22.5155  -23.9401   21.1629 O   0  0  0  0  0  0  0  0  0  0  0  0
  -31.8619  -14.8507   20.2745 O   0  0  0  0  0  0  0  0  0  0  0  0
  -21.4622   -7.1522   21.9014 O   0  0  0  0  0  0  0  0  0  0  0  0
  -29.2768  -23.1598   21.3299 O   0  0  0  0  0  0  0  0  0  1  0  0
  -23.7504   -3.2633   25.0707 F   0  0  0  0  0  0  0  0  0  0  0  0
  -20.3252   -6.4427   24.3194 F   0  0  0  0  0  0  0  0  0  0  0  0
  1  2  1  0  0  0  0
  1  5  2  0  0  0  0
  2  6  2  0  0  0  0
  3  8  2  0  0  0  0
  3 15  1  0  0  0  0
  4  9  1  0  0  0  0
  4 15  2  0  0  0  0
  5 17  1  0  0  0  0
  6 19  1  0  0  0  0
  7 10  2  0  0  0  0
  7 18  1  0  0  0  0
  8 22  1  0  0  0  0
  9 22  2  0  0  0  0
 10 23  1  0  0  0  0
 11 12  2  0  0  0  0
 11 24  1  0  0  0  0
 12 25  1  0  0  0  0
 13 20  1  0  0  0  0
 13 23  2  0  0  0  0
 14 25  2  0  0  0  0
 14 26  1  0  0  0  0
 15 27  1  0  0  0  0
 16 27  1  0  0  0  0
 16 30  2  0  0  0  0
 16 31  1  0  0  0  0
 17 19  2  0  0  0  0
 17 36  1  0  0  0  0
 18 20  2  0  0  0  0
 18 37  1  0  0  0  0
 19 46  1  0  0  0  0
 20 38  1  0  0  0  0
 21 28  2  0  0  0  0
 21 29  1  0  0  0  0
 21 59  1  0  0  0  0
 22 82  1  0  0  0  0
 23 83  1  0  0  0  0
 24 26  2  0  0  0  0
 24 82  1  0  0  0  0
 25 84  1  0  0  0  0
 26 85  1  0  0  0  0
 27 64  2  0  0  0  0
 28 60  1  0  0  0  0
 28 66  1  0  0  0  0
 29 65  2  0  0  0  0
 29 72  1  0  0  0  0
 30 67  1  0  0  0  0
 30 70  1  0  0  0  0
 31 71  1  0  0  0  0
 31 77  2  0  0  0  0
 32 47  1  0  0  0  0
 32 73  1  0  0  0  0
 32 78  2  0  0  0  0
 33 61  1  0  0  0  0
 33 68  1  0  0  0  0
 33 79  2  0  0  0  0
 34 62  1  0  0  0  0
 34 74  1  0  0  0  0
 34 80  2  0  0  0  0
 35 69  1  0  0  0  0
 35 75  1  0  0  0  0
 35 81  2  0  0  0  0
 36 39  1  0  0  0  0
 37 47  1  0  0  0  0
 38 68  1  0  0  0  0
 39 41  1  0  0  0  0
 40 42  1  0  0  0  0
 40 44  1  0  0  0  0
 41 46  1  0  0  0  0
 42 48  1  0  0  0  0
 43 49  1  0  0  0  0
 43 50  1  0  0  0  0
 44 69  1  0  0  0  0
 45 48  1  0  0  0  0
 45 69  1  0  0  0  0
 46 73  1  0  0  0  0
 47 68  1  0  0  0  0
 48 67  1  0  0  0  0
 49 50  1  0  0  0  0
 49 66  1  0  0  0  0
 50 75  1  0  0  0  0
 51 60  1  0  0  0  0
 52 60  1  0  0  0  0
 53 62  1  0  0  0  0
 54 63  1  0  0  0  0
 55 63  1  0  0  0  0
 56 63  1  0  0  0  0
 57 72  1  0  0  0  0
 58 76  1  0  0  0  0
 59 83  1  0  0  0  0
 61 63  1  0  0  0  0
 61 74  1  0  0  0  0
 62 76  1  0  0  0  0
 64 67  1  0  0  0  0
 65 66  1  0  0  0  0
M  CHG  1  76   1
M  ISO  4  35 100  59 101  75 100  83 101
M  END
> <Batch ID>
0176

> <Smiles>
CNc1nn(C2CC2[100NH:0][100C:0](=O)N2CCCC(n3nc(-c4ccc(Oc5ccc(F)cc5F)cc4)c(C(N)=O)c3N)C2)c(C(C)C)c1[101CH2:1][101O:1]c1ccc2c(c1)CN(C(=O)C(NC(=O)C(C)NC)C(C)(C)C)C(C(=O)NC1CCCc3ccccc31)C2

> <Shape>
0.329

> <Color>
0.196

> <Negative vol penalty>
0.000

$$$$

  -OEChem-04052322503D

 85 95  0     1  0  0  0  0  0999 V2000
  -17.7799  -27.0797   23.4092 C   0  0  0  0  0  0  0  0  0  0  0  0
  -18.4225  -26.9815   22.1792 C   0  0  0  0  0  0  0  0  0  0  0  0
  -26.3220  -12.5733   21.4779 C   0  0  0  0  0  0  0  0  0  0  0  0
  -26.0282  -13.2150   19.1673 C   0  0  0  0  0  0  0  0  0  0  0  0
  -18.0242  -28.1750   24.2366 C   0  0  0  0  0  0  0  0  0  0  0  0
  -19.3091  -27.9791   21.7754 C   0  0  0  0  0  0  0  0  0  0  0  0
  -27.7821  -21.3775   15.4551 C   0  0  0  0  0  0  0  0  0  0  0  0
  -23.5781  -26.1018   19.8015 C   0  0  0  0  0  0  0  0  0  0  0  0
  -28.2815  -20.5327   16.4495 C   0  0  0  0  0  0  0  0  0  0  0  0
  -25.1140  -11.8770   21.4382 C   0  0  0  0  0  0  0  0  0  0  0  0
  -24.8202  -12.5186   19.1275 C   0  0  0  0  0  0  0  0  0  0  0  0
  -23.5205  -25.6322   18.4901 C   0  0  0  0  0  0  0  0  0  0  0  0
  -23.9898   -8.9032   20.2869 C   0  0  0  0  0  0  0  0  0  0  0  0
  -23.9587   -7.6265   20.8479 C   0  0  0  0  0  0  0  0  0  0  0  0
  -28.2765  -22.3549   18.0700 C   0  0  0  0  0  0  0  0  0  0  0  0
  -24.5057  -27.6933   17.7152 C   0  0  0  0  0  0  0  0  0  0  0  0
  -22.2541   -8.3499   22.3997 C   0  0  0  0  0  0  0  0  0  0  0  0
  -26.7790  -13.2424   20.3425 C   0  0  0  0  0  0  0  0  0  0  0  0
  -29.3071  -13.4618   20.0810 C   0  0  0  0  0  0  0  0  0  0  0  0
  -18.9216  -29.1817   23.8469 C   0  0  0  0  0  0  0  0  0  0  0  0
  -24.0907  -27.3771   20.0791 C   0  0  0  0  0  0  0  0  0  0  0  0
  -27.5438  -22.6869   15.8027 C   0  0  0  0  0  0  0  0  0  0  0  0
  -19.5647  -29.0896   22.5978 C   0  0  0  0  0  0  0  0  0  0  0  0
  -27.7849  -23.1609   17.0703 C   0  0  0  0  0  0  0  0  0  0  0  0
  -24.5711  -28.1757   19.0313 C   0  0  0  0  0  0  0  0  0  0  0  0
  -28.5272  -21.0184   17.7486 C   0  0  0  0  0  0  0  0  0  0  0  0
  -24.3631  -11.8496   20.2630 C   0  0  0  0  0  0  0  0  0  0  0  0
  -23.9817  -26.4291   17.4464 C   0  0  0  0  0  0  0  0  0  0  0  0
  -23.1530   -9.9033   20.7823 C   0  0  0  0  0  0  0  0  0  0  0  0
  -23.0909   -7.3498   21.9042 C   0  0  0  0  0  0  0  0  0  0  0  0
  -22.2852   -9.6266   21.8387 C   0  0  0  0  0  0  0  0  0  0  0  0
  -28.0265  -13.9623   20.3831 C   0  0  0  0  0  0  0  0  0  0  0  0
  -30.1474  -14.5316   20.2704 C   0  0  0  0  0  0  0  0  0  0  0  0
  -29.7018  -12.1473   19.6663 C   0  0  0  0  0  0  0  0  0  0  0  0
  -22.9132  -30.0387   21.3571 C   0  0  0  0  0  0  0  0  0  0  0  0
  -25.9874  -31.0473   21.1233 C   0  0  0  0  0  0  0  0  0  0  0  0
  -29.0244  -30.7543   19.5944 C   0  0  0  0  0  0  0  0  0  0  0  0
  -29.3335  -20.4478   20.0660 C   0  0  0  0  0  0  0  0  0  0  0  0
  -19.1177  -30.3704   24.7543 C   0  0  0  0  0  0  0  0  0  0  0  0
  -24.1706  -27.8583   21.5019 C   0  0  0  0  0  0  0  0  0  0  0  0
  -27.3300  -24.5537   16.7443 C   0  0  0  0  0  0  0  0  0  0  0  0
  -25.1494  -29.5443   19.2783 C   0  0  0  0  0  0  0  0  0  0  0  0
  -20.3561  -31.1966   24.4168 C   0  0  0  0  0  0  0  0  0  0  0  0
  -30.5622  -18.5614   22.8245 C   0  0  0  0  0  0  0  0  0  0  0  0
  -20.4331  -31.4540   22.9153 C   0  0  0  0  0  0  0  0  0  0  0  0
  -30.1732  -17.1216   22.4811 C   0  0  0  0  0  0  0  0  0  0  0  0
  -29.4933  -19.5587   22.3810 C   0  0  0  0  0  0  0  0  0  0  0  0
  -28.7072  -18.0171   20.6275 C   0  0  0  0  0  0  0  0  0  0  0  0
  -25.4079  -23.0658   13.6642 C   0  0  0  0  0  0  0  0  0  0  0  0
  -23.9583  -25.0138   13.4312 C   0  0  0  0  0  0  0  0  0  0  0  0
  -27.0636  -24.0191   15.2893 C   0  0  2  0  0  0  0  0  0  0  0  0
  -20.5521  -30.1390   22.1355 C   0  0  1  0  0  0  0  0  0  0  0  0
  -24.2378  -29.3782   21.6158 C   0  0  1  0  0  0  0  0  0  0  0  0
  -25.6149  -24.0291   14.8251 C   0  0  1  0  0  0  0  0  0  0  0  0
  -25.2025  -25.3757   14.2293 C   0  0  2  0  0  0  0  0  0  0  0  0
  -29.7825  -16.9822   20.9966 C   0  0  2  0  0  0  0  0  0  0  0  0
  -31.3318  -31.7407   19.5918 C   0  0  0  0  0  0  0  0  0  0  0  0
  -24.9417  -33.4833   19.6125 C   0  0  0  0  0  0  0  0  0  0  0  0
  -27.2803  -33.9144   18.8292 C   0  0  0  0  0  0  0  0  0  0  0  0
  -26.7512  -33.9789   21.2662 C   0  0  0  0  0  0  0  0  0  0  0  0
  -30.2556  -28.1700   20.3459 C   0  0  0  0  0  0  0  0  0  0  0  0
  -24.9266  -26.4456   15.2640 C   0  0  0  0  0  0  0  0  0  1  0  0
  -26.8035  -31.7534   20.0677 C   0  0  1  0  0  0  0  0  0  0  0  0
  -30.4304  -30.6546   20.1580 C   0  0  2  0  0  0  0  0  0  0  0  0
  -26.4315  -33.2575   19.9387 C   0  0  0  0  0  0  0  0  0  0  0  0
  -28.0465  -15.2499   20.7376 N   0  0  0  0  0  0  0  0  0  0  0  0
  -29.3501  -15.5675   20.6595 N   0  0  0  0  0  0  0  0  0  0  0  0
  -25.2002  -29.9727   20.6859 N   0  0  0  0  0  0  0  0  0  0  0  0
  -29.1772  -19.3703   20.9634 N   0  0  0  0  0  0  0  0  0  0  0  0
  -31.4831  -14.6779   20.1404 N   0  0  0  0  0  0  0  0  0  0  0  0
  -28.7109  -11.1668   19.5208 N   0  0  0  0  0  0  0  0  0  0  0  0
  -29.0341  -20.1410   18.7390 N   0  0  0  0  0  0  0  0  0  0  0  0
  -21.9045  -29.6290   22.2081 N   0  0  0  0  0  0  0  0  0  0  0  0
  -28.2024  -31.5105   20.4030 N   0  0  0  0  0  0  0  0  0  0  0  0
  -24.2542  -23.6435   12.8970 N   0  3  0  0  0  0  0  0  0  0  0  0
  -31.0275  -29.3294   19.8291 N   0  3  0  0  0  0  0  0  0  0  0  0
  -30.8998  -11.8465   19.4475 O   0  0  0  0  0  0  0  0  0  0  0  0
  -22.8141  -30.8603   20.4533 O   0  0  0  0  0  0  0  0  0  0  0  0
  -26.0516  -31.4305   22.2941 O   0  0  0  0  0  0  0  0  0  0  0  0
  -28.6897  -30.2183   18.5402 O   0  0  0  0  0  0  0  0  0  0  0  0
  -29.7318  -21.5531   20.4422 O   0  0  0  0  0  0  0  0  0  0  0  0
  -23.1845  -11.1700   20.2238 O   0  0  0  0  0  0  0  0  0  0  0  0
  -23.9260  -25.9735   16.1653 O   0  0  0  0  0  0  0  0  0  1  0  0
  -23.0601   -6.1234   22.4418 F   0  0  0  0  0  0  0  0  0  0  0  0
  -21.4781  -10.5829   22.3181 F   0  0  0  0  0  0  0  0  0  0  0  0
  1  2  1  0  0  0  0
  1  5  2  0  0  0  0
  2  6  2  0  0  0  0
  3 10  2  0  0  0  0
  3 18  1  0  0  0  0
  4 11  1  0  0  0  0
  4 18  2  0  0  0  0
  5 20  1  0  0  0  0
  6 23  1  0  0  0  0
  7  9  2  0  0  0  0
  7 22  1  0  0  0  0
  8 12  2  0  0  0  0
  8 21  1  0  0  0  0
  9 26  1  0  0  0  0
 10 27  1  0  0  0  0
 11 27  2  0  0  0  0
 12 28  1  0  0  0  0
 13 14  2  0  0  0  0
 13 29  1  0  0  0  0
 14 30  1  0  0  0  0
 15 24  1  0  0  0  0
 15 26  2  0  0  0  0
 16 25  1  0  0  0  0
 16 28  2  0  0  0  0
 17 30  2  0  0  0  0
 17 31  1  0  0  0  0
 18 32  1  0  0  0  0
 19 32  1  0  0  0  0
 19 33  2  0  0  0  0
 19 34  1  0  0  0  0
 20 23  2  0  0  0  0
 20 39  1  0  0  0  0
 21 25  2  0  0  0  0
 21 40  1  0  0  0  0
 22 24  2  0  0  0  0
 22 51  1  0  0  0  0
 23 52  1  0  0  0  0
 24 41  1  0  0  0  0
 25 42  1  0  0  0  0
 26 72  1  0  0  0  0
 27 82  1  0  0  0  0
 28 83  1  0  0  0  0
 29 31  2  0  0  0  0
 29 82  1  0  0  0  0
 30 84  1  0  0  0  0
 31 85  1  0  0  0  0
 32 66  2  0  0  0  0
 33 67  1  0  0  0  0
 33 70  1  0  0  0  0
 34 71  1  0  0  0  0
 34 77  2  0  0  0  0
 35 53  1  0  0  0  0
 35 73  1  0  0  0  0
 35 78  2  0  0  0  0
 36 63  1  0  0  0  0
 36 68  1  0  0  0  0
 36 79  2  0  0  0  0
 37 64  1  0  0  0  0
 37 74  1  0  0  0  0
 37 80  2  0  0  0  0
 38 69  1  0  0  0  0
 38 72  1  0  0  0  0
 38 81  2  0  0  0  0
 39 43  1  0  0  0  0
 40 53  1  0  0  0  0
 41 51  1  0  0  0  0
 42 68  1  0  0  0  0
 43 45  1  0  0  0  0
 44 46  1  0  0  0  0
 44 47  1  0  0  0  0
 45 52  1  0  0  0  0
 46 56  1  0  0  0  0
 47 69  1  0  0  0  0
 48 56  1  0  0  0  0
 48 69  1  0  0  0  0
 49 54  1  0  0  0  0
 49 75  1  0  0  0  0
 50 55  1  0  0  0  0
 50 75  1  0  0  0  0
 51 54  1  0  0  0  0
 52 73  1  0  0  0  0
 53 68  1  0  0  0  0
 54 55  1  0  0  0  0
 55 62  1  0  0  0  0
 56 67  1  0  0  0  0
 57 64  1  0  0  0  0
 58 65  1  0  0  0  0
 59 65  1  0  0  0  0
 60 65  1  0  0  0  0
 61 76  1  0  0  0  0
 62 83  1  0  0  0  0
 63 65  1  0  0  0  0
 63 74  1  0  0  0  0
 64 76  1  0  0  0  0
 66 67  1  0  0  0  0
M  CHG  2  75   1  76   1
M  ISO  4  38 100  62 101  72 100  83 101
M  END
> <Batch ID>
0176

> <Smiles>
CNC(C)C(=O)NC(C(=O)N1Cc2cc([101O:1][101CH2:1]C3CNCC3C3Cc4cc([100NH:0][100C:0](=O)N5CCCC(n6nc(-c7ccc(Oc8ccc(F)cc8F)cc7)c(C(N)=O)c6N)C5)ccc43)ccc2CC1C(=O)NC1CCCc2ccccc21)C(C)(C)C

> <Shape>
0.280

> <Color>
0.074

> <Negative vol penalty>
0.000

$$$$

  -OEChem-04052322503D

 84 93  0     1  0  0  0  0  0999 V2000
  -25.5906  -38.5942   21.0557 C   0  0  0  0  0  0  0  0  0  0  0  0
  -25.9829  -37.6102   20.1538 C   0  0  0  0  0  0  0  0  0  0  0  0
  -23.4084  -10.1736   22.1181 C   0  0  0  0  0  0  0  0  0  0  0  0
  -24.4672   -8.8205   20.4196 C   0  0  0  0  0  0  0  0  0  0  0  0
  -25.5847  -38.3224   22.4231 C   0  0  0  0  0  0  0  0  0  0  0  0
  -26.3705  -36.3542   20.6190 C   0  0  0  0  0  0  0  0  0  0  0  0
  -26.2330  -29.4324   18.7788 C   0  0  0  0  0  0  0  0  0  0  0  0
  -22.2100   -9.4890   21.9166 C   0  0  0  0  0  0  0  0  0  0  0  0
  -23.2688   -8.1358   20.2181 C   0  0  0  0  0  0  0  0  0  0  0  0
  -27.0843  -28.3365   18.6445 C   0  0  0  0  0  0  0  0  0  0  0  0
  -20.5846   -5.7881   19.5097 C   0  0  0  0  0  0  0  0  0  0  0  0
  -20.6401   -4.3980   19.4089 C   0  0  0  0  0  0  0  0  0  0  0  0
  -26.9588  -27.9552   21.0232 C   0  0  0  0  0  0  0  0  0  0  0  0
  -21.5813   -4.2744   21.6306 C   0  0  0  0  0  0  0  0  0  0  0  0
  -28.5110  -24.1712   19.2752 C   0  0  0  0  0  0  0  0  0  0  0  0
  -24.5370   -9.8395   21.3696 C   0  0  0  0  0  0  0  0  0  0  0  0
  -26.8023  -10.2156   22.4807 C   0  0  0  0  0  0  0  0  0  0  0  0
  -25.9632  -37.0593   22.9047 C   0  0  0  0  0  0  0  0  0  0  0  0
  -25.7461  -29.8051   20.0399 C   0  0  0  0  0  0  0  0  0  0  0  0
  -26.3709  -36.0657   21.9943 C   0  0  0  0  0  0  0  0  0  0  0  0
  -26.0994  -29.0547   21.1704 C   0  0  0  0  0  0  0  0  0  0  0  0
  -22.1402   -8.4700   20.9666 C   0  0  0  0  0  0  0  0  0  0  0  0
  -27.4497  -27.5995   19.7672 C   0  0  0  0  0  0  0  0  0  0  0  0
  -21.0275   -6.4214   20.6710 C   0  0  0  0  0  0  0  0  0  0  0  0
  -21.1384   -3.6412   20.4693 C   0  0  0  0  0  0  0  0  0  0  0  0
  -21.5258   -5.6645   21.7314 C   0  0  0  0  0  0  0  0  0  0  0  0
  -25.7751  -10.5468   21.5769 C   0  0  0  0  0  0  0  0  0  0  0  0
  -25.8508  -24.0127   19.1147 C   0  0  0  0  0  0  0  0  0  0  0  0
  -26.6394  -22.8917   18.9761 C   0  0  0  0  0  0  0  0  0  0  0  0
  -27.7224  -25.2923   19.4136 C   0  0  0  0  0  0  0  0  0  1  0  0
  -27.7514  -11.1908   22.2942 C   0  0  0  0  0  0  0  0  0  0  0  0
  -26.8907   -9.1240   23.4061 C   0  0  0  0  0  0  0  0  0  0  0  0
  -26.0061  -32.3908   21.8703 C   0  0  0  0  0  0  0  0  0  0  0  0
  -23.8649  -30.8139   23.7279 C   0  0  0  0  0  0  0  0  0  0  0  0
  -22.4946  -27.8370   24.6804 C   0  0  0  0  0  0  0  0  0  0  0  0
  -27.5551  -16.6903   20.5263 C   0  0  0  0  0  0  0  0  0  0  0  0
  -25.9860  -36.8275   24.3948 C   0  0  0  0  0  0  0  0  0  0  0  0
  -24.8073  -30.9737   20.1642 C   0  0  0  0  0  0  0  0  0  0  0  0
  -25.5877  -29.4012   22.5439 C   0  0  0  0  0  0  0  0  0  0  0  0
  -26.0525  -35.3520   24.7807 C   0  0  0  0  0  0  0  0  0  0  0  0
  -29.4615  -14.1777   18.9784 C   0  0  0  0  0  0  0  0  0  0  0  0
  -27.1121  -34.6311   23.9535 C   0  0  0  0  0  0  0  0  0  0  0  0
  -28.8280  -12.9145   19.5606 C   0  0  0  0  0  0  0  0  0  0  0  0
  -28.4141  -15.2383   18.6345 C   0  0  0  0  0  0  0  0  0  0  0  0
  -27.6673  -18.0842   18.4123 C   0  0  0  0  0  0  0  0  0  0  0  0
  -28.2647  -19.0611   20.5979 C   0  0  0  0  0  0  0  0  0  0  0  0
  -26.8793  -14.3147   20.3406 C   0  0  0  0  0  0  0  0  0  0  0  0
  -26.6150  -19.1687   18.2045 C   0  0  0  0  0  0  0  0  0  0  0  0
  -27.2081  -20.1418   20.4357 C   0  0  0  0  0  0  0  0  0  0  0  0
  -26.7746  -34.6830   22.4586 C   0  0  1  0  0  0  0  0  0  0  0  0
  -24.7824  -31.5735   21.5667 C   0  0  1  0  0  0  0  0  0  0  0  0
  -27.9125  -13.2538   20.7503 C   0  0  1  0  0  0  0  0  0  0  0  0
  -24.3651  -23.9336   19.0266 C   0  0  0  0  0  0  0  0  0  0  0  0
  -20.7919  -26.8633   26.2458 C   0  0  0  0  0  0  0  0  0  0  0  0
  -25.7908  -31.2047   26.0620 C   0  0  0  0  0  0  0  0  0  0  0  0
  -24.5268  -29.4402   27.3098 C   0  0  0  0  0  0  0  0  0  0  0  0
  -23.3797  -31.5486   26.6302 C   0  0  0  0  0  0  0  0  0  0  0  0
  -20.9018  -26.7303   22.4449 C   0  0  0  0  0  0  0  0  0  0  0  0
  -26.0395  -21.5388   18.7299 C   0  0  0  0  0  0  0  0  0  0  0  0
  -23.9598  -29.8300   24.8689 C   0  0  1  0  0  0  0  0  0  0  0  0
  -21.0502  -27.4003   24.8466 C   0  0  2  0  0  0  0  0  0  0  0  0
  -24.4256  -30.5002   26.1922 C   0  0  0  0  0  0  0  0  0  0  0  0
  -27.9836  -22.9507   19.0541 N   0  0  0  0  0  0  0  0  0  0  0  0
  -26.0460  -11.6465   20.8689 N   0  0  0  0  0  0  0  0  0  0  0  0
  -26.3782  -25.2332   19.3359 N   0  0  0  0  0  0  0  0  0  0  0  0
  -27.2542  -12.0149   21.3279 N   0  0  0  0  0  0  0  0  0  0  0  0
  -24.6775  -30.5562   22.6148 N   0  0  0  0  0  0  0  0  0  0  0  0
  -27.5392  -15.4987   19.7862 N   0  0  0  0  0  0  0  0  0  0  0  0
  -27.9153  -17.8605   19.8417 N   0  0  0  0  0  0  0  0  0  0  0  0
  -28.9543  -11.4152   22.8643 N   0  0  0  0  0  0  0  0  0  0  0  0
  -25.8269   -8.2137   23.4692 N   0  0  0  0  0  0  0  0  0  0  0  0
  -25.7422  -33.7202   22.1398 N   0  0  0  0  0  0  0  0  0  0  0  0
  -22.6574  -29.1783   24.9554 N   0  0  0  0  0  0  0  0  0  0  0  0
  -27.0085  -20.4135   18.9629 N   0  3  0  0  0  0  0  0  0  0  0  0
  -20.7161  -26.3310   23.8637 N   0  3  0  0  0  0  0  0  0  0  0  0
  -27.8764   -8.9699   24.1665 O   0  0  0  0  0  0  0  0  0  0  0  0
  -27.1080  -31.8547   21.8621 O   0  0  0  0  0  0  0  0  0  0  0  0
  -23.0927  -31.7716   23.8179 O   0  0  0  0  0  0  0  0  0  0  0  0
  -23.3895  -27.0646   24.3442 O   0  0  0  0  0  0  0  0  0  0  0  0
  -27.2637  -16.7078   21.7289 O   0  0  0  0  0  0  0  0  0  0  0  0
  -20.9710   -7.8015   20.7699 O   0  0  0  0  0  0  0  0  0  0  0  0
  -28.2942  -26.5127   19.6370 O   0  0  0  0  0  0  0  0  0  1  0  0
  -21.1903   -2.3062   20.3729 F   0  0  0  0  0  0  0  0  0  0  0  0
  -21.9517   -6.2672   22.8500 F   0  0  0  0  0  0  0  0  0  0  0  0
  1  2  1  0  0  0  0
  1  5  2  0  0  0  0
  2  6  2  0  0  0  0
  3  8  2  0  0  0  0
  3 16  1  0  0  0  0
  4  9  1  0  0  0  0
  4 16  2  0  0  0  0
  5 18  1  0  0  0  0
  6 20  1  0  0  0  0
  7 10  2  0  0  0  0
  7 19  1  0  0  0  0
  8 22  1  0  0  0  0
  9 22  2  0  0  0  0
 10 23  1  0  0  0  0
 11 12  2  0  0  0  0
 11 24  1  0  0  0  0
 12 25  1  0  0  0  0
 13 21  1  0  0  0  0
 13 23  2  0  0  0  0
 14 25  2  0  0  0  0
 14 26  1  0  0  0  0
 15 30  1  0  0  0  0
 15 63  2  0  0  0  0
 16 27  1  0  0  0  0
 17 27  1  0  0  0  0
 17 31  2  0  0  0  0
 17 32  1  0  0  0  0
 18 20  2  0  0  0  0
 18 37  1  0  0  0  0
 19 21  2  0  0  0  0
 19 38  1  0  0  0  0
 20 50  1  0  0  0  0
 21 39  1  0  0  0  0
 22 81  1  0  0  0  0
 23 82  1  0  0  0  0
 24 26  2  0  0  0  0
 24 81  1  0  0  0  0
 25 83  1  0  0  0  0
 26 84  1  0  0  0  0
 27 64  2  0  0  0  0
 28 29  2  0  0  0  0
 28 53  1  0  0  0  0
 28 65  1  0  0  0  0
 29 59  1  0  0  0  0
 29 63  1  0  0  0  0
 30 65  2  0  0  0  0
 30 82  1  0  0  0  0
 31 66  1  0  0  0  0
 31 70  1  0  0  0  0
 32 71  1  0  0  0  0
 32 76  2  0  0  0  0
 33 51  1  0  0  0  0
 33 72  1  0  0  0  0
 33 77  2  0  0  0  0
 34 60  1  0  0  0  0
 34 67  1  0  0  0  0
 34 78  2  0  0  0  0
 35 61  1  0  0  0  0
 35 73  1  0  0  0  0
 35 79  2  0  0  0  0
 36 68  1  0  0  0  0
 36 69  1  0  0  0  0
 36 80  2  0  0  0  0
 37 40  1  0  0  0  0
 38 51  1  0  0  0  0
 39 67  1  0  0  0  0
 40 42  1  0  0  0  0
 41 43  1  0  0  0  0
 41 44  1  0  0  0  0
 42 50  1  0  0  0  0
 43 52  1  0  0  0  0
 44 68  1  0  0  0  0
 45 48  1  0  0  0  0
 45 69  1  0  0  0  0
 46 49  1  0  0  0  0
 46 69  1  0  0  0  0
 47 52  1  0  0  0  0
 47 68  1  0  0  0  0
 48 74  1  0  0  0  0
 49 74  1  0  0  0  0
 50 72  1  0  0  0  0
 51 67  1  0  0  0  0
 52 66  1  0  0  0  0
 54 61  1  0  0  0  0
 55 62  1  0  0  0  0
 56 62  1  0  0  0  0
 57 62  1  0  0  0  0
 58 75  1  0  0  0  0
 59 74  1  0  0  0  0
 60 62  1  0  0  0  0
 60 73  1  0  0  0  0
 61 75  1  0  0  0  0
 64 66  1  0  0  0  0
M  CHG  2  74   1  75   1
M  ISO  4  30 101  36 100  69 100  82 101
M  END
> <Batch ID>
0176

> <Smiles>
CNC(C)C(=O)NC(C(=O)N1Cc2cc([101O:1][101c:1]3cnc(CN4CC[100N:0]([100C:0](=O)N5CCCC(n6nc(-c7ccc(Oc8ccc(F)cc8F)cc7)c(C(N)=O)c6N)C5)CC4)c(C)n3)ccc2CC1C(=O)NC1CCCc2ccccc21)C(C)(C)C

> <Shape>
0.264

> <Color>
0.100

> <Negative vol penalty>
0.000

$$$$

  -OEChem-04052322503D

 85 94  0     1  0  0  0  0  0999 V2000
  -27.7113  -36.9858   24.5977 C   0  0  0  0  0  0  0  0  0  0  0  0
  -28.2562  -36.1597   23.6200 C   0  0  0  0  0  0  0  0  0  0  0  0
  -24.0279   -9.8025   21.0713 C   0  0  0  0  0  0  0  0  0  0  0  0
  -24.5444  -10.6578   23.2710 C   0  0  0  0  0  0  0  0  0  0  0  0
  -26.8973  -36.4444   25.5917 C   0  0  0  0  0  0  0  0  0  0  0  0
  -27.9882  -34.7914   23.6363 C   0  0  0  0  0  0  0  0  0  0  0  0
  -27.0704  -29.2292   19.2164 C   0  0  0  0  0  0  0  0  0  0  0  0
  -23.5703   -8.6142   21.6407 C   0  0  0  0  0  0  0  0  0  0  0  0
  -24.0867   -9.4696   23.8405 C   0  0  0  0  0  0  0  0  0  0  0  0
  -27.5389  -27.9334   19.0041 C   0  0  0  0  0  0  0  0  0  0  0  0
  -20.7858   -7.5163   23.2136 C   0  0  0  0  0  0  0  0  0  0  0  0
  -19.5818   -6.9931   22.7422 C   0  0  0  0  0  0  0  0  0  0  0  0
  -26.0545  -27.1214   20.7235 C   0  0  0  0  0  0  0  0  0  0  0  0
  -20.7234   -4.9733   22.0682 C   0  0  0  0  0  0  0  0  0  0  0  0
  -24.5150  -10.8243   21.8864 C   0  0  0  0  0  0  0  0  0  0  0  0
  -24.2352  -13.2093   21.0256 C   0  0  0  0  0  0  0  0  0  0  0  0
  -26.6113  -35.0702   25.6146 C   0  0  0  0  0  0  0  0  0  0  0  0
  -26.0966  -29.4829   20.1930 C   0  0  0  0  0  0  0  0  0  0  0  0
  -27.1707  -34.2308   24.6323 C   0  0  0  0  0  0  0  0  0  0  0  0
  -25.5734  -28.4209   20.9445 C   0  0  0  0  0  0  0  0  0  0  0  0
  -28.8349  -23.9812   18.4560 C   0  0  0  0  0  0  0  0  0  0  0  0
  -23.5997   -8.4478   23.0253 C   0  0  0  0  0  0  0  0  0  0  0  0
  -27.0332  -26.8797   19.7597 C   0  0  0  0  0  0  0  0  0  0  0  0
  -21.9587   -6.7680   23.1122 C   0  0  0  0  0  0  0  0  0  0  0  0
  -19.5506   -5.7215   22.1695 C   0  0  0  0  0  0  0  0  0  0  0  0
  -21.9274   -5.4965   22.5395 C   0  0  0  0  0  0  0  0  0  0  0  0
  -24.9883  -12.0517   21.2987 C   0  0  0  0  0  0  0  0  0  0  0  0
  -28.4557  -23.0643   17.4574 C   0  0  0  0  0  0  0  0  0  0  0  0
  -29.5966  -23.2430   19.3286 C   0  0  0  0  0  0  0  0  0  0  0  0
  -25.1386  -14.0845   20.4740 C   0  0  0  0  0  0  0  0  0  0  0  0
  -22.8434  -13.4701   21.2505 C   0  0  0  0  0  0  0  0  0  0  0  0
  -25.9891  -31.2132   22.8572 C   0  0  0  0  0  0  0  0  0  0  0  0
  -22.8617  -30.3528   22.8267 C   0  0  0  0  0  0  0  0  0  0  0  0
  -20.4756  -28.1396   21.7995 C   0  0  0  0  0  0  0  0  0  0  0  0
  -30.1609  -16.5178   20.4425 C   0  0  0  0  0  0  0  0  0  0  0  0
  -25.7644  -34.5235   26.7365 C   0  0  0  0  0  0  0  0  0  0  0  0
  -25.5822  -30.8824   20.3912 C   0  0  0  0  0  0  0  0  0  0  0  0
  -24.5123  -28.6373   21.9912 C   0  0  0  0  0  0  0  0  0  0  0  0
  -25.2251  -33.1215   26.4651 C   0  0  0  0  0  0  0  0  0  0  0  0
  -29.8734  -13.3437   18.8555 C   0  0  0  0  0  0  0  0  0  0  0  0
  -26.3323  -32.2176   25.9322 C   0  0  0  0  0  0  0  0  0  0  0  0
  -28.5182  -12.8179   19.3320 C   0  0  0  0  0  0  0  0  0  0  0  0
  -28.4837  -19.9017   21.0384 C   0  0  0  0  0  0  0  0  0  0  0  0
  -30.5913  -14.1283   19.9513 C   0  0  0  0  0  0  0  0  0  0  0  0
  -28.4469  -14.6959   21.0251 C   0  0  0  0  0  0  0  0  0  0  0  0
  -26.8831  -32.7454   24.6020 C   0  0  1  0  0  0  0  0  0  0  0  0
  -24.9609  -31.1013   21.7673 C   0  0  1  0  0  0  0  0  0  0  0  0
  -29.3024  -19.7450   19.7883 C   0  0  2  0  0  0  0  0  0  0  0  0
  -27.6604  -13.9456   19.9367 C   0  0  2  0  0  0  0  0  0  0  0  0
  -29.5797  -18.8691   20.9837 C   0  0  2  0  0  0  0  0  0  0  0  0
  -27.6265  -23.3175   16.2659 C   0  0  0  0  0  0  0  0  0  0  0  0
  -30.2855  -23.6182   20.5779 C   0  0  0  0  0  0  0  0  0  0  0  0
  -32.4640  -21.2827   18.0911 C   0  0  0  0  0  0  0  0  0  0  0  0
  -18.0140  -27.6800   21.9630 C   0  0  0  0  0  0  0  0  0  0  0  0
  -23.2442  -29.3315   25.6764 C   0  0  0  0  0  0  0  0  0  0  0  0
  -21.0993  -28.0628   25.4352 C   0  0  0  0  0  0  0  0  0  0  0  0
  -21.0971  -30.5528   25.2853 C   0  0  0  0  0  0  0  0  0  0  0  0
  -20.1202  -28.3697   18.8704 C   0  0  0  0  0  0  0  0  0  0  0  0
  -28.4867  -25.4377   18.5499 C   0  0  0  0  0  0  0  0  0  1  0  0
  -31.3970  -20.2591   18.4579 C   0  0  0  0  0  0  0  0  0  0  0  0
  -22.0653  -29.1974   23.3833 C   0  0  1  0  0  0  0  0  0  0  0  0
  -19.1162  -28.3499   21.1574 C   0  0  2  0  0  0  0  0  0  0  0  0
  -30.3028  -20.8318   19.3805 C   0  0  1  0  0  0  0  0  0  0  0  0
  -21.8978  -29.2820   24.9267 C   0  0  0  0  0  0  0  0  0  0  0  0
  -26.2714  -12.1770   20.9492 N   0  0  0  0  0  0  0  0  0  0  0  0
  -28.9369  -21.8374   17.6743 N   0  0  0  0  0  0  0  0  0  0  0  0
  -29.6265  -21.9782   18.8192 N   0  0  0  0  0  0  0  0  0  0  0  0
  -26.3314  -13.4236   20.4508 N   0  0  0  0  0  0  0  0  0  0  0  0
  -24.0462  -30.0245   22.1522 N   0  0  0  0  0  0  0  0  0  0  0  0
  -29.7242  -15.1833   20.4814 N   0  0  0  0  0  0  0  0  0  0  0  0
  -25.0211  -15.3473   20.0114 N   0  0  0  0  0  0  0  0  0  0  0  0
  -22.0590  -12.4613   21.8261 N   0  0  0  0  0  0  0  0  0  0  0  0
  -25.9784  -32.4266   23.5183 N   0  0  0  0  0  0  0  0  0  0  0  0
  -20.8066  -29.1765   22.6460 N   0  0  0  0  0  0  0  0  0  0  0  0
  -29.2756  -17.4557   20.9595 N   0  0  0  0  0  0  0  0  0  0  0  0
  -19.1013  -27.7837   19.7789 N   0  3  0  0  0  0  0  0  0  0  0  0
  -22.3075  -14.5595   20.9347 O   0  0  0  0  0  0  0  0  0  0  0  0
  -26.7359  -30.2682   23.0827 O   0  0  0  0  0  0  0  0  0  0  0  0
  -22.4444  -31.5037   22.9784 O   0  0  0  0  0  0  0  0  0  0  0  0
  -21.1724  -27.1522   21.5756 O   0  0  0  0  0  0  0  0  0  0  0  0
  -31.2562  -16.8495   19.9764 O   0  0  0  0  0  0  0  0  0  0  0  0
  -23.1531   -7.2885   23.5814 O   0  0  0  0  0  0  0  0  0  0  0  0
  -27.4893  -25.6140   19.5550 O   0  0  0  0  0  0  0  0  0  1  0  0
  -18.3940   -5.2186   21.7183 F   0  0  0  0  0  0  0  0  0  0  0  0
  -23.0507   -4.7725   22.4405 F   0  0  0  0  0  0  0  0  0  0  0  0
  1  2  1  0  0  0  0
  1  5  2  0  0  0  0
  2  6  2  0  0  0  0
  3  8  2  0  0  0  0
  3 15  1  0  0  0  0
  4  9  1  0  0  0  0
  4 15  2  0  0  0  0
  5 17  1  0  0  0  0
  6 19  1  0  0  0  0
  7 10  2  0  0  0  0
  7 18  1  0  0  0  0
  8 22  1  0  0  0  0
  9 22  2  0  0  0  0
 10 23  1  0  0  0  0
 11 12  2  0  0  0  0
 11 24  1  0  0  0  0
 12 25  1  0  0  0  0
 13 20  1  0  0  0  0
 13 23  2  0  0  0  0
 14 25  2  0  0  0  0
 14 26  1  0  0  0  0
 15 27  1  0  0  0  0
 16 27  1  0  0  0  0
 16 30  2  0  0  0  0
 16 31  1  0  0  0  0
 17 19  2  0  0  0  0
 17 36  1  0  0  0  0
 18 20  2  0  0  0  0
 18 37  1  0  0  0  0
 19 46  1  0  0  0  0
 20 38  1  0  0  0  0
 21 28  1  0  0  0  0
 21 29  2  0  0  0  0
 21 59  1  0  0  0  0
 22 82  1  0  0  0  0
 23 83  1  0  0  0  0
 24 26  2  0  0  0  0
 24 82  1  0  0  0  0
 25 84  1  0  0  0  0
 26 85  1  0  0  0  0
 27 65  2  0  0  0  0
 28 51  1  0  0  0  0
 28 66  2  0  0  0  0
 29 52  1  0  0  0  0
 29 67  1  0  0  0  0
 30 68  1  0  0  0  0
 30 71  1  0  0  0  0
 31 72  1  0  0  0  0
 31 77  2  0  0  0  0
 32 47  1  0  0  0  0
 32 73  1  0  0  0  0
 32 78  2  0  0  0  0
 33 61  1  0  0  0  0
 33 69  1  0  0  0  0
 33 79  2  0  0  0  0
 34 62  1  0  0  0  0
 34 74  1  0  0  0  0
 34 80  2  0  0  0  0
 35 70  1  0  0  0  0
 35 75  1  0  0  0  0
 35 81  2  0  0  0  0
 36 39  1  0  0  0  0
 37 47  1  0  0  0  0
 38 69  1  0  0  0  0
 39 41  1  0  0  0  0
 40 42  1  0  0  0  0
 40 44  1  0  0  0  0
 41 46  1  0  0  0  0
 42 49  1  0  0  0  0
 43 48  1  0  0  0  0
 43 50  1  0  0  0  0
 44 70  1  0  0  0  0
 45 49  1  0  0  0  0
 45 70  1  0  0  0  0
 46 73  1  0  0  0  0
 47 69  1  0  0  0  0
 48 50  1  0  0  0  0
 48 63  1  0  0  0  0
 49 68  1  0  0  0  0
 50 75  1  0  0  0  0
 53 60  1  0  0  0  0
 54 62  1  0  0  0  0
 55 64  1  0  0  0  0
 56 64  1  0  0  0  0
 57 64  1  0  0  0  0
 58 76  1  0  0  0  0
 59 83  1  0  0  0  0
 60 63  1  0  0  0  0
 61 64  1  0  0  0  0
 61 74  1  0  0  0  0
 62 76  1  0  0  0  0
 63 67  1  0  0  0  0
 65 68  1  0  0  0  0
 66 67  1  0  0  0  0
M  CHG  1  76   1
M  ISO  4  35 100  59 101  75 100  83 101
M  END
> <Batch ID>
0176

> <Smiles>
CCC(C1CC1[100NH:0][100C:0](=O)N1CCCC(n2nc(-c3ccc(Oc4ccc(F)cc4F)cc3)c(C(N)=O)c2N)C1)n1nc(C)c([101CH2:1][101O:1]c2ccc3c(c2)CN(C(=O)C(NC(=O)C(C)NC)C(C)(C)C)C(C(=O)NC2CCCc4ccccc42)C3)c1C

> <Shape>
0.386

> <Color>
0.158

> <Negative vol penalty>
0.000

$$$$

  -OEChem-04052322503D

 91102  0     1  0  0  0  0  0999 V2000
  -26.8635  -25.1514    8.7075 C   0  0  0  0  0  0  0  0  0  0  0  0
  -26.3638  -24.4548    9.8032 C   0  0  0  0  0  0  0  0  0  0  0  0
  -23.1929   -9.8147   19.9442 C   0  0  0  0  0  0  0  0  0  0  0  0
  -23.5294  -10.0377   22.3262 C   0  0  0  0  0  0  0  0  0  0  0  0
  -28.1370  -25.7161    8.7637 C   0  0  0  0  0  0  0  0  0  0  0  0
  -27.1379  -24.3215   10.9554 C   0  0  0  0  0  0  0  0  0  0  0  0
  -24.4904  -25.1851   15.1850 C   0  0  0  0  0  0  0  0  0  0  0  0
  -22.4166   -8.6762   20.1603 C   0  0  0  0  0  0  0  0  0  0  0  0
  -22.7531   -8.8991   22.5424 C   0  0  0  0  0  0  0  0  0  0  0  0
  -23.6575  -24.1616   15.6350 C   0  0  0  0  0  0  0  0  0  0  0  0
  -23.1403   -5.5460   22.3480 C   0  0  0  0  0  0  0  0  0  0  0  0
  -23.6175   -4.5987   23.2538 C   0  0  0  0  0  0  0  0  0  0  0  0
  -24.9793  -17.9318   17.5703 C   0  0  0  0  0  0  0  0  0  0  0  0
  -25.3284  -23.5212   17.2527 C   0  0  0  0  0  0  0  0  0  0  0  0
  -21.6377   -4.8950   24.6065 C   0  0  0  0  0  0  0  0  0  0  0  0
  -23.7493  -10.4955   21.0271 C   0  0  0  0  0  0  0  0  0  0  0  0
  -24.1063  -13.0053   20.7427 C   0  0  0  0  0  0  0  0  0  0  0  0
  -28.9233  -25.5980    9.9207 C   0  0  0  0  0  0  0  0  0  0  0  0
  -25.7552  -25.3778   15.7592 C   0  0  0  0  0  0  0  0  0  0  0  0
  -28.4237  -24.8841   11.0266 C   0  0  0  0  0  0  0  0  0  0  0  0
  -23.7652  -18.6250   17.6483 C   0  0  0  0  0  0  0  0  0  0  0  0
  -25.8117  -18.0929   16.4715 C   0  0  0  0  0  0  0  0  0  0  0  0
  -26.1744  -24.5495   16.8100 C   0  0  0  0  0  0  0  0  0  0  0  0
  -22.1967   -8.2184   21.4595 C   0  0  0  0  0  0  0  0  0  0  0  0
  -24.0776  -23.3277   16.6670 C   0  0  0  0  0  0  0  0  0  0  0  0
  -21.9118   -6.1679   22.5714 C   0  0  0  0  0  0  0  0  0  0  0  0
  -22.8662   -4.2732   24.3830 C   0  0  0  0  0  0  0  0  0  0  0  0
  -21.1605   -5.8423   23.7007 C   0  0  0  0  0  0  0  0  0  0  0  0
  -24.5518  -11.6713   20.8044 C   0  0  0  0  0  0  0  0  0  0  0  0
  -23.4393  -19.4964   16.6016 C   0  0  0  0  0  0  0  0  0  0  0  0
  -25.3999  -18.9575   15.4777 C   0  0  0  0  0  0  0  0  0  0  0  0
  -25.2456  -13.7375   20.5141 C   0  0  0  0  0  0  0  0  0  0  0  0
  -22.7811  -13.5352   20.8798 C   0  0  0  0  0  0  0  0  0  0  0  0
  -28.7457  -25.2655   14.6877 C   0  0  0  0  0  0  0  0  0  0  0  0
  -29.4408  -26.3455   17.6664 C   0  0  0  0  0  0  0  0  0  0  0  0
  -28.5136  -26.6163   20.9396 C   0  0  0  0  0  0  0  0  0  0  0  0
  -30.0368  -14.6169   18.0268 C   0  0  0  0  0  0  0  0  0  0  0  0
  -30.3126  -26.1849    9.9173 C   0  0  0  0  0  0  0  0  0  0  0  0
  -26.6308  -26.5032   15.2805 C   0  0  0  0  0  0  0  0  0  0  0  0
  -22.8995  -18.4515   18.8651 C   0  0  0  0  0  0  0  0  0  0  0  0
  -27.5147  -24.7274   17.4737 C   0  0  0  0  0  0  0  0  0  0  0  0
  -30.9205  -26.3192   11.3111 C   0  0  0  0  0  0  0  0  0  0  0  0
  -21.4662  -18.9223   18.6513 C   0  0  0  0  0  0  0  0  0  0  0  0
  -30.1179  -12.4160   20.6917 C   0  0  0  0  0  0  0  0  0  0  0  0
  -30.7152  -25.0355   12.1090 C   0  0  0  0  0  0  0  0  0  0  0  0
  -27.3593  -20.1860   14.3264 C   0  0  0  0  0  0  0  0  0  0  0  0
  -26.1374  -20.4550   13.5049 C   0  0  0  0  0  0  0  0  0  0  0  0
  -28.6423  -12.1256   20.9659 C   0  0  0  0  0  0  0  0  0  0  0  0
  -21.4598  -20.2956   17.9914 C   0  0  0  0  0  0  0  0  0  0  0  0
  -28.0805  -17.7196   17.5353 C   0  0  0  0  0  0  0  0  0  0  0  0
  -26.9041  -15.8098   16.3651 C   0  0  0  0  0  0  0  0  0  0  0  0
  -30.3967  -12.4617   19.1935 C   0  0  0  0  0  0  0  0  0  0  0  0
  -29.3852  -16.9298   17.4629 C   0  0  0  0  0  0  0  0  0  0  0  0
  -28.2346  -15.0643   16.3174 C   0  0  0  0  0  0  0  0  0  0  0  0
  -28.0754  -13.1681   18.7174 C   0  0  0  0  0  0  0  0  0  0  0  0
  -27.1226  -17.3328   16.3953 C   0  0  0  0  0  0  0  0  0  0  0  0
  -29.2233  -24.7392   12.3032 C   0  0  1  0  0  0  0  0  0  0  0  0
  -26.2556  -19.1648   14.2702 C   0  0  0  0  0  0  0  0  0  0  0  0
  -28.1084  -26.2839   15.5902 C   0  0  1  0  0  0  0  0  0  0  0  0
  -27.7360  -13.1212   20.2206 C   0  0  1  0  0  0  0  0  0  0  0  0
  -22.1267  -20.2775   16.5938 C   0  0  2  0  0  0  0  0  0  0  0  0
  -21.1815  -19.6284   15.5622 C   0  0  0  0  0  0  0  0  0  0  0  0
  -29.3052  -27.5198   23.1430 C   0  0  0  0  0  0  0  0  0  0  0  0
  -31.3802  -24.0045   17.9269 C   0  0  0  0  0  0  0  0  0  0  0  0
  -31.4091  -24.3940   20.3999 C   0  0  0  0  0  0  0  0  0  0  0  0
  -32.2276  -26.1688   18.8499 C   0  0  0  0  0  0  0  0  0  0  0  0
  -26.1957  -28.4438   21.1546 C   0  0  0  0  0  0  0  0  0  0  0  0
  -22.3750  -21.7419   16.1749 C   0  0  0  0  0  0  0  0  0  1  0  0
  -29.7481  -25.6964   18.9943 C   0  0  1  0  0  0  0  0  0  0  0  0
  -28.4960  -27.8026   21.8867 C   0  0  2  0  0  0  0  0  0  0  0  0
  -31.1667  -25.0611   19.0292 C   0  0  0  0  0  0  0  0  0  0  0  0
  -25.8711  -11.5596   20.6290 N   0  0  0  0  0  0  0  0  0  0  0  0
  -24.2432  -19.6539   15.5155 N   0  0  0  0  0  0  0  0  0  0  0  0
  -26.2645  -12.8328   20.4547 N   0  0  0  0  0  0  0  0  0  0  0  0
  -28.3374  -25.8378   16.9660 N   0  0  0  0  0  0  0  0  0  0  0  0
  -29.5120  -13.4132   18.5216 N   0  0  0  0  0  0  0  0  0  0  0  0
  -29.1346  -15.4905   17.3978 N   0  0  0  0  0  0  0  0  0  0  0  0
  -25.4653  -15.0605   20.3599 N   0  0  0  0  0  0  0  0  0  0  0  0
  -21.7255  -12.6430   21.1117 N   0  0  0  0  0  0  0  0  0  0  0  0
  -28.6724  -25.5803   13.3442 N   0  0  0  0  0  0  0  0  0  0  0  0
  -29.5267  -26.7201   20.0100 N   0  0  0  0  0  0  0  0  0  0  0  0
  -27.0976  -28.1223   22.2905 N   0  3  0  0  0  0  0  0  0  0  0  0
  -22.5380  -14.7620   20.7828 O   0  0  0  0  0  0  0  0  0  0  0  0
  -29.2667  -24.2688   15.1743 O   0  0  0  0  0  0  0  0  0  0  0  0
  -30.1492  -27.2738   17.2687 O   0  0  0  0  0  0  0  0  0  0  0  0
  -27.7115  -25.6886   21.0191 O   0  0  0  0  0  0  0  0  0  0  0  0
  -31.2359  -14.8987   18.1435 O   0  0  0  0  0  0  0  0  0  0  0  0
  -21.4391   -7.1076   21.6708 O   0  0  0  0  0  0  0  0  0  0  0  0
  -23.2580  -22.3166   17.1124 O   0  0  0  0  0  0  0  0  0  1  0  0
  -23.3238   -3.3623   25.2520 F   0  0  0  0  0  0  0  0  0  0  0  0
  -19.9791   -6.4355   23.9201 F   0  0  0  0  0  0  0  0  0  0  0  0
  1  2  1  0  0  0  0
  1  5  2  0  0  0  0
  2  6  2  0  0  0  0
  3  8  2  0  0  0  0
  3 16  1  0  0  0  0
  4  9  1  0  0  0  0
  4 16  2  0  0  0  0
  5 18  1  0  0  0  0
  6 20  1  0  0  0  0
  7 10  2  0  0  0  0
  7 19  1  0  0  0  0
  8 24  1  0  0  0  0
  9 24  2  0  0  0  0
 10 25  1  0  0  0  0
 11 12  2  0  0  0  0
 11 26  1  0  0  0  0
 12 27  1  0  0  0  0
 13 21  1  0  0  0  0
 13 22  2  0  0  0  0
 14 23  1  0  0  0  0
 14 25  2  0  0  0  0
 15 27  2  0  0  0  0
 15 28  1  0  0  0  0
 16 29  1  0  0  0  0
 17 29  1  0  0  0  0
 17 32  2  0  0  0  0
 17 33  1  0  0  0  0
 18 20  2  0  0  0  0
 18 38  1  0  0  0  0
 19 23  2  0  0  0  0
 19 39  1  0  0  0  0
 20 57  1  0  0  0  0
 21 30  2  0  0  0  0
 21 40  1  0  0  0  0
 22 31  1  0  0  0  0
 22 56  1  0  0  0  0
 23 41  1  0  0  0  0
 24 88  1  0  0  0  0
 25 89  1  0  0  0  0
 26 28  2  0  0  0  0
 26 88  1  0  0  0  0
 27 90  1  0  0  0  0
 28 91  1  0  0  0  0
 29 72  2  0  0  0  0
 30 61  1  0  0  0  0
 30 73  1  0  0  0  0
 31 58  1  0  0  0  0
 31 73  2  0  0  0  0
 32 74  1  0  0  0  0
 32 78  1  0  0  0  0
 33 79  1  0  0  0  0
 33 83  2  0  0  0  0
 34 59  1  0  0  0  0
 34 80  1  0  0  0  0
 34 84  2  0  0  0  0
 35 69  1  0  0  0  0
 35 75  1  0  0  0  0
 35 85  2  0  0  0  0
 36 70  1  0  0  0  0
 36 81  1  0  0  0  0
 36 86  2  0  0  0  0
 37 76  1  0  0  0  0
 37 77  1  0  0  0  0
 37 87  2  0  0  0  0
 38 42  1  0  0  0  0
 39 59  1  0  0  0  0
 40 43  1  0  0  0  0
 41 75  1  0  0  0  0
 42 45  1  0  0  0  0
 43 49  1  0  0  0  0
 44 48  1  0  0  0  0
 44 52  1  0  0  0  0
 45 57  1  0  0  0  0
 46 47  1  0  0  0  0
 46 58  1  0  0  0  0
 47 58  1  0  0  0  0
 48 60  1  0  0  0  0
 49 61  1  0  0  0  0
 50 53  1  0  0  0  0
 50 56  1  0  0  0  0
 51 54  1  0  0  0  0
 51 56  1  0  0  0  0
 52 76  1  0  0  0  0
 53 77  1  0  0  0  0
 54 77  1  0  0  0  0
 55 60  1  0  0  0  0
 55 76  1  0  0  0  0
 57 80  1  0  0  0  0
 59 75  1  0  0  0  0
 60 74  1  0  0  0  0
 61 62  1  0  0  0  0
 61 68  1  0  0  0  0
 63 70  1  0  0  0  0
 64 71  1  0  0  0  0
 65 71  1  0  0  0  0
 66 71  1  0  0  0  0
 67 82  1  0  0  0  0
 68 89  1  0  0  0  0
 69 71  1  0  0  0  0
 69 81  1  0  0  0  0
 70 82  1  0  0  0  0
 72 74  1  0  0  0  0
M  CHG  1  82   1
M  ISO  4  37 100  68 101  77 100  89 101
M  END
> <Batch ID>
0176

> <Smiles>
CNC(C)C(=O)NC(C(=O)N1Cc2cc([101O:1][101CH2:1]C3(C)CCCc4cc(C5CC[100N:0]([100C:0](=O)N6CCCC(n7nc(-c8ccc(Oc9ccc(F)cc9F)cc8)c(C(N)=O)c7N)C6)CC5)c(C5CC5)nc43)ccc2CC1C(=O)NC1CCCc2ccccc21)C(C)(C)C

> <Shape>
0.196

> <Color>
0.184

> <Negative vol penalty>
0.000

$$$$

  -OEChem-04052322503D

 83 92  0     1  0  0  0  0  0999 V2000
  -28.8840  -10.5888   33.2937 C   0  0  0  0  0  0  0  0  0  0  0  0
  -28.9310  -11.3904   32.1577 C   0  0  0  0  0  0  0  0  0  0  0  0
  -23.0742   -9.8687   19.9421 C   0  0  0  0  0  0  0  0  0  0  0  0
  -23.8386   -9.8749   22.2340 C   0  0  0  0  0  0  0  0  0  0  0  0
  -27.7748   -9.7770   33.5273 C   0  0  0  0  0  0  0  0  0  0  0  0
  -27.8692  -11.3798   31.2538 C   0  0  0  0  0  0  0  0  0  0  0  0
  -26.5360  -16.0339   29.7683 C   0  0  0  0  0  0  0  0  0  0  0  0
  -22.3316   -8.7150   20.1929 C   0  0  0  0  0  0  0  0  0  0  0  0
  -23.0959   -8.7212   22.4848 C   0  0  0  0  0  0  0  0  0  0  0  0
  -27.3376  -16.6499   28.8083 C   0  0  0  0  0  0  0  0  0  0  0  0
  -19.8694   -7.9211   23.0933 C   0  0  0  0  0  0  0  0  0  0  0  0
  -19.1148   -7.8801   24.2656 C   0  0  0  0  0  0  0  0  0  0  0  0
  -25.7436  -16.0490   27.1003 C   0  0  0  0  0  0  0  0  0  0  0  0
  -20.3589   -5.9430   24.9986 C   0  0  0  0  0  0  0  0  0  0  0  0
  -23.8278  -10.4487   20.9626 C   0  0  0  0  0  0  0  0  0  0  0  0
  -28.3963  -19.2639   24.2733 C   0  0  0  0  0  0  0  0  0  0  0  0
  -24.1679  -12.9741   20.8433 C   0  0  0  0  0  0  0  0  0  0  0  0
  -26.6946   -9.7637   32.6308 C   0  0  0  0  0  0  0  0  0  0  0  0
  -25.3354  -15.4103   29.3993 C   0  0  0  0  0  0  0  0  0  0  0  0
  -26.7451  -10.5660   31.4749 C   0  0  0  0  0  0  0  0  0  0  0  0
  -24.9272  -15.4280   28.0580 C   0  0  0  0  0  0  0  0  0  0  0  0
  -22.3424   -8.1412   21.4643 C   0  0  0  0  0  0  0  0  0  0  0  0
  -26.9429  -16.6550   27.4736 C   0  0  0  0  0  0  0  0  0  0  0  0
  -20.8687   -6.9730   22.8735 C   0  0  0  0  0  0  0  0  0  0  0  0
  -19.3596   -6.8910   25.2183 C   0  0  0  0  0  0  0  0  0  0  0  0
  -21.1135   -5.9840   23.8262 C   0  0  0  0  0  0  0  0  0  0  0  0
  -24.5957  -11.6402   20.7040 C   0  0  0  0  0  0  0  0  0  0  0  0
  -29.3449  -19.8142   23.4354 C   0  0  0  0  0  0  0  0  0  0  0  0
  -28.2634  -17.9049   24.3049 C   0  0  0  0  0  0  0  0  0  0  0  0
  -25.2589  -13.7244   20.4783 C   0  0  0  0  0  0  0  0  0  0  0  0
  -29.9437  -17.7636   22.7459 C   0  0  0  0  0  0  0  0  0  0  0  0
  -27.7068  -20.3386   24.9814 C   0  0  0  0  0  0  0  0  0  0  0  0
  -22.8979  -13.4889   21.2650 C   0  0  0  0  0  0  0  0  0  0  0  0
  -24.2176  -12.4378   29.5356 C   0  0  0  0  0  0  0  0  0  0  0  0
  -21.4784  -13.8358   28.5038 C   0  0  0  0  0  0  0  0  0  0  0  0
  -19.9889  -16.4446   26.8843 C   0  0  0  0  0  0  0  0  0  0  0  0
  -30.7424  -14.7467   20.6564 C   0  0  0  0  0  0  0  0  0  0  0  0
  -25.5380   -8.8343   32.9014 C   0  0  0  0  0  0  0  0  0  0  0  0
  -24.4689  -14.7734   30.4509 C   0  0  0  0  0  0  0  0  0  0  0  0
  -23.6374  -14.7902   27.6131 C   0  0  0  0  0  0  0  0  0  0  0  0
  -29.3305  -21.3062   23.5487 C   0  0  0  0  0  0  0  0  0  0  0  0
  -24.2895   -9.1624   32.0867 C   0  0  0  0  0  0  0  0  0  0  0  0
  -29.6015  -12.3628   18.2706 C   0  0  0  0  0  0  0  0  0  0  0  0
  -24.6538   -9.4039   30.6253 C   0  0  0  0  0  0  0  0  0  0  0  0
  -28.1651  -12.0680   18.7062 C   0  0  0  0  0  0  0  0  0  0  0  0
  -30.5209  -12.5835   19.4698 C   0  0  0  0  0  0  0  0  0  0  0  0
  -28.6214  -13.3127   20.8605 C   0  0  0  0  0  0  0  0  0  0  0  0
  -25.6021  -10.6007   30.4837 C   0  0  1  0  0  0  0  0  0  0  0  0
  -23.5194  -13.7213   29.8860 C   0  0  1  0  0  0  0  0  0  0  0  0
  -27.6450  -13.1382   19.6847 C   0  0  2  0  0  0  0  0  0  0  0  0
  -17.7384  -17.2900   26.1648 C   0  0  0  0  0  0  0  0  0  0  0  0
  -21.4424  -11.7994   26.2319 C   0  0  0  0  0  0  0  0  0  0  0  0
  -19.7765  -13.2490   25.0521 C   0  0  0  0  0  0  0  0  0  0  0  0
  -19.2100  -12.2484   27.2658 C   0  0  0  0  0  0  0  0  0  0  0  0
  -20.2585  -18.8967   28.5193 C   0  0  0  0  0  0  0  0  0  0  0  0
  -27.2585  -17.2228   25.1858 C   0  0  0  0  0  0  0  0  0  1  0  0
  -30.8093  -16.8966   21.8943 C   0  0  0  0  0  0  0  0  0  0  0  0
  -20.8785  -14.1445   27.1532 C   0  0  1  0  0  0  0  0  0  0  0  0
  -18.7997  -17.3127   27.2538 C   0  0  2  0  0  0  0  0  0  0  0  0
  -20.3522  -12.8707   26.4335 C   0  0  0  0  0  0  0  0  0  0  0  0
  -25.8598  -11.5453   20.2832 N   0  0  0  0  0  0  0  0  0  0  0  0
  -30.1503  -19.0966   22.6446 N   0  0  0  0  0  0  0  0  0  0  0  0
  -29.0426  -17.1173   23.5336 N   0  0  0  0  0  0  0  0  0  0  0  0
  -26.2356  -12.8292   20.1548 N   0  0  0  0  0  0  0  0  0  0  0  0
  -28.2823  -21.5217   24.5309 N   0  0  0  0  0  0  0  0  0  0  0  0
  -22.8277  -14.1748   28.6777 N   0  0  0  0  0  0  0  0  0  0  0  0
  -29.9714  -13.6112   20.3574 N   0  0  0  0  0  0  0  0  0  0  0  0
  -25.4683  -15.0561   20.4056 N   0  0  0  0  0  0  0  0  0  0  0  0
  -21.8872  -12.5789   21.6038 N   0  0  0  0  0  0  0  0  0  0  0  0
  -24.8688  -11.8430   30.5993 N   0  0  0  0  0  0  0  0  0  0  0  0
  -19.8614  -15.1650   27.3819 N   0  0  0  0  0  0  0  0  0  0  0  0
  -30.1443  -15.6747   21.5001 N   0  0  0  0  0  0  0  0  0  0  0  0
  -19.2324  -18.7240   27.4589 N   0  3  0  0  0  0  0  0  0  0  0  0
  -26.8148  -20.1863   25.7942 O   0  0  0  0  0  0  0  0  0  0  0  0
  -22.6610  -14.7194   21.3235 O   0  0  0  0  0  0  0  0  0  0  0  0
  -24.1678  -12.0174   28.3856 O   0  0  0  0  0  0  0  0  0  0  0  0
  -20.7736  -13.3198   29.3748 O   0  0  0  0  0  0  0  0  0  0  0  0
  -20.9345  -16.8590   26.2175 O   0  0  0  0  0  0  0  0  0  0  0  0
  -31.8773  -14.9231   20.2006 O   0  0  0  0  0  0  0  0  0  0  0  0
  -21.6176   -7.0156   21.7094 O   0  0  0  0  0  0  0  0  0  0  0  0
  -27.7238  -17.2550   26.5345 O   0  0  0  0  0  0  0  0  0  1  0  0
  -18.6359   -6.8527   26.3448 F   0  0  0  0  0  0  0  0  0  0  0  0
  -22.0729   -5.0712   23.6212 F   0  0  0  0  0  0  0  0  0  0  0  0
  1  2  1  0  0  0  0
  1  5  2  0  0  0  0
  2  6  2  0  0  0  0
  3  8  2  0  0  0  0
  3 15  1  0  0  0  0
  4  9  1  0  0  0  0
  4 15  2  0  0  0  0
  5 18  1  0  0  0  0
  6 20  1  0  0  0  0
  7 10  2  0  0  0  0
  7 19  1  0  0  0  0
  8 22  1  0  0  0  0
  9 22  2  0  0  0  0
 10 23  1  0  0  0  0
 11 12  2  0  0  0  0
 11 24  1  0  0  0  0
 12 25  1  0  0  0  0
 13 21  1  0  0  0  0
 13 23  2  0  0  0  0
 14 25  2  0  0  0  0
 14 26  1  0  0  0  0
 15 27  1  0  0  0  0
 16 28  1  0  0  0  0
 16 29  2  0  0  0  0
 16 32  1  0  0  0  0
 17 27  1  0  0  0  0
 17 30  2  0  0  0  0
 17 33  1  0  0  0  0
 18 20  2  0  0  0  0
 18 38  1  0  0  0  0
 19 21  2  0  0  0  0
 19 39  1  0  0  0  0
 20 48  1  0  0  0  0
 21 40  1  0  0  0  0
 22 80  1  0  0  0  0
 23 81  1  0  0  0  0
 24 26  2  0  0  0  0
 24 80  1  0  0  0  0
 25 82  1  0  0  0  0
 26 83  1  0  0  0  0
 27 61  2  0  0  0  0
 28 41  1  0  0  0  0
 28 62  2  0  0  0  0
 29 56  1  0  0  0  0
 29 63  1  0  0  0  0
 30 64  1  0  0  0  0
 30 68  1  0  0  0  0
 31 57  1  0  0  0  0
 31 62  1  0  0  0  0
 31 63  2  0  0  0  0
 32 65  1  0  0  0  0
 32 74  2  0  0  0  0
 33 69  1  0  0  0  0
 33 75  2  0  0  0  0
 34 49  1  0  0  0  0
 34 70  1  0  0  0  0
 34 76  2  0  0  0  0
 35 58  1  0  0  0  0
 35 66  1  0  0  0  0
 35 77  2  0  0  0  0
 36 59  1  0  0  0  0
 36 71  1  0  0  0  0
 36 78  2  0  0  0  0
 37 67  1  0  0  0  0
 37 72  1  0  0  0  0
 37 79  2  0  0  0  0
 38 42  1  0  0  0  0
 39 49  1  0  0  0  0
 40 66  1  0  0  0  0
 41 65  1  0  0  0  0
 42 44  1  0  0  0  0
 43 45  1  0  0  0  0
 43 46  1  0  0  0  0
 44 48  1  0  0  0  0
 45 50  1  0  0  0  0
 46 67  1  0  0  0  0
 47 50  1  0  0  0  0
 47 67  1  0  0  0  0
 48 70  1  0  0  0  0
 49 66  1  0  0  0  0
 50 64  1  0  0  0  0
 51 59  1  0  0  0  0
 52 60  1  0  0  0  0
 53 60  1  0  0  0  0
 54 60  1  0  0  0  0
 55 73  1  0  0  0  0
 56 81  1  0  0  0  0
 57 72  1  0  0  0  0
 58 60  1  0  0  0  0
 58 71  1  0  0  0  0
 59 73  1  0  0  0  0
 61 64  1  0  0  0  0
M  CHG  1  73   1
M  ISO  4  37 100  56 101  72 100  81 101
M  END
> <Batch ID>
0176

> <Smiles>
CNC(C)C(=O)NC(C(=O)N1Cc2cc([101O:1][101CH2:1]c3nc(C[100NH:0][100C:0](=O)N4CCCC(n5nc(-c6ccc(Oc7ccc(F)cc7F)cc6)c(C(N)=O)c5N)C4)nc4c3C(=O)NC4)ccc2CC1C(=O)NC1CCCc2ccccc21)C(C)(C)C

> <Shape>
0.167

> <Color>
0.180

> <Negative vol penalty>
0.000

$$$$

  -OEChem-04052322503D

 84 93  0     1  0  0  0  0  0999 V2000
  -19.9191   -8.0160   20.1947 C   0  0  0  0  0  0  0  0  0  0  0  0
  -19.3771   -9.2867   20.0302 C   0  0  0  0  0  0  0  0  0  0  0  0
  -28.2669  -28.4056   20.8528 C   0  0  0  0  0  0  0  0  0  0  0  0
  -26.7341  -26.9798   19.6467 C   0  0  0  0  0  0  0  0  0  0  0  0
  -17.7971  -25.9740   19.8553 C   0  0  0  0  0  0  0  0  0  0  0  0
  -21.2289   -7.8717   20.6504 C   0  0  0  0  0  0  0  0  0  0  0  0
  -20.1443  -10.4139   20.3223 C   0  0  0  0  0  0  0  0  0  0  0  0
  -19.9961  -15.8158   17.4407 C   0  0  0  0  0  0  0  0  0  0  0  0
  -17.9579  -26.7076   21.0313 C   0  0  0  0  0  0  0  0  0  0  0  0
  -29.3074  -27.5174   20.5807 C   0  0  0  0  0  0  0  0  0  0  0  0
  -27.7746  -26.0915   19.3746 C   0  0  0  0  0  0  0  0  0  0  0  0
  -19.3611  -17.0207   17.7386 C   0  0  0  0  0  0  0  0  0  0  0  0
  -29.4621  -23.6568   21.0042 C   0  0  0  0  0  0  0  0  0  0  0  0
  -29.2148  -22.2955   21.1808 C   0  0  0  0  0  0  0  0  0  0  0  0
  -19.3456  -24.9500   21.9994 C   0  0  0  0  0  0  0  0  0  0  0  0
  -21.3893  -17.8289   18.7645 C   0  0  0  0  0  0  0  0  0  0  0  0
  -29.7043  -21.9039   18.8475 C   0  0  0  0  0  0  0  0  0  0  0  0
  -26.9803  -28.1368   20.3858 C   0  0  0  0  0  0  0  0  0  0  0  0
  -18.4198  -24.7417   19.7858 C   0  0  0  0  0  0  0  0  0  0  0  0
  -25.4979  -30.1518   19.8858 C   0  0  0  0  0  0  0  0  0  0  0  0
  -22.0157   -8.9979   20.9390 C   0  0  0  0  0  0  0  0  0  0  0  0
  -21.3315  -15.6039   17.8128 C   0  0  0  0  0  0  0  0  0  0  0  0
  -21.4654  -10.2845   20.7835 C   0  0  0  0  0  0  0  0  0  0  0  0
  -19.1856  -24.2229   20.8322 C   0  0  0  0  0  0  0  0  0  0  0  0
  -22.0397  -16.6214   18.4679 C   0  0  0  0  0  0  0  0  0  0  0  0
  -18.7256  -26.2003   22.0946 C   0  0  0  0  0  0  0  0  0  0  0  0
  -29.0612  -26.3603   19.8416 C   0  0  0  0  0  0  0  0  0  0  0  0
  -20.0568  -18.0264   18.4032 C   0  0  0  0  0  0  0  0  0  0  0  0
  -29.8304  -24.1417   19.7492 C   0  0  0  0  0  0  0  0  0  0  0  0
  -29.3359  -21.4190   20.1025 C   0  0  0  0  0  0  0  0  0  0  0  0
  -29.9515  -23.2652   18.6709 C   0  0  0  0  0  0  0  0  0  0  0  0
  -25.9050  -29.0538   20.6671 C   0  0  0  0  0  0  0  0  0  0  0  0
  -24.4447  -30.6954   20.5799 C   0  0  0  0  0  0  0  0  0  0  0  0
  -18.4078  -23.7866   18.6753 C   0  0  0  0  0  0  0  0  0  0  0  0
  -19.2316  -22.6207   19.1115 C   0  0  0  0  0  0  0  0  0  0  0  0
  -19.4390  -21.5499   18.3374 C   0  0  0  0  0  0  0  0  0  0  0  0
  -26.0246  -30.6370   18.6437 C   0  0  0  0  0  0  0  0  0  0  0  0
  -22.8296  -13.5498   19.7206 C   0  0  0  0  0  0  0  0  0  0  0  0
  -25.4862  -14.9636   18.5099 C   0  0  0  0  0  0  0  0  0  0  0  0
  -26.8976  -17.7032   17.0437 C   0  0  0  0  0  0  0  0  0  0  0  0
  -20.5473  -28.4213   24.5156 C   0  0  0  0  0  0  0  0  0  0  0  0
  -19.7496  -22.8733   20.5044 C   0  0  0  0  0  0  0  0  0  0  0  0
  -23.4106   -8.7910   21.4741 C   0  0  0  0  0  0  0  0  0  0  0  0
  -22.0101  -14.3087   17.4604 C   0  0  0  0  0  0  0  0  0  0  0  0
  -23.4809  -16.4515   18.8710 C   0  0  0  0  0  0  0  0  0  0  0  0
  -24.2817  -10.0426   21.4038 C   0  0  0  0  0  0  0  0  0  0  0  0
  -22.7405  -31.1796   25.0243 C   0  0  0  0  0  0  0  0  0  0  0  0
  -23.5160  -11.2557   21.9225 C   0  0  0  0  0  0  0  0  0  0  0  0
  -23.7635  -31.0466   23.8948 C   0  0  0  0  0  0  0  0  0  0  0  0
  -22.3093  -29.8156   25.5587 C   0  0  0  0  0  0  0  0  0  0  0  0
  -22.8402  -28.7432   23.4041 C   0  0  0  0  0  0  0  0  0  0  0  0
  -22.2743  -11.5318   21.0661 C   0  0  1  0  0  0  0  0  0  0  0  0
  -23.2175  -14.0073   18.3429 C   0  0  1  0  0  0  0  0  0  0  0  0
  -23.2633  -30.0909   22.7949 C   0  0  2  0  0  0  0  0  0  0  0  0
  -28.6626  -19.1021   15.9368 C   0  0  0  0  0  0  0  0  0  0  0  0
  -26.3762  -15.4670   21.3846 C   0  0  0  0  0  0  0  0  0  0  0  0
  -28.0310  -17.1287   20.5077 C   0  0  0  0  0  0  0  0  0  0  0  0
  -28.2012  -14.7308   19.8413 C   0  0  0  0  0  0  0  0  0  0  0  0
  -26.1563  -16.7171   14.3535 C   0  0  0  0  0  0  0  0  0  0  0  0
  -18.8802  -27.0068   23.3413 C   0  0  0  0  0  0  0  0  0  0  0  0
  -20.2577  -20.3709   18.7476 C   0  0  0  0  0  0  0  0  0  1  0  0
  -26.3355  -16.1507   18.8953 C   0  0  1  0  0  0  0  0  0  0  0  0
  -27.8159  -17.8422   15.8430 C   0  0  2  0  0  0  0  0  0  0  0  0
  -27.2082  -15.8721   20.1515 C   0  0  0  0  0  0  0  0  0  0  0  0
  -25.1704  -28.9072   21.7729 N   0  0  0  0  0  0  0  0  0  0  0  0
  -24.2912  -29.9203   21.6916 N   0  0  0  0  0  0  0  0  0  0  0  0
  -24.0986  -15.1649   18.5098 N   0  0  0  0  0  0  0  0  0  0  0  0
  -21.8444  -28.9580   24.4658 N   0  0  0  0  0  0  0  0  0  0  0  0
  -23.6443  -31.7561   20.3418 N   0  0  0  0  0  0  0  0  0  0  0  0
  -27.1084  -29.9603   18.0677 N   0  0  0  0  0  0  0  0  0  0  0  0
  -22.6480  -12.1842   19.8295 N   0  0  0  0  0  0  0  0  0  0  0  0
  -27.0988  -16.5101   17.7051 N   0  0  0  0  0  0  0  0  0  0  0  0
  -20.1841  -27.6246   23.4367 N   0  0  0  0  0  0  0  0  0  0  0  0
  -27.0186  -17.9044   14.5855 N   0  3  0  0  0  0  0  0  0  0  0  0
  -17.8336  -23.9334   17.6163 O   0  0  0  0  0  0  0  0  0  0  0  0
  -25.5587  -31.6506   18.0700 O   0  0  0  0  0  0  0  0  0  0  0  0
  -22.7057  -14.3744   20.6186 O   0  0  0  0  0  0  0  0  0  0  0  0
  -26.0340  -13.8991   18.2127 O   0  0  0  0  0  0  0  0  0  0  0  0
  -26.0858  -18.5681   17.3652 O   0  0  0  0  0  0  0  0  0  0  0  0
  -19.7686  -28.6406   25.4497 O   0  0  0  0  0  0  0  0  0  0  0  0
  -30.0763  -25.4934   19.5757 O   0  0  0  0  0  0  0  0  0  0  0  0
  -19.4392  -19.2031   18.6957 O   0  0  0  0  0  0  0  0  0  1  0  0
  -29.1000  -20.1115   20.2726 F   0  0  0  0  0  0  0  0  0  0  0  0
  -30.3062  -23.7250   17.4632 F   0  0  0  0  0  0  0  0  0  0  0  0
  1  2  1  0  0  0  0
  1  6  2  0  0  0  0
  2  7  2  0  0  0  0
  3 10  2  0  0  0  0
  3 18  1  0  0  0  0
  4 11  1  0  0  0  0
  4 18  2  0  0  0  0
  5  9  2  0  0  0  0
  5 19  1  0  0  0  0
  6 21  1  0  0  0  0
  7 23  1  0  0  0  0
  8 12  2  0  0  0  0
  8 22  1  0  0  0  0
  9 26  1  0  0  0  0
 10 27  1  0  0  0  0
 11 27  2  0  0  0  0
 12 28  1  0  0  0  0
 13 14  2  0  0  0  0
 13 29  1  0  0  0  0
 14 30  1  0  0  0  0
 15 24  1  0  0  0  0
 15 26  2  0  0  0  0
 16 25  1  0  0  0  0
 16 28  2  0  0  0  0
 17 30  2  0  0  0  0
 17 31  1  0  0  0  0
 18 32  1  0  0  0  0
 19 24  2  0  0  0  0
 19 34  1  0  0  0  0
 20 32  1  0  0  0  0
 20 33  2  0  0  0  0
 20 37  1  0  0  0  0
 21 23  2  0  0  0  0
 21 43  1  0  0  0  0
 22 25  2  0  0  0  0
 22 44  1  0  0  0  0
 23 52  1  0  0  0  0
 24 42  1  0  0  0  0
 25 45  1  0  0  0  0
 26 60  1  0  0  0  0
 27 81  1  0  0  0  0
 28 82  1  0  0  0  0
 29 31  2  0  0  0  0
 29 81  1  0  0  0  0
 30 83  1  0  0  0  0
 31 84  1  0  0  0  0
 32 65  2  0  0  0  0
 33 66  1  0  0  0  0
 33 69  1  0  0  0  0
 34 35  1  0  0  0  0
 34 75  2  0  0  0  0
 35 36  2  0  0  0  0
 35 42  1  0  0  0  0
 36 61  1  0  0  0  0
 37 70  1  0  0  0  0
 37 76  2  0  0  0  0
 38 53  1  0  0  0  0
 38 71  1  0  0  0  0
 38 77  2  0  0  0  0
 39 62  1  0  0  0  0
 39 67  1  0  0  0  0
 39 78  2  0  0  0  0
 40 63  1  0  0  0  0
 40 72  1  0  0  0  0
 40 79  2  0  0  0  0
 41 68  1  0  0  0  0
 41 73  1  0  0  0  0
 41 80  2  0  0  0  0
 43 46  1  0  0  0  0
 44 53  1  0  0  0  0
 45 67  1  0  0  0  0
 46 48  1  0  0  0  0
 47 49  1  0  0  0  0
 47 50  1  0  0  0  0
 48 52  1  0  0  0  0
 49 54  1  0  0  0  0
 50 68  1  0  0  0  0
 51 54  1  0  0  0  0
 51 68  1  0  0  0  0
 52 71  1  0  0  0  0
 53 67  1  0  0  0  0
 54 66  1  0  0  0  0
 55 63  1  0  0  0  0
 56 64  1  0  0  0  0
 57 64  1  0  0  0  0
 58 64  1  0  0  0  0
 59 74  1  0  0  0  0
 60 73  1  0  0  0  0
 61 82  1  0  0  0  0
 62 64  1  0  0  0  0
 62 72  1  0  0  0  0
 63 74  1  0  0  0  0
 65 66  1  0  0  0  0
M  CHG  1  74   1
M  ISO  4  41 100  61 101  73 100  82 101
M  END
> <Batch ID>
0176

> <Smiles>
CNC(C)C(=O)NC(C(=O)N1Cc2cc([101O:1][101CH2:1]C=C3Cc4cc(C[100NH:0][100C:0](=O)N5CCCC(n6nc(-c7ccc(Oc8ccc(F)cc8F)cc7)c(C(N)=O)c6N)C5)ccc4C3=O)ccc2CC1C(=O)NC1CCCc2ccccc21)C(C)(C)C

> <Shape>
0.230

> <Color>
0.050

> <Negative vol penalty>
0.000

$$$$

  -OEChem-04052322503D

 88 97  0     1  0  0  0  0  0999 V2000
  -31.3909  -26.0729   16.1498 C   0  0  0  0  0  0  0  0  0  0  0  0
  -30.5306  -25.0134   15.8800 C   0  0  0  0  0  0  0  0  0  0  0  0
  -20.5504  -23.3723   23.8182 C   0  0  0  0  0  0  0  0  0  0  0  0
  -20.4539  -22.5222   21.5587 C   0  0  0  0  0  0  0  0  0  0  0  0
  -32.1796  -26.0536   17.2994 C   0  0  0  0  0  0  0  0  0  0  0  0
  -30.4595  -23.9333   16.7591 C   0  0  0  0  0  0  0  0  0  0  0  0
  -25.8206  -19.1067   19.3088 C   0  0  0  0  0  0  0  0  0  0  0  0
  -20.5848  -24.6769   23.3259 C   0  0  0  0  0  0  0  0  0  0  0  0
  -20.4882  -23.8269   21.0664 C   0  0  0  0  0  0  0  0  0  0  0  0
  -25.6821  -17.7295   19.4757 C   0  0  0  0  0  0  0  0  0  0  0  0
  -18.3885  -26.9323   22.0921 C   0  0  0  0  0  0  0  0  0  0  0  0
  -17.5654  -27.8778   22.7037 C   0  0  0  0  0  0  0  0  0  0  0  0
  -27.0333  -17.8414   21.4709 C   0  0  0  0  0  0  0  0  0  0  0  0
  -19.5075  -29.1916   23.2864 C   0  0  0  0  0  0  0  0  0  0  0  0
  -20.4851  -22.2949   22.9346 C   0  0  0  0  0  0  0  0  0  0  0  0
  -19.3087  -20.1930   23.7747 C   0  0  0  0  0  0  0  0  0  0  0  0
  -32.1109  -24.9773   18.1979 C   0  0  0  0  0  0  0  0  0  0  0  0
  -26.5769  -19.8612   20.2172 C   0  0  0  0  0  0  0  0  0  0  0  0
  -31.2490  -23.8990   17.9211 C   0  0  0  0  0  0  0  0  0  0  0  0
  -27.1777  -19.2284   21.3147 C   0  0  0  0  0  0  0  0  0  0  0  0
  -26.4250  -12.7859   19.9154 C   0  0  0  0  0  0  0  0  0  0  0  0
  -20.5537  -24.9042   21.9500 C   0  0  0  0  0  0  0  0  0  0  0  0
  -26.2908  -17.0962   20.5553 C   0  0  0  0  0  0  0  0  0  0  0  0
  -19.7711  -27.1164   22.0776 C   0  0  0  0  0  0  0  0  0  0  0  0
  -18.1249  -29.0075   23.3008 C   0  0  0  0  0  0  0  0  0  0  0  0
  -20.3306  -28.2460   22.6748 C   0  0  0  0  0  0  0  0  0  0  0  0
  -20.4502  -20.9470   23.4425 C   0  0  0  0  0  0  0  0  0  0  0  0
  -25.3286  -13.5989   20.1187 C   0  0  0  0  0  0  0  0  0  0  0  0
  -26.2680  -11.4672   20.2907 C   0  0  0  0  0  0  0  0  0  0  0  0
  -19.8068  -18.9879   24.2059 C   0  0  0  0  0  0  0  0  0  0  0  0
  -24.1357  -11.8623   20.9719 C   0  0  0  0  0  0  0  0  0  0  0  0
  -17.9221  -20.5501   23.7000 C   0  0  0  0  0  0  0  0  0  0  0  0
  -29.1978  -21.6481   20.0137 C   0  0  0  0  0  0  0  0  0  0  0  0
  -28.4928  -22.3433   23.1028 C   0  0  0  0  0  0  0  0  0  0  0  0
  -26.9383  -21.4216   25.9978 C   0  0  0  0  0  0  0  0  0  0  0  0
  -23.3126  -14.6882   23.6554 C   0  0  0  0  0  0  0  0  0  0  0  0
  -33.0176  -24.9788   19.4032 C   0  0  0  0  0  0  0  0  0  0  0  0
  -26.6945  -21.3500   20.0380 C   0  0  0  0  0  0  0  0  0  0  0  0
  -27.9833  -19.9963   22.3295 C   0  0  0  0  0  0  0  0  0  0  0  0
  -32.6075  -23.9725   20.4752 C   0  0  0  0  0  0  0  0  0  0  0  0
  -24.5422  -17.5843   25.3023 C   0  0  0  0  0  0  0  0  0  0  0  0
  -32.2983  -22.6180   19.8456 C   0  0  0  0  0  0  0  0  0  0  0  0
  -23.4957  -18.6560   24.9920 C   0  0  0  0  0  0  0  0  0  0  0  0
  -20.5396  -11.3897   22.1285 C   0  0  0  0  0  0  0  0  0  0  0  0
  -20.2315  -12.5005   23.1555 C   0  0  0  0  0  0  0  0  0  0  0  0
  -24.7562  -16.6449   24.1175 C   0  0  0  0  0  0  0  0  0  0  0  0
  -22.4836  -17.0922   23.2799 C   0  0  0  0  0  0  0  0  0  0  0  0
  -31.1254  -22.7211   18.8631 C   0  0  1  0  0  0  0  0  0  0  0  0
  -27.9143  -21.9415   20.7377 C   0  0  1  0  0  0  0  0  0  0  0  0
  -22.1907  -18.0300   24.4638 C   0  0  2  0  0  0  0  0  0  0  0  0
  -21.7960  -12.2009   21.7439 C   0  0  1  0  0  0  0  0  0  0  0  0
  -21.7481  -12.8104   23.1671 C   0  0  1  0  0  0  0  0  0  0  0  0
  -26.0915  -21.6214   28.3516 C   0  0  0  0  0  0  0  0  0  0  0  0
  -31.3355  -21.4914   23.8123 C   0  0  0  0  0  0  0  0  0  0  0  0
  -30.6214  -21.3524   26.2079 C   0  0  0  0  0  0  0  0  0  0  0  0
  -30.5306  -23.5364   25.0059 C   0  0  0  0  0  0  0  0  0  0  0  0
  -27.2994   -9.2018   20.4635 C   0  0  0  0  0  0  0  0  0  0  0  0
  -30.0311  -14.0579   19.7708 C   0  0  0  0  0  0  0  0  0  0  0  0
  -24.4083  -22.6708   25.1048 C   0  0  0  0  0  0  0  0  0  0  0  0
  -27.6902  -13.3072   19.3288 C   0  0  0  0  0  0  0  0  0  0  0  0
  -25.3803  -15.0523   19.7493 C   0  0  0  0  0  0  0  0  0  1  0  0
  -28.8437  -21.7398   24.4413 C   0  0  1  0  0  0  0  0  0  0  0  0
  -26.0304  -22.1889   26.9419 C   0  0  2  0  0  0  0  0  0  0  0  0
  -30.3193  -22.0150   24.8468 C   0  0  0  0  0  0  0  0  0  0  0  0
  -21.5877  -20.2770   23.6454 N   0  0  0  0  0  0  0  0  0  0  0  0
  -24.1639  -13.1688   20.6465 N   0  0  0  0  0  0  0  0  0  0  0  0
  -25.1331  -10.9696   20.8242 N   0  0  0  0  0  0  0  0  0  0  0  0
  -21.1635  -19.0894   24.1099 N   0  0  0  0  0  0  0  0  0  0  0  0
  -28.0744  -21.4489   22.1073 N   0  0  0  0  0  0  0  0  0  0  0  0
  -23.4795  -16.0819   23.6708 N   0  0  0  0  0  0  0  0  0  0  0  0
  -19.2122  -17.8618   24.6542 N   0  0  0  0  0  0  0  0  0  0  0  0
  -17.5855  -21.8284   23.2343 N   0  0  0  0  0  0  0  0  0  0  0  0
  -27.3588  -10.5820   20.1070 N   0  0  0  0  0  0  0  0  0  0  0  0
  -22.9318  -11.3766   21.5273 N   0  0  0  0  0  0  0  0  0  0  0  0
  -29.8692  -22.7752   19.5797 N   0  0  0  0  0  0  0  0  0  0  0  0
  -27.8586  -22.2488   25.3894 N   0  0  0  0  0  0  0  0  0  0  0  0
  -22.0713  -14.2283   23.2280 N   0  0  0  0  0  0  0  0  0  0  0  0
  -28.7796  -13.4846   20.3298 N   0  3  0  0  0  0  0  0  0  0  0  0
  -24.6184  -22.1237   26.4699 N   0  3  0  0  0  0  0  0  0  0  0  0
  -17.0093  -19.7648   24.0519 O   0  0  0  0  0  0  0  0  0  0  0  0
  -29.5534  -20.4854   19.8615 O   0  0  0  0  0  0  0  0  0  0  0  0
  -28.5796  -23.5640   22.9483 O   0  0  0  0  0  0  0  0  0  0  0  0
  -26.8433  -20.2091   25.8206 O   0  0  0  0  0  0  0  0  0  0  0  0
  -24.2004  -13.9025   24.0044 O   0  0  0  0  0  0  0  0  0  0  0  0
  -20.5869  -26.1772   21.4693 O   0  0  0  0  0  0  0  0  0  0  0  0
  -26.1577  -15.7519   20.7201 O   0  0  0  0  0  0  0  0  0  1  0  0
  -17.3342  -29.9161   23.8868 F   0  0  0  0  0  0  0  0  0  0  0  0
  -21.6581  -28.4289   22.6630 F   0  0  0  0  0  0  0  0  0  0  0  0
  1  2  1  0  0  0  0
  1  5  2  0  0  0  0
  2  6  2  0  0  0  0
  3  8  2  0  0  0  0
  3 15  1  0  0  0  0
  4  9  1  0  0  0  0
  4 15  2  0  0  0  0
  5 17  1  0  0  0  0
  6 19  1  0  0  0  0
  7 10  2  0  0  0  0
  7 18  1  0  0  0  0
  8 22  1  0  0  0  0
  9 22  2  0  0  0  0
 10 23  1  0  0  0  0
 11 12  2  0  0  0  0
 11 24  1  0  0  0  0
 12 25  1  0  0  0  0
 13 20  1  0  0  0  0
 13 23  2  0  0  0  0
 14 25  2  0  0  0  0
 14 26  1  0  0  0  0
 15 27  1  0  0  0  0
 16 27  1  0  0  0  0
 16 30  2  0  0  0  0
 16 32  1  0  0  0  0
 17 19  2  0  0  0  0
 17 37  1  0  0  0  0
 18 20  2  0  0  0  0
 18 38  1  0  0  0  0
 19 48  1  0  0  0  0
 20 39  1  0  0  0  0
 21 28  2  0  0  0  0
 21 29  1  0  0  0  0
 21 60  1  0  0  0  0
 22 85  1  0  0  0  0
 23 86  1  0  0  0  0
 24 26  2  0  0  0  0
 24 85  1  0  0  0  0
 25 87  1  0  0  0  0
 26 88  1  0  0  0  0
 27 65  2  0  0  0  0
 28 61  1  0  0  0  0
 28 66  1  0  0  0  0
 29 67  2  0  0  0  0
 29 73  1  0  0  0  0
 30 68  1  0  0  0  0
 30 71  1  0  0  0  0
 31 66  2  0  0  0  0
 31 67  1  0  0  0  0
 31 74  1  0  0  0  0
 32 72  1  0  0  0  0
 32 80  2  0  0  0  0
 33 49  1  0  0  0  0
 33 75  1  0  0  0  0
 33 81  2  0  0  0  0
 34 62  1  0  0  0  0
 34 69  1  0  0  0  0
 34 82  2  0  0  0  0
 35 63  1  0  0  0  0
 35 76  1  0  0  0  0
 35 83  2  0  0  0  0
 36 70  1  0  0  0  0
 36 77  1  0  0  0  0
 36 84  2  0  0  0  0
 37 40  1  0  0  0  0
 38 49  1  0  0  0  0
 39 69  1  0  0  0  0
 40 42  1  0  0  0  0
 41 43  1  0  0  0  0
 41 46  1  0  0  0  0
 42 48  1  0  0  0  0
 43 50  1  0  0  0  0
 44 45  1  0  0  0  0
 44 51  1  0  0  0  0
 45 52  1  0  0  0  0
 46 70  1  0  0  0  0
 47 50  1  0  0  0  0
 47 70  1  0  0  0  0
 48 75  1  0  0  0  0
 49 69  1  0  0  0  0
 50 68  1  0  0  0  0
 51 52  1  0  0  0  0
 51 74  1  0  0  0  0
 52 77  1  0  0  0  0
 53 63  1  0  0  0  0
 54 64  1  0  0  0  0
 55 64  1  0  0  0  0
 56 64  1  0  0  0  0
 57 73  1  0  0  0  0
 58 78  1  0  0  0  0
 59 79  1  0  0  0  0
 60 78  1  0  0  0  0
 61 86  1  0  0  0  0
 62 64  1  0  0  0  0
 62 76  1  0  0  0  0
 63 79  1  0  0  0  0
 65 68  1  0  0  0  0
M  CHG  2  78   1  79   1
M  ISO  4  36 100  61 101  77 100  86 101
M  END
> <Batch ID>
0176

> <Smiles>
CNCc1c(NC)nc(NC2CCC2[100NH:0][100C:0](=O)N2CCCC(n3nc(-c4ccc(Oc5ccc(F)cc5F)cc4)c(C(N)=O)c3N)C2)nc1[101CH2:1][101O:1]c1ccc2c(c1)CN(C(=O)C(NC(=O)C(C)NC)C(C)(C)C)C(C(=O)NC1CCCc3ccccc31)C2

> <Shape>
0.190

> <Color>
0.057

> <Negative vol penalty>
0.000

$$$$

  -OEChem-04052322503D

 83 92  0     1  0  0  0  0  0999 V2000
  -23.1754  -30.0384   16.2028 C   0  0  0  0  0  0  0  0  0  0  0  0
  -23.0041  -28.8043   16.8218 C   0  0  0  0  0  0  0  0  0  0  0  0
  -22.9914   -9.9223   19.9727 C   0  0  0  0  0  0  0  0  0  0  0  0
  -23.7407   -9.9360   22.2695 C   0  0  0  0  0  0  0  0  0  0  0  0
  -24.4594  -30.5049   15.9240 C   0  0  0  0  0  0  0  0  0  0  0  0
  -24.1168  -28.0354   17.1613 C   0  0  0  0  0  0  0  0  0  0  0  0
  -26.3880  -23.3836   22.1129 C   0  0  0  0  0  0  0  0  0  0  0  0
  -22.2239   -8.7864   20.2298 C   0  0  0  0  0  0  0  0  0  0  0  0
  -22.9731   -8.8000   22.5267 C   0  0  0  0  0  0  0  0  0  0  0  0
  -26.9568  -22.1151   22.2185 C   0  0  0  0  0  0  0  0  0  0  0  0
  -21.4938   -5.6939   23.6985 C   0  0  0  0  0  0  0  0  0  0  0  0
  -22.0842   -4.6649   24.4321 C   0  0  0  0  0  0  0  0  0  0  0  0
  -29.1295  -23.0578   21.7600 C   0  0  0  0  0  0  0  0  0  0  0  0
  -23.7922   -4.4375   22.7386 C   0  0  0  0  0  0  0  0  0  0  0  0
  -23.7499  -10.4971   20.9925 C   0  0  0  0  0  0  0  0  0  0  0  0
  -24.1419  -13.0138   20.8506 C   0  0  0  0  0  0  0  0  0  0  0  0
  -25.5886  -29.7457   16.2690 C   0  0  0  0  0  0  0  0  0  0  0  0
  -27.1854  -24.4990   21.8187 C   0  0  0  0  0  0  0  0  0  0  0  0
  -25.4170  -28.4916   16.8855 C   0  0  0  0  0  0  0  0  0  0  0  0
  -28.5687  -24.3398   21.6537 C   0  0  0  0  0  0  0  0  0  0  0  0
  -22.2147   -8.2252   21.5068 C   0  0  0  0  0  0  0  0  0  0  0  0
  -28.3273  -21.9516   22.0391 C   0  0  0  0  0  0  0  0  0  0  0  0
  -22.0525   -6.0947   22.4849 C   0  0  0  0  0  0  0  0  0  0  0  0
  -23.2334   -4.0367   23.9522 C   0  0  0  0  0  0  0  0  0  0  0  0
  -23.2018   -5.4665   22.0049 C   0  0  0  0  0  0  0  0  0  0  0  0
  -24.5434  -11.6701   20.7274 C   0  0  0  0  0  0  0  0  0  0  0  0
  -25.2502  -13.7382   20.4856 C   0  0  0  0  0  0  0  0  0  0  0  0
  -22.8799  -13.5583   21.2586 C   0  0  0  0  0  0  0  0  0  0  0  0
  -27.3043  -26.6077   19.4433 C   0  0  0  0  0  0  0  0  0  0  0  0
  -29.5208  -28.0305   21.3368 C   0  0  0  0  0  0  0  0  0  0  0  0
  -31.8264  -27.7209   23.8337 C   0  0  0  0  0  0  0  0  0  0  0  0
  -30.7520  -14.6512   20.6908 C   0  0  0  0  0  0  0  0  0  0  0  0
  -26.9550  -30.2702   15.9047 C   0  0  0  0  0  0  0  0  0  0  0  0
  -26.5604  -25.8645   21.7346 C   0  0  0  0  0  0  0  0  0  0  0  0
  -29.4716  -25.5081   21.3565 C   0  0  0  0  0  0  0  0  0  0  0  0
  -28.0936  -29.5631   16.6353 C   0  0  0  0  0  0  0  0  0  0  0  0
  -29.5788  -12.2671   18.3210 C   0  0  0  0  0  0  0  0  0  0  0  0
  -27.8997  -28.0508   16.5893 C   0  0  0  0  0  0  0  0  0  0  0  0
  -28.1339  -12.0057   18.7497 C   0  0  0  0  0  0  0  0  0  0  0  0
  -29.2714  -17.4857   23.6140 C   0  0  0  0  0  0  0  0  0  0  0  0
  -30.3725  -16.6353   24.2642 C   0  0  0  0  0  0  0  0  0  0  0  0
  -30.9826  -19.0573   22.6897 C   0  0  0  0  0  0  0  0  0  0  0  0
  -30.4945  -12.4812   19.5241 C   0  0  0  0  0  0  0  0  0  0  0  0
  -28.6011  -13.2625   20.8947 C   0  0  0  0  0  0  0  0  0  0  0  0
  -26.6000  -27.6396   17.2915 C   0  0  1  0  0  0  0  0  0  0  0  0
  -27.3919  -26.8532   20.9230 C   0  0  1  0  0  0  0  0  0  0  0  0
  -32.0878  -18.2438   23.4063 C   0  0  1  0  0  0  0  0  0  0  0  0
  -27.6292  -13.0959   19.7140 C   0  0  2  0  0  0  0  0  0  0  0  0
  -30.8544  -16.8116   21.9079 C   0  0  1  0  0  0  0  0  0  0  0  0
  -29.9370  -17.9811   22.3098 C   0  0  1  0  0  0  0  0  0  0  0  0
  -31.5625  -16.7780   23.2783 C   0  0  2  0  0  0  0  0  0  0  0  0
  -33.4586  -18.5056   22.7868 C   0  0  0  0  0  0  0  0  0  0  0  0
  -32.6034  -15.6886   23.4587 C   0  0  0  0  0  0  0  0  0  0  0  0
  -33.5078  -29.0507   25.1384 C   0  0  0  0  0  0  0  0  0  0  0  0
  -29.6753  -18.8889   19.9847 C   0  0  0  0  0  0  0  0  0  0  0  0
  -31.4166  -27.9739   18.9466 C   0  0  0  0  0  0  0  0  0  0  0  0
  -33.3094  -28.4101   20.5262 C   0  0  0  0  0  0  0  0  0  0  0  0
  -31.4810  -30.0891   20.2794 C   0  0  0  0  0  0  0  0  0  0  0  0
  -30.4367  -27.1869   26.3915 C   0  0  0  0  0  0  0  0  0  0  0  0
  -28.0699  -19.6016   21.7801 C   0  0  0  0  0  0  0  0  0  1  0  0
  -31.0180  -27.9223   21.4970 C   0  0  1  0  0  0  0  0  0  0  0  0
  -32.0743  -28.5458   25.0838 C   0  0  2  0  0  0  0  0  0  0  0  0
  -28.9493  -18.4531   21.2619 C   0  0  2  0  0  0  0  0  0  0  0  0
  -31.7892  -28.5763   20.3160 C   0  0  0  0  0  0  0  0  0  0  0  0
  -25.8081  -11.5456   20.3161 N   0  0  0  0  0  0  0  0  0  0  0  0
  -26.2108  -12.8202   20.1776 N   0  0  0  0  0  0  0  0  0  0  0  0
  -28.8122  -26.8221   21.2777 N   0  0  0  0  0  0  0  0  0  0  0  0
  -29.9602  -13.5286   20.3978 N   0  0  0  0  0  0  0  0  0  0  0  0
  -25.4871  -15.0646   20.4012 N   0  0  0  0  0  0  0  0  0  0  0  0
  -21.8487  -12.6724   21.5994 N   0  0  0  0  0  0  0  0  0  0  0  0
  -26.7723  -27.6637   18.7283 N   0  0  0  0  0  0  0  0  0  0  0  0
  -31.3309  -28.4916   22.8033 N   0  0  0  0  0  0  0  0  0  0  0  0
  -30.1674  -15.5995   21.5212 N   0  0  0  0  0  0  0  0  0  0  0  0
  -31.8172  -27.7284   26.3031 N   0  3  0  0  0  0  0  0  0  0  0  0
  -22.6676  -14.7939   21.3033 O   0  0  0  0  0  0  0  0  0  0  0  0
  -27.6922  -25.5398   18.9840 O   0  0  0  0  0  0  0  0  0  0  0  0
  -28.9984  -29.1462   21.2737 O   0  0  0  0  0  0  0  0  0  0  0  0
  -32.0535  -26.5144   23.7759 O   0  0  0  0  0  0  0  0  0  0  0  0
  -31.8933  -14.8001   20.2410 O   0  0  0  0  0  0  0  0  0  0  0  0
  -21.4657   -7.1169   21.7581 O   0  0  0  0  0  0  0  0  0  0  0  0
  -28.8890  -20.7056   22.1417 O   0  0  0  0  0  0  0  0  0  1  0  0
  -23.8012   -3.0496   24.6575 F   0  0  0  0  0  0  0  0  0  0  0  0
  -23.7438   -5.8480   20.8403 F   0  0  0  0  0  0  0  0  0  0  0  0
  1  2  1  0  0  0  0
  1  5  2  0  0  0  0
  2  6  2  0  0  0  0
  3  8  2  0  0  0  0
  3 15  1  0  0  0  0
  4  9  1  0  0  0  0
  4 15  2  0  0  0  0
  5 17  1  0  0  0  0
  6 19  1  0  0  0  0
  7 10  2  0  0  0  0
  7 18  1  0  0  0  0
  8 21  1  0  0  0  0
  9 21  2  0  0  0  0
 10 22  1  0  0  0  0
 11 12  2  0  0  0  0
 11 23  1  0  0  0  0
 12 24  1  0  0  0  0
 13 20  1  0  0  0  0
 13 22  2  0  0  0  0
 14 24  2  0  0  0  0
 14 25  1  0  0  0  0
 15 26  1  0  0  0  0
 16 26  1  0  0  0  0
 16 27  2  0  0  0  0
 16 28  1  0  0  0  0
 17 19  2  0  0  0  0
 17 33  1  0  0  0  0
 18 20  2  0  0  0  0
 18 34  1  0  0  0  0
 19 45  1  0  0  0  0
 20 35  1  0  0  0  0
 21 80  1  0  0  0  0
 22 81  1  0  0  0  0
 23 25  2  0  0  0  0
 23 80  1  0  0  0  0
 24 82  1  0  0  0  0
 25 83  1  0  0  0  0
 26 65  2  0  0  0  0
 27 66  1  0  0  0  0
 27 69  1  0  0  0  0
 28 70  1  0  0  0  0
 28 75  2  0  0  0  0
 29 46  1  0  0  0  0
 29 71  1  0  0  0  0
 29 76  2  0  0  0  0
 30 61  1  0  0  0  0
 30 67  1  0  0  0  0
 30 77  2  0  0  0  0
 31 62  1  0  0  0  0
 31 72  1  0  0  0  0
 31 78  2  0  0  0  0
 32 68  1  0  0  0  0
 32 73  1  0  0  0  0
 32 79  2  0  0  0  0
 33 36  1  0  0  0  0
 34 46  1  0  0  0  0
 35 67  1  0  0  0  0
 36 38  1  0  0  0  0
 37 39  1  0  0  0  0
 37 43  1  0  0  0  0
 38 45  1  0  0  0  0
 39 48  1  0  0  0  0
 40 41  1  0  0  0  0
 40 50  1  0  0  0  0
 41 51  1  0  0  0  0
 42 47  1  0  0  0  0
 42 50  1  0  0  0  0
 43 68  1  0  0  0  0
 44 48  1  0  0  0  0
 44 68  1  0  0  0  0
 45 71  1  0  0  0  0
 46 67  1  0  0  0  0
 47 51  1  0  0  0  0
 47 52  1  0  0  0  0
 48 66  1  0  0  0  0
 49 50  1  0  0  0  0
 49 51  1  0  0  0  0
 49 73  1  0  0  0  0
 50 63  1  0  0  0  0
 51 53  1  0  0  0  0
 54 62  1  0  0  0  0
 55 63  1  0  0  0  0
 56 64  1  0  0  0  0
 57 64  1  0  0  0  0
 58 64  1  0  0  0  0
 59 74  1  0  0  0  0
 60 63  1  0  0  0  0
 60 81  1  0  0  0  0
 61 64  1  0  0  0  0
 61 72  1  0  0  0  0
 62 74  1  0  0  0  0
 65 66  1  0  0  0  0
M  CHG  1  74   1
M  ISO  4  32 100  60 101  73 100  81 101
M  END
> <Batch ID>
0176

> <Smiles>
CNC(C)C(=O)NC(C(=O)N1Cc2cc([101O:1][101CH2:1]C(C)C34CCC(C)(C(C)C3)C4[100NH:0][100C:0](=O)N3CCCC(n4nc(-c5ccc(Oc6ccc(F)cc6F)cc5)c(C(N)=O)c4N)C3)ccc2CC1C(=O)NC1CCCc2ccccc21)C(C)(C)C

> <Shape>
0.257

> <Color>
0.182

> <Negative vol penalty>
0.000

$$$$

  -OEChem-04052322503D

 83 92  0     1  0  0  0  0  0999 V2000
  -20.1392  -11.6413   18.5677 C   0  0  0  0  0  0  0  0  0  0  0  0
  -20.5016  -12.9125   18.1339 C   0  0  0  0  0  0  0  0  0  0  0  0
  -25.1036  -28.5097   23.6031 C   0  0  0  0  0  0  0  0  0  0  0  0
  -24.5562  -26.8778   21.9077 C   0  0  0  0  0  0  0  0  0  0  0  0
  -20.7945  -11.0636   19.6544 C   0  0  0  0  0  0  0  0  0  0  0  0
  -21.5188  -13.6072   18.7873 C   0  0  0  0  0  0  0  0  0  0  0  0
  -26.7861  -18.2934   17.5181 C   0  0  0  0  0  0  0  0  0  0  0  0
  -23.7903  -28.9786   23.5759 C   0  0  0  0  0  0  0  0  0  0  0  0
  -23.2428  -27.3466   21.8805 C   0  0  0  0  0  0  0  0  0  0  0  0
  -27.2724  -19.5173   17.9759 C   0  0  0  0  0  0  0  0  0  0  0  0
  -19.6548  -27.8745   21.6238 C   0  0  0  0  0  0  0  0  0  0  0  0
  -18.6283  -26.9301   21.6191 C   0  0  0  0  0  0  0  0  0  0  0  0
  -28.3883  -18.3877   19.7920 C   0  0  0  0  0  0  0  0  0  0  0  0
  -29.1657  -24.0194   19.6015 C   0  0  0  0  0  0  0  0  0  0  0  0
  -19.4119  -26.0678   23.7356 C   0  0  0  0  0  0  0  0  0  0  0  0
  -31.7907  -24.1313   20.3381 C   0  0  0  0  0  0  0  0  0  0  0  0
  -25.4867  -27.4594   22.7689 C   0  0  0  0  0  0  0  0  0  0  0  0
  -27.3649  -25.9527   23.6115 C   0  0  0  0  0  0  0  0  0  0  0  0
  -21.8268  -11.7477   20.3153 C   0  0  0  0  0  0  0  0  0  0  0  0
  -27.0888  -17.1068   18.2012 C   0  0  0  0  0  0  0  0  0  0  0  0
  -22.1876  -13.0387   19.8847 C   0  0  0  0  0  0  0  0  0  0  0  0
  -27.9067  -17.1498   19.3393 C   0  0  0  0  0  0  0  0  0  0  0  0
  -29.6105  -23.2375   20.6618 C   0  0  0  0  0  0  0  0  0  0  0  0
  -30.9466  -23.2888   21.0434 C   0  0  0  0  0  0  0  0  0  0  0  0
  -22.8598  -28.3970   22.7146 C   0  0  0  0  0  0  0  0  0  0  0  0
  -28.0712  -19.5649   19.1146 C   0  0  0  0  0  0  0  0  0  0  0  0
  -20.5599  -27.9155   22.6844 C   0  0  0  0  0  0  0  0  0  0  0  0
  -18.5068  -26.0268   22.6750 C   0  0  0  0  0  0  0  0  0  0  0  0
  -20.4385  -27.0121   23.7403 C   0  0  0  0  0  0  0  0  0  0  0  0
  -26.8434  -26.9750   22.7962 C   0  0  0  0  0  0  0  0  0  0  0  0
  -30.0894  -24.8293   18.9609 C   0  0  0  0  0  0  0  0  0  0  0  0
  -28.6898  -25.8740   23.2583 C   0  0  0  0  0  0  0  0  0  0  0  0
  -26.7101  -25.1463   24.5998 C   0  0  0  0  0  0  0  0  0  0  0  0
  -25.3822  -14.8868   19.7056 C   0  0  0  0  0  0  0  0  0  0  0  0
  -28.2494  -13.3853   19.9222 C   0  0  0  0  0  0  0  0  0  0  0  0
  -31.6532  -13.6302   19.9504 C   0  0  0  0  0  0  0  0  0  0  0  0
  -31.3667  -27.8046   18.0516 C   0  0  0  0  0  0  0  0  0  0  0  0
  -22.4739  -11.1019   21.5148 C   0  0  0  0  0  0  0  0  0  0  0  0
  -26.5785  -15.7917   17.6792 C   0  0  0  0  0  0  0  0  0  0  0  0
  -28.2774  -15.9021   20.0971 C   0  0  0  0  0  0  0  0  0  0  0  0
  -23.7954  -11.7513   21.9174 C   0  0  0  0  0  0  0  0  0  0  0  0
  -32.2865  -28.4943   21.5741 C   0  0  0  0  0  0  0  0  0  0  0  0
  -23.6584  -13.2703   21.9411 C   0  0  0  0  0  0  0  0  0  0  0  0
  -30.9988  -28.1782   22.3287 C   0  0  0  0  0  0  0  0  0  0  0  0
  -30.0071  -25.2050   16.3302 C   0  0  0  0  0  0  0  0  0  0  0  0
  -32.0054  -28.9283   20.1399 C   0  0  0  0  0  0  0  0  0  0  0  0
  -30.6654  -26.5307   15.9661 C   0  0  0  0  0  0  0  0  0  0  0  0
  -29.9139  -27.6099   20.1163 C   0  0  0  0  0  0  0  0  0  0  0  0
  -23.3030  -13.8139   20.5520 C   0  0  1  0  0  0  0  0  0  0  0  0
  -29.7134  -25.7681   17.7390 C   0  0  2  0  0  0  0  0  0  0  0  0
  -26.5257  -14.7045   18.7481 C   0  0  1  0  0  0  0  0  0  0  0  0
  -30.1640  -27.1431   21.5598 C   0  0  2  0  0  0  0  0  0  0  0  0
  -31.4759  -22.4740   22.1720 C   0  0  0  0  0  0  0  0  0  0  0  0
  -33.7267  -12.2356   20.1813 C   0  0  0  0  0  0  0  0  0  0  0  0
  -27.7751  -13.1826   22.9295 C   0  0  0  0  0  0  0  0  0  0  0  0
  -30.2105  -12.6741   23.2089 C   0  0  0  0  0  0  0  0  0  0  0  0
  -28.7601  -11.1332   21.8882 C   0  0  0  0  0  0  0  0  0  0  0  0
  -32.6045  -14.3896   17.2527 C   0  0  0  0  0  0  0  0  0  0  0  0
  -28.6290  -22.3454   21.3822 C   0  0  0  0  0  0  0  0  0  0  0  0
  -28.7626  -20.8837   20.9689 C   0  0  0  0  0  0  0  0  0  1  0  0
  -29.3828  -13.3839   20.9193 C   0  0  1  0  0  0  0  0  0  0  0  0
  -32.7256  -12.8477   19.2140 C   0  0  2  0  0  0  0  0  0  0  0  0
  -29.0237  -12.6173   22.2235 C   0  0  0  0  0  0  0  0  0  0  0  0
  -31.3951  -24.9057   19.3030 N   0  0  0  0  0  0  0  0  0  0  0  0
  -27.7622  -27.5076   21.9861 N   0  0  0  0  0  0  0  0  0  0  0  0
  -28.8743  -26.8174   22.2908 N   0  0  0  0  0  0  0  0  0  0  0  0
  -27.7488  -14.6413   19.5509 N   0  0  0  0  0  0  0  0  0  0  0  0
  -31.1621  -27.9646   19.4276 N   0  0  0  0  0  0  0  0  0  0  0  0
  -30.6010  -26.8796   17.3799 N   0  0  0  0  0  0  0  0  0  0  0  0
  -29.7034  -25.0906   23.6841 N   0  0  0  0  0  0  0  0  0  0  0  0
  -25.3453  -25.3581   24.8377 N   0  0  0  0  0  0  0  0  0  0  0  0
  -24.4763  -13.8434   19.7053 N   0  0  0  0  0  0  0  0  0  0  0  0
  -30.5453  -12.8534   20.2153 N   0  0  0  0  0  0  0  0  0  0  0  0
  -33.4639  -13.7385   18.2747 N   0  3  0  0  0  0  0  0  0  0  0  0
  -27.3212  -24.2753   25.2642 O   0  0  0  0  0  0  0  0  0  0  0  0
  -25.3267  -15.8986   20.3947 O   0  0  0  0  0  0  0  0  0  0  0  0
  -27.8287  -12.3120   19.4833 O   0  0  0  0  0  0  0  0  0  0  0  0
  -31.7868  -14.8113   20.2629 O   0  0  0  0  0  0  0  0  0  0  0  0
  -32.2303  -28.4513   17.4434 O   0  0  0  0  0  0  0  0  0  0  0  0
  -21.5781  -28.8541   22.6880 O   0  0  0  0  0  0  0  0  0  0  0  0
  -28.5467  -20.7581   19.5640 O   0  0  0  0  0  0  0  0  0  1  0  0
  -17.5201  -25.1210   22.6711 F   0  0  0  0  0  0  0  0  0  0  0  0
  -21.3043  -27.0475   24.7625 F   0  0  0  0  0  0  0  0  0  0  0  0
  1  2  1  0  0  0  0
  1  5  2  0  0  0  0
  2  6  2  0  0  0  0
  3  8  2  0  0  0  0
  3 17  1  0  0  0  0
  4  9  1  0  0  0  0
  4 17  2  0  0  0  0
  5 19  1  0  0  0  0
  6 21  1  0  0  0  0
  7 10  2  0  0  0  0
  7 20  1  0  0  0  0
  8 25  1  0  0  0  0
  9 25  2  0  0  0  0
 10 26  1  0  0  0  0
 11 12  2  0  0  0  0
 11 27  1  0  0  0  0
 12 28  1  0  0  0  0
 13 22  1  0  0  0  0
 13 26  2  0  0  0  0
 14 23  1  0  0  0  0
 14 31  2  0  0  0  0
 15 28  2  0  0  0  0
 15 29  1  0  0  0  0
 16 24  1  0  0  0  0
 16 64  2  0  0  0  0
 17 30  1  0  0  0  0
 18 30  1  0  0  0  0
 18 32  2  0  0  0  0
 18 33  1  0  0  0  0
 19 21  2  0  0  0  0
 19 38  1  0  0  0  0
 20 22  2  0  0  0  0
 20 39  1  0  0  0  0
 21 49  1  0  0  0  0
 22 40  1  0  0  0  0
 23 24  2  0  0  0  0
 23 59  1  0  0  0  0
 24 53  1  0  0  0  0
 25 80  1  0  0  0  0
 26 81  1  0  0  0  0
 27 29  2  0  0  0  0
 27 80  1  0  0  0  0
 28 82  1  0  0  0  0
 29 83  1  0  0  0  0
 30 65  2  0  0  0  0
 31 50  1  0  0  0  0
 31 64  1  0  0  0  0
 32 66  1  0  0  0  0
 32 70  1  0  0  0  0
 33 71  1  0  0  0  0
 33 75  2  0  0  0  0
 34 51  1  0  0  0  0
 34 72  1  0  0  0  0
 34 76  2  0  0  0  0
 35 61  1  0  0  0  0
 35 67  1  0  0  0  0
 35 77  2  0  0  0  0
 36 62  1  0  0  0  0
 36 73  1  0  0  0  0
 36 78  2  0  0  0  0
 37 68  1  0  0  0  0
 37 69  1  0  0  0  0
 37 79  2  0  0  0  0
 38 41  1  0  0  0  0
 39 51  1  0  0  0  0
 40 67  1  0  0  0  0
 41 43  1  0  0  0  0
 42 44  1  0  0  0  0
 42 46  1  0  0  0  0
 43 49  1  0  0  0  0
 44 52  1  0  0  0  0
 45 47  1  0  0  0  0
 45 50  1  0  0  0  0
 46 68  1  0  0  0  0
 47 69  1  0  0  0  0
 48 52  1  0  0  0  0
 48 68  1  0  0  0  0
 49 72  1  0  0  0  0
 50 69  1  0  0  0  0
 51 67  1  0  0  0  0
 52 66  1  0  0  0  0
 54 62  1  0  0  0  0
 55 63  1  0  0  0  0
 56 63  1  0  0  0  0
 57 63  1  0  0  0  0
 58 74  1  0  0  0  0
 59 60  1  0  0  0  0
 60 81  1  0  0  0  0
 61 63  1  0  0  0  0
 61 73  1  0  0  0  0
 62 74  1  0  0  0  0
 65 66  1  0  0  0  0
M  CHG  1  74   1
M  ISO  4  37 100  60 101  69 100  81 101
M  END
> <Batch ID>
0176

> <Smiles>
CNC(C)C(=O)NC(C(=O)N1Cc2cc([101O:1][101CH2:1]Cc3cc(C4CC[100N:0]4[100C:0](=O)N4CCCC(n5nc(-c6ccc(Oc7ccc(F)cc7F)cc6)c(C(N)=O)c5N)C4)ncc3C)ccc2CC1C(=O)NC1CCCc2ccccc21)C(C)(C)C

> <Shape>
0.248

> <Color>
0.062

> <Negative vol penalty>
0.000

$$$$

  -OEChem-04052322503D

 86 96  0     1  0  0  0  0  0999 V2000
  -28.7702  -36.2780   23.2831 C   0  0  0  0  0  0  0  0  0  0  0  0
  -29.0731  -34.9686   22.9238 C   0  0  0  0  0  0  0  0  0  0  0  0
  -23.1474  -11.7152   21.6948 C   0  0  0  0  0  0  0  0  0  0  0  0
  -24.3006   -9.5992   21.5223 C   0  0  0  0  0  0  0  0  0  0  0  0
  -27.5457  -36.5697   23.8825 C   0  0  0  0  0  0  0  0  0  0  0  0
  -28.1519  -33.9499   23.1647 C   0  0  0  0  0  0  0  0  0  0  0  0
  -27.1444  -29.0023   19.6988 C   0  0  0  0  0  0  0  0  0  0  0  0
  -21.9302  -11.0429   21.8041 C   0  0  0  0  0  0  0  0  0  0  0  0
  -23.0834   -8.9269   21.6316 C   0  0  0  0  0  0  0  0  0  0  0  0
  -27.5875  -27.6839   19.7946 C   0  0  0  0  0  0  0  0  0  0  0  0
  -20.9294   -8.0615   24.0876 C   0  0  0  0  0  0  0  0  0  0  0  0
  -20.8721   -6.9633   24.9455 C   0  0  0  0  0  0  0  0  0  0  0  0
  -25.5421  -27.0848   20.9244 C   0  0  0  0  0  0  0  0  0  0  0  0
  -20.2612   -5.5441   23.0881 C   0  0  0  0  0  0  0  0  0  0  0  0
  -28.9167  -21.5838   19.1438 C   0  0  0  0  0  0  0  0  0  0  0  0
  -24.3326  -10.9933   21.5539 C   0  0  0  0  0  0  0  0  0  0  0  0
  -26.4482  -12.0691   22.4893 C   0  0  0  0  0  0  0  0  0  0  0  0
  -26.6051  -35.5555   24.1220 C   0  0  0  0  0  0  0  0  0  0  0  0
  -25.8993  -29.3748   20.2257 C   0  0  0  0  0  0  0  0  0  0  0  0
  -26.9142  -34.2280   23.7690 C   0  0  0  0  0  0  0  0  0  0  0  0
  -25.0843  -28.4080   20.8317 C   0  0  0  0  0  0  0  0  0  0  0  0
  -29.2654  -20.9707   20.3378 C   0  0  0  0  0  0  0  0  0  0  0  0
  -29.1400  -23.1636   21.3270 C   0  0  0  0  0  0  0  0  0  0  0  0
  -29.3758  -21.8060   21.4266 C   0  0  0  0  0  0  0  0  0  0  0  0
  -21.8981   -9.6487   21.7724 C   0  0  0  0  0  0  0  0  0  0  0  0
  -26.7876  -26.7255   20.4100 C   0  0  0  0  0  0  0  0  0  0  0  0
  -20.6525   -7.9012   22.7299 C   0  0  0  0  0  0  0  0  0  0  0  0
  -20.5381   -5.7046   24.4458 C   0  0  0  0  0  0  0  0  0  0  0  0
  -20.3185   -6.6425   22.2302 C   0  0  0  0  0  0  0  0  0  0  0  0
  -25.5903  -11.6873   21.4404 C   0  0  0  0  0  0  0  0  0  0  0  0
  -28.7881  -23.6859   20.1070 C   0  0  0  0  0  0  0  0  0  0  0  0
  -27.4998  -12.6924   21.8631 C   0  0  0  0  0  0  0  0  0  0  0  0
  -26.3071  -11.8774   23.9032 C   0  0  0  0  0  0  0  0  0  0  0  0
  -24.9328  -31.3824   22.4926 C   0  0  0  0  0  0  0  0  0  0  0  0
  -21.9848  -30.5736   21.4076 C   0  0  0  0  0  0  0  0  0  0  0  0
  -19.2217  -29.1146   20.0351 C   0  0  0  0  0  0  0  0  0  0  0  0
  -29.6039  -16.0890   18.1138 C   0  0  0  0  0  0  0  0  0  0  0  0
  -25.3140  -35.9119   24.8155 C   0  0  0  0  0  0  0  0  0  0  0  0
  -25.4242  -30.7955   20.0905 C   0  0  0  0  0  0  0  0  0  0  0  0
  -29.2588  -23.7922   22.6555 C   0  0  0  0  0  0  0  0  0  0  0  0
  -23.7307  -28.7523   21.3953 C   0  0  0  0  0  0  0  0  0  0  0  0
  -24.2401  -34.8337   24.6949 C   0  0  0  0  0  0  0  0  0  0  0  0
  -28.7596  -12.9354   16.9779 C   0  0  0  0  0  0  0  0  0  0  0  0
  -24.8282  -33.4586   24.9947 C   0  0  0  0  0  0  0  0  0  0  0  0
  -27.9289  -12.3485   18.1189 C   0  0  0  0  0  0  0  0  0  0  0  0
  -28.2506  -18.6632   20.0784 C   0  0  0  0  0  0  0  0  0  0  0  0
  -30.6992  -19.0341   19.5527 C   0  0  0  0  0  0  0  0  0  0  0  0
  -28.4124  -14.4018   16.7484 C   0  0  0  0  0  0  0  0  0  0  0  0
  -28.5142  -17.1559   20.1375 C   0  0  0  0  0  0  0  0  0  0  0  0
  -30.9096  -17.5258   19.6498 C   0  0  0  0  0  0  0  0  0  0  0  0
  -27.7457  -14.6825   19.1137 C   0  0  0  0  0  0  0  0  0  0  0  0
  -29.9504  -22.6460   23.3973 C   0  0  0  0  0  0  0  0  0  0  0  0
  -29.5107  -19.4762   20.4256 C   0  0  0  0  0  0  0  0  0  0  0  0
  -25.9309  -33.0994   23.9914 C   0  0  1  0  0  0  0  0  0  0  0  0
  -24.3617  -31.1706   21.1191 C   0  0  1  0  0  0  0  0  0  0  0  0
  -28.0621  -13.1994   19.3943 C   0  0  1  0  0  0  0  0  0  0  0  0
  -16.7173  -29.1013   20.1930 C   0  0  0  0  0  0  0  0  0  0  0  0
  -22.1573  -28.9217   23.9671 C   0  0  0  0  0  0  0  0  0  0  0  0
  -19.8098  -28.1580   23.5498 C   0  0  0  0  0  0  0  0  0  0  0  0
  -20.2849  -30.5788   23.9193 C   0  0  0  0  0  0  0  0  0  0  0  0
  -18.9244  -30.0191   17.2329 C   0  0  0  0  0  0  0  0  0  0  0  0
  -28.4996  -25.1392   19.9534 C   0  0  0  0  0  0  0  0  0  1  0  0
  -20.9804  -29.4974   21.7424 C   0  0  1  0  0  0  0  0  0  0  0  0
  -17.9294  -29.7068   19.5025 C   0  0  2  0  0  0  0  0  0  0  0  0
  -20.8284  -29.2848   23.2751 C   0  0  0  0  0  0  0  0  0  0  0  0
  -28.6776  -22.9166   18.9986 N   0  0  0  0  0  0  0  0  0  0  0  0
  -26.0565  -12.0387   20.2391 N   0  0  0  0  0  0  0  0  0  0  0  0
  -27.2187  -12.6480   20.5292 N   0  0  0  0  0  0  0  0  0  0  0  0
  -23.3133  -30.1561   21.2443 N   0  0  0  0  0  0  0  0  0  0  0  0
  -28.5476  -15.1749   17.9828 N   0  0  0  0  0  0  0  0  0  0  0  0
  -29.6828  -16.8008   19.3203 N   0  0  0  0  0  0  0  0  0  0  0  0
  -28.6283  -13.2686   22.3288 N   0  0  0  0  0  0  0  0  0  0  0  0
  -25.1653  -11.2173   24.3773 N   0  0  0  0  0  0  0  0  0  0  0  0
  -25.3521  -32.6767   22.7341 N   0  0  0  0  0  0  0  0  0  0  0  0
  -19.7429  -29.8689   21.0650 N   0  0  0  0  0  0  0  0  0  0  0  0
  -17.8099  -29.4568   18.0382 N   0  3  0  0  0  0  0  0  0  0  0  0
  -27.1602  -12.2942   24.7230 O   0  0  0  0  0  0  0  0  0  0  0  0
  -24.9876  -30.4415   23.2759 O   0  0  0  0  0  0  0  0  0  0  0  0
  -21.6034  -31.7406   21.2880 O   0  0  0  0  0  0  0  0  0  0  0  0
  -19.7172  -28.0837   19.5853 O   0  0  0  0  0  0  0  0  0  0  0  0
  -30.4287  -16.2590   17.2072 O   0  0  0  0  0  0  0  0  0  0  0  0
  -29.6989  -21.4032   22.6967 O   0  0  0  0  0  0  0  0  0  0  0  0
  -20.7106   -8.9924   21.8793 O   0  0  0  0  0  0  0  0  0  0  0  0
  -27.2210  -25.4295   20.5061 O   0  0  0  0  0  0  0  0  0  1  0  0
  -20.4846   -4.6497   25.2696 F   0  0  0  0  0  0  0  0  0  0  0  0
  -20.0526   -6.4820   20.9266 F   0  0  0  0  0  0  0  0  0  0  0  0
  1  2  1  0  0  0  0
  1  5  2  0  0  0  0
  2  6  2  0  0  0  0
  3  8  2  0  0  0  0
  3 16  1  0  0  0  0
  4  9  1  0  0  0  0
  4 16  2  0  0  0  0
  5 18  1  0  0  0  0
  6 20  1  0  0  0  0
  7 10  2  0  0  0  0
  7 19  1  0  0  0  0
  8 25  1  0  0  0  0
  9 25  2  0  0  0  0
 10 26  1  0  0  0  0
 11 12  2  0  0  0  0
 11 27  1  0  0  0  0
 12 28  1  0  0  0  0
 13 21  1  0  0  0  0
 13 26  2  0  0  0  0
 14 28  2  0  0  0  0
 14 29  1  0  0  0  0
 15 22  1  0  0  0  0
 15 66  2  0  0  0  0
 16 30  1  0  0  0  0
 17 30  1  0  0  0  0
 17 32  2  0  0  0  0
 17 33  1  0  0  0  0
 18 20  2  0  0  0  0
 18 38  1  0  0  0  0
 19 21  2  0  0  0  0
 19 39  1  0  0  0  0
 20 54  1  0  0  0  0
 21 41  1  0  0  0  0
 22 24  2  0  0  0  0
 22 53  1  0  0  0  0
 23 24  1  0  0  0  0
 23 31  2  0  0  0  0
 23 40  1  0  0  0  0
 24 82  1  0  0  0  0
 25 83  1  0  0  0  0
 26 84  1  0  0  0  0
 27 29  2  0  0  0  0
 27 83  1  0  0  0  0
 28 85  1  0  0  0  0
 29 86  1  0  0  0  0
 30 67  2  0  0  0  0
 31 62  1  0  0  0  0
 31 66  1  0  0  0  0
 32 68  1  0  0  0  0
 32 72  1  0  0  0  0
 33 73  1  0  0  0  0
 33 77  2  0  0  0  0
 34 55  1  0  0  0  0
 34 74  1  0  0  0  0
 34 78  2  0  0  0  0
 35 63  1  0  0  0  0
 35 69  1  0  0  0  0
 35 79  2  0  0  0  0
 36 64  1  0  0  0  0
 36 75  1  0  0  0  0
 36 80  2  0  0  0  0
 37 70  1  0  0  0  0
 37 71  1  0  0  0  0
 37 81  2  0  0  0  0
 38 42  1  0  0  0  0
 39 55  1  0  0  0  0
 40 52  1  0  0  0  0
 41 69  1  0  0  0  0
 42 44  1  0  0  0  0
 43 45  1  0  0  0  0
 43 48  1  0  0  0  0
 44 54  1  0  0  0  0
 45 56  1  0  0  0  0
 46 49  1  0  0  0  0
 46 53  1  0  0  0  0
 47 50  1  0  0  0  0
 47 53  1  0  0  0  0
 48 70  1  0  0  0  0
 49 71  1  0  0  0  0
 50 71  1  0  0  0  0
 51 56  1  0  0  0  0
 51 70  1  0  0  0  0
 52 82  1  0  0  0  0
 54 74  1  0  0  0  0
 55 69  1  0  0  0  0
 56 68  1  0  0  0  0
 57 64  1  0  0  0  0
 58 65  1  0  0  0  0
 59 65  1  0  0  0  0
 60 65  1  0  0  0  0
 61 76  1  0  0  0  0
 62 84  1  0  0  0  0
 63 65  1  0  0  0  0
 63 75  1  0  0  0  0
 64 76  1  0  0  0  0
 67 68  1  0  0  0  0
M  CHG  1  76   1
M  ISO  4  37 100  62 101  71 100  84 101
M  END
> <Batch ID>
0176

> <Smiles>
CNC(C)C(=O)NC(C(=O)N1Cc2cc([101O:1][101CH2:1]c3ncc(C4CC[100N:0]([100C:0](=O)N5CCCC(n6nc(-c7ccc(Oc8ccc(F)cc8F)cc7)c(C(N)=O)c6N)C5)CC4)c4c3CCO4)ccc2CC1C(=O)NC1CCCc2ccccc21)C(C)(C)C

> <Shape>
0.327

> <Color>
0.072

> <Negative vol penalty>
0.000

$$$$

  -OEChem-04052322503D

 81 90  0     1  0  0  0  0  0999 V2000
  -27.7848  -12.5633   17.9378 C   0  0  0  0  0  0  0  0  0  0  0  0
  -27.6357  -13.9221   17.6796 C   0  0  0  0  0  0  0  0  0  0  0  0
  -29.3774  -28.1358   20.0121 C   0  0  0  0  0  0  0  0  0  0  0  0
  -27.7223  -26.5644   19.2192 C   0  0  0  0  0  0  0  0  0  0  0  0
  -26.9708  -11.9411   18.8835 C   0  0  0  0  0  0  0  0  0  0  0  0
  -26.6716  -14.6594   18.3661 C   0  0  0  0  0  0  0  0  0  0  0  0
  -25.4783  -21.2199   20.9840 C   0  0  0  0  0  0  0  0  0  0  0  0
  -30.3664  -27.1612   19.8791 C   0  0  0  0  0  0  0  0  0  0  0  0
  -28.7113  -25.5898   19.0862 C   0  0  0  0  0  0  0  0  0  0  0  0
  -24.5253  -22.2369   20.9483 C   0  0  0  0  0  0  0  0  0  0  0  0
  -30.4091  -23.4720   21.1020 C   0  0  0  0  0  0  0  0  0  0  0  0
  -30.1248  -22.1914   21.5759 C   0  0  0  0  0  0  0  0  0  0  0  0
  -23.2293  -21.0729   22.6170 C   0  0  0  0  0  0  0  0  0  0  0  0
  -30.4535  -21.2968   19.3558 C   0  0  0  0  0  0  0  0  0  0  0  0
  -19.2396  -24.0225   21.6742 C   0  0  0  0  0  0  0  0  0  0  0  0
  -28.0553  -27.8374   19.6822 C   0  0  0  0  0  0  0  0  0  0  0  0
  -26.6176  -29.7719   18.8467 C   0  0  0  0  0  0  0  0  0  0  0  0
  -26.0028  -12.6732   19.5889 C   0  0  0  0  0  0  0  0  0  0  0  0
  -25.3082  -20.1145   21.8300 C   0  0  0  0  0  0  0  0  0  0  0  0
  -25.8429  -14.0462   19.3211 C   0  0  0  0  0  0  0  0  0  0  0  0
  -24.1829  -20.0445   22.6635 C   0  0  0  0  0  0  0  0  0  0  0  0
  -30.0334  -25.8883   19.4162 C   0  0  0  0  0  0  0  0  0  0  0  0
  -23.3992  -22.1621   21.7627 C   0  0  0  0  0  0  0  0  0  0  0  0
  -30.7155  -23.6652   19.7549 C   0  0  0  0  0  0  0  0  0  0  0  0
  -30.1470  -21.1037   20.7028 C   0  0  0  0  0  0  0  0  0  0  0  0
  -30.7377  -22.5775   18.8818 C   0  0  0  0  0  0  0  0  0  0  0  0
  -27.0331  -28.8435   19.8199 C   0  0  0  0  0  0  0  0  0  0  0  0
  -18.7554  -26.2069   21.9951 C   0  0  0  0  0  0  0  0  0  0  0  0
  -19.9333  -26.3674   22.7027 C   0  0  0  0  0  0  0  0  0  0  0  0
  -20.4191  -24.1807   22.3879 C   0  0  0  0  0  0  0  0  0  0  0  0
  -25.6299  -30.4988   19.4652 C   0  0  0  0  0  0  0  0  0  0  0  0
  -27.0827  -29.9604   17.5036 C   0  0  0  0  0  0  0  0  0  0  0  0
  -24.9821  -16.9832   21.3914 C   0  0  0  0  0  0  0  0  0  0  0  0
  -25.1404  -16.9071   24.6304 C   0  0  0  0  0  0  0  0  0  0  0  0
  -24.7191  -18.5514   27.5911 C   0  0  0  0  0  0  0  0  0  0  0  0
  -21.8987  -29.3049   23.9835 C   0  0  0  0  0  0  0  0  0  0  0  0
  -25.1142  -11.9472   20.5677 C   0  0  0  0  0  0  0  0  0  0  0  0
  -26.3586  -19.0389   21.8764 C   0  0  0  0  0  0  0  0  0  0  0  0
  -23.9635  -18.8889   23.6043 C   0  0  0  0  0  0  0  0  0  0  0  0
  -17.9670  -27.4810   21.9528 C   0  0  0  0  0  0  0  0  0  0  0  0
  -24.3703  -12.8783   21.5216 C   0  0  0  0  0  0  0  0  0  0  0  0
  -19.0584  -28.5050   22.3096 C   0  0  0  0  0  0  0  0  0  0  0  0
  -24.2246  -31.9818   23.7932 C   0  0  0  0  0  0  0  0  0  0  0  0
  -23.7481  -14.0413   20.7554 C   0  0  0  0  0  0  0  0  0  0  0  0
  -25.1688  -31.5688   22.6627 C   0  0  0  0  0  0  0  0  0  0  0  0
  -23.7800  -30.7802   24.6242 C   0  0  0  0  0  0  0  0  0  0  0  0
  -24.1366  -29.2597   22.7197 C   0  0  0  0  0  0  0  0  0  0  0  0
  -24.8252  -14.8851   20.0631 C   0  0  1  0  0  0  0  0  0  0  0  0
  -20.0613  -27.7709   23.2225 C   0  0  2  0  0  0  0  0  0  0  0  0
  -25.8281  -17.7078   22.3998 C   0  0  1  0  0  0  0  0  0  0  0  0
  -24.5682  -30.4289   21.8178 C   0  0  2  0  0  0  0  0  0  0  0  0
  -24.8903  -18.2164   30.0722 C   0  0  0  0  0  0  0  0  0  0  0  0
  -22.5242  -15.3373   24.5965 C   0  0  0  0  0  0  0  0  0  0  0  0
  -22.2623  -15.8560   27.0318 C   0  0  0  0  0  0  0  0  0  0  0  0
  -24.2133  -14.5143   26.2470 C   0  0  0  0  0  0  0  0  0  0  0  0
  -26.7872  -20.6527   27.8490 C   0  0  0  0  0  0  0  0  0  0  0  0
  -21.3380  -23.0120   22.5904 C   0  0  0  0  0  0  0  0  0  1  0  0
  -24.1338  -16.9924   25.7523 C   0  0  1  0  0  0  0  0  0  0  0  0
  -25.6120  -18.6707   28.8130 C   0  0  2  0  0  0  0  0  0  0  0  0
  -23.2863  -15.6960   25.8879 C   0  0  0  0  0  0  0  0  0  0  0  0
  -18.3726  -25.0379   21.4654 N   0  0  0  0  0  0  0  0  0  0  0  0
  -26.3642  -28.9672   20.9694 N   0  0  0  0  0  0  0  0  0  0  0  0
  -20.7911  -25.3627   22.9276 N   0  0  0  0  0  0  0  0  0  0  0  0
  -25.5184  -29.9820   20.7224 N   0  0  0  0  0  0  0  0  0  0  0  0
  -25.0157  -17.8592   23.6087 N   0  0  0  0  0  0  0  0  0  0  0  0
  -23.2149  -29.7394   23.7616 N   0  0  0  0  0  0  0  0  0  0  0  0
  -24.8546  -31.5234   19.0509 N   0  0  0  0  0  0  0  0  0  0  0  0
  -28.1036  -29.1268   17.0270 N   0  0  0  0  0  0  0  0  0  0  0  0
  -25.4822  -15.7498   21.0198 N   0  0  0  0  0  0  0  0  0  0  0  0
  -24.8877  -17.3416   26.9515 N   0  0  0  0  0  0  0  0  0  0  0  0
  -21.4283  -28.3215   23.1195 N   0  0  0  0  0  0  0  0  0  0  0  0
  -26.0439  -20.0843   29.0029 N   0  3  0  0  0  0  0  0  0  0  0  0
  -26.6185  -30.8526   16.7540 O   0  0  0  0  0  0  0  0  0  0  0  0
  -23.9511  -17.5040   20.9819 O   0  0  0  0  0  0  0  0  0  0  0  0
  -26.0097  -16.0326   24.6631 O   0  0  0  0  0  0  0  0  0  0  0  0
  -23.9464  -19.4409   27.2413 O   0  0  0  0  0  0  0  0  0  0  0  0
  -21.1838  -29.7624   24.8818 O   0  0  0  0  0  0  0  0  0  0  0  0
  -30.9982  -24.9371   19.2861 O   0  0  0  0  0  0  0  0  0  0  0  0
  -22.4672  -23.1531   21.7293 O   0  0  0  0  0  0  0  0  0  1  0  0
  -29.8756  -19.8737   21.1584 F   0  0  0  0  0  0  0  0  0  0  0  0
  -31.0325  -22.7567   17.5869 F   0  0  0  0  0  0  0  0  0  0  0  0
  1  2  1  0  0  0  0
  1  5  2  0  0  0  0
  2  6  2  0  0  0  0
  3  8  2  0  0  0  0
  3 16  1  0  0  0  0
  4  9  1  0  0  0  0
  4 16  2  0  0  0  0
  5 18  1  0  0  0  0
  6 20  1  0  0  0  0
  7 10  2  0  0  0  0
  7 19  1  0  0  0  0
  8 22  1  0  0  0  0
  9 22  2  0  0  0  0
 10 23  1  0  0  0  0
 11 12  2  0  0  0  0
 11 24  1  0  0  0  0
 12 25  1  0  0  0  0
 13 21  1  0  0  0  0
 13 23  2  0  0  0  0
 14 25  2  0  0  0  0
 14 26  1  0  0  0  0
 15 30  1  0  0  0  0
 15 61  2  0  0  0  0
 16 27  1  0  0  0  0
 17 27  1  0  0  0  0
 17 31  2  0  0  0  0
 17 32  1  0  0  0  0
 18 20  2  0  0  0  0
 18 37  1  0  0  0  0
 19 21  2  0  0  0  0
 19 38  1  0  0  0  0
 20 48  1  0  0  0  0
 21 39  1  0  0  0  0
 22 78  1  0  0  0  0
 23 79  1  0  0  0  0
 24 26  2  0  0  0  0
 24 78  1  0  0  0  0
 25 80  1  0  0  0  0
 26 81  1  0  0  0  0
 27 62  2  0  0  0  0
 28 29  2  0  0  0  0
 28 40  1  0  0  0  0
 28 61  1  0  0  0  0
 29 49  1  0  0  0  0
 29 63  1  0  0  0  0
 30 57  1  0  0  0  0
 30 63  2  0  0  0  0
 31 64  1  0  0  0  0
 31 67  1  0  0  0  0
 32 68  1  0  0  0  0
 32 73  2  0  0  0  0
 33 50  1  0  0  0  0
 33 69  1  0  0  0  0
 33 74  2  0  0  0  0
 34 58  1  0  0  0  0
 34 65  1  0  0  0  0
 34 75  2  0  0  0  0
 35 59  1  0  0  0  0
 35 70  1  0  0  0  0
 35 76  2  0  0  0  0
 36 66  1  0  0  0  0
 36 71  1  0  0  0  0
 36 77  2  0  0  0  0
 37 41  1  0  0  0  0
 38 50  1  0  0  0  0
 39 65  1  0  0  0  0
 40 42  1  0  0  0  0
 41 44  1  0  0  0  0
 42 49  1  0  0  0  0
 43 45  1  0  0  0  0
 43 46  1  0  0  0  0
 44 48  1  0  0  0  0
 45 51  1  0  0  0  0
 46 66  1  0  0  0  0
 47 51  1  0  0  0  0
 47 66  1  0  0  0  0
 48 69  1  0  0  0  0
 49 71  1  0  0  0  0
 50 65  1  0  0  0  0
 51 64  1  0  0  0  0
 52 59  1  0  0  0  0
 53 60  1  0  0  0  0
 54 60  1  0  0  0  0
 55 60  1  0  0  0  0
 56 72  1  0  0  0  0
 57 79  1  0  0  0  0
 58 60  1  0  0  0  0
 58 70  1  0  0  0  0
 59 72  1  0  0  0  0
 62 64  1  0  0  0  0
M  CHG  1  72   1
M  ISO  4  36 100  57 101  71 100  79 101
M  END
> <Batch ID>
0176

> <Smiles>
CNC(C)C(=O)NC(C(=O)N1Cc2cc([101O:1][101CH2:1]c3cnc4c(n3)C([100NH:0][100C:0](=O)N3CCCC(n5nc(-c6ccc(Oc7ccc(F)cc7F)cc6)c(C(N)=O)c5N)C3)CC4)ccc2CC1C(=O)NC1CCCc2ccccc21)C(C)(C)C

> <Shape>
0.216

> <Color>
0.055

> <Negative vol penalty>
0.000

$$$$

  -OEChem-04052322503D

 78 86  0     1  0  0  0  0  0999 V2000
  -31.9604  -30.3833   24.4659 C   0  0  0  0  0  0  0  0  0  0  0  0
  -31.7059  -29.1079   23.9720 C   0  0  0  0  0  0  0  0  0  0  0  0
  -23.1280   -9.8284   21.3708 C   0  0  0  0  0  0  0  0  0  0  0  0
  -23.8236  -10.6659   23.5276 C   0  0  0  0  0  0  0  0  0  0  0  0
  -31.0146  -31.0204   25.2681 C   0  0  0  0  0  0  0  0  0  0  0  0
  -30.5060  -28.4683   24.2809 C   0  0  0  0  0  0  0  0  0  0  0  0
  -27.3153  -24.6853   20.6734 C   0  0  0  0  0  0  0  0  0  0  0  0
  -22.3937   -8.8221   21.9984 C   0  0  0  0  0  0  0  0  0  0  0  0
  -23.0893   -9.6596   24.1552 C   0  0  0  0  0  0  0  0  0  0  0  0
  -27.2406  -23.2948   20.6053 C   0  0  0  0  0  0  0  0  0  0  0  0
  -23.0043   -5.8367   23.4610 C   0  0  0  0  0  0  0  0  0  0  0  0
  -23.1117   -4.5430   22.9509 C   0  0  0  0  0  0  0  0  0  0  0  0
  -25.2694  -23.3387   21.9952 C   0  0  0  0  0  0  0  0  0  0  0  0
  -20.7358   -4.5183   22.5132 C   0  0  0  0  0  0  0  0  0  0  0  0
  -23.8430  -10.7502   22.1355 C   0  0  0  0  0  0  0  0  0  0  0  0
  -24.1526  -13.0758   21.1336 C   0  0  0  0  0  0  0  0  0  0  0  0
  -29.7983  -30.3922   25.5791 C   0  0  0  0  0  0  0  0  0  0  0  0
  -26.3724  -25.4134   21.4131 C   0  0  0  0  0  0  0  0  0  0  0  0
  -29.5436  -29.0971   25.0892 C   0  0  0  0  0  0  0  0  0  0  0  0
  -25.3329  -24.7386   22.0690 C   0  0  0  0  0  0  0  0  0  0  0  0
  -22.3743   -8.7377   23.3905 C   0  0  0  0  0  0  0  0  0  0  0  0
  -26.2192  -22.6211   21.2686 C   0  0  0  0  0  0  0  0  0  0  0  0
  -21.7626   -6.4713   23.4973 C   0  0  0  0  0  0  0  0  0  0  0  0
  -21.9774   -3.8837   22.4770 C   0  0  0  0  0  0  0  0  0  0  0  0
  -20.6284   -5.8121   23.0233 C   0  0  0  0  0  0  0  0  0  0  0  0
  -24.6022  -11.7896   21.4878 C   0  0  0  0  0  0  0  0  0  0  0  0
  -25.2438  -13.6726   20.5508 C   0  0  0  0  0  0  0  0  0  0  0  0
  -22.8638  -13.6773   21.3151 C   0  0  0  0  0  0  0  0  0  0  0  0
  -26.5044  -27.3380   23.9394 C   0  0  0  0  0  0  0  0  0  0  0  0
  -23.3617  -27.7870   23.2732 C   0  0  0  0  0  0  0  0  0  0  0  0
  -20.5066  -26.5958   21.8322 C   0  0  0  0  0  0  0  0  0  0  0  0
  -30.5881  -14.8319   20.2959 C   0  0  0  0  0  0  0  0  0  0  0  0
  -28.8269  -31.1015   26.4890 C   0  0  0  0  0  0  0  0  0  0  0  0
  -26.4513  -26.9149   21.4547 C   0  0  0  0  0  0  0  0  0  0  0  0
  -24.2839  -25.4752   22.8598 C   0  0  0  0  0  0  0  0  0  0  0  0
  -27.4212  -30.5067   26.4615 C   0  0  0  0  0  0  0  0  0  0  0  0
  -29.6654  -11.7379   19.0591 C   0  0  0  0  0  0  0  0  0  0  0  0
  -27.4828  -28.9863   26.5678 C   0  0  0  0  0  0  0  0  0  0  0  0
  -28.2258  -11.5680   19.5441 C   0  0  0  0  0  0  0  0  0  0  0  0
  -28.8785  -18.1147   20.1309 C   0  0  0  0  0  0  0  0  0  0  0  0
  -28.3901  -17.0498   22.3617 C   0  0  0  0  0  0  0  0  0  0  0  0
  -30.5370  -12.3606   20.1439 C   0  0  0  0  0  0  0  0  0  0  0  0
  -30.1208  -17.2373   20.0050 C   0  0  0  0  0  0  0  0  0  0  0  0
  -29.6437  -16.1970   22.1964 C   0  0  0  0  0  0  0  0  0  0  0  0
  -28.5896  -13.5180   21.1358 C   0  0  0  0  0  0  0  0  0  0  0  0
  -28.2432  -28.3806   25.3819 C   0  0  1  0  0  0  0  0  0  0  0  0
  -25.7368  -27.5177   22.6603 C   0  0  1  0  0  0  0  0  0  0  0  0
  -28.5141  -18.3753   21.5982 C   0  0  0  0  0  0  0  0  0  0  0  0
  -27.6603  -12.8980   20.0730 C   0  0  2  0  0  0  0  0  0  0  0  0
  -18.0884  -27.1689   21.4843 C   0  0  0  0  0  0  0  0  0  0  0  0
  -22.7685  -27.0314   26.1693 C   0  0  0  0  0  0  0  0  0  0  0  0
  -20.3744  -26.6956   25.5182 C   0  0  0  0  0  0  0  0  0  0  0  0
  -21.4218  -28.9486   25.2945 C   0  0  0  0  0  0  0  0  0  0  0  0
  -20.8136  -26.6105   18.8887 C   0  0  0  0  0  0  0  0  0  0  0  0
  -27.2241  -19.1852   21.7029 C   0  0  0  0  0  0  0  0  0  0  0  0
  -27.3693  -20.5504   21.0556 C   0  0  0  0  0  0  0  0  0  1  0  0
  -22.0749  -27.1127   23.6836 C   0  0  1  0  0  0  0  0  0  0  0  0
  -19.4943  -27.2514   20.9104 C   0  0  2  0  0  0  0  0  0  0  0  0
  -21.6806  -27.4327   25.1532 C   0  0  0  0  0  0  0  0  0  0  0  0
  -25.8794  -11.5808   21.1575 N   0  0  0  0  0  0  0  0  0  0  0  0
  -26.2417  -12.7437   20.5896 N   0  0  0  0  0  0  0  0  0  0  0  0
  -24.4077  -26.9422   22.8756 N   0  0  0  0  0  0  0  0  0  0  0  0
  -29.9640  -13.6185   20.6226 N   0  0  0  0  0  0  0  0  0  0  0  0
  -29.9868  -16.0052   20.7810 N   0  0  0  0  0  0  0  0  0  0  0  0
  -25.4374  -14.8960   20.0141 N   0  0  0  0  0  0  0  0  0  0  0  0
  -21.8557  -12.9238   21.9320 N   0  0  0  0  0  0  0  0  0  0  0  0
  -27.4033  -28.3537   24.2036 N   0  0  0  0  0  0  0  0  0  0  0  0
  -21.0748  -27.5068   22.6973 N   0  0  0  0  0  0  0  0  0  0  0  0
  -19.4980  -26.5834   19.5782 N   0  3  0  0  0  0  0  0  0  0  0  0
  -22.6088  -14.8424   20.9266 O   0  0  0  0  0  0  0  0  0  0  0  0
  -26.2955  -26.3517   24.6360 O   0  0  0  0  0  0  0  0  0  0  0  0
  -23.4337  -29.0182   23.2975 O   0  0  0  0  0  0  0  0  0  0  0  0
  -20.7646  -25.3948   21.7916 O   0  0  0  0  0  0  0  0  0  0  0  0
  -31.6168  -14.8683   19.6093 O   0  0  0  0  0  0  0  0  0  0  0  0
  -21.6577   -7.7561   24.0033 O   0  0  0  0  0  0  0  0  0  0  0  0
  -26.1438  -21.2538   21.2039 O   0  0  0  0  0  0  0  0  0  1  0  0
  -22.0810   -2.6419   21.9858 F   0  0  0  0  0  0  0  0  0  0  0  0
  -19.4330   -6.4170   23.0544 F   0  0  0  0  0  0  0  0  0  0  0  0
  1  2  1  0  0  0  0
  1  5  2  0  0  0  0
  2  6  2  0  0  0  0
  3  8  2  0  0  0  0
  3 15  1  0  0  0  0
  4  9  1  0  0  0  0
  4 15  2  0  0  0  0
  5 17  1  0  0  0  0
  6 19  1  0  0  0  0
  7 10  2  0  0  0  0
  7 18  1  0  0  0  0
  8 21  1  0  0  0  0
  9 21  2  0  0  0  0
 10 22  1  0  0  0  0
 11 12  2  0  0  0  0
 11 23  1  0  0  0  0
 12 24  1  0  0  0  0
 13 20  1  0  0  0  0
 13 22  2  0  0  0  0
 14 24  2  0  0  0  0
 14 25  1  0  0  0  0
 15 26  1  0  0  0  0
 16 26  1  0  0  0  0
 16 27  2  0  0  0  0
 16 28  1  0  0  0  0
 17 19  2  0  0  0  0
 17 33  1  0  0  0  0
 18 20  2  0  0  0  0
 18 34  1  0  0  0  0
 19 46  1  0  0  0  0
 20 35  1  0  0  0  0
 21 75  1  0  0  0  0
 22 76  1  0  0  0  0
 23 25  2  0  0  0  0
 23 75  1  0  0  0  0
 24 77  1  0  0  0  0
 25 78  1  0  0  0  0
 26 60  2  0  0  0  0
 27 61  1  0  0  0  0
 27 65  1  0  0  0  0
 28 66  1  0  0  0  0
 28 70  2  0  0  0  0
 29 47  1  0  0  0  0
 29 67  1  0  0  0  0
 29 71  2  0  0  0  0
 30 57  1  0  0  0  0
 30 62  1  0  0  0  0
 30 72  2  0  0  0  0
 31 58  1  0  0  0  0
 31 68  1  0  0  0  0
 31 73  2  0  0  0  0
 32 63  1  0  0  0  0
 32 64  1  0  0  0  0
 32 74  2  0  0  0  0
 33 36  1  0  0  0  0
 34 47  1  0  0  0  0
 35 62  1  0  0  0  0
 36 38  1  0  0  0  0
 37 39  1  0  0  0  0
 37 42  1  0  0  0  0
 38 46  1  0  0  0  0
 39 49  1  0  0  0  0
 40 43  1  0  0  0  0
 40 48  1  0  0  0  0
 41 44  1  0  0  0  0
 41 48  1  0  0  0  0
 42 63  1  0  0  0  0
 43 64  1  0  0  0  0
 44 64  1  0  0  0  0
 45 49  1  0  0  0  0
 45 63  1  0  0  0  0
 46 67  1  0  0  0  0
 47 62  1  0  0  0  0
 48 55  1  0  0  0  0
 49 61  1  0  0  0  0
 50 58  1  0  0  0  0
 51 59  1  0  0  0  0
 52 59  1  0  0  0  0
 53 59  1  0  0  0  0
 54 69  1  0  0  0  0
 55 56  1  0  0  0  0
 56 76  1  0  0  0  0
 57 59  1  0  0  0  0
 57 68  1  0  0  0  0
 58 69  1  0  0  0  0
 60 61  1  0  0  0  0
M  CHG  1  69   1
M  ISO  4  32 100  56 101  64 100  76 101
M  END
> <Batch ID>
0176

> <Smiles>
CNC(C)C(=O)NC(C(=O)N1Cc2cc([101O:1][101CH2:1]CC3CC[100N:0]([100C:0](=O)N4CCCC(n5nc(-c6ccc(Oc7ccc(F)cc7F)cc6)c(C(N)=O)c5N)C4)CC3)ccc2CC1C(=O)NC1CCCc2ccccc21)C(C)(C)C

> <Shape>
0.245

> <Color>
0.182

> <Negative vol penalty>
0.000

$$$$

  -OEChem-04052322503D

 85 94  0     1  0  0  0  0  0999 V2000
  -29.7783  -11.9470   19.9405 C   0  0  0  0  0  0  0  0  0  0  0  0
  -29.9137  -13.3288   19.8520 C   0  0  0  0  0  0  0  0  0  0  0  0
  -28.6824  -23.8005   18.4098 C   0  0  0  0  0  0  0  0  0  0  0  0
  -30.7329  -24.8074   19.1964 C   0  0  0  0  0  0  0  0  0  0  0  0
  -28.5248  -11.3587   19.7776 C   0  0  0  0  0  0  0  0  0  0  0  0
  -28.7957  -14.1230   19.5995 C   0  0  0  0  0  0  0  0  0  0  0  0
  -26.0768  -20.5769   21.1063 C   0  0  0  0  0  0  0  0  0  0  0  0
  -22.8089  -25.9502   16.6238 C   0  0  0  0  0  0  0  0  0  0  0  0
  -29.3995  -23.0953   17.4433 C   0  0  0  0  0  0  0  0  0  0  0  0
  -31.4500  -24.1022   18.2299 C   0  0  0  0  0  0  0  0  0  0  0  0
  -25.5465  -21.6978   20.4690 C   0  0  0  0  0  0  0  0  0  0  0  0
  -31.3387  -20.3288   17.3058 C   0  0  0  0  0  0  0  0  0  0  0  0
  -31.0407  -18.9768   17.1356 C   0  0  0  0  0  0  0  0  0  0  0  0
  -23.5148  -24.9080   17.2145 C   0  0  0  0  0  0  0  0  0  0  0  0
  -23.4180  -20.5778   20.2836 C   0  0  0  0  0  0  0  0  0  0  0  0
  -30.4379  -19.3994   14.8344 C   0  0  0  0  0  0  0  0  0  0  0  0
  -29.3491  -24.6566   19.2863 C   0  0  0  0  0  0  0  0  0  0  0  0
  -28.3111  -24.9685   21.5956 C   0  0  0  0  0  0  0  0  0  0  0  0
  -27.3893  -12.1468   19.5325 C   0  0  0  0  0  0  0  0  0  0  0  0
  -25.2834  -19.4420   21.3277 C   0  0  0  0  0  0  0  0  0  0  0  0
  -27.5260  -13.5445   19.4318 C   0  0  0  0  0  0  0  0  0  0  0  0
  -23.9400  -19.4448   20.9262 C   0  0  0  0  0  0  0  0  0  0  0  0
  -22.4247  -27.0446   17.3906 C   0  0  0  0  0  0  0  0  0  0  0  0
  -30.7833  -23.2461   17.3534 C   0  0  0  0  0  0  0  0  0  0  0  0
  -24.2177  -21.6972   20.0549 C   0  0  0  0  0  0  0  0  0  0  0  0
  -31.1863  -21.2161   16.2403 C   0  0  0  0  0  0  0  0  0  0  0  0
  -30.5903  -18.5121   15.8999 C   0  0  0  0  0  0  0  0  0  0  0  0
  -30.7359  -20.7514   15.0046 C   0  0  0  0  0  0  0  0  0  0  0  0
  -28.6089  -25.3858   20.2845 C   0  0  0  0  0  0  0  0  0  0  0  0
  -22.7680  -27.0486   18.7329 C   0  0  0  0  0  0  0  0  0  0  0  0
  -23.8095  -25.0078   18.5647 C   0  0  0  0  0  0  0  0  0  0  0  0
  -27.5946  -26.0098   22.1330 C   0  0  0  0  0  0  0  0  0  0  0  0
  -28.6517  -23.7487   22.2677 C   0  0  0  0  0  0  0  0  0  0  0  0
  -25.3948  -16.4086   20.3846 C   0  0  0  0  0  0  0  0  0  0  0  0
  -22.9009  -16.0868   22.4338 C   0  0  0  0  0  0  0  0  0  0  0  0
  -20.3047  -17.5564   24.0912 C   0  0  0  0  0  0  0  0  0  0  0  0
  -23.6790  -29.9030   21.7818 C   0  0  0  0  0  0  0  0  0  0  0  0
  -26.0631  -11.4619   19.3164 C   0  0  0  0  0  0  0  0  0  0  0  0
  -25.8631  -18.2511   22.0404 C   0  0  0  0  0  0  0  0  0  0  0  0
  -23.0405  -18.2592   21.1585 C   0  0  0  0  0  0  0  0  0  0  0  0
  -24.8665  -12.4036   19.4238 C   0  0  0  0  0  0  0  0  0  0  0  0
  -26.8100  -30.7000   20.4456 C   0  0  0  0  0  0  0  0  0  0  0  0
  -25.1205  -13.6821   18.6315 C   0  0  0  0  0  0  0  0  0  0  0  0
  -27.5371  -29.3588   20.3733 C   0  0  0  0  0  0  0  0  0  0  0  0
  -21.0033  -28.2231   20.2091 C   0  0  0  0  0  0  0  0  0  0  0  0
  -25.3429  -30.5432   20.0662 C   0  0  0  0  0  0  0  0  0  0  0  0
  -25.3236  -28.1974   20.8598 C   0  0  0  0  0  0  0  0  0  0  0  0
  -26.3328  -14.4417   19.1837 C   0  0  1  0  0  0  0  0  0  0  0  0
  -22.3754  -28.2047   19.5949 C   0  0  1  0  0  0  0  0  0  0  0  0
  -25.1076  -16.9571   21.7536 C   0  0  1  0  0  0  0  0  0  0  0  0
  -26.8186  -28.2999   21.2262 C   0  0  1  0  0  0  0  0  0  0  0  0
  -22.2020  -27.9811   21.0778 C   0  0  1  0  0  0  0  0  0  0  0  0
  -21.6681  -28.1626   16.7601 C   0  0  0  0  0  0  0  0  0  0  0  0
  -23.1800  -27.8837   24.7904 C   0  0  0  0  0  0  0  0  0  0  0  0
  -18.4207  -17.0299   25.6630 C   0  0  0  0  0  0  0  0  0  0  0  0
  -21.3336  -14.8379   20.1330 C   0  0  0  0  0  0  0  0  0  0  0  0
  -19.2375  -15.2109   21.4504 C   0  0  0  0  0  0  0  0  0  0  0  0
  -21.0190  -13.7101   22.3428 C   0  0  0  0  0  0  0  0  0  0  0  0
  -21.3708  -19.3797   26.1643 C   0  0  0  0  0  0  0  0  0  0  0  0
  -24.5701  -23.9017   19.2351 C   0  0  0  0  0  0  0  0  0  1  0  0
  -21.7994  -28.0706   24.1768 C   0  0  0  0  0  0  0  0  0  0  0  0
  -21.7551  -29.2056   23.1607 C   0  0  0  0  0  0  0  0  0  0  0  0
  -21.4006  -16.2093   22.3195 C   0  0  1  0  0  0  0  0  0  0  0  0
  -19.8668  -17.4847   25.5429 C   0  0  2  0  0  0  0  0  0  0  0  0
  -20.7649  -15.0138   21.5552 C   0  0  0  0  0  0  0  0  0  0  0  0
  -28.1213  -26.5977   20.0058 N   0  0  0  0  0  0  0  0  0  0  0  0
  -23.4530  -26.0549   19.3419 N   0  0  0  0  0  0  0  0  0  0  0  0
  -27.5098  -26.9507   21.1493 N   0  0  0  0  0  0  0  0  0  0  0  0
  -23.6554  -17.1164   21.8538 N   0  0  0  0  0  0  0  0  0  0  0  0
  -24.6855  -29.5218   20.8826 N   0  0  0  0  0  0  0  0  0  0  0  0
  -27.0350  -26.2032   23.3462 N   0  0  0  0  0  0  0  0  0  0  0  0
  -29.3920  -22.7852   21.5691 N   0  0  0  0  0  0  0  0  0  0  0  0
  -25.9754  -15.1547   20.3913 N   0  0  0  0  0  0  0  0  0  0  0  0
  -20.9005  -16.3832   23.6789 N   0  0  0  0  0  0  0  0  0  0  0  0
  -22.6522  -28.9769   22.0335 N   0  0  0  0  0  0  0  0  0  0  0  0
  -19.9942  -18.8217   26.1889 N   0  3  0  0  0  0  0  0  0  0  0  0
  -28.2957  -23.5130   23.4472 O   0  0  0  0  0  0  0  0  0  0  0  0
  -25.1093  -17.0731   19.3953 O   0  0  0  0  0  0  0  0  0  0  0  0
  -23.3854  -15.1170   23.0225 O   0  0  0  0  0  0  0  0  0  0  0  0
  -20.1319  -18.5520   23.3916 O   0  0  0  0  0  0  0  0  0  0  0  0
  -23.6815  -31.0192   22.3173 O   0  0  0  0  0  0  0  0  0  0  0  0
  -31.4833  -22.5579   16.4106 O   0  0  0  0  0  0  0  0  0  0  0  0
  -23.6977  -22.7897   19.4320 O   0  0  0  0  0  0  0  0  0  1  0  0
  -30.3056  -17.2135   15.7362 F   0  0  0  0  0  0  0  0  0  0  0  0
  -30.5886  -21.5988   13.9770 F   0  0  0  0  0  0  0  0  0  0  0  0
  1  2  1  0  0  0  0
  1  5  2  0  0  0  0
  2  6  2  0  0  0  0
  3  9  2  0  0  0  0
  3 17  1  0  0  0  0
  4 10  1  0  0  0  0
  4 17  2  0  0  0  0
  5 19  1  0  0  0  0
  6 21  1  0  0  0  0
  7 11  2  0  0  0  0
  7 20  1  0  0  0  0
  8 14  2  0  0  0  0
  8 23  1  0  0  0  0
  9 24  1  0  0  0  0
 10 24  2  0  0  0  0
 11 25  1  0  0  0  0
 12 13  2  0  0  0  0
 12 26  1  0  0  0  0
 13 27  1  0  0  0  0
 14 31  1  0  0  0  0
 15 22  1  0  0  0  0
 15 25  2  0  0  0  0
 16 27  2  0  0  0  0
 16 28  1  0  0  0  0
 17 29  1  0  0  0  0
 18 29  1  0  0  0  0
 18 32  2  0  0  0  0
 18 33  1  0  0  0  0
 19 21  2  0  0  0  0
 19 38  1  0  0  0  0
 20 22  2  0  0  0  0
 20 39  1  0  0  0  0
 21 48  1  0  0  0  0
 22 40  1  0  0  0  0
 23 30  2  0  0  0  0
 23 53  1  0  0  0  0
 24 82  1  0  0  0  0
 25 83  1  0  0  0  0
 26 28  2  0  0  0  0
 26 82  1  0  0  0  0
 27 84  1  0  0  0  0
 28 85  1  0  0  0  0
 29 66  2  0  0  0  0
 30 49  1  0  0  0  0
 30 67  1  0  0  0  0
 31 60  1  0  0  0  0
 31 67  2  0  0  0  0
 32 68  1  0  0  0  0
 32 71  1  0  0  0  0
 33 72  1  0  0  0  0
 33 77  2  0  0  0  0
 34 50  1  0  0  0  0
 34 73  1  0  0  0  0
 34 78  2  0  0  0  0
 35 63  1  0  0  0  0
 35 69  1  0  0  0  0
 35 79  2  0  0  0  0
 36 64  1  0  0  0  0
 36 74  1  0  0  0  0
 36 80  2  0  0  0  0
 37 70  1  0  0  0  0
 37 75  1  0  0  0  0
 37 81  2  0  0  0  0
 38 41  1  0  0  0  0
 39 50  1  0  0  0  0
 40 69  1  0  0  0  0
 41 43  1  0  0  0  0
 42 44  1  0  0  0  0
 42 46  1  0  0  0  0
 43 48  1  0  0  0  0
 44 51  1  0  0  0  0
 45 49  1  0  0  0  0
 45 52  1  0  0  0  0
 46 70  1  0  0  0  0
 47 51  1  0  0  0  0
 47 70  1  0  0  0  0
 48 73  1  0  0  0  0
 49 52  1  0  0  0  0
 50 69  1  0  0  0  0
 51 68  1  0  0  0  0
 52 75  1  0  0  0  0
 54 61  1  0  0  0  0
 55 64  1  0  0  0  0
 56 65  1  0  0  0  0
 57 65  1  0  0  0  0
 58 65  1  0  0  0  0
 59 76  1  0  0  0  0
 60 83  1  0  0  0  0
 61 62  1  0  0  0  0
 62 75  1  0  0  0  0
 63 65  1  0  0  0  0
 63 74  1  0  0  0  0
 64 76  1  0  0  0  0
 66 68  1  0  0  0  0
M  CHG  1  76   1
M  ISO  4  37 100  60 101  75 100  83 101
M  END
> <Batch ID>
0176

> <Smiles>
CCC[100N:0](C1CC1c1nc([101CH2:1][101O:1]c2ccc3c(c2)CN(C(=O)C(NC(=O)C(C)NC)C(C)(C)C)C(C(=O)NC2CCCc4ccccc42)C3)ccc1C)[100C:0](=O)N1CCCC(n2nc(-c3ccc(Oc4ccc(F)cc4F)cc3)c(C(N)=O)c2N)C1

> <Shape>
0.175

> <Color>
0.055

> <Negative vol penalty>
0.000

$$$$

  -OEChem-04052322503D

 81 89  0     1  0  0  0  0  0999 V2000
  -17.5596  -25.8755   21.7632 C   0  0  0  0  0  0  0  0  0  0  0  0
  -18.8528  -25.3625   21.7613 C   0  0  0  0  0  0  0  0  0  0  0  0
  -23.5174   -9.5992   20.2830 C   0  0  0  0  0  0  0  0  0  0  0  0
  -23.9141  -10.1519   22.6013 C   0  0  0  0  0  0  0  0  0  0  0  0
  -17.3471  -27.2263   22.0356 C   0  0  0  0  0  0  0  0  0  0  0  0
  -19.9344  -26.2004   22.0307 C   0  0  0  0  0  0  0  0  0  0  0  0
  -23.2541  -24.1169   25.2375 C   0  0  0  0  0  0  0  0  0  0  0  0
  -22.8958   -8.4127   20.6722 C   0  0  0  0  0  0  0  0  0  0  0  0
  -23.2924   -8.9654   22.9905 C   0  0  0  0  0  0  0  0  0  0  0  0
  -24.1302  -23.1651   24.7176 C   0  0  0  0  0  0  0  0  0  0  0  0
  -19.8862   -7.4579   21.8818 C   0  0  0  0  0  0  0  0  0  0  0  0
  -18.6843   -7.1212   21.2591 C   0  0  0  0  0  0  0  0  0  0  0  0
  -25.8636  -24.8380   24.5919 C   0  0  0  0  0  0  0  0  0  0  0  0
  -19.6785   -5.0747   20.4464 C   0  0  0  0  0  0  0  0  0  0  0  0
  -24.0266  -10.4687   21.2476 C   0  0  0  0  0  0  0  0  0  0  0  0
  -24.0612  -12.9488   20.6513 C   0  0  0  0  0  0  0  0  0  0  0  0
  -18.4258  -28.0790   22.3181 C   0  0  0  0  0  0  0  0  0  0  0  0
  -23.6737  -25.4412   25.4286 C   0  0  0  0  0  0  0  0  0  0  0  0
  -19.7362  -27.5641   22.3059 C   0  0  0  0  0  0  0  0  0  0  0  0
  -24.9917  -25.8041   25.1168 C   0  0  0  0  0  0  0  0  0  0  0  0
  -22.7833   -8.0958   22.0259 C   0  0  0  0  0  0  0  0  0  0  0  0
  -25.4343  -23.5262   24.3920 C   0  0  0  0  0  0  0  0  0  0  0  0
  -20.9843   -6.6030   21.7867 C   0  0  0  0  0  0  0  0  0  0  0  0
  -18.5804   -5.9296   20.5415 C   0  0  0  0  0  0  0  0  0  0  0  0
  -20.8805   -5.4114   21.0691 C   0  0  0  0  0  0  0  0  0  0  0  0
  -24.6694  -11.6942   20.8461 C   0  0  0  0  0  0  0  0  0  0  0  0
  -28.4339  -18.7638   23.5441 C   0  0  0  0  0  0  0  0  0  0  0  0
  -27.2798  -20.4787   21.8546 C   0  0  0  0  0  0  0  0  0  0  0  0
  -28.8306  -18.8399   22.2271 C   0  0  0  0  0  0  0  0  0  0  0  0
  -26.8825  -20.4022   23.1713 C   0  0  0  0  0  0  0  0  0  0  0  0
  -25.0924  -13.7760   20.2785 C   0  0  0  0  0  0  0  0  0  0  0  0
  -22.6871  -13.3323   20.7945 C   0  0  0  0  0  0  0  0  0  0  0  0
  -22.7889  -28.2644   24.2664 C   0  0  0  0  0  0  0  0  0  0  0  0
  -24.9119  -29.3897   26.4456 C   0  0  0  0  0  0  0  0  0  0  0  0
  -27.6709  -28.8111   28.3691 C   0  0  0  0  0  0  0  0  0  0  0  0
  -30.3113  -15.6434   20.9273 C   0  0  0  0  0  0  0  0  0  0  0  0
  -18.1506  -29.5420   22.5601 C   0  0  0  0  0  0  0  0  0  0  0  0
  -22.7244  -26.4497   26.0154 C   0  0  0  0  0  0  0  0  0  0  0  0
  -25.4974  -27.2079   25.3220 C   0  0  0  0  0  0  0  0  0  0  0  0
  -19.3192  -30.2832   23.2045 C   0  0  0  0  0  0  0  0  0  0  0  0
  -29.8586  -12.7084   18.9632 C   0  0  0  0  0  0  0  0  0  0  0  0
  -20.6264  -29.9338   22.5003 C   0  0  0  0  0  0  0  0  0  0  0  0
  -28.4209  -12.2833   19.2668 C   0  0  0  0  0  0  0  0  0  0  0  0
  -30.5479  -13.2884   20.1963 C   0  0  0  0  0  0  0  0  0  0  0  0
  -28.3812  -13.9646   21.1564 C   0  0  0  0  0  0  0  0  0  0  0  0
  -20.9332  -28.4359   22.6178 C   0  0  1  0  0  0  0  0  0  0  0  0
  -23.1049  -27.8901   25.6869 C   0  0  1  0  0  0  0  0  0  0  0  0
  -27.6266  -13.4251   19.9293 C   0  0  2  0  0  0  0  0  0  0  0  0
  -29.0728  -17.8100   24.4946 C   0  0  0  0  0  0  0  0  0  0  0  0
  -26.6413  -21.4326   20.9039 C   0  0  0  0  0  0  0  0  0  0  0  0
  -29.1928  -29.9335   30.0188 C   0  0  0  0  0  0  0  0  0  0  0  0
  -26.2477  -30.9197   24.1686 C   0  0  0  0  0  0  0  0  0  0  0  0
  -28.2472  -31.2298   25.6431 C   0  0  0  0  0  0  0  0  0  0  0  0
  -26.0470  -32.1988   26.3083 C   0  0  0  0  0  0  0  0  0  0  0  0
  -26.9951  -26.8640   30.4931 C   0  0  0  0  0  0  0  0  0  0  0  0
  -29.9171  -17.9715   21.6914 C   0  0  0  0  0  0  0  0  0  0  0  0
  -25.7878  -21.2754   23.7101 C   0  0  0  0  0  0  0  0  0  1  0  0
  -26.3898  -29.6973   26.4383 C   0  0  1  0  0  0  0  0  0  0  0  0
  -27.9489  -29.0774   29.8375 C   0  0  2  0  0  0  0  0  0  0  0  0
  -26.7231  -30.9853   25.6338 C   0  0  0  0  0  0  0  0  0  0  0  0
  -25.9848  -11.7176   20.6160 N   0  0  0  0  0  0  0  0  0  0  0  0
  -28.2609  -19.6989   21.3588 N   0  0  0  0  0  0  0  0  0  0  0  0
  -27.4524  -19.5434   24.0397 N   0  0  0  0  0  0  0  0  0  0  0  0
  -26.2118  -12.9969   20.2726 N   0  0  0  0  0  0  0  0  0  0  0  0
  -24.5295  -28.1593   25.8925 N   0  0  0  0  0  0  0  0  0  0  0  0
  -29.7441  -14.3674   20.7757 N   0  0  0  0  0  0  0  0  0  0  0  0
  -25.1417  -15.0866   19.9584 N   0  0  0  0  0  0  0  0  0  0  0  0
  -21.7587  -12.3576   21.1850 N   0  0  0  0  0  0  0  0  0  0  0  0
  -21.4550  -28.1285   23.9322 N   0  0  0  0  0  0  0  0  0  0  0  0
  -26.8043  -29.7420   27.8364 N   0  0  0  0  0  0  0  0  0  0  0  0
  -29.4792  -16.6100   21.4786 N   0  0  0  0  0  0  0  0  0  0  0  0
  -28.1512  -27.7940   30.5675 N   0  3  0  0  0  0  0  0  0  0  0  0
  -22.2915  -14.5006   20.5666 O   0  0  0  0  0  0  0  0  0  0  0  0
  -23.6884  -28.6494   23.5286 O   0  0  0  0  0  0  0  0  0  0  0  0
  -24.1263  -30.2077   26.9308 O   0  0  0  0  0  0  0  0  0  0  0  0
  -28.1751  -27.8734   27.7551 O   0  0  0  0  0  0  0  0  0  0  0  0
  -31.4716  -15.9035   20.5908 O   0  0  0  0  0  0  0  0  0  0  0  0
  -22.1766   -6.9383   22.4061 O   0  0  0  0  0  0  0  0  0  0  0  0
  -26.2913  -22.5993   23.8838 O   0  0  0  0  0  0  0  0  0  1  0  0
  -17.4257   -5.6057   19.9449 F   0  0  0  0  0  0  0  0  0  0  0  0
  -21.9316   -4.5855   20.9752 F   0  0  0  0  0  0  0  0  0  0  0  0
  1  2  1  0  0  0  0
  1  5  2  0  0  0  0
  2  6  2  0  0  0  0
  3  8  2  0  0  0  0
  3 15  1  0  0  0  0
  4  9  1  0  0  0  0
  4 15  2  0  0  0  0
  5 17  1  0  0  0  0
  6 19  1  0  0  0  0
  7 10  2  0  0  0  0
  7 18  1  0  0  0  0
  8 21  1  0  0  0  0
  9 21  2  0  0  0  0
 10 22  1  0  0  0  0
 11 12  2  0  0  0  0
 11 23  1  0  0  0  0
 12 24  1  0  0  0  0
 13 20  1  0  0  0  0
 13 22  2  0  0  0  0
 14 24  2  0  0  0  0
 14 25  1  0  0  0  0
 15 26  1  0  0  0  0
 16 26  1  0  0  0  0
 16 31  2  0  0  0  0
 16 32  1  0  0  0  0
 17 19  2  0  0  0  0
 17 37  1  0  0  0  0
 18 20  2  0  0  0  0
 18 38  1  0  0  0  0
 19 46  1  0  0  0  0
 20 39  1  0  0  0  0
 21 78  1  0  0  0  0
 22 79  1  0  0  0  0
 23 25  2  0  0  0  0
 23 78  1  0  0  0  0
 24 80  1  0  0  0  0
 25 81  1  0  0  0  0
 26 61  2  0  0  0  0
 27 29  1  0  0  0  0
 27 49  1  0  0  0  0
 27 63  2  0  0  0  0
 28 30  2  0  0  0  0
 28 50  1  0  0  0  0
 28 62  1  0  0  0  0
 29 56  1  0  0  0  0
 29 62  2  0  0  0  0
 30 57  1  0  0  0  0
 30 63  1  0  0  0  0
 31 64  1  0  0  0  0
 31 67  1  0  0  0  0
 32 68  1  0  0  0  0
 32 73  2  0  0  0  0
 33 47  1  0  0  0  0
 33 69  1  0  0  0  0
 33 74  2  0  0  0  0
 34 58  1  0  0  0  0
 34 65  1  0  0  0  0
 34 75  2  0  0  0  0
 35 59  1  0  0  0  0
 35 70  1  0  0  0  0
 35 76  2  0  0  0  0
 36 66  1  0  0  0  0
 36 71  1  0  0  0  0
 36 77  2  0  0  0  0
 37 40  1  0  0  0  0
 38 47  1  0  0  0  0
 39 65  1  0  0  0  0
 40 42  1  0  0  0  0
 41 43  1  0  0  0  0
 41 44  1  0  0  0  0
 42 46  1  0  0  0  0
 43 48  1  0  0  0  0
 44 66  1  0  0  0  0
 45 48  1  0  0  0  0
 45 66  1  0  0  0  0
 46 69  1  0  0  0  0
 47 65  1  0  0  0  0
 48 64  1  0  0  0  0
 51 59  1  0  0  0  0
 52 60  1  0  0  0  0
 53 60  1  0  0  0  0
 54 60  1  0  0  0  0
 55 72  1  0  0  0  0
 56 71  1  0  0  0  0
 57 79  1  0  0  0  0
 58 60  1  0  0  0  0
 58 70  1  0  0  0  0
 59 72  1  0  0  0  0
 61 64  1  0  0  0  0
M  CHG  1  72   1
M  ISO  4  36 100  57 101  71 100  79 101
M  END
> <Batch ID>
0176

> <Smiles>
CNC(C)C(=O)NC(C(=O)N1Cc2cc([101O:1][101CH2:1]c3nc(C)c(C[100NH:0][100C:0](=O)N4CCCC(n5nc(-c6ccc(Oc7ccc(F)cc7F)cc6)c(C(N)=O)c5N)C4)nc3C)ccc2CC1C(=O)NC1CCCc2ccccc21)C(C)(C)C

> <Shape>
0.268

> <Color>
0.189

> <Negative vol penalty>
0.000

$$$$

  -OEChem-04052322503D

 86 96  0     1  0  0  0  0  0999 V2000
  -18.5132  -18.7170   10.6542 C   0  0  0  0  0  0  0  0  0  0  0  0
  -19.6291  -18.4867   11.4524 C   0  0  0  0  0  0  0  0  0  0  0  0
  -23.0732   -9.8701   19.9397 C   0  0  0  0  0  0  0  0  0  0  0  0
  -23.8398   -9.8703   22.2309 C   0  0  0  0  0  0  0  0  0  0  0  0
  -18.1166  -20.0236   10.3726 C   0  0  0  0  0  0  0  0  0  0  0  0
  -20.3497  -19.5630   11.9686 C   0  0  0  0  0  0  0  0  0  0  0  0
  -23.1720  -19.8391   17.3967 C   0  0  0  0  0  0  0  0  0  0  0  0
  -22.3312   -8.7154   20.1881 C   0  0  0  0  0  0  0  0  0  0  0  0
  -23.0978   -8.7156   22.4793 C   0  0  0  0  0  0  0  0  0  0  0  0
  -24.5024  -19.6581   17.7725 C   0  0  0  0  0  0  0  0  0  0  0  0
  -19.8723   -7.9125   23.0887 C   0  0  0  0  0  0  0  0  0  0  0  0
  -19.1188   -7.8680   24.2616 C   0  0  0  0  0  0  0  0  0  0  0  0
  -24.8478  -22.0436   17.6759 C   0  0  0  0  0  0  0  0  0  0  0  0
  -20.3644   -5.9294   24.9880 C   0  0  0  0  0  0  0  0  0  0  0  0
  -23.8275  -10.4476   20.9611 C   0  0  0  0  0  0  0  0  0  0  0  0
  -24.1665  -12.9734   20.8484 C   0  0  0  0  0  0  0  0  0  0  0  0
  -18.8271  -21.1165   10.8937 C   0  0  0  0  0  0  0  0  0  0  0  0
  -22.6716  -21.1250   17.1467 C   0  0  0  0  0  0  0  0  0  0  0  0
  -19.9631  -20.8855   11.6927 C   0  0  0  0  0  0  0  0  0  0  0  0
  -23.5101  -22.2384   17.2996 C   0  0  0  0  0  0  0  0  0  0  0  0
  -22.3435   -8.1381   21.4578 C   0  0  0  0  0  0  0  0  0  0  0  0
  -25.3413  -20.7602   17.9094 C   0  0  0  0  0  0  0  0  0  0  0  0
  -20.8717   -6.9654   22.8653 C   0  0  0  0  0  0  0  0  0  0  0  0
  -19.3649   -6.8764   25.2114 C   0  0  0  0  0  0  0  0  0  0  0  0
  -21.1178   -5.9739   23.8150 C   0  0  0  0  0  0  0  0  0  0  0  0
  -24.5946  -11.6401   20.7050 C   0  0  0  0  0  0  0  0  0  0  0  0
  -25.2568  -13.7252   20.4844 C   0  0  0  0  0  0  0  0  0  0  0  0
  -29.4573  -17.8179   20.0525 C   0  0  0  0  0  0  0  0  0  0  0  0
  -29.1227  -18.8367   19.0860 C   0  0  0  0  0  0  0  0  0  0  0  0
  -29.8396  -19.9711   19.0143 C   0  0  0  0  0  0  0  0  0  0  0  0
  -30.4800  -17.9751   20.9085 C   0  0  0  0  0  0  0  0  0  0  0  0
  -30.9838  -20.1831   19.9646 C   0  0  0  0  0  0  0  0  0  0  0  0
  -22.8967  -13.4866   21.2728 C   0  0  0  0  0  0  0  0  0  0  0  0
  -21.4390  -22.5992   14.6147 C   0  0  0  0  0  0  0  0  0  0  0  0
  -20.9010  -24.9806   16.7505 C   0  0  0  0  0  0  0  0  0  0  0  0
  -21.7506  -26.4746   19.6989 C   0  0  0  0  0  0  0  0  0  0  0  0
  -30.7400  -14.7492   20.6599 C   0  0  0  0  0  0  0  0  0  0  0  0
  -18.3881  -22.5110   10.5230 C   0  0  0  0  0  0  0  0  0  0  0  0
  -21.2271  -21.3055   16.7682 C   0  0  0  0  0  0  0  0  0  0  0  0
  -23.0164  -23.6415   17.0626 C   0  0  0  0  0  0  0  0  0  0  0  0
  -27.9404  -18.5567   18.1886 C   0  0  0  0  0  0  0  0  0  0  0  0
  -29.5594  -21.0568   18.0103 C   0  0  0  0  0  0  0  0  0  0  0  0
  -18.9853  -23.5952   11.4164 C   0  0  0  0  0  0  0  0  0  0  0  0
  -28.6247  -20.6085   16.8825 C   0  0  0  0  0  0  0  0  0  0  0  0
  -29.5978  -12.3714   18.2687 C   0  0  0  0  0  0  0  0  0  0  0  0
  -20.4823  -23.3691   11.6024 C   0  0  0  0  0  0  0  0  0  0  0  0
  -28.1619  -12.0748   18.7049 C   0  0  0  0  0  0  0  0  0  0  0  0
  -32.4396  -20.4888   22.7228 C   0  0  0  0  0  0  0  0  0  0  0  0
  -32.1275  -19.1394   23.2976 C   0  0  0  0  0  0  0  0  0  0  0  0
  -30.5182  -12.5892   19.4676 C   0  0  0  0  0  0  0  0  0  0  0  0
  -28.6198  -13.3138   20.8622 C   0  0  0  0  0  0  0  0  0  0  0  0
  -20.7561  -22.0269   12.2916 C   0  0  1  0  0  0  0  0  0  0  0  0
  -20.9602  -22.6185   16.0388 C   0  0  1  0  0  0  0  0  0  0  0  0
  -27.6424  -13.1421   19.6868 C   0  0  2  0  0  0  0  0  0  0  0  0
  -32.3431  -19.2919   21.8168 C   0  0  0  0  0  0  0  0  0  0  0  0
  -27.4532  -19.7860   17.4129 C   0  0  2  0  0  0  0  0  0  1  0  0
  -21.1575  -28.4258   21.1612 C   0  0  0  0  0  0  0  0  0  0  0  0
  -22.3698  -26.8542   14.8421 C   0  0  0  0  0  0  0  0  0  0  0  0
  -22.5800  -28.4927   16.7235 C   0  0  0  0  0  0  0  0  0  0  0  0
  -20.3222  -27.8318   15.8938 C   0  0  0  0  0  0  0  0  0  0  0  0
  -20.9928  -24.7070   21.9484 C   0  0  0  0  0  0  0  0  0  0  0  0
  -30.8074  -16.8958   21.9037 C   0  0  0  0  0  0  0  0  0  0  0  0
  -21.6825  -26.1772   17.2369 C   0  0  1  0  0  0  0  0  0  0  0  0
  -20.9055  -26.9557   20.8646 C   0  0  2  0  0  0  0  0  0  0  0  0
  -21.7487  -27.3125   16.1767 C   0  0  0  0  0  0  0  0  0  0  0  0
  -25.8584  -11.5469   20.2827 N   0  0  0  0  0  0  0  0  0  0  0  0
  -26.2336  -12.8313   20.1575 N   0  0  0  0  0  0  0  0  0  0  0  0
  -31.2433  -19.1450   20.8746 N   0  0  0  0  0  0  0  0  0  0  0  0
  -21.5979  -23.7656   16.6882 N   0  0  0  0  0  0  0  0  0  0  0  0
  -29.9692  -13.6143   20.3585 N   0  0  0  0  0  0  0  0  0  0  0  0
  -25.4656  -15.0571   20.4151 N   0  0  0  0  0  0  0  0  0  0  0  0
  -21.8867  -12.5753   21.6100 N   0  0  0  0  0  0  0  0  0  0  0  0
  -20.5039  -22.1279   13.7131 N   0  0  0  0  0  0  0  0  0  0  0  0
  -21.0740  -26.5754   18.5017 N   0  0  0  0  0  0  0  0  0  0  0  0
  -30.1424  -15.6747   21.5068 N   0  0  0  0  0  0  0  0  0  0  0  0
  -21.2183  -26.1685   22.0907 N   0  3  0  0  0  0  0  0  0  0  0  0
  -31.6265  -21.2323   19.9065 O   0  0  0  0  0  0  0  0  0  0  0  0
  -22.6594  -14.7168   21.3349 O   0  0  0  0  0  0  0  0  0  0  0  0
  -22.5724  -22.9848   14.3531 O   0  0  0  0  0  0  0  0  0  0  0  0
  -19.7140  -25.1174   16.4442 O   0  0  0  0  0  0  0  0  0  0  0  0
  -22.8977  -26.0552   19.8361 O   0  0  0  0  0  0  0  0  0  0  0  0
  -31.8744  -14.9274   20.2035 O   0  0  0  0  0  0  0  0  0  0  0  0
  -21.6194   -7.0115   21.7006 O   0  0  0  0  0  0  0  0  0  0  0  0
  -26.6474  -20.5854   18.2774 O   0  0  0  0  0  0  0  0  0  1  0  0
  -18.6423   -6.8347   26.3384 F   0  0  0  0  0  0  0  0  0  0  0  0
  -22.0774   -5.0621   23.6065 F   0  0  0  0  0  0  0  0  0  0  0  0
  1  2  1  0  0  0  0
  1  5  2  0  0  0  0
  2  6  2  0  0  0  0
  3  8  2  0  0  0  0
  3 15  1  0  0  0  0
  4  9  1  0  0  0  0
  4 15  2  0  0  0  0
  5 17  1  0  0  0  0
  6 19  1  0  0  0  0
  7 10  2  0  0  0  0
  7 18  1  0  0  0  0
  8 21  1  0  0  0  0
  9 21  2  0  0  0  0
 10 22  1  0  0  0  0
 11 12  2  0  0  0  0
 11 23  1  0  0  0  0
 12 24  1  0  0  0  0
 13 20  1  0  0  0  0
 13 22  2  0  0  0  0
 14 24  2  0  0  0  0
 14 25  1  0  0  0  0
 15 26  1  0  0  0  0
 16 26  1  0  0  0  0
 16 27  2  0  0  0  0
 16 33  1  0  0  0  0
 17 19  2  0  0  0  0
 17 38  1  0  0  0  0
 18 20  2  0  0  0  0
 18 39  1  0  0  0  0
 19 52  1  0  0  0  0
 20 40  1  0  0  0  0
 21 83  1  0  0  0  0
 22 84  1  0  0  0  0
 23 25  2  0  0  0  0
 23 83  1  0  0  0  0
 24 85  1  0  0  0  0
 25 86  1  0  0  0  0
 26 66  2  0  0  0  0
 27 67  1  0  0  0  0
 27 71  1  0  0  0  0
 28 29  1  0  0  0  0
 28 31  2  0  0  0  0
 29 30  2  0  0  0  0
 29 41  1  0  0  0  0
 30 32  1  0  0  0  0
 30 42  1  0  0  0  0
 31 62  1  0  0  0  0
 31 68  1  0  0  0  0
 32 68  1  0  0  0  0
 32 77  2  0  0  0  0
 33 72  1  0  0  0  0
 33 78  2  0  0  0  0
 34 53  1  0  0  0  0
 34 73  1  0  0  0  0
 34 79  2  0  0  0  0
 35 63  1  0  0  0  0
 35 69  1  0  0  0  0
 35 80  2  0  0  0  0
 36 64  1  0  0  0  0
 36 74  1  0  0  0  0
 36 81  2  0  0  0  0
 37 70  1  0  0  0  0
 37 75  1  0  0  0  0
 37 82  2  0  0  0  0
 38 43  1  0  0  0  0
 39 53  1  0  0  0  0
 40 69  1  0  0  0  0
 41 56  1  0  0  0  0
 42 44  1  0  0  0  0
 43 46  1  0  0  0  0
 44 56  1  0  0  0  0
 45 47  1  0  0  0  0
 45 50  1  0  0  0  0
 46 52  1  0  0  0  0
 47 54  1  0  0  0  0
 48 49  1  0  0  0  0
 48 55  1  0  0  0  0
 49 55  1  0  0  0  0
 50 70  1  0  0  0  0
 51 54  1  0  0  0  0
 51 70  1  0  0  0  0
 52 73  1  0  0  0  0
 53 69  1  0  0  0  0
 54 67  1  0  0  0  0
 55 68  1  0  0  0  0
 56 84  1  0  0  0  0
 57 64  1  0  0  0  0
 58 65  1  0  0  0  0
 59 65  1  0  0  0  0
 60 65  1  0  0  0  0
 61 76  1  0  0  0  0
 62 75  1  0  0  0  0
 63 65  1  0  0  0  0
 63 74  1  0  0  0  0
 64 76  1  0  0  0  0
 66 67  1  0  0  0  0
M  CHG  1  76   1
M  ISO  4  37 100  56 101  75 100  84 101
M  END
> <Batch ID>
0176

> <Smiles>
CNC(C)C(=O)NC(C(=O)N1Cc2cc([101O:1][101CH:1]3CCc4c(cc(C[100NH:0][100C:0](=O)N5CCCC(n6nc(-c7ccc(Oc8ccc(F)cc8F)cc7)c(C(N)=O)c6N)C5)n(C5CC5)c4=O)C3)ccc2CC1C(=O)NC1CCCc2ccccc21)C(C)(C)C

> <Shape>
0.215

> <Color>
0.192

> <Negative vol penalty>
0.000

$$$$

  -OEChem-04052322503D

 83 92  0     1  0  0  0  0  0999 V2000
  -17.9848  -28.0658   22.6828 C   0  0  0  0  0  0  0  0  0  0  0  0
  -18.8356  -26.9653   22.7031 C   0  0  0  0  0  0  0  0  0  0  0  0
  -23.1128   -9.8047   19.9034 C   0  0  0  0  0  0  0  0  0  0  0  0
  -23.9179   -9.7489   22.1807 C   0  0  0  0  0  0  0  0  0  0  0  0
  -18.5040  -29.3431   22.4759 C   0  0  0  0  0  0  0  0  0  0  0  0
  -20.2061  -27.1414   22.5155 C   0  0  0  0  0  0  0  0  0  0  0  0
  -24.7220  -23.9401   25.1354 C   0  0  0  0  0  0  0  0  0  0  0  0
  -22.3990   -8.6274   20.1269 C   0  0  0  0  0  0  0  0  0  0  0  0
  -23.2040   -8.5716   22.4042 C   0  0  0  0  0  0  0  0  0  0  0  0
  -25.4969  -22.8715   24.6866 C   0  0  0  0  0  0  0  0  0  0  0  0
  -20.0064   -7.6822   23.0401 C   0  0  0  0  0  0  0  0  0  0  0  0
  -19.2739   -7.5849   24.2231 C   0  0  0  0  0  0  0  0  0  0  0  0
  -27.2256  -24.4145   24.0158 C   0  0  0  0  0  0  0  0  0  0  0  0
  -28.6680  -18.9936   24.2294 C   0  0  0  0  0  0  0  0  0  0  0  0
  -20.5710   -5.6510   24.8672 C   0  0  0  0  0  0  0  0  0  0  0  0
  -23.8724  -10.3654   20.9303 C   0  0  0  0  0  0  0  0  0  0  0  0
  -24.1575  -12.9002   20.8925 C   0  0  0  0  0  0  0  0  0  0  0  0
  -19.8827  -29.5360   22.2952 C   0  0  0  0  0  0  0  0  0  0  0  0
  -25.1893  -25.2570   25.0176 C   0  0  0  0  0  0  0  0  0  0  0  0
  -20.7441  -28.4223   22.3046 C   0  0  0  0  0  0  0  0  0  0  0  0
  -26.4558  -25.4979   24.4662 C   0  0  0  0  0  0  0  0  0  0  0  0
  -29.5751  -18.1003   23.6962 C   0  0  0  0  0  0  0  0  0  0  0  0
  -29.7284  -17.9767   22.3160 C   0  0  0  0  0  0  0  0  0  0  0  0
  -22.4446   -8.0109   21.3773 C   0  0  0  0  0  0  0  0  0  0  0  0
  -26.7476  -23.1088   24.1241 C   0  0  0  0  0  0  0  0  0  0  0  0
  -21.0211   -6.7638   22.7705 C   0  0  0  0  0  0  0  0  0  0  0  0
  -19.5562   -6.5694   25.1367 C   0  0  0  0  0  0  0  0  0  0  0  0
  -21.3034   -5.7483   23.6841 C   0  0  0  0  0  0  0  0  0  0  0  0
  -24.6104  -11.5813   20.6998 C   0  0  0  0  0  0  0  0  0  0  0  0
  -27.9478  -19.7533   23.3191 C   0  0  0  0  0  0  0  0  0  0  0  0
  -28.9648  -18.7688   21.4894 C   0  0  0  0  0  0  0  0  0  0  0  0
  -25.2259  -13.6858   20.5349 C   0  0  0  0  0  0  0  0  0  0  0  0
  -22.8848  -13.3729   21.3535 C   0  0  0  0  0  0  0  0  0  0  0  0
  -24.2005  -27.8591   23.4829 C   0  0  0  0  0  0  0  0  0  0  0  0
  -26.6338  -29.2650   25.1031 C   0  0  0  0  0  0  0  0  0  0  0  0
  -29.6280  -28.9221   26.7044 C   0  0  0  0  0  0  0  0  0  0  0  0
  -30.6892  -14.8188   20.6538 C   0  0  0  0  0  0  0  0  0  0  0  0
  -20.3917  -30.9303   22.0277 C   0  0  0  0  0  0  0  0  0  0  0  0
  -24.3527  -26.3967   25.5309 C   0  0  0  0  0  0  0  0  0  0  0  0
  -30.4618  -17.1371   24.4210 C   0  0  0  0  0  0  0  0  0  0  0  0
  -27.0118  -26.8915   24.3355 C   0  0  0  0  0  0  0  0  0  0  0  0
  -21.9004  -31.0735   22.2107 C   0  0  0  0  0  0  0  0  0  0  0  0
  -29.5557  -12.4939   18.2070 C   0  0  0  0  0  0  0  0  0  0  0  0
  -22.6330  -29.9269   21.5211 C   0  0  0  0  0  0  0  0  0  0  0  0
  -28.1338  -12.1536   18.6568 C   0  0  0  0  0  0  0  0  0  0  0  0
  -30.4916  -12.6932   19.3972 C   0  0  0  0  0  0  0  0  0  0  0  0
  -28.6026  -13.3335   20.8447 C   0  0  0  0  0  0  0  0  0  0  0  0
  -22.2394  -28.5755   22.1296 C   0  0  1  0  0  0  0  0  0  0  0  0
  -30.7335  -16.9261   21.9640 C   0  0  1  0  0  0  0  0  0  0  0  0
  -24.7092  -27.7350   24.8913 C   0  0  1  0  0  0  0  0  0  0  0  0
  -31.4740  -16.7465   23.3169 C   0  0  1  0  0  0  0  0  0  0  0  0
  -27.6091  -13.1783   19.6806 C   0  0  2  0  0  0  0  0  0  0  0  0
  -29.0971  -18.7024   20.0070 C   0  0  0  0  0  0  0  0  0  0  0  0
  -32.7245  -17.6349   23.3800 C   0  0  0  0  0  0  0  0  0  0  0  0
  -31.3907  -30.2560   27.8923 C   0  0  0  0  0  0  0  0  0  0  0  0
  -27.6590  -30.2949   22.4202 C   0  0  0  0  0  0  0  0  0  0  0  0
  -29.8541  -30.7776   23.5232 C   0  0  0  0  0  0  0  0  0  0  0  0
  -27.7900  -31.9488   24.2915 C   0  0  0  0  0  0  0  0  0  0  0  0
  -29.2263  -27.4251   29.2256 C   0  0  0  0  0  0  0  0  0  0  0  0
  -26.9578  -20.7581   23.8309 C   0  0  0  0  0  0  0  0  0  1  0  0
  -28.1010  -29.4996   24.8364 C   0  0  1  0  0  0  0  0  0  0  0  0
  -30.1179  -29.4378   28.0455 C   0  0  2  0  0  0  0  0  0  0  0  0
  -28.3400  -30.6040   23.7684 C   0  0  0  0  0  0  0  0  0  0  0  0
  -25.8685  -11.5280   20.2543 N   0  0  0  0  0  0  0  0  0  0  0  0
  -28.0725  -19.6664   21.9672 N   0  0  0  0  0  0  0  0  0  0  0  0
  -26.2151  -12.8233   20.1639 N   0  0  0  0  0  0  0  0  0  0  0  0
  -26.1533  -27.9731   24.8462 N   0  0  0  0  0  0  0  0  0  0  0  0
  -29.9368  -13.6779   20.3291 N   0  0  0  0  0  0  0  0  0  0  0  0
  -25.4062  -15.0233   20.5047 N   0  0  0  0  0  0  0  0  0  0  0  0
  -21.8996  -12.4304   21.6780 N   0  0  0  0  0  0  0  0  0  0  0  0
  -22.9205  -28.3713   23.3901 N   0  0  0  0  0  0  0  0  0  0  0  0
  -28.7118  -29.7787   26.1316 N   0  0  0  0  0  0  0  0  0  0  0  0
  -30.0871  -15.7044   21.5393 N   0  0  0  0  0  0  0  0  0  0  0  0
  -30.3984  -28.3004   28.9667 N   0  3  0  0  0  0  0  0  0  0  0  0
  -22.6234  -14.5953   21.4585 O   0  0  0  0  0  0  0  0  0  0  0  0
  -24.9170  -27.5168   22.5494 O   0  0  0  0  0  0  0  0  0  0  0  0
  -25.9411  -30.1918   25.5306 O   0  0  0  0  0  0  0  0  0  0  0  0
  -30.0216  -27.8669   26.2123 O   0  0  0  0  0  0  0  0  0  0  0  0
  -31.8118  -15.0350   20.1850 O   0  0  0  0  0  0  0  0  0  0  0  0
  -21.7479   -6.8622   21.5959 O   0  0  0  0  0  0  0  0  0  0  0  0
  -27.5057  -22.0676   23.6846 O   0  0  0  0  0  0  0  0  0  1  0  0
  -18.8538   -6.4770   26.2735 F   0  0  0  0  0  0  0  0  0  0  0  0
  -22.2779   -4.8638   23.4311 F   0  0  0  0  0  0  0  0  0  0  0  0
  1  2  1  0  0  0  0
  1  5  2  0  0  0  0
  2  6  2  0  0  0  0
  3  8  2  0  0  0  0
  3 16  1  0  0  0  0
  4  9  1  0  0  0  0
  4 16  2  0  0  0  0
  5 18  1  0  0  0  0
  6 20  1  0  0  0  0
  7 10  2  0  0  0  0
  7 19  1  0  0  0  0
  8 24  1  0  0  0  0
  9 24  2  0  0  0  0
 10 25  1  0  0  0  0
 11 12  2  0  0  0  0
 11 26  1  0  0  0  0
 12 27  1  0  0  0  0
 13 21  1  0  0  0  0
 13 25  2  0  0  0  0
 14 22  2  0  0  0  0
 14 30  1  0  0  0  0
 15 27  2  0  0  0  0
 15 28  1  0  0  0  0
 16 29  1  0  0  0  0
 17 29  1  0  0  0  0
 17 32  2  0  0  0  0
 17 33  1  0  0  0  0
 18 20  2  0  0  0  0
 18 38  1  0  0  0  0
 19 21  2  0  0  0  0
 19 39  1  0  0  0  0
 20 48  1  0  0  0  0
 21 41  1  0  0  0  0
 22 23  1  0  0  0  0
 22 40  1  0  0  0  0
 23 31  2  0  0  0  0
 23 49  1  0  0  0  0
 24 80  1  0  0  0  0
 25 81  1  0  0  0  0
 26 28  2  0  0  0  0
 26 80  1  0  0  0  0
 27 82  1  0  0  0  0
 28 83  1  0  0  0  0
 29 64  2  0  0  0  0
 30 60  1  0  0  0  0
 30 65  2  0  0  0  0
 31 53  1  0  0  0  0
 31 65  1  0  0  0  0
 32 66  1  0  0  0  0
 32 69  1  0  0  0  0
 33 70  1  0  0  0  0
 33 75  2  0  0  0  0
 34 50  1  0  0  0  0
 34 71  1  0  0  0  0
 34 76  2  0  0  0  0
 35 61  1  0  0  0  0
 35 67  1  0  0  0  0
 35 77  2  0  0  0  0
 36 62  1  0  0  0  0
 36 72  1  0  0  0  0
 36 78  2  0  0  0  0
 37 68  1  0  0  0  0
 37 73  1  0  0  0  0
 37 79  2  0  0  0  0
 38 42  1  0  0  0  0
 39 50  1  0  0  0  0
 40 51  1  0  0  0  0
 41 67  1  0  0  0  0
 42 44  1  0  0  0  0
 43 45  1  0  0  0  0
 43 46  1  0  0  0  0
 44 48  1  0  0  0  0
 45 52  1  0  0  0  0
 46 68  1  0  0  0  0
 47 52  1  0  0  0  0
 47 68  1  0  0  0  0
 48 71  1  0  0  0  0
 49 51  1  0  0  0  0
 49 73  1  0  0  0  0
 50 67  1  0  0  0  0
 51 54  1  0  0  0  0
 52 66  1  0  0  0  0
 55 62  1  0  0  0  0
 56 63  1  0  0  0  0
 57 63  1  0  0  0  0
 58 63  1  0  0  0  0
 59 74  1  0  0  0  0
 60 81  1  0  0  0  0
 61 63  1  0  0  0  0
 61 72  1  0  0  0  0
 62 74  1  0  0  0  0
 64 66  1  0  0  0  0
M  CHG  1  74   1
M  ISO  4  37 100  60 101  73 100  81 101
M  END
> <Batch ID>
0176

> <Smiles>
CNC(C)C(=O)NC(C(=O)N1Cc2cc([101O:1][101CH2:1]c3cc4c(c(C)n3)C([100NH:0][100C:0](=O)N3CCCC(n5nc(-c6ccc(Oc7ccc(F)cc7F)cc6)c(C(N)=O)c5N)C3)C(C)C4)ccc2CC1C(=O)NC1CCCc2ccccc21)C(C)(C)C

> <Shape>
0.299

> <Color>
0.206

> <Negative vol penalty>
0.000

$$$$
