
  -OEChem-04052322523D

 81 90  0     1  0  0  0  0  0999 V2000
  -25.9867  -10.8807   20.5929 C   0  0  0  0  0  0  0  0  0  0  0  0
  -26.9216  -11.8600   20.2728 C   0  0  0  0  0  0  0  0  0  0  0  0
  -20.9830  -26.8219   22.1154 C   0  0  0  0  0  0  0  0  0  0  0  0
  -20.1272  -29.0261   22.6116 C   0  0  0  0  0  0  0  0  0  0  0  0
  -24.6344  -11.2102   20.6757 C   0  0  0  0  0  0  0  0  0  0  0  0
  -26.5047  -13.1690   20.0342 C   0  0  0  0  0  0  0  0  0  0  0  0
  -28.6741  -19.9505   20.8223 C   0  0  0  0  0  0  0  0  0  0  0  0
  -19.6959  -26.2966   22.2287 C   0  0  0  0  0  0  0  0  0  0  0  0
  -18.8400  -28.5008   22.7249 C   0  0  0  0  0  0  0  0  0  0  0  0
  -28.8338  -21.1229   20.0848 C   0  0  0  0  0  0  0  0  0  0  0  0
  -17.5790  -25.4059   24.7087 C   0  0  0  0  0  0  0  0  0  0  0  0
  -17.4233  -24.2252   25.4348 C   0  0  0  0  0  0  0  0  0  0  0  0
  -26.4808  -21.5929   20.3339 C   0  0  0  0  0  0  0  0  0  0  0  0
  -16.5342  -23.1347   23.4708 C   0  0  0  0  0  0  0  0  0  0  0  0
  -21.1987  -28.1866   22.3069 C   0  0  0  0  0  0  0  0  0  0  0  0
  -23.1431  -29.2306   21.0273 C   0  0  0  0  0  0  0  0  0  0  0  0
  -24.2018  -12.5260   20.4474 C   0  0  0  0  0  0  0  0  0  0  0  0
  -27.4124  -19.5844   21.3126 C   0  0  0  0  0  0  0  0  0  0  0  0
  -25.1452  -13.5160   20.1127 C   0  0  0  0  0  0  0  0  0  0  0  0
  -26.3083  -20.4167   21.0794 C   0  0  0  0  0  0  0  0  0  0  0  0
  -18.6244  -27.1360   22.5335 C   0  0  0  0  0  0  0  0  0  0  0  0
  -27.7365  -21.9428   19.8380 C   0  0  0  0  0  0  0  0  0  0  0  0
  -17.2123  -25.4511   23.3636 C   0  0  0  0  0  0  0  0  0  0  0  0
  -16.9010  -23.0896   24.8158 C   0  0  0  0  0  0  0  0  0  0  0  0
  -16.6899  -24.3154   22.7447 C   0  0  0  0  0  0  0  0  0  0  0  0
  -22.5282  -28.7298   22.1905 C   0  0  0  0  0  0  0  0  0  0  0  0
  -24.3925  -29.6233   21.4413 C   0  0  0  0  0  0  0  0  0  0  0  0
  -22.6308  -29.3317   19.6921 C   0  0  0  0  0  0  0  0  0  0  0  0
  -25.4544  -17.1232   20.8516 C   0  0  0  0  0  0  0  0  0  0  0  0
  -23.7406  -18.5463   23.2095 C   0  0  0  0  0  0  0  0  0  0  0  0
  -22.9729  -21.4016   24.9139 C   0  0  0  0  0  0  0  0  0  0  0  0
  -29.0467  -28.6658   24.3589 C   0  0  0  0  0  0  0  0  0  0  0  0
  -22.7243  -12.8241   20.5019 C   0  0  0  0  0  0  0  0  0  0  0  0
  -27.2619  -18.3302   22.1291 C   0  0  0  0  0  0  0  0  0  0  0  0
  -24.9363  -20.0789   21.6011 C   0  0  0  0  0  0  0  0  0  0  0  0
  -22.4069  -14.3138   20.6024 C   0  0  0  0  0  0  0  0  0  0  0  0
  -26.3327  -30.1517   26.0630 C   0  0  0  0  0  0  0  0  0  0  0  0
  -23.2342  -15.1052   19.5944 C   0  0  0  0  0  0  0  0  0  0  0  0
  -25.1400  -29.9310   25.1366 C   0  0  0  0  0  0  0  0  0  0  0  0
  -30.8683  -27.7146   21.2808 C   0  0  0  0  0  0  0  0  0  0  0  0
  -28.0707  -25.3840   19.8493 C   0  0  0  0  0  0  0  0  0  0  0  0
  -27.2626  -28.9460   26.0435 C   0  0  0  0  0  0  0  0  0  0  0  0
  -30.8354  -28.2863   22.6896 C   0  0  0  0  0  0  0  0  0  0  0  0
  -28.6280  -27.5722   22.0752 C   0  0  0  0  0  0  0  0  0  0  0  0
  -26.6010  -28.4005   23.7167 C   0  0  0  0  0  0  0  0  0  0  0  0
  -29.8583  -24.4208   18.6312 C   0  0  0  0  0  0  0  0  0  0  0  0
  -24.7347  -14.9525   19.8712 C   0  0  1  0  0  0  0  0  0  0  0  0
  -25.8340  -17.7932   22.1418 C   0  0  1  0  0  0  0  0  0  0  0  0
  -29.6576  -26.7807   21.2688 C   0  0  1  0  0  0  0  0  0  0  0  0
  -25.6142  -29.5862   23.7163 C   0  0  1  0  0  0  0  0  0  0  0  0
  -29.1848  -26.4278   19.8656 C   0  0  1  0  0  0  0  0  0  0  0  0
  -28.7835  -24.0602   19.6335 C   0  0  2  0  0  0  0  0  0  1  0  0
  -21.5087  -22.2586   26.7630 C   0  0  0  0  0  0  0  0  0  0  0  0
  -21.3322  -18.4629   21.3379 C   0  0  0  0  0  0  0  0  0  0  0  0
  -20.2091  -20.1378   22.8216 C   0  0  0  0  0  0  0  0  0  0  0  0
  -20.8231  -17.8928   23.7191 C   0  0  0  0  0  0  0  0  0  0  0  0
  -30.9219  -26.6184   18.0233 C   0  0  0  0  0  0  0  0  0  0  0  0
  -25.3064  -22.2355   26.5320 C   0  0  0  0  0  0  0  0  0  0  0  0
  -22.6450  -19.5839   23.2577 C   0  0  1  0  0  0  0  0  0  0  0  0
  -22.8723  -21.6909   26.4007 C   0  0  2  0  0  0  0  0  0  0  0  0
  -21.2777  -19.0250   22.7724 C   0  0  0  0  0  0  0  0  0  0  0  0
  -23.3216  -28.7969   23.2629 N   0  0  0  0  0  0  0  0  0  0  0  0
  -24.4479  -29.3445   22.7752 N   0  0  0  0  0  0  0  0  0  0  0  0
  -24.8390  -18.8388   22.3887 N   0  0  0  0  0  0  0  0  0  0  0  0
  -27.6868  -28.6082   24.6836 N   0  0  0  0  0  0  0  0  0  0  0  0
  -29.4263  -28.2928   23.0702 N   0  0  0  0  0  0  0  0  0  0  0  0
  -25.4380  -30.1765   20.7908 N   0  0  0  0  0  0  0  0  0  0  0  0
  -21.3276  -28.8816   19.4406 N   0  0  0  0  0  0  0  0  0  0  0  0
  -25.1305  -15.7866   20.9858 N   0  0  0  0  0  0  0  0  0  0  0  0
  -22.6298  -20.0982   24.6229 N   0  0  0  0  0  0  0  0  0  0  0  0
  -30.3384  -25.7705   19.1088 N   0  3  2  0  0  0  0  0  0  0  0  0
  -23.9145  -22.6750   26.8086 N   0  3  0  0  0  0  0  0  0  0  0  0
  -23.3144  -29.7922   18.7465 O   0  0  0  0  0  0  0  0  0  0  0  0
  -25.4540  -17.7713   19.8115 O   0  0  0  0  0  0  0  0  0  0  0  0
  -23.6292  -17.5176   23.8810 O   0  0  0  0  0  0  0  0  0  0  0  0
  -23.3175  -22.2482   24.0923 O   0  0  0  0  0  0  0  0  0  0  0  0
  -29.8947  -28.9963   25.1989 O   0  0  0  0  0  0  0  0  0  0  0  0
  -17.3682  -26.6238   22.6439 O   0  0  0  0  0  0  0  0  0  0  0  0
  -27.8905  -23.0951   19.1131 O   0  0  0  0  0  0  0  0  0  1  0  0
  -16.7530  -21.9553   25.5128 F   0  0  0  0  0  0  0  0  0  0  0  0
  -16.3369  -24.3524   21.4525 F   0  0  0  0  0  0  0  0  0  0  0  0
  1  2  1  0  0  0  0
  1  5  2  0  0  0  0
  2  6  2  0  0  0  0
  3  8  2  0  0  0  0
  3 15  1  0  0  0  0
  4  9  1  0  0  0  0
  4 15  2  0  0  0  0
  5 17  1  0  0  0  0
  6 19  1  0  0  0  0
  7 10  2  0  0  0  0
  7 18  1  0  0  0  0
  8 21  1  0  0  0  0
  9 21  2  0  0  0  0
 10 22  1  0  0  0  0
 11 12  2  0  0  0  0
 11 23  1  0  0  0  0
 12 24  1  0  0  0  0
 13 20  1  0  0  0  0
 13 22  2  0  0  0  0
 14 24  2  0  0  0  0
 14 25  1  0  0  0  0
 15 26  1  0  0  0  0
 16 26  1  0  0  0  0
 16 27  2  0  0  0  0
 16 28  1  0  0  0  0
 17 19  2  0  0  0  0
 17 33  1  0  0  0  0
 18 20  2  0  0  0  0
 18 34  1  0  0  0  0
 19 47  1  0  0  0  0
 20 35  1  0  0  0  0
 21 78  1  0  0  0  0
 22 79  1  0  0  0  0
 23 25  2  0  0  0  0
 23 78  1  0  0  0  0
 24 80  1  0  0  0  0
 25 81  1  0  0  0  0
 26 62  2  0  0  0  0
 27 63  1  0  0  0  0
 27 67  1  0  0  0  0
 28 68  1  0  0  0  0
 28 73  2  0  0  0  0
 29 48  1  0  0  0  0
 29 69  1  0  0  0  0
 29 74  2  0  0  0  0
 30 59  1  0  0  0  0
 30 64  1  0  0  0  0
 30 75  2  0  0  0  0
 31 60  1  0  0  0  0
 31 70  1  0  0  0  0
 31 76  2  0  0  0  0
 32 65  1  0  0  0  0
 32 66  1  0  0  0  0
 32 77  2  0  0  0  0
 33 36  1  0  0  0  0
 34 48  1  0  0  0  0
 35 64  1  0  0  0  0
 36 38  1  0  0  0  0
 37 39  1  0  0  0  0
 37 42  1  0  0  0  0
 38 47  1  0  0  0  0
 39 50  1  0  0  0  0
 40 43  1  0  0  0  0
 40 49  1  0  0  0  0
 41 51  1  0  0  0  0
 41 52  1  0  0  0  0
 42 65  1  0  0  0  0
 43 66  1  0  0  0  0
 44 49  1  0  0  0  0
 44 66  1  0  0  0  0
 45 50  1  0  0  0  0
 45 65  1  0  0  0  0
 46 52  1  0  0  0  0
 46 71  1  0  0  0  0
 47 69  1  0  0  0  0
 48 64  1  0  0  0  0
 49 51  1  0  0  0  0
 50 63  1  0  0  0  0
 51 71  1  0  0  0  0
 52 79  1  0  0  0  0
 53 60  1  0  0  0  0
 54 61  1  0  0  0  0
 55 61  1  0  0  0  0
 56 61  1  0  0  0  0
 57 71  1  0  0  0  0
 58 72  1  0  0  0  0
 59 61  1  0  0  0  0
 59 70  1  0  0  0  0
 60 72  1  0  0  0  0
 62 63  1  0  0  0  0
M  CHG  2  71   1  72   1
M  ISO  4  32 100  52 101  66 100  79 101
M  END
> <Batch ID>
0177

> <Smiles>
CNC(C)C(=O)NC(C(=O)N1Cc2cc([101O:1][101CH:1]3CC(C4CC[100N:0]([100C:0](=O)N5CCCC(n6nc(-c7ccc(Oc8ccc(F)cc8F)cc7)c(C(N)=O)c6N)C5)C4)N(C)C3)ccc2CC1C(=O)NC1CCCc2ccccc21)C(C)(C)C

> <Shape>
0.229

> <Color>
0.060

> <Negative vol penalty>
0.000

$$$$

  -OEChem-04052322523D

 85 95  0     1  0  0  0  0  0999 V2000
  -31.6208  -33.7709   24.2064 C   0  0  0  0  0  0  0  0  0  0  0  0
  -31.4067  -32.7047   23.3387 C   0  0  0  0  0  0  0  0  0  0  0  0
  -24.5045   -8.8667   21.4316 C   0  0  0  0  0  0  0  0  0  0  0  0
  -23.4350  -10.8967   22.1882 C   0  0  0  0  0  0  0  0  0  0  0  0
  -30.7625  -33.9724   25.2864 C   0  0  0  0  0  0  0  0  0  0  0  0
  -30.3347  -31.8387   23.5514 C   0  0  0  0  0  0  0  0  0  0  0  0
  -26.9612  -29.0371   19.2762 C   0  0  0  0  0  0  0  0  0  0  0  0
  -23.8724   -8.1539   22.4504 C   0  0  0  0  0  0  0  0  0  0  0  0
  -22.8028  -10.1839   23.2070 C   0  0  0  0  0  0  0  0  0  0  0  0
  -27.0025  -27.7492   18.7440 C   0  0  0  0  0  0  0  0  0  0  0  0
  -20.8103   -6.8508   23.0491 C   0  0  0  0  0  0  0  0  0  0  0  0
  -20.2255   -5.6284   22.7185 C   0  0  0  0  0  0  0  0  0  0  0  0
  -25.2842  -27.0613   20.2912 C   0  0  0  0  0  0  0  0  0  0  0  0
  -21.6706   -4.5098   24.2988 C   0  0  0  0  0  0  0  0  0  0  0  0
  -24.2859  -10.2381   21.3006 C   0  0  0  0  0  0  0  0  0  0  0  0
  -24.4565  -11.2064   18.9466 C   0  0  0  0  0  0  0  0  0  0  0  0
  -29.6738  -33.1141   25.5069 C   0  0  0  0  0  0  0  0  0  0  0  0
  -26.0874  -29.3445   20.3290 C   0  0  0  0  0  0  0  0  0  0  0  0
  -29.4618  -32.0281   24.6362 C   0  0  0  0  0  0  0  0  0  0  0  0
  -25.2320  -28.3545   20.8333 C   0  0  0  0  0  0  0  0  0  0  0  0
  -23.0215   -8.8125   23.3381 C   0  0  0  0  0  0  0  0  0  0  0  0
  -26.1660  -26.7603   19.2534 C   0  0  0  0  0  0  0  0  0  0  0  0
  -21.8253   -6.9028   24.0045 C   0  0  0  0  0  0  0  0  0  0  0  0
  -20.6557   -4.4579   23.3434 C   0  0  0  0  0  0  0  0  0  0  0  0
  -22.2554   -5.7322   24.6294 C   0  0  0  0  0  0  0  0  0  0  0  0
  -24.9391  -10.9751   20.2487 C   0  0  0  0  0  0  0  0  0  0  0  0
  -25.4405  -11.9507   18.3430 C   0  0  0  0  0  0  0  0  0  0  0  0
  -23.2287  -10.7861   18.3372 C   0  0  0  0  0  0  0  0  0  0  0  0
  -26.4490  -30.3362   23.3273 C   0  0  0  0  0  0  0  0  0  0  0  0
  -23.2125  -30.5358   23.2399 C   0  0  0  0  0  0  0  0  0  0  0  0
  -20.2825  -29.4955   21.8327 C   0  0  0  0  0  0  0  0  0  0  0  0
  -29.6858  -15.5937   20.4775 C   0  0  0  0  0  0  0  0  0  0  0  0
  -28.8009  -33.3443   26.7151 C   0  0  0  0  0  0  0  0  0  0  0  0
  -26.0360  -30.7455   20.8742 C   0  0  0  0  0  0  0  0  0  0  0  0
  -24.2614  -28.6385   21.9494 C   0  0  0  0  0  0  0  0  0  0  0  0
  -27.4687  -32.6015   26.6545 C   0  0  0  0  0  0  0  0  0  0  0  0
  -30.1638  -12.7049   18.4520 C   0  0  0  0  0  0  0  0  0  0  0  0
  -27.6836  -31.1541   26.2236 C   0  0  0  0  0  0  0  0  0  0  0  0
  -27.0155  -17.8230   24.7459 C   0  0  0  0  0  0  0  0  0  0  0  0
  -27.5194  -16.5063   24.2242 C   0  0  0  0  0  0  0  0  0  0  0  0
  -28.8355  -11.9548   18.5653 C   0  0  0  0  0  0  0  0  0  0  0  0
  -28.0703  -23.0213   19.5501 C   0  0  0  0  0  0  0  0  0  0  0  0
  -30.5441  -13.3811   19.7674 C   0  0  0  0  0  0  0  0  0  0  0  0
  -28.1784  -13.5145   20.4453 C   0  0  0  0  0  0  0  0  0  0  0  0
  -27.6725  -19.7193   22.0832 C   0  0  0  0  0  0  0  0  0  0  0  0
  -28.2953  -31.0816   24.8194 C   0  0  1  0  0  0  0  0  0  0  0  0
  -25.4729  -30.8153   22.2903 C   0  0  1  0  0  0  0  0  0  0  0  0
  -28.0448  -17.7928   23.6502 C   0  0  0  0  0  0  0  0  0  0  0  0
  -27.6766  -18.2029   22.2568 C   0  0  2  0  0  0  0  0  0  0  0  0
  -27.0216  -22.1675   20.2132 C   0  0  1  0  0  0  0  0  0  0  0  0
  -26.6181  -23.2002   19.1928 C   0  0  1  0  0  0  0  0  0  0  0  0
  -27.7252  -12.8626   19.1278 C   0  0  2  0  0  0  0  0  0  0  0  0
  -28.6775  -17.7432   21.2001 C   0  0  2  0  0  0  0  0  0  0  0  0
  -28.3052  -18.5983   19.9918 C   0  0  2  0  0  0  0  0  0  0  0  0
  -29.4222  -18.7422   18.9719 C   0  0  0  0  0  0  0  0  0  0  0  0
  -17.7981  -29.8081   21.9972 C   0  0  0  0  0  0  0  0  0  0  0  0
  -23.1627  -28.8002   25.7490 C   0  0  0  0  0  0  0  0  0  0  0  0
  -20.7354  -28.3657   25.3158 C   0  0  0  0  0  0  0  0  0  0  0  0
  -21.5253  -30.6906   25.7555 C   0  0  0  0  0  0  0  0  0  0  0  0
  -20.1103  -30.5142   19.0593 C   0  0  0  0  0  0  0  0  0  0  0  0
  -26.9218  -20.7172   19.8882 C   0  0  0  0  0  0  0  0  0  0  0  0
  -25.8876  -24.4269   19.6191 C   0  0  0  0  0  0  0  0  0  1  0  0
  -22.0745  -29.5920   23.5456 C   0  0  1  0  0  0  0  0  0  0  0  0
  -19.0803  -30.2687   21.3215 C   0  0  2  0  0  0  0  0  0  0  0  0
  -21.8940  -29.3560   25.0717 C   0  0  0  0  0  0  0  0  0  0  0  0
  -26.1365  -11.5275   20.4606 N   0  0  0  0  0  0  0  0  0  0  0  0
  -26.4147  -12.1133   19.2835 N   0  0  0  0  0  0  0  0  0  0  0  0
  -24.2530  -30.0218   22.4532 N   0  0  0  0  0  0  0  0  0  0  0  0
  -29.4492  -14.2287   20.2458 N   0  0  0  0  0  0  0  0  0  0  0  0
  -25.5587  -12.4753   17.1048 N   0  0  0  0  0  0  0  0  0  0  0  0
  -22.3298  -10.0275   19.0995 N   0  0  0  0  0  0  0  0  0  0  0  0
  -27.2831  -31.3246   23.8140 N   0  0  0  0  0  0  0  0  0  0  0  0
  -20.8976  -30.1436   22.8830 N   0  0  0  0  0  0  0  0  0  0  0  0
  -28.5928  -16.3264   20.9237 N   0  0  0  0  0  0  0  0  0  0  0  0
  -27.9867  -19.9529   20.6141 N   0  3  1  0  0  0  0  0  0  0  0  0
  -18.9304  -30.0802   19.8508 N   0  3  0  0  0  0  0  0  0  0  0  0
  -22.9445  -11.0606   17.1467 O   0  0  0  0  0  0  0  0  0  0  0  0
  -26.4446  -29.1575   23.6623 O   0  0  0  0  0  0  0  0  0  0  0  0
  -23.1759  -31.6887   23.6770 O   0  0  0  0  0  0  0  0  0  0  0  0
  -20.6381  -28.4221   21.3512 O   0  0  0  0  0  0  0  0  0  0  0  0
  -30.7881  -16.1216   20.2949 O   0  0  0  0  0  0  0  0  0  0  0  0
  -22.4043   -8.1173   24.3322 O   0  0  0  0  0  0  0  0  0  0  0  0
  -26.2047  -25.5022   18.7362 O   0  0  0  0  0  0  0  0  0  1  0  0
  -20.0930   -3.2842   23.0270 F   0  0  0  0  0  0  0  0  0  0  0  0
  -23.2293   -5.7760   25.5489 F   0  0  0  0  0  0  0  0  0  0  0  0
  1  2  1  0  0  0  0
  1  5  2  0  0  0  0
  2  6  2  0  0  0  0
  3  8  2  0  0  0  0
  3 15  1  0  0  0  0
  4  9  1  0  0  0  0
  4 15  2  0  0  0  0
  5 17  1  0  0  0  0
  6 19  1  0  0  0  0
  7 10  2  0  0  0  0
  7 18  1  0  0  0  0
  8 21  1  0  0  0  0
  9 21  2  0  0  0  0
 10 22  1  0  0  0  0
 11 12  2  0  0  0  0
 11 23  1  0  0  0  0
 12 24  1  0  0  0  0
 13 20  1  0  0  0  0
 13 22  2  0  0  0  0
 14 24  2  0  0  0  0
 14 25  1  0  0  0  0
 15 26  1  0  0  0  0
 16 26  1  0  0  0  0
 16 27  2  0  0  0  0
 16 28  1  0  0  0  0
 17 19  2  0  0  0  0
 17 33  1  0  0  0  0
 18 20  2  0  0  0  0
 18 34  1  0  0  0  0
 19 46  1  0  0  0  0
 20 35  1  0  0  0  0
 21 82  1  0  0  0  0
 22 83  1  0  0  0  0
 23 25  2  0  0  0  0
 23 82  1  0  0  0  0
 24 84  1  0  0  0  0
 25 85  1  0  0  0  0
 26 66  2  0  0  0  0
 27 67  1  0  0  0  0
 27 70  1  0  0  0  0
 28 71  1  0  0  0  0
 28 77  2  0  0  0  0
 29 47  1  0  0  0  0
 29 72  1  0  0  0  0
 29 78  2  0  0  0  0
 30 63  1  0  0  0  0
 30 68  1  0  0  0  0
 30 79  2  0  0  0  0
 31 64  1  0  0  0  0
 31 73  1  0  0  0  0
 31 80  2  0  0  0  0
 32 69  1  0  0  0  0
 32 74  1  0  0  0  0
 32 81  2  0  0  0  0
 33 36  1  0  0  0  0
 34 47  1  0  0  0  0
 35 68  1  0  0  0  0
 36 38  1  0  0  0  0
 37 41  1  0  0  0  0
 37 43  1  0  0  0  0
 38 46  1  0  0  0  0
 39 40  1  0  0  0  0
 39 48  1  0  0  0  0
 40 48  1  0  0  0  0
 41 52  1  0  0  0  0
 42 50  1  0  0  0  0
 42 51  1  0  0  0  0
 43 69  1  0  0  0  0
 44 52  1  0  0  0  0
 44 69  1  0  0  0  0
 45 49  1  0  0  0  0
 45 75  1  0  0  0  0
 46 72  1  0  0  0  0
 47 68  1  0  0  0  0
 48 49  1  0  0  0  0
 49 53  1  0  0  0  0
 50 51  1  0  0  0  0
 50 61  1  0  0  0  0
 51 62  1  0  0  0  0
 52 67  1  0  0  0  0
 53 54  1  0  0  0  0
 53 74  1  0  0  0  0
 54 55  1  0  0  0  0
 54 75  1  0  0  0  0
 56 64  1  0  0  0  0
 57 65  1  0  0  0  0
 58 65  1  0  0  0  0
 59 65  1  0  0  0  0
 60 76  1  0  0  0  0
 61 75  1  0  0  0  0
 62 83  1  0  0  0  0
 63 65  1  0  0  0  0
 63 73  1  0  0  0  0
 64 76  1  0  0  0  0
 66 67  1  0  0  0  0
M  CHG  2  75   1  76   1
M  ISO  4  32 100  62 101  74 100  83 101
M  END
> <Batch ID>
0177

> <Smiles>
CNC(C)C(=O)NC(C(=O)N1Cc2cc([101O:1][101CH2:1]C3CC3CN3CC(C4CC4)C([100NH:0][100C:0](=O)N4CCCC(n5nc(-c6ccc(Oc7ccc(F)cc7F)cc6)c(C(N)=O)c5N)C4)C3C)ccc2CC1C(=O)NC1CCCc2ccccc21)C(C)(C)C

> <Shape>
0.291

> <Color>
0.103

> <Negative vol penalty>
0.000

$$$$

  -OEChem-04052322523D

 86 95  0     1  0  0  0  0  0999 V2000
  -30.6167  -36.1715   22.9893 C   0  0  0  0  0  0  0  0  0  0  0  0
  -30.6819  -34.9533   22.3206 C   0  0  0  0  0  0  0  0  0  0  0  0
  -23.0766  -10.0408   20.0407 C   0  0  0  0  0  0  0  0  0  0  0  0
  -24.0214   -9.3106   22.1410 C   0  0  0  0  0  0  0  0  0  0  0  0
  -29.7334  -36.3336   24.0558 C   0  0  0  0  0  0  0  0  0  0  0  0
  -29.8645  -33.8961   22.7188 C   0  0  0  0  0  0  0  0  0  0  0  0
  -27.3205  -29.6494   19.1133 C   0  0  0  0  0  0  0  0  0  0  0  0
  -22.2887   -8.8907   19.9953 C   0  0  0  0  0  0  0  0  0  0  0  0
  -23.2335   -8.1605   22.0956 C   0  0  0  0  0  0  0  0  0  0  0  0
  -27.6884  -28.3413   18.8012 C   0  0  0  0  0  0  0  0  0  0  0  0
  -20.0242   -7.3151   22.7327 C   0  0  0  0  0  0  0  0  0  0  0  0
  -19.3650   -6.9364   23.9022 C   0  0  0  0  0  0  0  0  0  0  0  0
  -26.1984  -27.5205   20.5116 C   0  0  0  0  0  0  0  0  0  0  0  0
  -27.3102  -21.2596   19.4371 C   0  0  0  0  0  0  0  0  0  0  0  0
  -20.5456   -4.8286   23.8852 C   0  0  0  0  0  0  0  0  0  0  0  0
  -23.9430  -10.2508   21.1135 C   0  0  0  0  0  0  0  0  0  0  0  0
  -24.4229  -12.6762   21.7418 C   0  0  0  0  0  0  0  0  0  0  0  0
  -28.8979  -35.2808   24.4611 C   0  0  0  0  0  0  0  0  0  0  0  0
  -26.3954  -29.9038   20.1360 C   0  0  0  0  0  0  0  0  0  0  0  0
  -28.9702  -34.0438   23.7926 C   0  0  0  0  0  0  0  0  0  0  0  0
  -25.8185  -28.8326   20.8330 C   0  0  0  0  0  0  0  0  0  0  0  0
  -26.7675  -22.4628   19.8742 C   0  0  0  0  0  0  0  0  0  0  0  0
  -28.4670  -21.2647   18.6657 C   0  0  0  0  0  0  0  0  0  0  0  0
  -22.3672   -7.9506   21.0227 C   0  0  0  0  0  0  0  0  0  0  0  0
  -27.1295  -27.2768   19.5023 C   0  0  0  0  0  0  0  0  0  0  0  0
  -20.9441   -6.4505   22.1394 C   0  0  0  0  0  0  0  0  0  0  0  0
  -19.6257   -5.6932   24.4784 C   0  0  0  0  0  0  0  0  0  0  0  0
  -21.2048   -5.2073   22.7157 C   0  0  0  0  0  0  0  0  0  0  0  0
  -24.7576  -11.4384   21.1607 C   0  0  0  0  0  0  0  0  0  0  0  0
  -27.4146  -23.6344   19.5157 C   0  0  0  0  0  0  0  0  0  0  0  0
  -29.0379  -22.4899   18.3611 C   0  0  0  0  0  0  0  0  0  0  0  0
  -25.5241  -13.4673   21.5224 C   0  0  0  0  0  0  0  0  0  0  0  0
  -23.2240  -13.0751   22.4193 C   0  0  0  0  0  0  0  0  0  0  0  0
  -26.4880  -31.4529   22.9101 C   0  0  0  0  0  0  0  0  0  0  0  0
  -23.3071  -30.8175   22.9262 C   0  0  0  0  0  0  0  0  0  0  0  0
  -20.7398  -28.8514   21.8351 C   0  0  0  0  0  0  0  0  0  0  0  0
  -29.3972  -15.2658   17.8290 C   0  0  0  0  0  0  0  0  0  0  0  0
  -27.9931  -35.4885   25.6497 C   0  0  0  0  0  0  0  0  0  0  0  0
  -25.9890  -31.3192   20.4425 C   0  0  0  0  0  0  0  0  0  0  0  0
  -24.8056  -29.0513   21.9260 C   0  0  0  0  0  0  0  0  0  0  0  0
  -26.8932  -34.4367   25.7691 C   0  0  0  0  0  0  0  0  0  0  0  0
  -30.1544  -12.3025   19.8583 C   0  0  0  0  0  0  0  0  0  0  0  0
  -27.4694  -33.0376   25.5761 C   0  0  0  0  0  0  0  0  0  0  0  0
  -28.7785  -11.8915   20.3843 C   0  0  0  0  0  0  0  0  0  0  0  0
  -28.8823  -18.2667   19.8896 C   0  0  0  0  0  0  0  0  0  0  0  0
  -30.0649  -12.9854   18.4955 C   0  0  0  0  0  0  0  0  0  0  0  0
  -28.6435  -16.7654   19.7665 C   0  0  0  0  0  0  0  0  0  0  0  0
  -27.7563  -13.7085   18.9654 C   0  0  0  0  0  0  0  0  0  0  0  0
  -28.9996  -17.6995   17.5835 C   0  0  0  0  0  0  0  0  0  0  0  0
  -28.0819  -32.8811   24.1790 C   0  0  1  0  0  0  0  0  0  0  0  0
  -25.4241  -31.4873   21.8496 C   0  0  1  0  0  0  0  0  0  0  0  0
  -27.7990  -13.0799   20.3651 C   0  0  1  0  0  0  0  0  0  0  0  0
  -28.4599  -18.7741   18.5153 C   0  0  2  0  0  0  0  0  0  0  0  0
  -30.2815  -22.5603   17.5356 C   0  0  0  0  0  0  0  0  0  0  0  0
  -24.2721  -22.2185   19.8680 C   0  0  0  0  0  0  0  0  0  0  0  0
  -18.2571  -28.5552   22.0491 C   0  0  0  0  0  0  0  0  0  0  0  0
  -23.6951  -29.5811   25.6886 C   0  0  0  0  0  0  0  0  0  0  0  0
  -21.4585  -28.4849   25.4355 C   0  0  0  0  0  0  0  0  0  0  0  0
  -21.6315  -30.9734   25.4494 C   0  0  0  0  0  0  0  0  0  0  0  0
  -20.3195  -29.3038   18.9407 C   0  0  0  0  0  0  0  0  0  0  0  0
  -25.5283  -22.4642   20.7010 C   0  0  0  0  0  0  0  0  0  0  0  0
  -26.8767  -24.9562   19.9570 C   0  0  0  0  0  0  0  0  0  1  0  0
  -22.4455  -29.6856   23.4317 C   0  0  1  0  0  0  0  0  0  0  0  0
  -19.3815  -29.1994   21.2533 C   0  0  2  0  0  0  0  0  0  0  0  0
  -22.3282  -29.6769   24.9820 C   0  0  0  0  0  0  0  0  0  0  0  0
  -25.9759  -11.4383   20.6132 N   0  0  0  0  0  0  0  0  0  0  0  0
  -28.5398  -23.6791   18.7677 N   0  0  0  0  0  0  0  0  0  0  0  0
  -26.4164  -12.6858   20.8492 N   0  0  0  0  0  0  0  0  0  0  0  0
  -24.4454  -30.4536   22.1930 N   0  0  0  0  0  0  0  0  0  0  0  0
  -29.1026  -14.0872   18.5230 N   0  0  0  0  0  0  0  0  0  0  0  0
  -28.9222  -16.4644   18.3599 N   0  0  0  0  0  0  0  0  0  0  0  0
  -25.8063  -14.7483   21.8416 N   0  0  0  0  0  0  0  0  0  0  0  0
  -22.1911  -12.1379   22.5573 N   0  0  0  0  0  0  0  0  0  0  0  0
  -29.0168  -20.0688   18.2243 N   0  0  0  0  0  0  0  0  0  0  0  0
  -27.0430  -32.6869   23.1905 N   0  0  0  0  0  0  0  0  0  0  0  0
  -21.1683  -29.8028   22.7364 N   0  0  0  0  0  0  0  0  0  0  0  0
  -19.2870  -28.7304   19.8419 N   0  3  0  0  0  0  0  0  0  0  0  0
  -23.0666  -14.2336   22.8741 O   0  0  0  0  0  0  0  0  0  0  0  0
  -26.7825  -30.3860   23.4361 O   0  0  0  0  0  0  0  0  0  0  0  0
  -22.9782  -31.9818   23.1667 O   0  0  0  0  0  0  0  0  0  0  0  0
  -21.3571  -27.8352   21.5241 O   0  0  0  0  0  0  0  0  0  0  0  0
  -30.0940  -15.2537   16.8056 O   0  0  0  0  0  0  0  0  0  0  0  0
  -21.5983   -6.8283   20.9788 O   0  0  0  0  0  0  0  0  0  0  0  0
  -27.4898  -25.9900   19.1980 O   0  0  0  0  0  0  0  0  0  1  0  0
  -18.9937   -5.3303   25.6023 F   0  0  0  0  0  0  0  0  0  0  0  0
  -22.0884   -4.3729   22.1509 F   0  0  0  0  0  0  0  0  0  0  0  0
  1  2  1  0  0  0  0
  1  5  2  0  0  0  0
  2  6  2  0  0  0  0
  3  8  2  0  0  0  0
  3 16  1  0  0  0  0
  4  9  1  0  0  0  0
  4 16  2  0  0  0  0
  5 18  1  0  0  0  0
  6 20  1  0  0  0  0
  7 10  2  0  0  0  0
  7 19  1  0  0  0  0
  8 24  1  0  0  0  0
  9 24  2  0  0  0  0
 10 25  1  0  0  0  0
 11 12  2  0  0  0  0
 11 26  1  0  0  0  0
 12 27  1  0  0  0  0
 13 21  1  0  0  0  0
 13 25  2  0  0  0  0
 14 22  1  0  0  0  0
 14 23  2  0  0  0  0
 15 27  2  0  0  0  0
 15 28  1  0  0  0  0
 16 29  1  0  0  0  0
 17 29  1  0  0  0  0
 17 32  2  0  0  0  0
 17 33  1  0  0  0  0
 18 20  2  0  0  0  0
 18 38  1  0  0  0  0
 19 21  2  0  0  0  0
 19 39  1  0  0  0  0
 20 50  1  0  0  0  0
 21 40  1  0  0  0  0
 22 30  2  0  0  0  0
 22 61  1  0  0  0  0
 23 31  1  0  0  0  0
 23 74  1  0  0  0  0
 24 83  1  0  0  0  0
 25 84  1  0  0  0  0
 26 28  2  0  0  0  0
 26 83  1  0  0  0  0
 27 85  1  0  0  0  0
 28 86  1  0  0  0  0
 29 66  2  0  0  0  0
 30 62  1  0  0  0  0
 30 67  1  0  0  0  0
 31 54  1  0  0  0  0
 31 67  2  0  0  0  0
 32 68  1  0  0  0  0
 32 72  1  0  0  0  0
 33 73  1  0  0  0  0
 33 78  2  0  0  0  0
 34 51  1  0  0  0  0
 34 75  1  0  0  0  0
 34 79  2  0  0  0  0
 35 63  1  0  0  0  0
 35 69  1  0  0  0  0
 35 80  2  0  0  0  0
 36 64  1  0  0  0  0
 36 76  1  0  0  0  0
 36 81  2  0  0  0  0
 37 70  1  0  0  0  0
 37 71  1  0  0  0  0
 37 82  2  0  0  0  0
 38 41  1  0  0  0  0
 39 51  1  0  0  0  0
 40 69  1  0  0  0  0
 41 43  1  0  0  0  0
 42 44  1  0  0  0  0
 42 46  1  0  0  0  0
 43 50  1  0  0  0  0
 44 52  1  0  0  0  0
 45 47  1  0  0  0  0
 45 53  1  0  0  0  0
 46 70  1  0  0  0  0
 47 71  1  0  0  0  0
 48 52  1  0  0  0  0
 48 70  1  0  0  0  0
 49 53  1  0  0  0  0
 49 71  1  0  0  0  0
 50 75  1  0  0  0  0
 51 69  1  0  0  0  0
 52 68  1  0  0  0  0
 53 74  1  0  0  0  0
 55 61  1  0  0  0  0
 56 64  1  0  0  0  0
 57 65  1  0  0  0  0
 58 65  1  0  0  0  0
 59 65  1  0  0  0  0
 60 77  1  0  0  0  0
 62 84  1  0  0  0  0
 63 65  1  0  0  0  0
 63 76  1  0  0  0  0
 64 77  1  0  0  0  0
 66 68  1  0  0  0  0
M  CHG  1  77   1
M  ISO  4  37 100  62 101  71 100  84 101
M  END
> <Batch ID>
0177

> <Smiles>
CCc1cc(NC2CC[100N:0]([100C:0](=O)N3CCCC(n4nc(-c5ccc(Oc6ccc(F)cc6F)cc5)c(C(N)=O)c4N)C3)C2)c(C)nc1[101CH2:1][101O:1]c1ccc2c(c1)CN(C(=O)C(NC(=O)C(C)NC)C(C)(C)C)C(C(=O)NC1CCCc3ccccc31)C2

> <Shape>
0.325

> <Color>
0.160

> <Negative vol penalty>
0.000

$$$$

  -OEChem-04052322523D

 87 97  0     1  0  0  0  0  0999 V2000
  -24.2476  -32.9842   14.3733 C   0  0  0  0  0  0  0  0  0  0  0  0
  -25.1358  -32.1612   15.0583 C   0  0  0  0  0  0  0  0  0  0  0  0
  -24.3741   -9.6507   23.0590 C   0  0  0  0  0  0  0  0  0  0  0  0
  -24.0005  -11.9035   23.8480 C   0  0  0  0  0  0  0  0  0  0  0  0
  -23.6191  -34.0361   15.0385 C   0  0  0  0  0  0  0  0  0  0  0  0
  -25.3969  -32.3904   16.4088 C   0  0  0  0  0  0  0  0  0  0  0  0
  -25.3683  -28.1282   19.1434 C   0  0  0  0  0  0  0  0  0  0  0  0
  -23.9779   -9.1506   24.2993 C   0  0  0  0  0  0  0  0  0  0  0  0
  -23.6043  -11.4034   25.0883 C   0  0  0  0  0  0  0  0  0  0  0  0
  -26.4997  -27.3169   19.0698 C   0  0  0  0  0  0  0  0  0  0  0  0
  -21.0794   -8.5749   25.9426 C   0  0  0  0  0  0  0  0  0  0  0  0
  -20.2022   -7.4905   25.9541 C   0  0  0  0  0  0  0  0  0  0  0  0
  -27.2764  -28.2199   21.1675 C   0  0  0  0  0  0  0  0  0  0  0  0
  -21.8395   -6.1789   27.1526 C   0  0  0  0  0  0  0  0  0  0  0  0
  -30.5205  -19.6422   20.0969 C   0  0  0  0  0  0  0  0  0  0  0  0
  -28.2447  -20.1626   20.0161 C   0  0  0  0  0  0  0  0  0  0  0  0
  -24.3855  -11.0272   22.8333 C   0  0  0  0  0  0  0  0  0  0  0  0
  -23.9753  -11.7994   20.4368 C   0  0  0  0  0  0  0  0  0  0  0  0
  -23.8653  -34.2723   16.4002 C   0  0  0  0  0  0  0  0  0  0  0  0
  -25.1875  -29.0009   20.2261 C   0  0  0  0  0  0  0  0  0  0  0  0
  -24.7721  -33.4472   17.0925 C   0  0  0  0  0  0  0  0  0  0  0  0
  -26.1406  -29.0394   21.2538 C   0  0  0  0  0  0  0  0  0  0  0  0
  -29.5400  -20.6099   20.1789 C   0  0  0  0  0  0  0  0  0  0  0  0
  -23.5930  -10.0269   25.3140 C   0  0  0  0  0  0  0  0  0  0  0  0
  -27.4554  -27.3647   20.0805 C   0  0  0  0  0  0  0  0  0  0  0  0
  -22.3367   -8.4614   26.5360 C   0  0  0  0  0  0  0  0  0  0  0  0
  -20.5823   -6.2925   26.5591 C   0  0  0  0  0  0  0  0  0  0  0  0
  -22.7167   -7.2634   27.1410 C   0  0  0  0  0  0  0  0  0  0  0  0
  -24.7952  -11.5444   21.5524 C   0  0  0  0  0  0  0  0  0  0  0  0
  -24.8365  -12.2782   19.4800 C   0  0  0  0  0  0  0  0  0  0  0  0
  -28.9649  -18.0254   19.7321 C   0  0  0  0  0  0  0  0  0  0  0  0
  -22.5616  -11.6196   20.2796 C   0  0  0  0  0  0  0  0  0  0  0  0
  -24.9433  -32.1536   20.5494 C   0  0  0  0  0  0  0  0  0  0  0  0
  -24.2964  -31.3955   23.6363 C   0  0  0  0  0  0  0  0  0  0  0  0
  -24.5954  -29.1549   26.1932 C   0  0  0  0  0  0  0  0  0  0  0  0
  -29.6798  -15.6635   19.4123 C   0  0  0  0  0  0  0  0  0  0  0  0
  -23.1984  -35.4506   17.0647 C   0  0  0  0  0  0  0  0  0  0  0  0
  -23.9485  -29.8501   20.3040 C   0  0  0  0  0  0  0  0  0  0  0  0
  -25.9835  -29.9442   22.4476 C   0  0  0  0  0  0  0  0  0  0  0  0
  -23.2436  -35.3959   18.5896 C   0  0  0  0  0  0  0  0  0  0  0  0
  -29.7071  -12.0391   18.7195 C   0  0  0  0  0  0  0  0  0  0  0  0
  -24.6460  -35.0352   19.0694 C   0  0  0  0  0  0  0  0  0  0  0  0
  -28.3929  -11.5649   19.3378 C   0  0  0  0  0  0  0  0  0  0  0  0
  -26.6325  -16.9185   17.9086 C   0  0  0  0  0  0  0  0  0  0  0  0
  -27.0331  -15.4747   17.8479 C   0  0  0  0  0  0  0  0  0  0  0  0
  -29.3404  -22.9455   19.3053 C   0  0  0  0  0  0  0  0  0  0  0  0
  -30.2687  -13.2575   19.4461 C   0  0  0  0  0  0  0  0  0  0  0  0
  -27.9938  -13.9188   20.1643 C   0  0  0  0  0  0  0  0  0  0  0  0
  -29.8590  -22.0434   20.4268 C   0  0  1  0  0  0  0  0  0  0  0  0
  -25.0623  -33.6486   18.5640 C   0  0  1  0  0  0  0  0  0  0  0  0
  -24.1195  -31.0760   21.1958 C   0  0  1  0  0  0  0  0  0  0  0  0
  -27.3800  -12.7194   19.4266 C   0  0  2  0  0  0  0  0  0  0  0  0
  -27.2959  -16.2739   19.0948 C   0  0  0  0  0  0  0  0  0  0  0  0
  -29.3949  -24.3307   19.9361 C   0  0  1  0  0  0  0  0  0  0  0  0
  -29.1393  -22.6028   21.6606 C   0  0  1  0  0  0  0  0  0  0  0  0
  -29.8693  -22.3663   22.9708 C   0  0  0  0  0  0  0  0  0  0  0  0
  -23.9963  -28.8307   28.6084 C   0  0  0  0  0  0  0  0  0  0  0  0
  -26.5224  -33.3196   24.4443 C   0  0  0  0  0  0  0  0  0  0  0  0
  -26.5199  -32.2598   26.7126 C   0  0  0  0  0  0  0  0  0  0  0  0
  -24.4781  -33.4269   25.8810 C   0  0  0  0  0  0  0  0  0  0  0  0
  -22.9734  -26.7544   25.5886 C   0  0  0  0  0  0  0  0  0  0  0  0
  -28.4246  -25.3249   19.3349 C   0  0  0  0  0  0  0  0  0  1  0  0
  -25.1228  -31.1949   24.8836 C   0  0  1  0  0  0  0  0  0  0  0  0
  -23.5739  -28.5951   27.1665 C   0  0  2  0  0  0  0  0  0  0  0  0
  -25.6650  -32.5345   25.4571 C   0  0  0  0  0  0  0  0  0  0  0  0
  -30.2676  -18.3359   19.8737 N   0  0  0  0  0  0  0  0  0  0  0  0
  -27.9198  -18.8727   19.7902 N   0  0  0  0  0  0  0  0  0  0  0  0
  -26.0787  -11.8369   21.3266 N   0  0  0  0  0  0  0  0  0  0  0  0
  -26.0719  -12.2805   20.0580 N   0  0  0  0  0  0  0  0  0  0  0  0
  -24.7581  -30.7598   22.4750 N   0  0  0  0  0  0  0  0  0  0  0  0
  -29.2709  -14.3223   19.5562 N   0  0  0  0  0  0  0  0  0  0  0  0
  -24.6500  -12.6932   18.2090 N   0  0  0  0  0  0  0  0  0  0  0  0
  -21.8273  -11.1176   21.3627 N   0  0  0  0  0  0  0  0  0  0  0  0
  -24.4293  -32.6125   19.3516 N   0  0  0  0  0  0  0  0  0  0  0  0
  -24.2851  -30.4432   25.8118 N   0  0  0  0  0  0  0  0  0  0  0  0
  -28.6553  -16.6346   19.4916 N   0  0  0  0  0  0  0  0  0  0  0  0
  -29.0580  -24.0873   21.3856 N   0  3  0  0  0  0  0  0  0  0  0  0
  -23.4096  -27.1286   26.9585 N   0  3  0  0  0  0  0  0  0  0  0  0
  -21.9697  -11.8803   19.2048 O   0  0  0  0  0  0  0  0  0  0  0  0
  -25.9685  -32.5411   21.0975 O   0  0  0  0  0  0  0  0  0  0  0  0
  -23.2749  -32.0847   23.6920 O   0  0  0  0  0  0  0  0  0  0  0  0
  -25.5731  -28.5149   25.8123 O   0  0  0  0  0  0  0  0  0  0  0  0
  -30.8594  -15.9654   19.1954 O   0  0  0  0  0  0  0  0  0  0  0  0
  -23.2061   -9.5392   26.5244 O   0  0  0  0  0  0  0  0  0  0  0  0
  -28.5610  -26.5743   20.0107 O   0  0  0  0  0  0  0  0  0  1  0  0
  -19.7393   -5.2516   26.5715 F   0  0  0  0  0  0  0  0  0  0  0  0
  -23.9228   -7.1487   27.7138 F   0  0  0  0  0  0  0  0  0  0  0  0
  1  2  1  0  0  0  0
  1  5  2  0  0  0  0
  2  6  2  0  0  0  0
  3  8  2  0  0  0  0
  3 17  1  0  0  0  0
  4  9  1  0  0  0  0
  4 17  2  0  0  0  0
  5 19  1  0  0  0  0
  6 21  1  0  0  0  0
  7 10  2  0  0  0  0
  7 20  1  0  0  0  0
  8 24  1  0  0  0  0
  9 24  2  0  0  0  0
 10 25  1  0  0  0  0
 11 12  2  0  0  0  0
 11 26  1  0  0  0  0
 12 27  1  0  0  0  0
 13 22  1  0  0  0  0
 13 25  2  0  0  0  0
 14 27  2  0  0  0  0
 14 28  1  0  0  0  0
 15 23  1  0  0  0  0
 15 66  2  0  0  0  0
 16 23  2  0  0  0  0
 16 67  1  0  0  0  0
 17 29  1  0  0  0  0
 18 29  1  0  0  0  0
 18 30  2  0  0  0  0
 18 32  1  0  0  0  0
 19 21  2  0  0  0  0
 19 37  1  0  0  0  0
 20 22  2  0  0  0  0
 20 38  1  0  0  0  0
 21 50  1  0  0  0  0
 22 39  1  0  0  0  0
 23 49  1  0  0  0  0
 24 84  1  0  0  0  0
 25 85  1  0  0  0  0
 26 28  2  0  0  0  0
 26 84  1  0  0  0  0
 27 86  1  0  0  0  0
 28 87  1  0  0  0  0
 29 68  2  0  0  0  0
 30 69  1  0  0  0  0
 30 72  1  0  0  0  0
 31 66  1  0  0  0  0
 31 67  2  0  0  0  0
 31 76  1  0  0  0  0
 32 73  1  0  0  0  0
 32 79  2  0  0  0  0
 33 51  1  0  0  0  0
 33 74  1  0  0  0  0
 33 80  2  0  0  0  0
 34 63  1  0  0  0  0
 34 70  1  0  0  0  0
 34 81  2  0  0  0  0
 35 64  1  0  0  0  0
 35 75  1  0  0  0  0
 35 82  2  0  0  0  0
 36 71  1  0  0  0  0
 36 76  1  0  0  0  0
 36 83  2  0  0  0  0
 37 40  1  0  0  0  0
 38 51  1  0  0  0  0
 39 70  1  0  0  0  0
 40 42  1  0  0  0  0
 41 43  1  0  0  0  0
 41 47  1  0  0  0  0
 42 50  1  0  0  0  0
 43 52  1  0  0  0  0
 44 45  1  0  0  0  0
 44 53  1  0  0  0  0
 45 53  1  0  0  0  0
 46 49  1  0  0  0  0
 46 54  1  0  0  0  0
 47 71  1  0  0  0  0
 48 52  1  0  0  0  0
 48 71  1  0  0  0  0
 49 55  1  0  0  0  0
 50 74  1  0  0  0  0
 51 70  1  0  0  0  0
 52 69  1  0  0  0  0
 53 76  1  0  0  0  0
 54 62  1  0  0  0  0
 54 77  1  0  0  0  0
 55 56  1  0  0  0  0
 55 77  1  0  0  0  0
 57 64  1  0  0  0  0
 58 65  1  0  0  0  0
 59 65  1  0  0  0  0
 60 65  1  0  0  0  0
 61 78  1  0  0  0  0
 62 85  1  0  0  0  0
 63 65  1  0  0  0  0
 63 75  1  0  0  0  0
 64 78  1  0  0  0  0
 68 69  1  0  0  0  0
M  CHG  2  77   1  78   1
M  ISO  4  36 100  62 101  76 100  85 101
M  END
> <Batch ID>
0177

> <Smiles>
CNC(C)C(=O)NC(C(=O)N1Cc2cc([101O:1][101CH2:1]C3CC(c4cnc([100N:0](C5CC5)[100C:0](=O)N5CCCC(n6nc(-c7ccc(Oc8ccc(F)cc8F)cc7)c(C(N)=O)c6N)C5)nc4)C(C)N3)ccc2CC1C(=O)NC1CCCc2ccccc21)C(C)(C)C

> <Shape>
0.264

> <Color>
0.126

> <Negative vol penalty>
0.000

$$$$

  -OEChem-04052322523D

 88 98  0     1  0  0  0  0  0999 V2000
  -25.5357  -16.4914   36.7924 C   0  0  0  0  0  0  0  0  0  0  0  0
  -25.5654  -16.7816   35.4321 C   0  0  0  0  0  0  0  0  0  0  0  0
  -22.6507  -10.2839   20.1959 C   0  0  0  0  0  0  0  0  0  0  0  0
  -24.2182   -9.5330   21.8741 C   0  0  0  0  0  0  0  0  0  0  0  0
  -26.3031  -15.4425   37.2971 C   0  0  0  0  0  0  0  0  0  0  0  0
  -26.3633  -16.0236   34.5759 C   0  0  0  0  0  0  0  0  0  0  0  0
  -23.9566  -14.7334   30.3111 C   0  0  0  0  0  0  0  0  0  0  0  0
  -21.8798   -9.1403   20.4042 C   0  0  0  0  0  0  0  0  0  0  0  0
  -23.4472   -8.3893   22.0824 C   0  0  0  0  0  0  0  0  0  0  0  0
  -23.8403  -15.7118   29.3247 C   0  0  0  0  0  0  0  0  0  0  0  0
  -19.6209   -8.0365   22.6651 C   0  0  0  0  0  0  0  0  0  0  0  0
  -18.2394   -8.1966   22.7720 C   0  0  0  0  0  0  0  0  0  0  0  0
  -25.6956  -14.7275   28.1380 C   0  0  0  0  0  0  0  0  0  0  0  0
  -17.9244   -6.7545   20.8593 C   0  0  0  0  0  0  0  0  0  0  0  0
  -23.8199  -10.4802   20.9309 C   0  0  0  0  0  0  0  0  0  0  0  0
  -24.2152  -13.0000   20.8828 C   0  0  0  0  0  0  0  0  0  0  0  0
  -27.1034  -14.6651   36.4452 C   0  0  0  0  0  0  0  0  0  0  0  0
  -24.9520  -13.7495   30.2238 C   0  0  0  0  0  0  0  0  0  0  0  0
  -27.1432  -14.9641   35.0699 C   0  0  0  0  0  0  0  0  0  0  0  0
  -25.8208  -13.7362   29.1233 C   0  0  0  0  0  0  0  0  0  0  0  0
  -25.9702  -17.4583   25.4786 C   0  0  0  0  0  0  0  0  0  0  0  0
  -22.2780   -8.1930   21.3474 C   0  0  0  0  0  0  0  0  0  0  0  0
  -24.7116  -15.7107   28.2395 C   0  0  0  0  0  0  0  0  0  0  0  0
  -20.1542   -7.2355   21.6553 C   0  0  0  0  0  0  0  0  0  0  0  0
  -17.3912   -7.5556   21.8691 C   0  0  0  0  0  0  0  0  0  0  0  0
  -19.3059   -6.5945   20.7525 C   0  0  0  0  0  0  0  0  0  0  0  0
  -24.6170  -11.6612   20.7158 C   0  0  0  0  0  0  0  0  0  0  0  0
  -27.1620  -18.0669   25.1418 C   0  0  0  0  0  0  0  0  0  0  0  0
  -25.7544  -17.2747   26.8291 C   0  0  0  0  0  0  0  0  0  1  0  0
  -25.3277  -13.7358   20.5551 C   0  0  0  0  0  0  0  0  0  0  0  0
  -27.7528  -18.2350   27.3303 C   0  0  0  0  0  0  0  0  0  0  0  0
  -22.9495  -13.5311   21.2971 C   0  0  0  0  0  0  0  0  0  0  0  0
  -27.4507  -12.9221   32.0058 C   0  0  0  0  0  0  0  0  0  0  0  0
  -27.6487  -10.4665   29.8956 C   0  0  0  0  0  0  0  0  0  0  0  0
  -26.9420   -9.2565   26.7837 C   0  0  0  0  0  0  0  0  0  0  0  0
  -30.7112  -14.7217   20.6849 C   0  0  0  0  0  0  0  0  0  0  0  0
  -27.9520  -13.5716   37.0441 C   0  0  0  0  0  0  0  0  0  0  0  0
  -25.0473  -12.6852   31.2824 C   0  0  0  0  0  0  0  0  0  0  0  0
  -26.8935  -12.6897   28.9724 C   0  0  0  0  0  0  0  0  0  0  0  0
  -28.4822  -12.5783   36.0133 C   0  0  0  0  0  0  0  0  0  0  0  0
  -29.6750  -12.3631   18.3790 C   0  0  0  0  0  0  0  0  0  0  0  0
  -24.4593  -18.0362   23.4644 C   0  0  0  0  0  0  0  0  0  0  0  0
  -23.5602  -17.5292   24.5483 C   0  0  0  0  0  0  0  0  0  0  0  0
  -29.0562  -13.3156   34.8076 C   0  0  0  0  0  0  0  0  0  0  0  0
  -28.2301  -12.0710   18.7832 C   0  0  0  0  0  0  0  0  0  0  0  0
  -29.1239  -17.8773   21.8026 C   0  0  0  0  0  0  0  0  0  0  0  0
  -28.5964  -16.0620   23.4686 C   0  0  0  0  0  0  0  0  0  0  0  0
  -30.5689  -12.4968   19.6066 C   0  0  0  0  0  0  0  0  0  0  0  0
  -30.3331  -17.0717   21.3356 C   0  0  0  0  0  0  0  0  0  0  0  0
  -29.8177  -15.2938   22.9744 C   0  0  0  0  0  0  0  0  0  0  0  0
  -28.6655  -13.2563   20.9908 C   0  0  0  0  0  0  0  0  0  0  0  0
  -24.9783  -17.0263   24.4558 C   0  0  0  0  0  0  0  0  0  0  0  0
  -27.9771  -14.1489   34.1055 C   0  0  1  0  0  0  0  0  0  0  0  0
  -26.4261  -12.0364   31.3551 C   0  0  1  0  0  0  0  0  0  0  0  0
  -28.7693  -17.5731   23.2639 C   0  0  0  0  0  0  0  0  0  0  0  0
  -27.7140  -13.1188   19.7853 C   0  0  2  0  0  0  0  0  0  0  0  0
  -28.7422  -18.6670   28.3587 C   0  0  0  0  0  0  0  0  0  0  0  0
  -27.6455  -19.8255   23.4017 C   0  0  0  0  0  0  0  0  0  0  0  0
  -26.7885   -7.5918   24.9123 C   0  0  0  0  0  0  0  0  0  0  0  0
  -30.5574  -11.2635   29.4327 C   0  0  0  0  0  0  0  0  0  0  0  0
  -30.5356   -9.8696   27.3531 C   0  0  0  0  0  0  0  0  0  0  0  0
  -30.1611   -8.7983   29.5745 C   0  0  0  0  0  0  0  0  0  0  0  0
  -24.2911   -8.3051   27.6926 C   0  0  0  0  0  0  0  0  0  0  0  0
  -27.5100  -18.3261   23.6863 C   0  0  2  0  0  0  0  0  0  0  0  0
  -28.3453  -10.2456   28.5746 C   0  0  1  0  0  0  0  0  0  0  0  0
  -26.3497   -7.9355   26.3272 C   0  0  2  0  0  0  0  0  0  0  0  0
  -29.8810  -10.0652   28.7373 C   0  0  0  0  0  0  0  0  0  0  0  0
  -25.8857  -11.5499   20.3132 N   0  0  0  0  0  0  0  0  0  0  0  0
  -28.0797  -18.4696   26.0451 N   0  0  0  0  0  0  0  0  0  0  0  0
  -26.6275  -17.6523   27.7859 N   0  0  0  0  0  0  0  0  0  0  0  0
  -26.2907  -12.8283   20.2244 N   0  0  0  0  0  0  0  0  0  0  0  0
  -26.9505  -11.6741   30.0367 N   0  0  0  0  0  0  0  0  0  0  0  0
  -30.0428  -13.4973   20.5351 N   0  0  0  0  0  0  0  0  0  0  0  0
  -30.1536  -15.6425   21.5875 N   0  0  0  0  0  0  0  0  0  0  0  0
  -25.5664  -15.0640   20.5205 N   0  0  0  0  0  0  0  0  0  0  0  0
  -22.7293  -13.7430   22.6649 N   0  0  0  0  0  0  0  0  0  0  0  0
  -27.1300  -13.2997   33.2958 N   0  0  0  0  0  0  0  0  0  0  0  0
  -27.6743   -9.1143   27.9434 N   0  0  0  0  0  0  0  0  0  0  0  0
  -24.8610   -7.9981   26.3555 N   0  3  0  0  0  0  0  0  0  0  0  0
  -22.0347  -13.7940   20.4800 O   0  0  0  0  0  0  0  0  0  0  0  0
  -28.4584  -13.2381   31.3842 O   0  0  0  0  0  0  0  0  0  0  0  0
  -27.7155   -9.5964   30.7674 O   0  0  0  0  0  0  0  0  0  0  0  0
  -26.7752  -10.3086   26.1707 O   0  0  0  0  0  0  0  0  0  0  0  0
  -31.7406  -14.9810   20.0493 O   0  0  0  0  0  0  0  0  0  0  0  0
  -21.5259   -7.0770   21.5510 O   0  0  0  0  0  0  0  0  0  0  0  0
  -24.5991  -16.6788   27.2616 O   0  0  0  0  0  0  0  0  0  1  0  0
  -16.0644   -7.7081   21.9728 F   0  0  0  0  0  0  0  0  0  0  0  0
  -19.8123   -5.8227   19.7810 F   0  0  0  0  0  0  0  0  0  0  0  0
  1  2  1  0  0  0  0
  1  5  2  0  0  0  0
  2  6  2  0  0  0  0
  3  8  2  0  0  0  0
  3 15  1  0  0  0  0
  4  9  1  0  0  0  0
  4 15  2  0  0  0  0
  5 17  1  0  0  0  0
  6 19  1  0  0  0  0
  7 10  2  0  0  0  0
  7 18  1  0  0  0  0
  8 22  1  0  0  0  0
  9 22  2  0  0  0  0
 10 23  1  0  0  0  0
 11 12  2  0  0  0  0
 11 24  1  0  0  0  0
 12 25  1  0  0  0  0
 13 20  1  0  0  0  0
 13 23  2  0  0  0  0
 14 25  2  0  0  0  0
 14 26  1  0  0  0  0
 15 27  1  0  0  0  0
 16 27  1  0  0  0  0
 16 30  2  0  0  0  0
 16 32  1  0  0  0  0
 17 19  2  0  0  0  0
 17 37  1  0  0  0  0
 18 20  2  0  0  0  0
 18 38  1  0  0  0  0
 19 53  1  0  0  0  0
 20 39  1  0  0  0  0
 21 28  1  0  0  0  0
 21 29  2  0  0  0  0
 21 52  1  0  0  0  0
 22 85  1  0  0  0  0
 23 86  1  0  0  0  0
 24 26  2  0  0  0  0
 24 85  1  0  0  0  0
 25 87  1  0  0  0  0
 26 88  1  0  0  0  0
 27 68  2  0  0  0  0
 28 64  1  0  0  0  0
 28 69  2  0  0  0  0
 29 70  1  0  0  0  0
 29 86  1  0  0  0  0
 30 71  1  0  0  0  0
 30 75  1  0  0  0  0
 31 57  1  0  0  0  0
 31 69  1  0  0  0  0
 31 70  2  0  0  0  0
 32 76  1  0  0  0  0
 32 80  2  0  0  0  0
 33 54  1  0  0  0  0
 33 77  1  0  0  0  0
 33 81  2  0  0  0  0
 34 65  1  0  0  0  0
 34 72  1  0  0  0  0
 34 82  2  0  0  0  0
 35 66  1  0  0  0  0
 35 78  1  0  0  0  0
 35 83  2  0  0  0  0
 36 73  1  0  0  0  0
 36 74  1  0  0  0  0
 36 84  2  0  0  0  0
 37 40  1  0  0  0  0
 38 54  1  0  0  0  0
 39 72  1  0  0  0  0
 40 44  1  0  0  0  0
 41 45  1  0  0  0  0
 41 48  1  0  0  0  0
 42 43  1  0  0  0  0
 42 52  1  0  0  0  0
 43 52  1  0  0  0  0
 44 53  1  0  0  0  0
 45 56  1  0  0  0  0
 46 49  1  0  0  0  0
 46 55  1  0  0  0  0
 47 50  1  0  0  0  0
 47 55  1  0  0  0  0
 48 73  1  0  0  0  0
 49 74  1  0  0  0  0
 50 74  1  0  0  0  0
 51 56  1  0  0  0  0
 51 73  1  0  0  0  0
 53 77  1  0  0  0  0
 54 72  1  0  0  0  0
 55 64  1  0  0  0  0
 56 71  1  0  0  0  0
 58 64  1  0  0  0  0
 59 66  1  0  0  0  0
 60 67  1  0  0  0  0
 61 67  1  0  0  0  0
 62 67  1  0  0  0  0
 63 79  1  0  0  0  0
 65 67  1  0  0  0  0
 65 78  1  0  0  0  0
 66 79  1  0  0  0  0
 68 71  1  0  0  0  0
M  CHG  1  79   1
M  ISO  4  29 101  36 100  74 100  86 101
M  END
> <Batch ID>
0177

> <Smiles>
CNC(C)C(=O)NC(C(=O)N1Cc2cc([101O:1][101c:1]3nc(C)nc(C(C)C4CC[100N:0]([100C:0](=O)N5CCCC(n6nc(-c7ccc(Oc8ccc(F)cc8F)cc7)c(C(N)=O)c6N)C5)CC4)c3C3CC3)ccc2CC1C(=O)NC1CCCc2ccccc21)C(C)(C)C

> <Shape>
0.147

> <Color>
0.169

> <Negative vol penalty>
0.000

$$$$

  -OEChem-04052322523D

 89 99  0     1  0  0  0  0  0999 V2000
  -27.7243  -33.7584   21.4398 C   0  0  0  0  0  0  0  0  0  0  0  0
  -27.7955  -32.3693   21.4667 C   0  0  0  0  0  0  0  0  0  0  0  0
  -22.6821  -10.2295   20.4368 C   0  0  0  0  0  0  0  0  0  0  0  0
  -24.4306   -9.1988   21.7473 C   0  0  0  0  0  0  0  0  0  0  0  0
  -26.6263  -34.4100   21.9998 C   0  0  0  0  0  0  0  0  0  0  0  0
  -26.7690  -31.6309   22.0547 C   0  0  0  0  0  0  0  0  0  0  0  0
  -25.3847  -27.6503   19.2470 C   0  0  0  0  0  0  0  0  0  0  0  0
  -21.9222   -9.0639   20.5339 C   0  0  0  0  0  0  0  0  0  0  0  0
  -23.6707   -8.0332   21.8445 C   0  0  0  0  0  0  0  0  0  0  0  0
  -26.2074  -26.5254   19.2877 C   0  0  0  0  0  0  0  0  0  0  0  0
  -21.0424   -6.9186   23.6529 C   0  0  0  0  0  0  0  0  0  0  0  0
  -20.9517   -6.3082   24.9038 C   0  0  0  0  0  0  0  0  0  0  0  0
  -24.6933  -25.4820   20.8491 C   0  0  0  0  0  0  0  0  0  0  0  0
  -27.9009  -21.9093   19.1129 C   0  0  0  0  0  0  0  0  0  0  0  0
  -21.9464   -4.3019   23.9970 C   0  0  0  0  0  0  0  0  0  0  0  0
  -23.9363  -10.2970   21.0435 C   0  0  0  0  0  0  0  0  0  0  0  0
  -24.7103  -12.5993   21.8232 C   0  0  0  0  0  0  0  0  0  0  0  0
  -25.5812  -33.6789   22.5864 C   0  0  0  0  0  0  0  0  0  0  0  0
  -24.2138  -27.7039   20.0167 C   0  0  0  0  0  0  0  0  0  0  0  0
  -25.6566  -32.2734   22.6243 C   0  0  0  0  0  0  0  0  0  0  0  0
  -23.8561  -26.6077   20.8144 C   0  0  0  0  0  0  0  0  0  0  0  0
  -29.8762  -23.0028   19.9874 C   0  0  0  0  0  0  0  0  0  0  0  0
  -28.5735  -23.0687   19.4775 C   0  0  0  0  0  0  0  0  0  0  0  0
  -22.4164   -7.9657   21.2377 C   0  0  0  0  0  0  0  0  0  0  0  0
  -25.8633  -25.4422   20.0911 C   0  0  0  0  0  0  0  0  0  0  0  0
  -21.5850   -6.2206   22.5739 C   0  0  0  0  0  0  0  0  0  0  0  0
  -21.4037   -4.9999   25.0759 C   0  0  0  0  0  0  0  0  0  0  0  0
  -22.0370   -4.9123   22.7460 C   0  0  0  0  0  0  0  0  0  0  0  0
  -24.7220  -11.5006   20.9431 C   0  0  0  0  0  0  0  0  0  0  0  0
  -30.4564  -21.7353   20.1107 C   0  0  0  0  0  0  0  0  0  0  0  0
  -28.5598  -20.7059   19.2732 C   0  0  0  0  0  0  0  0  0  0  0  0
  -25.6257  -13.4746   21.2918 C   0  0  0  0  0  0  0  0  0  0  0  0
  -23.9408  -12.8098   23.0145 C   0  0  0  0  0  0  0  0  0  0  0  0
  -23.1610  -29.5602   22.3725 C   0  0  0  0  0  0  0  0  0  0  0  0
  -20.4309  -27.8548   21.9723 C   0  0  0  0  0  0  0  0  0  0  0  0
  -18.9432  -24.9783   20.8956 C   0  0  0  0  0  0  0  0  0  0  0  0
  -27.4387  -16.0661   16.5881 C   0  0  0  0  0  0  0  0  0  0  0  0
  -24.4373  -34.4293   23.2210 C   0  0  0  0  0  0  0  0  0  0  0  0
  -23.3232  -28.9138   19.9411 C   0  0  0  0  0  0  0  0  0  0  0  0
  -22.5991  -26.6072   21.6441 C   0  0  0  0  0  0  0  0  0  0  0  0
  -31.8242  -21.5524   20.7124 C   0  0  0  0  0  0  0  0  0  0  0  0
  -23.2130  -33.5585   23.4915 C   0  0  0  0  0  0  0  0  0  0  0  0
  -32.6609  -22.8274   20.7294 C   0  0  0  0  0  0  0  0  0  0  0  0
  -29.0299  -12.8853   17.6056 C   0  0  0  0  0  0  0  0  0  0  0  0
  -31.8325  -23.9964   21.2515 C   0  0  0  0  0  0  0  0  0  0  0  0
  -23.6265  -32.2455   24.1486 C   0  0  0  0  0  0  0  0  0  0  0  0
  -28.0101  -12.3030   18.5840 C   0  0  0  0  0  0  0  0  0  0  0  0
  -28.3689  -13.7816   16.5621 C   0  0  0  0  0  0  0  0  0  0  0  0
  -26.8847  -19.6066   17.8300 C   0  0  0  0  0  0  0  0  0  0  0  0
  -27.1609  -18.4941   16.8247 C   0  0  0  0  0  0  0  0  0  0  0  0
  -26.5127  -14.2796   18.1133 C   0  0  0  0  0  0  0  0  0  0  0  0
  -27.2947  -17.1281   18.8967 C   0  0  0  0  0  0  0  0  0  0  0  0
  -30.6136  -24.2726   20.3550 C   0  0  1  0  0  0  0  0  0  0  0  0
  -24.5513  -31.4366   23.2310 C   0  0  1  0  0  0  0  0  0  0  0  0
  -22.4205  -29.0684   21.1611 C   0  0  1  0  0  0  0  0  0  0  0  0
  -27.1522  -13.4166   19.2106 C   0  0  1  0  0  0  0  0  0  0  0  0
  -28.1963  -18.2307   19.4875 C   0  0  2  0  0  0  0  0  0  0  0  0
  -31.0211  -25.0421   19.0920 C   0  0  0  0  0  0  0  0  0  0  0  0
  -28.0031  -18.2383   21.0089 C   0  0  0  0  0  0  0  0  0  0  0  0
  -16.7023  -23.8604   20.7347 C   0  0  0  0  0  0  0  0  0  0  0  0
  -20.5280  -27.2358   24.9585 C   0  0  0  0  0  0  0  0  0  0  0  0
  -18.8744  -25.3985   24.5606 C   0  0  0  0  0  0  0  0  0  0  0  0
  -18.2483  -27.7641   24.0763 C   0  0  0  0  0  0  0  0  0  0  0  0
  -19.0938  -24.8419   17.9430 C   0  0  0  0  0  0  0  0  0  0  0  0
  -27.8426  -24.3653   19.3306 C   0  0  0  0  0  0  0  0  0  1  0  0
  -19.8754  -26.5752   22.5495 C   0  0  1  0  0  0  0  0  0  0  0  0
  -17.7210  -24.7404   20.0272 C   0  0  2  0  0  0  0  0  0  0  0  0
  -19.4063  -26.7439   24.0222 C   0  0  0  0  0  0  0  0  0  0  0  0
  -25.5769  -11.6610   19.9295 N   0  0  0  0  0  0  0  0  0  0  0  0
  -29.8122  -20.5909   19.7651 N   0  0  0  0  0  0  0  0  0  0  0  0
  -26.1109  -12.8707   20.1693 N   0  0  0  0  0  0  0  0  0  0  0  0
  -27.8766  -19.5480   18.9055 N   0  0  3  0  0  0  0  0  0  0  0  0
  -21.7644  -27.8156   21.5412 N   0  0  0  0  0  0  0  0  0  0  0  0
  -27.5289  -14.8020   17.1893 N   0  0  0  0  0  0  0  0  0  0  0  0
  -27.2358  -17.1699   17.4326 N   0  0  0  0  0  0  0  0  0  0  0  0
  -26.0548  -14.6944   21.6799 N   0  0  0  0  0  0  0  0  0  0  0  0
  -23.0470  -11.8086   23.4182 N   0  0  0  0  0  0  0  0  0  0  0  0
  -23.7854  -30.7798   22.1934 N   0  0  0  0  0  0  0  0  0  0  0  0
  -18.8268  -26.1363   21.6349 N   0  0  0  0  0  0  0  0  0  0  0  0
  -18.1127  -24.0746   18.7528 N   0  3  0  0  0  0  0  0  0  0  0  0
  -24.0308  -13.8619   23.6917 O   0  0  0  0  0  0  0  0  0  0  0  0
  -23.1644  -28.8839   23.3944 O   0  0  0  0  0  0  0  0  0  0  0  0
  -19.7060  -28.8503   21.9000 O   0  0  0  0  0  0  0  0  0  0  0  0
  -19.9034  -24.2114   20.9187 O   0  0  0  0  0  0  0  0  0  0  0  0
  -27.5515  -16.2058   15.3632 O   0  0  0  0  0  0  0  0  0  0  0  0
  -21.6751   -6.8282   21.3328 O   0  0  0  0  0  0  0  0  0  0  0  0
  -26.6707  -24.3353   20.1335 O   0  0  0  0  0  0  0  0  0  1  0  0
  -21.3179   -4.4144   26.2775 F   0  0  0  0  0  0  0  0  0  0  0  0
  -22.5604   -4.2371   21.7135 F   0  0  0  0  0  0  0  0  0  0  0  0
  1  2  1  0  0  0  0
  1  5  2  0  0  0  0
  2  6  2  0  0  0  0
  3  8  2  0  0  0  0
  3 16  1  0  0  0  0
  4  9  1  0  0  0  0
  4 16  2  0  0  0  0
  5 18  1  0  0  0  0
  6 20  1  0  0  0  0
  7 10  2  0  0  0  0
  7 19  1  0  0  0  0
  8 24  1  0  0  0  0
  9 24  2  0  0  0  0
 10 25  1  0  0  0  0
 11 12  2  0  0  0  0
 11 26  1  0  0  0  0
 12 27  1  0  0  0  0
 13 21  1  0  0  0  0
 13 25  2  0  0  0  0
 14 23  1  0  0  0  0
 14 31  2  0  0  0  0
 15 27  2  0  0  0  0
 15 28  1  0  0  0  0
 16 29  1  0  0  0  0
 17 29  1  0  0  0  0
 17 32  2  0  0  0  0
 17 33  1  0  0  0  0
 18 20  2  0  0  0  0
 18 38  1  0  0  0  0
 19 21  2  0  0  0  0
 19 39  1  0  0  0  0
 20 54  1  0  0  0  0
 21 40  1  0  0  0  0
 22 23  2  0  0  0  0
 22 30  1  0  0  0  0
 22 53  1  0  0  0  0
 23 65  1  0  0  0  0
 24 86  1  0  0  0  0
 25 87  1  0  0  0  0
 26 28  2  0  0  0  0
 26 86  1  0  0  0  0
 27 88  1  0  0  0  0
 28 89  1  0  0  0  0
 29 69  2  0  0  0  0
 30 41  1  0  0  0  0
 30 70  2  0  0  0  0
 31 70  1  0  0  0  0
 31 72  1  0  0  0  0
 32 71  1  0  0  0  0
 32 76  1  0  0  0  0
 33 77  1  0  0  0  0
 33 81  2  0  0  0  0
 34 55  1  0  0  0  0
 34 78  1  0  0  0  0
 34 82  2  0  0  0  0
 35 66  1  0  0  0  0
 35 73  1  0  0  0  0
 35 83  2  0  0  0  0
 36 67  1  0  0  0  0
 36 79  1  0  0  0  0
 36 84  2  0  0  0  0
 37 74  1  0  0  0  0
 37 75  1  0  0  0  0
 37 85  2  0  0  0  0
 38 42  1  0  0  0  0
 39 55  1  0  0  0  0
 40 73  1  0  0  0  0
 41 43  1  0  0  0  0
 42 46  1  0  0  0  0
 43 45  1  0  0  0  0
 44 47  1  0  0  0  0
 44 48  1  0  0  0  0
 45 53  1  0  0  0  0
 46 54  1  0  0  0  0
 47 56  1  0  0  0  0
 48 74  1  0  0  0  0
 49 50  1  0  0  0  0
 49 72  1  0  0  0  0
 50 75  1  0  0  0  0
 51 56  1  0  0  0  0
 51 74  1  0  0  0  0
 52 57  1  0  0  0  0
 52 75  1  0  0  0  0
 53 58  1  0  0  0  0
 54 78  1  0  0  0  0
 55 73  1  0  0  0  0
 56 71  1  0  0  0  0
 57 59  1  0  0  0  0
 57 72  1  0  0  0  0
 60 67  1  0  0  0  0
 61 68  1  0  0  0  0
 62 68  1  0  0  0  0
 63 68  1  0  0  0  0
 64 80  1  0  0  0  0
 65 87  1  0  0  0  0
 66 68  1  0  0  0  0
 66 79  1  0  0  0  0
 67 80  1  0  0  0  0
 69 71  1  0  0  0  0
M  CHG  1  80   1
M  ISO  4  37 100  65 101  75 100  87 101
M  END
> <Batch ID>
0177

> <Smiles>
CNC(C)C(=O)NC(C(=O)N1Cc2cc([101O:1][101CH2:1]c3cc(N4CC[100N:0]([100C:0](=O)N5CCCC(n6nc(-c7ccc(Oc8ccc(F)cc8F)cc7)c(C(N)=O)c6N)C5)CC4C)nc4c3C(C)CCC4)ccc2CC1C(=O)NC1CCCc2ccccc21)C(C)(C)C

> <Shape>
0.334

> <Color>
0.124

> <Negative vol penalty>
0.000

$$$$

  -OEChem-04052322523D

 86 95  0     1  0  0  0  0  0999 V2000
  -29.7030  -32.3720   25.8797 C   0  0  0  0  0  0  0  0  0  0  0  0
  -29.4087  -31.1861   25.2145 C   0  0  0  0  0  0  0  0  0  0  0  0
  -23.7221   -9.9515   22.3617 C   0  0  0  0  0  0  0  0  0  0  0  0
  -24.3934  -11.5864   24.0090 C   0  0  0  0  0  0  0  0  0  0  0  0
  -28.6694  -33.1901   26.3340 C   0  0  0  0  0  0  0  0  0  0  0  0
  -28.0806  -30.8171   25.0041 C   0  0  0  0  0  0  0  0  0  0  0  0
  -27.2504  -29.1482   20.2956 C   0  0  0  0  0  0  0  0  0  0  0  0
  -23.2058   -9.1431   23.3743 C   0  0  0  0  0  0  0  0  0  0  0  0
  -23.8771  -10.7780   25.0217 C   0  0  0  0  0  0  0  0  0  0  0  0
  -27.6513  -27.8456   20.0018 C   0  0  0  0  0  0  0  0  0  0  0  0
  -20.4207   -9.0207   25.2878 C   0  0  0  0  0  0  0  0  0  0  0  0
  -19.1631   -8.4524   25.0858 C   0  0  0  0  0  0  0  0  0  0  0  0
  -25.3765  -27.0904   20.2743 C   0  0  0  0  0  0  0  0  0  0  0  0
  -20.1269   -6.2465   25.2913 C   0  0  0  0  0  0  0  0  0  0  0  0
  -24.3159  -11.1732   22.6790 C   0  0  0  0  0  0  0  0  0  0  0  0
  -24.1704  -13.0109   20.9157 C   0  0  0  0  0  0  0  0  0  0  0  0
  -27.3280  -32.8356   26.1206 C   0  0  0  0  0  0  0  0  0  0  0  0
  -25.9091  -29.4303   20.5921 C   0  0  0  0  0  0  0  0  0  0  0  0
  -27.0281  -31.6305   25.4572 C   0  0  0  0  0  0  0  0  0  0  0  0
  -24.9607  -28.3978   20.5690 C   0  0  0  0  0  0  0  0  0  0  0  0
  -28.7084  -23.8851   19.1092 C   0  0  0  0  0  0  0  0  0  0  0  0
  -23.2833   -9.5563   24.7043 C   0  0  0  0  0  0  0  0  0  0  0  0
  -26.7148  -26.8160   19.9939 C   0  0  0  0  0  0  0  0  0  0  0  0
  -21.5316   -8.2020   25.4915 C   0  0  0  0  0  0  0  0  0  0  0  0
  -19.0162   -7.0653   25.0875 C   0  0  0  0  0  0  0  0  0  0  0  0
  -21.3846   -6.8149   25.4933 C   0  0  0  0  0  0  0  0  0  0  0  0
  -24.8499  -12.0085   21.6334 C   0  0  0  0  0  0  0  0  0  0  0  0
  -28.7165  -22.9121   20.0877 C   0  0  0  0  0  0  0  0  0  0  0  0
  -28.9181  -23.4378   17.8207 C   0  0  0  0  0  0  0  0  0  0  0  0
  -25.1093  -13.5053   20.0437 C   0  0  0  0  0  0  0  0  0  0  0  0
  -29.1058  -21.2907   18.5429 C   0  0  0  0  0  0  0  0  0  0  0  0
  -22.8119  -13.4556   21.0274 C   0  0  0  0  0  0  0  0  0  0  0  0
  -24.3648  -30.5785   23.1220 C   0  0  0  0  0  0  0  0  0  0  0  0
  -21.8206  -30.5132   21.1107 C   0  0  0  0  0  0  0  0  0  0  0  0
  -20.3595  -29.1800   18.3296 C   0  0  0  0  0  0  0  0  0  0  0  0
  -30.2868  -15.2860   18.9627 C   0  0  0  0  0  0  0  0  0  0  0  0
  -26.2447  -33.7287   26.6716 C   0  0  0  0  0  0  0  0  0  0  0  0
  -25.4881  -30.8451   20.8808 C   0  0  0  0  0  0  0  0  0  0  0  0
  -23.5050  -28.6516   20.8606 C   0  0  0  0  0  0  0  0  0  0  0  0
  -24.8659  -33.4509   26.0783 C   0  0  0  0  0  0  0  0  0  0  0  0
  -29.7042  -11.7763   18.8256 C   0  0  0  0  0  0  0  0  0  0  0  0
  -24.5836  -31.9519   26.0627 C   0  0  0  0  0  0  0  0  0  0  0  0
  -28.3369  -11.6062   19.4900 C   0  0  0  0  0  0  0  0  0  0  0  0
  -30.5234  -12.8781   19.4941 C   0  0  0  0  0  0  0  0  0  0  0  0
  -28.4737  -14.0116   20.2608 C   0  0  0  0  0  0  0  0  0  0  0  0
  -29.3274  -18.8918   19.2565 C   0  0  0  0  0  0  0  0  0  0  0  0
  -29.5401  -19.4377   16.9030 C   0  0  0  0  0  0  0  0  0  0  0  0
  -25.6000  -31.2082   25.1880 C   0  0  1  0  0  0  0  0  0  0  0  0
  -24.1868  -30.9316   21.6724 C   0  0  1  0  0  0  0  0  0  0  0  0
  -27.5890  -12.9496   19.5857 C   0  0  2  0  0  0  0  0  0  0  0  0
  -29.8994  -17.6922   18.4941 C   0  0  2  0  0  0  0  0  0  0  0  0
  -29.3810  -17.9298   17.0835 C   0  0  2  0  0  0  0  0  0  0  0  0
  -28.5004  -23.2775   21.5195 C   0  0  0  0  0  0  0  0  0  0  0  0
  -28.9299  -24.3998   16.6786 C   0  0  0  0  0  0  0  0  0  0  0  0
  -18.2617  -29.2988   16.9575 C   0  0  0  0  0  0  0  0  0  0  0  0
  -20.3443  -28.8911   23.2319 C   0  0  0  0  0  0  0  0  0  0  0  0
  -18.6787  -28.2442   21.4781 C   0  0  0  0  0  0  0  0  0  0  0  0
  -18.9586  -30.6422   22.1059 C   0  0  0  0  0  0  0  0  0  0  0  0
  -21.8439  -30.0588   15.9248 C   0  0  0  0  0  0  0  0  0  0  0  0
  -28.4867  -25.3350   19.4257 C   0  0  0  0  0  0  0  0  0  1  0  0
  -20.7633  -29.4954   20.7570 C   0  0  1  0  0  0  0  0  0  0  0  0
  -19.6744  -29.8308   17.1415 C   0  0  2  0  0  0  0  0  0  0  0  0
  -19.7139  -29.3128   21.8896 C   0  0  0  0  0  0  0  0  0  0  0  0
  -26.1223  -11.8727   21.2504 N   0  0  0  0  0  0  0  0  0  0  0  0
  -28.9129  -21.6006   19.8391 N   0  0  0  0  0  0  0  0  0  0  0  0
  -29.1210  -22.1430   17.5004 N   0  0  0  0  0  0  0  0  0  0  0  0
  -26.2497  -12.7963   20.2825 N   0  0  0  0  0  0  0  0  0  0  0  0
  -29.3101  -19.9588   18.2524 N   0  0  3  0  0  0  0  0  0  0  0  0
  -23.1437  -30.0505   21.1433 N   0  0  0  0  0  0  0  0  0  0  0  0
  -29.7579  -14.1257   19.5518 N   0  0  0  0  0  0  0  0  0  0  0  0
  -25.0625  -14.4729   19.1036 N   0  0  0  0  0  0  0  0  0  0  0  0
  -21.9831  -12.8398   21.9752 N   0  0  0  0  0  0  0  0  0  0  0  0
  -25.2782  -31.3742   23.7869 N   0  0  0  0  0  0  0  0  0  0  0  0
  -20.1977  -29.9209   19.4812 N   0  0  0  0  0  0  0  0  0  0  0  0
  -29.4941  -16.4234   19.0569 N   0  0  0  0  0  0  0  0  0  0  0  0
  -30.1669  -17.1857   16.0833 N   0  3  0  0  0  0  0  0  0  0  0  0
  -20.4426  -29.5666   15.8921 N   0  3  0  0  0  0  0  0  0  0  0  0
  -22.3421  -14.3606   20.2968 O   0  0  0  0  0  0  0  0  0  0  0  0
  -23.7200  -29.6536   23.6022 O   0  0  0  0  0  0  0  0  0  0  0  0
  -21.4856  -31.6776   21.3425 O   0  0  0  0  0  0  0  0  0  0  0  0
  -20.9733  -28.1186   18.2454 O   0  0  0  0  0  0  0  0  0  0  0  0
  -31.3817  -15.3056   18.3903 O   0  0  0  0  0  0  0  0  0  0  0  0
  -22.7794   -8.7678   25.6927 O   0  0  0  0  0  0  0  0  0  0  0  0
  -27.1036  -25.5436   19.7081 O   0  0  0  0  0  0  0  0  0  1  0  0
  -17.8081   -6.5196   24.8950 F   0  0  0  0  0  0  0  0  0  0  0  0
  -22.4479   -6.0232   25.6896 F   0  0  0  0  0  0  0  0  0  0  0  0
  1  2  1  0  0  0  0
  1  5  2  0  0  0  0
  2  6  2  0  0  0  0
  3  8  2  0  0  0  0
  3 15  1  0  0  0  0
  4  9  1  0  0  0  0
  4 15  2  0  0  0  0
  5 17  1  0  0  0  0
  6 19  1  0  0  0  0
  7 10  2  0  0  0  0
  7 18  1  0  0  0  0
  8 22  1  0  0  0  0
  9 22  2  0  0  0  0
 10 23  1  0  0  0  0
 11 12  2  0  0  0  0
 11 24  1  0  0  0  0
 12 25  1  0  0  0  0
 13 20  1  0  0  0  0
 13 23  2  0  0  0  0
 14 25  2  0  0  0  0
 14 26  1  0  0  0  0
 15 27  1  0  0  0  0
 16 27  1  0  0  0  0
 16 30  2  0  0  0  0
 16 32  1  0  0  0  0
 17 19  2  0  0  0  0
 17 37  1  0  0  0  0
 18 20  2  0  0  0  0
 18 38  1  0  0  0  0
 19 48  1  0  0  0  0
 20 39  1  0  0  0  0
 21 28  1  0  0  0  0
 21 29  2  0  0  0  0
 21 60  1  0  0  0  0
 22 83  1  0  0  0  0
 23 84  1  0  0  0  0
 24 26  2  0  0  0  0
 24 83  1  0  0  0  0
 25 85  1  0  0  0  0
 26 86  1  0  0  0  0
 27 64  2  0  0  0  0
 28 53  1  0  0  0  0
 28 65  2  0  0  0  0
 29 54  1  0  0  0  0
 29 66  1  0  0  0  0
 30 67  1  0  0  0  0
 30 71  1  0  0  0  0
 31 65  1  0  0  0  0
 31 66  2  0  0  0  0
 31 68  1  0  0  0  0
 32 72  1  0  0  0  0
 32 78  2  0  0  0  0
 33 49  1  0  0  0  0
 33 73  1  0  0  0  0
 33 79  2  0  0  0  0
 34 61  1  0  0  0  0
 34 69  1  0  0  0  0
 34 80  2  0  0  0  0
 35 62  1  0  0  0  0
 35 74  1  0  0  0  0
 35 81  2  0  0  0  0
 36 70  1  0  0  0  0
 36 75  1  0  0  0  0
 36 82  2  0  0  0  0
 37 40  1  0  0  0  0
 38 49  1  0  0  0  0
 39 69  1  0  0  0  0
 40 42  1  0  0  0  0
 41 43  1  0  0  0  0
 41 44  1  0  0  0  0
 42 48  1  0  0  0  0
 43 50  1  0  0  0  0
 44 70  1  0  0  0  0
 45 50  1  0  0  0  0
 45 70  1  0  0  0  0
 46 51  1  0  0  0  0
 46 68  1  0  0  0  0
 47 52  1  0  0  0  0
 47 68  1  0  0  0  0
 48 73  1  0  0  0  0
 49 69  1  0  0  0  0
 50 67  1  0  0  0  0
 51 52  1  0  0  0  0
 51 75  1  0  0  0  0
 52 76  1  0  0  0  0
 55 62  1  0  0  0  0
 56 63  1  0  0  0  0
 57 63  1  0  0  0  0
 58 63  1  0  0  0  0
 59 77  1  0  0  0  0
 60 84  1  0  0  0  0
 61 63  1  0  0  0  0
 61 74  1  0  0  0  0
 62 77  1  0  0  0  0
 64 67  1  0  0  0  0
M  CHG  2  76   1  77   1
M  ISO  4  36 100  60 101  75 100  84 101
M  END
> <Batch ID>
0177

> <Smiles>
CNC(C)C(=O)NC(C(=O)N1Cc2cc([101O:1][101CH2:1]c3c(C)nc(N4CC(N)C([100NH:0][100C:0](=O)N5CCCC(n6nc(-c7ccc(Oc8ccc(F)cc8F)cc7)c(C(N)=O)c6N)C5)C4)nc3C)ccc2CC1C(=O)NC1CCCc2ccccc21)C(C)(C)C

> <Shape>
0.321

> <Color>
0.137

> <Negative vol penalty>
0.000

$$$$

  -OEChem-04052322523D

 85 94  0     1  0  0  0  0  0999 V2000
  -29.7567  -37.3980   17.5858 C   0  0  0  0  0  0  0  0  0  0  0  0
  -29.9608  -36.0233   17.5230 C   0  0  0  0  0  0  0  0  0  0  0  0
  -24.3200  -10.0263   22.0678 C   0  0  0  0  0  0  0  0  0  0  0  0
  -25.0623  -11.6104   23.7341 C   0  0  0  0  0  0  0  0  0  0  0  0
  -29.2054  -37.9680   18.7325 C   0  0  0  0  0  0  0  0  0  0  0  0
  -29.6145  -35.2179   18.6074 C   0  0  0  0  0  0  0  0  0  0  0  0
  -27.4178  -29.5051   18.3970 C   0  0  0  0  0  0  0  0  0  0  0  0
  -24.0995   -9.0784   23.0670 C   0  0  0  0  0  0  0  0  0  0  0  0
  -24.8418  -10.6625   24.7334 C   0  0  0  0  0  0  0  0  0  0  0  0
  -28.0262  -28.2600   18.5499 C   0  0  0  0  0  0  0  0  0  0  0  0
  -21.7394   -8.4174   25.3963 C   0  0  0  0  0  0  0  0  0  0  0  0
  -20.5481   -7.6932   25.3514 C   0  0  0  0  0  0  0  0  0  0  0  0
  -27.3716  -28.2320   20.8715 C   0  0  0  0  0  0  0  0  0  0  0  0
  -21.8046   -5.6373   25.1734 C   0  0  0  0  0  0  0  0  0  0  0  0
  -30.8046  -22.1004   19.7952 C   0  0  0  0  0  0  0  0  0  0  0  0
  -24.8014  -11.2923   22.4013 C   0  0  0  0  0  0  0  0  0  0  0  0
  -24.1117  -13.2190   20.8782 C   0  0  0  0  0  0  0  0  0  0  0  0
  -28.8432  -37.1681   19.8278 C   0  0  0  0  0  0  0  0  0  0  0  0
  -26.7902  -30.1290   19.4847 C   0  0  0  0  0  0  0  0  0  0  0  0
  -29.0590  -35.7779   19.7703 C   0  0  0  0  0  0  0  0  0  0  0  0
  -26.7538  -29.4839   20.7291 C   0  0  0  0  0  0  0  0  0  0  0  0
  -24.3604   -9.3965   24.3998 C   0  0  0  0  0  0  0  0  0  0  0  0
  -28.0057  -27.6246   19.7880 C   0  0  0  0  0  0  0  0  0  0  0  0
  -22.9633   -7.7516   25.3297 C   0  0  0  0  0  0  0  0  0  0  0  0
  -20.5807   -6.3032   25.2400 C   0  0  0  0  0  0  0  0  0  0  0  0
  -22.9959   -6.3615   25.2183 C   0  0  0  0  0  0  0  0  0  0  0  0
  -25.0299  -12.2716   21.3695 C   0  0  0  0  0  0  0  0  0  0  0  0
  -31.4023  -23.2803   20.1888 C   0  0  0  0  0  0  0  0  0  0  0  0
  -29.6520  -22.2352   19.0485 C   0  0  0  0  0  0  0  0  0  0  0  0
  -24.8095  -13.9062   19.9153 C   0  0  0  0  0  0  0  0  0  0  0  0
  -29.7911  -24.5017   19.1500 C   0  0  0  0  0  0  0  0  0  0  0  0
  -22.7498  -13.4565   21.2584 C   0  0  0  0  0  0  0  0  0  0  0  0
  -27.2405  -32.8406   21.0810 C   0  0  0  0  0  0  0  0  0  0  0  0
  -24.4991  -31.9610   22.5755 C   0  0  0  0  0  0  0  0  0  0  0  0
  -22.3712  -29.4524   23.4841 C   0  0  0  0  0  0  0  0  0  0  0  0
  -29.4427  -16.4805   18.1684 C   0  0  0  0  0  0  0  0  0  0  0  0
  -28.2944  -37.8353   21.0640 C   0  0  0  0  0  0  0  0  0  0  0  0
  -26.1153  -31.4600   19.2967 C   0  0  0  0  0  0  0  0  0  0  0  0
  -26.0754  -30.1021   21.9233 C   0  0  0  0  0  0  0  0  0  0  0  0
  -27.6077  -36.8676   22.0245 C   0  0  0  0  0  0  0  0  0  0  0  0
  -29.2943  -12.9442   17.7827 C   0  0  0  0  0  0  0  0  0  0  0  0
  -28.4663  -35.6244   22.2342 C   0  0  0  0  0  0  0  0  0  0  0  0
  -28.1003  -12.5319   18.6455 C   0  0  0  0  0  0  0  0  0  0  0  0
  -30.0734  -14.0973   18.4113 C   0  0  0  0  0  0  0  0  0  0  0  0
  -28.0669  -14.8670   19.6176 C   0  0  0  0  0  0  0  0  0  0  0  0
  -29.5056  -19.7292   18.9404 C   0  0  0  0  0  0  0  0  0  0  0  0
  -27.7981  -21.0505   17.8357 C   0  0  0  0  0  0  0  0  0  0  0  0
  -28.6733  -34.8681   20.9164 C   0  0  1  0  0  0  0  0  0  0  0  0
  -25.9517  -32.2364   20.5997 C   0  0  1  0  0  0  0  0  0  0  0  0
  -27.2175  -13.7444   18.9974 C   0  0  2  0  0  0  0  0  0  0  0  0
  -28.6764  -18.8358   18.0121 C   0  0  2  0  0  0  0  0  0  0  0  0
  -27.3582  -19.5914   17.9304 C   0  0  2  0  0  0  0  0  0  0  0  0
  -32.6535  -23.2359   21.0001 C   0  0  0  0  0  0  0  0  0  0  0  0
  -20.2341  -29.0374   24.7323 C   0  0  0  0  0  0  0  0  0  0  0  0
  -25.9832  -32.2900   25.2210 C   0  0  0  0  0  0  0  0  0  0  0  0
  -24.1588  -30.9802   26.3274 C   0  0  0  0  0  0  0  0  0  0  0  0
  -23.6374  -33.1569   25.2260 C   0  0  0  0  0  0  0  0  0  0  0  0
  -21.0354  -28.3773   21.0720 C   0  0  0  0  0  0  0  0  0  0  0  0
  -29.2249  -25.8436   18.7892 C   0  0  0  0  0  0  0  0  0  1  0  0
  -24.1634  -31.1391   23.7964 C   0  0  1  0  0  0  0  0  0  0  0  0
  -20.8624  -29.3231   23.3772 C   0  0  2  0  0  0  0  0  0  0  0  0
  -24.5002  -31.8805   25.1209 C   0  0  0  0  0  0  0  0  0  0  0  0
  -26.2202  -12.3472   20.7682 N   0  0  0  0  0  0  0  0  0  0  0  0
  -30.9209  -24.5030   19.8827 N   0  0  0  0  0  0  0  0  0  0  0  0
  -29.1151  -23.4247   18.7065 N   0  0  0  0  0  0  0  0  0  0  0  0
  -26.0546  -13.3502   19.8891 N   0  0  0  0  0  0  0  0  0  0  0  0
  -29.0246  -21.0793   18.6356 N   0  0  3  0  0  0  0  0  0  0  0  0
  -25.4352  -31.4073   21.6906 N   0  0  0  0  0  0  0  0  0  0  0  0
  -29.1788  -15.2157   18.7193 N   0  0  0  0  0  0  0  0  0  0  0  0
  -24.4733  -14.9258   19.0969 N   0  0  0  0  0  0  0  0  0  0  0  0
  -22.1884  -12.6593   22.2652 N   0  0  0  0  0  0  0  0  0  0  0  0
  -27.4908  -34.1042   20.5810 N   0  0  0  0  0  0  0  0  0  0  0  0
  -22.7601  -30.7632   23.6623 N   0  0  0  0  0  0  0  0  0  0  0  0
  -28.5421  -17.4834   18.5058 N   0  0  0  0  0  0  0  0  0  0  0  0
  -26.5749  -19.1911   16.7481 N   0  3  0  0  0  0  0  0  0  0  0  0
  -20.5021  -28.2144   22.4489 N   0  3  0  0  0  0  0  0  0  0  0  0
  -22.0464  -14.3384   20.7098 O   0  0  0  0  0  0  0  0  0  0  0  0
  -27.9543  -32.2078   21.8504 O   0  0  0  0  0  0  0  0  0  0  0  0
  -23.9457  -33.0508   22.4092 O   0  0  0  0  0  0  0  0  0  0  0  0
  -23.1287  -28.4867   23.4201 O   0  0  0  0  0  0  0  0  0  0  0  0
  -30.4064  -16.6986   17.4263 O   0  0  0  0  0  0  0  0  0  0  0  0
  -24.1451   -8.4719   25.3752 O   0  0  0  0  0  0  0  0  0  0  0  0
  -28.5993  -26.4095   19.9402 O   0  0  0  0  0  0  0  0  0  1  0  0
  -19.4367   -5.6077   25.1984 F   0  0  0  0  0  0  0  0  0  0  0  0
  -24.1687   -5.7162   25.1550 F   0  0  0  0  0  0  0  0  0  0  0  0
  1  2  1  0  0  0  0
  1  5  2  0  0  0  0
  2  6  2  0  0  0  0
  3  8  2  0  0  0  0
  3 16  1  0  0  0  0
  4  9  1  0  0  0  0
  4 16  2  0  0  0  0
  5 18  1  0  0  0  0
  6 20  1  0  0  0  0
  7 10  2  0  0  0  0
  7 19  1  0  0  0  0
  8 22  1  0  0  0  0
  9 22  2  0  0  0  0
 10 23  1  0  0  0  0
 11 12  2  0  0  0  0
 11 24  1  0  0  0  0
 12 25  1  0  0  0  0
 13 21  1  0  0  0  0
 13 23  2  0  0  0  0
 14 25  2  0  0  0  0
 14 26  1  0  0  0  0
 15 28  1  0  0  0  0
 15 29  2  0  0  0  0
 16 27  1  0  0  0  0
 17 27  1  0  0  0  0
 17 30  2  0  0  0  0
 17 32  1  0  0  0  0
 18 20  2  0  0  0  0
 18 37  1  0  0  0  0
 19 21  2  0  0  0  0
 19 38  1  0  0  0  0
 20 48  1  0  0  0  0
 21 39  1  0  0  0  0
 22 82  1  0  0  0  0
 23 83  1  0  0  0  0
 24 26  2  0  0  0  0
 24 82  1  0  0  0  0
 25 84  1  0  0  0  0
 26 85  1  0  0  0  0
 27 63  2  0  0  0  0
 28 53  1  0  0  0  0
 28 64  2  0  0  0  0
 29 65  1  0  0  0  0
 29 67  1  0  0  0  0
 30 66  1  0  0  0  0
 30 70  1  0  0  0  0
 31 59  1  0  0  0  0
 31 64  1  0  0  0  0
 31 65  2  0  0  0  0
 32 71  1  0  0  0  0
 32 77  2  0  0  0  0
 33 49  1  0  0  0  0
 33 72  1  0  0  0  0
 33 78  2  0  0  0  0
 34 60  1  0  0  0  0
 34 68  1  0  0  0  0
 34 79  2  0  0  0  0
 35 61  1  0  0  0  0
 35 73  1  0  0  0  0
 35 80  2  0  0  0  0
 36 69  1  0  0  0  0
 36 74  1  0  0  0  0
 36 81  2  0  0  0  0
 37 40  1  0  0  0  0
 38 49  1  0  0  0  0
 39 68  1  0  0  0  0
 40 42  1  0  0  0  0
 41 43  1  0  0  0  0
 41 44  1  0  0  0  0
 42 48  1  0  0  0  0
 43 50  1  0  0  0  0
 44 69  1  0  0  0  0
 45 50  1  0  0  0  0
 45 69  1  0  0  0  0
 46 51  1  0  0  0  0
 46 67  1  0  0  0  0
 47 52  1  0  0  0  0
 47 67  1  0  0  0  0
 48 72  1  0  0  0  0
 49 68  1  0  0  0  0
 50 66  1  0  0  0  0
 51 52  1  0  0  0  0
 51 74  1  0  0  0  0
 52 75  1  0  0  0  0
 54 61  1  0  0  0  0
 55 62  1  0  0  0  0
 56 62  1  0  0  0  0
 57 62  1  0  0  0  0
 58 76  1  0  0  0  0
 59 83  1  0  0  0  0
 60 62  1  0  0  0  0
 60 73  1  0  0  0  0
 61 76  1  0  0  0  0
 63 66  1  0  0  0  0
M  CHG  2  75   1  76   1
M  ISO  4  36 100  59 101  74 100  83 101
M  END
> <Batch ID>
0177

> <Smiles>
CNC(C)C(=O)NC(C(=O)N1Cc2cc([101O:1][101CH2:1]c3nc(C)cc(N4CC(N)C([100NH:0][100C:0](=O)N5CCCC(n6nc(-c7ccc(Oc8ccc(F)cc8F)cc7)c(C(N)=O)c6N)C5)C4)n3)ccc2CC1C(=O)NC1CCCc2ccccc21)C(C)(C)C

> <Shape>
0.271

> <Color>
0.127

> <Negative vol penalty>
0.000

$$$$

  -OEChem-04052322523D

 87 96  0     1  0  0  0  0  0999 V2000
  -26.4646  -38.2298   23.4600 C   0  0  0  0  0  0  0  0  0  0  0  0
  -27.1531  -37.3744   22.6058 C   0  0  0  0  0  0  0  0  0  0  0  0
  -24.6152   -9.0334   21.9277 C   0  0  0  0  0  0  0  0  0  0  0  0
  -23.1335   -9.8172   20.1878 C   0  0  0  0  0  0  0  0  0  0  0  0
  -25.7215  -37.7074   24.5177 C   0  0  0  0  0  0  0  0  0  0  0  0
  -27.0998  -35.9959   22.8096 C   0  0  0  0  0  0  0  0  0  0  0  0
  -27.1554  -29.8118   19.1943 C   0  0  0  0  0  0  0  0  0  0  0  0
  -23.5503   -8.3681   22.5350 C   0  0  0  0  0  0  0  0  0  0  0  0
  -22.0685   -9.1518   20.7951 C   0  0  0  0  0  0  0  0  0  0  0  0
  -27.8236  -28.5886   19.1629 C   0  0  0  0  0  0  0  0  0  0  0  0
  -21.8271   -5.4939   22.0857 C   0  0  0  0  0  0  0  0  0  0  0  0
  -22.0437   -4.1873   22.5232 C   0  0  0  0  0  0  0  0  0  0  0  0
  -26.4436  -27.7949   20.9753 C   0  0  0  0  0  0  0  0  0  0  0  0
  -21.5122   -4.8558   24.7832 C   0  0  0  0  0  0  0  0  0  0  0  0
  -30.6733  -23.0944   20.8357 C   0  0  0  0  0  0  0  0  0  0  0  0
  -24.4068   -9.7580   20.7541 C   0  0  0  0  0  0  0  0  0  0  0  0
  -26.3826   -9.9353   19.1501 C   0  0  0  0  0  0  0  0  0  0  0  0
  -25.6512  -36.3213   24.7288 C   0  0  0  0  0  0  0  0  0  0  0  0
  -26.1319  -30.0400   20.1254 C   0  0  0  0  0  0  0  0  0  0  0  0
  -26.3561  -35.4545   23.8719 C   0  0  0  0  0  0  0  0  0  0  0  0
  -25.7622  -29.0210   21.0148 C   0  0  0  0  0  0  0  0  0  0  0  0
  -29.9313  -24.2544   20.9898 C   0  0  0  0  0  0  0  0  0  0  0  0
  -28.5544  -24.1745   20.8131 C   0  0  0  0  0  0  0  0  0  0  0  0
  -27.9699  -22.9543   20.4922 C   0  0  0  0  0  0  0  0  0  0  0  0
  -22.2769   -8.4273   21.9687 C   0  0  0  0  0  0  0  0  0  0  0  0
  -27.4697  -27.5809   20.0553 C   0  0  0  0  0  0  0  0  0  0  0  0
  -21.4530   -6.4815   22.9969 C   0  0  0  0  0  0  0  0  0  0  0  0
  -21.8863   -3.8682   23.8719 C   0  0  0  0  0  0  0  0  0  0  0  0
  -21.2956   -6.1625   24.3457 C   0  0  0  0  0  0  0  0  0  0  0  0
  -25.5064  -10.4459   20.1266 C   0  0  0  0  0  0  0  0  0  0  0  0
  -28.7998  -21.8526   20.3603 C   0  0  0  0  0  0  0  0  0  0  0  0
  -27.2424  -10.9728   18.8841 C   0  0  0  0  0  0  0  0  0  0  0  0
  -26.4162   -8.6391   18.5383 C   0  0  0  0  0  0  0  0  0  0  0  0
  -25.6968  -32.0770   22.5264 C   0  0  0  0  0  0  0  0  0  0  0  0
  -22.7417  -30.7418   22.6096 C   0  0  0  0  0  0  0  0  0  0  0  0
  -20.7511  -28.0641   21.8925 C   0  0  0  0  0  0  0  0  0  0  0  0
  -26.7975  -16.7294   19.1852 C   0  0  0  0  0  0  0  0  0  0  0  0
  -24.8735  -35.8060   25.9138 C   0  0  0  0  0  0  0  0  0  0  0  0
  -25.4028  -31.3556   20.1287 C   0  0  0  0  0  0  0  0  0  0  0  0
  -24.6566  -29.2085   22.0202 C   0  0  0  0  0  0  0  0  0  0  0  0
  -24.5640  -34.3131   25.8367 C   0  0  0  0  0  0  0  0  0  0  0  0
  -29.2033  -14.8336   20.9049 C   0  0  0  0  0  0  0  0  0  0  0  0
  -25.8097  -33.5298   25.4348 C   0  0  0  0  0  0  0  0  0  0  0  0
  -28.6098  -13.4286   20.8068 C   0  0  0  0  0  0  0  0  0  0  0  0
  -28.1309  -15.8914   21.1702 C   0  0  0  0  0  0  0  0  0  0  0  0
  -28.6210  -19.9359   18.8039 C   0  0  0  0  0  0  0  0  0  0  0  0
  -27.7621  -19.7693   21.1450 C   0  0  0  0  0  0  0  0  0  0  0  0
  -27.5655  -18.9249   18.3642 C   0  0  0  0  0  0  0  0  0  0  0  0
  -26.7148  -18.7721   20.6620 C   0  0  0  0  0  0  0  0  0  0  0  0
  -26.4168  -14.4611   20.1054 C   0  0  0  0  0  0  0  0  0  0  0  0
  -26.3026  -33.9522   24.0455 C   0  0  1  0  0  0  0  0  0  0  0  0
  -24.7236  -31.6590   21.4606 C   0  0  1  0  0  0  0  0  0  0  0  0
  -27.4633  -13.3837   19.7810 C   0  0  2  0  0  0  0  0  0  0  0  0
  -30.6113  -25.5340   21.3342 C   0  0  0  0  0  0  0  0  0  0  0  0
  -25.9919  -23.7045   19.1217 C   0  0  0  0  0  0  0  0  0  0  0  0
  -25.7061  -23.1961   21.5742 C   0  0  0  0  0  0  0  0  0  0  0  0
  -18.3871  -27.2516   22.1139 C   0  0  0  0  0  0  0  0  0  0  0  0
  -23.2120  -30.1885   25.5731 C   0  0  0  0  0  0  0  0  0  0  0  0
  -21.2953  -28.5791   25.5053 C   0  0  0  0  0  0  0  0  0  0  0  0
  -20.9114  -30.9946   25.0147 C   0  0  0  0  0  0  0  0  0  0  0  0
  -20.4318  -27.8369   18.9591 C   0  0  0  0  0  0  0  0  0  0  0  0
  -27.7088  -25.3980   20.9683 C   0  0  0  0  0  0  0  0  0  1  0  0
  -26.4931  -22.8466   20.2979 C   0  0  0  0  0  0  0  0  0  0  0  0
  -22.1211  -29.5623   23.3184 C   0  0  1  0  0  0  0  0  0  0  0  0
  -19.3906  -27.9703   21.2256 C   0  0  2  0  0  0  0  0  0  0  0  0
  -21.9071  -29.8279   24.8354 C   0  0  0  0  0  0  0  0  0  0  0  0
  -30.1411  -21.8913   20.5244 N   0  0  0  0  0  0  0  0  0  0  0  0
  -25.7842  -11.7095   20.4585 N   0  0  0  0  0  0  0  0  0  0  0  0
  -26.8447  -12.0016   19.6863 N   0  0  0  0  0  0  0  0  0  0  0  0
  -28.2177  -20.6203   20.0371 N   0  0  0  0  0  0  0  0  0  0  0  0
  -23.9779  -30.5146   21.9884 N   0  0  0  0  0  0  0  0  0  0  0  0
  -27.0399  -15.7834   20.1924 N   0  0  0  0  0  0  0  0  0  0  0  0
  -27.1571  -18.0576   19.4627 N   0  0  0  0  0  0  0  0  0  0  0  0
  -28.2923  -11.0962   18.0446 N   0  0  0  0  0  0  0  0  0  0  0  0
  -25.4594   -7.6916   18.9273 N   0  0  0  0  0  0  0  0  0  0  0  0
  -25.4832  -33.3520   23.0145 N   0  0  0  0  0  0  0  0  0  0  0  0
  -20.8980  -29.2450   22.5890 N   0  0  0  0  0  0  0  0  0  0  0  0
  -19.4952  -27.2273   19.9379 N   0  3  0  0  0  0  0  0  0  0  0  0
  -27.2794   -8.3248   17.6842 O   0  0  0  0  0  0  0  0  0  0  0  0
  -26.5754  -31.2997   22.8808 O   0  0  0  0  0  0  0  0  0  0  0  0
  -22.1480  -31.8231   22.6011 O   0  0  0  0  0  0  0  0  0  0  0  0
  -21.5972  -27.1768   21.8075 O   0  0  0  0  0  0  0  0  0  0  0  0
  -26.2934  -16.4086   18.1018 O   0  0  0  0  0  0  0  0  0  0  0  0
  -21.2375   -7.7781   22.5609 O   0  0  0  0  0  0  0  0  0  0  0  0
  -28.1255  -26.3775   20.0269 O   0  0  0  0  0  0  0  0  0  1  0  0
  -22.0929   -2.6131   24.2916 F   0  0  0  0  0  0  0  0  0  0  0  0
  -20.9353   -7.1068   25.2256 F   0  0  0  0  0  0  0  0  0  0  0  0
  1  2  1  0  0  0  0
  1  5  2  0  0  0  0
  2  6  2  0  0  0  0
  3  8  2  0  0  0  0
  3 16  1  0  0  0  0
  4  9  1  0  0  0  0
  4 16  2  0  0  0  0
  5 18  1  0  0  0  0
  6 20  1  0  0  0  0
  7 10  2  0  0  0  0
  7 19  1  0  0  0  0
  8 25  1  0  0  0  0
  9 25  2  0  0  0  0
 10 26  1  0  0  0  0
 11 12  2  0  0  0  0
 11 27  1  0  0  0  0
 12 28  1  0  0  0  0
 13 21  1  0  0  0  0
 13 26  2  0  0  0  0
 14 28  2  0  0  0  0
 14 29  1  0  0  0  0
 15 22  2  0  0  0  0
 15 67  1  0  0  0  0
 16 30  1  0  0  0  0
 17 30  1  0  0  0  0
 17 32  2  0  0  0  0
 17 33  1  0  0  0  0
 18 20  2  0  0  0  0
 18 38  1  0  0  0  0
 19 21  2  0  0  0  0
 19 39  1  0  0  0  0
 20 51  1  0  0  0  0
 21 40  1  0  0  0  0
 22 23  1  0  0  0  0
 22 54  1  0  0  0  0
 23 24  2  0  0  0  0
 23 62  1  0  0  0  0
 24 31  1  0  0  0  0
 24 63  1  0  0  0  0
 25 84  1  0  0  0  0
 26 85  1  0  0  0  0
 27 29  2  0  0  0  0
 27 84  1  0  0  0  0
 28 86  1  0  0  0  0
 29 87  1  0  0  0  0
 30 68  2  0  0  0  0
 31 67  2  0  0  0  0
 31 70  1  0  0  0  0
 32 69  1  0  0  0  0
 32 74  1  0  0  0  0
 33 75  1  0  0  0  0
 33 79  2  0  0  0  0
 34 52  1  0  0  0  0
 34 76  1  0  0  0  0
 34 80  2  0  0  0  0
 35 64  1  0  0  0  0
 35 71  1  0  0  0  0
 35 81  2  0  0  0  0
 36 65  1  0  0  0  0
 36 77  1  0  0  0  0
 36 82  2  0  0  0  0
 37 72  1  0  0  0  0
 37 73  1  0  0  0  0
 37 83  2  0  0  0  0
 38 41  1  0  0  0  0
 39 52  1  0  0  0  0
 40 71  1  0  0  0  0
 41 43  1  0  0  0  0
 42 44  1  0  0  0  0
 42 45  1  0  0  0  0
 43 51  1  0  0  0  0
 44 53  1  0  0  0  0
 45 72  1  0  0  0  0
 46 48  1  0  0  0  0
 46 70  1  0  0  0  0
 47 49  1  0  0  0  0
 47 70  1  0  0  0  0
 48 73  1  0  0  0  0
 49 73  1  0  0  0  0
 50 53  1  0  0  0  0
 50 72  1  0  0  0  0
 51 76  1  0  0  0  0
 52 71  1  0  0  0  0
 53 69  1  0  0  0  0
 55 63  1  0  0  0  0
 56 63  1  0  0  0  0
 57 65  1  0  0  0  0
 58 66  1  0  0  0  0
 59 66  1  0  0  0  0
 60 66  1  0  0  0  0
 61 78  1  0  0  0  0
 62 85  1  0  0  0  0
 64 66  1  0  0  0  0
 64 77  1  0  0  0  0
 65 78  1  0  0  0  0
 68 69  1  0  0  0  0
M  CHG  1  78   1
M  ISO  4  37 100  62 101  73 100  85 101
M  END
> <Batch ID>
0177

> <Smiles>
CNC(C)C(=O)NC(C(=O)N1Cc2cc([101O:1][101CH2:1]c3c(C)cnc(N4CC[100N:0]([100C:0](=O)N5CCCC(n6nc(-c7ccc(Oc8ccc(F)cc8F)cc7)c(C(N)=O)c6N)C5)CC4)c3C(C)C)ccc2CC1C(=O)NC1CCCc2ccccc21)C(C)(C)C

> <Shape>
0.369

> <Color>
0.120

> <Negative vol penalty>
0.000

$$$$

  -OEChem-04052322523D

 89 99  0     1  0  0  0  0  0999 V2000
  -31.2346  -12.1368   18.7808 C   0  0  0  0  0  0  0  0  0  0  0  0
  -30.8219  -13.4615   18.6797 C   0  0  0  0  0  0  0  0  0  0  0  0
  -23.2898  -27.0896   21.1498 C   0  0  0  0  0  0  0  0  0  0  0  0
  -22.4912  -26.5741   23.3710 C   0  0  0  0  0  0  0  0  0  0  0  0
  -30.3306  -11.1551   19.1843 C   0  0  0  0  0  0  0  0  0  0  0  0
  -29.5044  -13.8050   18.9810 C   0  0  0  0  0  0  0  0  0  0  0  0
  -29.1894  -17.9685   21.8466 C   0  0  0  0  0  0  0  0  0  0  0  0
  -22.7844  -25.8750   20.6862 C   0  0  0  0  0  0  0  0  0  0  0  0
  -21.9858  -25.3595   22.9074 C   0  0  0  0  0  0  0  0  0  0  0  0
  -29.3555  -19.1959   21.2067 C   0  0  0  0  0  0  0  0  0  0  0  0
  -19.2775  -24.2802   21.1984 C   0  0  0  0  0  0  0  0  0  0  0  0
  -17.9924  -23.9183   21.6022 C   0  0  0  0  0  0  0  0  0  0  0  0
  -26.9617  -19.4914   21.1653 C   0  0  0  0  0  0  0  0  0  0  0  0
  -29.7648  -25.4230   18.2334 C   0  0  0  0  0  0  0  0  0  0  0  0
  -18.8794  -21.9235   22.6371 C   0  0  0  0  0  0  0  0  0  0  0  0
  -23.1433  -27.4391   22.4922 C   0  0  0  0  0  0  0  0  0  0  0  0
  -22.9961  -29.9309   23.0186 C   0  0  0  0  0  0  0  0  0  0  0  0
  -29.0040  -11.4882   19.5001 C   0  0  0  0  0  0  0  0  0  0  0  0
  -27.9056  -17.4874   22.1414 C   0  0  0  0  0  0  0  0  0  0  0  0
  -28.5815  -12.8266   19.3879 C   0  0  0  0  0  0  0  0  0  0  0  0
  -26.7821  -18.2587   21.8113 C   0  0  0  0  0  0  0  0  0  0  0  0
  -29.3901  -24.3465   17.4270 C   0  0  0  0  0  0  0  0  0  0  0  0
  -29.3447  -23.0600   17.9788 C   0  0  0  0  0  0  0  0  0  0  0  0
  -22.1324  -25.0100   21.5649 C   0  0  0  0  0  0  0  0  0  0  0  0
  -28.2414  -19.9563   20.8633 C   0  0  0  0  0  0  0  0  0  0  0  0
  -20.3635  -23.4637   21.5138 C   0  0  0  0  0  0  0  0  0  0  0  0
  -17.7933  -22.7400   22.3216 C   0  0  0  0  0  0  0  0  0  0  0  0
  -20.1645  -22.2854   22.2332 C   0  0  0  0  0  0  0  0  0  0  0  0
  -23.6656  -28.6934   22.9719 C   0  0  0  0  0  0  0  0  0  0  0  0
  -29.7160  -22.9180   19.3123 C   0  0  0  0  0  0  0  0  0  0  0  0
  -30.1032  -25.1684   19.5525 C   0  0  0  0  0  0  0  0  0  0  0  0
  -23.9168  -30.7994   23.5521 C   0  0  0  0  0  0  0  0  0  0  0  0
  -21.6614  -30.2654   22.6159 C   0  0  0  0  0  0  0  0  0  0  0  0
  -26.2126  -14.9389   21.2798 C   0  0  0  0  0  0  0  0  0  0  0  0
  -24.1067  -16.0831   23.4658 C   0  0  0  0  0  0  0  0  0  0  0  0
  -22.9144  -18.7597   25.2154 C   0  0  0  0  0  0  0  0  0  0  0  0
  -29.8973  -30.7668   23.7127 C   0  0  0  0  0  0  0  0  0  0  0  0
  -28.0508  -10.3851   19.8863 C   0  0  0  0  0  0  0  0  0  0  0  0
  -27.7445  -16.1737   22.8560 C   0  0  0  0  0  0  0  0  0  0  0  0
  -28.9757  -21.8623   17.1497 C   0  0  0  0  0  0  0  0  0  0  0  0
  -25.3832  -17.7965   22.1240 C   0  0  0  0  0  0  0  0  0  0  0  0
  -28.9894  -24.5843   15.9975 C   0  0  0  0  0  0  0  0  0  0  0  0
  -26.7713  -10.8899   20.5484 C   0  0  0  0  0  0  0  0  0  0  0  0
  -27.6886  -30.9570   26.4628 C   0  0  0  0  0  0  0  0  0  0  0  0
  -26.1900  -12.0612   19.7630 C   0  0  0  0  0  0  0  0  0  0  0  0
  -26.3497  -30.4832   25.9041 C   0  0  0  0  0  0  0  0  0  0  0  0
  -31.5017  -29.8725   20.4996 C   0  0  0  0  0  0  0  0  0  0  0  0
  -28.8382  -30.1608   25.8599 C   0  0  0  0  0  0  0  0  0  0  0  0
  -31.3778  -30.7601   21.7283 C   0  0  0  0  0  0  0  0  0  0  0  0
  -29.7822  -28.9738   21.8800 C   0  0  0  0  0  0  0  0  0  0  0  0
  -27.5552  -29.7792   23.7723 C   0  0  0  0  0  0  0  0  0  0  0  0
  -28.1871  -22.2248   15.8953 C   0  0  0  0  0  0  0  0  0  0  0  0
  -27.1673  -13.2425   19.7301 C   0  0  1  0  0  0  0  0  0  0  0  0
  -26.3709  -15.5439   22.6461 C   0  0  1  0  0  0  0  0  0  0  0  0
  -30.9479  -28.5356   20.9937 C   0  0  1  0  0  0  0  0  0  0  0  0
  -26.3531  -30.5404   24.3686 C   0  0  1  0  0  0  0  0  0  0  0  0
  -21.1634  -19.3912   26.8984 C   0  0  0  0  0  0  0  0  0  0  0  0
  -21.9739  -15.9672   21.2869 C   0  0  0  0  0  0  0  0  0  0  0  0
  -20.5465  -17.4601   22.7018 C   0  0  0  0  0  0  0  0  0  0  0  0
  -21.2047  -15.2051   23.5412 C   0  0  0  0  0  0  0  0  0  0  0  0
  -28.3462  -23.5786   13.7983 C   0  0  0  0  0  0  0  0  0  0  0  0
  -24.9501  -19.6349   27.1772 C   0  0  0  0  0  0  0  0  0  0  0  0
  -29.7357  -21.5729   19.9635 C   0  0  0  0  0  0  0  0  0  1  0  0
  -30.5327  -27.6060   19.8674 C   0  0  0  0  0  0  0  0  0  0  0  0
  -22.9400  -17.0403   23.4272 C   0  0  1  0  0  0  0  0  0  0  0  0
  -22.6008  -18.9407   26.6896 C   0  0  2  0  0  0  0  0  0  0  0  0
  -21.6924  -16.4263   22.7315 C   0  0  0  0  0  0  0  0  0  0  0  0
  -24.9151  -28.7652   23.4383 N   0  0  0  0  0  0  0  0  0  0  0  0
  -30.0914  -23.9402   20.1134 N   0  0  0  0  0  0  0  0  0  0  0  0
  -25.0382  -30.0582   23.7831 N   0  0  0  0  0  0  0  0  0  0  0  0
  -25.2773  -16.5024   22.8180 N   0  0  0  0  0  0  0  0  0  0  0  0
  -28.8169  -30.1982   24.3964 N   0  0  0  0  0  0  0  0  0  0  0  0
  -30.2308  -30.2396   22.4658 N   0  0  0  0  0  0  0  0  0  0  0  0
  -23.8684  -32.1171   23.8413 N   0  0  0  0  0  0  0  0  0  0  0  0
  -20.8491  -29.2526   22.0880 N   0  0  0  0  0  0  0  0  0  0  0  0
  -30.4778  -26.2593   20.3370 N   0  0  0  0  0  0  0  0  0  0  0  0
  -27.1397  -13.9565   20.9887 N   0  0  0  0  0  0  0  0  0  0  0  0
  -22.7098  -17.4591   24.8057 N   0  0  0  0  0  0  0  0  0  0  0  0
  -28.9205  -23.3208   15.1620 N   0  3  1  0  0  0  0  0  0  0  0  0
  -23.5053  -19.9617   27.2900 N   0  3  0  0  0  0  0  0  0  0  0  0
  -21.2081  -31.4316   22.7058 O   0  0  0  0  0  0  0  0  0  0  0  0
  -25.3147  -15.3331   20.5449 O   0  0  0  0  0  0  0  0  0  0  0  0
  -23.9862  -15.0063   24.0553 O   0  0  0  0  0  0  0  0  0  0  0  0
  -23.2985  -19.6808   24.4981 O   0  0  0  0  0  0  0  0  0  0  0  0
  -30.5654  -31.6815   24.2135 O   0  0  0  0  0  0  0  0  0  0  0  0
  -21.6389  -23.8248   21.1128 O   0  0  0  0  0  0  0  0  0  0  0  0
  -28.4018  -21.1631   20.2336 O   0  0  0  0  0  0  0  0  0  1  0  0
  -16.5593  -22.3934   22.7107 F   0  0  0  0  0  0  0  0  0  0  0  0
  -21.2041  -21.4976   22.5403 F   0  0  0  0  0  0  0  0  0  0  0  0
  1  2  1  0  0  0  0
  1  5  2  0  0  0  0
  2  6  2  0  0  0  0
  3  8  2  0  0  0  0
  3 16  1  0  0  0  0
  4  9  1  0  0  0  0
  4 16  2  0  0  0  0
  5 18  1  0  0  0  0
  6 20  1  0  0  0  0
  7 10  2  0  0  0  0
  7 19  1  0  0  0  0
  8 24  1  0  0  0  0
  9 24  2  0  0  0  0
 10 25  1  0  0  0  0
 11 12  2  0  0  0  0
 11 26  1  0  0  0  0
 12 27  1  0  0  0  0
 13 21  1  0  0  0  0
 13 25  2  0  0  0  0
 14 22  2  0  0  0  0
 14 31  1  0  0  0  0
 15 27  2  0  0  0  0
 15 28  1  0  0  0  0
 16 29  1  0  0  0  0
 17 29  1  0  0  0  0
 17 32  2  0  0  0  0
 17 33  1  0  0  0  0
 18 20  2  0  0  0  0
 18 38  1  0  0  0  0
 19 21  2  0  0  0  0
 19 39  1  0  0  0  0
 20 53  1  0  0  0  0
 21 41  1  0  0  0  0
 22 23  1  0  0  0  0
 22 42  1  0  0  0  0
 23 30  2  0  0  0  0
 23 40  1  0  0  0  0
 24 86  1  0  0  0  0
 25 87  1  0  0  0  0
 26 28  2  0  0  0  0
 26 86  1  0  0  0  0
 27 88  1  0  0  0  0
 28 89  1  0  0  0  0
 29 68  2  0  0  0  0
 30 63  1  0  0  0  0
 30 69  1  0  0  0  0
 31 69  2  0  0  0  0
 31 76  1  0  0  0  0
 32 70  1  0  0  0  0
 32 74  1  0  0  0  0
 33 75  1  0  0  0  0
 33 81  2  0  0  0  0
 34 54  1  0  0  0  0
 34 77  1  0  0  0  0
 34 82  2  0  0  0  0
 35 65  1  0  0  0  0
 35 71  1  0  0  0  0
 35 83  2  0  0  0  0
 36 66  1  0  0  0  0
 36 78  1  0  0  0  0
 36 84  2  0  0  0  0
 37 72  1  0  0  0  0
 37 73  1  0  0  0  0
 37 85  2  0  0  0  0
 38 43  1  0  0  0  0
 39 54  1  0  0  0  0
 40 52  1  0  0  0  0
 41 71  1  0  0  0  0
 42 79  1  0  0  0  0
 43 45  1  0  0  0  0
 44 46  1  0  0  0  0
 44 48  1  0  0  0  0
 45 53  1  0  0  0  0
 46 56  1  0  0  0  0
 47 49  1  0  0  0  0
 47 55  1  0  0  0  0
 48 72  1  0  0  0  0
 49 73  1  0  0  0  0
 50 55  1  0  0  0  0
 50 73  1  0  0  0  0
 51 56  1  0  0  0  0
 51 72  1  0  0  0  0
 52 79  1  0  0  0  0
 53 77  1  0  0  0  0
 54 71  1  0  0  0  0
 55 64  1  0  0  0  0
 56 70  1  0  0  0  0
 57 66  1  0  0  0  0
 58 67  1  0  0  0  0
 59 67  1  0  0  0  0
 60 67  1  0  0  0  0
 61 79  1  0  0  0  0
 62 80  1  0  0  0  0
 63 87  1  0  0  0  0
 64 76  1  0  0  0  0
 65 67  1  0  0  0  0
 65 78  1  0  0  0  0
 66 80  1  0  0  0  0
 68 70  1  0  0  0  0
M  CHG  2  79   1  80   1
M  ISO  4  37 100  63 101  73 100  87 101
M  END
> <Batch ID>
0177

> <Smiles>
CNC(C)C(=O)NC(C(=O)N1Cc2cc([101O:1][101CH2:1]c3nc(NCC4CC[100N:0]([100C:0](=O)N5CCCC(n6nc(-c7ccc(Oc8ccc(F)cc8F)cc7)c(C(N)=O)c6N)C5)C4)cc4c3CCN(C)C4)ccc2CC1C(=O)NC1CCCc2ccccc21)C(C)(C)C

> <Shape>
0.219

> <Color>
0.060

> <Negative vol penalty>
0.000

$$$$

  -OEChem-04052322523D

 84 93  0     1  0  0  0  0  0999 V2000
  -25.0894  -37.6191   27.3398 C   0  0  0  0  0  0  0  0  0  0  0  0
  -25.4095  -36.3251   27.7381 C   0  0  0  0  0  0  0  0  0  0  0  0
  -26.3365  -12.9137   21.2963 C   0  0  0  0  0  0  0  0  0  0  0  0
  -26.2917  -13.1844   18.8960 C   0  0  0  0  0  0  0  0  0  0  0  0
  -24.4900  -37.8375   26.1001 C   0  0  0  0  0  0  0  0  0  0  0  0
  -25.1294  -35.2486   26.8972 C   0  0  0  0  0  0  0  0  0  0  0  0
  -28.4294  -30.1310   26.2447 C   0  0  0  0  0  0  0  0  0  0  0  0
  -26.0470  -23.0655   28.4205 C   0  0  0  0  0  0  0  0  0  0  0  0
  -25.1056  -12.2595   21.2455 C   0  0  0  0  0  0  0  0  0  0  0  0
  -25.0609  -12.5301   18.8451 C   0  0  0  0  0  0  0  0  0  0  0  0
  -28.2955  -28.8531   26.7859 C   0  0  0  0  0  0  0  0  0  0  0  0
  -23.9532   -9.1771   20.4685 C   0  0  0  0  0  0  0  0  0  0  0  0
  -23.8086   -8.0090   21.2169 C   0  0  0  0  0  0  0  0  0  0  0  0
  -26.6398  -21.9495   27.8404 C   0  0  0  0  0  0  0  0  0  0  0  0
  -27.1315  -28.1394   24.7973 C   0  0  0  0  0  0  0  0  0  0  0  0
  -22.0025   -9.0273   22.4572 C   0  0  0  0  0  0  0  0  0  0  0  0
  -26.9295  -13.3762   20.1216 C   0  0  0  0  0  0  0  0  0  0  0  0
  -29.4786  -13.4688   20.0836 C   0  0  0  0  0  0  0  0  0  0  0  0
  -24.2113  -36.7640   25.2395 C   0  0  0  0  0  0  0  0  0  0  0  0
  -27.9049  -30.4260   24.9781 C   0  0  0  0  0  0  0  0  0  0  0  0
  -24.5245  -35.4527   25.6453 C   0  0  0  0  0  0  0  0  0  0  0  0
  -27.2623  -29.4210   24.2411 C   0  0  0  0  0  0  0  0  0  0  0  0
  -26.0983  -24.2917   27.7669 C   0  0  0  0  0  0  0  0  0  0  0  0
  -24.4678  -12.0676   20.0200 C   0  0  0  0  0  0  0  0  0  0  0  0
  -27.6439  -27.8579   26.0635 C   0  0  0  0  0  0  0  0  0  0  0  0
  -23.1226  -10.2704   20.7144 C   0  0  0  0  0  0  0  0  0  0  0  0
  -22.8333   -7.9341   22.2113 C   0  0  0  0  0  0  0  0  0  0  0  0
  -22.1472  -10.1954   21.7088 C   0  0  0  0  0  0  0  0  0  0  0  0
  -28.2007  -14.0526   20.1734 C   0  0  0  0  0  0  0  0  0  0  0  0
  -27.2665  -22.1111   26.6153 C   0  0  0  0  0  0  0  0  0  0  0  0
  -26.7494  -24.3485   26.5452 C   0  0  0  0  0  0  0  0  0  0  0  0
  -30.3477  -14.5274   20.1859 C   0  0  0  0  0  0  0  0  0  0  0  0
  -29.8470  -12.0926   19.9220 C   0  0  0  0  0  0  0  0  0  0  0  0
  -25.6950  -32.4275   23.8760 C   0  0  0  0  0  0  0  0  0  0  0  0
  -26.7311  -31.3662   20.9911 C   0  0  0  0  0  0  0  0  0  0  0  0
  -28.2548  -28.9024   19.1870 C   0  0  0  0  0  0  0  0  0  0  0  0
  -30.0770  -19.8586   22.6254 C   0  0  0  0  0  0  0  0  0  0  0  0
  -23.5194  -37.0450   23.9291 C   0  0  0  0  0  0  0  0  0  0  0  0
  -28.0812  -31.8022   24.3971 C   0  0  0  0  0  0  0  0  0  0  0  0
  -26.6994  -29.6811   22.8685 C   0  0  0  0  0  0  0  0  0  0  0  0
  -23.5975  -35.8862   22.9384 C   0  0  0  0  0  0  0  0  0  0  0  0
  -30.6861  -19.2066   19.2859 C   0  0  0  0  0  0  0  0  0  0  0  0
  -23.2590  -34.5692   23.6295 C   0  0  0  0  0  0  0  0  0  0  0  0
  -30.2472  -17.7527   19.1136 C   0  0  0  0  0  0  0  0  0  0  0  0
  -27.2663  -20.5711   24.6028 C   0  0  0  0  0  0  0  0  0  0  0  0
  -29.4403  -21.1077   25.7842 C   0  0  0  0  0  0  0  0  0  0  0  0
  -29.7132  -19.9681   20.1787 C   0  0  0  0  0  0  0  0  0  0  0  0
  -27.9539  -19.3829   23.9242 C   0  0  0  0  0  0  0  0  0  0  0  0
  -30.0671  -19.8959   25.1007 C   0  0  0  0  0  0  0  0  0  0  0  0
  -29.0795  -17.8946   21.3691 C   0  0  0  0  0  0  0  0  0  0  0  0
  -24.2590  -34.2615   24.7506 C   0  0  1  0  0  0  0  0  0  0  0  0
  -27.9223  -20.9144   25.9524 C   0  0  0  0  0  0  0  0  0  0  0  0
  -27.0568  -32.1296   23.3150 C   0  0  1  0  0  0  0  0  0  0  0  0
  -30.0342  -17.0739   20.4783 C   0  0  1  0  0  0  0  0  0  0  0  0
  -25.4662  -25.4910   28.3840 C   0  0  0  0  0  0  0  0  0  0  0  0
  -28.9241  -28.3035   16.8438 C   0  0  0  0  0  0  0  0  0  0  0  0
  -23.8283  -30.6908   20.3372 C   0  0  0  0  0  0  0  0  0  0  0  0
  -24.6572  -29.2658   18.4530 C   0  0  0  0  0  0  0  0  0  0  0  0
  -25.1103  -31.7188   18.4520 C   0  0  0  0  0  0  0  0  0  0  0  0
  -31.1219  -28.7860   19.9118 C   0  0  0  0  0  0  0  0  0  0  0  0
  -26.8331  -25.6381   25.7965 C   0  0  0  0  0  0  0  0  0  1  0  0
  -26.3547  -30.2292   20.0721 C   0  0  1  0  0  0  0  0  0  0  0  0
  -29.3608  -28.9517   18.1483 C   0  0  2  0  0  0  0  0  0  0  0  0
  -24.9964  -30.4715   19.3552 C   0  0  0  0  0  0  0  0  0  0  0  0
  -28.2491  -15.3791   20.3216 N   0  0  0  0  0  0  0  0  0  0  0  0
  -27.3368  -23.2860   25.9504 N   0  0  0  0  0  0  0  0  0  0  0  0
  -29.5679  -15.6376   20.3258 N   0  0  0  0  0  0  0  0  0  0  0  0
  -26.8914  -31.0441   22.3462 N   0  0  0  0  0  0  0  0  0  0  0  0
  -29.5351  -19.2903   21.4627 N   0  0  0  0  0  0  0  0  0  0  0  0
  -29.4032  -19.6064   23.8299 N   0  0  0  0  0  0  0  0  0  0  0  0
  -31.6951  -14.6076   20.1691 N   0  0  0  0  0  0  0  0  0  0  0  0
  -28.8283  -11.1341   19.8336 N   0  0  0  0  0  0  0  0  0  0  0  0
  -25.4978  -33.7566   24.1984 N   0  0  0  0  0  0  0  0  0  0  0  0
  -27.4837  -30.0453   19.1667 N   0  0  0  0  0  0  0  0  0  0  0  0
  -30.5708  -28.2379   18.6458 N   0  3  0  0  0  0  0  0  0  0  0  0
  -31.0445  -11.7220   19.8743 O   0  0  0  0  0  0  0  0  0  0  0  0
  -24.8829  -31.5189   24.0053 O   0  0  0  0  0  0  0  0  0  0  0  0
  -26.8845  -32.4970   20.5227 O   0  0  0  0  0  0  0  0  0  0  0  0
  -28.0891  -27.9441   19.9386 O   0  0  0  0  0  0  0  0  0  0  0  0
  -31.1026  -20.5499   22.5903 O   0  0  0  0  0  0  0  0  0  0  0  0
  -23.2669  -11.4291   19.9700 O   0  0  0  0  0  0  0  0  0  0  0  0
  -27.5103  -26.6011   26.5934 O   0  0  0  0  0  0  0  0  0  1  0  0
  -22.6935   -6.8117   22.9289 F   0  0  0  0  0  0  0  0  0  0  0  0
  -21.3455  -11.2420   21.9488 F   0  0  0  0  0  0  0  0  0  0  0  0
  1  2  1  0  0  0  0
  1  5  2  0  0  0  0
  2  6  2  0  0  0  0
  3  9  2  0  0  0  0
  3 17  1  0  0  0  0
  4 10  1  0  0  0  0
  4 17  2  0  0  0  0
  5 19  1  0  0  0  0
  6 21  1  0  0  0  0
  7 11  2  0  0  0  0
  7 20  1  0  0  0  0
  8 14  2  0  0  0  0
  8 23  1  0  0  0  0
  9 24  1  0  0  0  0
 10 24  2  0  0  0  0
 11 25  1  0  0  0  0
 12 13  2  0  0  0  0
 12 26  1  0  0  0  0
 13 27  1  0  0  0  0
 14 30  1  0  0  0  0
 15 22  1  0  0  0  0
 15 25  2  0  0  0  0
 16 27  2  0  0  0  0
 16 28  1  0  0  0  0
 17 29  1  0  0  0  0
 18 29  1  0  0  0  0
 18 32  2  0  0  0  0
 18 33  1  0  0  0  0
 19 21  2  0  0  0  0
 19 38  1  0  0  0  0
 20 22  2  0  0  0  0
 20 39  1  0  0  0  0
 21 51  1  0  0  0  0
 22 40  1  0  0  0  0
 23 31  2  0  0  0  0
 23 55  1  0  0  0  0
 24 81  1  0  0  0  0
 25 82  1  0  0  0  0
 26 28  2  0  0  0  0
 26 81  1  0  0  0  0
 27 83  1  0  0  0  0
 28 84  1  0  0  0  0
 29 65  2  0  0  0  0
 30 52  1  0  0  0  0
 30 66  2  0  0  0  0
 31 61  1  0  0  0  0
 31 66  1  0  0  0  0
 32 67  1  0  0  0  0
 32 71  1  0  0  0  0
 33 72  1  0  0  0  0
 33 76  2  0  0  0  0
 34 53  1  0  0  0  0
 34 73  1  0  0  0  0
 34 77  2  0  0  0  0
 35 62  1  0  0  0  0
 35 68  1  0  0  0  0
 35 78  2  0  0  0  0
 36 63  1  0  0  0  0
 36 74  1  0  0  0  0
 36 79  2  0  0  0  0
 37 69  1  0  0  0  0
 37 70  1  0  0  0  0
 37 80  2  0  0  0  0
 38 41  1  0  0  0  0
 39 53  1  0  0  0  0
 40 68  1  0  0  0  0
 41 43  1  0  0  0  0
 42 44  1  0  0  0  0
 42 47  1  0  0  0  0
 43 51  1  0  0  0  0
 44 54  1  0  0  0  0
 45 48  1  0  0  0  0
 45 52  1  0  0  0  0
 46 49  1  0  0  0  0
 46 52  1  0  0  0  0
 47 69  1  0  0  0  0
 48 70  1  0  0  0  0
 49 70  1  0  0  0  0
 50 54  1  0  0  0  0
 50 69  1  0  0  0  0
 51 73  1  0  0  0  0
 53 68  1  0  0  0  0
 54 67  1  0  0  0  0
 56 63  1  0  0  0  0
 57 64  1  0  0  0  0
 58 64  1  0  0  0  0
 59 64  1  0  0  0  0
 60 75  1  0  0  0  0
 61 82  1  0  0  0  0
 62 64  1  0  0  0  0
 62 74  1  0  0  0  0
 63 75  1  0  0  0  0
 65 67  1  0  0  0  0
M  CHG  1  75   1
M  ISO  4  37 100  61 101  70 100  82 101
M  END
> <Batch ID>
0177

> <Smiles>
CNC(C)C(=O)NC(C(=O)N1Cc2cc([101O:1][101CH2:1]c3nc(C4CC[100N:0]([100C:0](=O)N5CCCC(n6nc(-c7ccc(Oc8ccc(F)cc8F)cc7)c(C(N)=O)c6N)C5)CC4)ccc3C)ccc2CC1C(=O)NC1CCCc2ccccc21)C(C)(C)C

> <Shape>
0.254

> <Color>
0.073

> <Negative vol penalty>
0.000

$$$$

  -OEChem-04052322523D

 84 93  0     1  0  0  0  0  0999 V2000
  -29.4591  -23.2471   18.0455 C   0  0  0  0  0  0  0  0  0  0  0  0
  -28.2674  -23.3858   18.7498 C   0  0  0  0  0  0  0  0  0  0  0  0
  -25.7734  -14.4303   20.3069 C   0  0  0  0  0  0  0  0  0  0  0  0
  -23.5230  -14.1903   21.1525 C   0  0  0  0  0  0  0  0  0  0  0  0
  -30.5607  -24.0337   18.3797 C   0  0  0  0  0  0  0  0  0  0  0  0
  -28.1770  -24.3105   19.7896 C   0  0  0  0  0  0  0  0  0  0  0  0
  -23.8971  -27.0120   19.6201 C   0  0  0  0  0  0  0  0  0  0  0  0
  -26.0420  -13.1041   20.6451 C   0  0  0  0  0  0  0  0  0  0  0  0
  -23.7915  -12.8640   21.4907 C   0  0  0  0  0  0  0  0  0  0  0  0
  -22.7350  -26.3933   20.0790 C   0  0  0  0  0  0  0  0  0  0  0  0
  -23.9937   -9.8840   19.9097 C   0  0  0  0  0  0  0  0  0  0  0  0
  -23.0348   -8.9260   19.5808 C   0  0  0  0  0  0  0  0  0  0  0  0
  -22.9514  -27.5586   22.1801 C   0  0  0  0  0  0  0  0  0  0  0  0
  -22.8102   -8.3490   21.9161 C   0  0  0  0  0  0  0  0  0  0  0  0
  -24.5139  -14.9735   20.5607 C   0  0  0  0  0  0  0  0  0  0  0  0
  -23.7257  -16.8235   18.9909 C   0  0  0  0  0  0  0  0  0  0  0  0
  -30.4808  -24.9753   19.4177 C   0  0  0  0  0  0  0  0  0  0  0  0
  -24.6022  -27.9018   20.4432 C   0  0  0  0  0  0  0  0  0  0  0  0
  -29.2790  -25.1095   20.1389 C   0  0  0  0  0  0  0  0  0  0  0  0
  -24.1207  -28.1892   21.7284 C   0  0  0  0  0  0  0  0  0  0  0  0
  -25.0511  -12.3209   21.2369 C   0  0  0  0  0  0  0  0  0  0  0  0
  -22.2636  -26.6643   21.3602 C   0  0  0  0  0  0  0  0  0  0  0  0
  -24.3611  -10.0745   21.2418 C   0  0  0  0  0  0  0  0  0  0  0  0
  -22.4430   -8.1585   20.5840 C   0  0  0  0  0  0  0  0  0  0  0  0
  -23.7693   -9.3070   22.2450 C   0  0  0  0  0  0  0  0  0  0  0  0
  -24.2360  -16.3437   20.2121 C   0  0  0  0  0  0  0  0  0  0  0  0
  -19.2598  -24.5076   23.4674 C   0  0  0  0  0  0  0  0  0  0  0  0
  -18.3805  -23.9740   22.5511 C   0  0  0  0  0  0  0  0  0  0  0  0
  -19.0477  -21.8668   23.1382 C   0  0  0  0  0  0  0  0  0  0  0  0
  -19.9275  -22.4005   24.0539 C   0  0  0  0  0  0  0  0  0  0  0  0
  -23.6446  -18.1837   19.1634 C   0  0  0  0  0  0  0  0  0  0  0  0
  -23.3579  -16.1040   17.8066 C   0  0  0  0  0  0  0  0  0  0  0  0
  -27.5231  -27.9638   21.6954 C   0  0  0  0  0  0  0  0  0  0  0  0
  -26.6233  -30.9267   22.6620 C   0  0  0  0  0  0  0  0  0  0  0  0
  -24.0880  -33.0780   23.4304 C   0  0  0  0  0  0  0  0  0  0  0  0
  -23.1108  -21.6540   24.0135 C   0  0  0  0  0  0  0  0  0  0  0  0
  -31.7124  -25.7697   19.7736 C   0  0  0  0  0  0  0  0  0  0  0  0
  -25.8394  -28.5815   19.9236 C   0  0  0  0  0  0  0  0  0  0  0  0
  -24.8297  -29.1524   22.6438 C   0  0  0  0  0  0  0  0  0  0  0  0
  -31.4200  -26.9903   20.6425 C   0  0  0  0  0  0  0  0  0  0  0  0
  -25.6901  -21.7825   21.5625 C   0  0  0  0  0  0  0  0  0  0  0  0
  -30.4834  -26.6184   21.7876 C   0  0  0  0  0  0  0  0  0  0  0  0
  -25.5639  -20.4465   20.8283 C   0  0  0  0  0  0  0  0  0  0  0  0
  -20.6498  -26.5523   24.2211 C   0  0  0  0  0  0  0  0  0  0  0  0
  -25.3944  -21.6371   23.0536 C   0  0  0  0  0  0  0  0  0  0  0  0
  -23.9749  -19.6664   22.6353 C   0  0  0  0  0  0  0  0  0  0  0  0
  -29.1342  -26.1191   21.2569 C   0  0  1  0  0  0  0  0  0  0  0  0
  -19.3738  -25.9758   23.6464 C   0  0  1  0  0  0  0  0  0  0  0  0
  -26.7602  -29.0768   21.0345 C   0  0  1  0  0  0  0  0  0  0  0  0
  -24.2092  -19.7728   21.1187 C   0  0  2  0  0  0  0  0  0  0  0  0
  -20.3150  -26.7871   22.7766 C   0  0  1  0  0  0  0  0  0  1  0  0
  -17.5122  -24.8417   21.7059 C   0  0  0  0  0  0  0  0  0  0  0  0
  -18.9224  -20.3936   22.9481 C   0  0  0  0  0  0  0  0  0  0  0  0
  -19.9177  -28.1514   22.3194 C   0  0  0  0  0  0  0  0  0  0  0  0
  -23.6648  -35.4202   24.2255 C   0  0  0  0  0  0  0  0  0  0  0  0
  -27.4068  -30.1043   25.4939 C   0  0  0  0  0  0  0  0  0  0  0  0
  -26.1062  -32.0655   26.3485 C   0  0  0  0  0  0  0  0  0  0  0  0
  -28.0749  -32.4295   24.8604 C   0  0  0  0  0  0  0  0  0  0  0  0
  -22.6088  -33.7723   20.9628 C   0  0  0  0  0  0  0  0  0  0  0  0
  -20.7950  -21.5299   24.8973 C   0  0  0  0  0  0  0  0  0  0  0  0
  -25.9399  -31.4909   23.8841 C   0  0  1  0  0  0  0  0  0  0  0  0
  -23.8246  -34.5141   23.0147 C   0  0  2  0  0  0  0  0  0  0  0  0
  -26.8694  -31.5029   25.1304 C   0  0  0  0  0  0  0  0  0  0  0  0
  -24.4632  -17.3198   21.0950 N   0  0  0  0  0  0  0  0  0  0  0  0
  -20.0491  -23.7305   24.2352 N   0  0  0  0  0  0  0  0  0  0  0  0
  -18.2586  -22.6439   22.3701 N   0  0  0  0  0  0  0  0  0  0  0  0
  -24.0940  -18.4265   20.4280 N   0  0  0  0  0  0  0  0  0  0  0  0
  -26.0385  -29.7868   22.0924 N   0  0  0  0  0  0  0  0  0  0  0  0
  -24.0951  -20.9929   23.2604 N   0  0  0  0  0  0  0  0  0  0  0  0
  -23.2334  -19.1837   18.3552 N   0  0  0  0  0  0  0  0  0  0  0  0
  -23.5045  -14.7101   17.7990 N   0  0  0  0  0  0  0  0  0  0  0  0
  -28.3152  -27.2334   20.8302 N   0  0  0  0  0  0  0  0  0  0  0  0
  -25.4379  -32.8059   23.5005 N   0  0  0  0  0  0  0  0  0  0  0  0
  -21.9061  -20.9763   24.1557 N   0  0  0  0  0  0  0  0  0  0  0  0
  -22.5808  -34.5971   22.1980 N   0  3  0  0  0  0  0  0  0  0  0  0
  -22.9278  -16.6816   16.7795 O   0  0  0  0  0  0  0  0  0  0  0  0
  -27.4032  -27.7821   22.9014 O   0  0  0  0  0  0  0  0  0  0  0  0
  -27.6347  -31.4812   22.2245 O   0  0  0  0  0  0  0  0  0  0  0  0
  -23.1863  -32.2787   23.6726 O   0  0  0  0  0  0  0  0  0  0  0  0
  -23.2903  -22.7681   24.5170 O   0  0  0  0  0  0  0  0  0  0  0  0
  -25.3127  -11.0265   21.5669 O   0  0  0  0  0  0  0  0  0  0  0  0
  -21.1299  -26.0613   21.8108 O   0  0  0  0  0  0  0  0  0  1  0  0
  -21.5210   -7.2397   20.2681 F   0  0  0  0  0  0  0  0  0  0  0  0
  -24.1172   -9.4863   23.5267 F   0  0  0  0  0  0  0  0  0  0  0  0
  1  2  1  0  0  0  0
  1  5  2  0  0  0  0
  2  6  2  0  0  0  0
  3  8  2  0  0  0  0
  3 15  1  0  0  0  0
  4  9  1  0  0  0  0
  4 15  2  0  0  0  0
  5 17  1  0  0  0  0
  6 19  1  0  0  0  0
  7 10  2  0  0  0  0
  7 18  1  0  0  0  0
  8 21  1  0  0  0  0
  9 21  2  0  0  0  0
 10 22  1  0  0  0  0
 11 12  2  0  0  0  0
 11 23  1  0  0  0  0
 12 24  1  0  0  0  0
 13 20  1  0  0  0  0
 13 22  2  0  0  0  0
 14 24  2  0  0  0  0
 14 25  1  0  0  0  0
 15 26  1  0  0  0  0
 16 26  1  0  0  0  0
 16 31  2  0  0  0  0
 16 32  1  0  0  0  0
 17 19  2  0  0  0  0
 17 37  1  0  0  0  0
 18 20  2  0  0  0  0
 18 38  1  0  0  0  0
 19 47  1  0  0  0  0
 20 39  1  0  0  0  0
 21 81  1  0  0  0  0
 22 82  1  0  0  0  0
 23 25  2  0  0  0  0
 23 81  1  0  0  0  0
 24 83  1  0  0  0  0
 25 84  1  0  0  0  0
 26 64  2  0  0  0  0
 27 28  2  0  0  0  0
 27 48  1  0  0  0  0
 27 65  1  0  0  0  0
 28 52  1  0  0  0  0
 28 66  1  0  0  0  0
 29 30  1  0  0  0  0
 29 53  1  0  0  0  0
 29 66  2  0  0  0  0
 30 60  1  0  0  0  0
 30 65  2  0  0  0  0
 31 67  1  0  0  0  0
 31 70  1  0  0  0  0
 32 71  1  0  0  0  0
 32 76  2  0  0  0  0
 33 49  1  0  0  0  0
 33 72  1  0  0  0  0
 33 77  2  0  0  0  0
 34 61  1  0  0  0  0
 34 68  1  0  0  0  0
 34 78  2  0  0  0  0
 35 62  1  0  0  0  0
 35 73  1  0  0  0  0
 35 79  2  0  0  0  0
 36 69  1  0  0  0  0
 36 74  1  0  0  0  0
 36 80  2  0  0  0  0
 37 40  1  0  0  0  0
 38 49  1  0  0  0  0
 39 68  1  0  0  0  0
 40 42  1  0  0  0  0
 41 43  1  0  0  0  0
 41 45  1  0  0  0  0
 42 47  1  0  0  0  0
 43 50  1  0  0  0  0
 44 48  1  0  0  0  0
 44 51  1  0  0  0  0
 45 69  1  0  0  0  0
 46 50  1  0  0  0  0
 46 69  1  0  0  0  0
 47 72  1  0  0  0  0
 48 51  1  0  0  0  0
 49 68  1  0  0  0  0
 50 67  1  0  0  0  0
 51 54  1  0  0  0  0
 51 82  1  0  0  0  0
 55 62  1  0  0  0  0
 56 63  1  0  0  0  0
 57 63  1  0  0  0  0
 58 63  1  0  0  0  0
 59 75  1  0  0  0  0
 60 74  1  0  0  0  0
 61 63  1  0  0  0  0
 61 73  1  0  0  0  0
 62 75  1  0  0  0  0
 64 67  1  0  0  0  0
M  CHG  1  75   1
M  ISO  4  36 100  51 101  74 100  82 101
M  END
> <Batch ID>
0177

> <Smiles>
CNC(C)C(=O)NC(C(=O)N1Cc2cc([101O:1][101C:1]3(C)CC3c3nc(C[100NH:0][100C:0](=O)N4CCCC(n5nc(-c6ccc(Oc7ccc(F)cc7F)cc6)c(C(N)=O)c5N)C4)c(C)nc3C)ccc2CC1C(=O)NC1CCCc2ccccc21)C(C)(C)C

> <Shape>
0.257

> <Color>
0.064

> <Negative vol penalty>
0.000

$$$$

  -OEChem-04052322523D

 83 92  0     1  0  0  0  0  0999 V2000
  -30.0068  -30.1030   26.5091 C   0  0  0  0  0  0  0  0  0  0  0  0
  -29.4849  -29.2117   25.5771 C   0  0  0  0  0  0  0  0  0  0  0  0
  -24.2807   -9.6315   21.7688 C   0  0  0  0  0  0  0  0  0  0  0  0
  -24.6338  -11.0675   23.6794 C   0  0  0  0  0  0  0  0  0  0  0  0
  -29.1658  -31.0118   27.1499 C   0  0  0  0  0  0  0  0  0  0  0  0
  -28.1212  -29.2279   25.2863 C   0  0  0  0  0  0  0  0  0  0  0  0
  -27.1918  -28.9609   20.3154 C   0  0  0  0  0  0  0  0  0  0  0  0
  -23.9261   -8.5854   22.6205 C   0  0  0  0  0  0  0  0  0  0  0  0
  -24.2792  -10.0213   24.5312 C   0  0  0  0  0  0  0  0  0  0  0  0
  -27.2977  -27.7074   19.7142 C   0  0  0  0  0  0  0  0  0  0  0  0
  -21.2147   -7.6344   24.4030 C   0  0  0  0  0  0  0  0  0  0  0  0
  -20.0861   -6.8841   24.0731 C   0  0  0  0  0  0  0  0  0  0  0  0
  -24.8987  -27.4701   19.8002 C   0  0  0  0  0  0  0  0  0  0  0  0
  -21.4474   -4.8920   23.9470 C   0  0  0  0  0  0  0  0  0  0  0  0
  -24.6346  -10.8725   22.2982 C   0  0  0  0  0  0  0  0  0  0  0  0
  -24.1454  -12.9171   20.8532 C   0  0  0  0  0  0  0  0  0  0  0  0
  -27.7927  -31.0457   26.8596 C   0  0  0  0  0  0  0  0  0  0  0  0
  -25.9372  -29.4745   20.6740 C   0  0  0  0  0  0  0  0  0  0  0  0
  -27.2608  -30.1371   25.9248 C   0  0  0  0  0  0  0  0  0  0  0  0
  -24.7793  -28.7314   20.4034 C   0  0  0  0  0  0  0  0  0  0  0  0
  -23.9253   -8.7803   24.0017 C   0  0  0  0  0  0  0  0  0  0  0  0
  -26.1513  -26.9606   19.4592 C   0  0  0  0  0  0  0  0  0  0  0  0
  -22.4597   -7.0136   24.5048 C   0  0  0  0  0  0  0  0  0  0  0  0
  -20.2024   -5.5129   23.8451 C   0  0  0  0  0  0  0  0  0  0  0  0
  -22.5760   -5.6424   24.2768 C   0  0  0  0  0  0  0  0  0  0  0  0
  -25.0016  -11.9534   21.4189 C   0  0  0  0  0  0  0  0  0  0  0  0
  -24.9742  -13.7141   20.1020 C   0  0  0  0  0  0  0  0  0  0  0  0
  -22.7276  -13.0775   20.9941 C   0  0  0  0  0  0  0  0  0  0  0  0
  -24.5606  -30.3264   23.4095 C   0  0  0  0  0  0  0  0  0  0  0  0
  -22.1855  -31.3412   21.4472 C   0  0  0  0  0  0  0  0  0  0  0  0
  -20.6133  -31.0859   18.4289 C   0  0  0  0  0  0  0  0  0  0  0  0
  -29.8801  -16.5928   20.0285 C   0  0  0  0  0  0  0  0  0  0  0  0
  -26.9153  -32.0141   27.6125 C   0  0  0  0  0  0  0  0  0  0  0  0
  -25.8378  -30.8398   21.2974 C   0  0  0  0  0  0  0  0  0  0  0  0
  -23.4072  -29.2466   20.7506 C   0  0  0  0  0  0  0  0  0  0  0  0
  -25.5447  -32.2185   26.9723 C   0  0  0  0  0  0  0  0  0  0  0  0
  -29.7976  -13.1189   18.7378 C   0  0  0  0  0  0  0  0  0  0  0  0
  -24.9261  -30.8762   26.5948 C   0  0  0  0  0  0  0  0  0  0  0  0
  -28.5060  -12.5724   19.3435 C   0  0  0  0  0  0  0  0  0  0  0  0
  -29.2720  -20.0041   20.2029 C   0  0  0  0  0  0  0  0  0  0  0  0
  -27.5310  -18.8875   18.7523 C   0  0  0  0  0  0  0  0  0  0  0  0
  -26.5439  -23.0546   17.7394 C   0  0  0  0  0  0  0  0  0  0  0  0
  -30.4064  -14.2198   19.6005 C   0  0  0  0  0  0  0  0  0  0  0  0
  -29.2925  -18.7563   21.0818 C   0  0  0  0  0  0  0  0  0  0  0  0
  -27.6059  -17.6472   19.6477 C   0  0  0  0  0  0  0  0  0  0  0  0
  -28.1752  -14.7916   20.5044 C   0  0  0  0  0  0  0  0  0  0  0  0
  -28.3378  -22.6224   19.2431 C   0  0  0  0  0  0  0  0  0  0  0  0
  -25.7910  -30.1406   25.5642 C   0  0  1  0  0  0  0  0  0  0  0  0
  -24.5495  -31.0429   22.0889 C   0  0  1  0  0  0  0  0  0  0  0  0
  -27.1103  -23.5065   19.0774 C   0  0  1  0  0  0  0  0  0  0  0  0
  -27.5138  -13.7111   19.6357 C   0  0  2  0  0  0  0  0  0  0  0  0
  -27.9107  -20.1484   19.5257 C   0  0  0  0  0  0  0  0  0  0  0  0
  -26.6468  -21.5376   17.8316 C   0  0  1  0  0  0  0  0  0  0  0  0
  -26.6850  -20.8460   16.4813 C   0  0  0  0  0  0  0  0  0  0  0  0
  -18.6787  -32.0179   17.1304 C   0  0  0  0  0  0  0  0  0  0  0  0
  -20.2600  -29.6621   23.1154 C   0  0  0  0  0  0  0  0  0  0  0  0
  -18.5902  -29.8600   21.2604 C   0  0  0  0  0  0  0  0  0  0  0  0
  -19.3793  -31.9061   22.4495 C   0  0  0  0  0  0  0  0  0  0  0  0
  -22.3913  -32.1293   16.3054 C   0  0  0  0  0  0  0  0  0  0  0  0
  -27.4374  -24.9889   19.1208 C   0  0  0  0  0  0  0  0  0  1  0  0
  -20.9436  -30.7156   20.8596 C   0  0  1  0  0  0  0  0  0  0  0  0
  -20.1636  -32.1415   17.4349 C   0  0  2  0  0  0  0  0  0  0  0  0
  -19.8191  -30.5251   21.9163 C   0  0  0  0  0  0  0  0  0  0  0  0
  -26.2766  -12.1210   21.0579 N   0  0  0  0  0  0  0  0  0  0  0  0
  -26.2276  -13.1992   20.2572 N   0  0  0  0  0  0  0  0  0  0  0  0
  -23.3626  -30.5841   21.3642 N   0  0  0  0  0  0  0  0  0  0  0  0
  -29.4313  -15.2672   19.9047 N   0  0  0  0  0  0  0  0  0  0  0  0
  -28.9121  -17.5663   20.3182 N   0  0  0  0  0  0  0  0  0  0  0  0
  -24.7459  -14.7980   19.3305 N   0  0  0  0  0  0  0  0  0  0  0  0
  -22.0298  -12.1708   21.8036 N   0  0  0  0  0  0  0  0  0  0  0  0
  -25.5944  -30.7034   24.2455 N   0  0  0  0  0  0  0  0  0  0  0  0
  -20.5628  -31.5512   19.7259 N   0  0  0  0  0  0  0  0  0  0  0  0
  -27.9554  -21.2991   18.5867 N   0  3  1  0  0  0  0  0  0  0  0  0
  -20.9184  -32.0049   16.1572 N   0  3  0  0  0  0  0  0  0  0  0  0
  -22.0958  -13.9877   20.4061 O   0  0  0  0  0  0  0  0  0  0  0  0
  -23.6946  -29.4942   23.6528 O   0  0  0  0  0  0  0  0  0  0  0  0
  -22.1152  -32.4634   21.9545 O   0  0  0  0  0  0  0  0  0  0  0  0
  -20.9700  -29.9600   18.0890 O   0  0  0  0  0  0  0  0  0  0  0  0
  -31.0735  -16.8873   19.8863 O   0  0  0  0  0  0  0  0  0  0  0  0
  -23.5791   -7.7598   24.8331 O   0  0  0  0  0  0  0  0  0  0  0  0
  -26.2528  -25.7264   18.8683 O   0  0  0  0  0  0  0  0  0  1  0  0
  -19.1183   -4.7922   23.5298 F   0  0  0  0  0  0  0  0  0  0  0  0
  -23.7692   -5.0402   24.3744 F   0  0  0  0  0  0  0  0  0  0  0  0
  1  2  1  0  0  0  0
  1  5  2  0  0  0  0
  2  6  2  0  0  0  0
  3  8  2  0  0  0  0
  3 15  1  0  0  0  0
  4  9  1  0  0  0  0
  4 15  2  0  0  0  0
  5 17  1  0  0  0  0
  6 19  1  0  0  0  0
  7 10  2  0  0  0  0
  7 18  1  0  0  0  0
  8 21  1  0  0  0  0
  9 21  2  0  0  0  0
 10 22  1  0  0  0  0
 11 12  2  0  0  0  0
 11 23  1  0  0  0  0
 12 24  1  0  0  0  0
 13 20  1  0  0  0  0
 13 22  2  0  0  0  0
 14 24  2  0  0  0  0
 14 25  1  0  0  0  0
 15 26  1  0  0  0  0
 16 26  1  0  0  0  0
 16 27  2  0  0  0  0
 16 28  1  0  0  0  0
 17 19  2  0  0  0  0
 17 33  1  0  0  0  0
 18 20  2  0  0  0  0
 18 34  1  0  0  0  0
 19 48  1  0  0  0  0
 20 35  1  0  0  0  0
 21 80  1  0  0  0  0
 22 81  1  0  0  0  0
 23 25  2  0  0  0  0
 23 80  1  0  0  0  0
 24 82  1  0  0  0  0
 25 83  1  0  0  0  0
 26 64  2  0  0  0  0
 27 65  1  0  0  0  0
 27 69  1  0  0  0  0
 28 70  1  0  0  0  0
 28 75  2  0  0  0  0
 29 49  1  0  0  0  0
 29 71  1  0  0  0  0
 29 76  2  0  0  0  0
 30 61  1  0  0  0  0
 30 66  1  0  0  0  0
 30 77  2  0  0  0  0
 31 62  1  0  0  0  0
 31 72  1  0  0  0  0
 31 78  2  0  0  0  0
 32 67  1  0  0  0  0
 32 68  1  0  0  0  0
 32 79  2  0  0  0  0
 33 36  1  0  0  0  0
 34 49  1  0  0  0  0
 35 66  1  0  0  0  0
 36 38  1  0  0  0  0
 37 39  1  0  0  0  0
 37 43  1  0  0  0  0
 38 48  1  0  0  0  0
 39 51  1  0  0  0  0
 40 44  1  0  0  0  0
 40 52  1  0  0  0  0
 41 45  1  0  0  0  0
 41 52  1  0  0  0  0
 42 50  1  0  0  0  0
 42 53  1  0  0  0  0
 43 67  1  0  0  0  0
 44 68  1  0  0  0  0
 45 68  1  0  0  0  0
 46 51  1  0  0  0  0
 46 67  1  0  0  0  0
 47 50  1  0  0  0  0
 47 73  1  0  0  0  0
 48 71  1  0  0  0  0
 49 66  1  0  0  0  0
 50 60  1  0  0  0  0
 51 65  1  0  0  0  0
 52 73  1  0  0  0  0
 53 54  1  0  0  0  0
 53 73  1  0  0  0  0
 55 62  1  0  0  0  0
 56 63  1  0  0  0  0
 57 63  1  0  0  0  0
 58 63  1  0  0  0  0
 59 74  1  0  0  0  0
 60 81  1  0  0  0  0
 61 63  1  0  0  0  0
 61 72  1  0  0  0  0
 62 74  1  0  0  0  0
 64 65  1  0  0  0  0
M  CHG  2  73   1  74   1
M  ISO  4  32 100  60 101  68 100  81 101
M  END
> <Batch ID>
0177

> <Smiles>
CNC(C)C(=O)NC(C(=O)N1Cc2cc([101O:1][101CH2:1]C3CC(C)N(C4CC[100N:0]([100C:0](=O)N5CCCC(n6nc(-c7ccc(Oc8ccc(F)cc8F)cc7)c(C(N)=O)c6N)C5)CC4)C3)ccc2CC1C(=O)NC1CCCc2ccccc21)C(C)(C)C

> <Shape>
0.307

> <Color>
0.130

> <Negative vol penalty>
0.000

$$$$

  -OEChem-04052322523D

 84 93  0     1  0  0  0  0  0999 V2000
  -22.0382  -28.1174   22.5689 C   0  0  0  0  0  0  0  0  0  0  0  0
  -22.9620  -27.0903   22.4049 C   0  0  0  0  0  0  0  0  0  0  0  0
  -23.0255   -9.8658   19.9621 C   0  0  0  0  0  0  0  0  0  0  0  0
  -23.7733   -9.8900   22.2594 C   0  0  0  0  0  0  0  0  0  0  0  0
  -22.3452  -29.4057   22.1332 C   0  0  0  0  0  0  0  0  0  0  0  0
  -24.1931  -27.3506   21.8040 C   0  0  0  0  0  0  0  0  0  0  0  0
  -28.0566  -25.2153   24.2855 C   0  0  0  0  0  0  0  0  0  0  0  0
  -22.2781   -8.7162   20.2175 C   0  0  0  0  0  0  0  0  0  0  0  0
  -23.0258   -8.7404   22.5148 C   0  0  0  0  0  0  0  0  0  0  0  0
  -28.2598  -23.8494   24.0933 C   0  0  0  0  0  0  0  0  0  0  0  0
  -23.3131   -5.4134   21.9861 C   0  0  0  0  0  0  0  0  0  0  0  0
  -23.9227   -4.3928   22.7156 C   0  0  0  0  0  0  0  0  0  0  0  0
  -30.0230  -24.3392   22.5214 C   0  0  0  0  0  0  0  0  0  0  0  0
  -29.7027  -17.7194   22.7146 C   0  0  0  0  0  0  0  0  0  0  0  0
  -22.2127   -4.5836   24.4116 C   0  0  0  0  0  0  0  0  0  0  0  0
  -23.7732  -10.4527   20.9830 C   0  0  0  0  0  0  0  0  0  0  0  0
  -24.1206  -12.9761   20.8443 C   0  0  0  0  0  0  0  0  0  0  0  0
  -23.5845  -29.6841   21.5353 C   0  0  0  0  0  0  0  0  0  0  0  0
  -28.8290  -26.1550   23.5878 C   0  0  0  0  0  0  0  0  0  0  0  0
  -24.5164  -28.6436   21.3586 C   0  0  0  0  0  0  0  0  0  0  0  0
  -29.8293  -25.7163   22.7086 C   0  0  0  0  0  0  0  0  0  0  0  0
  -30.1521  -18.9742   23.1562 C   0  0  0  0  0  0  0  0  0  0  0  0
  -31.4450  -19.3780   22.7776 C   0  0  0  0  0  0  0  0  0  0  0  0
  -22.2782   -8.1535   21.4938 C   0  0  0  0  0  0  0  0  0  0  0  0
  -29.2411  -23.4112   23.2089 C   0  0  0  0  0  0  0  0  0  0  0  0
  -22.1532   -6.0192   22.4693 C   0  0  0  0  0  0  0  0  0  0  0  0
  -23.3726   -3.9779   23.9284 C   0  0  0  0  0  0  0  0  0  0  0  0
  -21.6030   -5.6043   23.6821 C   0  0  0  0  0  0  0  0  0  0  0  0
  -24.5460  -11.6400   20.7197 C   0  0  0  0  0  0  0  0  0  0  0  0
  -32.1824  -18.5246   21.9544 C   0  0  0  0  0  0  0  0  0  0  0  0
  -30.5266  -16.9485   21.9083 C   0  0  0  0  0  0  0  0  0  0  0  0
  -25.2162  -13.7205   20.4807 C   0  0  0  0  0  0  0  0  0  0  0  0
  -22.8490  -13.4978   21.2522 C   0  0  0  0  0  0  0  0  0  0  0  0
  -28.2044  -28.4512   21.4806 C   0  0  0  0  0  0  0  0  0  0  0  0
  -31.3561  -29.1187   21.8593 C   0  0  0  0  0  0  0  0  0  0  0  0
  -34.4663  -28.0177   22.7320 C   0  0  0  0  0  0  0  0  0  0  0  0
  -30.6834  -14.7569   20.6759 C   0  0  0  0  0  0  0  0  0  0  0  0
  -23.8525  -31.0823   21.0374 C   0  0  0  0  0  0  0  0  0  0  0  0
  -28.6155  -27.6246   23.8265 C   0  0  0  0  0  0  0  0  0  0  0  0
  -32.0431  -20.6996   23.1697 C   0  0  0  0  0  0  0  0  0  0  0  0
  -30.6992  -26.6844   21.9506 C   0  0  0  0  0  0  0  0  0  0  0  0
  -25.3268  -31.3542   20.7499 C   0  0  0  0  0  0  0  0  0  0  0  0
  -31.3244  -21.3648   24.3379 C   0  0  0  0  0  0  0  0  0  0  0  0
  -29.5768  -12.3260   18.3214 C   0  0  0  0  0  0  0  0  0  0  0  0
  -25.9349  -30.2075   19.9486 C   0  0  0  0  0  0  0  0  0  0  0  0
  -28.1343  -12.0408   18.7457 C   0  0  0  0  0  0  0  0  0  0  0  0
  -30.4860  -12.5629   19.5260 C   0  0  0  0  0  0  0  0  0  0  0  0
  -28.5732  -13.3023   20.8912 C   0  0  0  0  0  0  0  0  0  0  0  0
  -25.8722  -28.8918   20.7338 C   0  0  1  0  0  0  0  0  0  0  0  0
  -29.1128  -28.4951   22.6766 C   0  0  1  0  0  0  0  0  0  0  0  0
  -27.6062  -13.1213   19.7097 C   0  0  2  0  0  0  0  0  0  0  0  0
  -29.8089  -21.3057   24.1646 C   0  0  2  0  0  0  0  0  0  1  0  0
  -29.2748  -19.8432   24.0692 C   0  0  0  0  0  0  0  0  0  0  0  0
  -33.5477  -18.9081   21.4784 C   0  0  0  0  0  0  0  0  0  0  0  0
  -27.8071  -19.8851   23.5807 C   0  0  0  0  0  0  0  0  0  0  0  0
  -29.2927  -19.2074   25.4799 C   0  0  0  0  0  0  0  0  0  0  0  0
  -36.8503  -28.7821   22.9034 C   0  0  0  0  0  0  0  0  0  0  0  0
  -31.6323  -28.9294   18.8265 C   0  0  0  0  0  0  0  0  0  0  0  0
  -34.1106  -28.7496   19.1332 C   0  0  0  0  0  0  0  0  0  0  0  0
  -32.9097  -30.8063   19.8752 C   0  0  0  0  0  0  0  0  0  0  0  0
  -34.5432  -27.5040   25.6456 C   0  0  0  0  0  0  0  0  0  0  0  0
  -32.6325  -28.6660   21.1921 C   0  0  1  0  0  0  0  0  0  0  0  0
  -35.5288  -28.6145   23.6372 C   0  0  2  0  0  0  0  0  0  0  0  0
  -32.8037  -29.2694   19.7694 C   0  0  0  0  0  0  0  0  0  0  0  0
  -25.8128  -11.5383   20.3089 N   0  0  0  0  0  0  0  0  0  0  0  0
  -31.7575  -17.3225   21.5116 N   0  0  0  0  0  0  0  0  0  0  0  0
  -26.1929  -12.8200   20.1721 N   0  0  0  0  0  0  0  0  0  0  0  0
  -30.4477  -28.1111   22.2133 N   0  0  0  0  0  0  0  0  0  0  0  0
  -29.9244  -13.6019   20.3920 N   0  0  0  0  0  0  0  0  0  0  0  0
  -25.4296  -15.0509   20.3980 N   0  0  0  0  0  0  0  0  0  0  0  0
  -21.8335  -12.5934   21.5915 N   0  0  0  0  0  0  0  0  0  0  0  0
  -30.0336  -15.6899   21.4833 N   0  0  0  0  0  0  0  0  0  0  0  0
  -26.9092  -28.8554   21.7426 N   0  0  0  0  0  0  0  0  0  0  0  0
  -33.7139  -28.9945   22.1146 N   0  0  0  0  0  0  0  0  0  0  0  0
  -35.7557  -27.7356   24.8191 N   0  3  0  0  0  0  0  0  0  0  0  0
  -22.6149  -14.7293   21.2983 O   0  0  0  0  0  0  0  0  0  0  0  0
  -28.6462  -28.0797   20.3996 O   0  0  0  0  0  0  0  0  0  0  0  0
  -31.1751  -30.3213   22.0653 O   0  0  0  0  0  0  0  0  0  0  0  0
  -34.3208  -26.8063   22.5844 O   0  0  0  0  0  0  0  0  0  0  0  0
  -31.8153  -14.9197   20.2129 O   0  0  0  0  0  0  0  0  0  0  0  0
  -21.5487   -7.0318   21.7435 O   0  0  0  0  0  0  0  0  0  0  0  0
  -29.4411  -22.0786   23.0189 O   0  0  0  0  0  0  0  0  0  1  0  0
  -23.9573   -2.9967   24.6281 F   0  0  0  0  0  0  0  0  0  0  0  0
  -20.4883   -6.1817   24.1509 F   0  0  0  0  0  0  0  0  0  0  0  0
  1  2  1  0  0  0  0
  1  5  2  0  0  0  0
  2  6  2  0  0  0  0
  3  8  2  0  0  0  0
  3 16  1  0  0  0  0
  4  9  1  0  0  0  0
  4 16  2  0  0  0  0
  5 18  1  0  0  0  0
  6 20  1  0  0  0  0
  7 10  2  0  0  0  0
  7 19  1  0  0  0  0
  8 24  1  0  0  0  0
  9 24  2  0  0  0  0
 10 25  1  0  0  0  0
 11 12  2  0  0  0  0
 11 26  1  0  0  0  0
 12 27  1  0  0  0  0
 13 21  1  0  0  0  0
 13 25  2  0  0  0  0
 14 22  2  0  0  0  0
 14 31  1  0  0  0  0
 15 27  2  0  0  0  0
 15 28  1  0  0  0  0
 16 29  1  0  0  0  0
 17 29  1  0  0  0  0
 17 32  2  0  0  0  0
 17 33  1  0  0  0  0
 18 20  2  0  0  0  0
 18 38  1  0  0  0  0
 19 21  2  0  0  0  0
 19 39  1  0  0  0  0
 20 49  1  0  0  0  0
 21 41  1  0  0  0  0
 22 23  1  0  0  0  0
 22 53  1  0  0  0  0
 23 30  2  0  0  0  0
 23 40  1  0  0  0  0
 24 81  1  0  0  0  0
 25 82  1  0  0  0  0
 26 28  2  0  0  0  0
 26 81  1  0  0  0  0
 27 83  1  0  0  0  0
 28 84  1  0  0  0  0
 29 65  2  0  0  0  0
 30 54  1  0  0  0  0
 30 66  1  0  0  0  0
 31 66  2  0  0  0  0
 31 72  1  0  0  0  0
 32 67  1  0  0  0  0
 32 70  1  0  0  0  0
 33 71  1  0  0  0  0
 33 76  2  0  0  0  0
 34 50  1  0  0  0  0
 34 73  1  0  0  0  0
 34 77  2  0  0  0  0
 35 62  1  0  0  0  0
 35 68  1  0  0  0  0
 35 78  2  0  0  0  0
 36 63  1  0  0  0  0
 36 74  1  0  0  0  0
 36 79  2  0  0  0  0
 37 69  1  0  0  0  0
 37 72  1  0  0  0  0
 37 80  2  0  0  0  0
 38 42  1  0  0  0  0
 39 50  1  0  0  0  0
 40 43  1  0  0  0  0
 41 68  1  0  0  0  0
 42 45  1  0  0  0  0
 43 52  1  0  0  0  0
 44 46  1  0  0  0  0
 44 47  1  0  0  0  0
 45 49  1  0  0  0  0
 46 51  1  0  0  0  0
 47 69  1  0  0  0  0
 48 51  1  0  0  0  0
 48 69  1  0  0  0  0
 49 73  1  0  0  0  0
 50 68  1  0  0  0  0
 51 67  1  0  0  0  0
 52 53  1  0  0  0  0
 52 82  1  0  0  0  0
 53 55  1  0  0  0  0
 53 56  1  0  0  0  0
 57 63  1  0  0  0  0
 58 64  1  0  0  0  0
 59 64  1  0  0  0  0
 60 64  1  0  0  0  0
 61 75  1  0  0  0  0
 62 64  1  0  0  0  0
 62 74  1  0  0  0  0
 63 75  1  0  0  0  0
 65 67  1  0  0  0  0
M  CHG  1  75   1
M  ISO  4  37 100  52 101  72 100  82 101
M  END
> <Batch ID>
0177

> <Smiles>
CNC(C)C(=O)NC(C(=O)N1Cc2cc([101O:1][101CH:1]3CCc4c(cc([100NH:0][100C:0](=O)N5CCCC(n6nc(-c7ccc(Oc8ccc(F)cc8F)cc7)c(C(N)=O)c6N)C5)nc4C)C3(C)C)ccc2CC1C(=O)NC1CCCc2ccccc21)C(C)(C)C

> <Shape>
0.262

> <Color>
0.221

> <Negative vol penalty>
0.000

$$$$

  -OEChem-04052322523D

 83 92  0     1  0  0  0  0  0999 V2000
  -24.7630  -32.4656   23.9356 C   0  0  0  0  0  0  0  0  0  0  0  0
  -24.4605  -31.2640   24.5681 C   0  0  0  0  0  0  0  0  0  0  0  0
  -34.3974  -16.8606   19.5771 C   0  0  0  0  0  0  0  0  0  0  0  0
  -32.6003  -18.2558   18.7640 C   0  0  0  0  0  0  0  0  0  0  0  0
  -24.9309  -32.5008   22.5520 C   0  0  0  0  0  0  0  0  0  0  0  0
  -24.3246  -30.0970   23.8170 C   0  0  0  0  0  0  0  0  0  0  0  0
  -25.4314  -23.0315   24.2301 C   0  0  0  0  0  0  0  0  0  0  0  0
  -21.1023  -17.1273   21.6401 C   0  0  0  0  0  0  0  0  0  0  0  0
  -35.3095  -17.5921   18.8165 C   0  0  0  0  0  0  0  0  0  0  0  0
  -33.5124  -18.9874   18.0034 C   0  0  0  0  0  0  0  0  0  0  0  0
  -24.7621  -21.8235   24.0392 C   0  0  0  0  0  0  0  0  0  0  0  0
  -35.1640  -18.6333   15.0745 C   0  0  0  0  0  0  0  0  0  0  0  0
  -34.8180  -18.9295   13.7562 C   0  0  0  0  0  0  0  0  0  0  0  0
  -21.7400  -15.9983   21.1382 C   0  0  0  0  0  0  0  0  0  0  0  0
  -25.1524  -21.9894   21.6645 C   0  0  0  0  0  0  0  0  0  0  0  0
  -34.9697  -21.2903   14.2470 C   0  0  0  0  0  0  0  0  0  0  0  0
  -33.0428  -17.1924   19.5508 C   0  0  0  0  0  0  0  0  0  0  0  0
  -31.6989  -16.6927   21.6608 C   0  0  0  0  0  0  0  0  0  0  0  0
  -24.8065  -31.3318   21.7847 C   0  0  0  0  0  0  0  0  0  0  0  0
  -25.9577  -23.7342   23.1365 C   0  0  0  0  0  0  0  0  0  0  0  0
  -24.4897  -30.1168   22.4217 C   0  0  0  0  0  0  0  0  0  0  0  0
  -25.8302  -23.2048   21.8444 C   0  0  0  0  0  0  0  0  0  0  0  0
  -21.7788  -18.3414   21.6794 C   0  0  0  0  0  0  0  0  0  0  0  0
  -34.8670  -18.6555   18.0297 C   0  0  0  0  0  0  0  0  0  0  0  0
  -24.6200  -21.3037   22.7560 C   0  0  0  0  0  0  0  0  0  0  0  0
  -35.4127  -19.6655   15.9792 C   0  0  0  0  0  0  0  0  0  0  0  0
  -34.7209  -20.2580   13.3424 C   0  0  0  0  0  0  0  0  0  0  0  0
  -35.3156  -20.9940   15.5654 C   0  0  0  0  0  0  0  0  0  0  0  0
  -32.1000  -16.4368   20.3359 C   0  0  0  0  0  0  0  0  0  0  0  0
  -23.0445  -16.1350   20.6915 C   0  0  0  0  0  0  0  0  0  0  0  0
  -23.0816  -18.3732   21.2087 C   0  0  0  0  0  0  0  0  0  0  0  0
  -30.7963  -15.6971   21.9447 C   0  0  0  0  0  0  0  0  0  0  0  0
  -32.1057  -17.7371   22.5549 C   0  0  0  0  0  0  0  0  0  0  0  0
  -25.4375  -26.5922   21.8462 C   0  0  0  0  0  0  0  0  0  0  0  0
  -27.9592  -25.7751   19.9765 C   0  0  0  0  0  0  0  0  0  0  0  0
  -29.8740  -23.3005   18.6138 C   0  0  0  0  0  0  0  0  0  0  0  0
  -26.3474  -12.6285   20.3214 C   0  0  0  0  0  0  0  0  0  0  0  0
  -24.9502  -31.4282   20.2865 C   0  0  0  0  0  0  0  0  0  0  0  0
  -26.7003  -25.0226   23.3621 C   0  0  0  0  0  0  0  0  0  0  0  0
  -26.3947  -23.9101   20.6392 C   0  0  0  0  0  0  0  0  0  0  0  0
  -25.1589  -30.0775   19.6065 C   0  0  0  0  0  0  0  0  0  0  0  0
  -29.6385  -11.4725   19.4593 C   0  0  0  0  0  0  0  0  0  0  0  0
  -24.1640  -29.0518   20.1401 C   0  0  0  0  0  0  0  0  0  0  0  0
  -30.5325  -12.6910   19.6652 C   0  0  0  0  0  0  0  0  0  0  0  0
  -28.2628  -11.8866   18.9541 C   0  0  0  0  0  0  0  0  0  0  0  0
  -28.4417  -14.0741   20.1101 C   0  0  0  0  0  0  0  0  0  0  0  0
  -24.1345  -13.6908   21.0175 C   0  0  0  0  0  0  0  0  0  0  0  0
  -25.4415  -15.0701   20.0609 C   0  0  0  0  0  0  0  0  0  0  0  0
  -24.3586  -28.8251   21.6442 C   0  0  1  0  0  0  0  0  0  0  0  0
  -26.7475  -25.9099   22.1220 C   0  0  1  0  0  0  0  0  0  0  0  0
  -29.8551  -13.7025   20.6008 C   0  0  2  0  0  0  0  0  0  0  0  0
  -23.8918  -14.9169   20.0914 C   0  0  0  0  0  0  0  0  0  0  0  0
  -21.1007  -19.5543   22.2159 C   0  0  0  0  0  0  0  0  0  0  0  0
  -23.3067  -14.5226   18.7258 C   0  0  0  0  0  0  0  0  0  0  0  0
  -31.8410  -22.9408   17.0977 C   0  0  0  0  0  0  0  0  0  0  0  0
  -26.2034  -26.3870   17.5573 C   0  0  0  0  0  0  0  0  0  0  0  0
  -27.8412  -25.1324   16.1388 C   0  0  0  0  0  0  0  0  0  0  0  0
  -28.5659  -27.1835   17.3598 C   0  0  0  0  0  0  0  0  0  0  0  0
  -31.4277  -21.9716   20.7537 C   0  0  0  0  0  0  0  0  0  0  0  0
  -23.8568  -19.6498   21.2268 C   0  0  0  0  0  0  0  0  0  1  0  0
  -28.1248  -25.0591   18.6578 C   0  0  1  0  0  0  0  0  0  0  0  0
  -31.3791  -23.1191   18.5356 C   0  0  2  0  0  0  0  0  0  0  0  0
  -27.6714  -25.9279   17.4507 C   0  0  0  0  0  0  0  0  0  0  0  0
  -31.5014  -15.3627   19.8143 N   0  0  0  0  0  0  0  0  0  0  0  0
  -23.7342  -17.2975   20.7140 N   0  0  0  0  0  0  0  0  0  0  0  0
  -30.7151  -14.9348   20.8166 N   0  0  0  0  0  0  0  0  0  0  0  0
  -27.1068  -25.1697   20.9107 N   0  0  0  0  0  0  0  0  0  0  0  0
  -27.6317  -12.8812   19.8268 N   0  0  0  0  0  0  0  0  0  0  0  0
  -25.5135  -13.7000   20.5424 N   0  0  0  0  0  0  0  0  0  0  0  0
  -30.0723  -15.4080   23.0468 N   0  0  0  0  0  0  0  0  0  0  0  0
  -33.0414  -18.6773   22.1023 N   0  0  0  0  0  0  0  0  0  0  0  0
  -25.5030  -27.9719   21.8828 N   0  0  0  0  0  0  0  0  0  0  0  0
  -29.5186  -24.6327   18.5970 N   0  0  0  0  0  0  0  0  0  0  0  0
  -31.7975  -21.9202   19.3158 N   0  3  0  0  0  0  0  0  0  0  0  0
  -31.6652  -17.8241   23.7262 O   0  0  0  0  0  0  0  0  0  0  0  0
  -24.4413  -25.9167   21.6157 O   0  0  0  0  0  0  0  0  0  0  0  0
  -28.5695  -26.8289   20.1732 O   0  0  0  0  0  0  0  0  0  0  0  0
  -29.0916  -22.3550   18.6793 O   0  0  0  0  0  0  0  0  0  0  0  0
  -25.9431  -11.4772   20.5314 O   0  0  0  0  0  0  0  0  0  0  0  0
  -35.7568  -19.3697   17.2875 O   0  0  0  0  0  0  0  0  0  0  0  0
  -23.9619  -20.1167   22.5654 O   0  0  0  0  0  0  0  0  0  1  0  0
  -34.3901  -20.5424   12.0759 F   0  0  0  0  0  0  0  0  0  0  0  0
  -35.5545  -21.9899   16.4296 F   0  0  0  0  0  0  0  0  0  0  0  0
  1  2  1  0  0  0  0
  1  5  2  0  0  0  0
  2  6  2  0  0  0  0
  3  9  2  0  0  0  0
  3 17  1  0  0  0  0
  4 10  1  0  0  0  0
  4 17  2  0  0  0  0
  5 19  1  0  0  0  0
  6 21  1  0  0  0  0
  7 11  2  0  0  0  0
  7 20  1  0  0  0  0
  8 14  2  0  0  0  0
  8 23  1  0  0  0  0
  9 24  1  0  0  0  0
 10 24  2  0  0  0  0
 11 25  1  0  0  0  0
 12 13  2  0  0  0  0
 12 26  1  0  0  0  0
 13 27  1  0  0  0  0
 14 30  1  0  0  0  0
 15 22  1  0  0  0  0
 15 25  2  0  0  0  0
 16 27  2  0  0  0  0
 16 28  1  0  0  0  0
 17 29  1  0  0  0  0
 18 29  1  0  0  0  0
 18 32  2  0  0  0  0
 18 33  1  0  0  0  0
 19 21  2  0  0  0  0
 19 38  1  0  0  0  0
 20 22  2  0  0  0  0
 20 39  1  0  0  0  0
 21 49  1  0  0  0  0
 22 40  1  0  0  0  0
 23 31  2  0  0  0  0
 23 53  1  0  0  0  0
 24 80  1  0  0  0  0
 25 81  1  0  0  0  0
 26 28  2  0  0  0  0
 26 80  1  0  0  0  0
 27 82  1  0  0  0  0
 28 83  1  0  0  0  0
 29 64  2  0  0  0  0
 30 52  1  0  0  0  0
 30 65  2  0  0  0  0
 31 60  1  0  0  0  0
 31 65  1  0  0  0  0
 32 66  1  0  0  0  0
 32 70  1  0  0  0  0
 33 71  1  0  0  0  0
 33 75  2  0  0  0  0
 34 50  1  0  0  0  0
 34 72  1  0  0  0  0
 34 76  2  0  0  0  0
 35 61  1  0  0  0  0
 35 67  1  0  0  0  0
 35 77  2  0  0  0  0
 36 62  1  0  0  0  0
 36 73  1  0  0  0  0
 36 78  2  0  0  0  0
 37 68  1  0  0  0  0
 37 69  1  0  0  0  0
 37 79  2  0  0  0  0
 38 41  1  0  0  0  0
 39 50  1  0  0  0  0
 40 67  1  0  0  0  0
 41 43  1  0  0  0  0
 42 44  1  0  0  0  0
 42 45  1  0  0  0  0
 43 49  1  0  0  0  0
 44 51  1  0  0  0  0
 45 68  1  0  0  0  0
 46 51  1  0  0  0  0
 46 68  1  0  0  0  0
 47 52  1  0  0  0  0
 47 69  1  0  0  0  0
 48 52  1  0  0  0  0
 48 69  1  0  0  0  0
 49 72  1  0  0  0  0
 50 67  1  0  0  0  0
 51 66  1  0  0  0  0
 52 54  1  0  0  0  0
 55 62  1  0  0  0  0
 56 63  1  0  0  0  0
 57 63  1  0  0  0  0
 58 63  1  0  0  0  0
 59 74  1  0  0  0  0
 60 81  1  0  0  0  0
 61 63  1  0  0  0  0
 61 73  1  0  0  0  0
 62 74  1  0  0  0  0
 64 66  1  0  0  0  0
M  CHG  1  74   1
M  ISO  4  37 100  60 101  69 100  81 101
M  END
> <Batch ID>
0177

> <Smiles>
CNC(C)C(=O)NC(C(=O)N1Cc2cc([101O:1][101CH2:1]c3nc(C4(C)C[100N:0]([100C:0](=O)N5CCCC(n6nc(-c7ccc(Oc8ccc(F)cc8F)cc7)c(C(N)=O)c6N)C5)C4)ccc3C)ccc2CC1C(=O)NC1CCCc2ccccc21)C(C)(C)C

> <Shape>
0.189

> <Color>
0.102

> <Negative vol penalty>
0.000

$$$$

  -OEChem-04052322523D

 85 94  0     1  0  0  0  0  0999 V2000
  -16.7698  -24.9453   22.7429 C   0  0  0  0  0  0  0  0  0  0  0  0
  -16.6691  -23.5895   22.4476 C   0  0  0  0  0  0  0  0  0  0  0  0
  -28.2154  -26.4909   17.9355 C   0  0  0  0  0  0  0  0  0  0  0  0
  -27.0055  -25.6869   19.8660 C   0  0  0  0  0  0  0  0  0  0  0  0
  -17.9949  -25.5974   22.6097 C   0  0  0  0  0  0  0  0  0  0  0  0
  -17.7933  -22.8853   22.0179 C   0  0  0  0  0  0  0  0  0  0  0  0
  -20.7749  -16.3809   22.3620 C   0  0  0  0  0  0  0  0  0  0  0  0
  -27.3773  -27.6041   17.8738 C   0  0  0  0  0  0  0  0  0  0  0  0
  -26.1673  -26.8002   19.8043 C   0  0  0  0  0  0  0  0  0  0  0  0
  -21.3004  -15.3916   21.5319 C   0  0  0  0  0  0  0  0  0  0  0  0
  -26.2915  -30.0611   20.6825 C   0  0  0  0  0  0  0  0  0  0  0  0
  -26.0105  -30.7258   21.8761 C   0  0  0  0  0  0  0  0  0  0  0  0
  -23.3824  -16.6044   21.4147 C   0  0  0  0  0  0  0  0  0  0  0  0
  -29.1882  -14.4496   21.3062 C   0  0  0  0  0  0  0  0  0  0  0  0
  -23.6559  -30.2789   21.5707 C   0  0  0  0  0  0  0  0  0  0  0  0
  -28.0295  -25.5322   18.9316 C   0  0  0  0  0  0  0  0  0  0  0  0
  -30.1045  -24.2663   19.7060 C   0  0  0  0  0  0  0  0  0  0  0  0
  -19.1369  -24.8986   22.1875 C   0  0  0  0  0  0  0  0  0  0  0  0
  -21.5469  -17.4966   22.7164 C   0  0  0  0  0  0  0  0  0  0  0  0
  -19.0346  -23.5290   21.8777 C   0  0  0  0  0  0  0  0  0  0  0  0
  -22.8653  -17.6051   22.2515 C   0  0  0  0  0  0  0  0  0  0  0  0
  -28.1025  -13.6331   21.7081 C   0  0  0  0  0  0  0  0  0  0  0  0
  -26.3533  -27.7588   18.8082 C   0  0  0  0  0  0  0  0  0  0  0  0
  -22.6033  -15.5047   21.0557 C   0  0  0  0  0  0  0  0  0  0  0  0
  -25.2547  -29.5053   19.9329 C   0  0  0  0  0  0  0  0  0  0  0  0
  -24.6927  -30.8347   22.3203 C   0  0  0  0  0  0  0  0  0  0  0  0
  -23.9369  -29.6142   20.3770 C   0  0  0  0  0  0  0  0  0  0  0  0
  -28.8946  -24.3818   18.9955 C   0  0  0  0  0  0  0  0  0  0  0  0
  -27.4650  -13.2043   20.5648 C   0  0  0  0  0  0  0  0  0  0  0  0
  -29.1811  -14.4952   19.9295 C   0  0  0  0  0  0  0  0  0  0  0  0
  -30.5354  -22.9886   19.4449 C   0  0  0  0  0  0  0  0  0  0  0  0
  -30.7785  -25.2281   20.5284 C   0  0  0  0  0  0  0  0  0  0  0  0
  -21.2965  -20.6329   22.2635 C   0  0  0  0  0  0  0  0  0  0  0  0
  -23.8912  -20.7273   24.2080 C   0  0  0  0  0  0  0  0  0  0  0  0
  -26.6170  -19.1168   25.4821 C   0  0  0  0  0  0  0  0  0  0  0  0
  -29.5467  -17.6197   19.0651 C   0  0  0  0  0  0  0  0  0  0  0  0
  -20.4289  -25.6570   22.0132 C   0  0  0  0  0  0  0  0  0  0  0  0
  -20.9744  -18.5417   23.6344 C   0  0  0  0  0  0  0  0  0  0  0  0
  -23.7422  -18.7731   22.6191 C   0  0  0  0  0  0  0  0  0  0  0  0
  -21.6559  -24.7546   21.9117 C   0  0  0  0  0  0  0  0  0  0  0  0
  -28.8884  -19.5766   16.0927 C   0  0  0  0  0  0  0  0  0  0  0  0
  -21.3943  -23.6047   20.9442 C   0  0  0  0  0  0  0  0  0  0  0  0
  -25.4400  -11.8731   21.8133 C   0  0  0  0  0  0  0  0  0  0  0  0
  -28.9327  -21.0005   16.6501 C   0  0  0  0  0  0  0  0  0  0  0  0
  -24.1287  -11.8716   21.0072 C   0  0  0  0  0  0  0  0  0  0  0  0
  -28.2461  -18.6135   17.0868 C   0  0  0  0  0  0  0  0  0  0  0  0
  -28.9330  -20.0197   18.9906 C   0  0  0  0  0  0  0  0  0  0  0  0
  -20.2370  -22.7252   21.4326 C   0  0  1  0  0  0  0  0  0  0  0  0
  -26.1859  -12.2621   20.5039 C   0  0  1  0  0  0  0  0  0  0  0  0
  -21.6755  -19.8913   23.5141 C   0  0  1  0  0  0  0  0  0  0  0  0
  -29.5918  -21.0373   18.0416 C   0  0  2  0  0  0  0  0  0  0  0  0
  -24.8071  -12.8476   20.0003 C   0  0  1  0  0  0  0  0  0  0  0  0
  -27.7323  -13.3081   23.1002 C   0  0  0  0  0  0  0  0  0  0  0  0
  -24.4839  -12.5240   18.5430 C   0  0  0  0  0  0  0  0  0  0  0  0
  -28.5704  -19.4643   27.0186 C   0  0  0  0  0  0  0  0  0  0  0  0
  -25.2909  -22.3719   22.0526 C   0  0  0  0  0  0  0  0  0  0  0  0
  -27.4673  -21.8782   23.1874 C   0  0  0  0  0  0  0  0  0  0  0  0
  -25.6966  -23.1573   24.3920 C   0  0  0  0  0  0  0  0  0  0  0  0
  -27.7669  -13.5203   18.1053 C   0  0  0  0  0  0  0  0  0  0  0  0
  -25.7211  -16.9584   27.2980 C   0  0  0  0  0  0  0  0  0  0  0  0
  -30.0889  -15.1992   19.0003 C   0  0  0  0  0  0  0  0  0  0  0  0
  -24.5268  -14.3206   20.3114 C   0  0  0  0  0  0  0  0  0  1  0  0
  -25.3856  -20.6791   23.9997 C   0  0  1  0  0  0  0  0  0  0  0  0
  -27.1333  -18.9804   26.9031 C   0  0  2  0  0  0  0  0  0  0  0  0
  -25.9432  -22.0005   23.3993 C   0  0  0  0  0  0  0  0  0  0  0  0
  -28.5774  -23.2664   18.3327 N   0  0  0  0  0  0  0  0  0  0  0  0
  -28.1291  -13.7348   19.4897 N   0  0  0  0  0  0  0  0  0  0  0  0
  -29.5943  -22.4379   18.6256 N   0  0  0  0  0  0  0  0  0  0  0  0
  -23.1350  -19.7720   23.5141 N   0  0  0  0  0  0  0  0  0  0  0  0
  -28.9317  -18.6839   18.3849 N   0  0  0  0  0  0  0  0  0  0  0  0
  -31.6237  -22.2936   19.8385 N   0  0  0  0  0  0  0  0  0  0  0  0
  -30.1973  -26.4932   20.6901 N   0  0  0  0  0  0  0  0  0  0  0  0
  -20.6818  -21.8486   22.4948 N   0  0  0  0  0  0  0  0  0  0  0  0
  -25.9659  -20.3167   25.2883 N   0  0  0  0  0  0  0  0  0  0  0  0
  -29.4952  -16.3865   18.4268 N   0  0  0  0  0  0  0  0  0  0  0  0
  -27.0805  -17.5562   27.3389 N   0  3  0  0  0  0  0  0  0  0  0  0
  -31.8722  -24.9787   21.0897 O   0  0  0  0  0  0  0  0  0  0  0  0
  -21.5448  -20.1393   21.1697 O   0  0  0  0  0  0  0  0  0  0  0  0
  -23.4131  -21.5765   24.9643 O   0  0  0  0  0  0  0  0  0  0  0  0
  -26.7786  -18.2476   24.6284 O   0  0  0  0  0  0  0  0  0  0  0  0
  -30.1054  -17.7591   20.1584 O   0  0  0  0  0  0  0  0  0  0  0  0
  -25.5353  -28.8451   18.7484 O   0  0  0  0  0  0  0  0  0  0  0  0
  -23.1185  -14.5409   20.2448 O   0  0  0  0  0  0  0  0  0  1  0  0
  -24.4232  -31.4717   23.4674 F   0  0  0  0  0  0  0  0  0  0  0  0
  -22.9368  -29.0813   19.6618 F   0  0  0  0  0  0  0  0  0  0  0  0
  1  2  1  0  0  0  0
  1  5  2  0  0  0  0
  2  6  2  0  0  0  0
  3  8  2  0  0  0  0
  3 16  1  0  0  0  0
  4  9  1  0  0  0  0
  4 16  2  0  0  0  0
  5 18  1  0  0  0  0
  6 20  1  0  0  0  0
  7 10  2  0  0  0  0
  7 19  1  0  0  0  0
  8 23  1  0  0  0  0
  9 23  2  0  0  0  0
 10 24  1  0  0  0  0
 11 12  2  0  0  0  0
 11 25  1  0  0  0  0
 12 26  1  0  0  0  0
 13 21  1  0  0  0  0
 13 24  2  0  0  0  0
 14 22  1  0  0  0  0
 14 30  2  0  0  0  0
 15 26  2  0  0  0  0
 15 27  1  0  0  0  0
 16 28  1  0  0  0  0
 17 28  1  0  0  0  0
 17 31  2  0  0  0  0
 17 32  1  0  0  0  0
 18 20  2  0  0  0  0
 18 37  1  0  0  0  0
 19 21  2  0  0  0  0
 19 38  1  0  0  0  0
 20 48  1  0  0  0  0
 21 39  1  0  0  0  0
 22 29  2  0  0  0  0
 22 53  1  0  0  0  0
 23 82  1  0  0  0  0
 24 83  1  0  0  0  0
 25 27  2  0  0  0  0
 25 82  1  0  0  0  0
 26 84  1  0  0  0  0
 27 85  1  0  0  0  0
 28 66  2  0  0  0  0
 29 49  1  0  0  0  0
 29 67  1  0  0  0  0
 30 61  1  0  0  0  0
 30 67  1  0  0  0  0
 31 68  1  0  0  0  0
 31 71  1  0  0  0  0
 32 72  1  0  0  0  0
 32 77  2  0  0  0  0
 33 50  1  0  0  0  0
 33 73  1  0  0  0  0
 33 78  2  0  0  0  0
 34 63  1  0  0  0  0
 34 69  1  0  0  0  0
 34 79  2  0  0  0  0
 35 64  1  0  0  0  0
 35 74  1  0  0  0  0
 35 80  2  0  0  0  0
 36 70  1  0  0  0  0
 36 75  1  0  0  0  0
 36 81  2  0  0  0  0
 37 40  1  0  0  0  0
 38 50  1  0  0  0  0
 39 69  1  0  0  0  0
 40 42  1  0  0  0  0
 41 44  1  0  0  0  0
 41 46  1  0  0  0  0
 42 48  1  0  0  0  0
 43 45  1  0  0  0  0
 43 49  1  0  0  0  0
 44 51  1  0  0  0  0
 45 52  1  0  0  0  0
 46 70  1  0  0  0  0
 47 51  1  0  0  0  0
 47 70  1  0  0  0  0
 48 73  1  0  0  0  0
 49 52  1  0  0  0  0
 50 69  1  0  0  0  0
 51 68  1  0  0  0  0
 52 54  1  0  0  0  0
 52 62  1  0  0  0  0
 55 64  1  0  0  0  0
 56 65  1  0  0  0  0
 57 65  1  0  0  0  0
 58 65  1  0  0  0  0
 59 67  1  0  0  0  0
 60 76  1  0  0  0  0
 61 75  1  0  0  0  0
 62 83  1  0  0  0  0
 63 65  1  0  0  0  0
 63 74  1  0  0  0  0
 64 76  1  0  0  0  0
 66 68  1  0  0  0  0
M  CHG  1  76   1
M  ISO  4  36 100  62 101  75 100  83 101
M  END
> <Batch ID>
0177

> <Smiles>
CNC(C)C(=O)NC(C(=O)N1Cc2cc([101O:1][101CH2:1]C3(C)CCC3c3c(C)cc(C[100NH:0][100C:0](=O)N4CCCC(n5nc(-c6ccc(Oc7ccc(F)cc7F)cc6)c(C(N)=O)c5N)C4)n3C)ccc2CC1C(=O)NC1CCCc2ccccc21)C(C)(C)C

> <Shape>
0.212

> <Color>
0.075

> <Negative vol penalty>
0.000

$$$$

  -OEChem-04052322523D

 82 91  0     1  0  0  0  0  0999 V2000
  -25.3562  -23.2767   14.4980 C   0  0  0  0  0  0  0  0  0  0  0  0
  -26.1507  -23.1378   15.6315 C   0  0  0  0  0  0  0  0  0  0  0  0
  -23.3380  -10.1529   22.2358 C   0  0  0  0  0  0  0  0  0  0  0  0
  -23.6148   -9.5094   19.9236 C   0  0  0  0  0  0  0  0  0  0  0  0
  -25.2368  -24.5208   13.8799 C   0  0  0  0  0  0  0  0  0  0  0  0
  -26.8273  -24.2428   16.1469 C   0  0  0  0  0  0  0  0  0  0  0  0
  -26.4399  -24.5814   21.1848 C   0  0  0  0  0  0  0  0  0  0  0  0
  -22.6099   -8.9872   22.4731 C   0  0  0  0  0  0  0  0  0  0  0  0
  -22.8866   -8.3436   20.1609 C   0  0  0  0  0  0  0  0  0  0  0  0
  -27.2515  -23.7394   21.9438 C   0  0  0  0  0  0  0  0  0  0  0  0
  -19.4667   -7.8629   21.9432 C   0  0  0  0  0  0  0  0  0  0  0  0
  -18.2897   -7.9743   22.6834 C   0  0  0  0  0  0  0  0  0  0  0  0
  -28.7892  -25.5616   22.3100 C   0  0  0  0  0  0  0  0  0  0  0  0
  -19.1908   -6.4670   24.3428 C   0  0  0  0  0  0  0  0  0  0  0  0
  -23.8405  -10.4141   20.9610 C   0  0  0  0  0  0  0  0  0  0  0  0
  -24.1501  -12.9449   20.8786 C   0  0  0  0  0  0  0  0  0  0  0  0
  -25.9046  -25.6436   14.3937 C   0  0  0  0  0  0  0  0  0  0  0  0
  -26.8030  -25.9192   20.9732 C   0  0  0  0  0  0  0  0  0  0  0  0
  -26.7179  -25.5027   15.5344 C   0  0  0  0  0  0  0  0  0  0  0  0
  -27.9792  -26.4192   21.5500 C   0  0  0  0  0  0  0  0  0  0  0  0
  -22.3842   -8.0825   21.4357 C   0  0  0  0  0  0  0  0  0  0  0  0
  -28.4278  -24.2287   22.5041 C   0  0  0  0  0  0  0  0  0  0  0  0
  -20.5057   -7.0536   22.4026 C   0  0  0  0  0  0  0  0  0  0  0  0
  -18.1518   -7.2763   23.8832 C   0  0  0  0  0  0  0  0  0  0  0  0
  -20.3678   -6.3557   23.6024 C   0  0  0  0  0  0  0  0  0  0  0  0
  -24.5923  -11.6184   20.7151 C   0  0  0  0  0  0  0  0  0  0  0  0
  -25.2293  -13.7136   20.5169 C   0  0  0  0  0  0  0  0  0  0  0  0
  -22.8777  -13.4381   21.3183 C   0  0  0  0  0  0  0  0  0  0  0  0
  -27.4961  -27.6781   18.4179 C   0  0  0  0  0  0  0  0  0  0  0  0
  -27.5566  -30.0949   20.5808 C   0  0  0  0  0  0  0  0  0  0  0  0
  -27.9540  -31.0678   23.8277 C   0  0  0  0  0  0  0  0  0  0  0  0
  -30.7017  -14.7976   20.6680 C   0  0  0  0  0  0  0  0  0  0  0  0
  -25.7828  -26.9577   13.6636 C   0  0  0  0  0  0  0  0  0  0  0  0
  -25.9032  -26.8216   20.1742 C   0  0  0  0  0  0  0  0  0  0  0  0
  -28.4036  -27.8530   21.3696 C   0  0  0  0  0  0  0  0  0  0  0  0
  -26.2339  -28.1584   14.4913 C   0  0  0  0  0  0  0  0  0  0  0  0
  -29.5697  -12.4378   18.2541 C   0  0  0  0  0  0  0  0  0  0  0  0
  -27.5680  -27.8673   15.1712 C   0  0  0  0  0  0  0  0  0  0  0  0
  -28.1403  -12.1194   18.6963 C   0  0  0  0  0  0  0  0  0  0  0  0
  -28.9034  -21.1329   22.1869 C   0  0  0  0  0  0  0  0  0  0  0  0
  -29.8912  -21.1115   24.0793 C   0  0  0  0  0  0  0  0  0  0  0  0
  -30.4960  -12.6507   19.4494 C   0  0  0  0  0  0  0  0  0  0  0  0
  -28.5994  -13.3357   20.8662 C   0  0  0  0  0  0  0  0  0  0  0  0
  -31.2690  -18.5176   23.6335 C   0  0  0  0  0  0  0  0  0  0  0  0
  -27.4477  -26.6830   16.1379 C   0  0  1  0  0  0  0  0  0  0  0  0
  -26.6312  -28.0306   19.5949 C   0  0  1  0  0  0  0  0  0  0  0  0
  -30.9074  -17.0461   23.4543 C   0  0  1  0  0  0  0  0  0  0  0  0
  -27.6157  -13.1680   19.6955 C   0  0  2  0  0  0  0  0  0  0  0  0
  -30.7536  -16.9286   21.9389 C   0  0  2  0  0  0  0  0  0  0  0  0
  -29.4165  -20.0092   23.1105 C   0  0  0  0  0  0  0  0  0  0  0  0
  -28.8310  -22.0395   23.4388 C   0  0  0  0  0  0  0  0  0  1  0  0
  -29.9421  -18.1765   21.5884 C   0  0  2  0  0  0  0  0  0  0  0  0
  -31.9553  -16.1142   24.0423 C   0  0  0  0  0  0  0  0  0  0  0  0
  -30.1048  -18.6330   20.1486 C   0  0  0  0  0  0  0  0  0  0  0  0
  -27.9861  -33.1130   25.2814 C   0  0  0  0  0  0  0  0  0  0  0  0
  -30.3437  -30.7830   19.5470 C   0  0  0  0  0  0  0  0  0  0  0  0
  -30.6928  -32.1591   21.6092 C   0  0  0  0  0  0  0  0  0  0  0  0
  -28.8822  -32.7607   20.0023 C   0  0  0  0  0  0  0  0  0  0  0  0
  -25.6562  -30.1086   25.4274 C   0  0  0  0  0  0  0  0  0  0  0  0
  -28.6139  -30.7143   21.4625 C   0  0  1  0  0  0  0  0  0  0  0  0
  -27.1333  -31.9908   24.7103 C   0  0  2  0  0  0  0  0  0  0  0  0
  -29.6264  -31.5767   20.6572 C   0  0  0  0  0  0  0  0  0  0  0  0
  -25.8540  -11.5451   20.2829 N   0  0  0  0  0  0  0  0  0  0  0  0
  -26.2138  -12.8351   20.1718 N   0  0  0  0  0  0  0  0  0  0  0  0
  -27.4934  -28.6942   20.5749 N   0  0  0  0  0  0  0  0  0  0  0  0
  -29.9417  -13.6579   20.3573 N   0  0  0  0  0  0  0  0  0  0  0  0
  -25.4226  -15.0486   20.4634 N   0  0  0  0  0  0  0  0  0  0  0  0
  -21.8861  -13.6787   20.3575 N   0  0  0  0  0  0  0  0  0  0  0  0
  -26.8092  -27.0981   17.3686 N   0  0  0  0  0  0  0  0  0  0  0  0
  -27.9000  -31.4466   22.5030 N   0  0  0  0  0  0  0  0  0  0  0  0
  -30.0997  -15.7052   21.5308 N   0  0  0  0  0  0  0  0  0  0  0  0
  -30.5132  -19.2286   22.5294 N   0  3  2  0  0  0  0  0  0  0  0  0
  -26.5381  -31.2290   25.8444 N   0  3  0  0  0  0  0  0  0  0  0  0
  -22.6328  -13.6744   22.5257 O   0  0  0  0  0  0  0  0  0  0  0  0
  -28.6975  -27.9163   18.4582 O   0  0  0  0  0  0  0  0  0  0  0  0
  -26.8095  -30.8270   19.9270 O   0  0  0  0  0  0  0  0  0  0  0  0
  -28.5832  -30.1091   24.2697 O   0  0  0  0  0  0  0  0  0  0  0  0
  -31.8309  -14.9944   20.2061 O   0  0  0  0  0  0  0  0  0  0  0  0
  -21.6739   -6.9447   21.6670 O   0  0  0  0  0  0  0  0  0  0  0  0
  -29.2221  -23.4088   23.2449 O   0  0  0  0  0  0  0  0  0  1  0  0
  -17.0221   -7.3846   24.5948 F   0  0  0  0  0  0  0  0  0  0  0  0
  -21.3630   -5.5775   24.0496 F   0  0  0  0  0  0  0  0  0  0  0  0
  1  2  1  0  0  0  0
  1  5  2  0  0  0  0
  2  6  2  0  0  0  0
  3  8  2  0  0  0  0
  3 15  1  0  0  0  0
  4  9  1  0  0  0  0
  4 15  2  0  0  0  0
  5 17  1  0  0  0  0
  6 19  1  0  0  0  0
  7 10  2  0  0  0  0
  7 18  1  0  0  0  0
  8 21  1  0  0  0  0
  9 21  2  0  0  0  0
 10 22  1  0  0  0  0
 11 12  2  0  0  0  0
 11 23  1  0  0  0  0
 12 24  1  0  0  0  0
 13 20  1  0  0  0  0
 13 22  2  0  0  0  0
 14 24  2  0  0  0  0
 14 25  1  0  0  0  0
 15 26  1  0  0  0  0
 16 26  1  0  0  0  0
 16 27  2  0  0  0  0
 16 28  1  0  0  0  0
 17 19  2  0  0  0  0
 17 33  1  0  0  0  0
 18 20  2  0  0  0  0
 18 34  1  0  0  0  0
 19 45  1  0  0  0  0
 20 35  1  0  0  0  0
 21 79  1  0  0  0  0
 22 80  1  0  0  0  0
 23 25  2  0  0  0  0
 23 79  1  0  0  0  0
 24 81  1  0  0  0  0
 25 82  1  0  0  0  0
 26 63  2  0  0  0  0
 27 64  1  0  0  0  0
 27 67  1  0  0  0  0
 28 68  1  0  0  0  0
 28 74  2  0  0  0  0
 29 46  1  0  0  0  0
 29 69  1  0  0  0  0
 29 75  2  0  0  0  0
 30 60  1  0  0  0  0
 30 65  1  0  0  0  0
 30 76  2  0  0  0  0
 31 61  1  0  0  0  0
 31 70  1  0  0  0  0
 31 77  2  0  0  0  0
 32 66  1  0  0  0  0
 32 71  1  0  0  0  0
 32 78  2  0  0  0  0
 33 36  1  0  0  0  0
 34 46  1  0  0  0  0
 35 65  1  0  0  0  0
 36 38  1  0  0  0  0
 37 39  1  0  0  0  0
 37 42  1  0  0  0  0
 38 45  1  0  0  0  0
 39 48  1  0  0  0  0
 40 50  1  0  0  0  0
 40 51  1  0  0  0  0
 41 50  1  0  0  0  0
 41 51  1  0  0  0  0
 42 66  1  0  0  0  0
 43 48  1  0  0  0  0
 43 66  1  0  0  0  0
 44 47  1  0  0  0  0
 44 72  1  0  0  0  0
 45 69  1  0  0  0  0
 46 65  1  0  0  0  0
 47 49  1  0  0  0  0
 47 53  1  0  0  0  0
 48 64  1  0  0  0  0
 49 52  1  0  0  0  0
 49 71  1  0  0  0  0
 50 72  1  0  0  0  0
 51 80  1  0  0  0  0
 52 54  1  0  0  0  0
 52 72  1  0  0  0  0
 55 61  1  0  0  0  0
 56 62  1  0  0  0  0
 57 62  1  0  0  0  0
 58 62  1  0  0  0  0
 59 73  1  0  0  0  0
 60 62  1  0  0  0  0
 60 70  1  0  0  0  0
 61 73  1  0  0  0  0
 63 64  1  0  0  0  0
M  CHG  2  72   1  73   1
M  ISO  4  32 100  51 101  71 100  80 101
M  END
> <Batch ID>
0177

> <Smiles>
CNC(C)C(=O)NC(C(=O)N1Cc2cc([101O:1][101CH:1]3CC(N4CC(C)C([100NH:0][100C:0](=O)N5CCCC(n6nc(-c7ccc(Oc8ccc(F)cc8F)cc7)c(C(N)=O)c6N)C5)C4C)C3)ccc2CC1C(=O)NC1CCCc2ccccc21)C(C)(C)C

> <Shape>
0.261

> <Color>
0.158

> <Negative vol penalty>
0.000

$$$$

  -OEChem-04052322523D

 83 92  0     1  0  0  0  0  0999 V2000
  -28.8856  -35.6252   17.3647 C   0  0  0  0  0  0  0  0  0  0  0  0
  -29.0640  -34.2954   17.7325 C   0  0  0  0  0  0  0  0  0  0  0  0
  -29.4498  -11.0992   20.1021 C   0  0  0  0  0  0  0  0  0  0  0  0
  -28.6659  -10.8369   22.3723 C   0  0  0  0  0  0  0  0  0  0  0  0
  -28.2861  -36.5182   18.2519 C   0  0  0  0  0  0  0  0  0  0  0  0
  -28.6440  -33.8581   18.9882 C   0  0  0  0  0  0  0  0  0  0  0  0
  -26.1741  -29.4420   18.7815 C   0  0  0  0  0  0  0  0  0  0  0  0
  -30.1273   -9.8835   20.1956 C   0  0  0  0  0  0  0  0  0  0  0  0
  -29.3433   -9.6211   22.4658 C   0  0  0  0  0  0  0  0  0  0  0  0
  -26.9439  -28.2877   18.6449 C   0  0  0  0  0  0  0  0  0  0  0  0
  -29.3718   -6.5918   20.0312 C   0  0  0  0  0  0  0  0  0  0  0  0
  -29.2594   -5.7032   18.9619 C   0  0  0  0  0  0  0  0  0  0  0  0
  -26.7314  -27.8733   21.0119 C   0  0  0  0  0  0  0  0  0  0  0  0
  -31.6530   -5.7838   18.6434 C   0  0  0  0  0  0  0  0  0  0  0  0
  -28.7192  -11.5759   21.1905 C   0  0  0  0  0  0  0  0  0  0  0  0
  -26.6959  -13.0369   20.6616 C   0  0  0  0  0  0  0  0  0  0  0  0
  -27.8497  -36.0894   19.5154 C   0  0  0  0  0  0  0  0  0  0  0  0
  -25.6854  -29.8272   20.0382 C   0  0  0  0  0  0  0  0  0  0  0  0
  -28.0393  -34.7465   19.8936 C   0  0  0  0  0  0  0  0  0  0  0  0
  -25.9534  -29.0315   21.1612 C   0  0  0  0  0  0  0  0  0  0  0  0
  -30.0740   -9.1444   21.3774 C   0  0  0  0  0  0  0  0  0  0  0  0
  -27.2251  -27.5047   19.7607 C   0  0  0  0  0  0  0  0  0  0  0  0
  -30.6248   -7.0765   20.4065 C   0  0  0  0  0  0  0  0  0  0  0  0
  -30.4000   -5.2992   18.2680 C   0  0  0  0  0  0  0  0  0  0  0  0
  -31.7653   -6.6725   19.7126 C   0  0  0  0  0  0  0  0  0  0  0  0
  -28.0196  -12.8319   21.0948 C   0  0  0  0  0  0  0  0  0  0  0  0
  -26.5103  -14.3945   20.7553 C   0  0  0  0  0  0  0  0  0  0  0  0
  -29.9805  -25.2462   20.2709 C   0  0  0  0  0  0  0  0  0  0  0  0
  -31.1786  -25.7821   19.9659 C   0  0  0  0  0  0  0  0  0  0  0  0
  -29.8893  -23.7577   20.0836 C   0  0  0  0  0  0  0  0  0  0  0  0
  -25.7213  -12.0851   20.2146 C   0  0  0  0  0  0  0  0  0  0  0  0
  -26.0932  -32.3518   21.9260 C   0  0  0  0  0  0  0  0  0  0  0  0
  -23.7945  -30.9069   23.7010 C   0  0  0  0  0  0  0  0  0  0  0  0
  -22.1817  -28.0248   24.5610 C   0  0  0  0  0  0  0  0  0  0  0  0
  -28.5913  -19.4624   19.6124 C   0  0  0  0  0  0  0  0  0  0  0  0
  -27.2500  -37.1021   20.4585 C   0  0  0  0  0  0  0  0  0  0  0  0
  -24.8341  -31.0607   20.1642 C   0  0  0  0  0  0  0  0  0  0  0  0
  -25.4353  -29.3904   22.5292 C   0  0  0  0  0  0  0  0  0  0  0  0
  -32.3335  -24.8882   19.5931 C   0  0  0  0  0  0  0  0  0  0  0  0
  -26.4934  -36.4738   21.6260 C   0  0  0  0  0  0  0  0  0  0  0  0
  -29.3482  -17.9714   22.9247 C   0  0  0  0  0  0  0  0  0  0  0  0
  -27.3136  -35.3496   22.2506 C   0  0  0  0  0  0  0  0  0  0  0  0
  -28.9946  -16.5036   22.6806 C   0  0  0  0  0  0  0  0  0  0  0  0
  -27.9039  -22.7115   21.1911 C   0  0  0  0  0  0  0  0  0  0  0  0
  -32.2098  -23.5331   20.2764 C   0  0  0  0  0  0  0  0  0  0  0  0
  -29.8445  -18.6325   21.6454 C   0  0  0  0  0  0  0  0  0  0  0  0
  -28.4466  -21.3010   21.3877 C   0  0  0  0  0  0  0  0  0  0  0  0
  -28.6194  -21.8778   19.0602 C   0  0  0  0  0  0  0  0  0  0  0  0
  -28.5377  -17.0782   20.2480 C   0  0  0  0  0  0  0  0  0  0  0  0
  -27.5745  -34.2285   21.2374 C   0  0  1  0  0  0  0  0  0  0  0  0
  -28.5299  -23.1613   19.8744 C   0  0  2  0  0  0  0  0  0  0  0  0
  -24.8195  -31.6348   21.5776 C   0  0  1  0  0  0  0  0  0  0  0  0
  -28.0150  -16.3554   21.5021 C   0  0  1  0  0  0  0  0  0  0  0  0
  -31.4895  -27.2517   19.9609 C   0  0  0  0  0  0  0  0  0  0  0  0
  -20.3726  -27.1537   26.0663 C   0  0  0  0  0  0  0  0  0  0  0  0
  -25.6859  -31.1083   26.0868 C   0  0  0  0  0  0  0  0  0  0  0  0
  -24.2627  -29.4215   27.2688 C   0  0  0  0  0  0  0  0  0  0  0  0
  -23.2941  -31.6225   26.6054 C   0  0  0  0  0  0  0  0  0  0  0  0
  -20.5663  -27.0828   22.2671 C   0  0  0  0  0  0  0  0  0  0  0  0
  -28.7677  -25.9846   20.7435 C   0  0  0  0  0  0  0  0  0  1  0  0
  -23.7871  -29.8978   24.8238 C   0  0  1  0  0  0  0  0  0  0  0  0
  -20.7050  -27.6953   24.6846 C   0  0  2  0  0  0  0  0  0  0  0  0
  -24.2690  -30.5066   26.1709 C   0  0  0  0  0  0  0  0  0  0  0  0
  -28.6317  -13.9684   21.4380 N   0  0  0  0  0  0  0  0  0  0  0  0
  -30.8892  -22.9415   20.0674 N   0  0  0  0  0  0  0  0  0  0  0  0
  -27.6884  -14.9006   21.2205 N   0  0  0  0  0  0  0  0  0  0  0  0
  -24.6128  -30.6092   22.6021 N   0  0  0  0  0  0  0  0  0  0  0  0
  -28.8791  -18.4687   20.5550 N   0  0  0  0  0  0  0  0  0  0  0  0
  -28.6567  -20.7902   20.0344 N   0  0  0  0  0  0  0  0  0  0  0  0
  -25.4561  -15.1929   20.4843 N   0  0  0  0  0  0  0  0  0  0  0  0
  -26.0774  -10.7300   20.1802 N   0  0  0  0  0  0  0  0  0  0  0  0
  -26.3959  -33.4033   21.0821 N   0  0  0  0  0  0  0  0  0  0  0  0
  -22.4378  -29.3447   24.8668 N   0  0  0  0  0  0  0  0  0  0  0  0
  -20.3160  -26.6726   23.6729 N   0  3  0  0  0  0  0  0  0  0  0  0
  -24.5740  -12.4280   19.8407 O   0  0  0  0  0  0  0  0  0  0  0  0
  -26.7518  -31.9795   22.8901 O   0  0  0  0  0  0  0  0  0  0  0  0
  -23.0943  -31.9183   23.7924 O   0  0  0  0  0  0  0  0  0  0  0  0
  -23.0243  -27.1935   24.2302 O   0  0  0  0  0  0  0  0  0  0  0  0
  -28.2430  -19.1750   18.4595 O   0  0  0  0  0  0  0  0  0  0  0  0
  -30.7348   -7.9580   21.4688 O   0  0  0  0  0  0  0  0  0  0  0  0
  -27.9838  -26.3674   19.6291 O   0  0  0  0  0  0  0  0  0  1  0  0
  -30.2921   -4.4447   17.2422 F   0  0  0  0  0  0  0  0  0  0  0  0
  -32.9719   -7.1338   20.0694 F   0  0  0  0  0  0  0  0  0  0  0  0
  1  2  1  0  0  0  0
  1  5  2  0  0  0  0
  2  6  2  0  0  0  0
  3  8  2  0  0  0  0
  3 15  1  0  0  0  0
  4  9  1  0  0  0  0
  4 15  2  0  0  0  0
  5 17  1  0  0  0  0
  6 19  1  0  0  0  0
  7 10  2  0  0  0  0
  7 18  1  0  0  0  0
  8 21  1  0  0  0  0
  9 21  2  0  0  0  0
 10 22  1  0  0  0  0
 11 12  2  0  0  0  0
 11 23  1  0  0  0  0
 12 24  1  0  0  0  0
 13 20  1  0  0  0  0
 13 22  2  0  0  0  0
 14 24  2  0  0  0  0
 14 25  1  0  0  0  0
 15 26  1  0  0  0  0
 16 26  1  0  0  0  0
 16 27  2  0  0  0  0
 16 31  1  0  0  0  0
 17 19  2  0  0  0  0
 17 36  1  0  0  0  0
 18 20  2  0  0  0  0
 18 37  1  0  0  0  0
 19 50  1  0  0  0  0
 20 38  1  0  0  0  0
 21 80  1  0  0  0  0
 22 81  1  0  0  0  0
 23 25  2  0  0  0  0
 23 80  1  0  0  0  0
 24 82  1  0  0  0  0
 25 83  1  0  0  0  0
 26 64  2  0  0  0  0
 27 66  1  0  0  0  0
 27 70  1  0  0  0  0
 28 29  2  0  0  0  0
 28 30  1  0  0  0  0
 28 60  1  0  0  0  0
 29 39  1  0  0  0  0
 29 54  1  0  0  0  0
 30 51  1  0  0  0  0
 30 65  2  0  0  0  0
 31 71  1  0  0  0  0
 31 75  2  0  0  0  0
 32 52  1  0  0  0  0
 32 72  1  0  0  0  0
 32 76  2  0  0  0  0
 33 61  1  0  0  0  0
 33 67  1  0  0  0  0
 33 77  2  0  0  0  0
 34 62  1  0  0  0  0
 34 73  1  0  0  0  0
 34 78  2  0  0  0  0
 35 68  1  0  0  0  0
 35 69  1  0  0  0  0
 35 79  2  0  0  0  0
 36 40  1  0  0  0  0
 37 52  1  0  0  0  0
 38 67  1  0  0  0  0
 39 45  1  0  0  0  0
 40 42  1  0  0  0  0
 41 43  1  0  0  0  0
 41 46  1  0  0  0  0
 42 50  1  0  0  0  0
 43 53  1  0  0  0  0
 44 47  1  0  0  0  0
 44 51  1  0  0  0  0
 45 65  1  0  0  0  0
 46 68  1  0  0  0  0
 47 69  1  0  0  0  0
 48 51  1  0  0  0  0
 48 69  1  0  0  0  0
 49 53  1  0  0  0  0
 49 68  1  0  0  0  0
 50 72  1  0  0  0  0
 52 67  1  0  0  0  0
 53 66  1  0  0  0  0
 55 62  1  0  0  0  0
 56 63  1  0  0  0  0
 57 63  1  0  0  0  0
 58 63  1  0  0  0  0
 59 74  1  0  0  0  0
 60 81  1  0  0  0  0
 61 63  1  0  0  0  0
 61 73  1  0  0  0  0
 62 74  1  0  0  0  0
 64 66  1  0  0  0  0
M  CHG  1  74   1
M  ISO  4  35 100  60 101  69 100  81 101
M  END
> <Batch ID>
0177

> <Smiles>
CNC(C)C(=O)NC(C(=O)N1Cc2cc([101O:1][101CH2:1]C3=C(C)CCN=C3C3CC[100N:0]([100C:0](=O)N4CCCC(n5nc(-c6ccc(Oc7ccc(F)cc7F)cc6)c(C(N)=O)c5N)C4)C3)ccc2CC1C(=O)NC1CCCc2ccccc21)C(C)(C)C

> <Shape>
0.256

> <Color>
0.097

> <Negative vol penalty>
0.000

$$$$

  -OEChem-04052322523D

 83 92  0     1  0  0  0  0  0999 V2000
  -28.7102  -31.8932   26.8043 C   0  0  0  0  0  0  0  0  0  0  0  0
  -28.6341  -30.6236   26.2406 C   0  0  0  0  0  0  0  0  0  0  0  0
  -23.4375   -9.9771   22.1449 C   0  0  0  0  0  0  0  0  0  0  0  0
  -24.0892  -11.4132   23.9752 C   0  0  0  0  0  0  0  0  0  0  0  0
  -27.5858  -32.7175   26.8172 C   0  0  0  0  0  0  0  0  0  0  0  0
  -27.4331  -30.1772   25.6903 C   0  0  0  0  0  0  0  0  0  0  0  0
  -28.0740  -27.9110   21.2071 C   0  0  0  0  0  0  0  0  0  0  0  0
  -22.7992   -9.1219   23.0432 C   0  0  0  0  0  0  0  0  0  0  0  0
  -23.4508  -10.5580   24.8735 C   0  0  0  0  0  0  0  0  0  0  0  0
  -28.5478  -26.5999   21.2184 C   0  0  0  0  0  0  0  0  0  0  0  0
  -19.8804   -9.0279   24.7475 C   0  0  0  0  0  0  0  0  0  0  0  0
  -18.6074   -8.5676   24.4112 C   0  0  0  0  0  0  0  0  0  0  0  0
  -26.2992  -25.7908   20.8898 C   0  0  0  0  0  0  0  0  0  0  0  0
  -19.4129   -6.2908   24.4790 C   0  0  0  0  0  0  0  0  0  0  0  0
  -24.0826  -11.1227   22.6110 C   0  0  0  0  0  0  0  0  0  0  0  0
  -24.1816  -13.1115   21.0164 C   0  0  0  0  0  0  0  0  0  0  0  0
  -26.3730  -32.2846   26.2581 C   0  0  0  0  0  0  0  0  0  0  0  0
  -26.7054  -28.1719   21.0477 C   0  0  0  0  0  0  0  0  0  0  0  0
  -26.2911  -30.9959   25.6969 C   0  0  0  0  0  0  0  0  0  0  0  0
  -25.8108  -27.1062   20.8743 C   0  0  0  0  0  0  0  0  0  0  0  0
  -22.8058   -9.4124   24.4074 C   0  0  0  0  0  0  0  0  0  0  0  0
  -27.6601  -25.5394   21.0626 C   0  0  0  0  0  0  0  0  0  0  0  0
  -20.9197   -8.1197   24.9495 C   0  0  0  0  0  0  0  0  0  0  0  0
  -18.3736   -7.1990   24.2770 C   0  0  0  0  0  0  0  0  0  0  0  0
  -20.6859   -6.7512   24.8153 C   0  0  0  0  0  0  0  0  0  0  0  0
  -24.7427  -12.0061   21.6837 C   0  0  0  0  0  0  0  0  0  0  0  0
  -29.0758  -19.5253   21.1187 C   0  0  0  0  0  0  0  0  0  0  0  0
  -28.6079  -21.4219   19.9298 C   0  0  0  0  0  0  0  0  0  0  0  0
  -27.8482  -21.8919   20.9784 C   0  0  0  0  0  0  0  0  0  0  0  0
  -28.3167  -19.9954   22.1676 C   0  0  0  0  0  0  0  0  0  0  0  0
  -25.2107  -13.6130   20.2576 C   0  0  0  0  0  0  0  0  0  0  0  0
  -22.8493  -13.6378   21.0772 C   0  0  0  0  0  0  0  0  0  0  0  0
  -24.4639  -29.5569   22.8257 C   0  0  0  0  0  0  0  0  0  0  0  0
  -22.6500  -29.1409   20.1689 C   0  0  0  0  0  0  0  0  0  0  0  0
  -22.1042  -27.4179   17.2740 C   0  0  0  0  0  0  0  0  0  0  0  0
  -30.6403  -15.1151   19.9087 C   0  0  0  0  0  0  0  0  0  0  0  0
  -25.1718  -33.1931   26.3378 C   0  0  0  0  0  0  0  0  0  0  0  0
  -26.2136  -29.5929   21.0110 C   0  0  0  0  0  0  0  0  0  0  0  0
  -24.3347  -27.3336   20.6794 C   0  0  0  0  0  0  0  0  0  0  0  0
  -24.0385  -32.7881   25.3986 C   0  0  0  0  0  0  0  0  0  0  0  0
  -29.7440  -11.7143   19.1577 C   0  0  0  0  0  0  0  0  0  0  0  0
  -23.7774  -31.2882   25.4928 C   0  0  0  0  0  0  0  0  0  0  0  0
  -28.3428  -11.5564   19.7388 C   0  0  0  0  0  0  0  0  0  0  0  0
  -30.5858  -12.6506   20.0143 C   0  0  0  0  0  0  0  0  0  0  0  0
  -29.0250  -16.8252   21.0603 C   0  0  0  0  0  0  0  0  0  0  0  0
  -30.4935  -17.6605   19.7801 C   0  0  0  0  0  0  0  0  0  0  0  0
  -28.5612  -13.8867   20.7405 C   0  0  0  0  0  0  0  0  0  0  0  0
  -25.0128  -30.4854   25.0679 C   0  0  1  0  0  0  0  0  0  0  0  0
  -29.8435  -18.1385   21.0989 C   0  0  0  0  0  0  0  0  0  0  0  0
  -24.7334  -29.7220   21.3568 C   0  0  1  0  0  0  0  0  0  0  0  0
  -27.6776  -12.9287   19.9171 C   0  0  2  0  0  0  0  0  0  0  0  0
  -28.7762  -22.2113   18.6768 C   0  0  0  0  0  0  0  0  0  0  0  0
  -20.5213  -27.2811   15.3316 C   0  0  0  0  0  0  0  0  0  0  0  0
  -20.6031  -27.7315   21.9392 C   0  0  0  0  0  0  0  0  0  0  0  0
  -19.5494  -26.8066   19.8650 C   0  0  0  0  0  0  0  0  0  0  0  0
  -19.6206  -29.2729   20.2323 C   0  0  0  0  0  0  0  0  0  0  0  0
  -24.2464  -28.0557   15.3341 C   0  0  0  0  0  0  0  0  0  0  0  0
  -27.1547  -23.2206   20.9088 C   0  0  0  0  0  0  0  0  0  1  0  0
  -21.7520  -28.0447   19.6483 C   0  0  1  0  0  0  0  0  0  0  0  0
  -21.8106  -27.8894   15.8612 C   0  0  2  0  0  0  0  0  0  0  0  0
  -20.4088  -27.9592   20.4268 C   0  0  0  0  0  0  0  0  0  0  0  0
  -26.0284  -11.8161   21.3756 N   0  0  0  0  0  0  0  0  0  0  0  0
  -29.2351  -20.2301   19.9810 N   0  0  0  0  0  0  0  0  0  0  0  0
  -27.6892  -21.1872   22.1162 N   0  0  0  0  0  0  0  0  0  0  0  0
  -26.2837  -12.8088   20.5064 N   0  0  0  0  0  0  0  0  0  0  0  0
  -23.9018  -28.7406   20.6572 N   0  0  0  0  0  0  0  0  0  0  0  0
  -29.9336  -13.9477   20.2186 N   0  0  0  0  0  0  0  0  0  0  0  0
  -30.0291  -16.3255   20.1366 N   0  0  0  0  0  0  0  0  0  0  0  0
  -25.2933  -14.6591   19.4083 N   0  0  0  0  0  0  0  0  0  0  0  0
  -21.9168  -13.0013   21.9076 N   0  0  0  0  0  0  0  0  0  0  0  0
  -25.1309  -30.4650   23.6257 N   0  0  0  0  0  0  0  0  0  0  0  0
  -21.5992  -28.2870   18.2178 N   0  0  0  0  0  0  0  0  0  0  0  0
  -22.9221  -27.5059   14.9456 N   0  3  0  0  0  0  0  0  0  0  0  0
  -22.4919  -14.6328   20.4022 O   0  0  0  0  0  0  0  0  0  0  0  0
  -23.7058  -28.6720   23.2052 O   0  0  0  0  0  0  0  0  0  0  0  0
  -22.2581  -30.3100   20.1366 O   0  0  0  0  0  0  0  0  0  0  0  0
  -22.7168  -26.3803   17.5161 O   0  0  0  0  0  0  0  0  0  0  0  0
  -31.7970  -15.0809   19.4683 O   0  0  0  0  0  0  0  0  0  0  0  0
  -22.1828   -8.5783   25.2842 O   0  0  0  0  0  0  0  0  0  0  0  0
  -28.1199  -24.2586   21.0738 O   0  0  0  0  0  0  0  0  0  1  0  0
  -17.1507   -6.7570   23.9555 F   0  0  0  0  0  0  0  0  0  0  0  0
  -21.6801   -5.8738   25.0094 F   0  0  0  0  0  0  0  0  0  0  0  0
  -28.0974  -19.1216   23.6239 Cl  0  0  0  0  0  0  0  0  0  0  0  0
  1  2  1  0  0  0  0
  1  5  2  0  0  0  0
  2  6  2  0  0  0  0
  3  8  2  0  0  0  0
  3 15  1  0  0  0  0
  4  9  1  0  0  0  0
  4 15  2  0  0  0  0
  5 17  1  0  0  0  0
  6 19  1  0  0  0  0
  7 10  2  0  0  0  0
  7 18  1  0  0  0  0
  8 21  1  0  0  0  0
  9 21  2  0  0  0  0
 10 22  1  0  0  0  0
 11 12  2  0  0  0  0
 11 23  1  0  0  0  0
 12 24  1  0  0  0  0
 13 20  1  0  0  0  0
 13 22  2  0  0  0  0
 14 24  2  0  0  0  0
 14 25  1  0  0  0  0
 15 26  1  0  0  0  0
 16 26  1  0  0  0  0
 16 31  2  0  0  0  0
 16 32  1  0  0  0  0
 17 19  2  0  0  0  0
 17 37  1  0  0  0  0
 18 20  2  0  0  0  0
 18 38  1  0  0  0  0
 19 48  1  0  0  0  0
 20 39  1  0  0  0  0
 21 79  1  0  0  0  0
 22 80  1  0  0  0  0
 23 25  2  0  0  0  0
 23 79  1  0  0  0  0
 24 81  1  0  0  0  0
 25 82  1  0  0  0  0
 26 62  2  0  0  0  0
 27 30  1  0  0  0  0
 27 49  1  0  0  0  0
 27 63  2  0  0  0  0
 28 29  2  0  0  0  0
 28 52  1  0  0  0  0
 28 63  1  0  0  0  0
 29 58  1  0  0  0  0
 29 64  1  0  0  0  0
 30 64  2  0  0  0  0
 30 83  1  0  0  0  0
 31 65  1  0  0  0  0
 31 69  1  0  0  0  0
 32 70  1  0  0  0  0
 32 74  2  0  0  0  0
 33 50  1  0  0  0  0
 33 71  1  0  0  0  0
 33 75  2  0  0  0  0
 34 59  1  0  0  0  0
 34 66  1  0  0  0  0
 34 76  2  0  0  0  0
 35 60  1  0  0  0  0
 35 72  1  0  0  0  0
 35 77  2  0  0  0  0
 36 67  1  0  0  0  0
 36 68  1  0  0  0  0
 36 78  2  0  0  0  0
 37 40  1  0  0  0  0
 38 50  1  0  0  0  0
 39 66  1  0  0  0  0
 40 42  1  0  0  0  0
 41 43  1  0  0  0  0
 41 44  1  0  0  0  0
 42 48  1  0  0  0  0
 43 51  1  0  0  0  0
 44 67  1  0  0  0  0
 45 49  1  0  0  0  0
 45 68  1  0  0  0  0
 46 49  1  0  0  0  0
 46 68  1  0  0  0  0
 47 51  1  0  0  0  0
 47 67  1  0  0  0  0
 48 71  1  0  0  0  0
 50 66  1  0  0  0  0
 51 65  1  0  0  0  0
 53 60  1  0  0  0  0
 54 61  1  0  0  0  0
 55 61  1  0  0  0  0
 56 61  1  0  0  0  0
 57 73  1  0  0  0  0
 58 80  1  0  0  0  0
 59 61  1  0  0  0  0
 59 72  1  0  0  0  0
 60 73  1  0  0  0  0
 62 65  1  0  0  0  0
M  CHG  1  73   1
M  ISO  4  36 100  58 101  68 100  80 101
M  END
> <Batch ID>
0177

> <Smiles>
CNC(C)C(=O)NC(C(=O)N1Cc2cc([101O:1][101CH2:1]c3nc(Cl)c(C4C[100N:0]([100C:0](=O)N5CCCC(n6nc(-c7ccc(Oc8ccc(F)cc8F)cc7)c(C(N)=O)c6N)C5)C4)nc3C)ccc2CC1C(=O)NC1CCCc2ccccc21)C(C)(C)C

> <Shape>
0.303

> <Color>
0.154

> <Negative vol penalty>
0.000

$$$$

  -OEChem-04052322523D

 83 92  0     1  0  0  0  0  0999 V2000
  -18.9888  -32.9068   20.0296 C   0  0  0  0  0  0  0  0  0  0  0  0
  -20.2637  -32.4768   19.6758 C   0  0  0  0  0  0  0  0  0  0  0  0
  -26.0126  -13.5262   21.8493 C   0  0  0  0  0  0  0  0  0  0  0  0
  -25.4003  -15.2025   20.2208 C   0  0  0  0  0  0  0  0  0  0  0  0
  -18.4673  -32.5825   21.2813 C   0  0  0  0  0  0  0  0  0  0  0  0
  -21.0183  -31.7231   20.5741 C   0  0  0  0  0  0  0  0  0  0  0  0
  -24.9420  -27.2215   19.2157 C   0  0  0  0  0  0  0  0  0  0  0  0
  -24.6774  -13.1351   21.9488 C   0  0  0  0  0  0  0  0  0  0  0  0
  -24.0651  -14.8113   20.3201 C   0  0  0  0  0  0  0  0  0  0  0  0
  -26.3304  -27.1929   19.0918 C   0  0  0  0  0  0  0  0  0  0  0  0
  -21.4812  -11.4535   22.3634 C   0  0  0  0  0  0  0  0  0  0  0  0
  -21.2038  -10.0865   22.3578 C   0  0  0  0  0  0  0  0  0  0  0  0
  -26.5115  -26.4172   21.3688 C   0  0  0  0  0  0  0  0  0  0  0  0
  -22.2145   -9.8904   20.1721 C   0  0  0  0  0  0  0  0  0  0  0  0
  -26.3740  -14.5600   20.9854 C   0  0  0  0  0  0  0  0  0  0  0  0
  -28.7237  -14.4594   19.9972 C   0  0  0  0  0  0  0  0  0  0  0  0
  -19.2121  -31.8163   22.1916 C   0  0  0  0  0  0  0  0  0  0  0  0
  -24.3275  -26.8579   20.4226 C   0  0  0  0  0  0  0  0  0  0  0  0
  -20.5068  -31.3894   21.8397 C   0  0  0  0  0  0  0  0  0  0  0  0
  -25.1150  -26.4396   21.5046 C   0  0  0  0  0  0  0  0  0  0  0  0
  -23.7036  -13.7776   21.1841 C   0  0  0  0  0  0  0  0  0  0  0  0
  -27.1155  -26.7935   20.1694 C   0  0  0  0  0  0  0  0  0  0  0  0
  -22.1253  -12.0389   21.2733 C   0  0  0  0  0  0  0  0  0  0  0  0
  -21.5704   -9.3050   21.2622 C   0  0  0  0  0  0  0  0  0  0  0  0
  -22.4919  -11.2573   20.1777 C   0  0  0  0  0  0  0  0  0  0  0  0
  -27.7530  -14.9649   20.8827 C   0  0  0  0  0  0  0  0  0  0  0  0
  -31.0666  -24.3180   20.7602 C   0  0  0  0  0  0  0  0  0  0  0  0
  -30.3270  -24.5375   19.6190 C   0  0  0  0  0  0  0  0  0  0  0  0
  -29.4782  -22.4187   19.7618 C   0  0  0  0  0  0  0  0  0  0  0  0
  -30.2185  -22.1991   20.9025 C   0  0  0  0  0  0  0  0  0  0  0  0
  -29.8625  -15.1668   20.2959 C   0  0  0  0  0  0  0  0  0  0  0  0
  -28.6065  -13.4415   18.9943 C   0  0  0  0  0  0  0  0  0  0  0  0
  -22.4887  -28.3511   22.5423 C   0  0  0  0  0  0  0  0  0  0  0  0
  -22.2990  -25.3996   23.8746 C   0  0  0  0  0  0  0  0  0  0  0  0
  -23.6890  -22.3092   24.2803 C   0  0  0  0  0  0  0  0  0  0  0  0
  -30.8087  -20.5492   22.7125 C   0  0  0  0  0  0  0  0  0  0  0  0
  -18.6248  -31.5307   23.5511 C   0  0  0  0  0  0  0  0  0  0  0  0
  -22.8273  -26.8685   20.5315 C   0  0  0  0  0  0  0  0  0  0  0  0
  -24.5032  -26.0201   22.8154 C   0  0  0  0  0  0  0  0  0  0  0  0
  -19.3414  -30.4108   24.3012 C   0  0  0  0  0  0  0  0  0  0  0  0
  -32.0228  -17.4285   23.9225 C   0  0  0  0  0  0  0  0  0  0  0  0
  -20.8531  -30.6015   24.2282 C   0  0  0  0  0  0  0  0  0  0  0  0
  -32.2814  -25.3683   22.7839 C   0  0  0  0  0  0  0  0  0  0  0  0
  -31.3644  -26.4174   22.2374 C   0  0  0  0  0  0  0  0  0  0  0  0
  -31.1581  -16.3964   23.1951 C   0  0  0  0  0  0  0  0  0  0  0  0
  -31.2245  -18.6772   24.2929 C   0  0  0  0  0  0  0  0  0  0  0  0
  -29.6383  -18.2738   22.4517 C   0  0  0  0  0  0  0  0  0  0  0  0
  -21.3464  -30.5490   22.7772 C   0  0  1  0  0  0  0  0  0  0  0  0
  -31.9520  -25.3825   21.3141 C   0  0  0  0  0  0  0  0  0  0  0  0
  -22.3335  -26.9699   21.9713 C   0  0  1  0  0  0  0  0  0  0  0  0
  -30.4144  -17.0256   22.0007 C   0  0  2  0  0  0  0  0  0  0  0  0
  -28.5856  -21.3698   19.1898 C   0  0  0  0  0  0  0  0  0  0  0  0
  -23.3221  -20.1233   25.4570 C   0  0  0  0  0  0  0  0  0  0  0  0
  -23.2058  -26.6632   26.4996 C   0  0  0  0  0  0  0  0  0  0  0  0
  -23.7309  -24.3654   27.3437 C   0  0  0  0  0  0  0  0  0  0  0  0
  -21.3870  -24.9628   26.7339 C   0  0  0  0  0  0  0  0  0  0  0  0
  -23.5435  -20.8249   21.7240 C   0  0  0  0  0  0  0  0  0  0  0  0
  -30.3795  -25.8552   18.8847 C   0  0  0  0  0  0  0  0  0  0  0  0
  -29.0047  -26.5016   18.7545 C   0  0  0  0  0  0  0  0  0  1  0  0
  -23.0995  -24.6372   24.9027 C   0  0  1  0  0  0  0  0  0  0  0  0
  -23.0944  -20.9162   24.1794 C   0  0  2  0  0  0  0  0  0  0  0  0
  -22.8677  -25.1669   26.3460 C   0  0  0  0  0  0  0  0  0  0  0  0
  -28.2333  -15.9195   21.6840 N   0  0  0  0  0  0  0  0  0  0  0  0
  -31.0257  -23.1449   21.4224 N   0  0  0  0  0  0  0  0  0  0  0  0
  -29.5194  -23.5918   19.0994 N   0  0  0  0  0  0  0  0  0  0  0  0
  -29.5182  -16.0195   21.3032 N   0  0  0  0  0  0  0  0  0  0  0  0
  -23.0325  -26.0535   22.8745 N   0  0  0  0  0  0  0  0  0  0  0  0
  -30.5509  -19.2206   23.1114 N   0  0  0  0  0  0  0  0  0  0  0  0
  -31.1148  -15.1363   19.7927 N   0  0  0  0  0  0  0  0  0  0  0  0
  -27.3644  -12.8163   18.8188 N   0  0  0  0  0  0  0  0  0  0  0  0
  -30.1363  -20.9449   21.5566 N   0  0  0  0  0  0  0  0  0  0  0  0
  -21.4067  -29.1795   22.3132 N   0  0  0  0  0  0  0  0  0  0  0  0
  -22.7618  -23.2296   24.7213 N   0  0  0  0  0  0  0  0  0  0  0  0
  -23.7121  -20.1701   23.0468 N   0  3  0  0  0  0  0  0  0  0  0  0
  -29.5786  -13.0852   18.2862 O   0  0  0  0  0  0  0  0  0  0  0  0
  -23.5136  -28.6431   23.1472 O   0  0  0  0  0  0  0  0  0  0  0  0
  -21.0679  -25.4084   23.9517 O   0  0  0  0  0  0  0  0  0  0  0  0
  -24.8600  -22.5556   23.9999 O   0  0  0  0  0  0  0  0  0  0  0  0
  -31.5908  -21.2733   23.3338 O   0  0  0  0  0  0  0  0  0  0  0  0
  -22.4007  -13.3960   21.2807 O   0  0  0  0  0  0  0  0  0  0  0  0
  -28.4709  -26.7653   20.0514 O   0  0  0  0  0  0  0  0  0  1  0  0
  -21.3053   -7.9920   21.2576 F   0  0  0  0  0  0  0  0  0  0  0  0
  -23.1119  -11.8139   19.1281 F   0  0  0  0  0  0  0  0  0  0  0  0
  1  2  1  0  0  0  0
  1  5  2  0  0  0  0
  2  6  2  0  0  0  0
  3  8  2  0  0  0  0
  3 15  1  0  0  0  0
  4  9  1  0  0  0  0
  4 15  2  0  0  0  0
  5 17  1  0  0  0  0
  6 19  1  0  0  0  0
  7 10  2  0  0  0  0
  7 18  1  0  0  0  0
  8 21  1  0  0  0  0
  9 21  2  0  0  0  0
 10 22  1  0  0  0  0
 11 12  2  0  0  0  0
 11 23  1  0  0  0  0
 12 24  1  0  0  0  0
 13 20  1  0  0  0  0
 13 22  2  0  0  0  0
 14 24  2  0  0  0  0
 14 25  1  0  0  0  0
 15 26  1  0  0  0  0
 16 26  1  0  0  0  0
 16 31  2  0  0  0  0
 16 32  1  0  0  0  0
 17 19  2  0  0  0  0
 17 37  1  0  0  0  0
 18 20  2  0  0  0  0
 18 38  1  0  0  0  0
 19 48  1  0  0  0  0
 20 39  1  0  0  0  0
 21 80  1  0  0  0  0
 22 81  1  0  0  0  0
 23 25  2  0  0  0  0
 23 80  1  0  0  0  0
 24 82  1  0  0  0  0
 25 83  1  0  0  0  0
 26 63  2  0  0  0  0
 27 28  2  0  0  0  0
 27 49  1  0  0  0  0
 27 64  1  0  0  0  0
 28 58  1  0  0  0  0
 28 65  1  0  0  0  0
 29 30  1  0  0  0  0
 29 52  1  0  0  0  0
 29 65  2  0  0  0  0
 30 64  2  0  0  0  0
 30 71  1  0  0  0  0
 31 66  1  0  0  0  0
 31 69  1  0  0  0  0
 32 70  1  0  0  0  0
 32 75  2  0  0  0  0
 33 50  1  0  0  0  0
 33 72  1  0  0  0  0
 33 76  2  0  0  0  0
 34 60  1  0  0  0  0
 34 67  1  0  0  0  0
 34 77  2  0  0  0  0
 35 61  1  0  0  0  0
 35 73  1  0  0  0  0
 35 78  2  0  0  0  0
 36 68  1  0  0  0  0
 36 71  1  0  0  0  0
 36 79  2  0  0  0  0
 37 40  1  0  0  0  0
 38 50  1  0  0  0  0
 39 67  1  0  0  0  0
 40 42  1  0  0  0  0
 41 45  1  0  0  0  0
 41 46  1  0  0  0  0
 42 48  1  0  0  0  0
 43 44  1  0  0  0  0
 43 49  1  0  0  0  0
 44 49  1  0  0  0  0
 45 51  1  0  0  0  0
 46 68  1  0  0  0  0
 47 51  1  0  0  0  0
 47 68  1  0  0  0  0
 48 72  1  0  0  0  0
 50 67  1  0  0  0  0
 51 66  1  0  0  0  0
 53 61  1  0  0  0  0
 54 62  1  0  0  0  0
 55 62  1  0  0  0  0
 56 62  1  0  0  0  0
 57 74  1  0  0  0  0
 58 59  1  0  0  0  0
 59 81  1  0  0  0  0
 60 62  1  0  0  0  0
 60 73  1  0  0  0  0
 61 74  1  0  0  0  0
 63 66  1  0  0  0  0
M  CHG  1  74   1
M  ISO  4  36 100  59 101  71 100  81 101
M  END
> <Batch ID>
0177

> <Smiles>
CNC(C)C(=O)NC(C(=O)N1Cc2cc([101O:1][101CH2:1]Cc3nc(C)c([100NH:0][100C:0](=O)N4CCCC(n5nc(-c6ccc(Oc7ccc(F)cc7F)cc6)c(C(N)=O)c5N)C4)nc3C3CC3)ccc2CC1C(=O)NC1CCCc2ccccc21)C(C)(C)C

> <Shape>
0.233

> <Color>
0.083

> <Negative vol penalty>
0.000

$$$$

  -OEChem-04052322523D

 82 91  0     1  0  0  0  0  0999 V2000
  -16.6976  -29.6828   24.1443 C   0  0  0  0  0  0  0  0  0  0  0  0
  -17.2175  -28.7636   23.2386 C   0  0  0  0  0  0  0  0  0  0  0  0
  -24.6070   -8.8381   21.3071 C   0  0  0  0  0  0  0  0  0  0  0  0
  -22.7417  -10.2431   20.6877 C   0  0  0  0  0  0  0  0  0  0  0  0
  -17.3378  -30.9059   24.3395 C   0  0  0  0  0  0  0  0  0  0  0  0
  -18.3774  -29.0675   22.5268 C   0  0  0  0  0  0  0  0  0  0  0  0
  -21.6536  -25.2077   22.4115 C   0  0  0  0  0  0  0  0  0  0  0  0
  -23.7425   -7.7527   21.4485 C   0  0  0  0  0  0  0  0  0  0  0  0
  -21.8772   -9.1577   20.8291 C   0  0  0  0  0  0  0  0  0  0  0  0
  -21.3855  -24.1715   21.5181 C   0  0  0  0  0  0  0  0  0  0  0  0
  -21.5392   -6.6060   23.7409 C   0  0  0  0  0  0  0  0  0  0  0  0
  -21.6891   -5.8020   24.8708 C   0  0  0  0  0  0  0  0  0  0  0  0
  -22.9905  -25.0966   19.9729 C   0  0  0  0  0  0  0  0  0  0  0  0
  -22.1248   -3.8934   23.4549 C   0  0  0  0  0  0  0  0  0  0  0  0
  -24.3096  -19.1578   20.5925 C   0  0  0  0  0  0  0  0  0  0  0  0
  -25.2137  -21.2852   21.9589 C   0  0  0  0  0  0  0  0  0  0  0  0
  -24.1066  -10.0834   20.9267 C   0  0  0  0  0  0  0  0  0  0  0  0
  -25.6838  -11.6010   19.6164 C   0  0  0  0  0  0  0  0  0  0  0  0
  -18.5114  -31.2210   23.6368 C   0  0  0  0  0  0  0  0  0  0  0  0
  -22.5858  -26.2039   22.0871 C   0  0  0  0  0  0  0  0  0  0  0  0
  -19.0331  -30.2966   22.7118 C   0  0  0  0  0  0  0  0  0  0  0  0
  -23.2704  -26.1429   20.8649 C   0  0  0  0  0  0  0  0  0  0  0  0
  -22.3776   -7.9124   21.2095 C   0  0  0  0  0  0  0  0  0  0  0  0
  -22.0518  -24.1174   20.2974 C   0  0  0  0  0  0  0  0  0  0  0  0
  -21.6820   -6.0537   22.4679 C   0  0  0  0  0  0  0  0  0  0  0  0
  -21.9819   -4.4457   24.7278 C   0  0  0  0  0  0  0  0  0  0  0  0
  -21.9749   -4.6975   22.3250 C   0  0  0  0  0  0  0  0  0  0  0  0
  -24.9991  -11.2051   20.7810 C   0  0  0  0  0  0  0  0  0  0  0  0
  -24.0951  -20.4519   20.1640 C   0  0  0  0  0  0  0  0  0  0  0  0
  -25.0192  -19.0284   21.7689 C   0  0  0  0  0  0  0  0  0  0  0  0
  -26.3941  -12.7133   19.9970 C   0  0  0  0  0  0  0  0  0  0  0  0
  -25.6781  -11.0158   18.3075 C   0  0  0  0  0  0  0  0  0  0  0  0
  -22.4515  -29.3527   21.6741 C   0  0  0  0  0  0  0  0  0  0  0  0
  -25.6730  -29.0656   21.4256 C   0  0  0  0  0  0  0  0  0  0  0  0
  -28.3588  -27.0832   20.7163 C   0  0  0  0  0  0  0  0  0  0  0  0
  -25.9526  -17.3556   23.4050 C   0  0  0  0  0  0  0  0  0  0  0  0
  -19.1417  -32.5751   23.8466 C   0  0  0  0  0  0  0  0  0  0  0  0
  -22.8832  -27.3002   23.0730 C   0  0  0  0  0  0  0  0  0  0  0  0
  -24.2952  -27.1766   20.4776 C   0  0  0  0  0  0  0  0  0  0  0  0
  -20.5749  -32.6666   23.3290 C   0  0  0  0  0  0  0  0  0  0  0  0
  -27.9404  -14.5483   24.3243 C   0  0  0  0  0  0  0  0  0  0  0  0
  -20.6766  -32.0668   21.9301 C   0  0  0  0  0  0  0  0  0  0  0  0
  -27.4527  -13.4376   23.3912 C   0  0  0  0  0  0  0  0  0  0  0  0
  -23.8945  -20.0885   17.6203 C   0  0  0  0  0  0  0  0  0  0  0  0
  -23.9645  -21.5667   17.8442 C   0  0  0  0  0  0  0  0  0  0  0  0
  -26.7966  -15.4579   24.7694 C   0  0  0  0  0  0  0  0  0  0  0  0
  -25.5031  -14.9105   22.7455 C   0  0  0  0  0  0  0  0  0  0  0  0
  -20.3031  -30.5796   21.9390 C   0  0  1  0  0  0  0  0  0  0  0  0
  -23.4756  -28.5457   22.4209 C   0  0  1  0  0  0  0  0  0  0  0  0
  -26.6303  -14.0073   22.2187 C   0  0  2  0  0  0  0  0  0  0  0  0
  -23.3353  -20.6786   18.9025 C   0  0  0  0  0  0  0  0  0  0  0  0
  -30.8630  -27.1396   20.5628 C   0  0  0  0  0  0  0  0  0  0  0  0
  -25.4740  -30.5449   18.7644 C   0  0  0  0  0  0  0  0  0  0  0  0
  -27.7846  -29.7449   18.2265 C   0  0  0  0  0  0  0  0  0  0  0  0
  -27.4073  -31.2286   20.1960 C   0  0  0  0  0  0  0  0  0  0  0  0
  -28.6505  -25.0332   22.8309 C   0  0  0  0  0  0  0  0  0  0  0  0
  -21.8447  -20.7252   19.0592 C   0  0  0  0  0  0  0  0  0  0  0  0
  -21.3965  -21.8536   19.9785 C   0  0  0  0  0  0  0  0  0  1  0  0
  -26.6403  -28.8214   20.2926 C   0  0  1  0  0  0  0  0  0  0  0  0
  -29.6651  -26.8544   21.4552 C   0  0  2  0  0  0  0  0  0  0  0  0
  -26.8059  -30.0664   19.3761 C   0  0  0  0  0  0  0  0  0  0  0  0
  -24.5346  -21.5430   20.8249 N   0  0  0  0  0  0  0  0  0  0  0  0
  -25.4881  -20.0743   22.4806 N   0  0  0  0  0  0  0  0  0  0  0  0
  -25.2518  -12.0010   21.8234 N   0  0  0  0  0  0  0  0  0  0  0  0
  -26.1033  -12.9081   21.3152 N   0  0  0  0  0  0  0  0  0  0  0  0
  -24.5464  -28.2322   21.4726 N   0  0  0  0  0  0  0  0  0  0  0  0
  -26.0651  -15.9635   23.6058 N   0  0  0  0  0  0  0  0  0  0  0  0
  -27.2328  -13.5338   19.3295 N   0  0  0  0  0  0  0  0  0  0  0  0
  -24.8929   -9.8757   18.0888 N   0  0  0  0  0  0  0  0  0  0  0  0
  -25.2632  -17.7174   22.2481 N   0  0  0  0  0  0  0  0  0  0  0  0
  -21.3979  -29.7866   22.4559 N   0  0  0  0  0  0  0  0  0  0  0  0
  -27.8813  -28.3625   20.9072 N   0  0  0  0  0  0  0  0  0  0  0  0
  -29.7542  -25.4429   21.9248 N   0  3  0  0  0  0  0  0  0  0  0  0
  -26.3623  -11.4802   17.3643 O   0  0  0  0  0  0  0  0  0  0  0  0
  -22.6065  -29.5672   20.4776 O   0  0  0  0  0  0  0  0  0  0  0  0
  -25.9119  -29.9580   22.2430 O   0  0  0  0  0  0  0  0  0  0  0  0
  -27.8182  -26.2150   20.0348 O   0  0  0  0  0  0  0  0  0  0  0  0
  -26.4560  -18.1667   24.1865 O   0  0  0  0  0  0  0  0  0  0  0  0
  -21.5337   -6.8534   21.3472 O   0  0  0  0  0  0  0  0  0  0  0  0
  -21.7916  -23.1074   19.4233 O   0  0  0  0  0  0  0  0  0  1  0  0
  -22.1273   -3.6741   25.8130 F   0  0  0  0  0  0  0  0  0  0  0  0
  -22.1144   -4.1615   21.1047 F   0  0  0  0  0  0  0  0  0  0  0  0
  1  2  1  0  0  0  0
  1  5  2  0  0  0  0
  2  6  2  0  0  0  0
  3  8  2  0  0  0  0
  3 17  1  0  0  0  0
  4  9  1  0  0  0  0
  4 17  2  0  0  0  0
  5 19  1  0  0  0  0
  6 21  1  0  0  0  0
  7 10  2  0  0  0  0
  7 20  1  0  0  0  0
  8 23  1  0  0  0  0
  9 23  2  0  0  0  0
 10 24  1  0  0  0  0
 11 12  2  0  0  0  0
 11 25  1  0  0  0  0
 12 26  1  0  0  0  0
 13 22  1  0  0  0  0
 13 24  2  0  0  0  0
 14 26  2  0  0  0  0
 14 27  1  0  0  0  0
 15 29  1  0  0  0  0
 15 30  2  0  0  0  0
 16 62  1  0  0  0  0
 16 63  2  0  0  0  0
 17 28  1  0  0  0  0
 18 28  1  0  0  0  0
 18 31  2  0  0  0  0
 18 32  1  0  0  0  0
 19 21  2  0  0  0  0
 19 37  1  0  0  0  0
 20 22  2  0  0  0  0
 20 38  1  0  0  0  0
 21 48  1  0  0  0  0
 22 39  1  0  0  0  0
 23 79  1  0  0  0  0
 24 80  1  0  0  0  0
 25 27  2  0  0  0  0
 25 79  1  0  0  0  0
 26 81  1  0  0  0  0
 27 82  1  0  0  0  0
 28 64  2  0  0  0  0
 29 51  1  0  0  0  0
 29 62  2  0  0  0  0
 30 63  1  0  0  0  0
 30 70  1  0  0  0  0
 31 65  1  0  0  0  0
 31 68  1  0  0  0  0
 32 69  1  0  0  0  0
 32 74  2  0  0  0  0
 33 49  1  0  0  0  0
 33 71  1  0  0  0  0
 33 75  2  0  0  0  0
 34 59  1  0  0  0  0
 34 66  1  0  0  0  0
 34 76  2  0  0  0  0
 35 60  1  0  0  0  0
 35 72  1  0  0  0  0
 35 77  2  0  0  0  0
 36 67  1  0  0  0  0
 36 70  1  0  0  0  0
 36 78  2  0  0  0  0
 37 40  1  0  0  0  0
 38 49  1  0  0  0  0
 39 66  1  0  0  0  0
 40 42  1  0  0  0  0
 41 43  1  0  0  0  0
 41 46  1  0  0  0  0
 42 48  1  0  0  0  0
 43 50  1  0  0  0  0
 44 45  1  0  0  0  0
 44 51  1  0  0  0  0
 45 51  1  0  0  0  0
 46 67  1  0  0  0  0
 47 50  1  0  0  0  0
 47 67  1  0  0  0  0
 48 71  1  0  0  0  0
 49 66  1  0  0  0  0
 50 65  1  0  0  0  0
 51 57  1  0  0  0  0
 52 60  1  0  0  0  0
 53 61  1  0  0  0  0
 54 61  1  0  0  0  0
 55 61  1  0  0  0  0
 56 73  1  0  0  0  0
 57 58  1  0  0  0  0
 58 80  1  0  0  0  0
 59 61  1  0  0  0  0
 59 72  1  0  0  0  0
 60 73  1  0  0  0  0
 64 65  1  0  0  0  0
M  CHG  1  73   1
M  ISO  4  36 100  58 101  70 100  80 101
M  END
> <Batch ID>
0177

> <Smiles>
CNC(C)C(=O)NC(C(=O)N1Cc2cc([101O:1][101CH2:1]CC3(c4cc([100NH:0][100C:0](=O)N5CCCC(n6nc(-c7ccc(Oc8ccc(F)cc8F)cc7)c(C(N)=O)c6N)C5)ncn4)CC3)ccc2CC1C(=O)NC1CCCc2ccccc21)C(C)(C)C

> <Shape>
0.229

> <Color>
0.112

> <Negative vol penalty>
0.000

$$$$

  -OEChem-04052322523D

 95105  0     1  0  0  0  0  0999 V2000
  -21.5947  -28.7172   25.1138 C   0  0  0  0  0  0  0  0  0  0  0  0
  -22.2161  -27.5161   25.4403 C   0  0  0  0  0  0  0  0  0  0  0  0
  -30.0049  -23.8125   21.2404 C   0  0  0  0  0  0  0  0  0  0  0  0
  -27.9697  -23.2144   20.0840 C   0  0  0  0  0  0  0  0  0  0  0  0
  -20.7222  -28.7768   24.0280 C   0  0  0  0  0  0  0  0  0  0  0  0
  -21.9645  -26.3735   24.6816 C   0  0  0  0  0  0  0  0  0  0  0  0
  -25.1564  -20.3903   22.3730 C   0  0  0  0  0  0  0  0  0  0  0  0
  -29.7883  -25.1544   20.9277 C   0  0  0  0  0  0  0  0  0  0  0  0
  -27.7530  -24.5564   19.7713 C   0  0  0  0  0  0  0  0  0  0  0  0
  -24.9672  -19.0092   22.3487 C   0  0  0  0  0  0  0  0  0  0  0  0
  -26.4758  -27.8664   18.9774 C   0  0  0  0  0  0  0  0  0  0  0  0
  -25.1889  -28.3747   19.1539 C   0  0  0  0  0  0  0  0  0  0  0  0
  -23.5028  -19.2494   20.4469 C   0  0  0  0  0  0  0  0  0  0  0  0
  -25.2957  -27.8288   21.5051 C   0  0  0  0  0  0  0  0  0  0  0  0
  -29.0956  -22.8424   20.8185 C   0  0  0  0  0  0  0  0  0  0  0  0
  -29.4225  -20.8876   22.4246 C   0  0  0  0  0  0  0  0  0  0  0  0
  -20.4672  -27.6366   23.2497 C   0  0  0  0  0  0  0  0  0  0  0  0
  -24.5105  -21.2138   21.4396 C   0  0  0  0  0  0  0  0  0  0  0  0
  -21.0868  -26.4176   23.5851 C   0  0  0  0  0  0  0  0  0  0  0  0
  -23.6874  -20.6404   20.4599 C   0  0  0  0  0  0  0  0  0  0  0  0
  -24.3269  -14.8686   22.1386 C   0  0  0  0  0  0  0  0  0  0  0  0
  -28.6624  -25.5264   20.1931 C   0  0  0  0  0  0  0  0  0  0  0  0
  -24.1381  -18.4389   21.3873 C   0  0  0  0  0  0  0  0  0  0  0  0
  -27.1727  -27.3393   20.0647 C   0  0  0  0  0  0  0  0  0  0  0  0
  -24.5988  -28.3559   20.4177 C   0  0  0  0  0  0  0  0  0  0  0  0
  -26.5827  -27.3205   21.3285 C   0  0  0  0  0  0  0  0  0  0  0  0
  -29.3192  -21.4560   21.1408 C   0  0  0  0  0  0  0  0  0  0  0  0
  -23.7172  -14.0984   23.1078 C   0  0  0  0  0  0  0  0  0  0  0  0
  -24.6328  -14.2155   20.9621 C   0  0  0  0  0  0  0  0  0  0  0  0
  -29.6324  -19.5503   22.1921 C   0  0  0  0  0  0  0  0  0  0  0  0
  -23.7718  -12.2689   21.7598 C   0  0  0  0  0  0  0  0  0  0  0  0
  -29.3364  -21.5125   23.7121 C   0  0  0  0  0  0  0  0  0  0  0  0
  -22.3858  -23.5711   21.6197 C   0  0  0  0  0  0  0  0  0  0  0  0
  -22.9497  -23.7991   18.4334 C   0  0  0  0  0  0  0  0  0  0  0  0
  -23.9928  -22.2820   15.5599 C   0  0  0  0  0  0  0  0  0  0  0  0
  -28.2863  -15.9493   17.6016 C   0  0  0  0  0  0  0  0  0  0  0  0
  -19.4800  -27.7387   22.1141 C   0  0  0  0  0  0  0  0  0  0  0  0
  -24.7461  -22.6992   21.4626 C   0  0  0  0  0  0  0  0  0  0  0  0
  -22.9871  -21.4785   19.4228 C   0  0  0  0  0  0  0  0  0  0  0  0
  -19.5566  -26.5713   21.1336 C   0  0  0  0  0  0  0  0  0  0  0  0
  -31.5173  -16.5611   18.9667 C   0  0  0  0  0  0  0  0  0  0  0  0
  -19.6093  -25.2452   21.8856 C   0  0  0  0  0  0  0  0  0  0  0  0
  -31.3296  -17.8337   19.7945 C   0  0  0  0  0  0  0  0  0  0  0  0
  -22.1080  -15.5741   26.0828 C   0  0  0  0  0  0  0  0  0  0  0  0
  -30.6779  -16.5886   17.6912 C   0  0  0  0  0  0  0  0  0  0  0  0
  -22.1034  -15.3464   24.5703 C   0  0  0  0  0  0  0  0  0  0  0  0
  -22.8412  -10.0792   22.5638 C   0  0  0  0  0  0  0  0  0  0  0  0
  -29.0545  -18.1258   18.7282 C   0  0  0  0  0  0  0  0  0  0  0  0
  -24.2656  -14.7340   25.4747 C   0  0  0  0  0  0  0  0  0  0  0  0
  -23.8015  -10.1970   20.3410 C   0  0  0  0  0  0  0  0  0  0  0  0
  -20.8585  -25.1624   22.7711 C   0  0  1  0  0  0  0  0  0  0  0  0
  -23.6324  -23.4913   20.7847 C   0  0  1  0  0  0  0  0  0  0  0  0
  -23.0333   -8.6589   22.0101 C   0  0  2  0  0  0  0  0  0  0  0  0
  -29.8380  -18.1203   20.0519 C   0  0  2  0  0  0  0  0  0  0  0  0
  -23.5856  -15.7546   26.3804 C   0  0  2  0  0  0  0  0  0  0  0  0
  -23.0085   -8.9038   20.5049 C   0  0  2  0  0  0  0  0  0  0  0  0
  -21.9731   -7.6838   22.4949 C   0  0  0  0  0  0  0  0  0  0  0  0
  -24.6490  -22.0644   13.1475 C   0  0  0  0  0  0  0  0  0  0  0  0
  -24.6197  -16.2865   17.3269 C   0  0  0  0  0  0  0  0  0  0  0  0
  -19.9366  -23.5692   18.0106 C   0  0  0  0  0  0  0  0  0  0  0  0
  -20.3844  -23.0506   15.6025 C   0  0  0  0  0  0  0  0  0  0  0  0
  -21.0694  -25.2540   16.5503 C   0  0  0  0  0  0  0  0  0  0  0  0
  -26.8079  -22.9859   16.1419 C   0  0  0  0  0  0  0  0  0  0  0  0
  -24.6355  -16.3217   22.3496 C   0  0  0  0  0  0  0  0  0  1  0  0
  -25.6181  -14.3705   18.6750 C   0  0  0  0  0  0  0  0  0  0  0  0
  -22.3542  -23.1742   17.1949 C   0  0  1  0  0  0  0  0  0  0  0  0
  -24.9615  -22.7282   14.4796 C   0  0  2  0  0  0  0  0  0  0  0  0
  -25.8576  -15.4391   17.6047 C   0  0  2  0  0  0  0  0  0  0  0  0
  -20.9477  -23.7461   16.8602 C   0  0  0  0  0  0  0  0  0  0  0  0
  -29.4526  -20.5536   20.1651 N   0  0  0  0  0  0  0  0  0  0  0  0
  -23.4239  -12.7908   22.9515 N   0  0  0  0  0  0  0  0  0  0  0  0
  -24.3687  -12.9115   20.7379 N   0  0  0  0  0  0  0  0  0  0  0  0
  -29.6420  -19.4047   20.8360 N   0  0  0  0  0  0  0  0  0  0  0  0
  -23.3867  -14.6949   24.3058 N   0  0  3  0  0  0  0  0  0  0  0  0
  -23.4866  -10.9343   21.5652 N   0  0  3  0  0  0  0  0  0  0  0  0
  -23.2442  -22.9266   19.4906 N   0  0  0  0  0  0  0  0  0  0  0  0
  -29.2736  -16.8634   18.0050 N   0  0  0  0  0  0  0  0  0  0  0  0
  -29.8080  -18.4965   23.0173 N   0  0  0  0  0  0  0  0  0  0  0  0
  -29.1173  -22.8956   23.7701 N   0  0  0  0  0  0  0  0  0  0  0  0
  -25.2613  -14.9524   19.9277 N   0  0  0  0  0  0  0  0  0  0  0  0
  -22.0256  -24.8579   21.9715 N   0  0  0  0  0  0  0  0  0  0  0  0
  -23.3395  -23.3520   16.1338 N   0  0  0  0  0  0  0  0  0  0  0  0
  -26.9818  -16.2826   17.9446 N   0  0  0  0  0  0  0  0  0  0  0  0
  -23.8826  -15.4975   27.7997 N   0  3  0  0  0  0  0  0  0  0  0  0
  -23.6359   -7.7965   19.7606 N   0  3  0  0  0  0  0  0  0  0  0  0
  -26.3594  -22.3804   14.8616 N   0  3  0  0  0  0  0  0  0  0  0  0
  -29.4667  -20.8663   24.7793 O   0  0  0  0  0  0  0  0  0  0  0  0
  -21.7936  -22.5414   21.9211 O   0  0  0  0  0  0  0  0  0  0  0  0
  -23.1528  -25.0155   18.4590 O   0  0  0  0  0  0  0  0  0  0  0  0
  -23.8292  -21.1019   15.8617 O   0  0  0  0  0  0  0  0  0  0  0  0
  -28.5487  -14.9102   16.9865 O   0  0  0  0  0  0  0  0  0  0  0  0
  -28.4505  -26.8358   19.8880 O   0  0  0  0  0  0  0  0  0  0  0  0
  -23.9512  -17.0912   21.3617 O   0  0  0  0  0  0  0  0  0  1  0  0
  -23.3636  -28.8454   20.5874 F   0  0  0  0  0  0  0  0  0  0  0  0
  -27.2477  -26.8164   22.3771 F   0  0  0  0  0  0  0  0  0  0  0  0
  1  2  1  0  0  0  0
  1  5  2  0  0  0  0
  2  6  2  0  0  0  0
  3  8  2  0  0  0  0
  3 15  1  0  0  0  0
  4  9  1  0  0  0  0
  4 15  2  0  0  0  0
  5 17  1  0  0  0  0
  6 19  1  0  0  0  0
  7 10  2  0  0  0  0
  7 18  1  0  0  0  0
  8 22  1  0  0  0  0
  9 22  2  0  0  0  0
 10 23  1  0  0  0  0
 11 12  2  0  0  0  0
 11 24  1  0  0  0  0
 12 25  1  0  0  0  0
 13 20  1  0  0  0  0
 13 23  2  0  0  0  0
 14 25  2  0  0  0  0
 14 26  1  0  0  0  0
 15 27  1  0  0  0  0
 16 27  1  0  0  0  0
 16 30  2  0  0  0  0
 16 32  1  0  0  0  0
 17 19  2  0  0  0  0
 17 37  1  0  0  0  0
 18 20  2  0  0  0  0
 18 38  1  0  0  0  0
 19 51  1  0  0  0  0
 20 39  1  0  0  0  0
 21 28  2  0  0  0  0
 21 29  1  0  0  0  0
 21 64  1  0  0  0  0
 22 92  1  0  0  0  0
 23 93  1  0  0  0  0
 24 26  2  0  0  0  0
 24 92  1  0  0  0  0
 25 94  1  0  0  0  0
 26 95  1  0  0  0  0
 27 70  2  0  0  0  0
 28 71  1  0  0  0  0
 28 74  1  0  0  0  0
 29 72  2  0  0  0  0
 29 80  1  0  0  0  0
 30 73  1  0  0  0  0
 30 78  1  0  0  0  0
 31 71  2  0  0  0  0
 31 72  1  0  0  0  0
 31 75  1  0  0  0  0
 32 79  1  0  0  0  0
 32 87  2  0  0  0  0
 33 52  1  0  0  0  0
 33 81  1  0  0  0  0
 33 88  2  0  0  0  0
 34 66  1  0  0  0  0
 34 76  1  0  0  0  0
 34 89  2  0  0  0  0
 35 67  1  0  0  0  0
 35 82  1  0  0  0  0
 35 90  2  0  0  0  0
 36 77  1  0  0  0  0
 36 83  1  0  0  0  0
 36 91  2  0  0  0  0
 37 40  1  0  0  0  0
 38 52  1  0  0  0  0
 39 76  1  0  0  0  0
 40 42  1  0  0  0  0
 41 43  1  0  0  0  0
 41 45  1  0  0  0  0
 42 51  1  0  0  0  0
 43 54  1  0  0  0  0
 44 46  1  0  0  0  0
 44 55  1  0  0  0  0
 45 77  1  0  0  0  0
 46 74  1  0  0  0  0
 47 53  1  0  0  0  0
 47 75  1  0  0  0  0
 48 54  1  0  0  0  0
 48 77  1  0  0  0  0
 49 55  1  0  0  0  0
 49 74  1  0  0  0  0
 50 56  1  0  0  0  0
 50 75  1  0  0  0  0
 51 81  1  0  0  0  0
 52 76  1  0  0  0  0
 53 56  1  0  0  0  0
 53 57  1  0  0  0  0
 54 73  1  0  0  0  0
 55 84  1  0  0  0  0
 56 85  1  0  0  0  0
 58 67  1  0  0  0  0
 59 68  1  0  0  0  0
 60 69  1  0  0  0  0
 61 69  1  0  0  0  0
 62 69  1  0  0  0  0
 63 86  1  0  0  0  0
 64 93  1  0  0  0  0
 65 68  1  0  0  0  0
 65 80  1  0  0  0  0
 66 69  1  0  0  0  0
 66 82  1  0  0  0  0
 67 86  1  0  0  0  0
 68 83  1  0  0  0  0
 70 73  1  0  0  0  0
M  CHG  3  84   1  85   1  86   1
M  ISO  4  36 100  64 101  83 100  93 101
M  END
> <Batch ID>
0177

> <Smiles>
CNC(C)C(=O)NC(C(=O)N1Cc2cc([101O:1][101CH2:1]c3c(NCC(C)[100NH:0][100C:0](=O)N4CCCC(n5nc(-c6ccc(Oc7ccc(F)cc7F)cc6)c(C(N)=O)c5N)C4)nc(N4CC(C)C(N)C4)nc3N3CCC(N)C3)ccc2CC1C(=O)NC1CCCc2ccccc21)C(C)(C)C

> <Shape>
0.188

> <Color>
0.074

> <Negative vol penalty>
0.000

$$$$

  -OEChem-04052322523D

 86 96  0     1  0  0  0  0  0999 V2000
  -18.5757  -25.4039   22.2934 C   0  0  0  0  0  0  0  0  0  0  0  0
  -19.4866  -25.7400   21.2970 C   0  0  0  0  0  0  0  0  0  0  0  0
  -26.2242  -12.9122   21.4457 C   0  0  0  0  0  0  0  0  0  0  0  0
  -26.1316  -13.3849   19.0782 C   0  0  0  0  0  0  0  0  0  0  0  0
  -18.1495  -26.3718   23.2019 C   0  0  0  0  0  0  0  0  0  0  0  0
  -19.9709  -27.0446   21.2079 C   0  0  0  0  0  0  0  0  0  0  0  0
  -24.9775  -27.2117   20.4660 C   0  0  0  0  0  0  0  0  0  0  0  0
  -28.2988  -25.8771   16.9032 C   0  0  0  0  0  0  0  0  0  0  0  0
  -25.0285  -12.2004   21.3505 C   0  0  0  0  0  0  0  0  0  0  0  0
  -24.9358  -12.6731   18.9829 C   0  0  0  0  0  0  0  0  0  0  0  0
  -25.4386  -26.9601   19.1745 C   0  0  0  0  0  0  0  0  0  0  0  0
  -24.0270   -9.1393   20.3213 C   0  0  0  0  0  0  0  0  0  0  0  0
  -23.9539   -7.9053   20.9674 C   0  0  0  0  0  0  0  0  0  0  0  0
  -29.2715  -24.9209   17.1734 C   0  0  0  0  0  0  0  0  0  0  0  0
  -25.6772  -29.3318   18.8040 C   0  0  0  0  0  0  0  0  0  0  0  0
  -22.1150   -8.7164   22.3082 C   0  0  0  0  0  0  0  0  0  0  0  0
  -26.7758  -13.5045   20.3096 C   0  0  0  0  0  0  0  0  0  0  0  0
  -29.3158  -13.7350   20.2554 C   0  0  0  0  0  0  0  0  0  0  0  0
  -18.6362  -27.6866   23.1299 C   0  0  0  0  0  0  0  0  0  0  0  0
  -24.8523  -28.5280   20.9331 C   0  0  0  0  0  0  0  0  0  0  0  0
  -19.5497  -28.0313   22.1155 C   0  0  0  0  0  0  0  0  0  0  0  0
  -25.2167  -29.5974   20.1027 C   0  0  0  0  0  0  0  0  0  0  0  0
  -28.5957  -27.2263   17.0603 C   0  0  0  0  0  0  0  0  0  0  0  0
  -24.3843  -12.0808   20.1191 C   0  0  0  0  0  0  0  0  0  0  0  0
  -25.7857  -28.0202   18.3423 C   0  0  0  0  0  0  0  0  0  0  0  0
  -23.1442  -10.1619   20.6686 C   0  0  0  0  0  0  0  0  0  0  0  0
  -22.9979   -7.6938   21.9609 C   0  0  0  0  0  0  0  0  0  0  0  0
  -22.1882   -9.9504   21.6621 C   0  0  0  0  0  0  0  0  0  0  0  0
  -28.0107  -14.2404   20.4075 C   0  0  0  0  0  0  0  0  0  0  0  0
  -29.8699  -27.5647   17.4865 C   0  0  0  0  0  0  0  0  0  0  0  0
  -30.5155  -25.3625   17.5943 C   0  0  0  0  0  0  0  0  0  0  0  0
  -30.1300  -14.8255   20.4404 C   0  0  0  0  0  0  0  0  0  0  0  0
  -29.7530  -12.3992   19.9720 C   0  0  0  0  0  0  0  0  0  0  0  0
  -22.4340  -30.3335   21.9310 C   0  0  0  0  0  0  0  0  0  0  0  0
  -24.8031  -32.4348   22.6337 C   0  0  0  0  0  0  0  0  0  0  0  0
  -27.9795  -33.5275   22.0310 C   0  0  0  0  0  0  0  0  0  0  0  0
  -31.3462  -20.0458   19.3048 C   0  0  0  0  0  0  0  0  0  0  0  0
  -18.1103  -28.7098   24.1051 C   0  0  0  0  0  0  0  0  0  0  0  0
  -24.3787  -28.7817   22.3381 C   0  0  0  0  0  0  0  0  0  0  0  0
  -25.1198  -31.0280   20.5634 C   0  0  0  0  0  0  0  0  0  0  0  0
  -18.9572  -29.9780   24.1732 C   0  0  0  0  0  0  0  0  0  0  0  0
  -29.1239  -19.4523   22.1582 C   0  0  0  0  0  0  0  0  0  0  0  0
  -19.2939  -30.4711   22.7695 C   0  0  0  0  0  0  0  0  0  0  0  0
  -31.3322  -29.3598   18.6325 C   0  0  0  0  0  0  0  0  0  0  0  0
  -29.9101  -29.6768   18.9750 C   0  0  0  0  0  0  0  0  0  0  0  0
  -28.6990  -18.0100   21.9030 C   0  0  0  0  0  0  0  0  0  0  0  0
  -29.3330  -20.2352   20.8614 C   0  0  0  0  0  0  0  0  0  0  0  0
  -29.8342  -18.1256   19.6575 C   0  0  0  0  0  0  0  0  0  0  0  0
  -32.4103  -22.1607   18.3453 C   0  0  0  0  0  0  0  0  0  0  0  0
  -30.3530  -22.4211   18.8213 C   0  0  0  0  0  0  0  0  0  0  0  0
  -20.1169  -29.4297   22.0016 C   0  0  1  0  0  0  0  0  0  0  0  0
  -30.2329  -29.0027   17.6690 C   0  0  0  0  0  0  0  0  0  0  0  0
  -23.8031  -30.1812   22.5310 C   0  0  1  0  0  0  0  0  0  0  0  0
  -29.6887  -17.3173   20.9545 C   0  0  2  0  0  0  0  0  0  0  0  0
  -31.2752  -22.9900   17.7346 C   0  0  0  0  0  0  0  0  0  0  0  0
  -27.5561  -28.7059   15.3072 C   0  0  0  0  0  0  0  0  0  0  0  0
  -29.6235  -35.2885   22.7336 C   0  0  0  0  0  0  0  0  0  0  0  0
  -23.2812  -34.5075   20.9912 C   0  0  0  0  0  0  0  0  0  0  0  0
  -25.3675  -35.8904   20.9322 C   0  0  0  0  0  0  0  0  0  0  0  0
  -24.2717  -35.3818   23.1147 C   0  0  0  0  0  0  0  0  0  0  0  0
  -29.9124  -31.5037   22.9939 C   0  0  0  0  0  0  0  0  0  0  0  0
  -27.5551  -28.2525   16.7703 C   0  0  1  0  0  0  0  0  0  1  0  0
  -25.5029  -33.5455   21.8882 C   0  0  1  0  0  0  0  0  0  0  0  0
  -29.1212  -33.8727   22.9701 C   0  0  2  0  0  0  0  0  0  0  0  0
  -24.6059  -34.8046   21.7219 C   0  0  0  0  0  0  0  0  0  0  0  0
  -27.9921  -15.5500   20.6692 N   0  0  0  0  0  0  0  0  0  0  0  0
  -30.8409  -26.6643   17.7586 N   0  0  0  0  0  0  0  0  0  0  0  0
  -29.2957  -15.8768   20.6830 N   0  0  0  0  0  0  0  0  0  0  0  0
  -24.6454  -31.2248   21.9432 N   0  0  0  0  0  0  0  0  0  0  0  0
  -30.2076  -19.5197   19.9246 N   0  0  0  0  0  0  0  0  0  0  0  0
  -31.3637  -21.3899   19.0124 N   0  0  0  0  0  0  0  0  0  0  0  0
  -31.4711  -14.9782   20.4176 N   0  0  0  0  0  0  0  0  0  0  0  0
  -28.7843  -11.3992   19.8110 N   0  0  0  0  0  0  0  0  0  0  0  0
  -31.4836  -24.3889   17.8628 N   0  0  0  0  0  0  0  0  0  0  0  0
  -21.4965  -29.4539   22.4379 N   0  0  0  0  0  0  0  0  0  0  0  0
  -26.7520  -33.7916   22.6007 N   0  0  0  0  0  0  0  0  0  0  0  0
  -30.2588  -32.9309   22.7705 N   0  3  0  0  0  0  0  0  0  0  0  0
  -30.9673  -12.0981   19.8810 O   0  0  0  0  0  0  0  0  0  0  0  0
  -22.2420  -31.1868   21.0727 O   0  0  0  0  0  0  0  0  0  0  0  0
  -24.4172  -32.6313   23.7887 O   0  0  0  0  0  0  0  0  0  0  0  0
  -28.1589  -33.0729   20.9033 O   0  0  0  0  0  0  0  0  0  0  0  0
  -32.3085  -19.3324   18.9919 O   0  0  0  0  0  0  0  0  0  0  0  0
  -23.2175  -11.3861   20.0257 O   0  0  0  0  0  0  0  0  0  0  0  0
  -26.2366  -27.7767   17.0777 O   0  0  0  0  0  0  0  0  0  1  0  0
  -22.9267   -6.5083   22.5802 F   0  0  0  0  0  0  0  0  0  0  0  0
  -21.3366  -10.9286   21.9993 F   0  0  0  0  0  0  0  0  0  0  0  0
  1  2  1  0  0  0  0
  1  5  2  0  0  0  0
  2  6  2  0  0  0  0
  3  9  2  0  0  0  0
  3 17  1  0  0  0  0
  4 10  1  0  0  0  0
  4 17  2  0  0  0  0
  5 19  1  0  0  0  0
  6 21  1  0  0  0  0
  7 11  2  0  0  0  0
  7 20  1  0  0  0  0
  8 14  2  0  0  0  0
  8 23  1  0  0  0  0
  9 24  1  0  0  0  0
 10 24  2  0  0  0  0
 11 25  1  0  0  0  0
 12 13  2  0  0  0  0
 12 26  1  0  0  0  0
 13 27  1  0  0  0  0
 14 31  1  0  0  0  0
 15 22  1  0  0  0  0
 15 25  2  0  0  0  0
 16 27  2  0  0  0  0
 16 28  1  0  0  0  0
 17 29  1  0  0  0  0
 18 29  1  0  0  0  0
 18 32  2  0  0  0  0
 18 33  1  0  0  0  0
 19 21  2  0  0  0  0
 19 38  1  0  0  0  0
 20 22  2  0  0  0  0
 20 39  1  0  0  0  0
 21 51  1  0  0  0  0
 22 40  1  0  0  0  0
 23 30  2  0  0  0  0
 23 62  1  0  0  0  0
 24 83  1  0  0  0  0
 25 84  1  0  0  0  0
 26 28  2  0  0  0  0
 26 83  1  0  0  0  0
 27 85  1  0  0  0  0
 28 86  1  0  0  0  0
 29 66  2  0  0  0  0
 30 52  1  0  0  0  0
 30 67  1  0  0  0  0
 31 67  2  0  0  0  0
 31 74  1  0  0  0  0
 32 68  1  0  0  0  0
 32 72  1  0  0  0  0
 33 73  1  0  0  0  0
 33 78  2  0  0  0  0
 34 53  1  0  0  0  0
 34 75  1  0  0  0  0
 34 79  2  0  0  0  0
 35 63  1  0  0  0  0
 35 69  1  0  0  0  0
 35 80  2  0  0  0  0
 36 64  1  0  0  0  0
 36 76  1  0  0  0  0
 36 81  2  0  0  0  0
 37 70  1  0  0  0  0
 37 71  1  0  0  0  0
 37 82  2  0  0  0  0
 38 41  1  0  0  0  0
 39 53  1  0  0  0  0
 40 69  1  0  0  0  0
 41 43  1  0  0  0  0
 42 46  1  0  0  0  0
 42 47  1  0  0  0  0
 43 51  1  0  0  0  0
 44 45  1  0  0  0  0
 44 52  1  0  0  0  0
 45 52  1  0  0  0  0
 46 54  1  0  0  0  0
 47 70  1  0  0  0  0
 48 54  1  0  0  0  0
 48 70  1  0  0  0  0
 49 55  1  0  0  0  0
 49 71  1  0  0  0  0
 50 55  1  0  0  0  0
 50 71  1  0  0  0  0
 51 75  1  0  0  0  0
 53 69  1  0  0  0  0
 54 68  1  0  0  0  0
 55 74  1  0  0  0  0
 56 62  1  0  0  0  0
 57 64  1  0  0  0  0
 58 65  1  0  0  0  0
 59 65  1  0  0  0  0
 60 65  1  0  0  0  0
 61 77  1  0  0  0  0
 62 84  1  0  0  0  0
 63 65  1  0  0  0  0
 63 76  1  0  0  0  0
 64 77  1  0  0  0  0
 66 68  1  0  0  0  0
M  CHG  1  77   1
M  ISO  4  37 100  62 101  71 100  84 101
M  END
> <Batch ID>
0177

> <Smiles>
CNC(C)C(=O)NC(C(=O)N1Cc2cc([101O:1][101CH:1](C)c3ccc(NC4C[100N:0]([100C:0](=O)N5CCCC(n6nc(-c7ccc(Oc8ccc(F)cc8F)cc7)c(C(N)=O)c6N)C5)C4)nc3C3CC3)ccc2CC1C(=O)NC1CCCc2ccccc21)C(C)(C)C

> <Shape>
0.324

> <Color>
0.111

> <Negative vol penalty>
0.000

$$$$

  -OEChem-04052322523D

 87 97  0     1  0  0  0  0  0999 V2000
  -24.0466  -38.5290   18.9628 C   0  0  0  0  0  0  0  0  0  0  0  0
  -24.8559  -37.5466   18.4013 C   0  0  0  0  0  0  0  0  0  0  0  0
  -25.6808  -12.7737   21.3008 C   0  0  0  0  0  0  0  0  0  0  0  0
  -25.1124  -11.5538   19.2944 C   0  0  0  0  0  0  0  0  0  0  0  0
  -23.5836  -38.3860   20.2701 C   0  0  0  0  0  0  0  0  0  0  0  0
  -25.2036  -36.4209   19.1473 C   0  0  0  0  0  0  0  0  0  0  0  0
  -26.5989  -29.4353   18.3916 C   0  0  0  0  0  0  0  0  0  0  0  0
  -24.7898  -11.9875   22.0313 C   0  0  0  0  0  0  0  0  0  0  0  0
  -24.2215  -10.7675   20.0249 C   0  0  0  0  0  0  0  0  0  0  0  0
  -27.5709  -28.4899   18.7160 C   0  0  0  0  0  0  0  0  0  0  0  0
  -24.3786   -8.1240   22.1244 C   0  0  0  0  0  0  0  0  0  0  0  0
  -24.4009   -6.7469   21.9039 C   0  0  0  0  0  0  0  0  0  0  0  0
  -30.2686  -24.2942   19.3791 C   0  0  0  0  0  0  0  0  0  0  0  0
  -26.6476  -28.3116   20.9374 C   0  0  0  0  0  0  0  0  0  0  0  0
  -22.0882   -6.8208   21.2089 C   0  0  0  0  0  0  0  0  0  0  0  0
  -25.8421  -12.5569   19.9323 C   0  0  0  0  0  0  0  0  0  0  0  0
  -28.1269  -13.1152   18.9446 C   0  0  0  0  0  0  0  0  0  0  0  0
  -23.9178  -37.2534   21.0292 C   0  0  0  0  0  0  0  0  0  0  0  0
  -25.6491  -29.8347   19.3428 C   0  0  0  0  0  0  0  0  0  0  0  0
  -24.7457  -36.2632   20.4664 C   0  0  0  0  0  0  0  0  0  0  0  0
  -31.1398  -23.3208   19.8552 C   0  0  0  0  0  0  0  0  0  0  0  0
  -25.6630  -29.2603   20.6219 C   0  0  0  0  0  0  0  0  0  0  0  0
  -30.4122  -25.6124   19.7975 C   0  0  0  0  0  0  0  0  0  0  0  0
  -24.0602  -10.9844   21.3934 C   0  0  0  0  0  0  0  0  0  0  0  0
  -27.5972  -27.9300   19.9899 C   0  0  0  0  0  0  0  0  0  0  0  0
  -23.2111   -8.8496   21.8872 C   0  0  0  0  0  0  0  0  0  0  0  0
  -23.2557   -6.0953   21.4461 C   0  0  0  0  0  0  0  0  0  0  0  0
  -22.0659   -8.1980   21.4295 C   0  0  0  0  0  0  0  0  0  0  0  0
  -26.7619  -13.3691   19.1771 C   0  0  0  0  0  0  0  0  0  0  0  0
  -32.1300  -23.7138   20.7411 C   0  0  0  0  0  0  0  0  0  0  0  0
  -31.4349  -25.9029   20.6861 C   0  0  0  0  0  0  0  0  0  0  0  0
  -28.5480  -14.1754   18.1797 C   0  0  0  0  0  0  0  0  0  0  0  0
  -28.9414  -12.0189   19.3810 C   0  0  0  0  0  0  0  0  0  0  0  0
  -24.9101  -32.5834   20.7578 C   0  0  0  0  0  0  0  0  0  0  0  0
  -22.4585  -30.8461   21.9801 C   0  0  0  0  0  0  0  0  0  0  0  0
  -21.2193  -27.7813   22.8272 C   0  0  0  0  0  0  0  0  0  0  0  0
  -28.7204  -19.5092   16.9379 C   0  0  0  0  0  0  0  0  0  0  0  0
  -23.4323  -37.1655   22.4544 C   0  0  0  0  0  0  0  0  0  0  0  0
  -24.5907  -30.8359   18.9689 C   0  0  0  0  0  0  0  0  0  0  0  0
  -24.6531  -29.6401   21.6728 C   0  0  0  0  0  0  0  0  0  0  0  0
  -23.5388  -35.7635   23.0488 C   0  0  0  0  0  0  0  0  0  0  0  0
  -25.9281  -17.7989   15.8307 C   0  0  0  0  0  0  0  0  0  0  0  0
  -24.9057  -35.1578   22.7464 C   0  0  0  0  0  0  0  0  0  0  0  0
  -32.6995  -21.8993   22.4895 C   0  0  0  0  0  0  0  0  0  0  0  0
  -33.7532  -22.9562   22.6038 C   0  0  0  0  0  0  0  0  0  0  0  0
  -25.9979  -16.4670   16.5774 C   0  0  0  0  0  0  0  0  0  0  0  0
  -29.6332  -21.2834   19.8252 C   0  0  0  0  0  0  0  0  0  0  0  0
  -31.1934  -21.7309   17.8823 C   0  0  0  0  0  0  0  0  0  0  0  0
  -26.3146  -18.9570   16.7433 C   0  0  0  0  0  0  0  0  0  0  0  0
  -29.4717  -19.8416   19.3349 C   0  0  0  0  0  0  0  0  0  0  0  0
  -31.0166  -20.2769   17.4544 C   0  0  0  0  0  0  0  0  0  0  0  0
  -27.7511  -17.4831   18.1152 C   0  0  0  0  0  0  0  0  0  0  0  0
  -30.9864  -21.8816   19.4003 C   0  0  0  0  0  0  0  0  0  0  0  0
  -25.1242  -35.0159   21.2352 C   0  0  1  0  0  0  0  0  0  0  0  0
  -33.0895  -22.7014   21.2776 C   0  0  0  0  0  0  0  0  0  0  0  0
  -23.9891  -31.5485   20.1763 C   0  0  1  0  0  0  0  0  0  0  0  0
  -27.3757  -16.2735   17.2352 C   0  0  1  0  0  0  0  0  0  0  0  0
  -31.6390  -27.3023   21.1666 C   0  0  0  0  0  0  0  0  0  0  0  0
  -19.2033  -26.6830   23.8405 C   0  0  0  0  0  0  0  0  0  0  0  0
  -23.3525  -31.7653   24.7488 C   0  0  0  0  0  0  0  0  0  0  0  0
  -21.9546  -29.9352   25.7312 C   0  0  0  0  0  0  0  0  0  0  0  0
  -20.8755  -31.7508   24.4037 C   0  0  0  0  0  0  0  0  0  0  0  0
  -20.6871  -26.2242   20.3672 C   0  0  0  0  0  0  0  0  0  0  0  0
  -29.4820  -26.6595   19.2905 C   0  0  0  0  0  0  0  0  0  1  0  0
  -22.2588  -30.0003   23.2144 C   0  0  1  0  0  0  0  0  0  0  0  0
  -19.8781  -27.1258   22.5516 C   0  0  2  0  0  0  0  0  0  0  0  0
  -22.1307  -30.8570   24.5056 C   0  0  0  0  0  0  0  0  0  0  0  0
  -26.3436  -14.5019   18.6062 N   0  0  0  0  0  0  0  0  0  0  0  0
  -32.3007  -24.9844   21.1703 N   0  0  0  0  0  0  0  0  0  0  0  0
  -27.4523  -14.9692   18.0075 N   0  0  0  0  0  0  0  0  0  0  0  0
  -23.6421  -30.6279   21.2609 N   0  0  0  0  0  0  0  0  0  0  0  0
  -27.6263  -18.7341   17.3510 N   0  0  0  0  0  0  0  0  0  0  0  0
  -29.7219  -19.7537   17.8896 N   0  0  0  0  0  0  0  0  0  0  0  0
  -29.7448  -14.4968   17.6443 N   0  0  0  0  0  0  0  0  0  0  0  0
  -28.3494  -11.0153   20.1599 N   0  0  0  0  0  0  0  0  0  0  0  0
  -24.4038  -33.8687   20.7259 N   0  0  0  0  0  0  0  0  0  0  0  0
  -21.1042  -29.1503   22.9443 N   0  0  0  0  0  0  0  0  0  0  0  0
  -20.0552  -25.9305   21.6793 N   0  3  0  0  0  0  0  0  0  0  0  0
  -30.1620  -11.9402   19.1027 O   0  0  0  0  0  0  0  0  0  0  0  0
  -25.9989  -32.2410   21.2039 O   0  0  0  0  0  0  0  0  0  0  0  0
  -21.5928  -31.6652   21.6616 O   0  0  0  0  0  0  0  0  0  0  0  0
  -22.2639  -27.1423   22.9321 O   0  0  0  0  0  0  0  0  0  0  0  0
  -28.7990  -19.9560   15.7867 O   0  0  0  0  0  0  0  0  0  0  0  0
  -23.1908  -10.2169   22.1059 O   0  0  0  0  0  0  0  0  0  0  0  0
  -28.5515  -27.0013   20.3114 O   0  0  0  0  0  0  0  0  0  1  0  0
  -23.2777   -4.7731   21.2329 F   0  0  0  0  0  0  0  0  0  0  0  0
  -20.9417   -8.8898   21.1987 F   0  0  0  0  0  0  0  0  0  0  0  0
  1  2  1  0  0  0  0
  1  5  2  0  0  0  0
  2  6  2  0  0  0  0
  3  8  2  0  0  0  0
  3 16  1  0  0  0  0
  4  9  1  0  0  0  0
  4 16  2  0  0  0  0
  5 18  1  0  0  0  0
  6 20  1  0  0  0  0
  7 10  2  0  0  0  0
  7 19  1  0  0  0  0
  8 24  1  0  0  0  0
  9 24  2  0  0  0  0
 10 25  1  0  0  0  0
 11 12  2  0  0  0  0
 11 26  1  0  0  0  0
 12 27  1  0  0  0  0
 13 21  2  0  0  0  0
 13 23  1  0  0  0  0
 14 22  1  0  0  0  0
 14 25  2  0  0  0  0
 15 27  2  0  0  0  0
 15 28  1  0  0  0  0
 16 29  1  0  0  0  0
 17 29  1  0  0  0  0
 17 32  2  0  0  0  0
 17 33  1  0  0  0  0
 18 20  2  0  0  0  0
 18 38  1  0  0  0  0
 19 22  2  0  0  0  0
 19 39  1  0  0  0  0
 20 54  1  0  0  0  0
 21 30  1  0  0  0  0
 21 53  1  0  0  0  0
 22 40  1  0  0  0  0
 23 31  2  0  0  0  0
 23 64  1  0  0  0  0
 24 84  1  0  0  0  0
 25 85  1  0  0  0  0
 26 28  2  0  0  0  0
 26 84  1  0  0  0  0
 27 86  1  0  0  0  0
 28 87  1  0  0  0  0
 29 68  2  0  0  0  0
 30 55  1  0  0  0  0
 30 69  2  0  0  0  0
 31 58  1  0  0  0  0
 31 69  1  0  0  0  0
 32 70  1  0  0  0  0
 32 74  1  0  0  0  0
 33 75  1  0  0  0  0
 33 79  2  0  0  0  0
 34 56  1  0  0  0  0
 34 76  1  0  0  0  0
 34 80  2  0  0  0  0
 35 65  1  0  0  0  0
 35 71  1  0  0  0  0
 35 81  2  0  0  0  0
 36 66  1  0  0  0  0
 36 77  1  0  0  0  0
 36 82  2  0  0  0  0
 37 72  1  0  0  0  0
 37 73  1  0  0  0  0
 37 83  2  0  0  0  0
 38 41  1  0  0  0  0
 39 56  1  0  0  0  0
 40 71  1  0  0  0  0
 41 43  1  0  0  0  0
 42 46  1  0  0  0  0
 42 49  1  0  0  0  0
 43 54  1  0  0  0  0
 44 45  1  0  0  0  0
 44 55  1  0  0  0  0
 45 55  1  0  0  0  0
 46 57  1  0  0  0  0
 47 50  1  0  0  0  0
 47 53  1  0  0  0  0
 48 51  1  0  0  0  0
 48 53  1  0  0  0  0
 49 72  1  0  0  0  0
 50 73  1  0  0  0  0
 51 73  1  0  0  0  0
 52 57  1  0  0  0  0
 52 72  1  0  0  0  0
 54 76  1  0  0  0  0
 56 71  1  0  0  0  0
 57 70  1  0  0  0  0
 59 66  1  0  0  0  0
 60 67  1  0  0  0  0
 61 67  1  0  0  0  0
 62 67  1  0  0  0  0
 63 78  1  0  0  0  0
 64 85  1  0  0  0  0
 65 67  1  0  0  0  0
 65 77  1  0  0  0  0
 66 78  1  0  0  0  0
 68 70  1  0  0  0  0
M  CHG  1  78   1
M  ISO  4  37 100  64 101  73 100  85 101
M  END
> <Batch ID>
0177

> <Smiles>
CNC(C)C(=O)NC(C(=O)N1Cc2cc([101O:1][101CH2:1]c3cc(C4CC[100N:0]([100C:0](=O)N5CCCC(n6nc(-c7ccc(Oc8ccc(F)cc8F)cc7)c(C(N)=O)c6N)C5)CC4)c(C4CC4)nc3C)ccc2CC1C(=O)NC1CCCc2ccccc21)C(C)(C)C

> <Shape>
0.277

> <Color>
0.057

> <Negative vol penalty>
0.000

$$$$

  -OEChem-04052322523D

 82 92  0     1  0  0  0  0  0999 V2000
  -27.6134  -17.4614   18.7933 C   0  0  0  0  0  0  0  0  0  0  0  0
  -26.5718  -18.3778   18.8977 C   0  0  0  0  0  0  0  0  0  0  0  0
  -22.8473  -16.4410   23.2642 C   0  0  0  0  0  0  0  0  0  0  0  0
  -22.2703  -17.6803   21.2722 C   0  0  0  0  0  0  0  0  0  0  0  0
  -28.8428  -17.7340   19.3917 C   0  0  0  0  0  0  0  0  0  0  0  0
  -26.7588  -19.5669   19.6017 C   0  0  0  0  0  0  0  0  0  0  0  0
  -24.3151  -25.0322   18.3115 C   0  0  0  0  0  0  0  0  0  0  0  0
  -22.9231  -15.2684   22.5127 C   0  0  0  0  0  0  0  0  0  0  0  0
  -22.3462  -16.5077   20.5207 C   0  0  0  0  0  0  0  0  0  0  0  0
  -23.2087  -25.7092   18.8226 C   0  0  0  0  0  0  0  0  0  0  0  0
  -23.6220  -12.0119   21.0560 C   0  0  0  0  0  0  0  0  0  0  0  0
  -24.7116  -11.1695   21.2767 C   0  0  0  0  0  0  0  0  0  0  0  0
  -24.6518  -26.9142   20.3341 C   0  0  0  0  0  0  0  0  0  0  0  0
  -26.2163  -12.9480   20.6362 C   0  0  0  0  0  0  0  0  0  0  0  0
  -22.5208  -17.6470   22.6440 C   0  0  0  0  0  0  0  0  0  0  0  0
  -23.4831  -19.7683   23.6840 C   0  0  0  0  0  0  0  0  0  0  0  0
  -29.0480  -18.9314   20.0952 C   0  0  0  0  0  0  0  0  0  0  0  0
  -25.5990  -25.2836   18.8162 C   0  0  0  0  0  0  0  0  0  0  0  0
  -27.9917  -19.8551   20.2113 C   0  0  0  0  0  0  0  0  0  0  0  0
  -25.7732  -26.2409   19.8259 C   0  0  0  0  0  0  0  0  0  0  0  0
  -22.6726  -15.3017   21.1410 C   0  0  0  0  0  0  0  0  0  0  0  0
  -23.3766  -26.6483   19.8360 C   0  0  0  0  0  0  0  0  0  0  0  0
  -23.8295  -13.3223   20.6252 C   0  0  0  0  0  0  0  0  0  0  0  0
  -26.0087  -11.6375   21.0668 C   0  0  0  0  0  0  0  0  0  0  0  0
  -25.1266  -13.7903   20.4154 C   0  0  0  0  0  0  0  0  0  0  0  0
  -22.4418  -18.8586   23.4198 C   0  0  0  0  0  0  0  0  0  0  0  0
  -22.9003  -20.7421   24.4576 C   0  0  0  0  0  0  0  0  0  0  0  0
  -24.8546  -19.7361   23.2672 C   0  0  0  0  0  0  0  0  0  0  0  0
  -27.8049  -23.5442   20.3036 C   0  0  0  0  0  0  0  0  0  0  0  0
  -29.5957  -26.2263   19.9544 C   0  0  0  0  0  0  0  0  0  0  0  0
  -29.6914  -29.6110   19.5283 C   0  0  0  0  0  0  0  0  0  0  0  0
  -18.6700  -24.2194   25.5340 C   0  0  0  0  0  0  0  0  0  0  0  0
  -30.3795  -19.1606   20.7653 C   0  0  0  0  0  0  0  0  0  0  0  0
  -26.7856  -24.5643   18.2356 C   0  0  0  0  0  0  0  0  0  0  0  0
  -27.1331  -26.5622   20.3880 C   0  0  0  0  0  0  0  0  0  0  0  0
  -30.6131  -20.6124   21.1754 C   0  0  0  0  0  0  0  0  0  0  0  0
  -18.3823  -20.8776   26.7283 C   0  0  0  0  0  0  0  0  0  0  0  0
  -29.3809  -21.1736   21.8779 C   0  0  0  0  0  0  0  0  0  0  0  0
  -19.4942  -20.1288   25.9914 C   0  0  0  0  0  0  0  0  0  0  0  0
  -17.7922  -28.2883   22.7177 C   0  0  0  0  0  0  0  0  0  0  0  0
  -19.9370  -28.6433   21.4382 C   0  0  0  0  0  0  0  0  0  0  0  0
  -19.7295  -28.6847   23.9527 C   0  0  0  0  0  0  0  0  0  0  0  0
  -18.8748  -26.3554   21.6270 C   0  0  0  0  0  0  0  0  0  0  0  0
  -20.8192  -26.7451   22.8598 C   0  0  0  0  0  0  0  0  0  0  0  0
  -17.7394  -21.9449   25.8454 C   0  0  0  0  0  0  0  0  0  0  0  0
  -19.7974  -22.1535   24.5056 C   0  0  0  0  0  0  0  0  0  0  0  0
  -28.1635  -21.1672   20.9455 C   0  0  1  0  0  0  0  0  0  0  0  0
  -27.9826  -24.5267   19.1807 C   0  0  1  0  0  0  0  0  0  0  0  0
  -19.0740  -29.1195   22.6409 C   0  0  2  0  0  0  0  0  0  0  0  0
  -18.3649  -26.8862   22.9767 C   0  0  1  0  0  0  0  0  0  0  0  0
  -20.5136  -21.1048   25.3738 C   0  0  2  0  0  0  0  0  0  0  0  0
  -20.2091  -27.1049   21.4971 C   0  0  2  0  0  0  0  0  0  0  0  0
  -19.6750  -27.1500   23.8122 C   0  0  2  0  0  0  0  0  0  0  0  0
  -31.3004  -31.5250   19.3165 C   0  0  0  0  0  0  0  0  0  0  0  0
  -30.1099  -26.1235   22.9602 C   0  0  0  0  0  0  0  0  0  0  0  0
  -30.8848  -28.5011   22.8385 C   0  0  0  0  0  0  0  0  0  0  0  0
  -32.1065  -26.7270   21.5804 C   0  0  0  0  0  0  0  0  0  0  0  0
  -28.7112  -30.2866   16.8188 C   0  0  0  0  0  0  0  0  0  0  0  0
  -19.7295  -26.4297   25.1456 C   0  0  0  0  0  0  0  0  0  0  0  0
  -21.0489  -26.6289   20.3235 C   0  0  0  0  0  0  0  0  0  1  0  0
  -29.8280  -27.4712   20.7762 C   0  0  1  0  0  0  0  0  0  0  0  0
  -30.4815  -30.4836   18.5698 C   0  0  2  0  0  0  0  0  0  0  0  0
  -30.7063  -27.1985   22.0298 C   0  0  0  0  0  0  0  0  0  0  0  0
  -21.2851  -19.2219   23.9803 N   0  0  0  0  0  0  0  0  0  0  0  0
  -21.5962  -20.3707   24.6044 N   0  0  0  0  0  0  0  0  0  0  0  0
  -28.2613  -25.8278   19.7919 N   0  0  0  0  0  0  0  0  0  0  0  0
  -18.7598  -22.8386   25.2923 N   0  0  0  0  0  0  0  0  0  0  0  0
  -23.3812  -21.8712   25.0199 N   0  0  0  0  0  0  0  0  0  0  0  0
  -25.2873  -18.6636   22.4755 N   0  0  0  0  0  0  0  0  0  0  0  0
  -28.2397  -22.2665   20.0073 N   0  0  0  0  0  0  0  0  0  0  0  0
  -30.3818  -28.4654   19.8633 N   0  0  0  0  0  0  0  0  0  0  0  0
  -19.6811  -24.9942   24.9790 N   0  0  0  0  0  0  0  0  0  0  0  0
  -29.5613  -31.1911   17.6351 N   0  3  0  0  0  0  0  0  0  0  0  0
  -25.6761  -20.6233   23.6011 O   0  0  0  0  0  0  0  0  0  0  0  0
  -27.3114  -23.9181   21.3611 O   0  0  0  0  0  0  0  0  0  0  0  0
  -30.5622  -25.6334   19.4685 O   0  0  0  0  0  0  0  0  0  0  0  0
  -28.5751  -29.9169   19.9416 O   0  0  0  0  0  0  0  0  0  0  0  0
  -17.7593  -24.7237   26.1998 O   0  0  0  0  0  0  0  0  0  0  0  0
  -22.7467  -14.1577   20.4073 O   0  0  0  0  0  0  0  0  0  0  0  0
  -22.2892  -27.3156   20.3414 O   0  0  0  0  0  0  0  0  0  1  0  0
  -27.0550  -10.8289   21.2803 F   0  0  0  0  0  0  0  0  0  0  0  0
  -25.3323  -15.0486   20.0028 F   0  0  0  0  0  0  0  0  0  0  0  0
  1  2  1  0  0  0  0
  1  5  2  0  0  0  0
  2  6  2  0  0  0  0
  3  8  2  0  0  0  0
  3 15  1  0  0  0  0
  4  9  1  0  0  0  0
  4 15  2  0  0  0  0
  5 17  1  0  0  0  0
  6 19  1  0  0  0  0
  7 10  2  0  0  0  0
  7 18  1  0  0  0  0
  8 21  1  0  0  0  0
  9 21  2  0  0  0  0
 10 22  1  0  0  0  0
 11 12  2  0  0  0  0
 11 23  1  0  0  0  0
 12 24  1  0  0  0  0
 13 20  1  0  0  0  0
 13 22  2  0  0  0  0
 14 24  2  0  0  0  0
 14 25  1  0  0  0  0
 15 26  1  0  0  0  0
 16 26  1  0  0  0  0
 16 27  2  0  0  0  0
 16 28  1  0  0  0  0
 17 19  2  0  0  0  0
 17 33  1  0  0  0  0
 18 20  2  0  0  0  0
 18 34  1  0  0  0  0
 19 47  1  0  0  0  0
 20 35  1  0  0  0  0
 21 79  1  0  0  0  0
 22 80  1  0  0  0  0
 23 25  2  0  0  0  0
 23 79  1  0  0  0  0
 24 81  1  0  0  0  0
 25 82  1  0  0  0  0
 26 64  2  0  0  0  0
 27 65  1  0  0  0  0
 27 68  1  0  0  0  0
 28 69  1  0  0  0  0
 28 74  2  0  0  0  0
 29 48  1  0  0  0  0
 29 70  1  0  0  0  0
 29 75  2  0  0  0  0
 30 61  1  0  0  0  0
 30 66  1  0  0  0  0
 30 76  2  0  0  0  0
 31 62  1  0  0  0  0
 31 71  1  0  0  0  0
 31 77  2  0  0  0  0
 32 67  1  0  0  0  0
 32 72  1  0  0  0  0
 32 78  2  0  0  0  0
 33 36  1  0  0  0  0
 34 48  1  0  0  0  0
 35 66  1  0  0  0  0
 36 38  1  0  0  0  0
 37 39  1  0  0  0  0
 37 45  1  0  0  0  0
 38 47  1  0  0  0  0
 39 51  1  0  0  0  0
 40 49  1  0  0  0  0
 40 50  1  0  0  0  0
 41 49  1  0  0  0  0
 41 52  1  0  0  0  0
 42 49  1  0  0  0  0
 42 53  1  0  0  0  0
 43 50  1  0  0  0  0
 43 52  1  0  0  0  0
 44 52  1  0  0  0  0
 44 53  1  0  0  0  0
 45 67  1  0  0  0  0
 46 51  1  0  0  0  0
 46 67  1  0  0  0  0
 47 70  1  0  0  0  0
 48 66  1  0  0  0  0
 50 53  1  0  0  0  0
 51 65  1  0  0  0  0
 52 60  1  0  0  0  0
 53 59  1  0  0  0  0
 54 62  1  0  0  0  0
 55 63  1  0  0  0  0
 56 63  1  0  0  0  0
 57 63  1  0  0  0  0
 58 73  1  0  0  0  0
 59 72  1  0  0  0  0
 60 80  1  0  0  0  0
 61 63  1  0  0  0  0
 61 71  1  0  0  0  0
 62 73  1  0  0  0  0
 64 65  1  0  0  0  0
M  CHG  1  73   1
M  ISO  4  32 100  60 101  72 100  80 101
M  END
> <Batch ID>
0177

> <Smiles>
CNC(C)C(=O)NC(C(=O)N1Cc2cc([101O:1][101CH2:1]C34CC5CC(C3)C(C[100NH:0][100C:0](=O)N3CCCC(n6nc(-c7ccc(Oc8ccc(F)cc8F)cc7)c(C(N)=O)c6N)C3)(C5)C4)ccc2CC1C(=O)NC1CCCc2ccccc21)C(C)(C)C

> <Shape>
0.203

> <Color>
0.102

> <Negative vol penalty>
0.000

$$$$

  -OEChem-04052322523D

 83 91  0     1  0  0  0  0  0999 V2000
  -18.2688  -27.5739   22.1779 C   0  0  0  0  0  0  0  0  0  0  0  0
  -19.1077  -27.2592   21.1136 C   0  0  0  0  0  0  0  0  0  0  0  0
  -22.4299  -14.7585   19.7278 C   0  0  0  0  0  0  0  0  0  0  0  0
  -22.3867  -12.5389   18.7747 C   0  0  0  0  0  0  0  0  0  0  0  0
  -18.7542  -27.5274   23.4841 C   0  0  0  0  0  0  0  0  0  0  0  0
  -20.4330  -26.8989   21.3549 C   0  0  0  0  0  0  0  0  0  0  0  0
  -25.6300  -22.6898   18.7877 C   0  0  0  0  0  0  0  0  0  0  0  0
  -21.2457  -15.0686   19.0593 C   0  0  0  0  0  0  0  0  0  0  0  0
  -21.2024  -12.8490   18.1061 C   0  0  0  0  0  0  0  0  0  0  0  0
  -26.9614  -22.7502   18.3785 C   0  0  0  0  0  0  0  0  0  0  0  0
  -18.0416  -16.3259   17.8894 C   0  0  0  0  0  0  0  0  0  0  0  0
  -17.0461  -16.9886   18.6072 C   0  0  0  0  0  0  0  0  0  0  0  0
  -27.6684  -22.6273   20.6816 C   0  0  0  0  0  0  0  0  0  0  0  0
  -16.9419  -15.1449   20.1651 C   0  0  0  0  0  0  0  0  0  0  0  0
  -23.0005  -13.4936   19.5855 C   0  0  0  0  0  0  0  0  0  0  0  0
  -24.3538  -12.6174   21.5624 C   0  0  0  0  0  0  0  0  0  0  0  0
  -20.0835  -27.1570   23.7421 C   0  0  0  0  0  0  0  0  0  0  0  0
  -25.3069  -22.6085   20.1498 C   0  0  0  0  0  0  0  0  0  0  0  0
  -20.9370  -26.8487   22.6657 C   0  0  0  0  0  0  0  0  0  0  0  0
  -26.3321  -22.5634   21.1053 C   0  0  0  0  0  0  0  0  0  0  0  0
  -20.6319  -14.1139   18.2484 C   0  0  0  0  0  0  0  0  0  0  0  0
  -27.9808  -22.7219   19.3257 C   0  0  0  0  0  0  0  0  0  0  0  0
  -18.4872  -15.0725   18.3094 C   0  0  0  0  0  0  0  0  0  0  0  0
  -16.4963  -16.3982   19.7451 C   0  0  0  0  0  0  0  0  0  0  0  0
  -17.9374  -14.4821   19.4473 C   0  0  0  0  0  0  0  0  0  0  0  0
  -24.2241  -13.1728   20.2754 C   0  0  0  0  0  0  0  0  0  0  0  0
  -25.7094  -12.5078   21.7540 C   0  0  0  0  0  0  0  0  0  0  0  0
  -23.3396  -12.2346   22.5008 C   0  0  0  0  0  0  0  0  0  0  0  0
  -23.7033  -24.4461   22.1884 C   0  0  0  0  0  0  0  0  0  0  0  0
  -24.1780  -21.9507   24.2057 C   0  0  0  0  0  0  0  0  0  0  0  0
  -26.0367  -19.2128   25.0403 C   0  0  0  0  0  0  0  0  0  0  0  0
  -30.4064  -15.3163   19.6292 C   0  0  0  0  0  0  0  0  0  0  0  0
  -20.5761  -27.1668   25.1676 C   0  0  0  0  0  0  0  0  0  0  0  0
  -23.8665  -22.5172   20.5732 C   0  0  0  0  0  0  0  0  0  0  0  0
  -26.0388  -22.4562   22.5787 C   0  0  0  0  0  0  0  0  0  0  0  0
  -21.8886  -26.4124   25.3636 C   0  0  0  0  0  0  0  0  0  0  0  0
  -29.8038  -11.9217   19.3624 C   0  0  0  0  0  0  0  0  0  0  0  0
  -22.8934  -26.7994   24.2831 C   0  0  0  0  0  0  0  0  0  0  0  0
  -28.3171  -11.7887   19.6910 C   0  0  0  0  0  0  0  0  0  0  0  0
  -30.0620  -13.1448   18.4902 C   0  0  0  0  0  0  0  0  0  0  0  0
  -28.0884  -14.3083   19.4231 C   0  0  0  0  0  0  0  0  0  0  0  0
  -29.0662  -17.1989   18.5933 C   0  0  0  0  0  0  0  0  0  0  0  0
  -31.3094  -18.7293   19.6469 C   0  0  0  0  0  0  0  0  0  0  0  0
  -22.3739  -26.4293   22.8886 C   0  0  1  0  0  0  0  0  0  0  0  0
  -23.6392  -22.9547   22.0169 C   0  0  1  0  0  0  0  0  0  0  0  0
  -27.7701  -13.0873   20.3097 C   0  0  1  0  0  0  0  0  0  0  0  0
  -30.6355  -17.6399   20.4771 C   0  0  1  0  0  0  0  0  0  0  0  0
  -29.7292  -18.2951   17.7465 C   0  0  1  0  0  0  0  0  0  0  0  0
  -28.6924  -18.9246   16.8178 C   0  0  0  0  0  0  0  0  0  0  0  0
  -29.0628  -17.1176   22.3485 C   0  0  0  0  0  0  0  0  0  0  0  0
  -26.6889  -17.1314   26.2811 C   0  0  0  0  0  0  0  0  0  0  0  0
  -32.0917  -22.7741   18.1567 C   0  0  0  0  0  0  0  0  0  0  0  0
  -25.3708  -23.9412   26.1869 C   0  0  0  0  0  0  0  0  0  0  0  0
  -26.3589  -22.0056   27.4300 C   0  0  0  0  0  0  0  0  0  0  0  0
  -23.8825  -22.2129   27.2128 C   0  0  0  0  0  0  0  0  0  0  0  0
  -24.4227  -17.4987   23.2470 C   0  0  0  0  0  0  0  0  0  0  0  0
  -29.6527  -18.2007   21.5090 C   0  0  0  0  0  0  0  0  0  0  0  0
  -30.9854  -20.4938   17.9413 C   0  0  0  0  0  0  0  0  0  0  0  0
  -30.2423  -22.1223   19.7524 C   0  0  0  0  0  0  0  0  0  1  0  0
  -25.2538  -21.5620   25.1909 C   0  0  1  0  0  0  0  0  0  0  0  0
  -25.6340  -17.7969   25.4109 C   0  0  2  0  0  0  0  0  0  0  0  0
  -31.4092  -21.6169   18.8948 C   0  0  2  0  0  0  0  0  0  0  0  0
  -25.2223  -22.4344   26.4776 C   0  0  0  0  0  0  0  0  0  0  0  0
  -25.4032  -13.4004   19.6908 N   0  0  0  0  0  0  0  0  0  0  0  0
  -26.2868  -12.9860   20.6147 N   0  0  0  0  0  0  0  0  0  0  0  0
  -24.6146  -22.3761   22.9431 N   0  0  0  0  0  0  0  0  0  0  0  0
  -29.5246  -14.3568   19.1083 N   0  0  0  0  0  0  0  0  0  0  0  0
  -29.9772  -16.6543   19.6085 N   0  0  0  0  0  0  0  0  0  0  0  0
  -26.4520  -12.0501   22.7844 N   0  0  0  0  0  0  0  0  0  0  0  0
  -21.9964  -12.4150   22.1435 N   0  0  0  0  0  0  0  0  0  0  0  0
  -22.5299  -25.0102   22.6514 N   0  0  0  0  0  0  0  0  0  0  0  0
  -25.0882  -20.1331   25.4337 N   0  0  0  0  0  0  0  0  0  0  0  0
  -30.3295  -19.3465   18.6708 N   0  3  2  0  0  0  0  0  0  0  0  0
  -25.4493  -16.9727   24.1831 N   0  3  0  0  0  0  0  0  0  0  0  0
  -23.6166  -11.7623   23.6294 O   0  0  0  0  0  0  0  0  0  0  0  0
  -24.7411  -25.0408   21.9218 O   0  0  0  0  0  0  0  0  0  0  0  0
  -22.9937  -21.8726   24.5416 O   0  0  0  0  0  0  0  0  0  0  0  0
  -27.0892  -19.4766   24.4631 O   0  0  0  0  0  0  0  0  0  0  0  0
  -31.5112  -14.9956   20.0847 O   0  0  0  0  0  0  0  0  0  0  0  0
  -19.4762  -14.4161   17.5961 O   0  0  0  0  0  0  0  0  0  0  0  0
  -29.2900  -22.7818   18.9265 O   0  0  0  0  0  0  0  0  0  1  0  0
  -15.5414  -17.0355   20.4352 F   0  0  0  0  0  0  0  0  0  0  0  0
  -18.3623  -13.2788   19.8563 F   0  0  0  0  0  0  0  0  0  0  0  0
  1  2  1  0  0  0  0
  1  5  2  0  0  0  0
  2  6  2  0  0  0  0
  3  8  2  0  0  0  0
  3 15  1  0  0  0  0
  4  9  1  0  0  0  0
  4 15  2  0  0  0  0
  5 17  1  0  0  0  0
  6 19  1  0  0  0  0
  7 10  2  0  0  0  0
  7 18  1  0  0  0  0
  8 21  1  0  0  0  0
  9 21  2  0  0  0  0
 10 22  1  0  0  0  0
 11 12  2  0  0  0  0
 11 23  1  0  0  0  0
 12 24  1  0  0  0  0
 13 20  1  0  0  0  0
 13 22  2  0  0  0  0
 14 24  2  0  0  0  0
 14 25  1  0  0  0  0
 15 26  1  0  0  0  0
 16 26  1  0  0  0  0
 16 27  2  0  0  0  0
 16 28  1  0  0  0  0
 17 19  2  0  0  0  0
 17 33  1  0  0  0  0
 18 20  2  0  0  0  0
 18 34  1  0  0  0  0
 19 44  1  0  0  0  0
 20 35  1  0  0  0  0
 21 80  1  0  0  0  0
 22 81  1  0  0  0  0
 23 25  2  0  0  0  0
 23 80  1  0  0  0  0
 24 82  1  0  0  0  0
 25 83  1  0  0  0  0
 26 64  2  0  0  0  0
 27 65  1  0  0  0  0
 27 69  1  0  0  0  0
 28 70  1  0  0  0  0
 28 75  2  0  0  0  0
 29 45  1  0  0  0  0
 29 71  1  0  0  0  0
 29 76  2  0  0  0  0
 30 60  1  0  0  0  0
 30 66  1  0  0  0  0
 30 77  2  0  0  0  0
 31 61  1  0  0  0  0
 31 72  1  0  0  0  0
 31 78  2  0  0  0  0
 32 67  1  0  0  0  0
 32 68  1  0  0  0  0
 32 79  2  0  0  0  0
 33 36  1  0  0  0  0
 34 45  1  0  0  0  0
 35 66  1  0  0  0  0
 36 38  1  0  0  0  0
 37 39  1  0  0  0  0
 37 40  1  0  0  0  0
 38 44  1  0  0  0  0
 39 46  1  0  0  0  0
 40 67  1  0  0  0  0
 41 46  1  0  0  0  0
 41 67  1  0  0  0  0
 42 48  1  0  0  0  0
 42 68  1  0  0  0  0
 43 47  1  0  0  0  0
 43 73  1  0  0  0  0
 44 71  1  0  0  0  0
 45 66  1  0  0  0  0
 46 65  1  0  0  0  0
 47 57  1  0  0  0  0
 47 68  1  0  0  0  0
 48 49  1  0  0  0  0
 48 73  1  0  0  0  0
 50 57  1  0  0  0  0
 51 61  1  0  0  0  0
 52 62  1  0  0  0  0
 53 63  1  0  0  0  0
 54 63  1  0  0  0  0
 55 63  1  0  0  0  0
 56 74  1  0  0  0  0
 58 62  1  0  0  0  0
 58 73  1  0  0  0  0
 59 62  1  0  0  0  0
 59 81  1  0  0  0  0
 60 63  1  0  0  0  0
 60 72  1  0  0  0  0
 61 74  1  0  0  0  0
 64 65  1  0  0  0  0
M  CHG  2  73   1  74   1
M  ISO  4  32 100  59 101  68 100  81 101
M  END
> <Batch ID>
0177

> <Smiles>
CCC1CN(CC(C)[101CH2:1][101O:1]c2ccc3c(c2)CN(C(=O)C(NC(=O)C(C)NC)C(C)(C)C)C(C(=O)NC2CCCc4ccccc42)C3)C(C)C[100N:0]1[100C:0](=O)N1CCCC(n2nc(-c3ccc(Oc4ccc(F)cc4F)cc3)c(C(N)=O)c2N)C1

> <Shape>
0.172

> <Color>
0.098

> <Negative vol penalty>
0.000

$$$$

  -OEChem-04052322523D

 88 98  0     1  0  0  0  0  0999 V2000
  -28.2652  -33.3985   26.1094 C   0  0  0  0  0  0  0  0  0  0  0  0
  -28.3140  -32.1541   25.4892 C   0  0  0  0  0  0  0  0  0  0  0  0
  -25.2944   -9.9787   23.0273 C   0  0  0  0  0  0  0  0  0  0  0  0
  -24.0854   -9.1083   21.1253 C   0  0  0  0  0  0  0  0  0  0  0  0
  -27.0336  -33.9895   26.3879 C   0  0  0  0  0  0  0  0  0  0  0  0
  -27.1309  -31.4996   25.1482 C   0  0  0  0  0  0  0  0  0  0  0  0
  -27.2775  -29.5243   20.4875 C   0  0  0  0  0  0  0  0  0  0  0  0
  -24.3859   -9.3617   23.8872 C   0  0  0  0  0  0  0  0  0  0  0  0
  -23.1769   -8.4912   21.9852 C   0  0  0  0  0  0  0  0  0  0  0  0
  -27.9772  -28.3295   20.3241 C   0  0  0  0  0  0  0  0  0  0  0  0
  -23.0574   -5.7094   23.9003 C   0  0  0  0  0  0  0  0  0  0  0  0
  -22.6981   -4.3904   23.6231 C   0  0  0  0  0  0  0  0  0  0  0  0
  -25.8960  -27.1108   20.3748 C   0  0  0  0  0  0  0  0  0  0  0  0
  -30.9464  -22.9993   18.3851 C   0  0  0  0  0  0  0  0  0  0  0  0
  -20.3885   -5.0653   23.4055 C   0  0  0  0  0  0  0  0  0  0  0  0
  -25.1441   -9.8521   21.6463 C   0  0  0  0  0  0  0  0  0  0  0  0
  -27.2757   -9.9446   20.2479 C   0  0  0  0  0  0  0  0  0  0  0  0
  -25.8349  -33.3462   26.0414 C   0  0  0  0  0  0  0  0  0  0  0  0
  -25.8803  -29.5203   20.6070 C   0  0  0  0  0  0  0  0  0  0  0  0
  -25.8820  -32.0819   25.4235 C   0  0  0  0  0  0  0  0  0  0  0  0
  -25.1808  -28.3071   20.5371 C   0  0  0  0  0  0  0  0  0  0  0  0
  -30.4202  -24.2758   18.5496 C   0  0  0  0  0  0  0  0  0  0  0  0
  -29.9576  -24.6754   19.7984 C   0  0  0  0  0  0  0  0  0  0  0  0
  -23.3272   -8.6179   23.3662 C   0  0  0  0  0  0  0  0  0  0  0  0
  -27.2867  -27.1222   20.2706 C   0  0  0  0  0  0  0  0  0  0  0  0
  -22.0822   -6.7063   23.9303 C   0  0  0  0  0  0  0  0  0  0  0  0
  -21.3637   -4.0684   23.3756 C   0  0  0  0  0  0  0  0  0  0  0  0
  -20.7478   -6.3843   23.6829 C   0  0  0  0  0  0  0  0  0  0  0  0
  -26.0819  -10.4897   20.7575 C   0  0  0  0  0  0  0  0  0  0  0  0
  -30.9874  -22.1671   19.4922 C   0  0  0  0  0  0  0  0  0  0  0  0
  -30.0426  -23.7681   20.8421 C   0  0  0  0  0  0  0  0  0  0  0  0
  -27.7984  -10.9401   19.4590 C   0  0  0  0  0  0  0  0  0  0  0  0
  -27.8598   -8.6539   20.4679 C   0  0  0  0  0  0  0  0  0  0  0  0
  -23.8193  -30.3969   22.8625 C   0  0  0  0  0  0  0  0  0  0  0  0
  -21.6236  -29.7119   20.5752 C   0  0  0  0  0  0  0  0  0  0  0  0
  -20.8422  -27.9964   17.7304 C   0  0  0  0  0  0  0  0  0  0  0  0
  -29.1452  -16.0416   18.4685 C   0  0  0  0  0  0  0  0  0  0  0  0
  -24.5270  -34.0031   26.4054 C   0  0  0  0  0  0  0  0  0  0  0  0
  -25.1382  -30.8200   20.7560 C   0  0  0  0  0  0  0  0  0  0  0  0
  -23.6792  -28.2505   20.6400 C   0  0  0  0  0  0  0  0  0  0  0  0
  -23.3245  -33.4130   25.6732 C   0  0  0  0  0  0  0  0  0  0  0  0
  -25.7753  -15.2749   17.8362 C   0  0  0  0  0  0  0  0  0  0  0  0
  -29.0403  -25.8009   16.9864 C   0  0  0  0  0  0  0  0  0  0  0  0
  -29.6573  -24.7436   16.1252 C   0  0  0  0  0  0  0  0  0  0  0  0
  -23.3677  -31.8889   25.7177 C   0  0  0  0  0  0  0  0  0  0  0  0
  -25.6453  -13.9064   18.5043 C   0  0  0  0  0  0  0  0  0  0  0  0
  -26.6258  -16.2391   18.6651 C   0  0  0  0  0  0  0  0  0  0  0  0
  -28.5378  -18.4840   18.7689 C   0  0  0  0  0  0  0  0  0  0  0  0
  -30.3680  -17.8187   17.2536 C   0  0  0  0  0  0  0  0  0  0  0  0
  -27.8289  -14.3376   19.6927 C   0  0  0  0  0  0  0  0  0  0  0  0
  -29.4966  -19.3767   19.5502 C   0  0  0  0  0  0  0  0  0  0  0  0
  -31.3568  -18.6784   18.0241 C   0  0  0  0  0  0  0  0  0  0  0  0
  -30.3629  -25.1962   17.3758 C   0  0  0  0  0  0  0  0  0  0  0  0
  -24.6208  -31.3517   25.0158 C   0  0  1  0  0  0  0  0  0  0  0  0
  -23.7577  -30.6514   21.3830 C   0  0  1  0  0  0  0  0  0  0  0  0
  -27.0283  -13.3291   18.8544 C   0  0  1  0  0  0  0  0  0  0  0  0
  -29.5619  -24.1405   22.2066 C   0  0  0  0  0  0  0  0  0  0  0  0
  -18.9589  -27.6101   16.1174 C   0  0  0  0  0  0  0  0  0  0  0  0
  -20.2625  -27.8856   22.6056 C   0  0  0  0  0  0  0  0  0  0  0  0
  -19.0077  -26.8321   20.7125 C   0  0  0  0  0  0  0  0  0  0  0  0
  -18.6952  -29.2547   21.2186 C   0  0  0  0  0  0  0  0  0  0  0  0
  -22.4034  -29.0890   15.4659 C   0  0  0  0  0  0  0  0  0  0  0  0
  -29.3872  -26.0386   20.0066 C   0  0  0  0  0  0  0  0  0  1  0  0
  -31.5481  -20.7826   19.3517 C   0  0  0  0  0  0  0  0  0  0  0  0
  -20.8576  -28.4777   20.1640 C   0  0  1  0  0  0  0  0  0  0  0  0
  -20.1931  -28.4411   16.4321 C   0  0  2  0  0  0  0  0  0  0  0  0
  -19.7342  -28.1131   21.1751 C   0  0  0  0  0  0  0  0  0  0  0  0
  -25.8593  -11.7349   20.3285 N   0  0  0  0  0  0  0  0  0  0  0  0
  -30.5474  -22.5199   20.7209 N   0  0  0  0  0  0  0  0  0  0  0  0
  -26.9203  -11.9805   19.5411 N   0  0  0  0  0  0  0  0  0  0  0  0
  -22.9991  -29.5475   20.7911 N   0  0  0  0  0  0  0  0  0  0  0  0
  -27.9180  -15.6298   19.0092 N   0  0  0  0  0  0  0  0  0  0  0  0
  -29.2604  -17.3917   18.1058 N   0  0  0  0  0  0  0  0  0  0  0  0
  -28.9188  -11.0182   18.7101 N   0  0  0  0  0  0  0  0  0  0  0  0
  -27.1909   -7.7520   21.3067 N   0  0  0  0  0  0  0  0  0  0  0  0
  -24.4528  -31.3943   23.5790 N   0  0  0  0  0  0  0  0  0  0  0  0
  -20.3828  -28.7253   18.8069 N   0  0  0  0  0  0  0  0  0  0  0  0
  -30.6151  -19.8380   18.6470 N   0  3  0  0  0  0  0  0  0  0  0  0
  -21.1526  -28.3047   15.3000 N   0  3  0  0  0  0  0  0  0  0  0  0
  -28.9510   -8.3164   19.9494 O   0  0  0  0  0  0  0  0  0  0  0  0
  -23.3273  -29.3722   23.3204 O   0  0  0  0  0  0  0  0  0  0  0  0
  -21.0248  -30.7838   20.6934 O   0  0  0  0  0  0  0  0  0  0  0  0
  -21.6708  -27.0903   17.7846 O   0  0  0  0  0  0  0  0  0  0  0  0
  -30.0838  -15.2490   18.3191 O   0  0  0  0  0  0  0  0  0  0  0  0
  -22.4406   -8.0154   24.2050 O   0  0  0  0  0  0  0  0  0  0  0  0
  -27.9720  -25.9464   20.1107 O   0  0  0  0  0  0  0  0  0  1  0  0
  -21.0191   -2.8020   23.1078 F   0  0  0  0  0  0  0  0  0  0  0  0
  -19.8067   -7.3379   23.7091 F   0  0  0  0  0  0  0  0  0  0  0  0
  1  2  1  0  0  0  0
  1  5  2  0  0  0  0
  2  6  2  0  0  0  0
  3  8  2  0  0  0  0
  3 16  1  0  0  0  0
  4  9  1  0  0  0  0
  4 16  2  0  0  0  0
  5 18  1  0  0  0  0
  6 20  1  0  0  0  0
  7 10  2  0  0  0  0
  7 19  1  0  0  0  0
  8 24  1  0  0  0  0
  9 24  2  0  0  0  0
 10 25  1  0  0  0  0
 11 12  2  0  0  0  0
 11 26  1  0  0  0  0
 12 27  1  0  0  0  0
 13 21  1  0  0  0  0
 13 25  2  0  0  0  0
 14 22  2  0  0  0  0
 14 30  1  0  0  0  0
 15 27  2  0  0  0  0
 15 28  1  0  0  0  0
 16 29  1  0  0  0  0
 17 29  1  0  0  0  0
 17 32  2  0  0  0  0
 17 33  1  0  0  0  0
 18 20  2  0  0  0  0
 18 38  1  0  0  0  0
 19 21  2  0  0  0  0
 19 39  1  0  0  0  0
 20 54  1  0  0  0  0
 21 40  1  0  0  0  0
 22 23  1  0  0  0  0
 22 53  1  0  0  0  0
 23 31  2  0  0  0  0
 23 63  1  0  0  0  0
 24 85  1  0  0  0  0
 25 86  1  0  0  0  0
 26 28  2  0  0  0  0
 26 85  1  0  0  0  0
 27 87  1  0  0  0  0
 28 88  1  0  0  0  0
 29 68  2  0  0  0  0
 30 64  1  0  0  0  0
 30 69  2  0  0  0  0
 31 57  1  0  0  0  0
 31 69  1  0  0  0  0
 32 70  1  0  0  0  0
 32 74  1  0  0  0  0
 33 75  1  0  0  0  0
 33 80  2  0  0  0  0
 34 55  1  0  0  0  0
 34 76  1  0  0  0  0
 34 81  2  0  0  0  0
 35 65  1  0  0  0  0
 35 71  1  0  0  0  0
 35 82  2  0  0  0  0
 36 66  1  0  0  0  0
 36 77  1  0  0  0  0
 36 83  2  0  0  0  0
 37 72  1  0  0  0  0
 37 73  1  0  0  0  0
 37 84  2  0  0  0  0
 38 41  1  0  0  0  0
 39 55  1  0  0  0  0
 40 71  1  0  0  0  0
 41 45  1  0  0  0  0
 42 46  1  0  0  0  0
 42 47  1  0  0  0  0
 43 44  1  0  0  0  0
 43 53  1  0  0  0  0
 44 53  1  0  0  0  0
 45 54  1  0  0  0  0
 46 56  1  0  0  0  0
 47 72  1  0  0  0  0
 48 51  1  0  0  0  0
 48 73  1  0  0  0  0
 49 52  1  0  0  0  0
 49 73  1  0  0  0  0
 50 56  1  0  0  0  0
 50 72  1  0  0  0  0
 51 78  1  0  0  0  0
 52 78  1  0  0  0  0
 54 76  1  0  0  0  0
 55 71  1  0  0  0  0
 56 70  1  0  0  0  0
 58 66  1  0  0  0  0
 59 67  1  0  0  0  0
 60 67  1  0  0  0  0
 61 67  1  0  0  0  0
 62 79  1  0  0  0  0
 63 86  1  0  0  0  0
 64 78  1  0  0  0  0
 65 67  1  0  0  0  0
 65 77  1  0  0  0  0
 66 79  1  0  0  0  0
 68 70  1  0  0  0  0
M  CHG  2  78   1  79   1
M  ISO  4  37 100  63 101  73 100  86 101
M  END
> <Batch ID>
0177

> <Smiles>
CNC(C)C(=O)NC(C(=O)N1Cc2cc([101O:1][101CH2:1]c3c(C4CC4)cc(CN4CC[100N:0]([100C:0](=O)N5CCCC(n6nc(-c7ccc(Oc8ccc(F)cc8F)cc7)c(C(N)=O)c6N)C5)CC4)nc3C)ccc2CC1C(=O)NC1CCCc2ccccc21)C(C)(C)C

> <Shape>
0.314

> <Color>
0.084

> <Negative vol penalty>
0.000

$$$$

  -OEChem-04052322523D

 88 98  0     1  0  0  0  0  0999 V2000
  -31.1141  -35.5555   20.1317 C   0  0  0  0  0  0  0  0  0  0  0  0
  -30.8998  -34.2197   19.8074 C   0  0  0  0  0  0  0  0  0  0  0  0
  -25.7019   -7.5009   21.9058 C   0  0  0  0  0  0  0  0  0  0  0  0
  -24.4091   -9.2421   20.8409 C   0  0  0  0  0  0  0  0  0  0  0  0
  -30.5708  -36.0833   21.3022 C   0  0  0  0  0  0  0  0  0  0  0  0
  -30.1429  -33.4106   20.6541 C   0  0  0  0  0  0  0  0  0  0  0  0
  -26.3908  -28.8575   19.0120 C   0  0  0  0  0  0  0  0  0  0  0  0
  -24.5933   -7.1483   22.6753 C   0  0  0  0  0  0  0  0  0  0  0  0
  -23.3004   -8.8896   21.6104 C   0  0  0  0  0  0  0  0  0  0  0  0
  -26.5572  -27.4739   18.9699 C   0  0  0  0  0  0  0  0  0  0  0  0
  -21.7319   -5.3943   22.2645 C   0  0  0  0  0  0  0  0  0  0  0  0
  -21.4327   -4.0375   22.3869 C   0  0  0  0  0  0  0  0  0  0  0  0
  -27.0375  -19.1841   19.2022 C   0  0  0  0  0  0  0  0  0  0  0  0
  -25.5318  -27.2905   21.1457 C   0  0  0  0  0  0  0  0  0  0  0  0
  -21.6985   -4.1951   24.7831 C   0  0  0  0  0  0  0  0  0  0  0  0
  -28.8179  -19.3594   20.7523 C   0  0  0  0  0  0  0  0  0  0  0  0
  -27.0153  -20.5832   19.1197 C   0  0  0  0  0  0  0  0  0  0  0  0
  -25.6099   -8.5478   20.9886 C   0  0  0  0  0  0  0  0  0  0  0  0
  -27.1098   -8.4038   18.9302 C   0  0  0  0  0  0  0  0  0  0  0  0
  -29.7987  -35.2827   22.1588 C   0  0  0  0  0  0  0  0  0  0  0  0
  -25.8026  -29.4700   20.1278 C   0  0  0  0  0  0  0  0  0  0  0  0
  -29.5899  -33.9278   21.8379 C   0  0  0  0  0  0  0  0  0  0  0  0
  -27.9542  -18.5569   20.0327 C   0  0  0  0  0  0  0  0  0  0  0  0
  -25.3567  -28.6818   21.1984 C   0  0  0  0  0  0  0  0  0  0  0  0
  -27.8945  -22.7029   19.7942 C   0  0  0  0  0  0  0  0  0  0  0  0
  -27.9334  -21.3186   19.8902 C   0  0  0  0  0  0  0  0  0  0  0  0
  -23.3925   -7.8426   22.5276 C   0  0  0  0  0  0  0  0  0  0  0  0
  -26.1303  -26.6905   20.0382 C   0  0  0  0  0  0  0  0  0  0  0  0
  -22.0144   -6.1516   23.4013 C   0  0  0  0  0  0  0  0  0  0  0  0
  -21.4160   -3.4378   23.6461 C   0  0  0  0  0  0  0  0  0  0  0  0
  -21.9976   -5.5520   24.6606 C   0  0  0  0  0  0  0  0  0  0  0  0
  -26.7549   -8.9128   20.1938 C   0  0  0  0  0  0  0  0  0  0  0  0
  -26.9655  -23.3025   18.9546 C   0  0  0  0  0  0  0  0  0  0  0  0
  -26.1199  -21.2793   18.3042 C   0  0  0  0  0  0  0  0  0  0  0  0
  -28.2682   -9.0667   18.6059 C   0  0  0  0  0  0  0  0  0  0  0  0
  -26.4511   -7.4198   18.1217 C   0  0  0  0  0  0  0  0  0  0  0  0
  -26.7684  -31.5861   22.2942 C   0  0  0  0  0  0  0  0  0  0  0  0
  -23.6734  -31.4334   23.2534 C   0  0  0  0  0  0  0  0  0  0  0  0
  -20.7617  -29.6574   23.3736 C   0  0  0  0  0  0  0  0  0  0  0  0
  -30.5376  -14.3310   20.3195 C   0  0  0  0  0  0  0  0  0  0  0  0
  -29.2716  -35.8856   23.4368 C   0  0  0  0  0  0  0  0  0  0  0  0
  -25.6060  -30.9612   20.1461 C   0  0  0  0  0  0  0  0  0  0  0  0
  -24.7007  -29.2887   22.4107 C   0  0  0  0  0  0  0  0  0  0  0  0
  -28.1682  -35.0580   24.0909 C   0  0  0  0  0  0  0  0  0  0  0  0
  -32.0753  -11.1597   20.5672 C   0  0  0  0  0  0  0  0  0  0  0  0
  -28.5597  -33.5843   24.1328 C   0  0  0  0  0  0  0  0  0  0  0  0
  -30.9232  -10.1701   20.4175 C   0  0  0  0  0  0  0  0  0  0  0  0
  -27.8126  -16.4544   21.5522 C   0  0  0  0  0  0  0  0  0  0  0  0
  -31.6385  -12.3821   21.3635 C   0  0  0  0  0  0  0  0  0  0  0  0
  -28.3172  -15.0265   21.3919 C   0  0  0  0  0  0  0  0  0  0  0  0
  -29.3485  -16.4247   19.7416 C   0  0  0  0  0  0  0  0  0  0  0  0
  -29.2989  -12.1265   20.5819 C   0  0  0  0  0  0  0  0  0  0  0  0
  -28.0064  -17.0495   20.1480 C   0  0  2  0  0  0  0  0  0  0  0  0
  -28.7537  -33.0246   22.7183 C   0  0  1  0  0  0  0  0  0  0  0  0
  -25.4614  -31.5275   21.5553 C   0  0  1  0  0  0  0  0  0  0  0  0
  -29.6956  -10.8574   19.7997 C   0  0  2  0  0  0  0  0  0  0  0  0
  -28.8454  -23.5408   20.5880 C   0  0  0  0  0  0  0  0  0  0  0  0
  -18.4165  -29.7768   24.2585 C   0  0  0  0  0  0  0  0  0  0  0  0
  -24.7038  -30.8232   26.0598 C   0  0  0  0  0  0  0  0  0  0  0  0
  -22.4052  -30.0299   26.6559 C   0  0  0  0  0  0  0  0  0  0  0  0
  -22.7674  -32.4038   25.9803 C   0  0  0  0  0  0  0  0  0  0  0  0
  -19.6036  -29.4872   20.6553 C   0  0  0  0  0  0  0  0  0  0  0  0
  -26.9063  -24.7907   18.8362 C   0  0  0  0  0  0  0  0  0  1  0  0
  -22.8976  -30.5835   24.2306 C   0  0  1  0  0  0  0  0  0  0  0  0
  -19.3274  -30.0529   23.0724 C   0  0  2  0  0  0  0  0  0  0  0  0
  -23.2076  -30.9485   25.7098 C   0  0  0  0  0  0  0  0  0  0  0  0
  -28.8247  -20.7119   20.6971 N   0  0  0  0  0  0  0  0  0  0  0  0
  -27.6181   -9.8283   20.6418 N   0  0  0  0  0  0  0  0  0  0  0  0
  -26.0741  -22.6242   18.2047 N   0  0  0  0  0  0  0  0  0  0  0  0
  -28.5269   -9.8998   19.6544 N   0  0  0  0  0  0  0  0  0  0  0  0
  -24.5367  -30.7516   22.3842 N   0  0  0  0  0  0  0  0  0  0  0  0
  -30.4519  -13.0136   20.7832 N   0  0  0  0  0  0  0  0  0  0  0  0
  -29.4004  -15.1319   20.4166 N   0  0  0  0  0  0  0  0  0  0  0  0
  -29.0806   -9.0123   17.5291 N   0  0  0  0  0  0  0  0  0  0  0  0
  -25.2711   -6.8386   18.6056 N   0  0  0  0  0  0  0  0  0  0  0  0
  -27.4725  -32.7590   22.0998 N   0  0  0  0  0  0  0  0  0  0  0  0
  -21.4922  -30.7192   23.8635 N   0  0  0  0  0  0  0  0  0  0  0  0
  -18.8152  -29.2903   21.8989 N   0  3  0  0  0  0  0  0  0  0  0  0
  -26.9047   -7.0544   17.0107 O   0  0  0  0  0  0  0  0  0  0  0  0
  -27.1118  -30.6379   22.9905 O   0  0  0  0  0  0  0  0  0  0  0  0
  -23.5138  -32.6566   23.2564 O   0  0  0  0  0  0  0  0  0  0  0  0
  -21.1901  -28.5192   23.1957 O   0  0  0  0  0  0  0  0  0  0  0  0
  -31.5991  -14.7879   19.8741 O   0  0  0  0  0  0  0  0  0  0  0  0
  -22.3104   -7.4988   23.2782 O   0  0  0  0  0  0  0  0  0  0  0  0
  -26.2932  -25.3301   19.9997 O   0  0  0  0  0  0  0  0  0  1  0  0
  -21.1272   -2.1352   23.7637 F   0  0  0  0  0  0  0  0  0  0  0  0
  -22.2671   -6.2746   25.7565 F   0  0  0  0  0  0  0  0  0  0  0  0
  -24.9379  -20.5182   17.3031 Cl  0  0  0  0  0  0  0  0  0  0  0  0
  1  2  1  0  0  0  0
  1  5  2  0  0  0  0
  2  6  2  0  0  0  0
  3  8  2  0  0  0  0
  3 18  1  0  0  0  0
  4  9  1  0  0  0  0
  4 18  2  0  0  0  0
  5 20  1  0  0  0  0
  6 22  1  0  0  0  0
  7 10  2  0  0  0  0
  7 21  1  0  0  0  0
  8 27  1  0  0  0  0
  9 27  2  0  0  0  0
 10 28  1  0  0  0  0
 11 12  2  0  0  0  0
 11 29  1  0  0  0  0
 12 30  1  0  0  0  0
 13 17  1  0  0  0  0
 13 23  2  0  0  0  0
 14 24  1  0  0  0  0
 14 28  2  0  0  0  0
 15 30  2  0  0  0  0
 15 31  1  0  0  0  0
 16 23  1  0  0  0  0
 16 67  2  0  0  0  0
 17 26  2  0  0  0  0
 17 34  1  0  0  0  0
 18 32  1  0  0  0  0
 19 32  1  0  0  0  0
 19 35  2  0  0  0  0
 19 36  1  0  0  0  0
 20 22  2  0  0  0  0
 20 41  1  0  0  0  0
 21 24  2  0  0  0  0
 21 42  1  0  0  0  0
 22 54  1  0  0  0  0
 23 53  1  0  0  0  0
 24 43  1  0  0  0  0
 25 26  1  0  0  0  0
 25 33  2  0  0  0  0
 25 57  1  0  0  0  0
 26 67  1  0  0  0  0
 27 84  1  0  0  0  0
 28 85  1  0  0  0  0
 29 31  2  0  0  0  0
 29 84  1  0  0  0  0
 30 86  1  0  0  0  0
 31 87  1  0  0  0  0
 32 68  2  0  0  0  0
 33 63  1  0  0  0  0
 33 69  1  0  0  0  0
 34 69  2  0  0  0  0
 34 88  1  0  0  0  0
 35 70  1  0  0  0  0
 35 74  1  0  0  0  0
 36 75  1  0  0  0  0
 36 79  2  0  0  0  0
 37 55  1  0  0  0  0
 37 76  1  0  0  0  0
 37 80  2  0  0  0  0
 38 64  1  0  0  0  0
 38 71  1  0  0  0  0
 38 81  2  0  0  0  0
 39 65  1  0  0  0  0
 39 77  1  0  0  0  0
 39 82  2  0  0  0  0
 40 72  1  0  0  0  0
 40 73  1  0  0  0  0
 40 83  2  0  0  0  0
 41 44  1  0  0  0  0
 42 55  1  0  0  0  0
 43 71  1  0  0  0  0
 44 46  1  0  0  0  0
 45 47  1  0  0  0  0
 45 49  1  0  0  0  0
 46 54  1  0  0  0  0
 47 56  1  0  0  0  0
 48 50  1  0  0  0  0
 48 53  1  0  0  0  0
 49 72  1  0  0  0  0
 50 73  1  0  0  0  0
 51 53  1  0  0  0  0
 51 73  1  0  0  0  0
 52 56  1  0  0  0  0
 52 72  1  0  0  0  0
 54 76  1  0  0  0  0
 55 71  1  0  0  0  0
 56 70  1  0  0  0  0
 58 65  1  0  0  0  0
 59 66  1  0  0  0  0
 60 66  1  0  0  0  0
 61 66  1  0  0  0  0
 62 78  1  0  0  0  0
 63 85  1  0  0  0  0
 64 66  1  0  0  0  0
 64 77  1  0  0  0  0
 65 78  1  0  0  0  0
 68 70  1  0  0  0  0
M  CHG  1  78   1
M  ISO  4  40 100  63 101  73 100  85 101
M  END
> <Batch ID>
0177

> <Smiles>
CNC(C)C(=O)NC(C(=O)N1Cc2cc([101O:1][101CH2:1]c3nc(Cl)c4cc(C5CC[100N:0]([100C:0](=O)N6CCCC(n7nc(-c8ccc(Oc9ccc(F)cc9F)cc8)c(C(N)=O)c7N)C6)C5)cnc4c3C)ccc2CC1C(=O)NC1CCCc2ccccc21)C(C)(C)C

> <Shape>
0.258

> <Color>
0.086

> <Negative vol penalty>
0.000

$$$$

  -OEChem-04052322523D

 78 86  0     1  0  0  0  0  0999 V2000
  -31.9604  -30.3833   24.4659 C   0  0  0  0  0  0  0  0  0  0  0  0
  -31.7059  -29.1079   23.9720 C   0  0  0  0  0  0  0  0  0  0  0  0
  -23.1280   -9.8284   21.3708 C   0  0  0  0  0  0  0  0  0  0  0  0
  -23.8236  -10.6659   23.5276 C   0  0  0  0  0  0  0  0  0  0  0  0
  -31.0146  -31.0204   25.2681 C   0  0  0  0  0  0  0  0  0  0  0  0
  -30.5060  -28.4683   24.2809 C   0  0  0  0  0  0  0  0  0  0  0  0
  -27.3153  -24.6853   20.6734 C   0  0  0  0  0  0  0  0  0  0  0  0
  -22.3937   -8.8221   21.9984 C   0  0  0  0  0  0  0  0  0  0  0  0
  -23.0893   -9.6596   24.1552 C   0  0  0  0  0  0  0  0  0  0  0  0
  -27.2406  -23.2948   20.6053 C   0  0  0  0  0  0  0  0  0  0  0  0
  -23.0043   -5.8367   23.4610 C   0  0  0  0  0  0  0  0  0  0  0  0
  -23.1117   -4.5430   22.9509 C   0  0  0  0  0  0  0  0  0  0  0  0
  -25.2694  -23.3387   21.9952 C   0  0  0  0  0  0  0  0  0  0  0  0
  -20.7358   -4.5183   22.5132 C   0  0  0  0  0  0  0  0  0  0  0  0
  -23.8430  -10.7502   22.1355 C   0  0  0  0  0  0  0  0  0  0  0  0
  -24.1526  -13.0758   21.1336 C   0  0  0  0  0  0  0  0  0  0  0  0
  -29.7983  -30.3922   25.5791 C   0  0  0  0  0  0  0  0  0  0  0  0
  -26.3724  -25.4134   21.4131 C   0  0  0  0  0  0  0  0  0  0  0  0
  -29.5436  -29.0971   25.0892 C   0  0  0  0  0  0  0  0  0  0  0  0
  -25.3329  -24.7386   22.0690 C   0  0  0  0  0  0  0  0  0  0  0  0
  -22.3743   -8.7377   23.3905 C   0  0  0  0  0  0  0  0  0  0  0  0
  -26.2192  -22.6211   21.2686 C   0  0  0  0  0  0  0  0  0  0  0  0
  -21.7626   -6.4713   23.4973 C   0  0  0  0  0  0  0  0  0  0  0  0
  -21.9774   -3.8837   22.4770 C   0  0  0  0  0  0  0  0  0  0  0  0
  -20.6284   -5.8121   23.0233 C   0  0  0  0  0  0  0  0  0  0  0  0
  -24.6022  -11.7896   21.4878 C   0  0  0  0  0  0  0  0  0  0  0  0
  -25.2438  -13.6726   20.5508 C   0  0  0  0  0  0  0  0  0  0  0  0
  -22.8638  -13.6773   21.3151 C   0  0  0  0  0  0  0  0  0  0  0  0
  -26.5044  -27.3380   23.9394 C   0  0  0  0  0  0  0  0  0  0  0  0
  -23.3617  -27.7870   23.2732 C   0  0  0  0  0  0  0  0  0  0  0  0
  -20.5066  -26.5958   21.8322 C   0  0  0  0  0  0  0  0  0  0  0  0
  -30.5881  -14.8319   20.2959 C   0  0  0  0  0  0  0  0  0  0  0  0
  -28.8269  -31.1015   26.4890 C   0  0  0  0  0  0  0  0  0  0  0  0
  -26.4513  -26.9149   21.4547 C   0  0  0  0  0  0  0  0  0  0  0  0
  -24.2839  -25.4752   22.8598 C   0  0  0  0  0  0  0  0  0  0  0  0
  -27.4212  -30.5067   26.4615 C   0  0  0  0  0  0  0  0  0  0  0  0
  -29.6654  -11.7379   19.0591 C   0  0  0  0  0  0  0  0  0  0  0  0
  -27.4828  -28.9863   26.5678 C   0  0  0  0  0  0  0  0  0  0  0  0
  -28.2258  -11.5680   19.5441 C   0  0  0  0  0  0  0  0  0  0  0  0
  -28.8785  -18.1147   20.1309 C   0  0  0  0  0  0  0  0  0  0  0  0
  -28.3901  -17.0498   22.3617 C   0  0  0  0  0  0  0  0  0  0  0  0
  -30.5370  -12.3606   20.1439 C   0  0  0  0  0  0  0  0  0  0  0  0
  -30.1208  -17.2373   20.0050 C   0  0  0  0  0  0  0  0  0  0  0  0
  -29.6437  -16.1970   22.1964 C   0  0  0  0  0  0  0  0  0  0  0  0
  -28.5896  -13.5180   21.1358 C   0  0  0  0  0  0  0  0  0  0  0  0
  -28.2432  -28.3806   25.3819 C   0  0  1  0  0  0  0  0  0  0  0  0
  -25.7368  -27.5177   22.6603 C   0  0  1  0  0  0  0  0  0  0  0  0
  -28.5141  -18.3753   21.5982 C   0  0  0  0  0  0  0  0  0  0  0  0
  -27.6603  -12.8980   20.0730 C   0  0  2  0  0  0  0  0  0  0  0  0
  -18.0884  -27.1689   21.4843 C   0  0  0  0  0  0  0  0  0  0  0  0
  -22.7685  -27.0314   26.1693 C   0  0  0  0  0  0  0  0  0  0  0  0
  -20.3744  -26.6956   25.5182 C   0  0  0  0  0  0  0  0  0  0  0  0
  -21.4218  -28.9486   25.2945 C   0  0  0  0  0  0  0  0  0  0  0  0
  -20.8136  -26.6105   18.8887 C   0  0  0  0  0  0  0  0  0  0  0  0
  -27.2241  -19.1852   21.7029 C   0  0  0  0  0  0  0  0  0  0  0  0
  -27.3693  -20.5504   21.0556 C   0  0  0  0  0  0  0  0  0  1  0  0
  -22.0749  -27.1127   23.6836 C   0  0  1  0  0  0  0  0  0  0  0  0
  -19.4943  -27.2514   20.9104 C   0  0  2  0  0  0  0  0  0  0  0  0
  -21.6806  -27.4327   25.1532 C   0  0  0  0  0  0  0  0  0  0  0  0
  -25.8794  -11.5808   21.1575 N   0  0  0  0  0  0  0  0  0  0  0  0
  -26.2417  -12.7437   20.5896 N   0  0  0  0  0  0  0  0  0  0  0  0
  -24.4077  -26.9422   22.8756 N   0  0  0  0  0  0  0  0  0  0  0  0
  -29.9640  -13.6185   20.6226 N   0  0  0  0  0  0  0  0  0  0  0  0
  -29.9868  -16.0052   20.7810 N   0  0  0  0  0  0  0  0  0  0  0  0
  -25.4374  -14.8960   20.0141 N   0  0  0  0  0  0  0  0  0  0  0  0
  -21.8557  -12.9238   21.9320 N   0  0  0  0  0  0  0  0  0  0  0  0
  -27.4033  -28.3537   24.2036 N   0  0  0  0  0  0  0  0  0  0  0  0
  -21.0748  -27.5068   22.6973 N   0  0  0  0  0  0  0  0  0  0  0  0
  -19.4980  -26.5834   19.5782 N   0  3  0  0  0  0  0  0  0  0  0  0
  -22.6088  -14.8424   20.9266 O   0  0  0  0  0  0  0  0  0  0  0  0
  -26.2955  -26.3517   24.6360 O   0  0  0  0  0  0  0  0  0  0  0  0
  -23.4337  -29.0182   23.2975 O   0  0  0  0  0  0  0  0  0  0  0  0
  -20.7646  -25.3948   21.7916 O   0  0  0  0  0  0  0  0  0  0  0  0
  -31.6168  -14.8683   19.6093 O   0  0  0  0  0  0  0  0  0  0  0  0
  -21.6577   -7.7561   24.0033 O   0  0  0  0  0  0  0  0  0  0  0  0
  -26.1438  -21.2538   21.2039 O   0  0  0  0  0  0  0  0  0  1  0  0
  -22.0810   -2.6419   21.9858 F   0  0  0  0  0  0  0  0  0  0  0  0
  -19.4330   -6.4170   23.0544 F   0  0  0  0  0  0  0  0  0  0  0  0
  1  2  1  0  0  0  0
  1  5  2  0  0  0  0
  2  6  2  0  0  0  0
  3  8  2  0  0  0  0
  3 15  1  0  0  0  0
  4  9  1  0  0  0  0
  4 15  2  0  0  0  0
  5 17  1  0  0  0  0
  6 19  1  0  0  0  0
  7 10  2  0  0  0  0
  7 18  1  0  0  0  0
  8 21  1  0  0  0  0
  9 21  2  0  0  0  0
 10 22  1  0  0  0  0
 11 12  2  0  0  0  0
 11 23  1  0  0  0  0
 12 24  1  0  0  0  0
 13 20  1  0  0  0  0
 13 22  2  0  0  0  0
 14 24  2  0  0  0  0
 14 25  1  0  0  0  0
 15 26  1  0  0  0  0
 16 26  1  0  0  0  0
 16 27  2  0  0  0  0
 16 28  1  0  0  0  0
 17 19  2  0  0  0  0
 17 33  1  0  0  0  0
 18 20  2  0  0  0  0
 18 34  1  0  0  0  0
 19 46  1  0  0  0  0
 20 35  1  0  0  0  0
 21 75  1  0  0  0  0
 22 76  1  0  0  0  0
 23 25  2  0  0  0  0
 23 75  1  0  0  0  0
 24 77  1  0  0  0  0
 25 78  1  0  0  0  0
 26 60  2  0  0  0  0
 27 61  1  0  0  0  0
 27 65  1  0  0  0  0
 28 66  1  0  0  0  0
 28 70  2  0  0  0  0
 29 47  1  0  0  0  0
 29 67  1  0  0  0  0
 29 71  2  0  0  0  0
 30 57  1  0  0  0  0
 30 62  1  0  0  0  0
 30 72  2  0  0  0  0
 31 58  1  0  0  0  0
 31 68  1  0  0  0  0
 31 73  2  0  0  0  0
 32 63  1  0  0  0  0
 32 64  1  0  0  0  0
 32 74  2  0  0  0  0
 33 36  1  0  0  0  0
 34 47  1  0  0  0  0
 35 62  1  0  0  0  0
 36 38  1  0  0  0  0
 37 39  1  0  0  0  0
 37 42  1  0  0  0  0
 38 46  1  0  0  0  0
 39 49  1  0  0  0  0
 40 43  1  0  0  0  0
 40 48  1  0  0  0  0
 41 44  1  0  0  0  0
 41 48  1  0  0  0  0
 42 63  1  0  0  0  0
 43 64  1  0  0  0  0
 44 64  1  0  0  0  0
 45 49  1  0  0  0  0
 45 63  1  0  0  0  0
 46 67  1  0  0  0  0
 47 62  1  0  0  0  0
 48 55  1  0  0  0  0
 49 61  1  0  0  0  0
 50 58  1  0  0  0  0
 51 59  1  0  0  0  0
 52 59  1  0  0  0  0
 53 59  1  0  0  0  0
 54 69  1  0  0  0  0
 55 56  1  0  0  0  0
 56 76  1  0  0  0  0
 57 59  1  0  0  0  0
 57 68  1  0  0  0  0
 58 69  1  0  0  0  0
 60 61  1  0  0  0  0
M  CHG  1  69   1
M  ISO  4  32 100  56 101  64 100  76 101
M  END
> <Batch ID>
0177

> <Smiles>
CNC(C)C(=O)NC(C(=O)N1Cc2cc([101O:1][101CH2:1]CC3CC[100N:0]([100C:0](=O)N4CCCC(n5nc(-c6ccc(Oc7ccc(F)cc7F)cc6)c(C(N)=O)c5N)C4)CC3)ccc2CC1C(=O)NC1CCCc2ccccc21)C(C)(C)C

> <Shape>
0.245

> <Color>
0.182

> <Negative vol penalty>
0.000

$$$$

  -OEChem-04052322523D

 82 91  0     1  0  0  0  0  0999 V2000
  -16.7404  -30.4542   24.0816 C   0  0  0  0  0  0  0  0  0  0  0  0
  -17.3592  -29.3600   24.6776 C   0  0  0  0  0  0  0  0  0  0  0  0
  -23.1634   -9.7955   21.5169 C   0  0  0  0  0  0  0  0  0  0  0  0
  -23.7878  -10.9256   23.5589 C   0  0  0  0  0  0  0  0  0  0  0  0
  -17.2147  -30.9452   22.8660 C   0  0  0  0  0  0  0  0  0  0  0  0
  -18.4522  -28.7554   24.0576 C   0  0  0  0  0  0  0  0  0  0  0  0
  -24.5703  -25.3617   25.5961 C   0  0  0  0  0  0  0  0  0  0  0  0
  -27.8219  -19.2003   22.2058 C   0  0  0  0  0  0  0  0  0  0  0  0
  -22.4530   -8.8504   22.2571 C   0  0  0  0  0  0  0  0  0  0  0  0
  -23.0774   -9.9806   24.2991 C   0  0  0  0  0  0  0  0  0  0  0  0
  -25.2532  -24.1835   25.2969 C   0  0  0  0  0  0  0  0  0  0  0  0
  -23.1400   -6.1000   24.0976 C   0  0  0  0  0  0  0  0  0  0  0  0
  -23.3025   -4.7568   23.7585 C   0  0  0  0  0  0  0  0  0  0  0  0
  -27.2038  -20.4347   22.3712 C   0  0  0  0  0  0  0  0  0  0  0  0
  -26.0352  -25.1669   23.2376 C   0  0  0  0  0  0  0  0  0  0  0  0
  -20.9378   -4.5882   23.2931 C   0  0  0  0  0  0  0  0  0  0  0  0
  -23.8308  -10.8331   22.1678 C   0  0  0  0  0  0  0  0  0  0  0  0
  -24.0775  -13.0223   20.8817 C   0  0  0  0  0  0  0  0  0  0  0  0
  -18.3201  -30.3523   22.2355 C   0  0  0  0  0  0  0  0  0  0  0  0
  -24.6060  -26.4492   24.7116 C   0  0  0  0  0  0  0  0  0  0  0  0
  -18.9409  -29.2381   22.8317 C   0  0  0  0  0  0  0  0  0  0  0  0
  -29.2063  -19.1313   22.0966 C   0  0  0  0  0  0  0  0  0  0  0  0
  -25.3541  -26.3586   23.5292 C   0  0  0  0  0  0  0  0  0  0  0  0
  -22.4100   -8.9430   23.6482 C   0  0  0  0  0  0  0  0  0  0  0  0
  -25.9834  -24.0850   24.1162 C   0  0  0  0  0  0  0  0  0  0  0  0
  -21.8764   -6.6873   24.0345 C   0  0  0  0  0  0  0  0  0  0  0  0
  -22.2014   -4.0009   23.3562 C   0  0  0  0  0  0  0  0  0  0  0  0
  -20.7753   -5.9314   23.6323 C   0  0  0  0  0  0  0  0  0  0  0  0
  -24.5652  -11.8093   21.4038 C   0  0  0  0  0  0  0  0  0  0  0  0
  -28.0086  -21.5615   22.4208 C   0  0  0  0  0  0  0  0  0  0  0  0
  -29.9215  -20.3165   22.1583 C   0  0  0  0  0  0  0  0  0  0  0  0
  -25.1580  -13.5805   20.2434 C   0  0  0  0  0  0  0  0  0  0  0  0
  -22.7652  -13.5936   20.9664 C   0  0  0  0  0  0  0  0  0  0  0  0
  -22.4318  -28.0428   23.0273 C   0  0  0  0  0  0  0  0  0  0  0  0
  -24.9480  -29.9692   22.3345 C   0  0  0  0  0  0  0  0  0  0  0  0
  -28.3302  -30.3298   22.0561 C   0  0  0  0  0  0  0  0  0  0  0  0
  -30.6517  -14.8731   20.3245 C   0  0  0  0  0  0  0  0  0  0  0  0
  -18.7673  -30.8887   20.8988 C   0  0  0  0  0  0  0  0  0  0  0  0
  -23.8859  -27.7225   25.0617 C   0  0  0  0  0  0  0  0  0  0  0  0
  -25.4409  -27.5047   22.5559 C   0  0  0  0  0  0  0  0  0  0  0  0
  -20.1637  -30.4247   20.4926 C   0  0  0  0  0  0  0  0  0  0  0  0
  -29.6591  -11.6574   19.0570 C   0  0  0  0  0  0  0  0  0  0  0  0
  -20.3147  -28.9239   20.7199 C   0  0  0  0  0  0  0  0  0  0  0  0
  -28.2284  -11.4810   19.5547 C   0  0  0  0  0  0  0  0  0  0  0  0
  -30.4974  -12.4236   20.0715 C   0  0  0  0  0  0  0  0  0  0  0  0
  -29.0539  -16.4721   21.6476 C   0  0  0  0  0  0  0  0  0  0  0  0
  -30.6093  -17.4148   20.5588 C   0  0  0  0  0  0  0  0  0  0  0  0
  -28.4917  -13.6327   20.8896 C   0  0  0  0  0  0  0  0  0  0  0  0
  -29.9200  -17.7286   21.9067 C   0  0  0  0  0  0  0  0  0  0  0  0
  -20.1444  -28.5706   22.2023 C   0  0  1  0  0  0  0  0  0  0  0  0
  -23.5708  -28.5851   23.8435 C   0  0  1  0  0  0  0  0  0  0  0  0
  -27.6094  -12.8422   19.9032 C   0  0  2  0  0  0  0  0  0  0  0  0
  -31.4105  -20.3004   22.0455 C   0  0  0  0  0  0  0  0  0  0  0  0
  -30.0875  -32.0095   21.4334 C   0  0  0  0  0  0  0  0  0  0  0  0
  -24.2808  -29.5697   19.3840 C   0  0  0  0  0  0  0  0  0  0  0  0
  -26.5577  -30.4463   18.8222 C   0  0  0  0  0  0  0  0  0  0  0  0
  -24.9167  -31.9080   20.0025 C   0  0  0  0  0  0  0  0  0  0  0  0
  -29.5532  -30.2214   24.7490 C   0  0  0  0  0  0  0  0  0  0  0  0
  -27.3784  -22.9030   22.5954 C   0  0  0  0  0  0  0  0  0  1  0  0
  -26.0047  -30.0015   21.2569 C   0  0  1  0  0  0  0  0  0  0  0  0
  -29.2741  -31.4036   22.5665 C   0  0  2  0  0  0  0  0  0  0  0  0
  -25.4370  -30.4589   19.8836 C   0  0  0  0  0  0  0  0  0  0  0  0
  -25.8550  -11.6079   21.1214 N   0  0  0  0  0  0  0  0  0  0  0  0
  -29.3563  -21.5341   22.3183 N   0  0  0  0  0  0  0  0  0  0  0  0
  -26.1870  -12.7019   20.4149 N   0  0  0  0  0  0  0  0  0  0  0  0
  -24.7144  -28.7263   22.9399 N   0  0  0  0  0  0  0  0  0  0  0  0
  -29.8874  -13.7062   20.4354 N   0  0  0  0  0  0  0  0  0  0  0  0
  -30.0782  -16.0647   20.7009 N   0  0  0  0  0  0  0  0  0  0  0  0
  -25.3188  -14.7322   19.5577 N   0  0  0  0  0  0  0  0  0  0  0  0
  -21.7726  -12.8876   21.6597 N   0  0  0  0  0  0  0  0  0  0  0  0
  -21.3467  -28.8939   22.9403 N   0  0  0  0  0  0  0  0  0  0  0  0
  -27.0828  -30.8415   21.7674 N   0  0  0  0  0  0  0  0  0  0  0  0
  -30.2173  -30.8307   23.5681 N   0  3  0  0  0  0  0  0  0  0  0  0
  -22.4769  -14.6896   20.4286 O   0  0  0  0  0  0  0  0  0  0  0  0
  -22.5307  -26.9348   22.5131 O   0  0  0  0  0  0  0  0  0  0  0  0
  -24.3569  -31.0098   22.6332 O   0  0  0  0  0  0  0  0  0  0  0  0
  -28.6670  -29.1553   21.9231 O   0  0  0  0  0  0  0  0  0  0  0  0
  -31.8247  -14.8505   19.9288 O   0  0  0  0  0  0  0  0  0  0  0  0
  -21.7168   -8.0211   24.3708 O   0  0  0  0  0  0  0  0  0  0  0  0
  -26.6549  -22.9279   23.8193 O   0  0  0  0  0  0  0  0  0  1  0  0
  -22.3579   -2.7114   23.0291 F   0  0  0  0  0  0  0  0  0  0  0  0
  -19.5590   -6.4904   23.5686 F   0  0  0  0  0  0  0  0  0  0  0  0
  1  2  1  0  0  0  0
  1  5  2  0  0  0  0
  2  6  2  0  0  0  0
  3  9  2  0  0  0  0
  3 17  1  0  0  0  0
  4 10  1  0  0  0  0
  4 17  2  0  0  0  0
  5 19  1  0  0  0  0
  6 21  1  0  0  0  0
  7 11  2  0  0  0  0
  7 20  1  0  0  0  0
  8 14  2  0  0  0  0
  8 22  1  0  0  0  0
  9 24  1  0  0  0  0
 10 24  2  0  0  0  0
 11 25  1  0  0  0  0
 12 13  2  0  0  0  0
 12 26  1  0  0  0  0
 13 27  1  0  0  0  0
 14 30  1  0  0  0  0
 15 23  1  0  0  0  0
 15 25  2  0  0  0  0
 16 27  2  0  0  0  0
 16 28  1  0  0  0  0
 17 29  1  0  0  0  0
 18 29  1  0  0  0  0
 18 32  2  0  0  0  0
 18 33  1  0  0  0  0
 19 21  2  0  0  0  0
 19 38  1  0  0  0  0
 20 23  2  0  0  0  0
 20 39  1  0  0  0  0
 21 50  1  0  0  0  0
 22 31  2  0  0  0  0
 22 49  1  0  0  0  0
 23 40  1  0  0  0  0
 24 79  1  0  0  0  0
 25 80  1  0  0  0  0
 26 28  2  0  0  0  0
 26 79  1  0  0  0  0
 27 81  1  0  0  0  0
 28 82  1  0  0  0  0
 29 63  2  0  0  0  0
 30 59  1  0  0  0  0
 30 64  2  0  0  0  0
 31 53  1  0  0  0  0
 31 64  1  0  0  0  0
 32 65  1  0  0  0  0
 32 69  1  0  0  0  0
 33 70  1  0  0  0  0
 33 74  2  0  0  0  0
 34 51  1  0  0  0  0
 34 71  1  0  0  0  0
 34 75  2  0  0  0  0
 35 60  1  0  0  0  0
 35 66  1  0  0  0  0
 35 76  2  0  0  0  0
 36 61  1  0  0  0  0
 36 72  1  0  0  0  0
 36 77  2  0  0  0  0
 37 67  1  0  0  0  0
 37 68  1  0  0  0  0
 37 78  2  0  0  0  0
 38 41  1  0  0  0  0
 39 51  1  0  0  0  0
 40 66  1  0  0  0  0
 41 43  1  0  0  0  0
 42 44  1  0  0  0  0
 42 45  1  0  0  0  0
 43 50  1  0  0  0  0
 44 52  1  0  0  0  0
 45 67  1  0  0  0  0
 46 49  1  0  0  0  0
 46 68  1  0  0  0  0
 47 49  1  0  0  0  0
 47 68  1  0  0  0  0
 48 52  1  0  0  0  0
 48 67  1  0  0  0  0
 50 71  1  0  0  0  0
 51 66  1  0  0  0  0
 52 65  1  0  0  0  0
 54 61  1  0  0  0  0
 55 62  1  0  0  0  0
 56 62  1  0  0  0  0
 57 62  1  0  0  0  0
 58 73  1  0  0  0  0
 59 80  1  0  0  0  0
 60 62  1  0  0  0  0
 60 72  1  0  0  0  0
 61 73  1  0  0  0  0
 63 65  1  0  0  0  0
M  CHG  1  73   1
M  ISO  4  37 100  59 101  68 100  80 101
M  END
> <Batch ID>
0177

> <Smiles>
CNC(C)C(=O)NC(C(=O)N1Cc2cc([101O:1][101CH2:1]c3ccc(C4C[100N:0]([100C:0](=O)N5CCCC(n6nc(-c7ccc(Oc8ccc(F)cc8F)cc7)c(C(N)=O)c6N)C5)C4)c(C)n3)ccc2CC1C(=O)NC1CCCc2ccccc21)C(C)(C)C

> <Shape>
0.281

> <Color>
0.179

> <Negative vol penalty>
0.000

$$$$

  -OEChem-04052322523D

 87 97  0     1  0  0  0  0  0999 V2000
  -28.2904  -38.2378   22.4611 C   0  0  0  0  0  0  0  0  0  0  0  0
  -28.7872  -37.0795   21.8722 C   0  0  0  0  0  0  0  0  0  0  0  0
  -23.3503   -9.9120   22.0483 C   0  0  0  0  0  0  0  0  0  0  0  0
  -24.8448   -8.3403   20.9838 C   0  0  0  0  0  0  0  0  0  0  0  0
  -27.2618  -38.1559   23.3987 C   0  0  0  0  0  0  0  0  0  0  0  0
  -28.2564  -35.8382   22.2215 C   0  0  0  0  0  0  0  0  0  0  0  0
  -26.8586  -29.3834   19.4471 C   0  0  0  0  0  0  0  0  0  0  0  0
  -22.3107   -8.9868   21.9548 C   0  0  0  0  0  0  0  0  0  0  0  0
  -23.8052   -7.4150   20.8904 C   0  0  0  0  0  0  0  0  0  0  0  0
  -27.0879  -28.0311   19.6969 C   0  0  0  0  0  0  0  0  0  0  0  0
  -22.2317   -5.2247   22.9268 C   0  0  0  0  0  0  0  0  0  0  0  0
  -22.5075   -3.9043   23.2817 C   0  0  0  0  0  0  0  0  0  0  0  0
  -26.7511  -23.5825   23.1276 C   0  0  0  0  0  0  0  0  0  0  0  0
  -25.2589  -28.0177   21.2697 C   0  0  0  0  0  0  0  0  0  0  0  0
  -21.9132   -3.1815   21.0542 C   0  0  0  0  0  0  0  0  0  0  0  0
  -24.6174   -9.5888   21.5628 C   0  0  0  0  0  0  0  0  0  0  0  0
  -26.6045  -10.6935   22.7197 C   0  0  0  0  0  0  0  0  0  0  0  0
  -26.7115  -36.9139   23.7525 C   0  0  0  0  0  0  0  0  0  0  0  0
  -25.8330  -30.0669   20.1160 C   0  0  0  0  0  0  0  0  0  0  0  0
  -27.2203  -35.7395   23.1657 C   0  0  0  0  0  0  0  0  0  0  0  0
  -27.1327  -22.2549   23.2863 C   0  0  0  0  0  0  0  0  0  0  0  0
  -25.0170  -29.3781   21.0248 C   0  0  0  0  0  0  0  0  0  0  0  0
  -26.0680  -23.9714   21.9807 C   0  0  0  0  0  0  0  0  0  0  0  0
  -22.5381   -7.7383   21.3759 C   0  0  0  0  0  0  0  0  0  0  0  0
  -26.2898  -27.3487   20.6105 C   0  0  0  0  0  0  0  0  0  0  0  0
  -21.7966   -5.5236   21.6357 C   0  0  0  0  0  0  0  0  0  0  0  0
  -22.3483   -2.8827   22.3454 C   0  0  0  0  0  0  0  0  0  0  0  0
  -21.6374   -4.5020   20.6994 C   0  0  0  0  0  0  0  0  0  0  0  0
  -25.6916  -10.5443   21.6585 C   0  0  0  0  0  0  0  0  0  0  0  0
  -26.8100  -21.3623   22.2769 C   0  0  0  0  0  0  0  0  0  0  0  0
  -25.7930  -23.0019   21.0297 C   0  0  0  0  0  0  0  0  0  0  0  0
  -27.4178  -11.7294   22.3299 C   0  0  0  0  0  0  0  0  0  0  0  0
  -26.7083   -9.9610   23.9478 C   0  0  0  0  0  0  0  0  0  0  0  0
  -25.7154  -32.5307   22.1208 C   0  0  0  0  0  0  0  0  0  0  0  0
  -22.5120  -32.1745   21.7552 C   0  0  0  0  0  0  0  0  0  0  0  0
  -19.8956  -30.1301   20.9668 C   0  0  0  0  0  0  0  0  0  0  0  0
  -28.2779  -16.6659   20.1133 C   0  0  0  0  0  0  0  0  0  0  0  0
  -25.6330  -36.8713   24.8059 C   0  0  0  0  0  0  0  0  0  0  0  0
  -25.5814  -31.5190   19.8155 C   0  0  0  0  0  0  0  0  0  0  0  0
  -23.8899  -30.0610   21.7540 C   0  0  0  0  0  0  0  0  0  0  0  0
  -24.8700  -35.5497   24.8434 C   0  0  0  0  0  0  0  0  0  0  0  0
  -27.8886  -14.0613   17.8743 C   0  0  0  0  0  0  0  0  0  0  0  0
  -27.0865  -21.2639   25.6716 C   0  0  0  0  0  0  0  0  0  0  0  0
  -27.6964  -22.6264   25.7808 C   0  0  0  0  0  0  0  0  0  0  0  0
  -25.8390  -34.3724   24.7994 C   0  0  0  0  0  0  0  0  0  0  0  0
  -27.3576  -12.9168   18.7371 C   0  0  0  0  0  0  0  0  0  0  0  0
  -26.1748  -18.9742   21.7152 C   0  0  0  0  0  0  0  0  0  0  0  0
  -28.6150  -19.6356   21.8484 C   0  0  0  0  0  0  0  0  0  0  0  0
  -27.2414  -15.3849   18.2652 C   0  0  0  0  0  0  0  0  0  0  0  0
  -26.5911  -17.5035   21.8086 C   0  0  0  0  0  0  0  0  0  0  0  0
  -28.9706  -18.1563   21.9647 C   0  0  0  0  0  0  0  0  0  0  0  0
  -26.8832  -14.6009   20.5836 C   0  0  0  0  0  0  0  0  0  0  0  0
  -27.8650  -21.8304   24.5123 C   0  0  0  0  0  0  0  0  0  0  0  0
  -26.6536  -34.3767   23.5002 C   0  0  1  0  0  0  0  0  0  0  0  0
  -27.1999  -19.9008   22.3936 C   0  0  0  0  0  0  0  0  0  0  0  0
  -24.8386  -32.2410   20.9355 C   0  0  1  0  0  0  0  0  0  0  0  0
  -27.5110  -13.2361   20.2347 C   0  0  1  0  0  0  0  0  0  0  0  0
  -25.0621  -23.3622   19.7779 C   0  0  0  0  0  0  0  0  0  0  0  0
  -17.3921  -30.1121   20.7948 C   0  0  0  0  0  0  0  0  0  0  0  0
  -22.3064  -32.0374   24.7964 C   0  0  0  0  0  0  0  0  0  0  0  0
  -20.0055  -31.0875   24.5284 C   0  0  0  0  0  0  0  0  0  0  0  0
  -20.5115  -33.3814   23.6890 C   0  0  0  0  0  0  0  0  0  0  0  0
  -19.9829  -29.4951   18.0775 C   0  0  0  0  0  0  0  0  0  0  0  0
  -25.6563  -25.3921   21.8047 C   0  0  0  0  0  0  0  0  0  1  0  0
  -21.4380  -31.3780   22.4561 C   0  0  1  0  0  0  0  0  0  0  0  0
  -18.7010  -30.3303   20.0518 C   0  0  2  0  0  0  0  0  0  0  0  0
  -21.0878  -31.9584   23.8553 C   0  0  0  0  0  0  0  0  0  0  0  0
  -25.9042  -11.4159   20.6690 N   0  0  0  0  0  0  0  0  0  0  0  0
  -26.1476  -21.7027   21.1487 N   0  0  0  0  0  0  0  0  0  0  0  0
  -26.9600  -12.1227   21.1068 N   0  0  0  0  0  0  0  0  0  0  0  0
  -23.6878  -31.4830   21.4308 N   0  0  0  0  0  0  0  0  0  0  0  0
  -27.4055  -15.6501   19.6943 N   0  0  0  0  0  0  0  0  0  0  0  0
  -27.9626  -17.3198   21.3139 N   0  0  0  0  0  0  0  0  0  0  0  0
  -28.4725  -12.3333   22.9175 N   0  0  0  0  0  0  0  0  0  0  0  0
  -25.7924   -8.9279   24.1891 N   0  0  0  0  0  0  0  0  0  0  0  0
  -25.8555  -33.8764   22.4016 N   0  0  0  0  0  0  0  0  0  0  0  0
  -20.3085  -31.3167   21.5348 N   0  0  0  0  0  0  0  0  0  0  0  0
  -18.7578  -29.3752   18.9093 N   0  3  0  0  0  0  0  0  0  0  0  0
  -27.5769  -10.2259   24.8132 O   0  0  0  0  0  0  0  0  0  0  0  0
  -26.2259  -31.6019   22.7361 O   0  0  0  0  0  0  0  0  0  0  0  0
  -22.3122  -33.3643   21.4985 O   0  0  0  0  0  0  0  0  0  0  0  0
  -20.4086  -29.0303   21.1614 O   0  0  0  0  0  0  0  0  0  0  0  0
  -29.2801  -16.9706   19.4546 O   0  0  0  0  0  0  0  0  0  0  0  0
  -21.5239   -6.8351   21.2847 O   0  0  0  0  0  0  0  0  0  0  0  0
  -26.5134  -26.0200   20.8583 O   0  0  0  0  0  0  0  0  0  1  0  0
  -22.6147   -1.6149   22.6858 F   0  0  0  0  0  0  0  0  0  0  0  0
  -21.2208   -4.7831   19.4571 F   0  0  0  0  0  0  0  0  0  0  0  0
  1  2  1  0  0  0  0
  1  5  2  0  0  0  0
  2  6  2  0  0  0  0
  3  8  2  0  0  0  0
  3 16  1  0  0  0  0
  4  9  1  0  0  0  0
  4 16  2  0  0  0  0
  5 18  1  0  0  0  0
  6 20  1  0  0  0  0
  7 10  2  0  0  0  0
  7 19  1  0  0  0  0
  8 24  1  0  0  0  0
  9 24  2  0  0  0  0
 10 25  1  0  0  0  0
 11 12  2  0  0  0  0
 11 26  1  0  0  0  0
 12 27  1  0  0  0  0
 13 21  2  0  0  0  0
 13 23  1  0  0  0  0
 14 22  1  0  0  0  0
 14 25  2  0  0  0  0
 15 27  2  0  0  0  0
 15 28  1  0  0  0  0
 16 29  1  0  0  0  0
 17 29  1  0  0  0  0
 17 32  2  0  0  0  0
 17 33  1  0  0  0  0
 18 20  2  0  0  0  0
 18 38  1  0  0  0  0
 19 22  2  0  0  0  0
 19 39  1  0  0  0  0
 20 54  1  0  0  0  0
 21 30  1  0  0  0  0
 21 53  1  0  0  0  0
 22 40  1  0  0  0  0
 23 31  2  0  0  0  0
 23 64  1  0  0  0  0
 24 84  1  0  0  0  0
 25 85  1  0  0  0  0
 26 28  2  0  0  0  0
 26 84  1  0  0  0  0
 27 86  1  0  0  0  0
 28 87  1  0  0  0  0
 29 68  2  0  0  0  0
 30 55  1  0  0  0  0
 30 69  2  0  0  0  0
 31 58  1  0  0  0  0
 31 69  1  0  0  0  0
 32 70  1  0  0  0  0
 32 74  1  0  0  0  0
 33 75  1  0  0  0  0
 33 79  2  0  0  0  0
 34 56  1  0  0  0  0
 34 76  1  0  0  0  0
 34 80  2  0  0  0  0
 35 65  1  0  0  0  0
 35 71  1  0  0  0  0
 35 81  2  0  0  0  0
 36 66  1  0  0  0  0
 36 77  1  0  0  0  0
 36 82  2  0  0  0  0
 37 72  1  0  0  0  0
 37 73  1  0  0  0  0
 37 83  2  0  0  0  0
 38 41  1  0  0  0  0
 39 56  1  0  0  0  0
 40 71  1  0  0  0  0
 41 45  1  0  0  0  0
 42 46  1  0  0  0  0
 42 49  1  0  0  0  0
 43 44  1  0  0  0  0
 43 53  1  0  0  0  0
 44 53  1  0  0  0  0
 45 54  1  0  0  0  0
 46 57  1  0  0  0  0
 47 50  1  0  0  0  0
 47 55  1  0  0  0  0
 48 51  1  0  0  0  0
 48 55  1  0  0  0  0
 49 72  1  0  0  0  0
 50 73  1  0  0  0  0
 51 73  1  0  0  0  0
 52 57  1  0  0  0  0
 52 72  1  0  0  0  0
 54 76  1  0  0  0  0
 56 71  1  0  0  0  0
 57 70  1  0  0  0  0
 59 66  1  0  0  0  0
 60 67  1  0  0  0  0
 61 67  1  0  0  0  0
 62 67  1  0  0  0  0
 63 78  1  0  0  0  0
 64 85  1  0  0  0  0
 65 67  1  0  0  0  0
 65 77  1  0  0  0  0
 66 78  1  0  0  0  0
 68 70  1  0  0  0  0
M  CHG  1  78   1
M  ISO  4  37 100  64 101  73 100  85 101
M  END
> <Batch ID>
0177

> <Smiles>
CNC(C)C(=O)NC(C(=O)N1Cc2cc([101O:1][101CH2:1]c3cc(C4CC4)c(C4CC[100N:0]([100C:0](=O)N5CCCC(n6nc(-c7ccc(Oc8ccc(F)cc8F)cc7)c(C(N)=O)c6N)C5)CC4)nc3C)ccc2CC1C(=O)NC1CCCc2ccccc21)C(C)(C)C

> <Shape>
0.230

> <Color>
0.080

> <Negative vol penalty>
0.000

$$$$

  -OEChem-04052322523D

 85 94  0     1  0  0  0  0  0999 V2000
  -27.8126  -35.9409   16.3326 C   0  0  0  0  0  0  0  0  0  0  0  0
  -28.4562  -34.7098   16.4064 C   0  0  0  0  0  0  0  0  0  0  0  0
  -24.3977   -9.2535   22.3615 C   0  0  0  0  0  0  0  0  0  0  0  0
  -24.0553   -9.1257   19.9733 C   0  0  0  0  0  0  0  0  0  0  0  0
  -27.0277  -36.3808   17.3976 C   0  0  0  0  0  0  0  0  0  0  0  0
  -28.3162  -33.9183   17.5459 C   0  0  0  0  0  0  0  0  0  0  0  0
  -28.0303  -27.0541   19.5749 C   0  0  0  0  0  0  0  0  0  0  0  0
  -23.9485   -7.9399   22.4963 C   0  0  0  0  0  0  0  0  0  0  0  0
  -23.6061   -7.8120   20.1081 C   0  0  0  0  0  0  0  0  0  0  0  0
  -28.6224  -26.1723   20.4780 C   0  0  0  0  0  0  0  0  0  0  0  0
  -20.9852   -6.3151   22.5564 C   0  0  0  0  0  0  0  0  0  0  0  0
  -20.0820   -6.0419   23.5836 C   0  0  0  0  0  0  0  0  0  0  0  0
  -27.1772  -26.9992   22.2236 C   0  0  0  0  0  0  0  0  0  0  0  0
  -21.6455   -4.4675   24.5396 C   0  0  0  0  0  0  0  0  0  0  0  0
  -24.4511   -9.8464   21.1001 C   0  0  0  0  0  0  0  0  0  0  0  0
  -24.3576  -12.3565   21.5454 C   0  0  0  0  0  0  0  0  0  0  0  0
  -26.8702  -35.5900   18.5468 C   0  0  0  0  0  0  0  0  0  0  0  0
  -27.0129  -27.9241   19.9926 C   0  0  0  0  0  0  0  0  0  0  0  0
  -27.5296  -34.3487   18.6279 C   0  0  0  0  0  0  0  0  0  0  0  0
  -26.5720  -27.8892   21.3232 C   0  0  0  0  0  0  0  0  0  0  0  0
  -23.5527   -7.2191   21.3696 C   0  0  0  0  0  0  0  0  0  0  0  0
  -28.1979  -26.1468   21.8033 C   0  0  0  0  0  0  0  0  0  0  0  0
  -22.2186   -5.6644   22.5207 C   0  0  0  0  0  0  0  0  0  0  0  0
  -20.4121   -5.1182   24.5752 C   0  0  0  0  0  0  0  0  0  0  0  0
  -22.5487   -4.7406   23.5124 C   0  0  0  0  0  0  0  0  0  0  0  0
  -24.9145  -11.2036   20.9603 C   0  0  0  0  0  0  0  0  0  0  0  0
  -25.1570  -13.3841   21.1077 C   0  0  0  0  0  0  0  0  0  0  0  0
  -30.8453  -22.3713   23.1333 C   0  0  0  0  0  0  0  0  0  0  0  0
  -30.3181  -23.5927   23.3061 C   0  0  0  0  0  0  0  0  0  0  0  0
  -23.2195  -12.4870   22.4077 C   0  0  0  0  0  0  0  0  0  0  0  0
  -26.6784  -31.0821   20.1304 C   0  0  0  0  0  0  0  0  0  0  0  0
  -23.6461  -30.3319   21.0051 C   0  0  0  0  0  0  0  0  0  0  0  0
  -21.5026  -28.0475   22.3592 C   0  0  0  0  0  0  0  0  0  0  0  0
  -30.5157  -15.1452   20.3708 C   0  0  0  0  0  0  0  0  0  0  0  0
  -26.0498  -36.1289   19.6919 C   0  0  0  0  0  0  0  0  0  0  0  0
  -26.3660  -28.8505   18.9998 C   0  0  0  0  0  0  0  0  0  0  0  0
  -25.4694  -28.7886   21.8171 C   0  0  0  0  0  0  0  0  0  0  0  0
  -31.3492  -21.5465   24.2842 C   0  0  0  0  0  0  0  0  0  0  0  0
  -25.6501  -35.0632   20.7092 C   0  0  0  0  0  0  0  0  0  0  0  0
  -28.7428  -13.5080   17.5571 C   0  0  0  0  0  0  0  0  0  0  0  0
  -26.8495  -34.1921   21.0689 C   0  0  0  0  0  0  0  0  0  0  0  0
  -27.5889  -12.7978   18.2626 C   0  0  0  0  0  0  0  0  0  0  0  0
  -31.3231  -17.5524   22.7352 C   0  0  0  0  0  0  0  0  0  0  0  0
  -28.9394  -17.8663   21.9595 C   0  0  0  0  0  0  0  0  0  0  0  0
  -29.9518  -13.6719   18.4727 C   0  0  0  0  0  0  0  0  0  0  0  0
  -31.1358  -16.0442   22.5940 C   0  0  0  0  0  0  0  0  0  0  0  0
  -28.8075  -16.3480   21.8077 C   0  0  0  0  0  0  0  0  0  0  0  0
  -28.4874  -13.6438   20.4669 C   0  0  0  0  0  0  0  0  0  0  0  0
  -30.6416  -20.1942   24.3846 C   0  0  0  0  0  0  0  0  0  0  0  0
  -31.0460  -20.1766   21.8979 C   0  0  0  0  0  0  0  0  0  0  0  0
  -27.3821  -33.4505   19.8369 C   0  0  1  0  0  0  0  0  0  0  0  0
  -30.9120  -21.7034   21.7739 C   0  0  2  0  0  0  0  0  0  0  0  0
  -25.6927  -30.0525   19.6549 C   0  0  1  0  0  0  0  0  0  0  0  0
  -27.2382  -13.5029   19.5841 C   0  0  2  0  0  0  0  0  0  0  0  0
  -29.9812  -18.2253   23.0168 C   0  0  0  0  0  0  0  0  0  0  0  0
  -32.0585  -22.2582   20.9275 C   0  0  0  0  0  0  0  0  0  0  0  0
  -19.0910  -27.7349   22.9789 C   0  0  0  0  0  0  0  0  0  0  0  0
  -24.0502  -32.0990   23.4595 C   0  0  0  0  0  0  0  0  0  0  0  0
  -22.0393  -31.0156   24.4843 C   0  0  0  0  0  0  0  0  0  0  0  0
  -21.8095  -32.3214   22.3714 C   0  0  0  0  0  0  0  0  0  0  0  0
  -21.2009  -25.7637   20.5012 C   0  0  0  0  0  0  0  0  0  0  0  0
  -29.8081  -24.4403   22.1916 C   0  0  0  0  0  0  0  0  0  1  0  0
  -22.9468  -30.0641   22.3159 C   0  0  1  0  0  0  0  0  0  0  0  0
  -20.1460  -27.5436   21.9005 C   0  0  2  0  0  0  0  0  0  0  0  0
  -22.7336  -31.3593   23.1492 C   0  0  0  0  0  0  0  0  0  0  0  0
  -25.9848  -11.4727   20.2080 N   0  0  0  0  0  0  0  0  0  0  0  0
  -26.1069  -12.8066   20.3174 N   0  0  0  0  0  0  0  0  0  0  0  0
  -24.8726  -29.6811   20.8098 N   0  0  0  0  0  0  0  0  0  0  0  0
  -29.5853  -14.3013   19.7416 N   0  0  0  0  0  0  0  0  0  0  0  0
  -30.1230  -15.7301   21.5843 N   0  0  0  0  0  0  0  0  0  0  0  0
  -25.1330  -14.7161   21.3254 N   0  0  0  0  0  0  0  0  0  0  0  0
  -22.5111  -11.3298   22.7588 N   0  0  0  0  0  0  0  0  0  0  0  0
  -26.5384  -32.3166   19.5256 N   0  0  0  0  0  0  0  0  0  0  0  0
  -21.7144  -29.3574   21.9842 N   0  0  0  0  0  0  0  0  0  0  0  0
  -30.1709  -19.6988   23.0312 N   0  3  1  0  0  0  0  0  0  0  0  0
  -20.2184  -26.0933   21.5656 N   0  3  0  0  0  0  0  0  0  0  0  0
  -22.8322  -13.5989   22.8403 O   0  0  0  0  0  0  0  0  0  0  0  0
  -27.5038  -30.7793   20.9840 O   0  0  0  0  0  0  0  0  0  0  0  0
  -23.1201  -31.0849   20.1818 O   0  0  0  0  0  0  0  0  0  0  0  0
  -22.2935  -27.3502   22.9906 O   0  0  0  0  0  0  0  0  0  0  0  0
  -31.6286  -15.3636   19.8759 O   0  0  0  0  0  0  0  0  0  0  0  0
  -23.1145   -5.9372   21.5006 O   0  0  0  0  0  0  0  0  0  0  0  0
  -28.7789  -25.2812   22.6936 O   0  0  0  0  0  0  0  0  0  1  0  0
  -19.5453   -4.8572   25.5625 F   0  0  0  0  0  0  0  0  0  0  0  0
  -23.7325   -4.1133   23.4841 F   0  0  0  0  0  0  0  0  0  0  0  0
  1  2  1  0  0  0  0
  1  5  2  0  0  0  0
  2  6  2  0  0  0  0
  3  8  2  0  0  0  0
  3 15  1  0  0  0  0
  4  9  1  0  0  0  0
  4 15  2  0  0  0  0
  5 17  1  0  0  0  0
  6 19  1  0  0  0  0
  7 10  2  0  0  0  0
  7 18  1  0  0  0  0
  8 21  1  0  0  0  0
  9 21  2  0  0  0  0
 10 22  1  0  0  0  0
 11 12  2  0  0  0  0
 11 23  1  0  0  0  0
 12 24  1  0  0  0  0
 13 20  1  0  0  0  0
 13 22  2  0  0  0  0
 14 24  2  0  0  0  0
 14 25  1  0  0  0  0
 15 26  1  0  0  0  0
 16 26  1  0  0  0  0
 16 27  2  0  0  0  0
 16 30  1  0  0  0  0
 17 19  2  0  0  0  0
 17 35  1  0  0  0  0
 18 20  2  0  0  0  0
 18 36  1  0  0  0  0
 19 51  1  0  0  0  0
 20 37  1  0  0  0  0
 21 82  1  0  0  0  0
 22 83  1  0  0  0  0
 23 25  2  0  0  0  0
 23 82  1  0  0  0  0
 24 84  1  0  0  0  0
 25 85  1  0  0  0  0
 26 66  2  0  0  0  0
 27 67  1  0  0  0  0
 27 71  1  0  0  0  0
 28 29  2  0  0  0  0
 28 38  1  0  0  0  0
 28 52  1  0  0  0  0
 29 62  1  0  0  0  0
 30 72  1  0  0  0  0
 30 77  2  0  0  0  0
 31 53  1  0  0  0  0
 31 73  1  0  0  0  0
 31 78  2  0  0  0  0
 32 63  1  0  0  0  0
 32 68  1  0  0  0  0
 32 79  2  0  0  0  0
 33 64  1  0  0  0  0
 33 74  1  0  0  0  0
 33 80  2  0  0  0  0
 34 69  1  0  0  0  0
 34 70  1  0  0  0  0
 34 81  2  0  0  0  0
 35 39  1  0  0  0  0
 36 53  1  0  0  0  0
 37 68  1  0  0  0  0
 38 49  1  0  0  0  0
 39 41  1  0  0  0  0
 40 42  1  0  0  0  0
 40 45  1  0  0  0  0
 41 51  1  0  0  0  0
 42 54  1  0  0  0  0
 43 46  1  0  0  0  0
 43 55  1  0  0  0  0
 44 47  1  0  0  0  0
 44 55  1  0  0  0  0
 45 69  1  0  0  0  0
 46 70  1  0  0  0  0
 47 70  1  0  0  0  0
 48 54  1  0  0  0  0
 48 69  1  0  0  0  0
 49 75  1  0  0  0  0
 50 52  1  0  0  0  0
 50 75  1  0  0  0  0
 51 73  1  0  0  0  0
 52 56  1  0  0  0  0
 53 68  1  0  0  0  0
 54 67  1  0  0  0  0
 55 75  1  0  0  0  0
 57 64  1  0  0  0  0
 58 65  1  0  0  0  0
 59 65  1  0  0  0  0
 60 65  1  0  0  0  0
 61 76  1  0  0  0  0
 62 83  1  0  0  0  0
 63 65  1  0  0  0  0
 63 74  1  0  0  0  0
 64 76  1  0  0  0  0
 66 67  1  0  0  0  0
M  CHG  2  75   1  76   1
M  ISO  4  34 100  62 101  70 100  83 101
M  END
> <Batch ID>
0177

> <Smiles>
CNC(C)C(=O)NC(C(=O)N1Cc2cc([101O:1][101CH2:1]C=C3CCN(C4CC[100N:0]([100C:0](=O)N5CCCC(n6nc(-c7ccc(Oc8ccc(F)cc8F)cc7)c(C(N)=O)c6N)C5)CC4)CC3C)ccc2CC1C(=O)NC1CCCc2ccccc21)C(C)(C)C

> <Shape>
0.292

> <Color>
0.119

> <Negative vol penalty>
0.000

$$$$

  -OEChem-04052322523D

 84 93  0     1  0  0  0  0  0999 V2000
  -18.5432  -22.9726   25.5350 C   0  0  0  0  0  0  0  0  0  0  0  0
  -19.7055  -22.2808   25.2097 C   0  0  0  0  0  0  0  0  0  0  0  0
  -23.0599  -10.3835   19.8442 C   0  0  0  0  0  0  0  0  0  0  0  0
  -23.8278   -9.5521   21.9788 C   0  0  0  0  0  0  0  0  0  0  0  0
  -18.1525  -24.0736   24.7741 C   0  0  0  0  0  0  0  0  0  0  0  0
  -20.4773  -22.6890   24.1224 C   0  0  0  0  0  0  0  0  0  0  0  0
  -27.2836  -22.9991   21.9101 C   0  0  0  0  0  0  0  0  0  0  0  0
  -22.2343   -9.2677   19.7066 C   0  0  0  0  0  0  0  0  0  0  0  0
  -23.0021   -8.4363   21.8411 C   0  0  0  0  0  0  0  0  0  0  0  0
  -28.0819  -22.6331   20.8272 C   0  0  0  0  0  0  0  0  0  0  0  0
  -19.2416   -8.2230   20.8833 C   0  0  0  0  0  0  0  0  0  0  0  0
  -17.9328   -8.4345   20.4497 C   0  0  0  0  0  0  0  0  0  0  0  0
  -29.2114  -20.1989   17.2907 C   0  0  0  0  0  0  0  0  0  0  0  0
  -27.3512  -24.5973   19.6325 C   0  0  0  0  0  0  0  0  0  0  0  0
  -18.3427   -7.0296   18.5274 C   0  0  0  0  0  0  0  0  0  0  0  0
  -27.3051  -20.6367   15.9438 C   0  0  0  0  0  0  0  0  0  0  0  0
  -23.8567  -10.5257   20.9803 C   0  0  0  0  0  0  0  0  0  0  0  0
  -24.3827  -12.9096   21.7206 C   0  0  0  0  0  0  0  0  0  0  0  0
  -18.9250  -24.5014   23.6828 C   0  0  0  0  0  0  0  0  0  0  0  0
  -26.5034  -24.1631   21.8579 C   0  0  0  0  0  0  0  0  0  0  0  0
  -20.0958  -23.7960   23.3453 C   0  0  0  0  0  0  0  0  0  0  0  0
  -28.7488  -18.8939   17.4924 C   0  0  0  0  0  0  0  0  0  0  0  0
  -26.5459  -24.9772   20.7170 C   0  0  0  0  0  0  0  0  0  0  0  0
  -28.4845  -21.0876   16.5072 C   0  0  0  0  0  0  0  0  0  0  0  0
  -22.2054   -8.2941   20.7050 C   0  0  0  0  0  0  0  0  0  0  0  0
  -28.1136  -23.4307   19.6871 C   0  0  0  0  0  0  0  0  0  0  0  0
  -20.1009   -7.4149   20.1389 C   0  0  0  0  0  0  0  0  0  0  0  0
  -17.4834   -7.8378   19.2718 C   0  0  0  0  0  0  0  0  0  0  0  0
  -19.6515   -6.8182   18.9610 C   0  0  0  0  0  0  0  0  0  0  0  0
  -24.7101  -11.6778   21.1228 C   0  0  0  0  0  0  0  0  0  0  0  0
  -27.5550  -18.5353   16.8633 C   0  0  0  0  0  0  0  0  0  0  0  0
  -25.5255  -13.6625   21.6037 C   0  0  0  0  0  0  0  0  0  0  0  0
  -23.1553  -13.3351   22.3273 C   0  0  0  0  0  0  0  0  0  0  0  0
  -23.3888  -24.7839   21.9914 C   0  0  0  0  0  0  0  0  0  0  0  0
  -24.4003  -27.8659   22.0133 C   0  0  0  0  0  0  0  0  0  0  0  0
  -26.8420  -30.1194   21.2345 C   0  0  0  0  0  0  0  0  0  0  0  0
  -29.8699  -15.5079   18.8584 C   0  0  0  0  0  0  0  0  0  0  0  0
  -18.4371  -25.6682   22.8611 C   0  0  0  0  0  0  0  0  0  0  0  0
  -25.6682  -24.5581   23.0449 C   0  0  0  0  0  0  0  0  0  0  0  0
  -25.7427  -26.2475   20.6189 C   0  0  0  0  0  0  0  0  0  0  0  0
  -27.0372  -17.1344   17.0128 C   0  0  0  0  0  0  0  0  0  0  0  0
  -19.5095  -26.2641   21.9526 C   0  0  0  0  0  0  0  0  0  0  0  0
  -30.2140  -12.3639   20.2358 C   0  0  0  0  0  0  0  0  0  0  0  0
  -20.2536  -25.1593   21.2093 C   0  0  0  0  0  0  0  0  0  0  0  0
  -28.7892  -11.9944   20.6494 C   0  0  0  0  0  0  0  0  0  0  0  0
  -28.2057  -16.1673   17.1119 C   0  0  0  0  0  0  0  0  0  0  0  0
  -30.2275  -13.0560   18.8772 C   0  0  0  0  0  0  0  0  0  0  0  0
  -27.9330  -13.9121   19.2166 C   0  0  0  0  0  0  0  0  0  0  0  0
  -20.9727  -24.2233   22.1883 C   0  0  1  0  0  0  0  0  0  0  0  0
  -29.5175  -17.9222   18.3677 C   0  0  1  0  0  0  0  0  0  0  0  0
  -24.5189  -25.4935   22.6820 C   0  0  1  0  0  0  0  0  0  0  0  0
  -27.8598  -13.2204   20.5925 C   0  0  1  0  0  0  0  0  0  0  0  0
  -27.9811  -18.3307   20.2987 C   0  0  0  0  0  0  0  0  0  0  0  0
  -27.3657  -32.5714   21.3392 C   0  0  0  0  0  0  0  0  0  0  0  0
  -22.5406  -28.3618   19.6456 C   0  0  0  0  0  0  0  0  0  0  0  0
  -23.7831  -30.4902   19.2050 C   0  0  0  0  0  0  0  0  0  0  0  0
  -22.5593  -30.1851   21.3572 C   0  0  0  0  0  0  0  0  0  0  0  0
  -29.1909  -29.6616   22.9758 C   0  0  0  0  0  0  0  0  0  0  0  0
  -28.9609  -22.4783   16.2819 C   0  0  0  0  0  0  0  0  0  0  0  0
  -29.3975  -18.3627   19.8358 C   0  0  0  0  0  0  0  0  0  0  0  0
  -28.4449  -23.4692   17.3324 C   0  0  0  0  0  0  0  0  0  1  0  0
  -24.6995  -28.9004   20.9553 C   0  0  1  0  0  0  0  0  0  0  0  0
  -27.4837  -31.2301   22.0463 C   0  0  2  0  0  0  0  0  0  0  0  0
  -23.4094  -29.4595   20.2916 C   0  0  0  0  0  0  0  0  0  0  0  0
  -26.8226  -19.3854   16.1020 N   0  0  0  0  0  0  0  0  0  0  0  0
  -25.9628  -11.6459   20.6603 N   0  0  0  0  0  0  0  0  0  0  0  0
  -26.4325  -12.8671   20.9675 N   0  0  0  0  0  0  0  0  0  0  0  0
  -24.9367  -26.5877   21.8031 N   0  0  0  0  0  0  0  0  0  0  0  0
  -29.3306  -14.2111   18.8689 N   0  0  0  0  0  0  0  0  0  0  0  0
  -29.0896  -16.5067   18.2378 N   0  0  0  0  0  0  0  0  0  0  0  0
  -25.8329  -14.9208   21.9840 N   0  0  0  0  0  0  0  0  0  0  0  0
  -22.0807  -12.4361   22.3628 N   0  0  0  0  0  0  0  0  0  0  0  0
  -22.1890  -24.8384   22.6747 N   0  0  0  0  0  0  0  0  0  0  0  0
  -25.5280  -29.9143   21.5986 N   0  0  0  0  0  0  0  0  0  0  0  0
  -28.9288  -30.9412   22.2680 N   0  3  0  0  0  0  0  0  0  0  0  0
  -23.0104  -14.4844   22.8086 O   0  0  0  0  0  0  0  0  0  0  0  0
  -23.5902  -24.2292   20.9174 O   0  0  0  0  0  0  0  0  0  0  0  0
  -23.7218  -28.1822   22.9937 O   0  0  0  0  0  0  0  0  0  0  0  0
  -27.4449  -29.4985   20.3619 O   0  0  0  0  0  0  0  0  0  0  0  0
  -30.9609  -15.7657   19.3809 O   0  0  0  0  0  0  0  0  0  0  0  0
  -21.3997   -7.2053   20.5711 O   0  0  0  0  0  0  0  0  0  0  0  0
  -28.8968  -23.0730   18.6210 O   0  0  0  0  0  0  0  0  0  1  0  0
  -16.2261   -8.0397   18.8563 F   0  0  0  0  0  0  0  0  0  0  0  0
  -20.4721   -6.0398   18.2422 F   0  0  0  0  0  0  0  0  0  0  0  0
  1  2  1  0  0  0  0
  1  5  2  0  0  0  0
  2  6  2  0  0  0  0
  3  8  2  0  0  0  0
  3 17  1  0  0  0  0
  4  9  1  0  0  0  0
  4 17  2  0  0  0  0
  5 19  1  0  0  0  0
  6 21  1  0  0  0  0
  7 10  2  0  0  0  0
  7 20  1  0  0  0  0
  8 25  1  0  0  0  0
  9 25  2  0  0  0  0
 10 26  1  0  0  0  0
 11 12  2  0  0  0  0
 11 27  1  0  0  0  0
 12 28  1  0  0  0  0
 13 22  1  0  0  0  0
 13 24  2  0  0  0  0
 14 23  1  0  0  0  0
 14 26  2  0  0  0  0
 15 28  2  0  0  0  0
 15 29  1  0  0  0  0
 16 24  1  0  0  0  0
 16 65  2  0  0  0  0
 17 30  1  0  0  0  0
 18 30  1  0  0  0  0
 18 32  2  0  0  0  0
 18 33  1  0  0  0  0
 19 21  2  0  0  0  0
 19 38  1  0  0  0  0
 20 23  2  0  0  0  0
 20 39  1  0  0  0  0
 21 49  1  0  0  0  0
 22 31  2  0  0  0  0
 22 50  1  0  0  0  0
 23 40  1  0  0  0  0
 24 59  1  0  0  0  0
 25 81  1  0  0  0  0
 26 82  1  0  0  0  0
 27 29  2  0  0  0  0
 27 81  1  0  0  0  0
 28 83  1  0  0  0  0
 29 84  1  0  0  0  0
 30 66  2  0  0  0  0
 31 41  1  0  0  0  0
 31 65  1  0  0  0  0
 32 67  1  0  0  0  0
 32 71  1  0  0  0  0
 33 72  1  0  0  0  0
 33 76  2  0  0  0  0
 34 51  1  0  0  0  0
 34 73  1  0  0  0  0
 34 77  2  0  0  0  0
 35 62  1  0  0  0  0
 35 68  1  0  0  0  0
 35 78  2  0  0  0  0
 36 63  1  0  0  0  0
 36 74  1  0  0  0  0
 36 79  2  0  0  0  0
 37 69  1  0  0  0  0
 37 70  1  0  0  0  0
 37 80  2  0  0  0  0
 38 42  1  0  0  0  0
 39 51  1  0  0  0  0
 40 68  1  0  0  0  0
 41 46  1  0  0  0  0
 42 44  1  0  0  0  0
 43 45  1  0  0  0  0
 43 47  1  0  0  0  0
 44 49  1  0  0  0  0
 45 52  1  0  0  0  0
 46 70  1  0  0  0  0
 47 69  1  0  0  0  0
 48 52  1  0  0  0  0
 48 69  1  0  0  0  0
 49 73  1  0  0  0  0
 50 60  1  0  0  0  0
 50 70  1  0  0  0  0
 51 68  1  0  0  0  0
 52 67  1  0  0  0  0
 53 60  1  0  0  0  0
 54 63  1  0  0  0  0
 55 64  1  0  0  0  0
 56 64  1  0  0  0  0
 57 64  1  0  0  0  0
 58 75  1  0  0  0  0
 59 61  1  0  0  0  0
 61 82  1  0  0  0  0
 62 64  1  0  0  0  0
 62 74  1  0  0  0  0
 63 75  1  0  0  0  0
 66 67  1  0  0  0  0
M  CHG  1  75   1
M  ISO  4  37 100  61 101  70 100  82 101
M  END
> <Batch ID>
0177

> <Smiles>
CCC1c2cc(C[101CH2:1][101O:1]c3ccc4c(c3)CN(C(=O)C(NC(=O)C(C)NC)C(C)(C)C)C(C(=O)NC3CCCc5ccccc53)C4)cnc2CC[100N:0]1[100C:0](=O)N1CCCC(n2nc(-c3ccc(Oc4ccc(F)cc4F)cc3)c(C(N)=O)c2N)C1

> <Shape>
0.232

> <Color>
0.127

> <Negative vol penalty>
0.000

$$$$

  -OEChem-04052322523D

 85 94  0     1  0  0  0  0  0999 V2000
  -26.9222  -40.3176   21.3929 C   0  0  0  0  0  0  0  0  0  0  0  0
  -27.6550  -39.3307   20.7414 C   0  0  0  0  0  0  0  0  0  0  0  0
  -23.5188   -9.9282   22.0470 C   0  0  0  0  0  0  0  0  0  0  0  0
  -23.9478   -9.1106   19.8143 C   0  0  0  0  0  0  0  0  0  0  0  0
  -26.3350  -40.0471   22.6282 C   0  0  0  0  0  0  0  0  0  0  0  0
  -27.8020  -38.0730   21.3254 C   0  0  0  0  0  0  0  0  0  0  0  0
  -28.4225  -31.1504   19.5908 C   0  0  0  0  0  0  0  0  0  0  0  0
  -22.6161   -8.8854   22.2554 C   0  0  0  0  0  0  0  0  0  0  0  0
  -23.0452   -8.0678   20.0227 C   0  0  0  0  0  0  0  0  0  0  0  0
  -29.2445  -30.0499   19.8290 C   0  0  0  0  0  0  0  0  0  0  0  0
  -20.4692   -6.2306   23.5034 C   0  0  0  0  0  0  0  0  0  0  0  0
  -20.5408   -5.5432   24.7150 C   0  0  0  0  0  0  0  0  0  0  0  0
  -28.1193  -29.6715   21.9290 C   0  0  0  0  0  0  0  0  0  0  0  0
  -30.2635  -25.8849   21.0094 C   0  0  0  0  0  0  0  0  0  0  0  0
  -22.8165   -4.9026   24.2170 C   0  0  0  0  0  0  0  0  0  0  0  0
  -27.8669  -25.7648   19.7106 C   0  0  0  0  0  0  0  0  0  0  0  0
  -24.1846  -10.0408   20.8264 C   0  0  0  0  0  0  0  0  0  0  0  0
  -26.4989  -11.1127   20.8777 C   0  0  0  0  0  0  0  0  0  0  0  0
  -26.4667  -38.7824   23.2231 C   0  0  0  0  0  0  0  0  0  0  0  0
  -27.4482  -31.5269   20.5265 C   0  0  0  0  0  0  0  0  0  0  0  0
  -27.2171  -37.7858   22.5704 C   0  0  0  0  0  0  0  0  0  0  0  0
  -27.2844  -30.7756   21.6991 C   0  0  0  0  0  0  0  0  0  0  0  0
  -29.8006  -24.6592   20.5441 C   0  0  0  0  0  0  0  0  0  0  0  0
  -28.5800  -24.5893   19.8817 C   0  0  0  0  0  0  0  0  0  0  0  0
  -22.3793   -7.9552   21.2433 C   0  0  0  0  0  0  0  0  0  0  0  0
  -29.0950  -29.3119   20.9995 C   0  0  0  0  0  0  0  0  0  0  0  0
  -21.5712   -6.2539   22.6485 C   0  0  0  0  0  0  0  0  0  0  0  0
  -21.7144   -4.8793   25.0718 C   0  0  0  0  0  0  0  0  0  0  0  0
  -22.7448   -5.5900   23.0054 C   0  0  0  0  0  0  0  0  0  0  0  0
  -25.1168  -11.1181   20.6104 C   0  0  0  0  0  0  0  0  0  0  0  0
  -29.4746  -27.0024   20.7888 C   0  0  0  0  0  0  0  0  0  1  0  0
  -26.9263  -12.3626   20.5013 C   0  0  0  0  0  0  0  0  0  0  0  0
  -27.3229  -10.0711   21.4179 C   0  0  0  0  0  0  0  0  0  0  0  0
  -26.9202  -34.1128   22.2980 C   0  0  0  0  0  0  0  0  0  0  0  0
  -24.1848  -32.5490   23.0688 C   0  0  0  0  0  0  0  0  0  0  0  0
  -22.5242  -29.5804   23.3454 C   0  0  0  0  0  0  0  0  0  0  0  0
  -26.2830  -17.8037   20.6424 C   0  0  0  0  0  0  0  0  0  0  0  0
  -25.8536  -38.5518   24.5817 C   0  0  0  0  0  0  0  0  0  0  0  0
  -26.5515  -32.7006   20.2423 C   0  0  0  0  0  0  0  0  0  0  0  0
  -26.2399  -31.1262   22.7260 C   0  0  0  0  0  0  0  0  0  0  0  0
  -25.7423  -37.0764   24.9572 C   0  0  0  0  0  0  0  0  0  0  0  0
  -24.6096  -16.0122   17.9167 C   0  0  0  0  0  0  0  0  0  0  0  0
  -27.0491  -36.3491   24.6569 C   0  0  0  0  0  0  0  0  0  0  0  0
  -24.6570  -14.5791   18.4360 C   0  0  0  0  0  0  0  0  0  0  0  0
  -25.2056  -20.8439   21.5782 C   0  0  0  0  0  0  0  0  0  0  0  0
  -24.4503  -17.0340   19.0431 C   0  0  0  0  0  0  0  0  0  0  0  0
  -24.5273  -19.7378   20.7641 C   0  0  0  0  0  0  0  0  0  0  0  0
  -25.5138  -15.4572   20.6357 C   0  0  0  0  0  0  0  0  0  0  0  0
  -27.3783  -36.4014   23.1601 C   0  0  1  0  0  0  0  0  0  0  0  0
  -25.9368  -33.3018   21.5025 C   0  0  1  0  0  0  0  0  0  0  0  0
  -25.7408  -14.4335   19.5144 C   0  0  1  0  0  0  0  0  0  0  0  0
  -26.5629  -20.3013   21.1054 C   0  0  2  0  0  0  0  0  0  0  0  0
  -30.6268  -23.4357   20.7648 C   0  0  0  0  0  0  0  0  0  0  0  0
  -20.3131  -28.6172   24.0386 C   0  0  0  0  0  0  0  0  0  0  0  0
  -28.3388  -20.1647   19.3161 C   0  0  0  0  0  0  0  0  0  0  0  0
  -24.9399  -32.9317   26.0003 C   0  0  0  0  0  0  0  0  0  0  0  0
  -23.2566  -31.1751   26.5910 C   0  0  0  0  0  0  0  0  0  0  0  0
  -22.5175  -33.2889   25.4918 C   0  0  0  0  0  0  0  0  0  0  0  0
  -22.0252  -28.4802   20.6436 C   0  0  0  0  0  0  0  0  0  0  0  0
  -28.0336  -23.2937   19.3583 C   0  0  0  0  0  0  0  0  0  0  0  0
  -23.7813  -31.5657   24.1408 C   0  0  1  0  0  0  0  0  0  0  0  0
  -21.1437  -29.1515   22.8821 C   0  0  2  0  0  0  0  0  0  0  0  0
  -27.2294  -21.0010   19.9372 C   0  0  2  0  0  0  0  0  0  0  0  0
  -23.6449  -32.2347   25.5377 C   0  0  0  0  0  0  0  0  0  0  0  0
  -28.2840  -26.9739   20.1488 N   0  0  0  0  0  0  0  0  0  0  0  0
  -24.6941  -12.2793   20.1034 N   0  0  0  0  0  0  0  0  0  0  0  0
  -25.8173  -13.0153   20.0493 N   0  0  0  0  0  0  0  0  0  0  0  0
  -25.3917  -32.2861   22.4055 N   0  0  0  0  0  0  0  0  0  0  0  0
  -25.4323  -16.8266   20.1141 N   0  0  0  0  0  0  0  0  0  0  0  0
  -25.8355  -19.1058   20.6731 N   0  0  0  0  0  0  0  0  0  0  0  0
  -28.1387  -12.9560   20.5162 N   0  0  0  0  0  0  0  0  0  0  0  0
  -26.7225   -8.8492   21.7508 N   0  0  0  0  0  0  0  0  0  0  0  0
  -26.5738  -35.4438   22.4319 N   0  0  0  0  0  0  0  0  0  0  0  0
  -22.5620  -30.9210   23.6654 N   0  0  0  0  0  0  0  0  0  0  0  0
  -21.2527  -28.0831   21.8488 N   0  3  0  0  0  0  0  0  0  0  0  0
  -27.8216  -22.2790   20.4226 N   0  3  0  0  0  0  0  0  0  0  0  0
  -28.5520  -10.2252   21.6154 O   0  0  0  0  0  0  0  0  0  0  0  0
  -27.9186  -33.5709   22.7575 O   0  0  0  0  0  0  0  0  0  0  0  0
  -23.4525  -33.5110   22.8240 O   0  0  0  0  0  0  0  0  0  0  0  0
  -23.4732  -28.8030   23.4197 O   0  0  0  0  0  0  0  0  0  0  0  0
  -27.3973  -17.5211   21.1022 O   0  0  0  0  0  0  0  0  0  0  0  0
  -21.4987   -6.9375   21.4464 O   0  0  0  0  0  0  0  0  0  0  0  0
  -29.9081  -28.2221   21.2382 O   0  0  0  0  0  0  0  0  0  1  0  0
  -21.7836   -4.2205   26.2360 F   0  0  0  0  0  0  0  0  0  0  0  0
  -23.8072   -5.6099   22.1888 F   0  0  0  0  0  0  0  0  0  0  0  0
  1  2  1  0  0  0  0
  1  5  2  0  0  0  0
  2  6  2  0  0  0  0
  3  8  2  0  0  0  0
  3 17  1  0  0  0  0
  4  9  1  0  0  0  0
  4 17  2  0  0  0  0
  5 19  1  0  0  0  0
  6 21  1  0  0  0  0
  7 10  2  0  0  0  0
  7 20  1  0  0  0  0
  8 25  1  0  0  0  0
  9 25  2  0  0  0  0
 10 26  1  0  0  0  0
 11 12  2  0  0  0  0
 11 27  1  0  0  0  0
 12 28  1  0  0  0  0
 13 22  1  0  0  0  0
 13 26  2  0  0  0  0
 14 23  2  0  0  0  0
 14 31  1  0  0  0  0
 15 28  2  0  0  0  0
 15 29  1  0  0  0  0
 16 24  2  0  0  0  0
 16 65  1  0  0  0  0
 17 30  1  0  0  0  0
 18 30  1  0  0  0  0
 18 32  2  0  0  0  0
 18 33  1  0  0  0  0
 19 21  2  0  0  0  0
 19 38  1  0  0  0  0
 20 22  2  0  0  0  0
 20 39  1  0  0  0  0
 21 49  1  0  0  0  0
 22 40  1  0  0  0  0
 23 24  1  0  0  0  0
 23 53  1  0  0  0  0
 24 60  1  0  0  0  0
 25 82  1  0  0  0  0
 26 83  1  0  0  0  0
 27 29  2  0  0  0  0
 27 82  1  0  0  0  0
 28 84  1  0  0  0  0
 29 85  1  0  0  0  0
 30 66  2  0  0  0  0
 31 65  2  0  0  0  0
 31 83  1  0  0  0  0
 32 67  1  0  0  0  0
 32 71  1  0  0  0  0
 33 72  1  0  0  0  0
 33 77  2  0  0  0  0
 34 50  1  0  0  0  0
 34 73  1  0  0  0  0
 34 78  2  0  0  0  0
 35 61  1  0  0  0  0
 35 68  1  0  0  0  0
 35 79  2  0  0  0  0
 36 62  1  0  0  0  0
 36 74  1  0  0  0  0
 36 80  2  0  0  0  0
 37 69  1  0  0  0  0
 37 70  1  0  0  0  0
 37 81  2  0  0  0  0
 38 41  1  0  0  0  0
 39 50  1  0  0  0  0
 40 68  1  0  0  0  0
 41 43  1  0  0  0  0
 42 44  1  0  0  0  0
 42 46  1  0  0  0  0
 43 49  1  0  0  0  0
 44 51  1  0  0  0  0
 45 47  1  0  0  0  0
 45 52  1  0  0  0  0
 46 69  1  0  0  0  0
 47 70  1  0  0  0  0
 48 51  1  0  0  0  0
 48 69  1  0  0  0  0
 49 73  1  0  0  0  0
 50 68  1  0  0  0  0
 51 67  1  0  0  0  0
 52 63  1  0  0  0  0
 52 70  1  0  0  0  0
 54 62  1  0  0  0  0
 55 63  1  0  0  0  0
 56 64  1  0  0  0  0
 57 64  1  0  0  0  0
 58 64  1  0  0  0  0
 59 75  1  0  0  0  0
 60 76  1  0  0  0  0
 61 64  1  0  0  0  0
 61 74  1  0  0  0  0
 62 75  1  0  0  0  0
 63 76  1  0  0  0  0
 66 67  1  0  0  0  0
M  CHG  2  75   1  76   1
M  ISO  4  31 101  37 100  70 100  83 101
M  END
> <Batch ID>
0177

> <Smiles>
CNC(C)C(=O)NC(C(=O)N1Cc2cc([101O:1][101c:1]3cc(C)c(CNC(C)C4CC[100N:0]4[100C:0](=O)N4CCCC(n5nc(-c6ccc(Oc7ccc(F)cc7F)cc6)c(C(N)=O)c5N)C4)cn3)ccc2CC1C(=O)NC1CCCc2ccccc21)C(C)(C)C

> <Shape>
0.288

> <Color>
0.105

> <Negative vol penalty>
0.000

$$$$

  -OEChem-04052322523D

 85 94  0     1  0  0  0  0  0999 V2000
  -27.0643  -34.6133   24.6808 C   0  0  0  0  0  0  0  0  0  0  0  0
  -27.4155  -33.3437   24.2335 C   0  0  0  0  0  0  0  0  0  0  0  0
  -30.0724  -11.9682   20.0164 C   0  0  0  0  0  0  0  0  0  0  0  0
  -28.5455  -10.5870   21.2804 C   0  0  0  0  0  0  0  0  0  0  0  0
  -25.7598  -34.8663   25.1029 C   0  0  0  0  0  0  0  0  0  0  0  0
  -26.4625  -32.3260   24.2091 C   0  0  0  0  0  0  0  0  0  0  0  0
  -26.5812  -29.6561   19.9075 C   0  0  0  0  0  0  0  0  0  0  0  0
  -30.9132  -10.8705   19.8326 C   0  0  0  0  0  0  0  0  0  0  0  0
  -29.3863   -9.4893   21.0966 C   0  0  0  0  0  0  0  0  0  0  0  0
  -27.5911  -28.7038   19.7769 C   0  0  0  0  0  0  0  0  0  0  0  0
  -30.0765   -7.2649   18.6478 C   0  0  0  0  0  0  0  0  0  0  0  0
  -29.4883   -6.0539   18.2831 C   0  0  0  0  0  0  0  0  0  0  0  0
  -26.0250  -26.9697   20.3763 C   0  0  0  0  0  0  0  0  0  0  0  0
  -30.3622   -5.0259   20.2873 C   0  0  0  0  0  0  0  0  0  0  0  0
  -28.8885  -11.8264   20.7403 C   0  0  0  0  0  0  0  0  0  0  0  0
  -26.9607  -13.3689   20.0986 C   0  0  0  0  0  0  0  0  0  0  0  0
  -24.7879  -33.8537   25.0746 C   0  0  0  0  0  0  0  0  0  0  0  0
  -25.2861  -29.2730   20.2848 C   0  0  0  0  0  0  0  0  0  0  0  0
  -25.1442  -32.5653   24.6325 C   0  0  0  0  0  0  0  0  0  0  0  0
  -24.9999  -27.9187   20.5085 C   0  0  0  0  0  0  0  0  0  0  0  0
  -30.5702   -9.6311   20.3727 C   0  0  0  0  0  0  0  0  0  0  0  0
  -27.3138  -27.3607   20.0140 C   0  0  0  0  0  0  0  0  0  0  0  0
  -30.8076   -7.3565   19.8323 C   0  0  0  0  0  0  0  0  0  0  0  0
  -29.6312   -4.9344   19.1029 C   0  0  0  0  0  0  0  0  0  0  0  0
  -30.9504   -6.2370   20.6520 C   0  0  0  0  0  0  0  0  0  0  0  0
  -28.0199  -12.9600   20.9310 C   0  0  0  0  0  0  0  0  0  0  0  0
  -26.4544  -14.4886   20.7122 C   0  0  0  0  0  0  0  0  0  0  0  0
  -26.4776  -12.7884   18.8799 C   0  0  0  0  0  0  0  0  0  0  0  0
  -23.3838  -29.9190   22.7481 C   0  0  0  0  0  0  0  0  0  0  0  0
  -21.2222  -28.2248   21.0220 C   0  0  0  0  0  0  0  0  0  0  0  0
  -20.6362  -25.8658   18.6265 C   0  0  0  0  0  0  0  0  0  0  0  0
  -27.0446  -19.2765   23.3300 C   0  0  0  0  0  0  0  0  0  0  0  0
  -23.4029  -34.1624   25.5854 C   0  0  0  0  0  0  0  0  0  0  0  0
  -24.2014  -30.3092   20.3954 C   0  0  0  0  0  0  0  0  0  0  0  0
  -23.6209  -27.4532   20.8961 C   0  0  0  0  0  0  0  0  0  0  0  0
  -22.3578  -33.1280   25.1753 C   0  0  0  0  0  0  0  0  0  0  0  0
  -27.3274  -16.4296   25.2911 C   0  0  0  0  0  0  0  0  0  0  0  0
  -22.8827  -31.7157   25.4132 C   0  0  0  0  0  0  0  0  0  0  0  0
  -31.4711  -23.3836   20.1986 C   0  0  0  0  0  0  0  0  0  0  0  0
  -27.4512  -15.2961   24.2737 C   0  0  0  0  0  0  0  0  0  0  0  0
  -31.1744  -23.0873   21.6694 C   0  0  0  0  0  0  0  0  0  0  0  0
  -27.4500  -22.4295   22.2609 C   0  0  0  0  0  0  0  0  0  0  0  0
  -29.4387  -21.0021   21.6152 C   0  0  0  0  0  0  0  0  0  0  0  0
  -28.1279  -17.6486   24.8482 C   0  0  0  0  0  0  0  0  0  0  0  0
  -26.5448  -21.2448   21.9334 C   0  0  0  0  0  0  0  0  0  0  0  0
  -27.8627  -17.0385   22.4666 C   0  0  0  0  0  0  0  0  0  0  0  0
  -24.1324  -31.4418   24.5678 C   0  0  1  0  0  0  0  0  0  0  0  0
  -23.0432  -29.8692   21.2855 C   0  0  1  0  0  0  0  0  0  0  0  0
  -28.7593  -22.3741   21.4600 C   0  0  2  0  0  0  0  0  0  0  0  0
  -30.3977  -24.3786   19.7285 C   0  0  1  0  0  0  0  0  0  0  0  0
  -29.6230  -24.7694   21.0032 C   0  0  2  0  0  0  0  0  0  0  0  0
  -27.0679  -15.7781   22.8636 C   0  0  1  0  0  0  0  0  0  0  0  0
  -28.4904  -19.8225   21.3171 C   0  0  2  0  0  0  0  0  0  0  0  0
  -29.7031  -23.4960   21.8895 C   0  0  2  0  0  0  0  0  0  0  0  0
  -30.9957  -25.5758   19.0000 C   0  0  0  0  0  0  0  0  0  0  0  0
  -28.2014  -19.6945   19.8182 C   0  0  0  0  0  0  0  0  0  0  0  0
  -29.4557  -23.8255   23.3704 C   0  0  0  0  0  0  0  0  0  0  0  0
  -18.7669  -24.6660   17.4588 C   0  0  0  0  0  0  0  0  0  0  0  0
  -20.7946  -26.4894   23.4949 C   0  0  0  0  0  0  0  0  0  0  0  0
  -19.6867  -24.7914   22.0261 C   0  0  0  0  0  0  0  0  0  0  0  0
  -18.7024  -27.0720   22.2550 C   0  0  0  0  0  0  0  0  0  0  0  0
  -21.4499  -26.9261   15.9859 C   0  0  0  0  0  0  0  0  0  0  0  0
  -28.2133  -25.2717   20.7087 C   0  0  0  0  0  0  0  0  0  1  0  0
  -20.8333  -26.7691   20.9285 C   0  0  1  0  0  0  0  0  0  0  0  0
  -19.7089  -25.8594   17.4246 C   0  0  2  0  0  0  0  0  0  0  0  0
  -20.0308  -26.2892   22.1707 C   0  0  0  0  0  0  0  0  0  0  0  0
  -28.1782  -13.7554   21.9923 N   0  0  0  0  0  0  0  0  0  0  0  0
  -27.2118  -14.6753   21.8310 N   0  0  0  0  0  0  0  0  0  0  0  0
  -22.5957  -28.5049   20.9975 N   0  0  0  0  0  0  0  0  0  0  0  0
  -27.7448  -18.0738   23.5018 N   0  0  0  0  0  0  0  0  0  0  0  0
  -27.2576  -19.9785   22.1249 N   0  0  0  0  0  0  0  0  0  0  0  0
  -25.4397  -15.3219   20.3984 N   0  0  0  0  0  0  0  0  0  0  0  0
  -27.1125  -11.6391   18.3896 N   0  0  0  0  0  0  0  0  0  0  0  0
  -23.7642  -31.1700   23.1949 N   0  0  0  0  0  0  0  0  0  0  0  0
  -20.1235  -26.6166   19.6631 N   0  0  0  0  0  0  0  0  0  0  0  0
  -20.4980  -25.7991   16.1618 N   0  3  0  0  0  0  0  0  0  0  0  0
  -25.5220  -13.2839   18.2358 O   0  0  0  0  0  0  0  0  0  0  0  0
  -23.3057  -28.8983   23.4217 O   0  0  0  0  0  0  0  0  0  0  0  0
  -20.3394  -29.0823   21.1061 O   0  0  0  0  0  0  0  0  0  0  0  0
  -21.7065  -25.2619   18.6452 O   0  0  0  0  0  0  0  0  0  0  0  0
  -26.2822  -19.7069   24.2049 O   0  0  0  0  0  0  0  0  0  0  0  0
  -31.3903   -8.5597   20.1933 O   0  0  0  0  0  0  0  0  0  0  0  0
  -28.3066  -26.4209   19.8867 O   0  0  0  0  0  0  0  0  0  1  0  0
  -29.0650   -3.7719   18.7533 F   0  0  0  0  0  0  0  0  0  0  0  0
  -31.6506   -6.3191   21.7916 F   0  0  0  0  0  0  0  0  0  0  0  0
  1  2  1  0  0  0  0
  1  5  2  0  0  0  0
  2  6  2  0  0  0  0
  3  8  2  0  0  0  0
  3 15  1  0  0  0  0
  4  9  1  0  0  0  0
  4 15  2  0  0  0  0
  5 17  1  0  0  0  0
  6 19  1  0  0  0  0
  7 10  2  0  0  0  0
  7 18  1  0  0  0  0
  8 21  1  0  0  0  0
  9 21  2  0  0  0  0
 10 22  1  0  0  0  0
 11 12  2  0  0  0  0
 11 23  1  0  0  0  0
 12 24  1  0  0  0  0
 13 20  1  0  0  0  0
 13 22  2  0  0  0  0
 14 24  2  0  0  0  0
 14 25  1  0  0  0  0
 15 26  1  0  0  0  0
 16 26  1  0  0  0  0
 16 27  2  0  0  0  0
 16 28  1  0  0  0  0
 17 19  2  0  0  0  0
 17 33  1  0  0  0  0
 18 20  2  0  0  0  0
 18 34  1  0  0  0  0
 19 47  1  0  0  0  0
 20 35  1  0  0  0  0
 21 82  1  0  0  0  0
 22 83  1  0  0  0  0
 23 25  2  0  0  0  0
 23 82  1  0  0  0  0
 24 84  1  0  0  0  0
 25 85  1  0  0  0  0
 26 67  2  0  0  0  0
 27 68  1  0  0  0  0
 27 72  1  0  0  0  0
 28 73  1  0  0  0  0
 28 77  2  0  0  0  0
 29 48  1  0  0  0  0
 29 74  1  0  0  0  0
 29 78  2  0  0  0  0
 30 64  1  0  0  0  0
 30 69  1  0  0  0  0
 30 79  2  0  0  0  0
 31 65  1  0  0  0  0
 31 75  1  0  0  0  0
 31 80  2  0  0  0  0
 32 70  1  0  0  0  0
 32 71  1  0  0  0  0
 32 81  2  0  0  0  0
 33 36  1  0  0  0  0
 34 48  1  0  0  0  0
 35 69  1  0  0  0  0
 36 38  1  0  0  0  0
 37 40  1  0  0  0  0
 37 44  1  0  0  0  0
 38 47  1  0  0  0  0
 39 41  1  0  0  0  0
 39 50  1  0  0  0  0
 40 52  1  0  0  0  0
 41 54  1  0  0  0  0
 42 45  1  0  0  0  0
 42 49  1  0  0  0  0
 43 49  1  0  0  0  0
 43 53  1  0  0  0  0
 44 70  1  0  0  0  0
 45 71  1  0  0  0  0
 46 52  1  0  0  0  0
 46 70  1  0  0  0  0
 47 74  1  0  0  0  0
 48 69  1  0  0  0  0
 49 54  1  0  0  0  0
 50 51  1  0  0  0  0
 50 55  1  0  0  0  0
 51 54  1  0  0  0  0
 51 63  1  0  0  0  0
 52 68  1  0  0  0  0
 53 56  1  0  0  0  0
 53 71  1  0  0  0  0
 54 57  1  0  0  0  0
 58 65  1  0  0  0  0
 59 66  1  0  0  0  0
 60 66  1  0  0  0  0
 61 66  1  0  0  0  0
 62 76  1  0  0  0  0
 63 83  1  0  0  0  0
 64 66  1  0  0  0  0
 64 75  1  0  0  0  0
 65 76  1  0  0  0  0
 67 68  1  0  0  0  0
M  CHG  1  76   1
M  ISO  4  32 100  63 101  71 100  83 101
M  END
> <Batch ID>
0177

> <Smiles>
CNC(C)C(=O)NC(C(=O)N1Cc2cc([101O:1][101CH2:1]C3C(C)CCC3(C)C3CC[100N:0]([100C:0](=O)N4CCCC(n5nc(-c6ccc(Oc7ccc(F)cc7F)cc6)c(C(N)=O)c5N)C4)C(C)C3)ccc2CC1C(=O)NC1CCCc2ccccc21)C(C)(C)C

> <Shape>
0.246

> <Color>
0.099

> <Negative vol penalty>
0.000

$$$$

  -OEChem-04052322523D

 84 93  0     1  0  0  0  0  0999 V2000
  -23.8718  -31.0472   22.4690 C   0  0  0  0  0  0  0  0  0  0  0  0
  -24.5105  -29.9096   22.9521 C   0  0  0  0  0  0  0  0  0  0  0  0
  -23.2782   -9.6194   20.0339 C   0  0  0  0  0  0  0  0  0  0  0  0
  -23.7611   -9.9504   22.3779 C   0  0  0  0  0  0  0  0  0  0  0  0
  -24.0872  -31.4613   21.1552 C   0  0  0  0  0  0  0  0  0  0  0  0
  -25.3641  -29.1847   22.1213 C   0  0  0  0  0  0  0  0  0  0  0  0
  -30.4687  -26.2280   23.7666 C   0  0  0  0  0  0  0  0  0  0  0  0
  -22.5704   -8.4581   20.3436 C   0  0  0  0  0  0  0  0  0  0  0  0
  -23.0532   -8.7891   22.6877 C   0  0  0  0  0  0  0  0  0  0  0  0
  -30.7266  -24.8872   24.0483 C   0  0  0  0  0  0  0  0  0  0  0  0
  -23.2743   -5.2430   21.1129 C   0  0  0  0  0  0  0  0  0  0  0  0
  -23.5042   -4.1151   20.3251 C   0  0  0  0  0  0  0  0  0  0  0  0
  -31.4869  -24.5635   21.7820 C   0  0  0  0  0  0  0  0  0  0  0  0
  -21.1724   -4.0809   19.6936 C   0  0  0  0  0  0  0  0  0  0  0  0
  -30.7704  -19.8873   24.2115 C   0  0  0  0  0  0  0  0  0  0  0  0
  -23.8736  -10.3655   21.0510 C   0  0  0  0  0  0  0  0  0  0  0  0
  -24.0969  -12.8751   20.6515 C   0  0  0  0  0  0  0  0  0  0  0  0
  -24.9514  -30.7466   20.3108 C   0  0  0  0  0  0  0  0  0  0  0  0
  -30.7081  -26.7449   22.4852 C   0  0  0  0  0  0  0  0  0  0  0  0
  -25.5902  -29.5889   20.7945 C   0  0  0  0  0  0  0  0  0  0  0  0
  -31.2336  -25.9118   21.4873 C   0  0  0  0  0  0  0  0  0  0  0  0
  -22.4578   -8.0430   21.6705 C   0  0  0  0  0  0  0  0  0  0  0  0
  -31.2330  -24.0540   23.0552 C   0  0  0  0  0  0  0  0  0  0  0  0
  -21.9934   -5.7898   21.1912 C   0  0  0  0  0  0  0  0  0  0  0  0
  -22.4533   -3.5341   19.6154 C   0  0  0  0  0  0  0  0  0  0  0  0
  -20.9425   -5.2088   20.4815 C   0  0  0  0  0  0  0  0  0  0  0  0
  -24.6055  -11.5649   20.7315 C   0  0  0  0  0  0  0  0  0  0  0  0
  -31.1887  -18.5831   24.3795 C   0  0  0  0  0  0  0  0  0  0  0  0
  -31.5797  -20.8514   24.7772 C   0  0  0  0  0  0  0  0  0  0  0  0
  -25.1843  -13.6458   20.3195 C   0  0  0  0  0  0  0  0  0  0  0  0
  -33.0128  -19.2659   25.5514 C   0  0  0  0  0  0  0  0  0  0  0  0
  -22.7611  -13.3529   20.8587 C   0  0  0  0  0  0  0  0  0  0  0  0
  -28.9016  -28.0532   20.2206 C   0  0  0  0  0  0  0  0  0  0  0  0
  -31.7614  -28.5560   18.7747 C   0  0  0  0  0  0  0  0  0  0  0  0
  -35.0315  -27.6439   18.4255 C   0  0  0  0  0  0  0  0  0  0  0  0
  -30.5503  -14.9965   21.0114 C   0  0  0  0  0  0  0  0  0  0  0  0
  -25.1161  -31.2060   18.8837 C   0  0  0  0  0  0  0  0  0  0  0  0
  -30.4499  -28.1999   22.2049 C   0  0  0  0  0  0  0  0  0  0  0  0
  -31.5272  -26.4227   20.1012 C   0  0  0  0  0  0  0  0  0  0  0  0
  -26.3269  -30.5951   18.1831 C   0  0  0  0  0  0  0  0  0  0  0  0
  -29.8084  -12.3562   18.7841 C   0  0  0  0  0  0  0  0  0  0  0  0
  -26.3880  -29.0921   18.4360 C   0  0  0  0  0  0  0  0  0  0  0  0
  -28.3604  -11.9925   19.1006 C   0  0  0  0  0  0  0  0  0  0  0  0
  -30.4493  -16.0959   24.5093 C   0  0  0  0  0  0  0  0  0  0  0  0
  -30.5651  -12.7196   20.0547 C   0  0  0  0  0  0  0  0  0  0  0  0
  -29.8752  -15.1324   23.4792 C   0  0  0  0  0  0  0  0  0  0  0  0
  -30.7517  -17.0625   22.3617 C   0  0  0  0  0  0  0  0  0  0  0  0
  -28.4820  -13.5234   21.1339 C   0  0  0  0  0  0  0  0  0  0  0  0
  -26.5427  -28.7901   19.9315 C   0  0  1  0  0  0  0  0  0  0  0  0
  -30.3676  -17.4549   23.7953 C   0  0  2  0  0  0  0  0  0  0  0  0
  -30.2470  -28.4959   20.7221 C   0  0  1  0  0  0  0  0  0  0  0  0
  -27.6754  -13.1255   19.8805 C   0  0  2  0  0  0  0  0  0  0  0  0
  -37.1095  -28.2154   17.1400 C   0  0  0  0  0  0  0  0  0  0  0  0
  -30.6241  -27.1511   16.3164 C   0  0  0  0  0  0  0  0  0  0  0  0
  -32.9640  -26.9065   15.4599 C   0  0  0  0  0  0  0  0  0  0  0  0
  -31.9993  -29.1792   15.8161 C   0  0  0  0  0  0  0  0  0  0  0  0
  -36.5103  -28.3302   20.8955 C   0  0  0  0  0  0  0  0  0  0  0  0
  -34.4761  -17.5670   26.3441 C   0  0  0  0  0  0  0  0  0  0  0  0
  -31.2076  -22.2906   24.6508 C   0  0  0  0  0  0  0  0  0  1  0  0
  -32.6291  -27.7721   17.8199 C   0  0  1  0  0  0  0  0  0  0  0  0
  -36.3095  -28.4630   18.4094 C   0  0  2  0  0  0  0  0  0  0  0  0
  -32.0469  -27.7418   16.3785 C   0  0  0  0  0  0  0  0  0  0  0  0
  -25.9141  -11.5029   20.4712 N   0  0  0  0  0  0  0  0  0  0  0  0
  -32.3088  -18.2351   25.0462 N   0  0  0  0  0  0  0  0  0  0  0  0
  -32.7121  -20.5752   25.4566 N   0  0  0  0  0  0  0  0  0  0  0  0
  -26.2370  -12.7838   20.2243 N   0  0  0  0  0  0  0  0  0  0  0  0
  -31.2520  -27.8511   19.8744 N   0  0  0  0  0  0  0  0  0  0  0  0
  -29.8902  -13.7802   20.8052 N   0  0  0  0  0  0  0  0  0  0  0  0
  -30.2870  -15.6894   22.1924 N   0  0  0  0  0  0  0  0  0  0  0  0
  -25.3331  -14.9699   20.1026 N   0  0  0  0  0  0  0  0  0  0  0  0
  -21.7646  -12.4262   21.1941 N   0  0  0  0  0  0  0  0  0  0  0  0
  -27.9104  -29.0070   20.3520 N   0  0  0  0  0  0  0  0  0  0  0  0
  -33.9649  -28.3514   17.9127 N   0  0  0  0  0  0  0  0  0  0  0  0
  -37.1638  -28.1129   19.5792 N   0  3  0  0  0  0  0  0  0  0  0  0
  -22.4568  -14.5634   20.7337 O   0  0  0  0  0  0  0  0  0  0  0  0
  -28.7726  -26.9299   19.7480 O   0  0  0  0  0  0  0  0  0  0  0  0
  -31.5495  -29.7515   18.5567 O   0  0  0  0  0  0  0  0  0  0  0  0
  -34.9849  -26.4904   18.8472 O   0  0  0  0  0  0  0  0  0  0  0  0
  -31.3740  -15.4277   20.1932 O   0  0  0  0  0  0  0  0  0  0  0  0
  -21.7670   -6.9100   21.9732 O   0  0  0  0  0  0  0  0  0  0  0  0
  -31.4867  -22.7355   23.3292 O   0  0  0  0  0  0  0  0  0  1  0  0
  -34.1601  -18.9477   26.2408 O   0  0  0  0  0  0  0  0  0  0  0  0
  -22.6745   -2.4520   18.8577 F   0  0  0  0  0  0  0  0  0  0  0  0
  -19.7101   -5.7303   20.5519 F   0  0  0  0  0  0  0  0  0  0  0  0
  1  2  1  0  0  0  0
  1  5  2  0  0  0  0
  2  6  2  0  0  0  0
  3  8  2  0  0  0  0
  3 16  1  0  0  0  0
  4  9  1  0  0  0  0
  4 16  2  0  0  0  0
  5 18  1  0  0  0  0
  6 20  1  0  0  0  0
  7 10  2  0  0  0  0
  7 19  1  0  0  0  0
  8 22  1  0  0  0  0
  9 22  2  0  0  0  0
 10 23  1  0  0  0  0
 11 12  2  0  0  0  0
 11 24  1  0  0  0  0
 12 25  1  0  0  0  0
 13 21  1  0  0  0  0
 13 23  2  0  0  0  0
 14 25  2  0  0  0  0
 14 26  1  0  0  0  0
 15 28  2  0  0  0  0
 15 29  1  0  0  0  0
 16 27  1  0  0  0  0
 17 27  1  0  0  0  0
 17 30  2  0  0  0  0
 17 32  1  0  0  0  0
 18 20  2  0  0  0  0
 18 37  1  0  0  0  0
 19 21  2  0  0  0  0
 19 38  1  0  0  0  0
 20 49  1  0  0  0  0
 21 39  1  0  0  0  0
 22 80  1  0  0  0  0
 23 81  1  0  0  0  0
 24 26  2  0  0  0  0
 24 80  1  0  0  0  0
 25 83  1  0  0  0  0
 26 84  1  0  0  0  0
 27 63  2  0  0  0  0
 28 50  1  0  0  0  0
 28 64  1  0  0  0  0
 29 59  1  0  0  0  0
 29 65  2  0  0  0  0
 30 66  1  0  0  0  0
 30 70  1  0  0  0  0
 31 64  2  0  0  0  0
 31 65  1  0  0  0  0
 31 82  1  0  0  0  0
 32 71  1  0  0  0  0
 32 75  2  0  0  0  0
 33 51  1  0  0  0  0
 33 72  1  0  0  0  0
 33 76  2  0  0  0  0
 34 60  1  0  0  0  0
 34 67  1  0  0  0  0
 34 77  2  0  0  0  0
 35 61  1  0  0  0  0
 35 73  1  0  0  0  0
 35 78  2  0  0  0  0
 36 68  1  0  0  0  0
 36 69  1  0  0  0  0
 36 79  2  0  0  0  0
 37 40  1  0  0  0  0
 38 51  1  0  0  0  0
 39 67  1  0  0  0  0
 40 42  1  0  0  0  0
 41 43  1  0  0  0  0
 41 45  1  0  0  0  0
 42 49  1  0  0  0  0
 43 52  1  0  0  0  0
 44 46  1  0  0  0  0
 44 50  1  0  0  0  0
 45 68  1  0  0  0  0
 46 69  1  0  0  0  0
 47 50  1  0  0  0  0
 47 69  1  0  0  0  0
 48 52  1  0  0  0  0
 48 68  1  0  0  0  0
 49 72  1  0  0  0  0
 51 67  1  0  0  0  0
 52 66  1  0  0  0  0
 53 61  1  0  0  0  0
 54 62  1  0  0  0  0
 55 62  1  0  0  0  0
 56 62  1  0  0  0  0
 57 74  1  0  0  0  0
 58 82  1  0  0  0  0
 59 81  1  0  0  0  0
 60 62  1  0  0  0  0
 60 73  1  0  0  0  0
 61 74  1  0  0  0  0
 63 66  1  0  0  0  0
M  CHG  1  74   1
M  ISO  4  36 100  59 101  69 100  81 101
M  END
> <Batch ID>
0177

> <Smiles>
CNC(C)C(=O)NC(C(=O)N1Cc2cc([101O:1][101CH2:1]c3cc(C4CC[100N:0]([100C:0](=O)N5CCCC(n6nc(-c7ccc(Oc8ccc(F)cc8F)cc7)c(C(N)=O)c6N)C5)C4)nc(OC)n3)ccc2CC1C(=O)NC1CCCc2ccccc21)C(C)(C)C

> <Shape>
0.232

> <Color>
0.201

> <Negative vol penalty>
0.000

$$$$

  -OEChem-04052322523D

 83 92  0     1  0  0  0  0  0999 V2000
  -32.0498  -31.8546   13.6676 C   0  0  0  0  0  0  0  0  0  0  0  0
  -32.0027  -30.5133   14.0341 C   0  0  0  0  0  0  0  0  0  0  0  0
  -23.1341   -9.8808   20.0381 C   0  0  0  0  0  0  0  0  0  0  0  0
  -24.0344   -9.9762   22.2781 C   0  0  0  0  0  0  0  0  0  0  0  0
  -31.6159  -32.8352   14.5588 C   0  0  0  0  0  0  0  0  0  0  0  0
  -31.5226  -30.1520   15.2924 C   0  0  0  0  0  0  0  0  0  0  0  0
  -28.3323  -25.1203   16.7099 C   0  0  0  0  0  0  0  0  0  0  0  0
  -22.4566   -8.7049   20.3605 C   0  0  0  0  0  0  0  0  0  0  0  0
  -23.3568   -8.8004   22.6005 C   0  0  0  0  0  0  0  0  0  0  0  0
  -28.7073  -23.8966   17.2630 C   0  0  0  0  0  0  0  0  0  0  0  0
  -20.2090   -7.8872   23.4238 C   0  0  0  0  0  0  0  0  0  0  0  0
  -19.5288   -7.8459   24.6408 C   0  0  0  0  0  0  0  0  0  0  0  0
  -28.0702  -24.6957   19.4481 C   0  0  0  0  0  0  0  0  0  0  0  0
  -20.8943   -5.9797   25.3407 C   0  0  0  0  0  0  0  0  0  0  0  0
  -23.9231  -10.5164   20.9969 C   0  0  0  0  0  0  0  0  0  0  0  0
  -24.1499  -13.0496   20.7987 C   0  0  0  0  0  0  0  0  0  0  0  0
  -31.1212  -32.4850   15.8250 C   0  0  0  0  0  0  0  0  0  0  0  0
  -27.8327  -26.1464   17.5248 C   0  0  0  0  0  0  0  0  0  0  0  0
  -31.0829  -31.1289   16.2018 C   0  0  0  0  0  0  0  0  0  0  0  0
  -27.6871  -25.9305   18.9026 C   0  0  0  0  0  0  0  0  0  0  0  0
  -28.9771  -19.0637   18.9838 C   0  0  0  0  0  0  0  0  0  0  0  0
  -29.7476  -20.2528   19.0081 C   0  0  0  0  0  0  0  0  0  0  0  0
  -22.5679   -8.1647   21.6417 C   0  0  0  0  0  0  0  0  0  0  0  0
  -28.5790  -23.6852   18.6326 C   0  0  0  0  0  0  0  0  0  0  0  0
  -21.2318   -6.9747   23.1651 C   0  0  0  0  0  0  0  0  0  0  0  0
  -19.8715   -6.8921   25.5993 C   0  0  0  0  0  0  0  0  0  0  0  0
  -21.5745   -6.0210   24.1236 C   0  0  0  0  0  0  0  0  0  0  0  0
  -24.6237  -11.7308   20.6643 C   0  0  0  0  0  0  0  0  0  0  0  0
  -29.5963  -18.1450   19.8093 C   0  0  0  0  0  0  0  0  0  0  0  0
  -30.8187  -20.0345   19.8464 C   0  0  0  0  0  0  0  0  0  0  0  0
  -25.1847  -13.8335   20.3503 C   0  0  0  0  0  0  0  0  0  0  0  0
  -22.8873  -13.5236   21.2855 C   0  0  0  0  0  0  0  0  0  0  0  0
  -28.7720  -29.0961   18.2464 C   0  0  0  0  0  0  0  0  0  0  0  0
  -25.9246  -29.2051   19.7965 C   0  0  0  0  0  0  0  0  0  0  0  0
  -23.3845  -27.5038   21.3131 C   0  0  0  0  0  0  0  0  0  0  0  0
  -30.7747  -14.7985   20.5941 C   0  0  0  0  0  0  0  0  0  0  0  0
  -30.7077  -33.5835   16.7720 C   0  0  0  0  0  0  0  0  0  0  0  0
  -27.4075  -27.4512   16.9090 C   0  0  0  0  0  0  0  0  0  0  0  0
  -27.1371  -26.9927   19.8179 C   0  0  0  0  0  0  0  0  0  0  0  0
  -29.1966  -16.7542   20.1828 C   0  0  0  0  0  0  0  0  0  0  0  0
  -29.8629  -33.0911   17.9443 C   0  0  0  0  0  0  0  0  0  0  0  0
  -29.4394  -12.6263   17.9124 C   0  0  0  0  0  0  0  0  0  0  0  0
  -30.4848  -31.8434   18.5635 C   0  0  0  0  0  0  0  0  0  0  0  0
  -28.0551  -12.2564   18.4436 C   0  0  0  0  0  0  0  0  0  0  0  0
  -30.4238  -12.9125   19.0425 C   0  0  0  0  0  0  0  0  0  0  0  0
  -28.5701  -13.5665   20.5393 C   0  0  0  0  0  0  0  0  0  0  0  0
  -30.9909  -16.8974   21.8961 C   0  0  0  0  0  0  0  0  0  0  0  0
  -30.5455  -30.6956   17.5485 C   0  0  1  0  0  0  0  0  0  0  0  0
  -27.3930  -28.6058   17.9060 C   0  0  1  0  0  0  0  0  0  0  0  0
  -27.5407  -13.3234   19.4259 C   0  0  2  0  0  0  0  0  0  0  0  0
  -31.6656  -18.0965   21.2151 C   0  0  1  0  0  0  0  0  0  0  0  0
  -27.7281  -18.8470   18.2241 C   0  0  0  0  0  0  0  0  0  0  0  0
  -31.9136  -20.9510   20.2321 C   0  0  0  0  0  0  0  0  0  0  0  0
  -32.9369  -17.6890   20.4693 C   0  0  0  0  0  0  0  0  0  0  0  0
  -21.2139  -27.8677   22.5188 C   0  0  0  0  0  0  0  0  0  0  0  0
  -27.4571  -30.0680   22.2899 C   0  0  0  0  0  0  0  0  0  0  0  0
  -25.4323  -29.4968   23.6471 C   0  0  0  0  0  0  0  0  0  0  0  0
  -25.3057  -31.2864   21.9140 C   0  0  0  0  0  0  0  0  0  0  0  0
  -21.8647  -25.9886   19.2751 C   0  0  0  0  0  0  0  0  0  0  0  0
  -29.4531  -21.5023   18.2763 C   0  0  0  0  0  0  0  0  0  1  0  0
  -25.4526  -28.8684   21.1904 C   0  0  1  0  0  0  0  0  0  0  0  0
  -21.8766  -27.6108   21.1743 C   0  0  2  0  0  0  0  0  0  0  0  0
  -25.9242  -29.9104   22.2437 C   0  0  0  0  0  0  0  0  0  0  0  0
  -25.8630  -11.6760   20.1691 N   0  0  0  0  0  0  0  0  0  0  0  0
  -30.7234  -18.7517   20.3123 N   0  0  0  0  0  0  0  0  0  0  0  0
  -26.1766  -12.9702   19.9884 N   0  0  0  0  0  0  0  0  0  0  0  0
  -26.7412  -28.2537   19.1691 N   0  0  0  0  0  0  0  0  0  0  0  0
  -30.2759  -16.0713   20.9162 N   0  0  0  0  0  0  0  0  0  0  0  0
  -29.8886  -13.8988   19.9813 N   0  0  0  0  0  0  0  0  0  0  0  0
  -25.3338  -15.1702   20.2342 N   0  0  0  0  0  0  0  0  0  0  0  0
  -21.9377  -12.5827   21.7064 N   0  0  0  0  0  0  0  0  0  0  0  0
  -29.2431  -30.0821   17.4007 N   0  0  0  0  0  0  0  0  0  0  0  0
  -24.0040  -28.7180   21.1056 N   0  0  0  0  0  0  0  0  0  0  0  0
  -21.3178  -26.3506   20.6080 N   0  3  0  0  0  0  0  0  0  0  0  0
  -22.6034  -14.7446   21.3300 O   0  0  0  0  0  0  0  0  0  0  0  0
  -29.3640  -28.6164   19.2061 O   0  0  0  0  0  0  0  0  0  0  0  0
  -25.5756  -30.2698   19.2806 O   0  0  0  0  0  0  0  0  0  0  0  0
  -23.9554  -26.4493   21.5825 O   0  0  0  0  0  0  0  0  0  0  0  0
  -31.9506  -14.4863   20.8214 O   0  0  0  0  0  0  0  0  0  0  0  0
  -21.9067   -7.0175   21.9567 O   0  0  0  0  0  0  0  0  0  0  0  0
  -28.9469  -22.4856   19.1780 O   0  0  0  0  0  0  0  0  0  1  0  0
  -19.2192   -6.8536   26.7686 F   0  0  0  0  0  0  0  0  0  0  0  0
  -22.5570   -5.1425   23.8813 F   0  0  0  0  0  0  0  0  0  0  0  0
  1  2  1  0  0  0  0
  1  5  2  0  0  0  0
  2  6  2  0  0  0  0
  3  8  2  0  0  0  0
  3 15  1  0  0  0  0
  4  9  1  0  0  0  0
  4 15  2  0  0  0  0
  5 17  1  0  0  0  0
  6 19  1  0  0  0  0
  7 10  2  0  0  0  0
  7 18  1  0  0  0  0
  8 23  1  0  0  0  0
  9 23  2  0  0  0  0
 10 24  1  0  0  0  0
 11 12  2  0  0  0  0
 11 25  1  0  0  0  0
 12 26  1  0  0  0  0
 13 20  1  0  0  0  0
 13 24  2  0  0  0  0
 14 26  2  0  0  0  0
 14 27  1  0  0  0  0
 15 28  1  0  0  0  0
 16 28  1  0  0  0  0
 16 31  2  0  0  0  0
 16 32  1  0  0  0  0
 17 19  2  0  0  0  0
 17 37  1  0  0  0  0
 18 20  2  0  0  0  0
 18 38  1  0  0  0  0
 19 48  1  0  0  0  0
 20 39  1  0  0  0  0
 21 22  1  0  0  0  0
 21 29  2  0  0  0  0
 21 52  1  0  0  0  0
 22 30  2  0  0  0  0
 22 60  1  0  0  0  0
 23 80  1  0  0  0  0
 24 81  1  0  0  0  0
 25 27  2  0  0  0  0
 25 80  1  0  0  0  0
 26 82  1  0  0  0  0
 27 83  1  0  0  0  0
 28 64  2  0  0  0  0
 29 40  1  0  0  0  0
 29 65  1  0  0  0  0
 30 53  1  0  0  0  0
 30 65  1  0  0  0  0
 31 66  1  0  0  0  0
 31 70  1  0  0  0  0
 32 71  1  0  0  0  0
 32 75  2  0  0  0  0
 33 49  1  0  0  0  0
 33 72  1  0  0  0  0
 33 76  2  0  0  0  0
 34 61  1  0  0  0  0
 34 67  1  0  0  0  0
 34 77  2  0  0  0  0
 35 62  1  0  0  0  0
 35 73  1  0  0  0  0
 35 78  2  0  0  0  0
 36 68  1  0  0  0  0
 36 69  1  0  0  0  0
 36 79  2  0  0  0  0
 37 41  1  0  0  0  0
 38 49  1  0  0  0  0
 39 67  1  0  0  0  0
 40 68  1  0  0  0  0
 41 43  1  0  0  0  0
 42 44  1  0  0  0  0
 42 45  1  0  0  0  0
 43 48  1  0  0  0  0
 44 50  1  0  0  0  0
 45 69  1  0  0  0  0
 46 50  1  0  0  0  0
 46 69  1  0  0  0  0
 47 51  1  0  0  0  0
 47 68  1  0  0  0  0
 48 72  1  0  0  0  0
 49 67  1  0  0  0  0
 50 66  1  0  0  0  0
 51 54  1  0  0  0  0
 51 65  1  0  0  0  0
 55 62  1  0  0  0  0
 56 63  1  0  0  0  0
 57 63  1  0  0  0  0
 58 63  1  0  0  0  0
 59 74  1  0  0  0  0
 60 81  1  0  0  0  0
 61 63  1  0  0  0  0
 61 73  1  0  0  0  0
 62 74  1  0  0  0  0
 64 66  1  0  0  0  0
M  CHG  1  74   1
M  ISO  4  36 100  60 101  68 100  81 101
M  END
> <Batch ID>
0177

> <Smiles>
CNC(C)C(=O)NC(C(=O)N1Cc2cc([101O:1][101CH2:1]c3c(C)c4n(c3C)C(C)C[100N:0]([100C:0](=O)N3CCCC(n5nc(-c6ccc(Oc7ccc(F)cc7F)cc6)c(C(N)=O)c5N)C3)C4)ccc2CC1C(=O)NC1CCCc2ccccc21)C(C)(C)C

> <Shape>
0.306

> <Color>
0.196

> <Negative vol penalty>
0.000

$$$$

  -OEChem-04052322523D

 82 91  0     1  0  0  0  0  0999 V2000
  -30.1055  -18.1080   18.3756 C   0  0  0  0  0  0  0  0  0  0  0  0
  -28.8940  -18.7069   18.0452 C   0  0  0  0  0  0  0  0  0  0  0  0
  -23.8968  -16.9259   22.5347 C   0  0  0  0  0  0  0  0  0  0  0  0
  -21.9576  -17.3759   21.1658 C   0  0  0  0  0  0  0  0  0  0  0  0
  -30.8672  -18.6132   19.4285 C   0  0  0  0  0  0  0  0  0  0  0  0
  -28.4431  -19.8107   18.7682 C   0  0  0  0  0  0  0  0  0  0  0  0
  -24.7143  -25.8729   17.9546 C   0  0  0  0  0  0  0  0  0  0  0  0
  -23.7853  -15.5659   22.2458 C   0  0  0  0  0  0  0  0  0  0  0  0
  -21.8461  -16.0159   20.8768 C   0  0  0  0  0  0  0  0  0  0  0  0
  -23.6343  -26.5561   18.5119 C   0  0  0  0  0  0  0  0  0  0  0  0
  -24.5516  -13.4919   19.6876 C   0  0  0  0  0  0  0  0  0  0  0  0
  -25.7166  -12.8033   19.3496 C   0  0  0  0  0  0  0  0  0  0  0  0
  -25.0722  -27.3912   20.2596 C   0  0  0  0  0  0  0  0  0  0  0  0
  -25.3936  -11.3303   21.2372 C   0  0  0  0  0  0  0  0  0  0  0  0
  -22.9830  -17.8309   21.9948 C   0  0  0  0  0  0  0  0  0  0  0  0
  -23.8283  -20.2009   21.5749 C   0  0  0  0  0  0  0  0  0  0  0  0
  -30.4300  -19.7297   20.1585 C   0  0  0  0  0  0  0  0  0  0  0  0
  -25.9811  -25.9350   18.5528 C   0  0  0  0  0  0  0  0  0  0  0  0
  -29.1991  -20.3304   19.8326 C   0  0  0  0  0  0  0  0  0  0  0  0
  -26.1672  -26.7099   19.7065 C   0  0  0  0  0  0  0  0  0  0  0  0
  -22.7599  -15.1109   21.4168 C   0  0  0  0  0  0  0  0  0  0  0  0
  -23.8125  -27.3131   19.6662 C   0  0  0  0  0  0  0  0  0  0  0  0
  -23.8077  -13.0998   20.8005 C   0  0  0  0  0  0  0  0  0  0  0  0
  -26.1376  -11.7225   20.1244 C   0  0  0  0  0  0  0  0  0  0  0  0
  -24.2287  -12.0190   21.5753 C   0  0  0  0  0  0  0  0  0  0  0  0
  -23.0974  -19.2359   22.2934 C   0  0  0  0  0  0  0  0  0  0  0  0
  -23.6158  -21.3725   22.2596 C   0  0  0  0  0  0  0  0  0  0  0  0
  -24.6278  -20.0517   20.3942 C   0  0  0  0  0  0  0  0  0  0  0  0
  -27.9540  -23.8093   19.8538 C   0  0  0  0  0  0  0  0  0  0  0  0
  -29.9627  -26.3514   20.0126 C   0  0  0  0  0  0  0  0  0  0  0  0
  -30.3428  -29.7410   20.1246 C   0  0  0  0  0  0  0  0  0  0  0  0
  -19.4723  -24.1361   25.2105 C   0  0  0  0  0  0  0  0  0  0  0  0
  -31.2651  -20.2109   21.3186 C   0  0  0  0  0  0  0  0  0  0  0  0
  -27.1418  -25.2138   17.9242 C   0  0  0  0  0  0  0  0  0  0  0  0
  -27.5115  -26.8256   20.3758 C   0  0  0  0  0  0  0  0  0  0  0  0
  -30.8963  -21.6138   21.7940 C   0  0  0  0  0  0  0  0  0  0  0  0
  -22.1834  -22.5137   26.8518 C   0  0  0  0  0  0  0  0  0  0  0  0
  -29.3831  -21.7513   21.9286 C   0  0  0  0  0  0  0  0  0  0  0  0
  -22.7634  -21.5928   25.7769 C   0  0  0  0  0  0  0  0  0  0  0  0
  -20.1647  -31.4550   22.4450 C   0  0  0  0  0  0  0  0  0  0  0  0
  -18.9472  -31.4508   23.3255 C   0  0  0  0  0  0  0  0  0  0  0  0
  -19.8298  -26.8000   21.8839 C   0  0  0  0  0  0  0  0  0  0  0  0
  -20.6623  -22.6072   26.7541 C   0  0  0  0  0  0  0  0  0  0  0  0
  -20.7295  -22.0684   24.3501 C   0  0  0  0  0  0  0  0  0  0  0  0
  -18.4249  -28.1027   23.2975 C   0  0  0  0  0  0  0  0  0  0  0  0
  -28.6881  -21.5447   20.5774 C   0  0  1  0  0  0  0  0  0  0  0  0
  -28.2735  -24.9319   18.9076 C   0  0  1  0  0  0  0  0  0  0  0  0
  -19.2080  -26.7976   23.2733 C   0  0  1  0  0  0  0  0  0  0  0  0
  -22.2654  -21.9862   24.3732 C   0  0  2  0  0  0  0  0  0  0  0  0
  -19.7985  -30.2182   23.2146 C   0  0  0  0  0  0  0  0  0  0  0  0
  -20.3201  -28.2354   21.7423 C   0  0  1  0  0  0  0  0  0  0  0  0
  -32.1035  -31.5214   20.2905 C   0  0  0  0  0  0  0  0  0  0  0  0
  -30.2862  -25.7509   22.9866 C   0  0  0  0  0  0  0  0  0  0  0  0
  -31.2468  -28.0450   23.2741 C   0  0  0  0  0  0  0  0  0  0  0  0
  -32.4023  -26.3848   21.8142 C   0  0  0  0  0  0  0  0  0  0  0  0
  -29.5816  -30.9003   17.5100 C   0  0  0  0  0  0  0  0  0  0  0  0
  -18.3400  -25.5804   23.5398 C   0  0  0  0  0  0  0  0  0  0  0  0
  -20.4705  -28.6904   20.3018 C   0  0  0  0  0  0  0  0  0  0  0  0
  -21.5011  -27.8610   19.5511 C   0  0  0  0  0  0  0  0  0  1  0  0
  -30.2399  -27.4331   21.0285 C   0  0  1  0  0  0  0  0  0  0  0  0
  -31.2535  -30.6786   19.3525 C   0  0  2  0  0  0  0  0  0  0  0  0
  -31.0179  -26.8999   22.2646 C   0  0  0  0  0  0  0  0  0  0  0  0
  -22.4677  -19.7497   23.3534 N   0  0  0  0  0  0  0  0  0  0  0  0
  -22.8025  -21.0504   23.3060 N   0  0  0  0  0  0  0  0  0  0  0  0
  -28.6139  -26.0969   19.7267 N   0  0  0  0  0  0  0  0  0  0  0  0
  -20.2559  -22.9856   25.3985 N   0  0  0  0  0  0  0  0  0  0  0  0
  -24.0473  -22.6364   22.0627 N   0  0  0  0  0  0  0  0  0  0  0  0
  -24.7391  -18.7784   19.8192 N   0  0  0  0  0  0  0  0  0  0  0  0
  -28.8130  -22.7311   19.7581 N   0  0  0  0  0  0  0  0  0  0  0  0
  -30.9220  -28.5035   20.3093 N   0  0  0  0  0  0  0  0  0  0  0  0
  -19.1364  -24.4266   23.8938 N   0  0  0  0  0  0  0  0  0  0  0  0
  -19.2438  -29.0522   22.4423 N   0  3  1  0  0  0  0  0  0  0  0  0
  -30.4480  -31.5951   18.4968 N   0  3  0  0  0  0  0  0  0  0  0  0
  -25.2390  -21.0158   19.8741 O   0  0  0  0  0  0  0  0  0  0  0  0
  -26.9998  -23.9142   20.6155 O   0  0  0  0  0  0  0  0  0  0  0  0
  -30.9083  -25.7590   19.4867 O   0  0  0  0  0  0  0  0  0  0  0  0
  -29.2304  -30.0745   20.5270 O   0  0  0  0  0  0  0  0  0  0  0  0
  -19.1040  -24.8544   26.1461 O   0  0  0  0  0  0  0  0  0  0  0  0
  -22.6509  -13.7839   21.1343 O   0  0  0  0  0  0  0  0  0  0  0  0
  -22.7599  -27.9804   20.2126 O   0  0  0  0  0  0  0  0  0  1  0  0
  -27.2555  -11.0604   19.7987 F   0  0  0  0  0  0  0  0  0  0  0  0
  -23.5175  -11.6368   22.6449 F   0  0  0  0  0  0  0  0  0  0  0  0
  1  2  1  0  0  0  0
  1  5  2  0  0  0  0
  2  6  2  0  0  0  0
  3  8  2  0  0  0  0
  3 15  1  0  0  0  0
  4  9  1  0  0  0  0
  4 15  2  0  0  0  0
  5 17  1  0  0  0  0
  6 19  1  0  0  0  0
  7 10  2  0  0  0  0
  7 18  1  0  0  0  0
  8 21  1  0  0  0  0
  9 21  2  0  0  0  0
 10 22  1  0  0  0  0
 11 12  2  0  0  0  0
 11 23  1  0  0  0  0
 12 24  1  0  0  0  0
 13 20  1  0  0  0  0
 13 22  2  0  0  0  0
 14 24  2  0  0  0  0
 14 25  1  0  0  0  0
 15 26  1  0  0  0  0
 16 26  1  0  0  0  0
 16 27  2  0  0  0  0
 16 28  1  0  0  0  0
 17 19  2  0  0  0  0
 17 33  1  0  0  0  0
 18 20  2  0  0  0  0
 18 34  1  0  0  0  0
 19 46  1  0  0  0  0
 20 35  1  0  0  0  0
 21 79  1  0  0  0  0
 22 80  1  0  0  0  0
 23 25  2  0  0  0  0
 23 79  1  0  0  0  0
 24 81  1  0  0  0  0
 25 82  1  0  0  0  0
 26 63  2  0  0  0  0
 27 64  1  0  0  0  0
 27 67  1  0  0  0  0
 28 68  1  0  0  0  0
 28 74  2  0  0  0  0
 29 47  1  0  0  0  0
 29 69  1  0  0  0  0
 29 75  2  0  0  0  0
 30 60  1  0  0  0  0
 30 65  1  0  0  0  0
 30 76  2  0  0  0  0
 31 61  1  0  0  0  0
 31 70  1  0  0  0  0
 31 77  2  0  0  0  0
 32 66  1  0  0  0  0
 32 71  1  0  0  0  0
 32 78  2  0  0  0  0
 33 36  1  0  0  0  0
 34 47  1  0  0  0  0
 35 65  1  0  0  0  0
 36 38  1  0  0  0  0
 37 39  1  0  0  0  0
 37 43  1  0  0  0  0
 38 46  1  0  0  0  0
 39 49  1  0  0  0  0
 40 41  1  0  0  0  0
 40 50  1  0  0  0  0
 41 50  1  0  0  0  0
 42 48  1  0  0  0  0
 42 51  1  0  0  0  0
 43 66  1  0  0  0  0
 44 49  1  0  0  0  0
 44 66  1  0  0  0  0
 45 48  1  0  0  0  0
 45 72  1  0  0  0  0
 46 69  1  0  0  0  0
 47 65  1  0  0  0  0
 48 57  1  0  0  0  0
 49 64  1  0  0  0  0
 50 72  1  0  0  0  0
 51 58  1  0  0  0  0
 51 72  1  0  0  0  0
 52 61  1  0  0  0  0
 53 62  1  0  0  0  0
 54 62  1  0  0  0  0
 55 62  1  0  0  0  0
 56 73  1  0  0  0  0
 57 71  1  0  0  0  0
 58 59  1  0  0  0  0
 59 80  1  0  0  0  0
 60 62  1  0  0  0  0
 60 70  1  0  0  0  0
 61 73  1  0  0  0  0
 63 64  1  0  0  0  0
M  CHG  2  72   1  73   1
M  ISO  4  32 100  59 101  71 100  80 101
M  END
> <Batch ID>
0177

> <Smiles>
CNC(C)C(=O)NC(C(=O)N1Cc2cc([101O:1][101CH2:1]CC3CC(C[100NH:0][100C:0](=O)N4CCCC(n5nc(-c6ccc(Oc7ccc(F)cc7F)cc6)c(C(N)=O)c5N)C4)CN3C3CC3)ccc2CC1C(=O)NC1CCCc2ccccc21)C(C)(C)C

> <Shape>
0.196

> <Color>
0.057

> <Negative vol penalty>
0.000

$$$$

  -OEChem-04052322523D

 81 90  0     1  0  0  0  0  0999 V2000
  -29.4310  -29.9864   26.8556 C   0  0  0  0  0  0  0  0  0  0  0  0
  -29.0361  -29.0940   25.8641 C   0  0  0  0  0  0  0  0  0  0  0  0
  -22.6551  -10.4459   21.0215 C   0  0  0  0  0  0  0  0  0  0  0  0
  -24.5454   -9.1219   21.7363 C   0  0  0  0  0  0  0  0  0  0  0  0
  -28.4976  -30.8514   27.4252 C   0  0  0  0  0  0  0  0  0  0  0  0
  -27.7073  -29.0654   25.4423 C   0  0  0  0  0  0  0  0  0  0  0  0
  -27.2732  -28.8574   20.4011 C   0  0  0  0  0  0  0  0  0  0  0  0
  -26.3787  -23.5187   16.5654 C   0  0  0  0  0  0  0  0  0  0  0  0
  -21.8641   -9.2976   20.9862 C   0  0  0  0  0  0  0  0  0  0  0  0
  -23.7544   -7.9736   21.7011 C   0  0  0  0  0  0  0  0  0  0  0  0
  -27.4849  -27.6202   19.7944 C   0  0  0  0  0  0  0  0  0  0  0  0
  -21.4169   -6.5004   23.6470 C   0  0  0  0  0  0  0  0  0  0  0  0
  -21.5083   -5.6190   24.7242 C   0  0  0  0  0  0  0  0  0  0  0  0
  -26.7677  -22.2964   16.0289 C   0  0  0  0  0  0  0  0  0  0  0  0
  -25.0997  -27.2931   19.6431 C   0  0  0  0  0  0  0  0  0  0  0  0
  -22.2313   -3.8653   23.2278 C   0  0  0  0  0  0  0  0  0  0  0  0
  -25.7765  -22.3886   18.5695 C   0  0  0  0  0  0  0  0  0  0  0  0
  -23.9958  -10.3581   21.3965 C   0  0  0  0  0  0  0  0  0  0  0  0
  -25.0073  -12.4100   22.5253 C   0  0  0  0  0  0  0  0  0  0  0  0
  -27.1587  -30.8401   27.0034 C   0  0  0  0  0  0  0  0  0  0  0  0
  -25.9711  -29.3177   20.6438 C   0  0  0  0  0  0  0  0  0  0  0  0
  -26.7549  -29.9302   26.0077 C   0  0  0  0  0  0  0  0  0  0  0  0
  -24.8742  -28.5376   20.2508 C   0  0  0  0  0  0  0  0  0  0  0  0
  -25.8727  -23.5743   17.8593 C   0  0  0  0  0  0  0  0  0  0  0  0
  -22.4137   -8.0614   21.3260 C   0  0  0  0  0  0  0  0  0  0  0  0
  -26.3981  -26.8365   19.4179 C   0  0  0  0  0  0  0  0  0  0  0  0
  -21.7326   -6.0642   22.3602 C   0  0  0  0  0  0  0  0  0  0  0  0
  -21.9155   -4.3014   24.5146 C   0  0  0  0  0  0  0  0  0  0  0  0
  -22.1398   -4.7467   22.1506 C   0  0  0  0  0  0  0  0  0  0  0  0
  -24.8136  -11.5438   21.4326 C   0  0  0  0  0  0  0  0  0  0  0  0
  -26.6317  -21.1678   16.8212 C   0  0  0  0  0  0  0  0  0  0  0  0
  -25.8630  -13.3743   22.0516 C   0  0  0  0  0  0  0  0  0  0  0  0
  -24.4625  -12.3483   23.8501 C   0  0  0  0  0  0  0  0  0  0  0  0
  -24.3050  -30.0670   23.2450 C   0  0  0  0  0  0  0  0  0  0  0  0
  -22.0932  -31.0302   21.0766 C   0  0  0  0  0  0  0  0  0  0  0  0
  -20.8309  -30.7737   17.9162 C   0  0  0  0  0  0  0  0  0  0  0  0
  -27.1556  -16.9902   18.1012 C   0  0  0  0  0  0  0  0  0  0  0  0
  -26.1760  -31.7613   27.6819 C   0  0  0  0  0  0  0  0  0  0  0  0
  -25.7595  -30.6665   21.2750 C   0  0  0  0  0  0  0  0  0  0  0  0
  -23.4562  -28.9954   20.4706 C   0  0  0  0  0  0  0  0  0  0  0  0
  -24.8668  -31.9271   26.9146 C   0  0  0  0  0  0  0  0  0  0  0  0
  -28.5690  -13.5951   17.8047 C   0  0  0  0  0  0  0  0  0  0  0  0
  -24.3398  -30.5702   26.4587 C   0  0  0  0  0  0  0  0  0  0  0  0
  -27.6868  -12.8237   18.7819 C   0  0  0  0  0  0  0  0  0  0  0  0
  -28.4378  -19.6825   15.7237 C   0  0  0  0  0  0  0  0  0  0  0  0
  -27.8037  -14.7165   17.1035 C   0  0  0  0  0  0  0  0  0  0  0  0
  -26.2451  -14.8824   19.0238 C   0  0  0  0  0  0  0  0  0  0  0  0
  -25.3278  -29.8863   25.5060 C   0  0  1  0  0  0  0  0  0  0  0  0
  -27.0438  -19.8457   16.2661 C   0  0  1  0  0  0  0  0  0  0  0  0
  -24.3939  -30.8071   21.9405 C   0  0  1  0  0  0  0  0  0  0  0  0
  -27.0103  -13.7817   19.7744 C   0  0  1  0  0  0  0  0  0  0  0  0
  -28.0641  -19.0236   17.0184 C   0  0  1  0  0  0  0  0  0  0  0  0
  -18.9963  -31.6579   16.4500 C   0  0  0  0  0  0  0  0  0  0  0  0
  -20.0816  -29.2504   22.5243 C   0  0  0  0  0  0  0  0  0  0  0  0
  -18.5924  -29.4213   20.5189 C   0  0  0  0  0  0  0  0  0  0  0  0
  -19.1837  -31.4724   21.8097 C   0  0  0  0  0  0  0  0  0  0  0  0
  -22.7642  -31.9214   15.9916 C   0  0  0  0  0  0  0  0  0  0  0  0
  -25.4428  -24.8775   18.4661 C   0  0  0  0  0  0  0  0  0  1  0  0
  -20.9388  -30.3703   20.3617 C   0  0  1  0  0  0  0  0  0  0  0  0
  -20.4390  -31.8304   16.8993 C   0  0  2  0  0  0  0  0  0  0  0  0
  -19.7257  -30.1189   21.3011 C   0  0  0  0  0  0  0  0  0  0  0  0
  -26.1443  -21.1824   18.0821 N   0  0  0  0  0  0  0  0  0  0  0  0
  -25.4915  -11.9244   20.3465 N   0  0  0  0  0  0  0  0  0  0  0  0
  -26.1195  -13.0403   20.7544 N   0  0  0  0  0  0  0  0  0  0  0  0
  -23.3011  -30.3186   21.0971 N   0  0  0  0  0  0  0  0  0  0  0  0
  -27.1110  -15.5847   18.0686 N   0  0  0  0  0  0  0  0  0  0  0  0
  -26.4133  -14.4669   22.6224 N   0  0  0  0  0  0  0  0  0  0  0  0
  -23.6000  -11.2907   24.1693 N   0  0  0  0  0  0  0  0  0  0  0  0
  -25.2379  -30.4661   24.1831 N   0  0  0  0  0  0  0  0  0  0  0  0
  -20.6375  -31.2124   19.2090 N   0  0  0  0  0  0  0  0  0  0  0  0
  -27.9281  -17.5948   17.1159 N   0  0  0  0  0  0  0  0  0  0  0  0
  -21.3183  -31.7456   15.6991 N   0  3  0  0  0  0  0  0  0  0  0  0
  -24.7196  -13.2148   24.7200 O   0  0  0  0  0  0  0  0  0  0  0  0
  -23.4522  -29.1990   23.3904 O   0  0  0  0  0  0  0  0  0  0  0  0
  -21.9311  -32.1393   21.5915 O   0  0  0  0  0  0  0  0  0  0  0  0
  -21.2618  -29.6681   17.5958 O   0  0  0  0  0  0  0  0  0  0  0  0
  -26.5472  -17.6604   18.9428 O   0  0  0  0  0  0  0  0  0  0  0  0
  -21.6421   -6.9407   21.2919 O   0  0  0  0  0  0  0  0  0  0  0  0
  -26.6019  -25.6282   18.8260 O   0  0  0  0  0  0  0  0  0  1  0  0
  -22.0048   -3.4556   25.5494 F   0  0  0  0  0  0  0  0  0  0  0  0
  -22.4455   -4.3222   20.9169 F   0  0  0  0  0  0  0  0  0  0  0  0
  1  2  1  0  0  0  0
  1  5  2  0  0  0  0
  2  6  2  0  0  0  0
  3  9  2  0  0  0  0
  3 18  1  0  0  0  0
  4 10  1  0  0  0  0
  4 18  2  0  0  0  0
  5 20  1  0  0  0  0
  6 22  1  0  0  0  0
  7 11  2  0  0  0  0
  7 21  1  0  0  0  0
  8 14  2  0  0  0  0
  8 24  1  0  0  0  0
  9 25  1  0  0  0  0
 10 25  2  0  0  0  0
 11 26  1  0  0  0  0
 12 13  2  0  0  0  0
 12 27  1  0  0  0  0
 13 28  1  0  0  0  0
 14 31  1  0  0  0  0
 15 23  1  0  0  0  0
 15 26  2  0  0  0  0
 16 28  2  0  0  0  0
 16 29  1  0  0  0  0
 17 24  2  0  0  0  0
 17 62  1  0  0  0  0
 18 30  1  0  0  0  0
 19 30  1  0  0  0  0
 19 32  2  0  0  0  0
 19 33  1  0  0  0  0
 20 22  2  0  0  0  0
 20 38  1  0  0  0  0
 21 23  2  0  0  0  0
 21 39  1  0  0  0  0
 22 48  1  0  0  0  0
 23 40  1  0  0  0  0
 24 58  1  0  0  0  0
 25 78  1  0  0  0  0
 26 79  1  0  0  0  0
 27 29  2  0  0  0  0
 27 78  1  0  0  0  0
 28 80  1  0  0  0  0
 29 81  1  0  0  0  0
 30 63  2  0  0  0  0
 31 49  1  0  0  0  0
 31 62  2  0  0  0  0
 32 64  1  0  0  0  0
 32 67  1  0  0  0  0
 33 68  1  0  0  0  0
 33 73  2  0  0  0  0
 34 50  1  0  0  0  0
 34 69  1  0  0  0  0
 34 74  2  0  0  0  0
 35 59  1  0  0  0  0
 35 65  1  0  0  0  0
 35 75  2  0  0  0  0
 36 60  1  0  0  0  0
 36 70  1  0  0  0  0
 36 76  2  0  0  0  0
 37 66  1  0  0  0  0
 37 71  1  0  0  0  0
 37 77  2  0  0  0  0
 38 41  1  0  0  0  0
 39 50  1  0  0  0  0
 40 65  1  0  0  0  0
 41 43  1  0  0  0  0
 42 44  1  0  0  0  0
 42 46  1  0  0  0  0
 43 48  1  0  0  0  0
 44 51  1  0  0  0  0
 45 49  1  0  0  0  0
 45 52  1  0  0  0  0
 46 66  1  0  0  0  0
 47 51  1  0  0  0  0
 47 66  1  0  0  0  0
 48 69  1  0  0  0  0
 49 52  1  0  0  0  0
 50 65  1  0  0  0  0
 51 64  1  0  0  0  0
 52 71  1  0  0  0  0
 53 60  1  0  0  0  0
 54 61  1  0  0  0  0
 55 61  1  0  0  0  0
 56 61  1  0  0  0  0
 57 72  1  0  0  0  0
 58 79  1  0  0  0  0
 59 61  1  0  0  0  0
 59 70  1  0  0  0  0
 60 72  1  0  0  0  0
 63 64  1  0  0  0  0
M  CHG  1  72   1
M  ISO  4  37 100  58 101  71 100  79 101
M  END
> <Batch ID>
0177

> <Smiles>
CNC(C)C(=O)NC(C(=O)N1Cc2cc([101O:1][101CH2:1]c3ccc(C4CC4[100NH:0][100C:0](=O)N4CCCC(n5nc(-c6ccc(Oc7ccc(F)cc7F)cc6)c(C(N)=O)c5N)C4)nc3)ccc2CC1C(=O)NC1CCCc2ccccc21)C(C)(C)C

> <Shape>
0.252

> <Color>
0.142

> <Negative vol penalty>
0.000

$$$$

  -OEChem-04052322523D

 81 89  0     1  0  0  0  0  0999 V2000
  -18.1964  -30.2902   25.2469 C   0  0  0  0  0  0  0  0  0  0  0  0
  -19.1137  -29.2714   25.4836 C   0  0  0  0  0  0  0  0  0  0  0  0
  -23.8339   -9.9177   22.4094 C   0  0  0  0  0  0  0  0  0  0  0  0
  -24.5190  -11.6028   23.9993 C   0  0  0  0  0  0  0  0  0  0  0  0
  -17.9318  -30.6987   23.9404 C   0  0  0  0  0  0  0  0  0  0  0  0
  -19.7662  -28.6598   24.4137 C   0  0  0  0  0  0  0  0  0  0  0  0
  -26.0234  -25.6308   22.6847 C   0  0  0  0  0  0  0  0  0  0  0  0
  -23.3884   -9.1109   23.4564 C   0  0  0  0  0  0  0  0  0  0  0  0
  -24.0734  -10.7961   25.0464 C   0  0  0  0  0  0  0  0  0  0  0  0
  -26.5359  -24.4586   22.1308 C   0  0  0  0  0  0  0  0  0  0  0  0
  -20.6925   -8.9312   25.4893 C   0  0  0  0  0  0  0  0  0  0  0  0
  -19.4472   -8.3184   25.3507 C   0  0  0  0  0  0  0  0  0  0  0  0
  -26.0581  -25.3009   19.9214 C   0  0  0  0  0  0  0  0  0  0  0  0
  -20.4924   -6.1494   25.5509 C   0  0  0  0  0  0  0  0  0  0  0  0
  -29.8762  -19.8368   19.5334 C   0  0  0  0  0  0  0  0  0  0  0  0
  -24.3993  -11.1636   22.6808 C   0  0  0  0  0  0  0  0  0  0  0  0
  -24.1176  -12.9638   20.8955 C   0  0  0  0  0  0  0  0  0  0  0  0
  -18.5884  -30.0984   22.8545 C   0  0  0  0  0  0  0  0  0  0  0  0
  -25.5135  -26.6440   21.8602 C   0  0  0  0  0  0  0  0  0  0  0  0
  -19.5091  -29.0597   23.0913 C   0  0  0  0  0  0  0  0  0  0  0  0
  -25.5420  -26.4861   20.4672 C   0  0  0  0  0  0  0  0  0  0  0  0
  -23.5081   -9.5501   24.7749 C   0  0  0  0  0  0  0  0  0  0  0  0
  -26.5507  -24.2922   20.7490 C   0  0  0  0  0  0  0  0  0  0  0  0
  -21.8378   -8.1532   25.6586 C   0  0  0  0  0  0  0  0  0  0  0  0
  -19.3472   -6.9274   25.3816 C   0  0  0  0  0  0  0  0  0  0  0  0
  -21.7378   -6.7623   25.6894 C   0  0  0  0  0  0  0  0  0  0  0  0
  -24.8602  -11.9972   21.5997 C   0  0  0  0  0  0  0  0  0  0  0  0
  -29.0302  -18.9338   18.9284 C   0  0  0  0  0  0  0  0  0  0  0  0
  -27.2255  -20.0952   19.7184 C   0  0  0  0  0  0  0  0  0  0  0  0
  -28.0717  -20.9978   20.3241 C   0  0  0  0  0  0  0  0  0  0  0  0
  -25.0017  -13.4732   19.9760 C   0  0  0  0  0  0  0  0  0  0  0  0
  -22.7509  -13.3655   21.0580 C   0  0  0  0  0  0  0  0  0  0  0  0
  -22.6698  -28.0146   21.4880 C   0  0  0  0  0  0  0  0  0  0  0  0
  -24.3087  -29.9709   19.4857 C   0  0  0  0  0  0  0  0  0  0  0  0
  -27.0156  -30.4332   17.4595 C   0  0  0  0  0  0  0  0  0  0  0  0
  -30.0660  -15.4035   18.6449 C   0  0  0  0  0  0  0  0  0  0  0  0
  -18.2345  -30.5414   21.4570 C   0  0  0  0  0  0  0  0  0  0  0  0
  -24.9886  -27.9138   22.4722 C   0  0  0  0  0  0  0  0  0  0  0  0
  -25.0252  -27.5524   19.5375 C   0  0  0  0  0  0  0  0  0  0  0  0
  -19.2459  -30.0983   20.4030 C   0  0  0  0  0  0  0  0  0  0  0  0
  -29.5964  -11.8746   18.5906 C   0  0  0  0  0  0  0  0  0  0  0  0
  -19.6034  -28.6274   20.5913 C   0  0  0  0  0  0  0  0  0  0  0  0
  -28.2649  -11.6716   19.3157 C   0  0  0  0  0  0  0  0  0  0  0  0
  -30.4057  -13.0145   19.2052 C   0  0  0  0  0  0  0  0  0  0  0  0
  -28.3533  -14.0935   20.0403 C   0  0  0  0  0  0  0  0  0  0  0  0
  -20.2554  -28.3888   21.9586 C   0  0  1  0  0  0  0  0  0  0  0  0
  -24.0234  -28.6629   21.5587 C   0  0  1  0  0  0  0  0  0  0  0  0
  -27.4770  -12.9912   19.4212 C   0  0  2  0  0  0  0  0  0  0  0  0
  -25.7445  -20.2321   19.8160 C   0  0  0  0  0  0  0  0  0  0  0  0
  -29.1469  -17.7985   16.6791 C   0  0  0  0  0  0  0  0  0  0  0  0
  -28.0633  -32.1213   15.9264 C   0  0  0  0  0  0  0  0  0  0  0  0
  -22.2363  -29.3101   17.3459 C   0  0  0  0  0  0  0  0  0  0  0  0
  -23.8172  -30.2224   15.6321 C   0  0  0  0  0  0  0  0  0  0  0  0
  -22.9263  -31.7127   17.4233 C   0  0  0  0  0  0  0  0  0  0  0  0
  -29.4644  -30.5881   19.1142 C   0  0  0  0  0  0  0  0  0  0  0  0
  -27.5420  -22.1608   21.1103 C   0  0  0  0  0  0  0  0  0  1  0  0
  -29.5785  -17.7869   18.1539 C   0  0  2  0  0  0  0  0  0  0  0  0
  -24.6453  -29.9554   18.0141 C   0  0  1  0  0  0  0  0  0  0  0  0
  -28.0049  -31.5790   17.3461 C   0  0  2  0  0  0  0  0  0  0  0  0
  -23.4143  -30.2790   17.1212 C   0  0  0  0  0  0  0  0  0  0  0  0
  -29.4122  -20.8850   20.2422 N   0  0  0  0  0  0  0  0  0  0  0  0
  -26.1190  -11.8965   21.1648 N   0  0  0  0  0  0  0  0  0  0  0  0
  -27.6896  -19.0468   19.0100 N   0  0  0  0  0  0  0  0  0  0  0  0
  -26.1743  -12.8064   20.1773 N   0  0  0  0  0  0  0  0  0  0  0  0
  -24.5164  -28.7731   20.1843 N   0  0  0  0  0  0  0  0  0  0  0  0
  -29.6018  -14.2372   19.2751 N   0  0  0  0  0  0  0  0  0  0  0  0
  -24.8826  -14.4218   19.0229 N   0  0  0  0  0  0  0  0  0  0  0  0
  -21.9841  -12.7399   22.0504 N   0  0  0  0  0  0  0  0  0  0  0  0
  -21.6382  -28.8151   21.9405 N   0  0  0  0  0  0  0  0  0  0  0  0
  -25.7661  -30.8733   17.8421 N   0  0  0  0  0  0  0  0  0  0  0  0
  -29.2403  -16.5157   18.7542 N   0  0  0  0  0  0  0  0  0  0  0  0
  -29.3706  -31.1243   17.7320 N   0  3  0  0  0  0  0  0  0  0  0  0
  -22.2205  -14.2414   20.3334 O   0  0  0  0  0  0  0  0  0  0  0  0
  -22.5685  -26.8732   21.0537 O   0  0  0  0  0  0  0  0  0  0  0  0
  -23.8840  -31.0096   19.9980 O   0  0  0  0  0  0  0  0  0  0  0  0
  -27.3198  -29.2652   17.2279 O   0  0  0  0  0  0  0  0  0  0  0  0
  -31.1345  -15.4488   18.0258 O   0  0  0  0  0  0  0  0  0  0  0  0
  -23.0733   -8.7632   25.7968 O   0  0  0  0  0  0  0  0  0  0  0  0
  -27.0498  -23.1487   20.2058 O   0  0  0  0  0  0  0  0  0  1  0  0
  -18.1510   -6.3390   25.2501 F   0  0  0  0  0  0  0  0  0  0  0  0
  -22.8344   -6.0096   25.8530 F   0  0  0  0  0  0  0  0  0  0  0  0
  1  2  1  0  0  0  0
  1  5  2  0  0  0  0
  2  6  2  0  0  0  0
  3  8  2  0  0  0  0
  3 16  1  0  0  0  0
  4  9  1  0  0  0  0
  4 16  2  0  0  0  0
  5 18  1  0  0  0  0
  6 20  1  0  0  0  0
  7 10  2  0  0  0  0
  7 19  1  0  0  0  0
  8 22  1  0  0  0  0
  9 22  2  0  0  0  0
 10 23  1  0  0  0  0
 11 12  2  0  0  0  0
 11 24  1  0  0  0  0
 12 25  1  0  0  0  0
 13 21  1  0  0  0  0
 13 23  2  0  0  0  0
 14 25  2  0  0  0  0
 14 26  1  0  0  0  0
 15 28  1  0  0  0  0
 15 61  2  0  0  0  0
 16 27  1  0  0  0  0
 17 27  1  0  0  0  0
 17 31  2  0  0  0  0
 17 32  1  0  0  0  0
 18 20  2  0  0  0  0
 18 37  1  0  0  0  0
 19 21  2  0  0  0  0
 19 38  1  0  0  0  0
 20 46  1  0  0  0  0
 21 39  1  0  0  0  0
 22 78  1  0  0  0  0
 23 79  1  0  0  0  0
 24 26  2  0  0  0  0
 24 78  1  0  0  0  0
 25 80  1  0  0  0  0
 26 81  1  0  0  0  0
 27 62  2  0  0  0  0
 28 57  1  0  0  0  0
 28 63  2  0  0  0  0
 29 30  2  0  0  0  0
 29 49  1  0  0  0  0
 29 63  1  0  0  0  0
 30 56  1  0  0  0  0
 30 61  1  0  0  0  0
 31 64  1  0  0  0  0
 31 67  1  0  0  0  0
 32 68  1  0  0  0  0
 32 73  2  0  0  0  0
 33 47  1  0  0  0  0
 33 69  1  0  0  0  0
 33 74  2  0  0  0  0
 34 58  1  0  0  0  0
 34 65  1  0  0  0  0
 34 75  2  0  0  0  0
 35 59  1  0  0  0  0
 35 70  1  0  0  0  0
 35 76  2  0  0  0  0
 36 66  1  0  0  0  0
 36 71  1  0  0  0  0
 36 77  2  0  0  0  0
 37 40  1  0  0  0  0
 38 47  1  0  0  0  0
 39 65  1  0  0  0  0
 40 42  1  0  0  0  0
 41 43  1  0  0  0  0
 41 44  1  0  0  0  0
 42 46  1  0  0  0  0
 43 48  1  0  0  0  0
 44 66  1  0  0  0  0
 45 48  1  0  0  0  0
 45 66  1  0  0  0  0
 46 69  1  0  0  0  0
 47 65  1  0  0  0  0
 48 64  1  0  0  0  0
 50 57  1  0  0  0  0
 51 59  1  0  0  0  0
 52 60  1  0  0  0  0
 53 60  1  0  0  0  0
 54 60  1  0  0  0  0
 55 72  1  0  0  0  0
 56 79  1  0  0  0  0
 57 71  1  0  0  0  0
 58 60  1  0  0  0  0
 58 70  1  0  0  0  0
 59 72  1  0  0  0  0
 62 64  1  0  0  0  0
M  CHG  1  72   1
M  ISO  4  36 100  56 101  71 100  79 101
M  END
> <Batch ID>
0177

> <Smiles>
CNC(C)C(=O)NC(C(=O)N1Cc2cc([101O:1][101CH2:1]c3ncc(C(C)[100NH:0][100C:0](=O)N4CCCC(n5nc(-c6ccc(Oc7ccc(F)cc7F)cc6)c(C(N)=O)c5N)C4)nc3C)ccc2CC1C(=O)NC1CCCc2ccccc21)C(C)(C)C

> <Shape>
0.228

> <Color>
0.122

> <Negative vol penalty>
0.000

$$$$

  -OEChem-04052322523D

 86 95  0     1  0  0  0  0  0999 V2000
  -23.5383  -33.8189   16.4720 C   0  0  0  0  0  0  0  0  0  0  0  0
  -23.0159  -32.5315   16.5449 C   0  0  0  0  0  0  0  0  0  0  0  0
  -23.4429   -9.7530   19.9789 C   0  0  0  0  0  0  0  0  0  0  0  0
  -23.7954  -10.0708   22.3478 C   0  0  0  0  0  0  0  0  0  0  0  0
  -24.5882  -34.1924   17.3099 C   0  0  0  0  0  0  0  0  0  0  0  0
  -23.5439  -31.6166   17.4552 C   0  0  0  0  0  0  0  0  0  0  0  0
  -21.5981  -26.1027   21.5937 C   0  0  0  0  0  0  0  0  0  0  0  0
  -22.7840   -8.5513   20.2381 C   0  0  0  0  0  0  0  0  0  0  0  0
  -23.1364   -8.8691   22.6070 C   0  0  0  0  0  0  0  0  0  0  0  0
  -21.9540  -24.7826   21.8666 C   0  0  0  0  0  0  0  0  0  0  0  0
  -19.9468   -7.7652   22.7751 C   0  0  0  0  0  0  0  0  0  0  0  0
  -19.0085   -7.7518   23.8071 C   0  0  0  0  0  0  0  0  0  0  0  0
  -23.7143  -25.5638   23.3192 C   0  0  0  0  0  0  0  0  0  0  0  0
  -28.6923  -18.8929   21.3924 C   0  0  0  0  0  0  0  0  0  0  0  0
  -20.2897   -6.0520   24.9500 C   0  0  0  0  0  0  0  0  0  0  0  0
  -31.2520  -19.6676   21.9344 C   0  0  0  0  0  0  0  0  0  0  0  0
  -23.9487  -10.5128   21.0337 C   0  0  0  0  0  0  0  0  0  0  0  0
  -24.0567  -13.0368   20.6800 C   0  0  0  0  0  0  0  0  0  0  0  0
  -25.1228  -33.2846   18.2376 C   0  0  0  0  0  0  0  0  0  0  0  0
  -22.3058  -27.1652   22.1740 C   0  0  0  0  0  0  0  0  0  0  0  0
  -24.6028  -31.9779   18.3054 C   0  0  0  0  0  0  0  0  0  0  0  0
  -23.3638  -26.8965   23.0541 C   0  0  0  0  0  0  0  0  0  0  0  0
  -28.9703  -20.2415   21.5862 C   0  0  0  0  0  0  0  0  0  0  0  0
  -30.2720  -20.6445   21.8627 C   0  0  0  0  0  0  0  0  0  0  0  0
  -22.6307   -8.1093   21.5521 C   0  0  0  0  0  0  0  0  0  0  0  0
  -23.0141  -24.5130   22.7271 C   0  0  0  0  0  0  0  0  0  0  0  0
  -21.0565   -6.9218   22.8305 C   0  0  0  0  0  0  0  0  0  0  0  0
  -19.1800   -6.8952   24.8946 C   0  0  0  0  0  0  0  0  0  0  0  0
  -21.2280   -6.0653   23.9179 C   0  0  0  0  0  0  0  0  0  0  0  0
  -24.6300  -11.7540   20.7666 C   0  0  0  0  0  0  0  0  0  0  0  0
  -29.7431  -17.9945   21.4849 C   0  0  0  0  0  0  0  0  0  0  0  0
  -25.1161  -13.8689   20.4116 C   0  0  0  0  0  0  0  0  0  0  0  0
  -22.6890  -13.4403   20.8289 C   0  0  0  0  0  0  0  0  0  0  0  0
  -24.0563  -29.5709   21.0550 C   0  0  0  0  0  0  0  0  0  0  0  0
  -24.0871  -30.4833   24.1677 C   0  0  0  0  0  0  0  0  0  0  0  0
  -23.8024  -29.5943   27.4503 C   0  0  0  0  0  0  0  0  0  0  0  0
  -30.3428  -15.5524   21.3338 C   0  0  0  0  0  0  0  0  0  0  0  0
  -26.2889  -33.7195   19.0897 C   0  0  0  0  0  0  0  0  0  0  0  0
  -21.8923  -28.5833   21.8904 C   0  0  0  0  0  0  0  0  0  0  0  0
  -24.1425  -28.0012   23.7187 C   0  0  0  0  0  0  0  0  0  0  0  0
  -26.5424  -32.8067   20.2867 C   0  0  0  0  0  0  0  0  0  0  0  0
  -29.8915  -12.8071   19.1118 C   0  0  0  0  0  0  0  0  0  0  0  0
  -26.5079  -31.3430   19.8588 C   0  0  0  0  0  0  0  0  0  0  0  0
  -28.4353  -12.3939   19.3371 C   0  0  0  0  0  0  0  0  0  0  0  0
  -27.1447  -21.2627   20.1358 C   0  0  0  0  0  0  0  0  0  0  0  0
  -30.5610  -13.2560   20.4095 C   0  0  0  0  0  0  0  0  0  0  0  0
  -28.3843  -13.8856   21.3766 C   0  0  0  0  0  0  0  0  0  0  0  0
  -25.8951  -22.0834   20.3952 C   0  0  0  0  0  0  0  0  0  0  0  0
  -27.8472  -21.2477   21.4914 C   0  0  1  0  0  0  0  0  0  0  0  0
  -25.1321  -30.9647   19.2970 C   0  0  1  0  0  0  0  0  0  0  0  0
  -23.0107  -29.5919   22.1339 C   0  0  1  0  0  0  0  0  0  0  0  0
  -27.6488  -13.4872   20.0866 C   0  0  2  0  0  0  0  0  0  0  0  0
  -26.6830  -21.0028   22.4598 C   0  0  1  0  0  0  0  0  0  0  0  0
  -30.6248  -22.0754   22.0788 C   0  0  0  0  0  0  0  0  0  0  0  0
  -26.9526  -21.4840   23.8774 C   0  0  0  0  0  0  0  0  0  0  0  0
  -23.9130  -30.5520   29.7673 C   0  0  0  0  0  0  0  0  0  0  0  0
  -27.1308  -30.5845   23.9780 C   0  0  0  0  0  0  0  0  0  0  0  0
  -27.2166  -30.6021   26.4801 C   0  0  0  0  0  0  0  0  0  0  0  0
  -26.1021  -32.4701   25.2590 C   0  0  0  0  0  0  0  0  0  0  0  0
  -20.9989  -28.8377   28.0221 C   0  0  0  0  0  0  0  0  0  0  0  0
  -24.1938  -21.1855   22.0289 C   0  0  0  0  0  0  0  0  0  0  0  0
  -23.1278  -22.2617   21.9691 C   0  0  0  0  0  0  0  0  0  1  0  0
  -24.9790  -30.2070   25.3540 C   0  0  1  0  0  0  0  0  0  0  0  0
  -23.0108  -30.2030   28.5937 C   0  0  2  0  0  0  0  0  0  0  0  0
  -26.3439  -30.9449   25.2539 C   0  0  0  0  0  0  0  0  0  0  0  0
  -31.0203  -18.3483   21.7519 N   0  0  0  0  0  0  0  0  0  0  0  0
  -25.9509  -11.7651   20.5691 N   0  0  0  0  0  0  0  0  0  0  0  0
  -26.2165  -13.0651   20.3556 N   0  0  0  0  0  0  0  0  0  0  0  0
  -23.7040  -29.3711   23.4047 N   0  0  0  0  0  0  0  0  0  0  0  0
  -29.7619  -14.2956   21.0621 N   0  0  0  0  0  0  0  0  0  0  0  0
  -25.2043  -15.2023   20.2204 N   0  0  0  0  0  0  0  0  0  0  0  0
  -21.7284  -12.4572   21.1029 N   0  0  0  0  0  0  0  0  0  0  0  0
  -29.4497  -16.6224   21.2875 N   0  0  0  0  0  0  0  0  0  0  0  0
  -24.1845  -30.7655   20.3725 N   0  0  0  0  0  0  0  0  0  0  0  0
  -24.2000  -30.5496   26.5390 N   0  0  0  0  0  0  0  0  0  0  0  0
  -25.5421  -21.8142   21.8481 N   0  3  2  0  0  0  0  0  0  0  0  0
  -21.9697  -29.2484   29.0689 N   0  3  0  0  0  0  0  0  0  0  0  0
  -22.3269  -14.6350   20.7059 O   0  0  0  0  0  0  0  0  0  0  0  0
  -24.7001  -28.5471   20.8574 O   0  0  0  0  0  0  0  0  0  0  0  0
  -23.7373  -31.6422   23.9311 O   0  0  0  0  0  0  0  0  0  0  0  0
  -24.0470  -28.3922   27.3753 O   0  0  0  0  0  0  0  0  0  0  0  0
  -31.5491  -15.6742   21.5618 O   0  0  0  0  0  0  0  0  0  0  0  0
  -21.9875   -6.9368   21.8055 O   0  0  0  0  0  0  0  0  0  0  0  0
  -23.3640  -23.2255   22.9947 O   0  0  0  0  0  0  0  0  0  1  0  0
  -18.2797   -6.8837   25.8863 F   0  0  0  0  0  0  0  0  0  0  0  0
  -22.2927   -5.2537   23.9772 F   0  0  0  0  0  0  0  0  0  0  0  0
  1  2  1  0  0  0  0
  1  5  2  0  0  0  0
  2  6  2  0  0  0  0
  3  8  2  0  0  0  0
  3 17  1  0  0  0  0
  4  9  1  0  0  0  0
  4 17  2  0  0  0  0
  5 19  1  0  0  0  0
  6 21  1  0  0  0  0
  7 10  2  0  0  0  0
  7 20  1  0  0  0  0
  8 25  1  0  0  0  0
  9 25  2  0  0  0  0
 10 26  1  0  0  0  0
 11 12  2  0  0  0  0
 11 27  1  0  0  0  0
 12 28  1  0  0  0  0
 13 22  1  0  0  0  0
 13 26  2  0  0  0  0
 14 23  1  0  0  0  0
 14 31  2  0  0  0  0
 15 28  2  0  0  0  0
 15 29  1  0  0  0  0
 16 24  1  0  0  0  0
 16 66  2  0  0  0  0
 17 30  1  0  0  0  0
 18 30  1  0  0  0  0
 18 32  2  0  0  0  0
 18 33  1  0  0  0  0
 19 21  2  0  0  0  0
 19 38  1  0  0  0  0
 20 22  2  0  0  0  0
 20 39  1  0  0  0  0
 21 50  1  0  0  0  0
 22 40  1  0  0  0  0
 23 24  2  0  0  0  0
 23 49  1  0  0  0  0
 24 54  1  0  0  0  0
 25 83  1  0  0  0  0
 26 84  1  0  0  0  0
 27 29  2  0  0  0  0
 27 83  1  0  0  0  0
 28 85  1  0  0  0  0
 29 86  1  0  0  0  0
 30 67  2  0  0  0  0
 31 66  1  0  0  0  0
 31 73  1  0  0  0  0
 32 68  1  0  0  0  0
 32 71  1  0  0  0  0
 33 72  1  0  0  0  0
 33 78  2  0  0  0  0
 34 51  1  0  0  0  0
 34 74  1  0  0  0  0
 34 79  2  0  0  0  0
 35 63  1  0  0  0  0
 35 69  1  0  0  0  0
 35 80  2  0  0  0  0
 36 64  1  0  0  0  0
 36 75  1  0  0  0  0
 36 81  2  0  0  0  0
 37 70  1  0  0  0  0
 37 73  1  0  0  0  0
 37 82  2  0  0  0  0
 38 41  1  0  0  0  0
 39 51  1  0  0  0  0
 40 69  1  0  0  0  0
 41 43  1  0  0  0  0
 42 44  1  0  0  0  0
 42 46  1  0  0  0  0
 43 50  1  0  0  0  0
 44 52  1  0  0  0  0
 45 48  1  0  0  0  0
 45 49  1  0  0  0  0
 46 70  1  0  0  0  0
 47 52  1  0  0  0  0
 47 70  1  0  0  0  0
 48 76  1  0  0  0  0
 49 53  1  0  0  0  0
 50 74  1  0  0  0  0
 51 69  1  0  0  0  0
 52 68  1  0  0  0  0
 53 55  1  0  0  0  0
 53 76  1  0  0  0  0
 56 64  1  0  0  0  0
 57 65  1  0  0  0  0
 58 65  1  0  0  0  0
 59 65  1  0  0  0  0
 60 77  1  0  0  0  0
 61 62  1  0  0  0  0
 61 76  1  0  0  0  0
 62 84  1  0  0  0  0
 63 65  1  0  0  0  0
 63 75  1  0  0  0  0
 64 77  1  0  0  0  0
 67 68  1  0  0  0  0
M  CHG  2  76   1  77   1
M  ISO  4  37 100  62 101  73 100  84 101
M  END
> <Batch ID>
0177

> <Smiles>
CNC(C)C(=O)NC(C(=O)N1Cc2cc([101O:1][101CH2:1]CN3CCC(c4cc([100NH:0][100C:0](=O)N5CCCC(n6nc(-c7ccc(Oc8ccc(F)cc8F)cc7)c(C(N)=O)c6N)C5)ncc4C)C3C)ccc2CC1C(=O)NC1CCCc2ccccc21)C(C)(C)C

> <Shape>
0.290

> <Color>
0.186

> <Negative vol penalty>
0.000

$$$$

  -OEChem-04052322523D

 86 95  0     1  0  0  0  0  0999 V2000
  -20.1471   -9.7235   19.0355 C   0  0  0  0  0  0  0  0  0  0  0  0
  -20.4951  -11.0705   19.0408 C   0  0  0  0  0  0  0  0  0  0  0  0
  -20.2813  -28.4221   22.9051 C   0  0  0  0  0  0  0  0  0  0  0  0
  -20.9465  -26.1019   22.7976 C   0  0  0  0  0  0  0  0  0  0  0  0
  -20.9292   -8.7999   19.7277 C   0  0  0  0  0  0  0  0  0  0  0  0
  -21.6249  -11.4948   19.7393 C   0  0  0  0  0  0  0  0  0  0  0  0
  -25.4375  -16.0235   18.1707 C   0  0  0  0  0  0  0  0  0  0  0  0
  -18.9915  -28.0708   22.5071 C   0  0  0  0  0  0  0  0  0  0  0  0
  -19.6565  -25.7506   22.3996 C   0  0  0  0  0  0  0  0  0  0  0  0
  -25.5333  -17.3530   18.5797 C   0  0  0  0  0  0  0  0  0  0  0  0
  -16.2221  -26.7447   23.9231 C   0  0  0  0  0  0  0  0  0  0  0  0
  -15.1527  -27.3139   24.6145 C   0  0  0  0  0  0  0  0  0  0  0  0
  -27.2233  -16.7311   20.1848 C   0  0  0  0  0  0  0  0  0  0  0  0
  -28.6065  -23.9662   20.6137 C   0  0  0  0  0  0  0  0  0  0  0  0
  -14.3564  -28.3102   22.5626 C   0  0  0  0  0  0  0  0  0  0  0  0
  -21.2589  -27.4376   23.0503 C   0  0  0  0  0  0  0  0  0  0  0  0
  -23.0834  -27.8797   24.7775 C   0  0  0  0  0  0  0  0  0  0  0  0
  -22.0746   -9.2117   20.4270 C   0  0  0  0  0  0  0  0  0  0  0  0
  -26.2274  -15.0345   18.7743 C   0  0  0  0  0  0  0  0  0  0  0  0
  -22.4224  -10.5760   20.4426 C   0  0  0  0  0  0  0  0  0  0  0  0
  -27.1375  -15.3903   19.7799 C   0  0  0  0  0  0  0  0  0  0  0  0
  -29.4746  -22.9175   20.3582 C   0  0  0  0  0  0  0  0  0  0  0  0
  -30.7124  -23.1579   19.7575 C   0  0  0  0  0  0  0  0  0  0  0  0
  -18.6790  -26.7350   22.2544 C   0  0  0  0  0  0  0  0  0  0  0  0
  -26.4242  -17.7065   19.5888 C   0  0  0  0  0  0  0  0  0  0  0  0
  -16.3587  -26.9583   22.5514 C   0  0  0  0  0  0  0  0  0  0  0  0
  -14.2199  -28.0966   23.9342 C   0  0  0  0  0  0  0  0  0  0  0  0
  -15.4258  -27.7410   21.8712 C   0  0  0  0  0  0  0  0  0  0  0  0
  -22.5916  -27.8000   23.4608 C   0  0  0  0  0  0  0  0  0  0  0  0
  -31.0460  -24.4556   19.4270 C   0  0  0  0  0  0  0  0  0  0  0  0
  -29.0292  -25.2327   20.2390 C   0  0  0  0  0  0  0  0  0  0  0  0
  -24.3947  -28.2615   24.6317 C   0  0  0  0  0  0  0  0  0  0  0  0
  -22.4147  -27.6309   26.0211 C   0  0  0  0  0  0  0  0  0  0  0  0
  -25.6310  -12.4082   20.4627 C   0  0  0  0  0  0  0  0  0  0  0  0
  -28.8389  -11.9932   20.2192 C   0  0  0  0  0  0  0  0  0  0  0  0
  -31.9145  -13.3960   19.7504 C   0  0  0  0  0  0  0  0  0  0  0  0
  -28.3528  -27.6590   20.1960 C   0  0  0  0  0  0  0  0  0  0  0  0
  -22.8623   -8.1835   21.1997 C   0  0  0  0  0  0  0  0  0  0  0  0
  -26.1314  -13.6093   18.3033 C   0  0  0  0  0  0  0  0  0  0  0  0
  -28.0225  -14.3696   20.4458 C   0  0  0  0  0  0  0  0  0  0  0  0
  -24.2544   -8.6610   21.6050 C   0  0  0  0  0  0  0  0  0  0  0  0
  -27.2785  -30.7062   21.6920 C   0  0  0  0  0  0  0  0  0  0  0  0
  -24.1858  -10.0655   22.1962 C   0  0  0  0  0  0  0  0  0  0  0  0
  -26.0027  -30.3127   22.4402 C   0  0  0  0  0  0  0  0  0  0  0  0
  -30.4402  -20.8130   19.8554 C   0  0  0  0  0  0  0  0  0  0  0  0
  -27.4152  -29.9538   20.3695 C   0  0  0  0  0  0  0  0  0  0  0  0
  -26.0352  -28.0992   21.2210 C   0  0  0  0  0  0  0  0  0  0  0  0
  -23.6545  -11.0715   21.1681 C   0  0  1  0  0  0  0  0  0  0  0  0
  -26.6140  -12.6026   19.3430 C   0  0  1  0  0  0  0  0  0  0  0  0
  -25.8863  -28.7831   22.5898 C   0  0  2  0  0  0  0  0  0  0  0  0
  -29.2836  -21.4552   20.6751 C   0  0  1  0  0  0  0  0  0  0  0  0
  -31.5199  -21.9006   19.5885 C   0  0  0  0  0  0  0  0  0  0  0  0
  -32.3346  -24.7953   18.7611 C   0  0  0  0  0  0  0  0  0  0  0  0
  -29.4287  -21.1930   22.1791 C   0  0  0  0  0  0  0  0  0  0  0  0
  -32.6654  -21.8385   20.6060 C   0  0  0  0  0  0  0  0  0  0  0  0
  -32.0878  -21.7549   18.1706 C   0  0  0  0  0  0  0  0  0  0  0  0
  -34.3517  -12.8083   19.6407 C   0  0  0  0  0  0  0  0  0  0  0  0
  -28.9093  -11.7286   23.2581 C   0  0  0  0  0  0  0  0  0  0  0  0
  -31.3837  -12.0986   23.1633 C   0  0  0  0  0  0  0  0  0  0  0  0
  -30.3770  -10.1139   22.0362 C   0  0  0  0  0  0  0  0  0  0  0  0
  -32.1396  -14.3562   16.9600 C   0  0  0  0  0  0  0  0  0  0  0  0
  -27.9278  -20.9226   20.1922 C   0  0  0  0  0  0  0  0  0  0  0  0
  -27.7835  -19.4420   20.4811 C   0  0  0  0  0  0  0  0  0  1  0  0
  -30.0363  -12.4116   21.0379 C   0  0  1  0  0  0  0  0  0  0  0  0
  -33.0708  -13.0092   18.8460 C   0  0  2  0  0  0  0  0  0  0  0  0
  -30.1586  -11.6073   22.3629 C   0  0  0  0  0  0  0  0  0  0  0  0
  -23.5152  -28.1066   22.5460 N   0  0  0  0  0  0  0  0  0  0  0  0
  -30.2233  -25.5048   19.6532 N   0  0  0  0  0  0  0  0  0  0  0  0
  -24.6005  -28.3829   23.2889 N   0  0  0  0  0  0  0  0  0  0  0  0
  -27.8872  -12.9882   19.9548 N   0  0  0  0  0  0  0  0  0  0  0  0
  -27.2989  -28.5106   20.5897 N   0  0  0  0  0  0  0  0  0  0  0  0
  -25.3802  -28.5020   25.5224 N   0  0  0  0  0  0  0  0  0  0  0  0
  -21.0672  -27.2468   25.9900 N   0  0  0  0  0  0  0  0  0  0  0  0
  -28.1436  -26.3110   20.4855 N   0  0  0  0  0  0  0  0  0  0  0  0
  -24.6920  -11.4234   20.2224 N   0  0  0  0  0  0  0  0  0  0  0  0
  -31.1939  -12.2933   20.1580 N   0  0  0  0  0  0  0  0  0  0  0  0
  -33.3106  -14.0716   17.8287 N   0  3  0  0  0  0  0  0  0  0  0  0
  -22.9904  -27.7616   27.1279 O   0  0  0  0  0  0  0  0  0  0  0  0
  -25.7189  -13.0996   21.4707 O   0  0  0  0  0  0  0  0  0  0  0  0
  -28.7548  -10.8281   19.8227 O   0  0  0  0  0  0  0  0  0  0  0  0
  -31.6767  -14.5596   20.0667 O   0  0  0  0  0  0  0  0  0  0  0  0
  -29.3779  -28.0968   19.6673 O   0  0  0  0  0  0  0  0  0  0  0  0
  -17.4204  -26.3918   21.8663 O   0  0  0  0  0  0  0  0  0  0  0  0
  -26.5199  -19.0128   19.9933 O   0  0  0  0  0  0  0  0  0  1  0  0
  -13.1921  -28.6419   24.5980 F   0  0  0  0  0  0  0  0  0  0  0  0
  -15.5511  -27.9488   20.5532 F   0  0  0  0  0  0  0  0  0  0  0  0
  1  2  1  0  0  0  0
  1  5  2  0  0  0  0
  2  6  2  0  0  0  0
  3  8  2  0  0  0  0
  3 16  1  0  0  0  0
  4  9  1  0  0  0  0
  4 16  2  0  0  0  0
  5 18  1  0  0  0  0
  6 20  1  0  0  0  0
  7 10  2  0  0  0  0
  7 19  1  0  0  0  0
  8 24  1  0  0  0  0
  9 24  2  0  0  0  0
 10 25  1  0  0  0  0
 11 12  2  0  0  0  0
 11 26  1  0  0  0  0
 12 27  1  0  0  0  0
 13 21  1  0  0  0  0
 13 25  2  0  0  0  0
 14 22  2  0  0  0  0
 14 31  1  0  0  0  0
 15 27  2  0  0  0  0
 15 28  1  0  0  0  0
 16 29  1  0  0  0  0
 17 29  1  0  0  0  0
 17 32  2  0  0  0  0
 17 33  1  0  0  0  0
 18 20  2  0  0  0  0
 18 38  1  0  0  0  0
 19 21  2  0  0  0  0
 19 39  1  0  0  0  0
 20 48  1  0  0  0  0
 21 40  1  0  0  0  0
 22 23  1  0  0  0  0
 22 51  1  0  0  0  0
 23 30  2  0  0  0  0
 23 52  1  0  0  0  0
 24 83  1  0  0  0  0
 25 84  1  0  0  0  0
 26 28  2  0  0  0  0
 26 83  1  0  0  0  0
 27 85  1  0  0  0  0
 28 86  1  0  0  0  0
 29 67  2  0  0  0  0
 30 53  1  0  0  0  0
 30 68  1  0  0  0  0
 31 68  2  0  0  0  0
 31 74  1  0  0  0  0
 32 69  1  0  0  0  0
 32 72  1  0  0  0  0
 33 73  1  0  0  0  0
 33 78  2  0  0  0  0
 34 49  1  0  0  0  0
 34 75  1  0  0  0  0
 34 79  2  0  0  0  0
 35 64  1  0  0  0  0
 35 70  1  0  0  0  0
 35 80  2  0  0  0  0
 36 65  1  0  0  0  0
 36 76  1  0  0  0  0
 36 81  2  0  0  0  0
 37 71  1  0  0  0  0
 37 74  1  0  0  0  0
 37 82  2  0  0  0  0
 38 41  1  0  0  0  0
 39 49  1  0  0  0  0
 40 70  1  0  0  0  0
 41 43  1  0  0  0  0
 42 44  1  0  0  0  0
 42 46  1  0  0  0  0
 43 48  1  0  0  0  0
 44 50  1  0  0  0  0
 45 51  1  0  0  0  0
 45 52  1  0  0  0  0
 46 71  1  0  0  0  0
 47 50  1  0  0  0  0
 47 71  1  0  0  0  0
 48 75  1  0  0  0  0
 49 70  1  0  0  0  0
 50 69  1  0  0  0  0
 51 54  1  0  0  0  0
 51 62  1  0  0  0  0
 52 55  1  0  0  0  0
 52 56  1  0  0  0  0
 57 65  1  0  0  0  0
 58 66  1  0  0  0  0
 59 66  1  0  0  0  0
 60 66  1  0  0  0  0
 61 77  1  0  0  0  0
 62 63  1  0  0  0  0
 63 84  1  0  0  0  0
 64 66  1  0  0  0  0
 64 76  1  0  0  0  0
 65 77  1  0  0  0  0
 67 69  1  0  0  0  0
M  CHG  1  77   1
M  ISO  4  37 100  63 101  74 100  84 101
M  END
> <Batch ID>
0177

> <Smiles>
CNC(C)C(=O)NC(C(=O)N1Cc2cc([101O:1][101CH2:1]CC3(C)CC(C)(C)c4c3cc([100NH:0][100C:0](=O)N3CCCC(n5nc(-c6ccc(Oc7ccc(F)cc7F)cc6)c(C(N)=O)c5N)C3)nc4C)ccc2CC1C(=O)NC1CCCc2ccccc21)C(C)(C)C

> <Shape>
0.281

> <Color>
0.066

> <Negative vol penalty>
0.000

$$$$

  -OEChem-04052322523D

 86 95  0     1  0  0  0  0  0999 V2000
  -17.1126  -30.4598   24.2038 C   0  0  0  0  0  0  0  0  0  0  0  0
  -18.1447  -29.9246   24.9679 C   0  0  0  0  0  0  0  0  0  0  0  0
  -25.9761  -16.0733   21.0168 C   0  0  0  0  0  0  0  0  0  0  0  0
  -24.8923  -17.1560   19.1486 C   0  0  0  0  0  0  0  0  0  0  0  0
  -16.9621  -30.0767   22.8717 C   0  0  0  0  0  0  0  0  0  0  0  0
  -19.0263  -29.0051   24.4006 C   0  0  0  0  0  0  0  0  0  0  0  0
  -24.9973  -28.3960   25.6178 C   0  0  0  0  0  0  0  0  0  0  0  0
  -24.8163  -15.3389   21.2641 C   0  0  0  0  0  0  0  0  0  0  0  0
  -23.7325  -16.4215   19.3958 C   0  0  0  0  0  0  0  0  0  0  0  0
  -25.7018  -27.5205   26.4430 C   0  0  0  0  0  0  0  0  0  0  0  0
  -23.2789  -12.6083   19.9941 C   0  0  0  0  0  0  0  0  0  0  0  0
  -23.4177  -11.2443   20.2506 C   0  0  0  0  0  0  0  0  0  0  0  0
  -26.1274  -26.0879   24.5494 C   0  0  0  0  0  0  0  0  0  0  0  0
  -22.3996  -11.5486   22.4204 C   0  0  0  0  0  0  0  0  0  0  0  0
  -26.0141  -16.9819   19.9591 C   0  0  0  0  0  0  0  0  0  0  0  0
  -28.2864  -17.3786   18.8696 C   0  0  0  0  0  0  0  0  0  0  0  0
  -17.8482  -29.1594   22.2850 C   0  0  0  0  0  0  0  0  0  0  0  0
  -24.8430  -28.1180   24.2520 C   0  0  0  0  0  0  0  0  0  0  0  0
  -18.8867  -28.6084   23.0598 C   0  0  0  0  0  0  0  0  0  0  0  0
  -25.4227  -26.9628   23.7085 C   0  0  0  0  0  0  0  0  0  0  0  0
  -26.0268  -22.9806   27.8596 C   0  0  0  0  0  0  0  0  0  0  0  0
  -23.6945  -15.5130   20.4536 C   0  0  0  0  0  0  0  0  0  0  0  0
  -26.2645  -26.3648   25.9094 C   0  0  0  0  0  0  0  0  0  0  0  0
  -22.7005  -13.4425   20.9509 C   0  0  0  0  0  0  0  0  0  0  0  0
  -22.9780  -10.7144   21.4637 C   0  0  0  0  0  0  0  0  0  0  0  0
  -22.2608  -12.9127   22.1639 C   0  0  0  0  0  0  0  0  0  0  0  0
  -27.2117  -17.7412   19.7035 C   0  0  0  0  0  0  0  0  0  0  0  0
  -24.6757  -22.7690   28.0440 C   0  0  0  0  0  0  0  0  0  0  0  0
  -26.6368  -22.1664   26.9272 C   0  0  0  0  0  0  0  0  0  0  0  0
  -29.1660  -18.4290   18.9670 C   0  0  0  0  0  0  0  0  0  0  0  0
  -24.6730  -21.1070   26.4933 C   0  0  0  0  0  0  0  0  0  0  0  0
  -28.4729  -16.1980   18.0778 C   0  0  0  0  0  0  0  0  0  0  0  0
  -22.3623  -27.5825   22.3382 C   0  0  0  0  0  0  0  0  0  0  0  0
  -24.6356  -27.6243   20.0246 C   0  0  0  0  0  0  0  0  0  0  0  0
  -27.9176  -27.2218   19.1802 C   0  0  0  0  0  0  0  0  0  0  0  0
  -30.0794  -22.5687   23.1899 C   0  0  0  0  0  0  0  0  0  0  0  0
  -17.6169  -28.7398   20.8549 C   0  0  0  0  0  0  0  0  0  0  0  0
  -24.1030  -29.0861   23.3702 C   0  0  0  0  0  0  0  0  0  0  0  0
  -25.3031  -26.6289   22.2447 C   0  0  0  0  0  0  0  0  0  0  0  0
  -18.8195  -28.0444   20.2221 C   0  0  0  0  0  0  0  0  0  0  0  0
  -29.3363  -23.1237   19.7828 C   0  0  0  0  0  0  0  0  0  0  0  0
  -19.3853  -26.9900   21.1682 C   0  0  0  0  0  0  0  0  0  0  0  0
  -28.7772  -21.7896   19.2963 C   0  0  0  0  0  0  0  0  0  0  0  0
  -30.1504  -21.2340   26.6428 C   0  0  0  0  0  0  0  0  0  0  0  0
  -28.8778  -23.4151   21.2052 C   0  0  0  0  0  0  0  0  0  0  0  0
  -30.7253  -22.1010   25.5319 C   0  0  0  0  0  0  0  0  0  0  0  0
  -28.7337  -20.9931   21.7170 C   0  0  0  0  0  0  0  0  0  0  0  0
  -28.7039  -21.0627   24.7495 C   0  0  0  0  0  0  0  0  0  0  0  0
  -19.8782  -27.6272   22.4730 C   0  0  1  0  0  0  0  0  0  0  0  0
  -23.5691  -28.4435   22.0937 C   0  0  1  0  0  0  0  0  0  0  0  0
  -29.1482  -20.6593   20.2690 C   0  0  1  0  0  0  0  0  0  0  0  0
  -28.6750  -21.1313   26.2717 C   0  0  2  0  0  0  0  0  0  0  0  0
  -23.9092  -23.5906   29.0277 C   0  0  0  0  0  0  0  0  0  0  0  0
  -23.9212  -20.0667   25.7346 C   0  0  0  0  0  0  0  0  0  0  0  0
  -29.4656  -27.2837   17.2060 C   0  0  0  0  0  0  0  0  0  0  0  0
  -23.5883  -24.9046   19.1211 C   0  0  0  0  0  0  0  0  0  0  0  0
  -25.7070  -24.5978   17.8230 C   0  0  0  0  0  0  0  0  0  0  0  0
  -24.1613  -26.4728   17.2592 C   0  0  0  0  0  0  0  0  0  0  0  0
  -29.5090  -29.4257   20.3502 C   0  0  0  0  0  0  0  0  0  0  0  0
  -26.7812  -24.0170   28.6137 C   0  0  0  0  0  0  0  0  0  0  0  0
  -26.5522  -25.4361   28.0798 C   0  0  0  0  0  0  0  0  0  1  0  0
  -25.5275  -26.5888   19.3834 C   0  0  1  0  0  0  0  0  0  0  0  0
  -28.8567  -28.0787   18.3505 C   0  0  2  0  0  0  0  0  0  0  0  0
  -24.7468  -25.6460   18.4247 C   0  0  0  0  0  0  0  0  0  0  0  0
  -27.3902  -18.9290   20.2876 N   0  0  0  0  0  0  0  0  0  0  0  0
  -23.9647  -21.8375   27.3754 N   0  0  0  0  0  0  0  0  0  0  0  0
  -25.9879  -21.2157   26.2234 N   0  0  0  0  0  0  0  0  0  0  0  0
  -28.5874  -19.3219   19.8202 N   0  0  0  0  0  0  0  0  0  0  0  0
  -24.5646  -27.6034   21.4247 N   0  0  0  0  0  0  0  0  0  0  0  0
  -29.2132  -22.3217   22.1191 N   0  0  0  0  0  0  0  0  0  0  0  0
  -29.8828  -21.8485   24.3679 N   0  0  0  0  0  0  0  0  0  0  0  0
  -30.3703  -18.6667   18.4051 N   0  0  0  0  0  0  0  0  0  0  0  0
  -27.4706  -15.2184   18.0925 N   0  0  0  0  0  0  0  0  0  0  0  0
  -21.1620  -28.2639   22.2711 N   0  0  0  0  0  0  0  0  0  0  0  0
  -26.6134  -27.3246   18.7446 N   0  0  0  0  0  0  0  0  0  0  0  0
  -29.9635  -28.6045   19.1987 N   0  3  0  0  0  0  0  0  0  0  0  0
  -29.5054  -16.0096   17.3908 O   0  0  0  0  0  0  0  0  0  0  0  0
  -22.5090  -26.3880   22.5690 O   0  0  0  0  0  0  0  0  0  0  0  0
  -24.0299  -28.4268   19.3099 O   0  0  0  0  0  0  0  0  0  0  0  0
  -28.3031  -26.5275   20.1182 O   0  0  0  0  0  0  0  0  0  0  0  0
  -30.9670  -23.4290   23.1130 O   0  0  0  0  0  0  0  0  0  0  0  0
  -22.5627  -14.7964   20.6944 O   0  0  0  0  0  0  0  0  0  0  0  0
  -26.9570  -25.5021   26.7183 O   0  0  0  0  0  0  0  0  0  1  0  0
  -27.9768  -22.3024   26.6755 O   0  0  0  0  0  0  0  0  0  0  0  0
  -23.1099   -9.4043   21.7092 F   0  0  0  0  0  0  0  0  0  0  0  0
  -21.7033  -13.7089   23.0864 F   0  0  0  0  0  0  0  0  0  0  0  0
  1  2  1  0  0  0  0
  1  5  2  0  0  0  0
  2  6  2  0  0  0  0
  3  8  2  0  0  0  0
  3 15  1  0  0  0  0
  4  9  1  0  0  0  0
  4 15  2  0  0  0  0
  5 17  1  0  0  0  0
  6 19  1  0  0  0  0
  7 10  2  0  0  0  0
  7 18  1  0  0  0  0
  8 22  1  0  0  0  0
  9 22  2  0  0  0  0
 10 23  1  0  0  0  0
 11 12  2  0  0  0  0
 11 24  1  0  0  0  0
 12 25  1  0  0  0  0
 13 20  1  0  0  0  0
 13 23  2  0  0  0  0
 14 25  2  0  0  0  0
 14 26  1  0  0  0  0
 15 27  1  0  0  0  0
 16 27  1  0  0  0  0
 16 30  2  0  0  0  0
 16 32  1  0  0  0  0
 17 19  2  0  0  0  0
 17 37  1  0  0  0  0
 18 20  2  0  0  0  0
 18 38  1  0  0  0  0
 19 49  1  0  0  0  0
 20 39  1  0  0  0  0
 21 28  1  0  0  0  0
 21 29  2  0  0  0  0
 21 60  1  0  0  0  0
 22 82  1  0  0  0  0
 23 83  1  0  0  0  0
 24 26  2  0  0  0  0
 24 82  1  0  0  0  0
 25 85  1  0  0  0  0
 26 86  1  0  0  0  0
 27 65  2  0  0  0  0
 28 53  1  0  0  0  0
 28 66  2  0  0  0  0
 29 67  1  0  0  0  0
 29 84  1  0  0  0  0
 30 68  1  0  0  0  0
 30 72  1  0  0  0  0
 31 54  1  0  0  0  0
 31 66  1  0  0  0  0
 31 67  2  0  0  0  0
 32 73  1  0  0  0  0
 32 77  2  0  0  0  0
 33 50  1  0  0  0  0
 33 74  1  0  0  0  0
 33 78  2  0  0  0  0
 34 62  1  0  0  0  0
 34 69  1  0  0  0  0
 34 79  2  0  0  0  0
 35 63  1  0  0  0  0
 35 75  1  0  0  0  0
 35 80  2  0  0  0  0
 36 70  1  0  0  0  0
 36 71  1  0  0  0  0
 36 81  2  0  0  0  0
 37 40  1  0  0  0  0
 38 50  1  0  0  0  0
 39 69  1  0  0  0  0
 40 42  1  0  0  0  0
 41 43  1  0  0  0  0
 41 45  1  0  0  0  0
 42 49  1  0  0  0  0
 43 51  1  0  0  0  0
 44 46  1  0  0  0  0
 44 52  1  0  0  0  0
 45 70  1  0  0  0  0
 46 71  1  0  0  0  0
 47 51  1  0  0  0  0
 47 70  1  0  0  0  0
 48 52  1  0  0  0  0
 48 71  1  0  0  0  0
 49 74  1  0  0  0  0
 50 69  1  0  0  0  0
 51 68  1  0  0  0  0
 52 84  1  0  0  0  0
 55 63  1  0  0  0  0
 56 64  1  0  0  0  0
 57 64  1  0  0  0  0
 58 64  1  0  0  0  0
 59 76  1  0  0  0  0
 60 61  1  0  0  0  0
 61 83  1  0  0  0  0
 62 64  1  0  0  0  0
 62 75  1  0  0  0  0
 63 76  1  0  0  0  0
 65 68  1  0  0  0  0
M  CHG  1  76   1
M  ISO  4  36 100  61 101  71 100  83 101
M  END
> <Batch ID>
0177

> <Smiles>
CNC(C)C(=O)NC(C(=O)N1Cc2cc([101O:1][101CH2:1]Cc3c(C)nc(C)nc3OC3CC[100N:0]([100C:0](=O)N4CCCC(n5nc(-c6ccc(Oc7ccc(F)cc7F)cc6)c(C(N)=O)c5N)C4)C3)ccc2CC1C(=O)NC1CCCc2ccccc21)C(C)(C)C

> <Shape>
0.216

> <Color>
0.062

> <Negative vol penalty>
0.000

$$$$

  -OEChem-04052322523D

 83 92  0     1  0  0  0  0  0999 V2000
  -28.7627  -11.2208   20.7489 C   0  0  0  0  0  0  0  0  0  0  0  0
  -28.9683  -12.5255   20.3120 C   0  0  0  0  0  0  0  0  0  0  0  0
  -19.5131  -26.7494   21.4367 C   0  0  0  0  0  0  0  0  0  0  0  0
  -20.4237  -28.4634   22.8755 C   0  0  0  0  0  0  0  0  0  0  0  0
  -27.4651  -10.7442   20.9310 C   0  0  0  0  0  0  0  0  0  0  0  0
  -27.8763  -13.3541   20.0559 C   0  0  0  0  0  0  0  0  0  0  0  0
  -28.4759  -18.0047   21.9682 C   0  0  0  0  0  0  0  0  0  0  0  0
  -18.3305  -26.7569   22.1761 C   0  0  0  0  0  0  0  0  0  0  0  0
  -19.2410  -28.4710   23.6150 C   0  0  0  0  0  0  0  0  0  0  0  0
  -29.2980  -18.8822   21.2626 C   0  0  0  0  0  0  0  0  0  0  0  0
  -16.1265  -29.7482   23.3161 C   0  0  0  0  0  0  0  0  0  0  0  0
  -15.5813  -30.9876   23.6510 C   0  0  0  0  0  0  0  0  0  0  0  0
  -30.2119  -22.2718   16.8631 C   0  0  0  0  0  0  0  0  0  0  0  0
  -27.3476  -19.9291   20.3039 C   0  0  0  0  0  0  0  0  0  0  0  0
  -30.6259  -23.4659   18.9094 C   0  0  0  0  0  0  0  0  0  0  0  0
  -15.7802  -30.4413   25.9961 C   0  0  0  0  0  0  0  0  0  0  0  0
  -31.1851  -23.0596   16.2697 C   0  0  0  0  0  0  0  0  0  0  0  0
  -20.5598  -27.6027   21.7864 C   0  0  0  0  0  0  0  0  0  0  0  0
  -22.0849  -28.3811   19.8954 C   0  0  0  0  0  0  0  0  0  0  0  0
  -26.3569  -11.5704   20.6863 C   0  0  0  0  0  0  0  0  0  0  0  0
  -27.0814  -18.0758   21.8383 C   0  0  0  0  0  0  0  0  0  0  0  0
  -26.5627  -12.8876   20.2336 C   0  0  0  0  0  0  0  0  0  0  0  0
  -26.5099  -19.0530   21.0109 C   0  0  0  0  0  0  0  0  0  0  0  0
  -29.9329  -22.4852   18.2085 C   0  0  0  0  0  0  0  0  0  0  0  0
  -18.1944  -27.6177   23.2653 C   0  0  0  0  0  0  0  0  0  0  0  0
  -28.7340  -19.8427   20.4281 C   0  0  0  0  0  0  0  0  0  0  0  0
  -16.4985  -28.8552   24.3211 C   0  0  0  0  0  0  0  0  0  0  0  0
  -15.4082  -31.3341   24.9910 C   0  0  0  0  0  0  0  0  0  0  0  0
  -16.3254  -29.2018   25.6611 C   0  0  0  0  0  0  0  0  0  0  0  0
  -21.7819  -27.5950   21.0232 C   0  0  0  0  0  0  0  0  0  0  0  0
  -31.5807  -24.2001   18.2244 C   0  0  0  0  0  0  0  0  0  0  0  0
  -23.3572  -28.0014   19.5439 C   0  0  0  0  0  0  0  0  0  0  0  0
  -21.2875  -29.3665   19.2254 C   0  0  0  0  0  0  0  0  0  0  0  0
  -24.8219  -16.0979   20.7964 C   0  0  0  0  0  0  0  0  0  0  0  0
  -22.8349  -18.4279   21.8665 C   0  0  0  0  0  0  0  0  0  0  0  0
  -22.3858  -21.7195   22.6478 C   0  0  0  0  0  0  0  0  0  0  0  0
  -28.5381  -26.8900   20.9110 C   0  0  0  0  0  0  0  0  0  0  0  0
  -24.9724  -10.9957   20.8520 C   0  0  0  0  0  0  0  0  0  0  0  0
  -26.2076  -17.1394   22.6269 C   0  0  0  0  0  0  0  0  0  0  0  0
  -25.0179  -19.1841   20.8525 C   0  0  0  0  0  0  0  0  0  0  0  0
  -23.8765  -12.0564   20.9178 C   0  0  0  0  0  0  0  0  0  0  0  0
  -26.2019  -24.1358   21.1426 C   0  0  0  0  0  0  0  0  0  0  0  0
  -24.0672  -13.0904   19.8127 C   0  0  0  0  0  0  0  0  0  0  0  0
  -24.8610  -24.8647   21.0378 C   0  0  0  0  0  0  0  0  0  0  0  0
  -33.0738  -26.4104   20.9463 C   0  0  0  0  0  0  0  0  0  0  0  0
  -31.9017  -27.0873   21.6890 C   0  0  0  0  0  0  0  0  0  0  0  0
  -27.2123  -24.9497   21.9456 C   0  0  0  0  0  0  0  0  0  0  0  0
  -26.1006  -27.0602   21.3259 C   0  0  0  0  0  0  0  0  0  0  0  0
  -25.4043  -13.8248   19.9690 C   0  0  1  0  0  0  0  0  0  0  0  0
  -24.8177  -16.9672   22.0219 C   0  0  1  0  0  0  0  0  0  0  0  0
  -25.0429  -26.2988   20.5064 C   0  0  2  0  0  0  0  0  0  0  0  0
  -32.0288  -25.4581   20.3254 C   0  0  1  0  0  0  0  0  0  0  0  0
  -30.9820  -26.5768   20.5532 C   0  0  1  0  0  0  0  0  0  0  0  0
  -20.6424  -23.3311   23.4605 C   0  0  0  0  0  0  0  0  0  0  0  0
  -21.5499  -18.4296   19.0991 C   0  0  0  0  0  0  0  0  0  0  0  0
  -20.5123  -20.6383   19.6587 C   0  0  0  0  0  0  0  0  0  0  0  0
  -19.9347  -18.6154   20.9993 C   0  0  0  0  0  0  0  0  0  0  0  0
  -23.9551  -22.3758   25.0697 C   0  0  0  0  0  0  0  0  0  0  0  0
  -28.8891  -21.6591   18.9008 C   0  0  0  0  0  0  0  0  0  1  0  0
  -22.2185  -19.6673   21.2640 C   0  0  1  0  0  0  0  0  0  0  0  0
  -21.7692  -22.3917   23.8612 C   0  0  2  0  0  0  0  0  0  0  0  0
  -21.0820  -19.3342   20.2566 C   0  0  0  0  0  0  0  0  0  0  0  0
  -31.8792  -24.0216   16.9180 N   0  0  0  0  0  0  0  0  0  0  0  0
  -22.7813  -26.7775   21.3654 N   0  0  0  0  0  0  0  0  0  0  0  0
  -23.7245  -27.0478   20.4472 N   0  0  0  0  0  0  0  0  0  0  0  0
  -24.2059  -18.2414   21.6395 N   0  0  0  0  0  0  0  0  0  0  0  0
  -27.3525  -26.2977   21.3769 N   0  0  0  0  0  0  0  0  0  0  0  0
  -24.1863  -28.3935   18.5533 N   0  0  0  0  0  0  0  0  0  0  0  0
  -20.0030  -29.6342   19.7181 N   0  0  0  0  0  0  0  0  0  0  0  0
  -32.2773  -25.1971   18.9518 N   0  0  0  0  0  0  0  0  0  0  0  0
  -25.3130  -14.8243   21.0116 N   0  0  0  0  0  0  0  0  0  0  0  0
  -21.7977  -20.5003   22.3854 N   0  0  0  0  0  0  0  0  0  0  0  0
  -29.6803  -26.1038   21.0008 N   0  0  0  0  0  0  0  0  0  0  0  0
  -22.7989  -23.1795   24.5961 N   0  3  0  0  0  0  0  0  0  0  0  0
  -21.6955  -29.9793   18.2098 O   0  0  0  0  0  0  0  0  0  0  0  0
  -24.4086  -16.5487   19.7344 O   0  0  0  0  0  0  0  0  0  0  0  0
  -22.1276  -17.6575   22.5206 O   0  0  0  0  0  0  0  0  0  0  0  0
  -23.2955  -22.2271   21.9956 O   0  0  0  0  0  0  0  0  0  0  0  0
  -28.5753  -28.0336   20.4443 O   0  0  0  0  0  0  0  0  0  0  0  0
  -17.0404  -27.6255   23.9869 O   0  0  0  0  0  0  0  0  0  0  0  0
  -29.5342  -20.7000   19.7377 O   0  0  0  0  0  0  0  0  0  1  0  0
  -14.8860  -32.5250   25.3126 F   0  0  0  0  0  0  0  0  0  0  0  0
  -16.6819  -28.3486   26.6310 F   0  0  0  0  0  0  0  0  0  0  0  0
  1  2  1  0  0  0  0
  1  5  2  0  0  0  0
  2  6  2  0  0  0  0
  3  8  2  0  0  0  0
  3 18  1  0  0  0  0
  4  9  1  0  0  0  0
  4 18  2  0  0  0  0
  5 20  1  0  0  0  0
  6 22  1  0  0  0  0
  7 10  2  0  0  0  0
  7 21  1  0  0  0  0
  8 25  1  0  0  0  0
  9 25  2  0  0  0  0
 10 26  1  0  0  0  0
 11 12  2  0  0  0  0
 11 27  1  0  0  0  0
 12 28  1  0  0  0  0
 13 17  2  0  0  0  0
 13 24  1  0  0  0  0
 14 23  1  0  0  0  0
 14 26  2  0  0  0  0
 15 24  2  0  0  0  0
 15 31  1  0  0  0  0
 16 28  2  0  0  0  0
 16 29  1  0  0  0  0
 17 63  1  0  0  0  0
 18 30  1  0  0  0  0
 19 30  1  0  0  0  0
 19 32  2  0  0  0  0
 19 33  1  0  0  0  0
 20 22  2  0  0  0  0
 20 38  1  0  0  0  0
 21 23  2  0  0  0  0
 21 39  1  0  0  0  0
 22 49  1  0  0  0  0
 23 40  1  0  0  0  0
 24 59  1  0  0  0  0
 25 80  1  0  0  0  0
 26 81  1  0  0  0  0
 27 29  2  0  0  0  0
 27 80  1  0  0  0  0
 28 82  1  0  0  0  0
 29 83  1  0  0  0  0
 30 64  2  0  0  0  0
 31 63  2  0  0  0  0
 31 70  1  0  0  0  0
 32 65  1  0  0  0  0
 32 68  1  0  0  0  0
 33 69  1  0  0  0  0
 33 75  2  0  0  0  0
 34 50  1  0  0  0  0
 34 71  1  0  0  0  0
 34 76  2  0  0  0  0
 35 60  1  0  0  0  0
 35 66  1  0  0  0  0
 35 77  2  0  0  0  0
 36 61  1  0  0  0  0
 36 72  1  0  0  0  0
 36 78  2  0  0  0  0
 37 67  1  0  0  0  0
 37 73  1  0  0  0  0
 37 79  2  0  0  0  0
 38 41  1  0  0  0  0
 39 50  1  0  0  0  0
 40 66  1  0  0  0  0
 41 43  1  0  0  0  0
 42 44  1  0  0  0  0
 42 47  1  0  0  0  0
 43 49  1  0  0  0  0
 44 51  1  0  0  0  0
 45 46  1  0  0  0  0
 45 52  1  0  0  0  0
 46 53  1  0  0  0  0
 47 67  1  0  0  0  0
 48 51  1  0  0  0  0
 48 67  1  0  0  0  0
 49 71  1  0  0  0  0
 50 66  1  0  0  0  0
 51 65  1  0  0  0  0
 52 53  1  0  0  0  0
 52 70  1  0  0  0  0
 53 73  1  0  0  0  0
 54 61  1  0  0  0  0
 55 62  1  0  0  0  0
 56 62  1  0  0  0  0
 57 62  1  0  0  0  0
 58 74  1  0  0  0  0
 59 81  1  0  0  0  0
 60 62  1  0  0  0  0
 60 72  1  0  0  0  0
 61 74  1  0  0  0  0
 64 65  1  0  0  0  0
M  CHG  1  74   1
M  ISO  4  37 100  59 101  73 100  81 101
M  END
> <Batch ID>
0177

> <Smiles>
CNC(C)C(=O)NC(C(=O)N1Cc2cc([101O:1][101CH2:1]c3ccnc(NC4CCC4[100NH:0][100C:0](=O)N4CCCC(n5nc(-c6ccc(Oc7ccc(F)cc7F)cc6)c(C(N)=O)c5N)C4)c3)ccc2CC1C(=O)NC1CCCc2ccccc21)C(C)(C)C

> <Shape>
0.221

> <Color>
0.067

> <Negative vol penalty>
0.000

$$$$

  -OEChem-04052322523D

 86 95  0     1  0  0  0  0  0999 V2000
  -27.8741  -34.8037   26.3268 C   0  0  0  0  0  0  0  0  0  0  0  0
  -28.2274  -33.6584   25.6206 C   0  0  0  0  0  0  0  0  0  0  0  0
  -24.0740   -8.6311   20.2144 C   0  0  0  0  0  0  0  0  0  0  0  0
  -22.8694  -10.5914   20.9513 C   0  0  0  0  0  0  0  0  0  0  0  0
  -26.5456  -35.0122   26.6950 C   0  0  0  0  0  0  0  0  0  0  0  0
  -27.2525  -32.7203   25.2830 C   0  0  0  0  0  0  0  0  0  0  0  0
  -27.0302  -29.3069   20.2031 C   0  0  0  0  0  0  0  0  0  0  0  0
  -23.1224   -7.8159   20.8271 C   0  0  0  0  0  0  0  0  0  0  0  0
  -21.9177   -9.7763   21.5640 C   0  0  0  0  0  0  0  0  0  0  0  0
  -27.4055  -27.9900   19.9407 C   0  0  0  0  0  0  0  0  0  0  0  0
  -22.3988   -6.7474   23.9510 C   0  0  0  0  0  0  0  0  0  0  0  0
  -22.8599   -5.6704   24.7080 C   0  0  0  0  0  0  0  0  0  0  0  0
  -25.1299  -27.2758   20.3019 C   0  0  0  0  0  0  0  0  0  0  0  0
  -21.6665   -4.1446   23.2640 C   0  0  0  0  0  0  0  0  0  0  0  0
  -23.9476  -10.0189   20.2765 C   0  0  0  0  0  0  0  0  0  0  0  0
  -24.9111  -11.3464   18.3228 C   0  0  0  0  0  0  0  0  0  0  0  0
  -25.5523  -34.0809   26.3534 C   0  0  0  0  0  0  0  0  0  0  0  0
  -25.7018  -29.6171   20.5281 C   0  0  0  0  0  0  0  0  0  0  0  0
  -25.9096  -32.9159   25.6481 C   0  0  0  0  0  0  0  0  0  0  0  0
  -24.7397  -28.5977   20.5655 C   0  0  0  0  0  0  0  0  0  0  0  0
  -22.0442   -8.3885   21.5018 C   0  0  0  0  0  0  0  0  0  0  0  0
  -26.4559  -26.9739   19.9929 C   0  0  0  0  0  0  0  0  0  0  0  0
  -21.5715   -6.5231   22.8506 C   0  0  0  0  0  0  0  0  0  0  0  0
  -22.4938   -4.3690   24.3644 C   0  0  0  0  0  0  0  0  0  0  0  0
  -21.2054   -5.2217   22.5070 C   0  0  0  0  0  0  0  0  0  0  0  0
  -24.9307  -10.8614   19.6443 C   0  0  0  0  0  0  0  0  0  0  0  0
  -29.6410  -23.4239   19.1156 C   0  0  0  0  0  0  0  0  0  0  0  0
  -28.3850  -23.9886   19.1482 C   0  0  0  0  0  0  0  0  0  0  0  0
  -27.4564  -21.9496   18.6899 C   0  0  0  0  0  0  0  0  0  0  0  0
  -28.7124  -21.3850   18.6566 C   0  0  0  0  0  0  0  0  0  0  0  0
  -26.0586  -12.0934   18.2142 C   0  0  0  0  0  0  0  0  0  0  0  0
  -23.9423  -11.1402   17.2862 C   0  0  0  0  0  0  0  0  0  0  0  0
  -24.2457  -30.8675   23.0619 C   0  0  0  0  0  0  0  0  0  0  0  0
  -21.6443  -30.7730   21.1265 C   0  0  0  0  0  0  0  0  0  0  0  0
  -20.0867  -29.3714   18.4327 C   0  0  0  0  0  0  0  0  0  0  0  0
  -29.6250  -15.8622   20.2690 C   0  0  0  0  0  0  0  0  0  0  0  0
  -24.1374  -34.3266   26.8143 C   0  0  0  0  0  0  0  0  0  0  0  0
  -25.3076  -31.0462   20.7823 C   0  0  0  0  0  0  0  0  0  0  0  0
  -23.2964  -28.8810   20.8896 C   0  0  0  0  0  0  0  0  0  0  0  0
  -23.1035  -33.4666   26.0921 C   0  0  0  0  0  0  0  0  0  0  0  0
  -30.0389  -12.4830   21.3113 C   0  0  0  0  0  0  0  0  0  0  0  0
  -23.5669  -32.0146   26.0293 C   0  0  0  0  0  0  0  0  0  0  0  0
  -28.7431  -11.8019   20.8672 C   0  0  0  0  0  0  0  0  0  0  0  0
  -29.7904  -13.9124   21.7880 C   0  0  0  0  0  0  0  0  0  0  0  0
  -27.7722  -14.0873   20.3845 C   0  0  0  0  0  0  0  0  0  0  0  0
  -28.8400  -18.9990   19.4336 C   0  0  0  0  0  0  0  0  0  0  0  0
  -28.9908  -19.4666   17.0586 C   0  0  0  0  0  0  0  0  0  0  0  0
  -24.8767  -31.8871   25.2420 C   0  0  1  0  0  0  0  0  0  0  0  0
  -24.0309  -31.1762   21.6072 C   0  0  1  0  0  0  0  0  0  0  0  0
  -27.9799  -12.6627   19.8426 C   0  0  2  0  0  0  0  0  0  0  0  0
  -29.3217  -17.7506   18.6875 C   0  0  2  0  0  0  0  0  0  0  0  0
  -28.7631  -17.9746   17.2900 C   0  0  2  0  0  0  0  0  0  0  0  0
  -30.8661  -24.2390   19.3523 C   0  0  0  0  0  0  0  0  0  0  0  0
  -26.2249  -21.1419   18.4547 C   0  0  0  0  0  0  0  0  0  0  0  0
  -17.9522  -29.4752   17.1173 C   0  0  0  0  0  0  0  0  0  0  0  0
  -20.2084  -29.2408   23.3402 C   0  0  0  0  0  0  0  0  0  0  0  0
  -18.4850  -28.5610   21.6563 C   0  0  0  0  0  0  0  0  0  0  0  0
  -18.8139  -30.9738   22.1974 C   0  0  0  0  0  0  0  0  0  0  0  0
  -21.5128  -30.1515   15.9595 C   0  0  0  0  0  0  0  0  0  0  0  0
  -28.1914  -25.4508   19.4234 C   0  0  0  0  0  0  0  0  0  1  0  0
  -20.5641  -29.7591   20.8361 C   0  0  1  0  0  0  0  0  0  0  0  0
  -19.3764  -29.9931   17.2438 C   0  0  2  0  0  0  0  0  0  0  0  0
  -19.5453  -29.6278   22.0033 C   0  0  0  0  0  0  0  0  0  0  0  0
  -26.0054  -11.2662   20.3262 N   0  0  0  0  0  0  0  0  0  0  0  0
  -27.2701  -23.2616   18.9360 N   0  0  0  0  0  0  0  0  0  0  0  0
  -29.8273  -22.1119   18.8692 N   0  0  0  0  0  0  0  0  0  0  0  0
  -26.6720  -12.0133   19.4297 N   0  0  0  0  0  0  0  0  0  0  0  0
  -28.8384  -20.0367   18.3991 N   0  0  3  0  0  0  0  0  0  0  0  0
  -22.9617  -30.2932   21.1367 N   0  0  0  0  0  0  0  0  0  0  0  0
  -29.0645  -14.6757   20.7700 N   0  0  0  0  0  0  0  0  0  0  0  0
  -26.5927  -12.8043   17.1984 N   0  0  0  0  0  0  0  0  0  0  0  0
  -22.8224  -10.3456   17.5668 N   0  0  0  0  0  0  0  0  0  0  0  0
  -24.6206  -31.9606   23.8196 N   0  0  0  0  0  0  0  0  0  0  0  0
  -19.9677  -30.1512   19.5637 N   0  0  0  0  0  0  0  0  0  0  0  0
  -28.8747  -16.5206   19.3024 N   0  0  0  0  0  0  0  0  0  0  0  0
  -29.4723  -17.1632   16.2849 N   0  3  0  0  0  0  0  0  0  0  0  0
  -20.1049  -29.6781   15.9825 N   0  3  0  0  0  0  0  0  0  0  0  0
  -24.0743  -11.6321   16.1399 O   0  0  0  0  0  0  0  0  0  0  0  0
  -24.0820  -29.7227   23.4672 O   0  0  0  0  0  0  0  0  0  0  0  0
  -21.3313  -31.9488   21.3295 O   0  0  0  0  0  0  0  0  0  0  0  0
  -20.6840  -28.2994   18.3658 O   0  0  0  0  0  0  0  0  0  0  0  0
  -30.7159  -16.2994   20.6507 O   0  0  0  0  0  0  0  0  0  0  0  0
  -21.1152   -7.5934   22.0996 O   0  0  0  0  0  0  0  0  0  0  0  0
  -26.8197  -25.6876   19.7379 O   0  0  0  0  0  0  0  0  0  1  0  0
  -22.9379   -3.3347   25.0905 F   0  0  0  0  0  0  0  0  0  0  0  0
  -20.4118   -4.9999   21.4502 F   0  0  0  0  0  0  0  0  0  0  0  0
  1  2  1  0  0  0  0
  1  5  2  0  0  0  0
  2  6  2  0  0  0  0
  3  8  2  0  0  0  0
  3 15  1  0  0  0  0
  4  9  1  0  0  0  0
  4 15  2  0  0  0  0
  5 17  1  0  0  0  0
  6 19  1  0  0  0  0
  7 10  2  0  0  0  0
  7 18  1  0  0  0  0
  8 21  1  0  0  0  0
  9 21  2  0  0  0  0
 10 22  1  0  0  0  0
 11 12  2  0  0  0  0
 11 23  1  0  0  0  0
 12 24  1  0  0  0  0
 13 20  1  0  0  0  0
 13 22  2  0  0  0  0
 14 24  2  0  0  0  0
 14 25  1  0  0  0  0
 15 26  1  0  0  0  0
 16 26  1  0  0  0  0
 16 31  2  0  0  0  0
 16 32  1  0  0  0  0
 17 19  2  0  0  0  0
 17 37  1  0  0  0  0
 18 20  2  0  0  0  0
 18 38  1  0  0  0  0
 19 48  1  0  0  0  0
 20 39  1  0  0  0  0
 21 83  1  0  0  0  0
 22 84  1  0  0  0  0
 23 25  2  0  0  0  0
 23 83  1  0  0  0  0
 24 85  1  0  0  0  0
 25 86  1  0  0  0  0
 26 64  2  0  0  0  0
 27 28  2  0  0  0  0
 27 53  1  0  0  0  0
 27 66  1  0  0  0  0
 28 60  1  0  0  0  0
 28 65  1  0  0  0  0
 29 30  1  0  0  0  0
 29 54  1  0  0  0  0
 29 65  2  0  0  0  0
 30 66  2  0  0  0  0
 30 68  1  0  0  0  0
 31 67  1  0  0  0  0
 31 71  1  0  0  0  0
 32 72  1  0  0  0  0
 32 78  2  0  0  0  0
 33 49  1  0  0  0  0
 33 73  1  0  0  0  0
 33 79  2  0  0  0  0
 34 61  1  0  0  0  0
 34 69  1  0  0  0  0
 34 80  2  0  0  0  0
 35 62  1  0  0  0  0
 35 74  1  0  0  0  0
 35 81  2  0  0  0  0
 36 70  1  0  0  0  0
 36 75  1  0  0  0  0
 36 82  2  0  0  0  0
 37 40  1  0  0  0  0
 38 49  1  0  0  0  0
 39 69  1  0  0  0  0
 40 42  1  0  0  0  0
 41 43  1  0  0  0  0
 41 44  1  0  0  0  0
 42 48  1  0  0  0  0
 43 50  1  0  0  0  0
 44 70  1  0  0  0  0
 45 50  1  0  0  0  0
 45 70  1  0  0  0  0
 46 51  1  0  0  0  0
 46 68  1  0  0  0  0
 47 52  1  0  0  0  0
 47 68  1  0  0  0  0
 48 73  1  0  0  0  0
 49 69  1  0  0  0  0
 50 67  1  0  0  0  0
 51 52  1  0  0  0  0
 51 75  1  0  0  0  0
 52 76  1  0  0  0  0
 55 62  1  0  0  0  0
 56 63  1  0  0  0  0
 57 63  1  0  0  0  0
 58 63  1  0  0  0  0
 59 77  1  0  0  0  0
 60 84  1  0  0  0  0
 61 63  1  0  0  0  0
 61 74  1  0  0  0  0
 62 77  1  0  0  0  0
 64 67  1  0  0  0  0
M  CHG  2  76   1  77   1
M  ISO  4  36 100  60 101  75 100  84 101
M  END
> <Batch ID>
0177

> <Smiles>
CNC(C)C(=O)NC(C(=O)N1Cc2cc([101O:1][101CH2:1]c3nc(C)c(N4CC(N)C([100NH:0][100C:0](=O)N5CCCC(n6nc(-c7ccc(Oc8ccc(F)cc8F)cc7)c(C(N)=O)c6N)C5)C4)nc3C)ccc2CC1C(=O)NC1CCCc2ccccc21)C(C)(C)C

> <Shape>
0.313

> <Color>
0.102

> <Negative vol penalty>
0.000

$$$$

  -OEChem-04052322523D

 85 94  0     1  0  0  0  0  0999 V2000
  -16.2433  -29.5962   23.2475 C   0  0  0  0  0  0  0  0  0  0  0  0
  -17.0241  -28.4855   22.9442 C   0  0  0  0  0  0  0  0  0  0  0  0
  -22.7320  -11.2695   19.4867 C   0  0  0  0  0  0  0  0  0  0  0  0
  -23.2138  -10.0888   21.5388 C   0  0  0  0  0  0  0  0  0  0  0  0
  -16.8508  -30.8239   23.5075 C   0  0  0  0  0  0  0  0  0  0  0  0
  -18.4130  -28.6021   22.8997 C   0  0  0  0  0  0  0  0  0  0  0  0
  -22.5179  -24.3621   24.5360 C   0  0  0  0  0  0  0  0  0  0  0  0
  -21.6625  -10.4081   19.2422 C   0  0  0  0  0  0  0  0  0  0  0  0
  -22.1442   -9.2275   21.2943 C   0  0  0  0  0  0  0  0  0  0  0  0
  -23.2612  -23.4421   23.7978 C   0  0  0  0  0  0  0  0  0  0  0  0
  -21.5125   -6.5260   19.3620 C   0  0  0  0  0  0  0  0  0  0  0  0
  -21.7232   -5.1606   19.5537 C   0  0  0  0  0  0  0  0  0  0  0  0
  -25.1239  -24.9748   23.7747 C   0  0  0  0  0  0  0  0  0  0  0  0
  -26.0187  -21.0738   20.2604 C   0  0  0  0  0  0  0  0  0  0  0  0
  -19.9754   -5.1252   21.2214 C   0  0  0  0  0  0  0  0  0  0  0  0
  -23.5077  -11.1098   20.6350 C   0  0  0  0  0  0  0  0  0  0  0  0
  -24.5807  -13.2154   21.5956 C   0  0  0  0  0  0  0  0  0  0  0  0
  -18.2482  -30.9534   23.4757 C   0  0  0  0  0  0  0  0  0  0  0  0
  -23.0691  -25.6018   24.8903 C   0  0  0  0  0  0  0  0  0  0  0  0
  -19.0396  -29.8331   23.1582 C   0  0  0  0  0  0  0  0  0  0  0  0
  -24.3863  -25.9077   24.5196 C   0  0  0  0  0  0  0  0  0  0  0  0
  -26.9499  -20.3043   19.5719 C   0  0  0  0  0  0  0  0  0  0  0  0
  -25.7162  -20.7704   21.5832 C   0  0  0  0  0  0  0  0  0  0  0  0
  -21.3686   -9.3871   20.1460 C   0  0  0  0  0  0  0  0  0  0  0  0
  -24.5634  -23.7496   23.4146 C   0  0  0  0  0  0  0  0  0  0  0  0
  -20.5334   -7.1911   20.1000 C   0  0  0  0  0  0  0  0  0  0  0  0
  -20.9547   -4.4601   20.4834 C   0  0  0  0  0  0  0  0  0  0  0  0
  -19.7648   -6.4906   21.0296 C   0  0  0  0  0  0  0  0  0  0  0  0
  -24.6130  -11.9989   20.8879 C   0  0  0  0  0  0  0  0  0  0  0  0
  -27.5458  -19.2505   20.2460 C   0  0  0  0  0  0  0  0  0  0  0  0
  -26.3671  -19.6957   22.1671 C   0  0  0  0  0  0  0  0  0  0  0  0
  -25.8758  -13.6710   21.5546 C   0  0  0  0  0  0  0  0  0  0  0  0
  -23.4785  -13.8747   22.2331 C   0  0  0  0  0  0  0  0  0  0  0  0
  -22.3558  -28.6353   24.2632 C   0  0  0  0  0  0  0  0  0  0  0  0
  -24.7347  -29.2269   26.3877 C   0  0  0  0  0  0  0  0  0  0  0  0
  -27.5709  -28.1345   27.9398 C   0  0  0  0  0  0  0  0  0  0  0  0
  -30.6096  -14.6264   18.9870 C   0  0  0  0  0  0  0  0  0  0  0  0
  -18.8570  -32.3120   23.7173 C   0  0  0  0  0  0  0  0  0  0  0  0
  -22.2634  -26.5724   25.7096 C   0  0  0  0  0  0  0  0  0  0  0  0
  -25.0314  -27.2167   24.8922 C   0  0  0  0  0  0  0  0  0  0  0  0
  -20.3529  -32.2643   24.0178 C   0  0  0  0  0  0  0  0  0  0  0  0
  -30.1408  -11.3876   20.1012 C   0  0  0  0  0  0  0  0  0  0  0  0
  -21.0682  -31.3538   23.0248 C   0  0  0  0  0  0  0  0  0  0  0  0
  -28.6574  -11.3425   20.4683 C   0  0  0  0  0  0  0  0  0  0  0  0
  -29.6425  -17.8544   20.5169 C   0  0  0  0  0  0  0  0  0  0  0  0
  -27.9076  -17.2071   18.7930 C   0  0  0  0  0  0  0  0  0  0  0  0
  -30.3608  -12.1683   18.8104 C   0  0  0  0  0  0  0  0  0  0  0  0
  -30.6507  -16.9543   19.8064 C   0  0  0  0  0  0  0  0  0  0  0  0
  -28.9545  -16.3237   18.1209 C   0  0  0  0  0  0  0  0  0  0  0  0
  -28.3361  -13.5296   19.2122 C   0  0  0  0  0  0  0  0  0  0  0  0
  -20.5504  -29.9139   23.1246 C   0  0  1  0  0  0  0  0  0  0  0  0
  -28.5685  -18.3751   19.5462 C   0  0  0  0  0  0  0  0  0  0  0  0
  -22.7460  -28.0133   25.5742 C   0  0  1  0  0  0  0  0  0  0  0  0
  -28.0579  -12.7590   20.5183 C   0  0  1  0  0  0  0  0  0  0  0  0
  -27.2786  -20.6243   18.1547 C   0  0  0  0  0  0  0  0  0  0  0  0
  -26.0821  -19.3250   23.5858 C   0  0  0  0  0  0  0  0  0  0  0  0
  -29.3116  -28.8550   29.5976 C   0  0  0  0  0  0  0  0  0  0  0  0
  -26.0227  -30.9971   24.2623 C   0  0  0  0  0  0  0  0  0  0  0  0
  -28.1504  -30.9100   25.5788 C   0  0  0  0  0  0  0  0  0  0  0  0
  -26.1052  -31.9254   26.5830 C   0  0  0  0  0  0  0  0  0  0  0  0
  -26.8887  -25.9278   29.7902 C   0  0  0  0  0  0  0  0  0  0  0  0
  -24.7192  -21.5908   22.3263 C   0  0  0  0  0  0  0  0  0  1  0  0
  -26.2293  -29.4169   26.2936 C   0  0  1  0  0  0  0  0  0  0  0  0
  -27.9851  -28.1379   29.4002 C   0  0  2  0  0  0  0  0  0  0  0  0
  -26.6144  -30.7884   25.6706 C   0  0  0  0  0  0  0  0  0  0  0  0
  -25.8320  -11.7006   20.4306 N   0  0  0  0  0  0  0  0  0  0  0  0
  -27.2775  -18.9252   21.5304 N   0  0  0  0  0  0  0  0  0  0  0  0
  -26.5776  -12.7362   20.8519 N   0  0  0  0  0  0  0  0  0  0  0  0
  -24.2008  -28.1352   25.6884 N   0  0  0  0  0  0  0  0  0  0  0  0
  -29.7718  -13.5045   18.8957 N   0  0  0  0  0  0  0  0  0  0  0  0
  -29.9825  -15.8804   19.0725 N   0  0  0  0  0  0  0  0  0  0  0  0
  -26.4712  -14.7760   22.0514 N   0  0  0  0  0  0  0  0  0  0  0  0
  -22.2160  -13.2685   22.1799 N   0  0  0  0  0  0  0  0  0  0  0  0
  -21.1190  -29.2512   24.2788 N   0  0  0  0  0  0  0  0  0  0  0  0
  -26.7535  -29.2031   27.6382 N   0  0  0  0  0  0  0  0  0  0  0  0
  -28.1265  -26.7417   29.9018 N   0  3  0  0  0  0  0  0  0  0  0  0
  -23.6062  -14.9770   22.8181 O   0  0  0  0  0  0  0  0  0  0  0  0
  -23.1210  -28.5631   23.3088 O   0  0  0  0  0  0  0  0  0  0  0  0
  -24.0664  -30.0139   27.0629 O   0  0  0  0  0  0  0  0  0  0  0  0
  -27.9390  -27.2722   27.1450 O   0  0  0  0  0  0  0  0  0  0  0  0
  -31.8420  -14.5171   18.9975 O   0  0  0  0  0  0  0  0  0  0  0  0
  -20.3249   -8.5466   19.9079 O   0  0  0  0  0  0  0  0  0  0  0  0
  -25.3031  -22.8388   22.6816 O   0  0  0  0  0  0  0  0  0  1  0  0
  -21.1560   -3.1486   20.6664 F   0  0  0  0  0  0  0  0  0  0  0  0
  -18.8218   -7.1239   21.7407 F   0  0  0  0  0  0  0  0  0  0  0  0
  1  2  1  0  0  0  0
  1  5  2  0  0  0  0
  2  6  2  0  0  0  0
  3  8  2  0  0  0  0
  3 16  1  0  0  0  0
  4  9  1  0  0  0  0
  4 16  2  0  0  0  0
  5 18  1  0  0  0  0
  6 20  1  0  0  0  0
  7 10  2  0  0  0  0
  7 19  1  0  0  0  0
  8 24  1  0  0  0  0
  9 24  2  0  0  0  0
 10 25  1  0  0  0  0
 11 12  2  0  0  0  0
 11 26  1  0  0  0  0
 12 27  1  0  0  0  0
 13 21  1  0  0  0  0
 13 25  2  0  0  0  0
 14 22  2  0  0  0  0
 14 23  1  0  0  0  0
 15 27  2  0  0  0  0
 15 28  1  0  0  0  0
 16 29  1  0  0  0  0
 17 29  1  0  0  0  0
 17 32  2  0  0  0  0
 17 33  1  0  0  0  0
 18 20  2  0  0  0  0
 18 38  1  0  0  0  0
 19 21  2  0  0  0  0
 19 39  1  0  0  0  0
 20 51  1  0  0  0  0
 21 40  1  0  0  0  0
 22 30  1  0  0  0  0
 22 55  1  0  0  0  0
 23 31  2  0  0  0  0
 23 62  1  0  0  0  0
 24 82  1  0  0  0  0
 25 83  1  0  0  0  0
 26 28  2  0  0  0  0
 26 82  1  0  0  0  0
 27 84  1  0  0  0  0
 28 85  1  0  0  0  0
 29 66  2  0  0  0  0
 30 52  1  0  0  0  0
 30 67  2  0  0  0  0
 31 56  1  0  0  0  0
 31 67  1  0  0  0  0
 32 68  1  0  0  0  0
 32 72  1  0  0  0  0
 33 73  1  0  0  0  0
 33 77  2  0  0  0  0
 34 53  1  0  0  0  0
 34 74  1  0  0  0  0
 34 78  2  0  0  0  0
 35 63  1  0  0  0  0
 35 69  1  0  0  0  0
 35 79  2  0  0  0  0
 36 64  1  0  0  0  0
 36 75  1  0  0  0  0
 36 80  2  0  0  0  0
 37 70  1  0  0  0  0
 37 71  1  0  0  0  0
 37 81  2  0  0  0  0
 38 41  1  0  0  0  0
 39 53  1  0  0  0  0
 40 69  1  0  0  0  0
 41 43  1  0  0  0  0
 42 44  1  0  0  0  0
 42 47  1  0  0  0  0
 43 51  1  0  0  0  0
 44 54  1  0  0  0  0
 45 48  1  0  0  0  0
 45 52  1  0  0  0  0
 46 49  1  0  0  0  0
 46 52  1  0  0  0  0
 47 70  1  0  0  0  0
 48 71  1  0  0  0  0
 49 71  1  0  0  0  0
 50 54  1  0  0  0  0
 50 70  1  0  0  0  0
 51 74  1  0  0  0  0
 53 69  1  0  0  0  0
 54 68  1  0  0  0  0
 57 64  1  0  0  0  0
 58 65  1  0  0  0  0
 59 65  1  0  0  0  0
 60 65  1  0  0  0  0
 61 76  1  0  0  0  0
 62 83  1  0  0  0  0
 63 65  1  0  0  0  0
 63 75  1  0  0  0  0
 64 76  1  0  0  0  0
 66 68  1  0  0  0  0
M  CHG  1  76   1
M  ISO  4  37 100  62 101  71 100  83 101
M  END
> <Batch ID>
0177

> <Smiles>
CNC(C)C(=O)NC(C(=O)N1Cc2cc([101O:1][101CH2:1]c3cc(C)c(C4CC[100N:0]([100C:0](=O)N5CCCC(n6nc(-c7ccc(Oc8ccc(F)cc8F)cc7)c(C(N)=O)c6N)C5)CC4)nc3C)ccc2CC1C(=O)NC1CCCc2ccccc21)C(C)(C)C

> <Shape>
0.231

> <Color>
0.133

> <Negative vol penalty>
0.000

$$$$

  -OEChem-04052322523D

 82 91  0     1  0  0  0  0  0999 V2000
  -25.8111  -32.4315   28.0896 C   0  0  0  0  0  0  0  0  0  0  0  0
  -26.1707  -31.0885   28.1383 C   0  0  0  0  0  0  0  0  0  0  0  0
  -23.1314   -9.8674   21.4474 C   0  0  0  0  0  0  0  0  0  0  0  0
  -24.0100  -10.7368   23.5233 C   0  0  0  0  0  0  0  0  0  0  0  0
  -25.6187  -33.0562   26.8580 C   0  0  0  0  0  0  0  0  0  0  0  0
  -26.3370  -30.3690   26.9555 C   0  0  0  0  0  0  0  0  0  0  0  0
  -30.2274  -25.0424   24.1611 C   0  0  0  0  0  0  0  0  0  0  0  0
  -22.4623   -8.8654   22.1502 C   0  0  0  0  0  0  0  0  0  0  0  0
  -23.3407   -9.7348   24.2261 C   0  0  0  0  0  0  0  0  0  0  0  0
  -30.0696  -23.8339   23.4841 C   0  0  0  0  0  0  0  0  0  0  0  0
  -23.2195   -5.9028   23.5902 C   0  0  0  0  0  0  0  0  0  0  0  0
  -23.2897   -4.6031   23.0888 C   0  0  0  0  0  0  0  0  0  0  0  0
  -29.7881  -25.0379   21.4128 C   0  0  0  0  0  0  0  0  0  0  0  0
  -20.8846   -4.5599   22.8639 C   0  0  0  0  0  0  0  0  0  0  0  0
  -23.9053  -10.8030   22.1340 C   0  0  0  0  0  0  0  0  0  0  0  0
  -24.1097  -13.1169   21.0795 C   0  0  0  0  0  0  0  0  0  0  0  0
  -25.7922  -32.3466   25.6593 C   0  0  0  0  0  0  0  0  0  0  0  0
  -30.1557  -26.2602   23.4697 C   0  0  0  0  0  0  0  0  0  0  0  0
  -26.1455  -30.9845   25.7068 C   0  0  0  0  0  0  0  0  0  0  0  0
  -29.9478  -26.2604   22.0830 C   0  0  0  0  0  0  0  0  0  0  0  0
  -22.5669   -8.7992   23.5395 C   0  0  0  0  0  0  0  0  0  0  0  0
  -29.8471  -23.8316   22.1102 C   0  0  0  0  0  0  0  0  0  0  0  0
  -21.9818   -6.5311   23.7285 C   0  0  0  0  0  0  0  0  0  0  0  0
  -22.1223   -3.9316   22.7257 C   0  0  0  0  0  0  0  0  0  0  0  0
  -20.8144   -5.8596   23.3653 C   0  0  0  0  0  0  0  0  0  0  0  0
  -24.5973  -11.8379   21.4085 C   0  0  0  0  0  0  0  0  0  0  0  0
  -25.1410  -13.7119   20.3948 C   0  0  0  0  0  0  0  0  0  0  0  0
  -22.8382  -13.7137   21.3671 C   0  0  0  0  0  0  0  0  0  0  0  0
  -28.2522  -28.8028   23.5961 C   0  0  0  0  0  0  0  0  0  0  0  0
  -30.3706  -30.0097   21.4564 C   0  0  0  0  0  0  0  0  0  0  0  0
  -32.7304  -29.4136   19.0642 C   0  0  0  0  0  0  0  0  0  0  0  0
  -30.7338  -14.7504   20.3512 C   0  0  0  0  0  0  0  0  0  0  0  0
  -25.5270  -33.0523   24.3530 C   0  0  0  0  0  0  0  0  0  0  0  0
  -30.3545  -27.5542   24.2103 C   0  0  0  0  0  0  0  0  0  0  0  0
  -29.8826  -27.5399   21.2911 C   0  0  0  0  0  0  0  0  0  0  0  0
  -26.0887  -32.3173   23.1387 C   0  0  0  0  0  0  0  0  0  0  0  0
  -29.4251  -11.7938   18.5383 C   0  0  0  0  0  0  0  0  0  0  0  0
  -25.7412  -30.8335   23.2049 C   0  0  0  0  0  0  0  0  0  0  0  0
  -28.0417  -11.6112   19.1599 C   0  0  0  0  0  0  0  0  0  0  0  0
  -31.3418  -18.0793   21.1164 C   0  0  0  0  0  0  0  0  0  0  0  0
  -29.2834  -17.8869   19.6646 C   0  0  0  0  0  0  0  0  0  0  0  0
  -29.8765  -22.1763   19.1020 C   0  0  0  0  0  0  0  0  0  0  0  0
  -30.3993  -12.4550   19.5082 C   0  0  0  0  0  0  0  0  0  0  0  0
  -30.9561  -16.7606   21.7813 C   0  0  0  0  0  0  0  0  0  0  0  0
  -28.9517  -16.5540   20.3421 C   0  0  0  0  0  0  0  0  0  0  0  0
  -28.5271  -13.5679   20.6824 C   0  0  0  0  0  0  0  0  0  0  0  0
  -29.3562  -20.7579   19.2101 C   0  0  0  0  0  0  0  0  0  0  0  0
  -26.3595  -30.1769   24.4450 C   0  0  1  0  0  0  0  0  0  0  0  0
  -29.7501  -28.7547   23.4886 C   0  0  1  0  0  0  0  0  0  0  0  0
  -27.5104  -12.9442   19.7143 C   0  0  2  0  0  0  0  0  0  0  0  0
  -30.0951  -18.7887   20.5920 C   0  0  0  0  0  0  0  0  0  0  0  0
  -30.6306  -22.3665   20.4086 C   0  0  2  0  0  0  0  0  0  1  0  0
  -31.3089  -21.0210   20.6769 C   0  0  2  0  0  0  0  0  0  0  0  0
  -32.7566  -20.9836   20.2052 C   0  0  0  0  0  0  0  0  0  0  0  0
  -34.2588  -30.5998   17.4660 C   0  0  0  0  0  0  0  0  0  0  0  0
  -27.9987  -30.5996   19.6299 C   0  0  0  0  0  0  0  0  0  0  0  0
  -29.6143  -30.8778   17.7377 C   0  0  0  0  0  0  0  0  0  0  0  0
  -29.7292  -32.4034   19.7080 C   0  0  0  0  0  0  0  0  0  0  0  0
  -35.1424  -28.2586   20.3320 C   0  0  0  0  0  0  0  0  0  0  0  0
  -30.4904  -30.0048   19.9516 C   0  0  1  0  0  0  0  0  0  0  0  0
  -34.1183  -29.9909   18.8525 C   0  0  2  0  0  0  0  0  0  0  0  0
  -29.4574  -30.9472   19.2717 C   0  0  0  0  0  0  0  0  0  0  0  0
  -25.8416  -11.6317   20.9689 N   0  0  0  0  0  0  0  0  0  0  0  0
  -26.1445  -12.7890   20.3566 N   0  0  0  0  0  0  0  0  0  0  0  0
  -30.0767  -28.7794   22.0614 N   0  0  0  0  0  0  0  0  0  0  0  0
  -29.8530  -13.6957   20.0584 N   0  0  0  0  0  0  0  0  0  0  0  0
  -30.1683  -15.9229   20.8748 N   0  0  0  0  0  0  0  0  0  0  0  0
  -25.2783  -14.9293   19.8277 N   0  0  0  0  0  0  0  0  0  0  0  0
  -21.8937  -12.9630   22.0804 N   0  0  0  0  0  0  0  0  0  0  0  0
  -27.7699  -29.9289   24.2354 N   0  0  0  0  0  0  0  0  0  0  0  0
  -31.8813  -30.3274   19.6518 N   0  0  0  0  0  0  0  0  0  0  0  0
  -30.5070  -20.0065   19.8470 N   0  3  2  0  0  0  0  0  0  0  0  0
  -35.1507  -28.9271   19.0054 N   0  3  0  0  0  0  0  0  0  0  0  0
  -22.5421  -14.8723   20.9882 O   0  0  0  0  0  0  0  0  0  0  0  0
  -27.5834  -27.8868   23.1320 O   0  0  0  0  0  0  0  0  0  0  0  0
  -30.5387  -31.0648   22.0731 O   0  0  0  0  0  0  0  0  0  0  0  0
  -32.4286  -28.2679   18.7374 O   0  0  0  0  0  0  0  0  0  0  0  0
  -31.9512  -14.6498   20.1539 O   0  0  0  0  0  0  0  0  0  0  0  0
  -21.9138   -7.8217   24.2256 O   0  0  0  0  0  0  0  0  0  0  0  0
  -29.6912  -22.6464   21.4431 O   0  0  0  0  0  0  0  0  0  1  0  0
  -22.1900   -2.6840   22.2428 F   0  0  0  0  0  0  0  0  0  0  0  0
  -19.6226   -6.4584   23.4948 F   0  0  0  0  0  0  0  0  0  0  0  0
  1  2  1  0  0  0  0
  1  5  2  0  0  0  0
  2  6  2  0  0  0  0
  3  8  2  0  0  0  0
  3 15  1  0  0  0  0
  4  9  1  0  0  0  0
  4 15  2  0  0  0  0
  5 17  1  0  0  0  0
  6 19  1  0  0  0  0
  7 10  2  0  0  0  0
  7 18  1  0  0  0  0
  8 21  1  0  0  0  0
  9 21  2  0  0  0  0
 10 22  1  0  0  0  0
 11 12  2  0  0  0  0
 11 23  1  0  0  0  0
 12 24  1  0  0  0  0
 13 20  1  0  0  0  0
 13 22  2  0  0  0  0
 14 24  2  0  0  0  0
 14 25  1  0  0  0  0
 15 26  1  0  0  0  0
 16 26  1  0  0  0  0
 16 27  2  0  0  0  0
 16 28  1  0  0  0  0
 17 19  2  0  0  0  0
 17 33  1  0  0  0  0
 18 20  2  0  0  0  0
 18 34  1  0  0  0  0
 19 48  1  0  0  0  0
 20 35  1  0  0  0  0
 21 79  1  0  0  0  0
 22 80  1  0  0  0  0
 23 25  2  0  0  0  0
 23 79  1  0  0  0  0
 24 81  1  0  0  0  0
 25 82  1  0  0  0  0
 26 63  2  0  0  0  0
 27 64  1  0  0  0  0
 27 68  1  0  0  0  0
 28 69  1  0  0  0  0
 28 74  2  0  0  0  0
 29 49  1  0  0  0  0
 29 70  1  0  0  0  0
 29 75  2  0  0  0  0
 30 60  1  0  0  0  0
 30 65  1  0  0  0  0
 30 76  2  0  0  0  0
 31 61  1  0  0  0  0
 31 71  1  0  0  0  0
 31 77  2  0  0  0  0
 32 66  1  0  0  0  0
 32 67  1  0  0  0  0
 32 78  2  0  0  0  0
 33 36  1  0  0  0  0
 34 49  1  0  0  0  0
 35 65  1  0  0  0  0
 36 38  1  0  0  0  0
 37 39  1  0  0  0  0
 37 43  1  0  0  0  0
 38 48  1  0  0  0  0
 39 50  1  0  0  0  0
 40 44  1  0  0  0  0
 40 51  1  0  0  0  0
 41 45  1  0  0  0  0
 41 51  1  0  0  0  0
 42 47  1  0  0  0  0
 42 52  1  0  0  0  0
 43 66  1  0  0  0  0
 44 67  1  0  0  0  0
 45 67  1  0  0  0  0
 46 50  1  0  0  0  0
 46 66  1  0  0  0  0
 47 72  1  0  0  0  0
 48 70  1  0  0  0  0
 49 65  1  0  0  0  0
 50 64  1  0  0  0  0
 51 72  1  0  0  0  0
 52 53  1  0  0  0  0
 52 80  1  0  0  0  0
 53 54  1  0  0  0  0
 53 72  1  0  0  0  0
 55 61  1  0  0  0  0
 56 62  1  0  0  0  0
 57 62  1  0  0  0  0
 58 62  1  0  0  0  0
 59 73  1  0  0  0  0
 60 62  1  0  0  0  0
 60 71  1  0  0  0  0
 61 73  1  0  0  0  0
 63 64  1  0  0  0  0
M  CHG  2  72   1  73   1
M  ISO  4  32 100  52 101  67 100  80 101
M  END
> <Batch ID>
0177

> <Smiles>
CNC(C)C(=O)NC(C(=O)N1Cc2cc([101O:1][101CH:1]3CCN(C4CC[100N:0]([100C:0](=O)N5CCCC(n6nc(-c7ccc(Oc8ccc(F)cc8F)cc7)c(C(N)=O)c6N)C5)CC4)C3C)ccc2CC1C(=O)NC1CCCc2ccccc21)C(C)(C)C

> <Shape>
0.283

> <Color>
0.156

> <Negative vol penalty>
0.000

$$$$

  -OEChem-04052322523D

 86 95  0     1  0  0  0  0  0999 V2000
  -22.4224   -8.1644   20.8442 C   0  0  0  0  0  0  0  0  0  0  0  0
  -21.8702   -9.4151   21.1017 C   0  0  0  0  0  0  0  0  0  0  0  0
  -27.8200  -26.3111   20.7952 C   0  0  0  0  0  0  0  0  0  0  0  0
  -28.8346  -28.3530   19.9962 C   0  0  0  0  0  0  0  0  0  0  0  0
  -23.8002   -7.9774   20.9475 C   0  0  0  0  0  0  0  0  0  0  0  0
  -22.6954  -10.4792   21.4639 C   0  0  0  0  0  0  0  0  0  0  0  0
  -21.9461  -16.3802   20.0069 C   0  0  0  0  0  0  0  0  0  0  0  0
  -28.9332  -25.5894   20.3646 C   0  0  0  0  0  0  0  0  0  0  0  0
  -29.9479  -27.6313   19.5657 C   0  0  0  0  0  0  0  0  0  0  0  0
  -21.4086  -17.4586   20.7083 C   0  0  0  0  0  0  0  0  0  0  0  0
  -32.0781  -24.9804   21.4471 C   0  0  0  0  0  0  0  0  0  0  0  0
  -32.6073  -24.0258   22.3155 C   0  0  0  0  0  0  0  0  0  0  0  0
  -23.6260  -18.1009   21.4081 C   0  0  0  0  0  0  0  0  0  0  0  0
  -20.5685  -23.1512   25.0309 C   0  0  0  0  0  0  0  0  0  0  0  0
  -32.1967  -22.3032   20.6720 C   0  0  0  0  0  0  0  0  0  0  0  0
  -27.7706  -27.6929   20.6109 C   0  0  0  0  0  0  0  0  0  0  0  0
  -26.4264  -29.0298   22.3179 C   0  0  0  0  0  0  0  0  0  0  0  0
  -24.6437   -9.0421   21.3016 C   0  0  0  0  0  0  0  0  0  0  0  0
  -23.3289  -16.1473   20.0098 C   0  0  0  0  0  0  0  0  0  0  0  0
  -24.0856  -10.3059   21.5733 C   0  0  0  0  0  0  0  0  0  0  0  0
  -24.1788  -17.0203   20.7039 C   0  0  0  0  0  0  0  0  0  0  0  0
  -21.3471  -22.3738   22.8878 C   0  0  0  0  0  0  0  0  0  0  0  0
  -20.6722  -23.3198   23.6535 C   0  0  0  0  0  0  0  0  0  0  0  0
  -29.9972  -26.2495   19.7499 C   0  0  0  0  0  0  0  0  0  0  0  0
  -22.2483  -18.3174   21.4114 C   0  0  0  0  0  0  0  0  0  0  0  0
  -31.6081  -24.5965   20.1911 C   0  0  0  0  0  0  0  0  0  0  0  0
  -32.6666  -22.6871   21.9280 C   0  0  0  0  0  0  0  0  0  0  0  0
  -31.6675  -23.2579   19.8036 C   0  0  0  0  0  0  0  0  0  0  0  0
  -26.6206  -28.4389   21.0550 C   0  0  0  0  0  0  0  0  0  0  0  0
  -21.1471  -22.0320   25.6126 C   0  0  0  0  0  0  0  0  0  0  0  0
  -21.9060  -21.2744   23.5237 C   0  0  0  0  0  0  0  0  0  0  0  0
  -25.1865  -29.6149   22.2362 C   0  0  0  0  0  0  0  0  0  0  0  0
  -27.2897  -29.0481   23.4625 C   0  0  0  0  0  0  0  0  0  0  0  0
  -25.2033  -13.7821   21.0079 C   0  0  0  0  0  0  0  0  0  0  0  0
  -27.5261  -15.5450   19.5870 C   0  0  0  0  0  0  0  0  0  0  0  0
  -29.1428  -18.6612   18.7547 C   0  0  0  0  0  0  0  0  0  0  0  0
  -19.8277  -29.4050   20.7098 C   0  0  0  0  0  0  0  0  0  0  0  0
  -26.1219   -8.7799   21.4466 C   0  0  0  0  0  0  0  0  0  0  0  0
  -23.8956  -14.9952   19.2263 C   0  0  0  0  0  0  0  0  0  0  0  0
  -25.6722  -16.8259   20.7219 C   0  0  0  0  0  0  0  0  0  0  0  0
  -26.9665  -10.0513   21.4707 C   0  0  0  0  0  0  0  0  0  0  0  0
  -22.1734  -30.4452   18.2821 C   0  0  0  0  0  0  0  0  0  0  0  0
  -26.3525  -11.0823   22.4124 C   0  0  0  0  0  0  0  0  0  0  0  0
  -23.5241  -30.0387   18.8650 C   0  0  0  0  0  0  0  0  0  0  0  0
  -18.1474  -27.6619   23.5091 C   0  0  0  0  0  0  0  0  0  0  0  0
  -21.1112  -29.4012   18.5998 C   0  0  0  0  0  0  0  0  0  0  0  0
  -18.2279  -28.7953   22.4983 C   0  0  0  0  0  0  0  0  0  0  0  0
  -20.0713  -27.2975   22.1540 C   0  0  0  0  0  0  0  0  0  0  0  0
  -22.2861  -28.7570   20.6865 C   0  0  0  0  0  0  0  0  0  0  0  0
  -24.9504  -11.4909   21.9446 C   0  0  1  0  0  0  0  0  0  0  0  0
  -25.2698  -14.5546   19.7209 C   0  0  1  0  0  0  0  0  0  0  0  0
  -18.9216  -26.5392   22.8173 C   0  0  1  0  0  0  0  0  0  0  0  0
  -23.4047  -29.7722   20.3736 C   0  0  1  0  0  0  0  0  0  0  0  0
  -21.4720  -22.5324   21.4079 C   0  0  0  0  0  0  0  0  0  0  0  0
  -21.0803  -21.7797   27.0748 C   0  0  0  0  0  0  0  0  0  0  0  0
  -31.1574  -19.1251   17.3322 C   0  0  0  0  0  0  0  0  0  0  0  0
  -29.0562  -15.4250   22.2241 C   0  0  0  0  0  0  0  0  0  0  0  0
  -30.4829  -17.3109   21.4018 C   0  0  0  0  0  0  0  0  0  0  0  0
  -30.4714  -15.1346   20.1827 C   0  0  0  0  0  0  0  0  0  0  0  0
  -27.6434  -20.5552   17.0449 C   0  0  0  0  0  0  0  0  0  0  0  0
  -22.6460  -20.2098   22.7959 C   0  0  0  0  0  0  0  0  0  1  0  0
  -19.3865  -25.4548   23.7728 C   0  0  0  0  0  0  0  0  0  0  0  0
  -28.4532  -16.6499   20.0328 C   0  0  1  0  0  0  0  0  0  0  0  0
  -29.6379  -19.0908   17.3855 C   0  0  2  0  0  0  0  0  0  0  0  0
  -29.5877  -16.1329   20.9618 C   0  0  0  0  0  0  0  0  0  0  0  0
  -25.5868  -28.6309   20.2314 N   0  0  0  0  0  0  0  0  0  0  0  0
  -24.7310  -29.3490   20.9785 N   0  0  0  0  0  0  0  0  0  0  0  0
  -21.7913  -21.1367   24.8517 N   0  3  0  0  0  0  0  0  0  0  0  0
  -26.1776  -15.6814   19.9457 N   0  0  0  0  0  0  0  0  0  0  0  0
  -21.0240  -29.1338   20.0366 N   0  0  0  0  0  0  0  0  0  0  0  0
  -19.4870  -28.5905   21.7889 N   0  0  0  0  0  0  0  0  0  0  0  0
  -24.4523  -30.3257   23.1183 N   0  0  0  0  0  0  0  0  0  0  0  0
  -28.5283  -28.3979   23.3757 N   0  0  0  0  0  0  0  0  0  0  0  0
  -20.0940  -24.4415   23.0589 N   0  0  0  0  0  0  0  0  0  0  0  0
  -25.0375  -12.4207   20.8390 N   0  0  0  0  0  0  0  0  0  0  0  0
  -28.9272  -17.3007   18.8161 N   0  0  0  0  0  0  0  0  0  0  0  0
  -29.1252  -20.4498   17.0522 N   0  3  0  0  0  0  0  0  0  0  0  0
  -26.9653  -29.6101   24.5360 O   0  0  0  0  0  0  0  0  0  0  0  0
  -25.2969  -14.3769   22.0752 O   0  0  0  0  0  0  0  0  0  0  0  0
  -27.9804  -14.5993   18.9381 O   0  0  0  0  0  0  0  0  0  0  0  0
  -28.9685  -19.4528   19.6786 O   0  0  0  0  0  0  0  0  0  0  0  0
  -19.0714  -30.3120   20.3364 O   0  0  0  0  0  0  0  0  0  0  0  0
  -31.0838  -25.5456   19.3298 O   0  0  0  0  0  0  0  0  0  0  0  0
  -21.7229  -19.3771   22.1018 O   0  0  0  0  0  0  0  0  0  1  0  0
  -33.1762  -21.7707   22.7614 F   0  0  0  0  0  0  0  0  0  0  0  0
  -31.2187  -22.8832   18.5977 F   0  0  0  0  0  0  0  0  0  0  0  0
  1  2  1  0  0  0  0
  1  5  2  0  0  0  0
  2  6  2  0  0  0  0
  3  8  2  0  0  0  0
  3 16  1  0  0  0  0
  4  9  1  0  0  0  0
  4 16  2  0  0  0  0
  5 18  1  0  0  0  0
  6 20  1  0  0  0  0
  7 10  2  0  0  0  0
  7 19  1  0  0  0  0
  8 24  1  0  0  0  0
  9 24  2  0  0  0  0
 10 25  1  0  0  0  0
 11 12  2  0  0  0  0
 11 26  1  0  0  0  0
 12 27  1  0  0  0  0
 13 21  1  0  0  0  0
 13 25  2  0  0  0  0
 14 23  2  0  0  0  0
 14 30  1  0  0  0  0
 15 27  2  0  0  0  0
 15 28  1  0  0  0  0
 16 29  1  0  0  0  0
 17 29  1  0  0  0  0
 17 32  2  0  0  0  0
 17 33  1  0  0  0  0
 18 20  2  0  0  0  0
 18 38  1  0  0  0  0
 19 21  2  0  0  0  0
 19 39  1  0  0  0  0
 20 50  1  0  0  0  0
 21 40  1  0  0  0  0
 22 23  1  0  0  0  0
 22 31  2  0  0  0  0
 22 54  1  0  0  0  0
 23 74  1  0  0  0  0
 24 83  1  0  0  0  0
 25 84  1  0  0  0  0
 26 28  2  0  0  0  0
 26 83  1  0  0  0  0
 27 85  1  0  0  0  0
 28 86  1  0  0  0  0
 29 66  2  0  0  0  0
 30 55  1  0  0  0  0
 30 68  2  0  0  0  0
 31 61  1  0  0  0  0
 31 68  1  0  0  0  0
 32 67  1  0  0  0  0
 32 72  1  0  0  0  0
 33 73  1  0  0  0  0
 33 78  2  0  0  0  0
 34 51  1  0  0  0  0
 34 75  1  0  0  0  0
 34 79  2  0  0  0  0
 35 63  1  0  0  0  0
 35 69  1  0  0  0  0
 35 80  2  0  0  0  0
 36 64  1  0  0  0  0
 36 76  1  0  0  0  0
 36 81  2  0  0  0  0
 37 70  1  0  0  0  0
 37 71  1  0  0  0  0
 37 82  2  0  0  0  0
 38 41  1  0  0  0  0
 39 51  1  0  0  0  0
 40 69  1  0  0  0  0
 41 43  1  0  0  0  0
 42 44  1  0  0  0  0
 42 46  1  0  0  0  0
 43 50  1  0  0  0  0
 44 53  1  0  0  0  0
 45 47  1  0  0  0  0
 45 52  1  0  0  0  0
 46 70  1  0  0  0  0
 47 71  1  0  0  0  0
 48 52  1  0  0  0  0
 48 71  1  0  0  0  0
 49 53  1  0  0  0  0
 49 70  1  0  0  0  0
 50 75  1  0  0  0  0
 51 69  1  0  0  0  0
 52 62  1  0  0  0  0
 53 67  1  0  0  0  0
 56 64  1  0  0  0  0
 57 65  1  0  0  0  0
 58 65  1  0  0  0  0
 59 65  1  0  0  0  0
 60 77  1  0  0  0  0
 61 84  1  0  0  0  0
 62 74  1  0  0  0  0
 63 65  1  0  0  0  0
 63 76  1  0  0  0  0
 64 77  1  0  0  0  0
 66 67  1  0  0  0  0
M  CHG  2  68   1  77   1
M  ISO  4  37 100  61 101  71 100  84 101
M  END
> <Batch ID>
0177

> <Smiles>
CNC(C)C(=O)NC(C(=O)N1Cc2cc([101O:1][101CH2:1]c3nc(C)cc(NCC4CC[100N:0]([100C:0](=O)N5CCCC(n6nc(-c7ccc(Oc8ccc(F)cc8F)cc7)c(C(N)=O)c6N)C5)C4)c3C)ccc2CC1C(=O)NC1CCCc2ccccc21)C(C)(C)C

> <Shape>
0.251

> <Color>
0.063

> <Negative vol penalty>
0.000

$$$$

  -OEChem-04052322523D

 87 96  0     1  0  0  0  0  0999 V2000
  -28.7507  -22.7660   32.3486 C   0  0  0  0  0  0  0  0  0  0  0  0
  -29.0558  -22.9865   31.0093 C   0  0  0  0  0  0  0  0  0  0  0  0
  -22.8033   -9.8945   20.0158 C   0  0  0  0  0  0  0  0  0  0  0  0
  -24.4003   -9.2953   21.7269 C   0  0  0  0  0  0  0  0  0  0  0  0
  -27.4633  -22.3744   32.7137 C   0  0  0  0  0  0  0  0  0  0  0  0
  -28.0740  -22.8144   30.0342 C   0  0  0  0  0  0  0  0  0  0  0  0
  -28.0238  -26.5751   26.6431 C   0  0  0  0  0  0  0  0  0  0  0  0
  -22.1547   -8.6725   20.1932 C   0  0  0  0  0  0  0  0  0  0  0  0
  -23.7516   -8.0732   21.9043 C   0  0  0  0  0  0  0  0  0  0  0  0
  -29.0030  -26.5510   25.6510 C   0  0  0  0  0  0  0  0  0  0  0  0
  -20.9792   -6.9297   23.4621 C   0  0  0  0  0  0  0  0  0  0  0  0
  -20.7407   -6.5082   24.7702 C   0  0  0  0  0  0  0  0  0  0  0  0
  -29.5071  -19.1435   23.5264 C   0  0  0  0  0  0  0  0  0  0  0  0
  -27.4015  -25.6280   24.1010 C   0  0  0  0  0  0  0  0  0  0  0  0
  -22.0629   -4.5256   24.3724 C   0  0  0  0  0  0  0  0  0  0  0  0
  -23.9261  -10.2059   20.7827 C   0  0  0  0  0  0  0  0  0  0  0  0
  -24.0497  -12.7539   20.7686 C   0  0  0  0  0  0  0  0  0  0  0  0
  -26.4627  -22.2068   31.7435 C   0  0  0  0  0  0  0  0  0  0  0  0
  -26.7267  -26.1149   26.3742 C   0  0  0  0  0  0  0  0  0  0  0  0
  -26.7724  -22.4189   30.3865 C   0  0  0  0  0  0  0  0  0  0  0  0
  -30.7465  -19.6756   23.1886 C   0  0  0  0  0  0  0  0  0  0  0  0
  -26.4069  -25.6498   25.0906 C   0  0  0  0  0  0  0  0  0  0  0  0
  -29.1382  -17.8933   23.0425 C   0  0  0  0  0  0  0  0  0  0  0  0
  -22.6288   -7.7618   21.1374 C   0  0  0  0  0  0  0  0  0  0  0  0
  -28.6928  -26.0747   24.3805 C   0  0  0  0  0  0  0  0  0  0  0  0
  -21.7595   -6.1491   22.6091 C   0  0  0  0  0  0  0  0  0  0  0  0
  -21.2826   -5.3062   25.2253 C   0  0  0  0  0  0  0  0  0  0  0  0
  -22.3013   -4.9471   23.0643 C   0  0  0  0  0  0  0  0  0  0  0  0
  -24.5969  -11.4679   20.5995 C   0  0  0  0  0  0  0  0  0  0  0  0
  -31.5739  -18.9236   22.3703 C   0  0  0  0  0  0  0  0  0  0  0  0
  -30.0375  -17.2211   22.2306 C   0  0  0  0  0  0  0  0  0  0  0  0
  -25.0846  -13.6085   20.4769 C   0  0  0  0  0  0  0  0  0  0  0  0
  -22.7245  -13.1413   21.1550 C   0  0  0  0  0  0  0  0  0  0  0  0
  -24.8972  -23.7749   27.5060 C   0  0  0  0  0  0  0  0  0  0  0  0
  -22.6514  -25.1377   25.6029 C   0  0  0  0  0  0  0  0  0  0  0  0
  -21.9470  -27.0667   22.8772 C   0  0  0  0  0  0  0  0  0  0  0  0
  -30.4282  -15.1130   20.9079 C   0  0  0  0  0  0  0  0  0  0  0  0
  -25.0983  -21.7366   32.1817 C   0  0  0  0  0  0  0  0  0  0  0  0
  -25.6746  -26.1725   27.4476 C   0  0  0  0  0  0  0  0  0  0  0  0
  -25.0239  -25.1634   24.7451 C   0  0  0  0  0  0  0  0  0  0  0  0
  -24.0156  -21.9396   31.1249 C   0  0  0  0  0  0  0  0  0  0  0  0
  -29.6169  -12.7085   18.4104 C   0  0  0  0  0  0  0  0  0  0  0  0
  -24.5050  -21.4633   29.7609 C   0  0  0  0  0  0  0  0  0  0  0  0
  -28.1935  -12.2772   18.7712 C   0  0  0  0  0  0  0  0  0  0  0  0
  -30.5500  -21.4808   25.0452 C   0  0  0  0  0  0  0  0  0  0  0  0
  -30.4638  -12.9672   19.6552 C   0  0  0  0  0  0  0  0  0  0  0  0
  -28.4515  -13.4692   20.9847 C   0  0  0  0  0  0  0  0  0  0  0  0
  -30.8946  -22.9541   25.0954 C   0  0  0  0  0  0  0  0  0  0  0  0
  -30.7786  -22.1919   22.7779 C   0  0  0  0  0  0  0  0  0  0  0  0
  -31.1546  -21.0356   23.7127 C   0  0  2  0  0  0  0  0  0  0  0  0
  -25.7279  -22.2667   29.3021 C   0  0  1  0  0  0  0  0  0  0  0  0
  -24.5238  -25.1997   27.2091 C   0  0  1  0  0  0  0  0  0  0  0  0
  -27.5413  -13.2599   19.7634 C   0  0  2  0  0  0  0  0  0  0  0  0
  -27.8076  -17.3267   23.4053 C   0  0  0  0  0  0  0  0  0  0  0  0
  -32.9174  -19.4438   21.9766 C   0  0  0  0  0  0  0  0  0  0  0  0
  -20.0195  -27.9724   21.5499 C   0  0  0  0  0  0  0  0  0  0  0  0
  -31.8178  -27.0971   23.4419 C   0  0  0  0  0  0  0  0  0  0  0  0
  -22.2281  -22.3894   24.3469 C   0  0  0  0  0  0  0  0  0  0  0  0
  -21.0408  -23.5154   22.4519 C   0  0  0  0  0  0  0  0  0  0  0  0
  -20.1270  -23.6791   24.7673 C   0  0  0  0  0  0  0  0  0  0  0  0
  -22.7333  -29.8664   23.4271 C   0  0  0  0  0  0  0  0  0  0  0  0
  -31.5280  -24.5616   23.2653 C   0  0  0  0  0  0  0  0  0  0  0  0
  -22.2194  -24.9650   24.1668 C   0  0  1  0  0  0  0  0  0  0  0  0
  -20.9942  -28.2332   22.6877 C   0  0  2  0  0  0  0  0  0  0  0  0
  -30.9985  -25.8743   23.8334 C   0  0  2  0  0  0  0  0  0  1  0  0
  -21.4305  -23.6445   23.9400 C   0  0  0  0  0  0  0  0  0  0  0  0
  -25.8798  -11.4981   20.2288 N   0  0  0  0  0  0  0  0  0  0  0  0
  -31.2502  -17.7057   21.8808 N   0  0  0  0  0  0  0  0  0  0  0  0
  -26.1473  -12.8134   20.1626 N   0  0  0  0  0  0  0  0  0  0  0  0
  -24.0316  -25.2337   25.8304 N   0  0  0  0  0  0  0  0  0  0  0  0
  -29.7850  -13.9103   20.5466 N   0  0  0  0  0  0  0  0  0  0  0  0
  -25.1802  -14.9550   20.4610 N   0  0  0  0  0  0  0  0  0  0  0  0
  -22.4490  -13.3118   22.5186 N   0  0  0  0  0  0  0  0  0  0  0  0
  -29.6728  -15.9456   21.7330 N   0  0  0  0  0  0  0  0  0  0  0  0
  -25.3226  -23.5635   28.8036 N   0  0  0  0  0  0  0  0  0  0  0  0
  -21.4784  -26.1716   23.8155 N   0  0  0  0  0  0  0  0  0  0  0  0
  -30.6646  -23.4116   23.6751 N   0  3  2  0  0  0  0  0  0  0  0  0
  -21.7538  -29.4778   22.3799 N   0  3  0  0  0  0  0  0  0  0  0  0
  -21.8073  -13.3148   20.3171 O   0  0  0  0  0  0  0  0  0  0  0  0
  -24.8046  -22.9296   26.6236 O   0  0  0  0  0  0  0  0  0  0  0  0
  -21.7954  -25.1928   26.4895 O   0  0  0  0  0  0  0  0  0  0  0  0
  -22.9998  -26.9583   22.2523 O   0  0  0  0  0  0  0  0  0  0  0  0
  -31.5545  -15.3968   20.4922 O   0  0  0  0  0  0  0  0  0  0  0  0
  -21.9960   -6.5693   21.3110 O   0  0  0  0  0  0  0  0  0  0  0  0
  -29.6469  -26.0495   23.4106 O   0  0  0  0  0  0  0  0  0  1  0  0
  -21.0547   -4.9023   26.4819 F   0  0  0  0  0  0  0  0  0  0  0  0
  -23.0527   -4.1935   22.2498 F   0  0  0  0  0  0  0  0  0  0  0  0
  1  2  1  0  0  0  0
  1  5  2  0  0  0  0
  2  6  2  0  0  0  0
  3  8  2  0  0  0  0
  3 16  1  0  0  0  0
  4  9  1  0  0  0  0
  4 16  2  0  0  0  0
  5 18  1  0  0  0  0
  6 20  1  0  0  0  0
  7 10  2  0  0  0  0
  7 19  1  0  0  0  0
  8 24  1  0  0  0  0
  9 24  2  0  0  0  0
 10 25  1  0  0  0  0
 11 12  2  0  0  0  0
 11 26  1  0  0  0  0
 12 27  1  0  0  0  0
 13 21  1  0  0  0  0
 13 23  2  0  0  0  0
 14 22  1  0  0  0  0
 14 25  2  0  0  0  0
 15 27  2  0  0  0  0
 15 28  1  0  0  0  0
 16 29  1  0  0  0  0
 17 29  1  0  0  0  0
 17 32  2  0  0  0  0
 17 33  1  0  0  0  0
 18 20  2  0  0  0  0
 18 38  1  0  0  0  0
 19 22  2  0  0  0  0
 19 39  1  0  0  0  0
 20 51  1  0  0  0  0
 21 30  2  0  0  0  0
 21 50  1  0  0  0  0
 22 40  1  0  0  0  0
 23 31  1  0  0  0  0
 23 54  1  0  0  0  0
 24 84  1  0  0  0  0
 25 85  1  0  0  0  0
 26 28  2  0  0  0  0
 26 84  1  0  0  0  0
 27 86  1  0  0  0  0
 28 87  1  0  0  0  0
 29 67  2  0  0  0  0
 30 55  1  0  0  0  0
 30 68  1  0  0  0  0
 31 68  2  0  0  0  0
 31 74  1  0  0  0  0
 32 69  1  0  0  0  0
 32 72  1  0  0  0  0
 33 73  1  0  0  0  0
 33 79  2  0  0  0  0
 34 52  1  0  0  0  0
 34 75  1  0  0  0  0
 34 80  2  0  0  0  0
 35 63  1  0  0  0  0
 35 70  1  0  0  0  0
 35 81  2  0  0  0  0
 36 64  1  0  0  0  0
 36 76  1  0  0  0  0
 36 82  2  0  0  0  0
 37 71  1  0  0  0  0
 37 74  1  0  0  0  0
 37 83  2  0  0  0  0
 38 41  1  0  0  0  0
 39 52  1  0  0  0  0
 40 70  1  0  0  0  0
 41 43  1  0  0  0  0
 42 44  1  0  0  0  0
 42 46  1  0  0  0  0
 43 51  1  0  0  0  0
 44 53  1  0  0  0  0
 45 48  1  0  0  0  0
 45 50  1  0  0  0  0
 46 71  1  0  0  0  0
 47 53  1  0  0  0  0
 47 71  1  0  0  0  0
 48 77  1  0  0  0  0
 49 50  1  0  0  0  0
 49 77  1  0  0  0  0
 51 75  1  0  0  0  0
 52 70  1  0  0  0  0
 53 69  1  0  0  0  0
 56 64  1  0  0  0  0
 57 65  1  0  0  0  0
 58 66  1  0  0  0  0
 59 66  1  0  0  0  0
 60 66  1  0  0  0  0
 61 78  1  0  0  0  0
 62 65  1  0  0  0  0
 62 77  1  0  0  0  0
 63 66  1  0  0  0  0
 63 76  1  0  0  0  0
 64 78  1  0  0  0  0
 65 85  1  0  0  0  0
 67 69  1  0  0  0  0
M  CHG  2  77   1  78   1
M  ISO  4  37 100  65 101  74 100  85 101
M  END
> <Batch ID>
0177

> <Smiles>
CNC(C)C(=O)NC(C(=O)N1Cc2cc([101O:1][101CH:1](C)CN3CCC(c4cc(C)c([100NH:0][100C:0](=O)N5CCCC(n6nc(-c7ccc(Oc8ccc(F)cc8F)cc7)c(C(N)=O)c6N)C5)nc4C)C3)ccc2CC1C(=O)NC1CCCc2ccccc21)C(C)(C)C

> <Shape>
0.218

> <Color>
0.179

> <Negative vol penalty>
0.000

$$$$

  -OEChem-04052322523D

 82 90  0     1  0  0  0  0  0999 V2000
  -28.3758  -37.7012   20.7047 C   0  0  0  0  0  0  0  0  0  0  0  0
  -28.7429  -36.4992   20.1081 C   0  0  0  0  0  0  0  0  0  0  0  0
  -24.0169   -9.5078   22.1654 C   0  0  0  0  0  0  0  0  0  0  0  0
  -23.9827   -9.0098   19.8015 C   0  0  0  0  0  0  0  0  0  0  0  0
  -27.6579  -37.6942   21.8999 C   0  0  0  0  0  0  0  0  0  0  0  0
  -28.3933  -35.2895   20.7071 C   0  0  0  0  0  0  0  0  0  0  0  0
  -26.5892  -28.5570   19.0534 C   0  0  0  0  0  0  0  0  0  0  0  0
  -23.0083   -8.5681   22.3779 C   0  0  0  0  0  0  0  0  0  0  0  0
  -22.9741   -8.0700   20.0141 C   0  0  0  0  0  0  0  0  0  0  0  0
  -26.9455  -27.2423   19.3511 C   0  0  0  0  0  0  0  0  0  0  0  0
  -20.6943   -6.0418   23.5939 C   0  0  0  0  0  0  0  0  0  0  0  0
  -20.8400   -5.1662   24.6698 C   0  0  0  0  0  0  0  0  0  0  0  0
  -25.6361  -27.3519   21.3741 C   0  0  0  0  0  0  0  0  0  0  0  0
  -22.8942   -4.3302   23.7114 C   0  0  0  0  0  0  0  0  0  0  0  0
  -24.5041   -9.7287   20.8771 C   0  0  0  0  0  0  0  0  0  0  0  0
  -26.9353  -10.4767   20.6835 C   0  0  0  0  0  0  0  0  0  0  0  0
  -27.2910  -36.4837   22.5088 C   0  0  0  0  0  0  0  0  0  0  0  0
  -25.7611  -29.2838   19.9208 C   0  0  0  0  0  0  0  0  0  0  0  0
  -27.6711  -35.2663   21.9123 C   0  0  0  0  0  0  0  0  0  0  0  0
  -25.2687  -28.6748   21.0838 C   0  0  0  0  0  0  0  0  0  0  0  0
  -22.4869   -7.8492   21.3023 C   0  0  0  0  0  0  0  0  0  0  0  0
  -26.4713  -26.6406   20.5130 C   0  0  0  0  0  0  0  0  0  0  0  0
  -21.6485   -6.0616   22.5766 C   0  0  0  0  0  0  0  0  0  0  0  0
  -21.9400   -4.3105   24.7286 C   0  0  0  0  0  0  0  0  0  0  0  0
  -22.7485   -5.2058   22.6354 C   0  0  0  0  0  0  0  0  0  0  0  0
  -25.5456  -10.6997   20.6568 C   0  0  0  0  0  0  0  0  0  0  0  0
  -28.9250  -22.5126   19.8385 C   0  0  0  0  0  0  0  0  0  0  0  0
  -27.3161  -21.5707   21.7495 C   0  0  0  0  0  0  0  0  0  0  0  0
  -28.3281  -20.7961   21.2267 C   0  0  0  0  0  0  0  0  0  0  0  0
  -27.9125  -23.2870   20.3607 C   0  0  0  0  0  0  0  0  0  0  0  0
  -27.4857  -11.7062   20.4157 C   0  0  0  0  0  0  0  0  0  0  0  0
  -27.6636   -9.2662   20.9285 C   0  0  0  0  0  0  0  0  0  0  0  0
  -26.0920  -31.9368   21.6400 C   0  0  0  0  0  0  0  0  0  0  0  0
  -22.9367  -31.4785   22.2367 C   0  0  0  0  0  0  0  0  0  0  0  0
  -20.3076  -29.3102   22.4185 C   0  0  0  0  0  0  0  0  0  0  0  0
  -27.6614  -17.1127   21.4602 C   0  0  0  0  0  0  0  0  0  0  0  0
  -26.5560  -36.5268   23.8251 C   0  0  0  0  0  0  0  0  0  0  0  0
  -25.3643  -30.6921   19.5719 C   0  0  0  0  0  0  0  0  0  0  0  0
  -24.3604  -29.4051   22.0378 C   0  0  0  0  0  0  0  0  0  0  0  0
  -25.9001  -35.2003   24.2001 C   0  0  0  0  0  0  0  0  0  0  0  0
  -25.3794  -15.9869   18.7885 C   0  0  0  0  0  0  0  0  0  0  0  0
  -26.8741  -34.0452   23.9906 C   0  0  0  0  0  0  0  0  0  0  0  0
  -25.2983  -14.4919   19.0826 C   0  0  0  0  0  0  0  0  0  0  0  0
  -25.5289  -16.8150   20.0641 C   0  0  0  0  0  0  0  0  0  0  0  0
  -26.5947  -14.8937   21.2117 C   0  0  0  0  0  0  0  0  0  0  0  0
  -27.2889  -33.9334   22.5185 C   0  0  1  0  0  0  0  0  0  0  0  0
  -24.9324  -31.5092   20.7856 C   0  0  1  0  0  0  0  0  0  0  0  0
  -26.4929  -14.0416   19.9373 C   0  0  1  0  0  0  0  0  0  0  0  0
  -29.8279  -23.0295   18.7714 C   0  0  0  0  0  0  0  0  0  0  0  0
  -25.1869  -21.9395   23.0211 C   0  0  0  0  0  0  0  0  0  0  0  0
  -17.8609  -29.2226   22.9692 C   0  0  0  0  0  0  0  0  0  0  0  0
  -23.6023  -31.6491   25.2095 C   0  0  0  0  0  0  0  0  0  0  0  0
  -21.3684  -30.6292   25.6970 C   0  0  0  0  0  0  0  0  0  0  0  0
  -21.5046  -32.8352   24.5404 C   0  0  0  0  0  0  0  0  0  0  0  0
  -19.6091  -28.3849   19.6954 C   0  0  0  0  0  0  0  0  0  0  0  0
  -26.4135  -21.0535   22.8168 C   0  0  0  0  0  0  0  0  0  0  0  0
  -28.5673  -19.4044   21.7040 C   0  0  0  0  0  0  0  0  0  0  0  0
  -27.6710  -24.6874   19.8792 C   0  0  0  0  0  0  0  0  0  1  0  0
  -22.1437  -30.7358   23.2848 C   0  0  1  0  0  0  0  0  0  0  0  0
  -18.8954  -29.3909   21.8673 C   0  0  2  0  0  0  0  0  0  0  0  0
  -22.1734  -31.4489   24.6661 C   0  0  0  0  0  0  0  0  0  0  0  0
  -25.2324  -11.9711   20.3930 N   0  0  0  0  0  0  0  0  0  0  0  0
  -29.1509  -21.2532   20.2621 N   0  0  0  0  0  0  0  0  0  0  0  0
  -27.0899  -22.8299   21.3256 N   0  0  0  0  0  0  0  0  0  0  0  0
  -26.4331  -12.5580   20.2515 N   0  0  0  0  0  0  0  0  0  0  0  0
  -24.0060  -30.7821   21.6559 N   0  0  0  0  0  0  0  0  0  0  0  0
  -26.6382  -16.3275   20.8988 N   0  0  0  0  0  0  0  0  0  0  0  0
  -28.7624  -12.1312   20.3070 N   0  0  0  0  0  0  0  0  0  0  0  0
  -26.9419   -8.0929   21.1869 N   0  0  0  0  0  0  0  0  0  0  0  0
  -26.2393  -33.3069   21.7438 N   0  0  0  0  0  0  0  0  0  0  0  0
  -20.8050  -30.5571   22.7333 N   0  0  0  0  0  0  0  0  0  0  0  0
  -27.5951  -18.4754   21.1928 N   0  0  0  0  0  0  0  0  0  0  0  0
  -18.6751  -28.3253   20.8491 N   0  3  0  0  0  0  0  0  0  0  0  0
  -28.9175   -9.2297   20.9347 O   0  0  0  0  0  0  0  0  0  0  0  0
  -26.7999  -31.0867   22.1672 O   0  0  0  0  0  0  0  0  0  0  0  0
  -22.6146  -32.6315   21.9390 O   0  0  0  0  0  0  0  0  0  0  0  0
  -20.9079  -28.2471   22.5593 O   0  0  0  0  0  0  0  0  0  0  0  0
  -28.5665  -16.6368   22.1545 O   0  0  0  0  0  0  0  0  0  0  0  0
  -21.5029   -6.9320   21.5094 O   0  0  0  0  0  0  0  0  0  0  0  0
  -26.8181  -25.3578   20.8063 O   0  0  0  0  0  0  0  0  0  1  0  0
  -22.0805   -3.4708   25.7627 F   0  0  0  0  0  0  0  0  0  0  0  0
  -23.6690   -5.2211   21.6617 F   0  0  0  0  0  0  0  0  0  0  0  0
  1  2  1  0  0  0  0
  1  5  2  0  0  0  0
  2  6  2  0  0  0  0
  3  8  2  0  0  0  0
  3 15  1  0  0  0  0
  4  9  1  0  0  0  0
  4 15  2  0  0  0  0
  5 17  1  0  0  0  0
  6 19  1  0  0  0  0
  7 10  2  0  0  0  0
  7 18  1  0  0  0  0
  8 21  1  0  0  0  0
  9 21  2  0  0  0  0
 10 22  1  0  0  0  0
 11 12  2  0  0  0  0
 11 23  1  0  0  0  0
 12 24  1  0  0  0  0
 13 20  1  0  0  0  0
 13 22  2  0  0  0  0
 14 24  2  0  0  0  0
 14 25  1  0  0  0  0
 15 26  1  0  0  0  0
 16 26  1  0  0  0  0
 16 31  2  0  0  0  0
 16 32  1  0  0  0  0
 17 19  2  0  0  0  0
 17 37  1  0  0  0  0
 18 20  2  0  0  0  0
 18 38  1  0  0  0  0
 19 46  1  0  0  0  0
 20 39  1  0  0  0  0
 21 79  1  0  0  0  0
 22 80  1  0  0  0  0
 23 25  2  0  0  0  0
 23 79  1  0  0  0  0
 24 81  1  0  0  0  0
 25 82  1  0  0  0  0
 26 62  2  0  0  0  0
 27 30  1  0  0  0  0
 27 49  1  0  0  0  0
 27 63  2  0  0  0  0
 28 29  2  0  0  0  0
 28 56  1  0  0  0  0
 28 64  1  0  0  0  0
 29 57  1  0  0  0  0
 29 63  1  0  0  0  0
 30 58  1  0  0  0  0
 30 64  2  0  0  0  0
 31 65  1  0  0  0  0
 31 68  1  0  0  0  0
 32 69  1  0  0  0  0
 32 74  2  0  0  0  0
 33 47  1  0  0  0  0
 33 70  1  0  0  0  0
 33 75  2  0  0  0  0
 34 59  1  0  0  0  0
 34 66  1  0  0  0  0
 34 76  2  0  0  0  0
 35 60  1  0  0  0  0
 35 71  1  0  0  0  0
 35 77  2  0  0  0  0
 36 67  1  0  0  0  0
 36 72  1  0  0  0  0
 36 78  2  0  0  0  0
 37 40  1  0  0  0  0
 38 47  1  0  0  0  0
 39 66  1  0  0  0  0
 40 42  1  0  0  0  0
 41 43  1  0  0  0  0
 41 44  1  0  0  0  0
 42 46  1  0  0  0  0
 43 48  1  0  0  0  0
 44 67  1  0  0  0  0
 45 48  1  0  0  0  0
 45 67  1  0  0  0  0
 46 70  1  0  0  0  0
 47 66  1  0  0  0  0
 48 65  1  0  0  0  0
 50 56  1  0  0  0  0
 51 60  1  0  0  0  0
 52 61  1  0  0  0  0
 53 61  1  0  0  0  0
 54 61  1  0  0  0  0
 55 73  1  0  0  0  0
 57 72  1  0  0  0  0
 58 80  1  0  0  0  0
 59 61  1  0  0  0  0
 59 71  1  0  0  0  0
 60 73  1  0  0  0  0
 62 65  1  0  0  0  0
M  CHG  1  73   1
M  ISO  4  36 100  58 101  72 100  80 101
M  END
> <Batch ID>
0177

> <Smiles>
CCc1nc([101CH2:1][101O:1]c2ccc3c(c2)CN(C(=O)C(NC(=O)C(C)NC)C(C)(C)C)C(C(=O)NC2CCCc4ccccc42)C3)c(C)nc1C[100NH:0][100C:0](=O)N1CCCC(n2nc(-c3ccc(Oc4ccc(F)cc4F)cc3)c(C(N)=O)c2N)C1

> <Shape>
0.297

> <Color>
0.112

> <Negative vol penalty>
0.000

$$$$

  -OEChem-04052322523D

 85 94  0     1  0  0  0  0  0999 V2000
  -28.5938  -10.8645   19.5099 C   0  0  0  0  0  0  0  0  0  0  0  0
  -28.2678  -11.8454   20.4410 C   0  0  0  0  0  0  0  0  0  0  0  0
  -25.7981  -29.3094   21.4596 C   0  0  0  0  0  0  0  0  0  0  0  0
  -24.5259  -27.7886   20.0792 C   0  0  0  0  0  0  0  0  0  0  0  0
  -29.5747  -11.1137   18.5509 C   0  0  0  0  0  0  0  0  0  0  0  0
  -28.9235  -13.0758   20.4144 C   0  0  0  0  0  0  0  0  0  0  0  0
  -26.5387  -18.5483   21.7819 C   0  0  0  0  0  0  0  0  0  0  0  0
  -26.9668  -28.6145   21.1482 C   0  0  0  0  0  0  0  0  0  0  0  0
  -25.6945  -27.0937   19.7677 C   0  0  0  0  0  0  0  0  0  0  0  0
  -26.5825  -19.3286   22.9365 C   0  0  0  0  0  0  0  0  0  0  0  0
  -28.4951  -25.7563   22.1069 C   0  0  0  0  0  0  0  0  0  0  0  0
  -29.3711  -25.4620   23.1517 C   0  0  0  0  0  0  0  0  0  0  0  0
  -28.4380  -20.5686   22.0209 C   0  0  0  0  0  0  0  0  0  0  0  0
  -31.1096  -26.7280   22.0507 C   0  0  0  0  0  0  0  0  0  0  0  0
  -26.1216  -24.1198   25.3085 C   0  0  0  0  0  0  0  0  0  0  0  0
  -24.5777  -28.8964   20.9251 C   0  0  0  0  0  0  0  0  0  0  0  0
  -23.0926  -30.9696   20.9902 C   0  0  0  0  0  0  0  0  0  0  0  0
  -30.2359  -12.3513   18.5065 C   0  0  0  0  0  0  0  0  0  0  0  0
  -27.4529  -18.7656   20.7409 C   0  0  0  0  0  0  0  0  0  0  0  0
  -29.9151  -13.3413   19.4548 C   0  0  0  0  0  0  0  0  0  0  0  0
  -28.4021  -19.7915   20.8531 C   0  0  0  0  0  0  0  0  0  0  0  0
  -25.3425  -24.4978   24.2340 C   0  0  0  0  0  0  0  0  0  0  0  0
  -26.9150  -27.5067   20.3022 C   0  0  0  0  0  0  0  0  0  0  0  0
  -27.5341  -20.3370   23.0573 C   0  0  0  0  0  0  0  0  0  0  0  0
  -28.9263  -26.5365   21.0340 C   0  0  0  0  0  0  0  0  0  0  0  0
  -30.6784  -25.9478   23.1236 C   0  0  0  0  0  0  0  0  0  0  0  0
  -30.2335  -27.0224   21.0059 C   0  0  0  0  0  0  0  0  0  0  0  0
  -23.3700  -29.6135   21.2469 C   0  0  0  0  0  0  0  0  0  0  0  0
  -25.3734  -23.6490   23.1463 C   0  0  0  0  0  0  0  0  0  0  0  0
  -21.8251  -31.1601   21.4838 C   0  0  0  0  0  0  0  0  0  0  0  0
  -26.8219  -22.2571   24.2099 C   0  0  0  0  0  0  0  0  0  1  0  0
  -23.9076  -31.9677   20.3617 C   0  0  0  0  0  0  0  0  0  0  0  0
  -29.7251  -17.0300   19.3523 C   0  0  0  0  0  0  0  0  0  0  0  0
  -29.8857  -19.5652   17.3351 C   0  0  0  0  0  0  0  0  0  0  0  0
  -29.3302  -22.8916   16.8126 C   0  0  0  0  0  0  0  0  0  0  0  0
  -21.1257  -26.2092   23.5240 C   0  0  0  0  0  0  0  0  0  0  0  0
  -31.3225  -12.5574   17.4811 C   0  0  0  0  0  0  0  0  0  0  0  0
  -27.3753  -17.9329   19.4908 C   0  0  0  0  0  0  0  0  0  0  0  0
  -29.3930  -20.0785   19.7556 C   0  0  0  0  0  0  0  0  0  0  0  0
  -31.7058  -14.0220   17.2857 C   0  0  0  0  0  0  0  0  0  0  0  0
  -19.0258  -27.8051   21.2007 C   0  0  0  0  0  0  0  0  0  0  0  0
  -31.8897  -14.7102   18.6346 C   0  0  0  0  0  0  0  0  0  0  0  0
  -19.0145  -29.2706   21.6270 C   0  0  0  0  0  0  0  0  0  0  0  0
  -19.0214  -26.8862   22.4137 C   0  0  0  0  0  0  0  0  0  0  0  0
  -22.2906  -27.8422   25.0667 C   0  0  0  0  0  0  0  0  0  0  0  0
  -20.2132  -28.5729   23.7859 C   0  0  0  0  0  0  0  0  0  0  0  0
  -22.2624  -27.6823   26.5810 C   0  0  0  0  0  0  0  0  0  0  0  0
  -23.1014  -25.3456   26.3456 C   0  0  0  0  0  0  0  0  0  0  0  0
  -30.5865  -14.6975   19.4427 C   0  0  1  0  0  0  0  0  0  0  0  0
  -28.6855  -17.9041   18.7098 C   0  0  1  0  0  0  0  0  0  0  0  0
  -20.1074  -29.6182   22.6528 C   0  0  1  0  0  0  0  0  0  0  0  0
  -23.1195  -25.4963   24.8237 C   0  0  2  0  0  0  0  0  0  0  0  0
  -24.5699  -23.9573   21.9262 C   0  0  0  0  0  0  0  0  0  0  0  0
  -29.5976  -24.6847   15.0774 C   0  0  0  0  0  0  0  0  0  0  0  0
  -32.8779  -19.6819   17.9204 C   0  0  0  0  0  0  0  0  0  0  0  0
  -32.9057  -21.9922   16.9558 C   0  0  0  0  0  0  0  0  0  0  0  0
  -32.2686  -20.0519   15.5232 C   0  0  0  0  0  0  0  0  0  0  0  0
  -23.3842  -26.5619   28.5035 C   0  0  0  0  0  0  0  0  0  0  0  0
  -26.4155  -23.3964   16.7179 C   0  0  0  0  0  0  0  0  0  0  0  0
  -24.5241  -25.7570   24.2712 C   0  0  0  0  0  0  0  0  0  0  0  0
  -30.6641  -20.8582   17.3029 C   0  0  1  0  0  0  0  0  0  0  0  0
  -28.6684  -23.6344   15.6659 C   0  0  2  0  0  0  0  0  0  0  0  0
  -32.1618  -20.6396   16.9473 C   0  0  0  0  0  0  0  0  0  0  0  0
  -26.8765  -23.0018   25.3306 N   0  0  0  0  0  0  0  0  0  0  0  0
  -22.3601  -28.9869   21.8564 N   0  0  0  0  0  0  0  0  0  0  0  0
  -26.1047  -22.5162   23.1000 N   0  0  0  0  0  0  0  0  0  0  0  0
  -21.4357  -29.9536   21.9869 N   0  0  0  0  0  0  0  0  0  0  0  0
  -29.2810  -19.2329   18.5556 N   0  0  0  0  0  0  0  0  0  0  0  0
  -20.1353  -27.1826   23.3129 N   0  0  0  0  0  0  0  0  0  0  0  0
  -22.1861  -26.5463   24.3802 N   0  0  0  0  0  0  0  0  0  0  0  0
  -21.0168  -32.2403   21.5324 N   0  0  0  0  0  0  0  0  0  0  0  0
  -23.8147  -32.1286   18.9726 N   0  0  0  0  0  0  0  0  0  0  0  0
  -29.6763  -15.7090   18.9499 N   0  0  0  0  0  0  0  0  0  0  0  0
  -29.9538  -21.7395   16.3825 N   0  0  0  0  0  0  0  0  0  0  0  0
  -23.3088  -26.6854   27.0067 N   0  3  2  0  0  0  0  0  0  0  0  0
  -27.4285  -24.3144   16.1362 N   0  3  0  0  0  0  0  0  0  0  0  0
  -24.7071  -32.6842   21.0106 O   0  0  0  0  0  0  0  0  0  0  0  0
  -30.5141  -17.5182   20.1528 O   0  0  0  0  0  0  0  0  0  0  0  0
  -29.8107  -18.8788   16.3128 O   0  0  0  0  0  0  0  0  0  0  0  0
  -29.3003  -23.2951   17.9731 O   0  0  0  0  0  0  0  0  0  0  0  0
  -21.0744  -25.1065   22.9644 O   0  0  0  0  0  0  0  0  0  0  0  0
  -28.0552  -26.8285   19.9979 O   0  0  0  0  0  0  0  0  0  0  0  0
  -27.5800  -21.1093   24.1978 O   0  0  0  0  0  0  0  0  0  1  0  0
  -31.5190  -25.6664   24.1277 F   0  0  0  0  0  0  0  0  0  0  0  0
  -30.6532  -27.7734   19.9784 F   0  0  0  0  0  0  0  0  0  0  0  0
  1  2  1  0  0  0  0
  1  5  2  0  0  0  0
  2  6  2  0  0  0  0
  3  8  2  0  0  0  0
  3 16  1  0  0  0  0
  4  9  1  0  0  0  0
  4 16  2  0  0  0  0
  5 18  1  0  0  0  0
  6 20  1  0  0  0  0
  7 10  2  0  0  0  0
  7 19  1  0  0  0  0
  8 23  1  0  0  0  0
  9 23  2  0  0  0  0
 10 24  1  0  0  0  0
 11 12  2  0  0  0  0
 11 25  1  0  0  0  0
 12 26  1  0  0  0  0
 13 21  1  0  0  0  0
 13 24  2  0  0  0  0
 14 26  2  0  0  0  0
 14 27  1  0  0  0  0
 15 22  1  0  0  0  0
 15 64  2  0  0  0  0
 16 28  1  0  0  0  0
 17 28  1  0  0  0  0
 17 30  2  0  0  0  0
 17 32  1  0  0  0  0
 18 20  2  0  0  0  0
 18 37  1  0  0  0  0
 19 21  2  0  0  0  0
 19 38  1  0  0  0  0
 20 49  1  0  0  0  0
 21 39  1  0  0  0  0
 22 29  2  0  0  0  0
 22 60  1  0  0  0  0
 23 82  1  0  0  0  0
 24 83  1  0  0  0  0
 25 27  2  0  0  0  0
 25 82  1  0  0  0  0
 26 84  1  0  0  0  0
 27 85  1  0  0  0  0
 28 65  2  0  0  0  0
 29 53  1  0  0  0  0
 29 66  1  0  0  0  0
 30 67  1  0  0  0  0
 30 71  1  0  0  0  0
 31 64  1  0  0  0  0
 31 66  2  0  0  0  0
 31 83  1  0  0  0  0
 32 72  1  0  0  0  0
 32 77  2  0  0  0  0
 33 50  1  0  0  0  0
 33 73  1  0  0  0  0
 33 78  2  0  0  0  0
 34 61  1  0  0  0  0
 34 68  1  0  0  0  0
 34 79  2  0  0  0  0
 35 62  1  0  0  0  0
 35 74  1  0  0  0  0
 35 80  2  0  0  0  0
 36 69  1  0  0  0  0
 36 70  1  0  0  0  0
 36 81  2  0  0  0  0
 37 40  1  0  0  0  0
 38 50  1  0  0  0  0
 39 68  1  0  0  0  0
 40 42  1  0  0  0  0
 41 43  1  0  0  0  0
 41 44  1  0  0  0  0
 42 49  1  0  0  0  0
 43 51  1  0  0  0  0
 44 69  1  0  0  0  0
 45 47  1  0  0  0  0
 45 70  1  0  0  0  0
 46 51  1  0  0  0  0
 46 69  1  0  0  0  0
 47 75  1  0  0  0  0
 48 52  1  0  0  0  0
 48 75  1  0  0  0  0
 49 73  1  0  0  0  0
 50 68  1  0  0  0  0
 51 67  1  0  0  0  0
 52 60  1  0  0  0  0
 52 70  1  0  0  0  0
 54 62  1  0  0  0  0
 55 63  1  0  0  0  0
 56 63  1  0  0  0  0
 57 63  1  0  0  0  0
 58 75  1  0  0  0  0
 59 76  1  0  0  0  0
 61 63  1  0  0  0  0
 61 74  1  0  0  0  0
 62 76  1  0  0  0  0
 65 67  1  0  0  0  0
M  CHG  2  75   1  76   1
M  ISO  4  31 101  36 100  70 100  83 101
M  END
> <Batch ID>
0177

> <Smiles>
CNC(C)C(=O)NC(C(=O)N1Cc2cc([101O:1][101c:1]3ncc(CC4CN(C)CC[100N:0]4[100C:0](=O)N4CCCC(n5nc(-c6ccc(Oc7ccc(F)cc7F)cc6)c(C(N)=O)c5N)C4)c(C)n3)ccc2CC1C(=O)NC1CCCc2ccccc21)C(C)(C)C

> <Shape>
0.229

> <Color>
0.078

> <Negative vol penalty>
0.000

$$$$

  -OEChem-04052322523D

 83 92  0     1  0  0  0  0  0999 V2000
  -35.4873  -32.4432   20.8262 C   0  0  0  0  0  0  0  0  0  0  0  0
  -34.6076  -31.3655   20.8390 C   0  0  0  0  0  0  0  0  0  0  0  0
  -24.5082   -9.2414   22.1874 C   0  0  0  0  0  0  0  0  0  0  0  0
  -23.8893   -9.2480   19.8520 C   0  0  0  0  0  0  0  0  0  0  0  0
  -35.3433  -33.4701   21.7582 C   0  0  0  0  0  0  0  0  0  0  0  0
  -33.5840  -31.3136   21.7845 C   0  0  0  0  0  0  0  0  0  0  0  0
  -29.1450  -29.9437   19.7687 C   0  0  0  0  0  0  0  0  0  0  0  0
  -23.3487   -8.5288   22.4927 C   0  0  0  0  0  0  0  0  0  0  0  0
  -22.7298   -8.5353   20.1573 C   0  0  0  0  0  0  0  0  0  0  0  0
  -28.9579  -28.5880   19.5024 C   0  0  0  0  0  0  0  0  0  0  0  0
  -20.7315   -6.3946   23.8385 C   0  0  0  0  0  0  0  0  0  0  0  0
  -20.8465   -5.3113   24.7094 C   0  0  0  0  0  0  0  0  0  0  0  0
  -26.9726  -24.1165   18.7188 C   0  0  0  0  0  0  0  0  0  0  0  0
  -26.7116  -22.7640   18.5870 C   0  0  0  0  0  0  0  0  0  0  0  0
  -27.6807  -28.3706   21.5372 C   0  0  0  0  0  0  0  0  0  0  0  0
  -22.3840   -4.2454   23.1806 C   0  0  0  0  0  0  0  0  0  0  0  0
  -24.7785   -9.6010   20.8671 C   0  0  0  0  0  0  0  0  0  0  0  0
  -27.2362   -9.8079   20.2155 C   0  0  0  0  0  0  0  0  0  0  0  0
  -34.3115  -33.4355   22.7095 C   0  0  0  0  0  0  0  0  0  0  0  0
  -28.6096  -30.5216   20.9288 C   0  0  0  0  0  0  0  0  0  0  0  0
  -33.4269  -32.3403   22.7309 C   0  0  0  0  0  0  0  0  0  0  0  0
  -27.8602  -29.7344   21.8147 C   0  0  0  0  0  0  0  0  0  0  0  0
  -22.4595   -8.1757   21.4777 C   0  0  0  0  0  0  0  0  0  0  0  0
  -28.2281  -27.8006   20.3881 C   0  0  0  0  0  0  0  0  0  0  0  0
  -21.4427   -6.4034   22.6385 C   0  0  0  0  0  0  0  0  0  0  0  0
  -21.6728   -4.2367   24.3806 C   0  0  0  0  0  0  0  0  0  0  0  0
  -22.2689   -5.3288   22.3096 C   0  0  0  0  0  0  0  0  0  0  0  0
  -25.9759  -10.3377   20.5512 C   0  0  0  0  0  0  0  0  0  0  0  0
  -28.2919  -24.5155   18.7946 C   0  0  0  0  0  0  0  0  0  0  0  0
  -27.7872  -21.9000   18.5393 C   0  0  0  0  0  0  0  0  0  0  0  0
  -28.0280  -10.9108   20.0079 C   0  0  0  0  0  0  0  0  0  0  0  0
  -27.6539   -8.4411   20.1014 C   0  0  0  0  0  0  0  0  0  0  0  0
  -29.8304  -31.9586   23.4878 C   0  0  0  0  0  0  0  0  0  0  0  0
  -26.7104  -32.5056   24.1868 C   0  0  0  0  0  0  0  0  0  0  0  0
  -23.4487  -31.5807   23.7964 C   0  0  0  0  0  0  0  0  0  0  0  0
  -26.9823  -16.3379   18.3105 C   0  0  0  0  0  0  0  0  0  0  0  0
  -34.2246  -34.5455   23.7269 C   0  0  0  0  0  0  0  0  0  0  0  0
  -28.7977  -31.9912   21.1881 C   0  0  0  0  0  0  0  0  0  0  0  0
  -27.2474  -30.3110   23.0639 C   0  0  0  0  0  0  0  0  0  0  0  0
  -32.8849  -34.5992   24.4568 C   0  0  0  0  0  0  0  0  0  0  0  0
  -28.5336  -15.4718   21.3408 C   0  0  0  0  0  0  0  0  0  0  0  0
  -32.4725  -33.2052   24.9188 C   0  0  0  0  0  0  0  0  0  0  0  0
  -28.1738  -13.9907   21.4538 C   0  0  0  0  0  0  0  0  0  0  0  0
  -27.3650  -16.3069   20.8150 C   0  0  0  0  0  0  0  0  0  0  0  0
  -28.4903  -19.6734   17.7171 C   0  0  0  0  0  0  0  0  0  0  0  0
  -26.7001  -19.8932   19.4472 C   0  0  0  0  0  0  0  0  0  0  0  0
  -27.8349  -18.3842   17.2291 C   0  0  0  0  0  0  0  0  0  0  0  0
  -26.0701  -18.6084   18.9208 C   0  0  0  0  0  0  0  0  0  0  0  0
  -26.4375  -14.3294   19.6544 C   0  0  0  0  0  0  0  0  0  0  0  0
  -32.2888  -32.2603   23.7251 C   0  0  1  0  0  0  0  0  0  0  0  0
  -28.6436  -32.3628   22.6597 C   0  0  1  0  0  0  0  0  0  0  0  0
  -27.6110  -13.4561   20.1249 C   0  0  2  0  0  0  0  0  0  0  0  0
  -21.1264  -32.1958   24.5218 C   0  0  0  0  0  0  0  0  0  0  0  0
  -27.2283  -31.2363   26.9128 C   0  0  0  0  0  0  0  0  0  0  0  0
  -24.7514  -31.0123   27.2013 C   0  0  0  0  0  0  0  0  0  0  0  0
  -25.7789  -33.2735   26.9690 C   0  0  0  0  0  0  0  0  0  0  0  0
  -22.6000  -32.1286   21.0146 C   0  0  0  0  0  0  0  0  0  0  0  0
  -28.6274  -25.9606   18.9352 C   0  0  0  0  0  0  0  0  0  1  0  0
  -25.6390  -31.7621   24.9472 C   0  0  1  0  0  0  0  0  0  0  0  0
  -22.2054  -32.3873   23.4674 C   0  0  2  0  0  0  0  0  0  0  0  0
  -25.8624  -31.8094   26.4851 C   0  0  0  0  0  0  0  0  0  0  0  0
  -25.9631  -11.6733   20.5578 N   0  0  0  0  0  0  0  0  0  0  0  0
  -29.3248  -23.6477   18.7454 N   0  0  0  0  0  0  0  0  0  0  0  0
  -29.0682  -22.3185   18.6154 N   0  0  0  0  0  0  0  0  0  0  0  0
  -27.2252  -11.9920   20.2238 N   0  0  0  0  0  0  0  0  0  0  0  0
  -27.5219  -20.5307   18.4093 N   0  0  0  0  0  0  0  0  0  0  0  0
  -27.4645  -31.7516   23.2765 N   0  0  0  0  0  0  0  0  0  0  0  0
  -26.8360  -15.7359   19.5692 N   0  0  0  0  0  0  0  0  0  0  0  0
  -27.0608  -17.7391   18.2827 N   0  0  0  0  0  0  0  0  0  0  0  0
  -29.3258  -11.0515   19.6636 N   0  0  0  0  0  0  0  0  0  0  0  0
  -26.7130   -7.4321   20.3487 N   0  0  0  0  0  0  0  0  0  0  0  0
  -31.0242  -32.5146   23.0690 N   0  0  0  0  0  0  0  0  0  0  0  0
  -24.3649  -32.3232   24.5109 N   0  0  0  0  0  0  0  0  0  0  0  0
  -21.6522  -31.9711   22.1477 N   0  3  0  0  0  0  0  0  0  0  0  0
  -28.8308   -8.1238   19.8055 O   0  0  0  0  0  0  0  0  0  0  0  0
  -29.6745  -31.1997   24.4372 O   0  0  0  0  0  0  0  0  0  0  0  0
  -26.8676  -33.7124   24.3878 O   0  0  0  0  0  0  0  0  0  0  0  0
  -23.5911  -30.4081   23.4570 O   0  0  0  0  0  0  0  0  0  0  0  0
  -27.0426  -15.6660   17.2733 O   0  0  0  0  0  0  0  0  0  0  0  0
  -21.3280   -7.4801   21.7752 O   0  0  0  0  0  0  0  0  0  0  0  0
  -28.0434  -26.4680   20.1291 O   0  0  0  0  0  0  0  0  0  1  0  0
  -21.7844   -3.1971   25.2178 F   0  0  0  0  0  0  0  0  0  0  0  0
  -22.9556   -5.3321   21.1588 F   0  0  0  0  0  0  0  0  0  0  0  0
  1  2  1  0  0  0  0
  1  5  2  0  0  0  0
  2  6  2  0  0  0  0
  3  8  2  0  0  0  0
  3 17  1  0  0  0  0
  4  9  1  0  0  0  0
  4 17  2  0  0  0  0
  5 19  1  0  0  0  0
  6 21  1  0  0  0  0
  7 10  2  0  0  0  0
  7 20  1  0  0  0  0
  8 23  1  0  0  0  0
  9 23  2  0  0  0  0
 10 24  1  0  0  0  0
 11 12  2  0  0  0  0
 11 25  1  0  0  0  0
 12 26  1  0  0  0  0
 13 14  2  0  0  0  0
 13 29  1  0  0  0  0
 14 30  1  0  0  0  0
 15 22  1  0  0  0  0
 15 24  2  0  0  0  0
 16 26  2  0  0  0  0
 16 27  1  0  0  0  0
 17 28  1  0  0  0  0
 18 28  1  0  0  0  0
 18 31  2  0  0  0  0
 18 32  1  0  0  0  0
 19 21  2  0  0  0  0
 19 37  1  0  0  0  0
 20 22  2  0  0  0  0
 20 38  1  0  0  0  0
 21 50  1  0  0  0  0
 22 39  1  0  0  0  0
 23 80  1  0  0  0  0
 24 81  1  0  0  0  0
 25 27  2  0  0  0  0
 25 80  1  0  0  0  0
 26 82  1  0  0  0  0
 27 83  1  0  0  0  0
 28 62  2  0  0  0  0
 29 58  1  0  0  0  0
 29 63  2  0  0  0  0
 30 64  2  0  0  0  0
 30 66  1  0  0  0  0
 31 65  1  0  0  0  0
 31 70  1  0  0  0  0
 32 71  1  0  0  0  0
 32 75  2  0  0  0  0
 33 51  1  0  0  0  0
 33 72  1  0  0  0  0
 33 76  2  0  0  0  0
 34 59  1  0  0  0  0
 34 67  1  0  0  0  0
 34 77  2  0  0  0  0
 35 60  1  0  0  0  0
 35 73  1  0  0  0  0
 35 78  2  0  0  0  0
 36 68  1  0  0  0  0
 36 69  1  0  0  0  0
 36 79  2  0  0  0  0
 37 40  1  0  0  0  0
 38 51  1  0  0  0  0
 39 67  1  0  0  0  0
 40 42  1  0  0  0  0
 41 43  1  0  0  0  0
 41 44  1  0  0  0  0
 42 50  1  0  0  0  0
 43 52  1  0  0  0  0
 44 68  1  0  0  0  0
 45 47  1  0  0  0  0
 45 66  1  0  0  0  0
 46 48  1  0  0  0  0
 46 66  1  0  0  0  0
 47 69  1  0  0  0  0
 48 69  1  0  0  0  0
 49 52  1  0  0  0  0
 49 68  1  0  0  0  0
 50 72  1  0  0  0  0
 51 67  1  0  0  0  0
 52 65  1  0  0  0  0
 53 60  1  0  0  0  0
 54 61  1  0  0  0  0
 55 61  1  0  0  0  0
 56 61  1  0  0  0  0
 57 74  1  0  0  0  0
 58 81  1  0  0  0  0
 59 61  1  0  0  0  0
 59 73  1  0  0  0  0
 60 74  1  0  0  0  0
 62 65  1  0  0  0  0
 63 64  1  0  0  0  0
M  CHG  1  74   1
M  ISO  4  36 100  58 101  69 100  81 101
M  END
> <Batch ID>
0177

> <Smiles>
CNC(C)C(=O)NC(C(=O)N1Cc2cc([101O:1][101CH2:1]c3ccc(N4CC[100N:0]([100C:0](=O)N5CCCC(n6nc(-c7ccc(Oc8ccc(F)cc8F)cc7)c(C(N)=O)c6N)C5)CC4)nn3)ccc2CC1C(=O)NC1CCCc2ccccc21)C(C)(C)C

> <Shape>
0.237

> <Color>
0.107

> <Negative vol penalty>
0.000

$$$$

  -OEChem-04052322523D

 82 91  0     1  0  0  0  0  0999 V2000
  -25.5927  -11.0264   20.7488 C   0  0  0  0  0  0  0  0  0  0  0  0
  -26.6465  -11.8915   20.4724 C   0  0  0  0  0  0  0  0  0  0  0  0
  -21.2484  -26.6282   22.2254 C   0  0  0  0  0  0  0  0  0  0  0  0
  -20.0797  -28.6131   22.9544 C   0  0  0  0  0  0  0  0  0  0  0  0
  -24.2793  -11.4918   20.7012 C   0  0  0  0  0  0  0  0  0  0  0  0
  -26.3874  -13.2225   20.1471 C   0  0  0  0  0  0  0  0  0  0  0  0
  -29.1707  -19.7855   20.8516 C   0  0  0  0  0  0  0  0  0  0  0  0
  -20.1418  -25.8510   22.5674 C   0  0  0  0  0  0  0  0  0  0  0  0
  -18.9731  -27.8359   23.2964 C   0  0  0  0  0  0  0  0  0  0  0  0
  -29.5101  -20.8995   20.0851 C   0  0  0  0  0  0  0  0  0  0  0  0
  -17.4901  -23.3885   22.9128 C   0  0  0  0  0  0  0  0  0  0  0  0
  -17.0762  -22.4142   22.0045 C   0  0  0  0  0  0  0  0  0  0  0  0
  -27.2055  -21.6119   20.1109 C   0  0  0  0  0  0  0  0  0  0  0  0
  -29.7528  -26.2384   20.8944 C   0  0  0  0  0  0  0  0  0  0  0  0
  -27.9307  -25.9032   19.3609 C   0  0  0  0  0  0  0  0  0  0  0  0
  -16.7066  -24.1243   20.3384 C   0  0  0  0  0  0  0  0  0  0  0  0
  -21.2174  -28.0093   22.4189 C   0  0  0  0  0  0  0  0  0  0  0  0
  -22.6205  -29.4221   20.8243 C   0  0  0  0  0  0  0  0  0  0  0  0
  -24.0045  -12.8315   20.3847 C   0  0  0  0  0  0  0  0  0  0  0  0
  -27.8420  -19.5702   21.2451 C   0  0  0  0  0  0  0  0  0  0  0  0
  -25.0690  -13.7060   20.0939 C   0  0  0  0  0  0  0  0  0  0  0  0
  -26.8523  -20.4957   20.8846 C   0  0  0  0  0  0  0  0  0  0  0  0
  -29.2627  -25.7055   19.7074 C   0  0  0  0  0  0  0  0  0  0  0  0
  -19.0041  -26.4549   23.1029 C   0  0  0  0  0  0  0  0  0  0  0  0
  -28.5269  -21.8114   19.7121 C   0  0  0  0  0  0  0  0  0  0  0  0
  -17.5122  -24.7308   22.5339 C   0  0  0  0  0  0  0  0  0  0  0  0
  -16.6845  -22.7820   20.7173 C   0  0  0  0  0  0  0  0  0  0  0  0
  -17.1205  -25.0987   21.2467 C   0  0  0  0  0  0  0  0  0  0  0  0
  -22.3604  -28.8126   22.0663 C   0  0  0  0  0  0  0  0  0  0  0  0
  -28.8772  -26.9555   21.6938 C   0  0  0  0  0  0  0  0  0  0  0  0
  -27.1366  -26.6350   20.2290 C   0  0  0  0  0  0  0  0  0  0  0  0
  -23.8213  -30.0648   21.0020 C   0  0  0  0  0  0  0  0  0  0  0  0
  -21.8460  -29.4086   19.6178 C   0  0  0  0  0  0  0  0  0  0  0  0
  -25.6858  -17.2960   20.7139 C   0  0  0  0  0  0  0  0  0  0  0  0
  -23.9397  -18.9936   22.8566 C   0  0  0  0  0  0  0  0  0  0  0  0
  -23.3325  -21.9894   24.3743 C   0  0  0  0  0  0  0  0  0  0  0  0
  -28.4158  -29.1153   24.6424 C   0  0  0  0  0  0  0  0  0  0  0  0
  -22.5661  -13.2769   20.2993 C   0  0  0  0  0  0  0  0  0  0  0  0
  -27.4968  -18.3778   22.0944 C   0  0  0  0  0  0  0  0  0  0  0  0
  -25.4147  -20.3210   21.2985 C   0  0  0  0  0  0  0  0  0  0  0  0
  -22.3963  -14.7939   20.3131 C   0  0  0  0  0  0  0  0  0  0  0  0
  -26.5281  -32.1206   24.3724 C   0  0  0  0  0  0  0  0  0  0  0  0
  -23.3806  -15.4500   19.3500 C   0  0  0  0  0  0  0  0  0  0  0  0
  -25.2556  -31.6714   23.6505 C   0  0  0  0  0  0  0  0  0  0  0  0
  -27.0266  -31.0575   25.3482 C   0  0  0  0  0  0  0  0  0  0  0  0
  -29.2565  -26.8102   24.2739 C   0  0  0  0  0  0  0  0  0  0  0  0
  -25.9480  -29.2665   24.0257 C   0  0  0  0  0  0  0  0  0  0  0  0
  -24.8296  -15.1628   19.7614 C   0  0  1  0  0  0  0  0  0  0  0  0
  -29.3857  -27.5407   22.9850 C   0  0  2  0  0  0  0  0  0  0  0  0
  -26.0251  -17.9862   22.0046 C   0  0  1  0  0  0  0  0  0  0  0  0
  -25.4471  -30.2913   22.9940 C   0  0  1  0  0  0  0  0  0  0  0  0
  -21.8175  -23.0752   26.0545 C   0  0  0  0  0  0  0  0  0  0  0  0
  -21.6973  -19.0595   20.7885 C   0  0  0  0  0  0  0  0  0  0  0  0
  -20.6344  -20.9068   22.1022 C   0  0  0  0  0  0  0  0  0  0  0  0
  -20.9386  -18.6577   23.1374 C   0  0  0  0  0  0  0  0  0  0  0  0
  -25.5987  -22.6647   26.1540 C   0  0  0  0  0  0  0  0  0  0  0  0
  -30.1733  -24.9161   18.7987 C   0  0  0  0  0  0  0  0  0  0  0  0
  -30.1710  -23.4270   19.1269 C   0  0  0  0  0  0  0  0  0  1  0  0
  -22.9565  -20.1358   22.7690 C   0  0  1  0  0  0  0  0  0  0  0  0
  -23.1405  -22.3584   25.8342 C   0  0  2  0  0  0  0  0  0  0  0  0
  -21.5834  -19.6925   22.1897 C   0  0  0  0  0  0  0  0  0  0  0  0
  -23.3189  -29.0470   22.9665 N   0  0  0  0  0  0  0  0  0  0  0  0
  -27.5771  -27.1683   21.3906 N   0  0  0  0  0  0  0  0  0  0  0  0
  -24.1931  -29.8108   22.2894 N   0  0  0  0  0  0  0  0  0  0  0  0
  -25.1261  -19.1360   22.1231 N   0  0  0  0  0  0  0  0  0  0  0  0
  -27.1670  -29.7652   24.6778 N   0  0  0  0  0  0  0  0  0  0  0  0
  -28.3898  -27.8998   23.9610 N   0  0  0  0  0  0  0  0  0  0  0  0
  -25.7817  -26.8289   19.8619 N   0  0  0  0  0  0  0  0  0  0  0  0
  -24.5848  -30.8168   20.1810 N   0  0  0  0  0  0  0  0  0  0  0  0
  -20.6370  -28.6995   19.6079 N   0  0  0  0  0  0  0  0  0  0  0  0
  -25.2162  -16.0061   20.8722 N   0  0  0  0  0  0  0  0  0  0  0  0
  -22.8822  -20.7140   24.1063 N   0  0  0  0  0  0  0  0  0  0  0  0
  -24.2414  -23.2527   26.2915 N   0  3  0  0  0  0  0  0  0  0  0  0
  -22.2230  -29.9939   18.5744 O   0  0  0  0  0  0  0  0  0  0  0  0
  -25.8374  -17.8902   19.6529 O   0  0  0  0  0  0  0  0  0  0  0  0
  -23.6684  -18.0144   23.5561 O   0  0  0  0  0  0  0  0  0  0  0  0
  -23.8286  -22.7573   23.5528 O   0  0  0  0  0  0  0  0  0  0  0  0
  -29.4368  -29.5788   25.1573 O   0  0  0  0  0  0  0  0  0  0  0  0
  -17.9240  -25.6968   23.4365 O   0  0  0  0  0  0  0  0  0  0  0  0
  -28.8554  -22.8992   18.9634 O   0  0  0  0  0  0  0  0  0  1  0  0
  -16.2886  -21.8461   19.8447 F   0  0  0  0  0  0  0  0  0  0  0  0
  -17.1407  -26.3864   20.8766 F   0  0  0  0  0  0  0  0  0  0  0  0
  1  2  1  0  0  0  0
  1  5  2  0  0  0  0
  2  6  2  0  0  0  0
  3  8  2  0  0  0  0
  3 17  1  0  0  0  0
  4  9  1  0  0  0  0
  4 17  2  0  0  0  0
  5 19  1  0  0  0  0
  6 21  1  0  0  0  0
  7 10  2  0  0  0  0
  7 20  1  0  0  0  0
  8 24  1  0  0  0  0
  9 24  2  0  0  0  0
 10 25  1  0  0  0  0
 11 12  2  0  0  0  0
 11 26  1  0  0  0  0
 12 27  1  0  0  0  0
 13 22  1  0  0  0  0
 13 25  2  0  0  0  0
 14 23  2  0  0  0  0
 14 30  1  0  0  0  0
 15 23  1  0  0  0  0
 15 31  2  0  0  0  0
 16 27  2  0  0  0  0
 16 28  1  0  0  0  0
 17 29  1  0  0  0  0
 18 29  1  0  0  0  0
 18 32  2  0  0  0  0
 18 33  1  0  0  0  0
 19 21  2  0  0  0  0
 19 38  1  0  0  0  0
 20 22  2  0  0  0  0
 20 39  1  0  0  0  0
 21 48  1  0  0  0  0
 22 40  1  0  0  0  0
 23 57  1  0  0  0  0
 24 79  1  0  0  0  0
 25 80  1  0  0  0  0
 26 28  2  0  0  0  0
 26 79  1  0  0  0  0
 27 81  1  0  0  0  0
 28 82  1  0  0  0  0
 29 62  2  0  0  0  0
 30 49  1  0  0  0  0
 30 63  2  0  0  0  0
 31 63  1  0  0  0  0
 31 68  1  0  0  0  0
 32 64  1  0  0  0  0
 32 69  1  0  0  0  0
 33 70  1  0  0  0  0
 33 74  2  0  0  0  0
 34 50  1  0  0  0  0
 34 71  1  0  0  0  0
 34 75  2  0  0  0  0
 35 59  1  0  0  0  0
 35 65  1  0  0  0  0
 35 76  2  0  0  0  0
 36 60  1  0  0  0  0
 36 72  1  0  0  0  0
 36 77  2  0  0  0  0
 37 66  1  0  0  0  0
 37 67  1  0  0  0  0
 37 78  2  0  0  0  0
 38 41  1  0  0  0  0
 39 50  1  0  0  0  0
 40 65  1  0  0  0  0
 41 43  1  0  0  0  0
 42 44  1  0  0  0  0
 42 45  1  0  0  0  0
 43 48  1  0  0  0  0
 44 51  1  0  0  0  0
 45 66  1  0  0  0  0
 46 49  1  0  0  0  0
 46 67  1  0  0  0  0
 47 51  1  0  0  0  0
 47 66  1  0  0  0  0
 48 71  1  0  0  0  0
 49 67  1  0  0  0  0
 50 65  1  0  0  0  0
 51 64  1  0  0  0  0
 52 60  1  0  0  0  0
 53 61  1  0  0  0  0
 54 61  1  0  0  0  0
 55 61  1  0  0  0  0
 56 73  1  0  0  0  0
 57 58  1  0  0  0  0
 58 80  1  0  0  0  0
 59 61  1  0  0  0  0
 59 72  1  0  0  0  0
 60 73  1  0  0  0  0
 62 64  1  0  0  0  0
M  CHG  1  73   1
M  ISO  4  37 100  58 101  67 100  80 101
M  END
> <Batch ID>
0177

> <Smiles>
CNC(C)C(=O)NC(C(=O)N1Cc2cc([101O:1][101CH2:1]Cc3cc(N)nc(C4C[100N:0]4[100C:0](=O)N4CCCC(n5nc(-c6ccc(Oc7ccc(F)cc7F)cc6)c(C(N)=O)c5N)C4)c3)ccc2CC1C(=O)NC1CCCc2ccccc21)C(C)(C)C

> <Shape>
0.254

> <Color>
0.070

> <Negative vol penalty>
0.000

$$$$

  -OEChem-04052322523D

 82 91  0     1  0  0  0  0  0999 V2000
  -19.0254  -25.4935   23.0940 C   0  0  0  0  0  0  0  0  0  0  0  0
  -19.8956  -25.7000   22.0285 C   0  0  0  0  0  0  0  0  0  0  0  0
  -22.7476  -14.9874   21.2505 C   0  0  0  0  0  0  0  0  0  0  0  0
  -24.9123  -13.9166   21.3159 C   0  0  0  0  0  0  0  0  0  0  0  0
  -18.5116  -26.5840   23.7944 C   0  0  0  0  0  0  0  0  0  0  0  0
  -20.2517  -26.9975   21.6620 C   0  0  0  0  0  0  0  0  0  0  0  0
  -25.2160  -27.4746   20.7828 C   0  0  0  0  0  0  0  0  0  0  0  0
  -22.1908  -13.8287   20.7092 C   0  0  0  0  0  0  0  0  0  0  0  0
  -24.3555  -12.7578   20.7747 C   0  0  0  0  0  0  0  0  0  0  0  0
  -25.6940  -27.0058   19.5599 C   0  0  0  0  0  0  0  0  0  0  0  0
  -22.5266  -10.1324   21.8622 C   0  0  0  0  0  0  0  0  0  0  0  0
  -22.8808   -8.9136   22.4407 C   0  0  0  0  0  0  0  0  0  0  0  0
  -25.7016  -29.2614   18.7049 C   0  0  0  0  0  0  0  0  0  0  0  0
  -23.7888   -8.1744   20.3274 C   0  0  0  0  0  0  0  0  0  0  0  0
  -24.1084  -15.0313   21.5538 C   0  0  0  0  0  0  0  0  0  0  0  0
  -24.8058  -16.5568   23.4758 C   0  0  0  0  0  0  0  0  0  0  0  0
  -18.8691  -27.8951   23.4425 C   0  0  0  0  0  0  0  0  0  0  0  0
  -24.9665  -28.8414   20.9727 C   0  0  0  0  0  0  0  0  0  0  0  0
  -19.7411  -28.1067   22.3575 C   0  0  0  0  0  0  0  0  0  0  0  0
  -25.2229  -29.7454   19.9319 C   0  0  0  0  0  0  0  0  0  0  0  0
  -22.9947  -12.7139   20.4714 C   0  0  0  0  0  0  0  0  0  0  0  0
  -25.9342  -27.8988   18.5198 C   0  0  0  0  0  0  0  0  0  0  0  0
  -22.8033  -10.3722   20.5162 C   0  0  0  0  0  0  0  0  0  0  0  0
  -23.5120   -7.9347   21.6733 C   0  0  0  0  0  0  0  0  0  0  0  0
  -23.4345   -9.3932   19.7488 C   0  0  0  0  0  0  0  0  0  0  0  0
  -24.6843  -16.2282   22.1124 C   0  0  0  0  0  0  0  0  0  0  0  0
  -25.4154  -17.7876   23.4794 C   0  0  0  0  0  0  0  0  0  0  0  0
  -24.4036  -15.8157   24.6355 C   0  0  0  0  0  0  0  0  0  0  0  0
  -22.3895  -30.5801   21.6359 C   0  0  0  0  0  0  0  0  0  0  0  0
  -24.5481  -32.9932   21.8358 C   0  0  0  0  0  0  0  0  0  0  0  0
  -27.6021  -34.2296   20.9463 C   0  0  0  0  0  0  0  0  0  0  0  0
  -29.0105  -20.4905   19.8414 C   0  0  0  0  0  0  0  0  0  0  0  0
  -18.2510  -29.0440   24.1991 C   0  0  0  0  0  0  0  0  0  0  0  0
  -24.4763  -29.3345   22.3065 C   0  0  0  0  0  0  0  0  0  0  0  0
  -24.9906  -31.2249   20.0914 C   0  0  0  0  0  0  0  0  0  0  0  0
  -18.9721  -30.3724   23.9853 C   0  0  0  0  0  0  0  0  0  0  0  0
  -25.8870  -21.7494   20.8493 C   0  0  0  0  0  0  0  0  0  0  0  0
  -19.2542  -30.5941   22.5027 C   0  0  0  0  0  0  0  0  0  0  0  0
  -25.2260  -20.4975   21.4250 C   0  0  0  0  0  0  0  0  0  0  0  0
  -30.8072  -23.6559   19.1707 C   0  0  0  0  0  0  0  0  0  0  0  0
  -29.2535  -23.1727   17.2366 C   0  0  0  0  0  0  0  0  0  0  0  0
  -31.6873  -23.9447   16.7390 C   0  0  0  0  0  0  0  0  0  0  0  0
  -26.6782  -21.4452   19.5761 C   0  0  0  0  0  0  0  0  0  0  0  0
  -30.7913  -22.1727   19.5290 C   0  0  0  0  0  0  0  0  0  0  0  0
  -29.2667  -21.6999   17.6394 C   0  0  0  0  0  0  0  0  0  0  0  0
  -27.0100  -19.1058   20.3079 C   0  0  0  0  0  0  0  0  0  0  0  0
  -20.1705  -29.4981   21.9455 C   0  0  1  0  0  0  0  0  0  0  0  0
  -23.7693  -30.6837   22.2217 C   0  0  1  0  0  0  0  0  0  0  0  0
  -30.9299  -25.1954   17.0956 C   0  0  2  0  0  0  0  0  0  0  0  0
  -26.2550  -19.3699   21.6199 C   0  0  2  0  0  0  0  0  0  0  0  0
  -30.5189  -23.8628   17.6992 C   0  0  0  0  0  0  0  0  0  0  0  0
  -29.0717  -36.2435   21.2332 C   0  0  0  0  0  0  0  0  0  0  0  0
  -22.8271  -34.5305   19.8395 C   0  0  0  0  0  0  0  0  0  0  0  0
  -24.7703  -36.0600   19.4483 C   0  0  0  0  0  0  0  0  0  0  0  0
  -23.7373  -35.9132   21.7141 C   0  0  0  0  0  0  0  0  0  0  0  0
  -29.7247  -32.6379   22.2578 C   0  0  0  0  0  0  0  0  0  0  0  0
  -30.1127  -25.8992   16.0674 C   0  0  0  0  0  0  0  0  0  0  0  0
  -28.2478  -27.5364   15.7833 C   0  0  0  0  0  0  0  0  0  0  0  0
  -27.2203  -28.3297   16.5663 C   0  0  0  0  0  0  0  0  0  1  0  0
  -25.1347  -33.9863   20.8618 C   0  0  1  0  0  0  0  0  0  0  0  0
  -28.7090  -34.8665   21.7671 C   0  0  2  0  0  0  0  0  0  0  0  0
  -24.1200  -35.0945   20.4620 C   0  0  0  0  0  0  0  0  0  0  0  0
  -25.1770  -17.1740   21.3081 N   0  0  0  0  0  0  0  0  0  0  0  0
  -25.6139  -18.1090   22.1689 N   0  0  0  0  0  0  0  0  0  0  0  0
  -24.5049  -31.6573   21.4123 N   0  0  0  0  0  0  0  0  0  0  0  0
  -27.6167  -20.3371   19.7979 N   0  0  0  0  0  0  0  0  0  0  0  0
  -29.5592  -21.5283   19.0704 N   0  0  0  0  0  0  0  0  0  0  0  0
  -25.7956  -18.6155   24.4756 N   0  0  0  0  0  0  0  0  0  0  0  0
  -23.7914  -14.5684   24.4521 N   0  0  0  0  0  0  0  0  0  0  0  0
  -21.5432  -29.7407   22.3347 N   0  0  0  0  0  0  0  0  0  0  0  0
  -26.3571  -34.4899   21.4787 N   0  0  0  0  0  0  0  0  0  0  0  0
  -29.9312  -34.0142   21.7381 N   0  3  0  0  0  0  0  0  0  0  0  0
  -29.0808  -26.7465   16.7270 N   0  3  0  0  0  0  0  0  0  0  0  0
  -24.5671  -16.2542   25.7993 O   0  0  0  0  0  0  0  0  0  0  0  0
  -22.1128  -31.2160   20.6255 O   0  0  0  0  0  0  0  0  0  0  0  0
  -24.1497  -33.3871   22.9348 O   0  0  0  0  0  0  0  0  0  0  0  0
  -27.8199  -33.5706   19.9320 O   0  0  0  0  0  0  0  0  0  0  0  0
  -29.7234  -19.7482   20.5282 O   0  0  0  0  0  0  0  0  0  0  0  0
  -22.4517  -11.5829   19.9435 O   0  0  0  0  0  0  0  0  0  0  0  0
  -26.4034  -27.4405   17.3163 O   0  0  0  0  0  0  0  0  0  1  0  0
  -23.8535   -6.7649   22.2294 F   0  0  0  0  0  0  0  0  0  0  0  0
  -23.7041   -9.6182   18.4556 F   0  0  0  0  0  0  0  0  0  0  0  0
  1  2  1  0  0  0  0
  1  5  2  0  0  0  0
  2  6  2  0  0  0  0
  3  8  2  0  0  0  0
  3 15  1  0  0  0  0
  4  9  1  0  0  0  0
  4 15  2  0  0  0  0
  5 17  1  0  0  0  0
  6 19  1  0  0  0  0
  7 10  2  0  0  0  0
  7 18  1  0  0  0  0
  8 21  1  0  0  0  0
  9 21  2  0  0  0  0
 10 22  1  0  0  0  0
 11 12  2  0  0  0  0
 11 23  1  0  0  0  0
 12 24  1  0  0  0  0
 13 20  1  0  0  0  0
 13 22  2  0  0  0  0
 14 24  2  0  0  0  0
 14 25  1  0  0  0  0
 15 26  1  0  0  0  0
 16 26  1  0  0  0  0
 16 27  2  0  0  0  0
 16 28  1  0  0  0  0
 17 19  2  0  0  0  0
 17 33  1  0  0  0  0
 18 20  2  0  0  0  0
 18 34  1  0  0  0  0
 19 47  1  0  0  0  0
 20 35  1  0  0  0  0
 21 79  1  0  0  0  0
 22 80  1  0  0  0  0
 23 25  2  0  0  0  0
 23 79  1  0  0  0  0
 24 81  1  0  0  0  0
 25 82  1  0  0  0  0
 26 63  2  0  0  0  0
 27 64  1  0  0  0  0
 27 68  1  0  0  0  0
 28 69  1  0  0  0  0
 28 74  2  0  0  0  0
 29 48  1  0  0  0  0
 29 70  1  0  0  0  0
 29 75  2  0  0  0  0
 30 60  1  0  0  0  0
 30 65  1  0  0  0  0
 30 76  2  0  0  0  0
 31 61  1  0  0  0  0
 31 71  1  0  0  0  0
 31 77  2  0  0  0  0
 32 66  1  0  0  0  0
 32 67  1  0  0  0  0
 32 78  2  0  0  0  0
 33 36  1  0  0  0  0
 34 48  1  0  0  0  0
 35 65  1  0  0  0  0
 36 38  1  0  0  0  0
 37 39  1  0  0  0  0
 37 43  1  0  0  0  0
 38 47  1  0  0  0  0
 39 50  1  0  0  0  0
 40 44  1  0  0  0  0
 40 51  1  0  0  0  0
 41 45  1  0  0  0  0
 41 51  1  0  0  0  0
 42 49  1  0  0  0  0
 42 51  1  0  0  0  0
 43 66  1  0  0  0  0
 44 67  1  0  0  0  0
 45 67  1  0  0  0  0
 46 50  1  0  0  0  0
 46 66  1  0  0  0  0
 47 70  1  0  0  0  0
 48 65  1  0  0  0  0
 49 51  1  0  0  0  0
 49 57  1  0  0  0  0
 50 64  1  0  0  0  0
 52 61  1  0  0  0  0
 53 62  1  0  0  0  0
 54 62  1  0  0  0  0
 55 62  1  0  0  0  0
 56 72  1  0  0  0  0
 57 73  1  0  0  0  0
 58 59  1  0  0  0  0
 58 73  1  0  0  0  0
 59 80  1  0  0  0  0
 60 62  1  0  0  0  0
 60 71  1  0  0  0  0
 61 72  1  0  0  0  0
 63 64  1  0  0  0  0
M  CHG  2  72   1  73   1
M  ISO  4  32 100  59 101  67 100  80 101
M  END
> <Batch ID>
0177

> <Smiles>
CNC(C)C(=O)NC(C(=O)N1Cc2cc([101O:1][101CH2:1]CNCC3CC34CC[100N:0]([100C:0](=O)N3CCCC(n5nc(-c6ccc(Oc7ccc(F)cc7F)cc6)c(C(N)=O)c5N)C3)CC4)ccc2CC1C(=O)NC1CCCc2ccccc21)C(C)(C)C

> <Shape>
0.238

> <Color>
0.090

> <Negative vol penalty>
0.000

$$$$

  -OEChem-04052322523D

 83 92  0     1  0  0  0  0  0999 V2000
  -27.2566  -35.4803   22.1429 C   0  0  0  0  0  0  0  0  0  0  0  0
  -27.5993  -34.1336   22.0787 C   0  0  0  0  0  0  0  0  0  0  0  0
  -21.9030  -10.3027   21.8798 C   0  0  0  0  0  0  0  0  0  0  0  0
  -23.8646   -9.9867   20.5052 C   0  0  0  0  0  0  0  0  0  0  0  0
  -26.0245  -35.8603   22.6734 C   0  0  0  0  0  0  0  0  0  0  0  0
  -26.7106  -33.1660   22.5460 C   0  0  0  0  0  0  0  0  0  0  0  0
  -26.2844  -29.2316   19.3864 C   0  0  0  0  0  0  0  0  0  0  0  0
  -21.6849   -8.9250   21.8853 C   0  0  0  0  0  0  0  0  0  0  0  0
  -23.6465   -8.6090   20.5107 C   0  0  0  0  0  0  0  0  0  0  0  0
  -27.3100  -28.2873   19.4034 C   0  0  0  0  0  0  0  0  0  0  0  0
  -20.8167   -5.4602   22.5610 C   0  0  0  0  0  0  0  0  0  0  0  0
  -20.4959   -4.8593   23.7782 C   0  0  0  0  0  0  0  0  0  0  0  0
  -25.9547  -26.8490   20.7867 C   0  0  0  0  0  0  0  0  0  0  0  0
  -27.1983  -19.1117   19.0436 C   0  0  0  0  0  0  0  0  0  0  0  0
  -22.5970   -5.6119   24.7034 C   0  0  0  0  0  0  0  0  0  0  0  0
  -26.6016  -21.3907   17.5925 C   0  0  0  0  0  0  0  0  0  0  0  0
  -22.9929  -10.8335   21.1897 C   0  0  0  0  0  0  0  0  0  0  0  0
  -23.9825  -13.0005   22.1022 C   0  0  0  0  0  0  0  0  0  0  0  0
  -25.1161  -34.8964   23.1386 C   0  0  0  0  0  0  0  0  0  0  0  0
  -25.0884  -28.9960   20.0796 C   0  0  0  0  0  0  0  0  0  0  0  0
  -25.4657  -33.5336   23.0845 C   0  0  0  0  0  0  0  0  0  0  0  0
  -24.9145  -27.7907   20.7748 C   0  0  0  0  0  0  0  0  0  0  0  0
  -28.0532  -20.1948   19.0606 C   0  0  0  0  0  0  0  0  0  0  0  0
  -27.7602  -21.3494   18.3326 C   0  0  0  0  0  0  0  0  0  0  0  0
  -22.5567   -8.0781   21.2008 C   0  0  0  0  0  0  0  0  0  0  0  0
  -27.1464  -27.0971   20.1060 C   0  0  0  0  0  0  0  0  0  0  0  0
  -22.0276   -6.1370   22.4150 C   0  0  0  0  0  0  0  0  0  0  0  0
  -21.3861   -4.9351   24.8494 C   0  0  0  0  0  0  0  0  0  0  0  0
  -22.9178   -6.2128   23.4862 C   0  0  0  0  0  0  0  0  0  0  0  0
  -23.2184  -12.2566   21.1832 C   0  0  0  0  0  0  0  0  0  0  0  0
  -26.0484  -19.2512   18.2803 C   0  0  0  0  0  0  0  0  0  0  0  0
  -23.8832  -14.2974   21.6610 C   0  0  0  0  0  0  0  0  0  0  0  0
  -24.7164  -12.5586   23.2519 C   0  0  0  0  0  0  0  0  0  0  0  0
  -23.5716  -30.4184   22.4836 C   0  0  0  0  0  0  0  0  0  0  0  0
  -21.2561  -28.2554   21.7891 C   0  0  0  0  0  0  0  0  0  0  0  0
  -20.4227  -25.2417   20.4218 C   0  0  0  0  0  0  0  0  0  0  0  0
  -23.9442  -18.0663   17.5629 C   0  0  0  0  0  0  0  0  0  0  0  0
  -23.8157  -35.3582   23.7471 C   0  0  0  0  0  0  0  0  0  0  0  0
  -23.9814  -30.0130   20.0293 C   0  0  0  0  0  0  0  0  0  0  0  0
  -29.3730  -20.3245   19.7554 C   0  0  0  0  0  0  0  0  0  0  0  0
  -23.6419  -27.4808   21.5184 C   0  0  0  0  0  0  0  0  0  0  0  0
  -22.7756  -34.2484   23.8762 C   0  0  0  0  0  0  0  0  0  0  0  0
  -29.5661  -21.8511   19.7364 C   0  0  0  0  0  0  0  0  0  0  0  0
  -20.8742  -16.3622   18.1533 C   0  0  0  0  0  0  0  0  0  0  0  0
  -23.4064  -32.9916   24.4670 C   0  0  0  0  0  0  0  0  0  0  0  0
  -21.2733  -15.2034   19.0698 C   0  0  0  0  0  0  0  0  0  0  0  0
  -21.9497  -16.6554   17.1087 C   0  0  0  0  0  0  0  0  0  0  0  0
  -23.6972  -15.7107   18.5657 C   0  0  0  0  0  0  0  0  0  0  0  0
  -24.5182  -32.4530   23.5585 C   0  0  1  0  0  0  0  0  0  0  0  0
  -28.8580  -22.3513   18.4645 C   0  0  2  0  0  0  0  0  0  0  0  0
  -23.0052  -29.8917   21.1954 C   0  0  1  0  0  0  0  0  0  0  0  0
  -22.6738  -15.4206   19.6756 C   0  0  2  0  0  0  0  0  0  0  0  0
  -18.4580  -23.7284   20.0379 C   0  0  0  0  0  0  0  0  0  0  0  0
  -21.3220  -27.4290   24.7256 C   0  0  0  0  0  0  0  0  0  0  0  0
  -20.0864  -25.3449   24.0946 C   0  0  0  0  0  0  0  0  0  0  0  0
  -19.0306  -27.5760   23.7344 C   0  0  0  0  0  0  0  0  0  0  0  0
  -20.7469  -25.3746   17.4830 C   0  0  0  0  0  0  0  0  0  0  0  0
  -29.5556  -24.7135   18.8352 C   0  0  0  0  0  0  0  0  0  0  0  0
  -28.9976  -26.1154   18.9811 C   0  0  0  0  0  0  0  0  0  1  0  0
  -20.9358  -26.8505   22.2392 C   0  0  1  0  0  0  0  0  0  0  0  0
  -19.3173  -24.8426   19.4609 C   0  0  2  0  0  0  0  0  0  0  0  0
  -20.3686  -26.8065   23.6861 C   0  0  0  0  0  0  0  0  0  0  0  0
  -25.7277  -20.3582   17.5571 N   0  0  0  0  0  0  0  0  0  0  0  0
  -22.6738  -13.0177   20.2302 N   0  0  0  0  0  0  0  0  0  0  0  0
  -23.0961  -14.2533   20.5480 N   0  0  0  0  0  0  0  0  0  0  0  0
  -22.5912  -28.5094   21.4445 N   0  0  0  0  0  0  0  0  0  0  0  0
  -23.2483  -16.8542   17.7560 N   0  0  0  0  0  0  0  0  0  0  0  0
  -24.3933  -15.4598   22.1204 N   0  0  0  0  0  0  0  0  0  0  0  0
  -24.7127  -11.1919   23.5622 N   0  0  0  0  0  0  0  0  0  0  0  0
  -25.1521  -18.1541   18.2542 N   0  0  0  0  0  0  0  0  0  0  0  0
  -23.9509  -31.7461   22.4302 N   0  0  0  0  0  0  0  0  0  0  0  0
  -20.0425  -26.2922   21.2299 N   0  0  0  0  0  0  0  0  0  0  0  0
  -28.4353  -23.7572   18.6484 N   0  3  0  0  0  0  0  0  0  0  0  0
  -19.8970  -24.3696   18.1721 N   0  3  0  0  0  0  0  0  0  0  0  0
  -25.3430  -13.3545   23.9919 O   0  0  0  0  0  0  0  0  0  0  0  0
  -23.6567  -29.6757   23.4546 O   0  0  0  0  0  0  0  0  0  0  0  0
  -20.3535  -29.0946   21.7382 O   0  0  0  0  0  0  0  0  0  0  0  0
  -21.5131  -24.6755   20.4549 O   0  0  0  0  0  0  0  0  0  0  0  0
  -23.4883  -18.9714   16.8594 O   0  0  0  0  0  0  0  0  0  0  0  0
  -22.3443   -6.7337   21.2061 O   0  0  0  0  0  0  0  0  0  0  0  0
  -28.1461  -26.1740   20.1248 O   0  0  0  0  0  0  0  0  0  1  0  0
  -21.0772   -4.3593   26.0187 F   0  0  0  0  0  0  0  0  0  0  0  0
  -24.0821   -6.8626   23.3523 F   0  0  0  0  0  0  0  0  0  0  0  0
  1  2  1  0  0  0  0
  1  5  2  0  0  0  0
  2  6  2  0  0  0  0
  3  8  2  0  0  0  0
  3 17  1  0  0  0  0
  4  9  1  0  0  0  0
  4 17  2  0  0  0  0
  5 19  1  0  0  0  0
  6 21  1  0  0  0  0
  7 10  2  0  0  0  0
  7 20  1  0  0  0  0
  8 25  1  0  0  0  0
  9 25  2  0  0  0  0
 10 26  1  0  0  0  0
 11 12  2  0  0  0  0
 11 27  1  0  0  0  0
 12 28  1  0  0  0  0
 13 22  1  0  0  0  0
 13 26  2  0  0  0  0
 14 23  1  0  0  0  0
 14 31  2  0  0  0  0
 15 28  2  0  0  0  0
 15 29  1  0  0  0  0
 16 24  1  0  0  0  0
 16 63  2  0  0  0  0
 17 30  1  0  0  0  0
 18 30  1  0  0  0  0
 18 32  2  0  0  0  0
 18 33  1  0  0  0  0
 19 21  2  0  0  0  0
 19 38  1  0  0  0  0
 20 22  2  0  0  0  0
 20 39  1  0  0  0  0
 21 49  1  0  0  0  0
 22 41  1  0  0  0  0
 23 24  2  0  0  0  0
 23 40  1  0  0  0  0
 24 50  1  0  0  0  0
 25 80  1  0  0  0  0
 26 81  1  0  0  0  0
 27 29  2  0  0  0  0
 27 80  1  0  0  0  0
 28 82  1  0  0  0  0
 29 83  1  0  0  0  0
 30 64  2  0  0  0  0
 31 63  1  0  0  0  0
 31 70  1  0  0  0  0
 32 65  1  0  0  0  0
 32 68  1  0  0  0  0
 33 69  1  0  0  0  0
 33 75  2  0  0  0  0
 34 51  1  0  0  0  0
 34 71  1  0  0  0  0
 34 76  2  0  0  0  0
 35 60  1  0  0  0  0
 35 66  1  0  0  0  0
 35 77  2  0  0  0  0
 36 61  1  0  0  0  0
 36 72  1  0  0  0  0
 36 78  2  0  0  0  0
 37 67  1  0  0  0  0
 37 70  1  0  0  0  0
 37 79  2  0  0  0  0
 38 42  1  0  0  0  0
 39 51  1  0  0  0  0
 40 43  1  0  0  0  0
 41 66  1  0  0  0  0
 42 45  1  0  0  0  0
 43 50  1  0  0  0  0
 44 46  1  0  0  0  0
 44 47  1  0  0  0  0
 45 49  1  0  0  0  0
 46 52  1  0  0  0  0
 47 67  1  0  0  0  0
 48 52  1  0  0  0  0
 48 67  1  0  0  0  0
 49 71  1  0  0  0  0
 50 73  1  0  0  0  0
 51 66  1  0  0  0  0
 52 65  1  0  0  0  0
 53 61  1  0  0  0  0
 54 62  1  0  0  0  0
 55 62  1  0  0  0  0
 56 62  1  0  0  0  0
 57 74  1  0  0  0  0
 58 59  1  0  0  0  0
 58 73  1  0  0  0  0
 59 81  1  0  0  0  0
 60 62  1  0  0  0  0
 60 72  1  0  0  0  0
 61 74  1  0  0  0  0
 64 65  1  0  0  0  0
M  CHG  2  73   1  74   1
M  ISO  4  37 100  59 101  70 100  81 101
M  END
> <Batch ID>
0177

> <Smiles>
CNC(C)C(=O)NC(C(=O)N1Cc2cc([101O:1][101CH2:1]CNC3CCc4cc([100NH:0][100C:0](=O)N5CCCC(n6nc(-c7ccc(Oc8ccc(F)cc8F)cc7)c(C(N)=O)c6N)C5)ncc43)ccc2CC1C(=O)NC1CCCc2ccccc21)C(C)(C)C

> <Shape>
0.278

> <Color>
0.085

> <Negative vol penalty>
0.000

$$$$

  -OEChem-04052322523D

 84 93  0     1  0  0  0  0  0999 V2000
  -19.4900  -23.5386   23.0758 C   0  0  0  0  0  0  0  0  0  0  0  0
  -20.7752  -23.7136   22.5730 C   0  0  0  0  0  0  0  0  0  0  0  0
  -24.3797  -14.5595   21.7402 C   0  0  0  0  0  0  0  0  0  0  0  0
  -25.6557  -14.7086   19.6941 C   0  0  0  0  0  0  0  0  0  0  0  0
  -18.6305  -24.6310   23.1847 C   0  0  0  0  0  0  0  0  0  0  0  0
  -21.2014  -24.9810   22.1776 C   0  0  0  0  0  0  0  0  0  0  0  0
  -25.8657  -26.0640   23.8259 C   0  0  0  0  0  0  0  0  0  0  0  0
  -30.3107  -24.6098   17.1827 C   0  0  0  0  0  0  0  0  0  0  0  0
  -23.7433  -13.4149   21.2600 C   0  0  0  0  0  0  0  0  0  0  0  0
  -25.0194  -13.5640   19.2139 C   0  0  0  0  0  0  0  0  0  0  0  0
  -26.9338  -25.4965   23.1324 C   0  0  0  0  0  0  0  0  0  0  0  0
  -24.4494  -10.1246   20.9315 C   0  0  0  0  0  0  0  0  0  0  0  0
  -24.3198   -9.0418   21.8012 C   0  0  0  0  0  0  0  0  0  0  0  0
  -29.0798  -24.0953   16.7999 C   0  0  0  0  0  0  0  0  0  0  0  0
  -27.2668  -27.5758   21.9557 C   0  0  0  0  0  0  0  0  0  0  0  0
  -21.9159   -9.1611   21.5915 C   0  0  0  0  0  0  0  0  0  0  0  0
  -25.3358  -15.2064   20.9572 C   0  0  0  0  0  0  0  0  0  0  0  0
  -27.1846  -16.4497   22.1998 C   0  0  0  0  0  0  0  0  0  0  0  0
  -19.0497  -25.9142   22.7995 C   0  0  0  0  0  0  0  0  0  0  0  0
  -25.4826  -27.3906   23.5811 C   0  0  0  0  0  0  0  0  0  0  0  0
  -20.3463  -26.0914   22.2802 C   0  0  0  0  0  0  0  0  0  0  0  0
  -30.7125  -24.5649   18.5232 C   0  0  0  0  0  0  0  0  0  0  0  0
  -26.1952  -28.1586   22.6492 C   0  0  0  0  0  0  0  0  0  0  0  0
  -24.0632  -12.9171   19.9969 C   0  0  0  0  0  0  0  0  0  0  0  0
  -27.6327  -26.2515   22.1951 C   0  0  0  0  0  0  0  0  0  0  0  0
  -23.3123  -10.7257   20.3919 C   0  0  0  0  0  0  0  0  0  0  0  0
  -23.0531   -8.5600   22.1312 C   0  0  0  0  0  0  0  0  0  0  0  0
  -22.0455  -10.2440   20.7219 C   0  0  0  0  0  0  0  0  0  0  0  0
  -25.9931  -16.3891   21.4525 C   0  0  0  0  0  0  0  0  0  0  0  0
  -29.8253  -24.0126   19.4555 C   0  0  0  0  0  0  0  0  0  0  0  0
  -28.2791  -23.5518   17.7838 C   0  0  0  0  0  0  0  0  0  0  0  0
  -27.3836  -17.7906   22.4206 C   0  0  0  0  0  0  0  0  0  0  0  0
  -28.0355  -15.3887   22.6536 C   0  0  0  0  0  0  0  0  0  0  0  0
  -22.8498  -28.8007   22.4933 C   0  0  0  0  0  0  0  0  0  0  0  0
  -24.4595  -31.5137   23.2486 C   0  0  0  0  0  0  0  0  0  0  0  0
  -27.4609  -33.0500   23.7765 C   0  0  0  0  0  0  0  0  0  0  0  0
  -25.6228  -22.7099   19.4964 C   0  0  0  0  0  0  0  0  0  0  0  0
  -18.0690  -27.0563   22.8915 C   0  0  0  0  0  0  0  0  0  0  0  0
  -24.3452  -27.9964   24.3568 C   0  0  0  0  0  0  0  0  0  0  0  0
  -32.0389  -25.1570   18.9106 C   0  0  0  0  0  0  0  0  0  0  0  0
  -25.8366  -29.5935   22.3645 C   0  0  0  0  0  0  0  0  0  0  0  0
  -18.7254  -28.4315   22.8011 C   0  0  0  0  0  0  0  0  0  0  0  0
  -32.5238  -24.6938   20.2788 C   0  0  0  0  0  0  0  0  0  0  0  0
  -24.9853  -21.9021   22.9049 C   0  0  0  0  0  0  0  0  0  0  0  0
  -19.7253  -28.4711   21.6499 C   0  0  0  0  0  0  0  0  0  0  0  0
  -25.2788  -20.4030   22.9866 C   0  0  0  0  0  0  0  0  0  0  0  0
  -31.3965  -24.8035   21.2979 C   0  0  0  0  0  0  0  0  0  0  0  0
  -24.3417  -22.2794   21.5725 C   0  0  0  0  0  0  0  0  0  0  0  0
  -25.3810  -20.3414   20.4599 C   0  0  0  0  0  0  0  0  0  0  0  0
  -20.8537  -27.4551   21.8641 C   0  0  1  0  0  0  0  0  0  0  0  0
  -23.7159  -29.1962   23.6556 C   0  0  1  0  0  0  0  0  0  0  0  0
  -26.0818  -19.9214   21.7633 C   0  0  2  0  0  0  0  0  0  0  0  0
  -30.1888  -23.9044   20.9351 C   0  0  2  0  0  0  0  0  0  0  0  0
  -30.5110  -22.4292   21.2494 C   0  0  0  0  0  0  0  0  0  0  0  0
  -28.4589  -35.2820   24.3417 C   0  0  0  0  0  0  0  0  0  0  0  0
  -23.9502  -32.4618   20.3934 C   0  0  0  0  0  0  0  0  0  0  0  0
  -25.7301  -34.1912   20.7244 C   0  0  0  0  0  0  0  0  0  0  0  0
  -23.6786  -34.2279   22.1432 C   0  0  0  0  0  0  0  0  0  0  0  0
  -28.6715  -32.0077   26.2679 C   0  0  0  0  0  0  0  0  0  0  0  0
  -26.9491  -22.9836   17.4168 C   0  0  0  0  0  0  0  0  0  0  0  0
  -28.9987  -24.3423   21.8145 C   0  0  0  0  0  0  0  0  0  1  0  0
  -25.4142  -32.4284   22.5199 C   0  0  1  0  0  0  0  0  0  0  0  0
  -27.9442  -33.9605   24.8908 C   0  0  2  0  0  0  0  0  0  0  0  0
  -24.6990  -33.2997   21.4489 C   0  0  0  0  0  0  0  0  0  0  0  0
  -25.4717  -17.5956   21.2147 N   0  0  0  0  0  0  0  0  0  0  0  0
  -28.6211  -23.4964   19.0893 N   0  0  0  0  0  0  0  0  0  0  0  0
  -26.3397  -18.4269   21.8161 N   0  0  0  0  0  0  0  0  0  0  0  0
  -24.7129  -30.1387   23.1439 N   0  0  0  0  0  0  0  0  0  0  0  0
  -25.1533  -21.7950   20.4533 N   0  0  0  0  0  0  0  0  0  0  0  0
  -28.3479  -18.4757   23.0711 N   0  0  0  0  0  0  0  0  0  0  0  0
  -27.6837  -14.0690   22.3389 N   0  0  0  0  0  0  0  0  0  0  0  0
  -21.8087  -27.9563   22.8290 N   0  0  0  0  0  0  0  0  0  0  0  0
  -26.1090  -33.1959   23.5478 N   0  0  0  0  0  0  0  0  0  0  0  0
  -26.3900  -22.1686   18.4722 N   0  0  0  0  0  0  0  0  0  0  0  0
  -29.0458  -33.3071   25.6526 N   0  3  0  0  0  0  0  0  0  0  0  0
  -29.0682  -15.6035   23.3326 O   0  0  0  0  0  0  0  0  0  0  0  0
  -23.1061  -29.2310   21.3748 O   0  0  0  0  0  0  0  0  0  0  0  0
  -23.5276  -32.0016   23.8929 O   0  0  0  0  0  0  0  0  0  0  0  0
  -28.2086  -32.2883   23.1671 O   0  0  0  0  0  0  0  0  0  0  0  0
  -25.3809  -23.9204   19.5539 O   0  0  0  0  0  0  0  0  0  0  0  0
  -23.4426  -11.8002   19.5280 O   0  0  0  0  0  0  0  0  0  0  0  0
  -28.6753  -25.6998   21.5164 O   0  0  0  0  0  0  0  0  0  1  0  0
  -22.9288   -7.5192   22.9651 F   0  0  0  0  0  0  0  0  0  0  0  0
  -20.9494  -10.8166   20.2057 F   0  0  0  0  0  0  0  0  0  0  0  0
  1  2  1  0  0  0  0
  1  5  2  0  0  0  0
  2  6  2  0  0  0  0
  3  9  2  0  0  0  0
  3 17  1  0  0  0  0
  4 10  1  0  0  0  0
  4 17  2  0  0  0  0
  5 19  1  0  0  0  0
  6 21  1  0  0  0  0
  7 11  2  0  0  0  0
  7 20  1  0  0  0  0
  8 14  2  0  0  0  0
  8 22  1  0  0  0  0
  9 24  1  0  0  0  0
 10 24  2  0  0  0  0
 11 25  1  0  0  0  0
 12 13  2  0  0  0  0
 12 26  1  0  0  0  0
 13 27  1  0  0  0  0
 14 31  1  0  0  0  0
 15 23  1  0  0  0  0
 15 25  2  0  0  0  0
 16 27  2  0  0  0  0
 16 28  1  0  0  0  0
 17 29  1  0  0  0  0
 18 29  1  0  0  0  0
 18 32  2  0  0  0  0
 18 33  1  0  0  0  0
 19 21  2  0  0  0  0
 19 38  1  0  0  0  0
 20 23  2  0  0  0  0
 20 39  1  0  0  0  0
 21 50  1  0  0  0  0
 22 30  2  0  0  0  0
 22 40  1  0  0  0  0
 23 41  1  0  0  0  0
 24 81  1  0  0  0  0
 25 82  1  0  0  0  0
 26 28  2  0  0  0  0
 26 81  1  0  0  0  0
 27 83  1  0  0  0  0
 28 84  1  0  0  0  0
 29 65  2  0  0  0  0
 30 53  1  0  0  0  0
 30 66  1  0  0  0  0
 31 60  1  0  0  0  0
 31 66  2  0  0  0  0
 32 67  1  0  0  0  0
 32 70  1  0  0  0  0
 33 71  1  0  0  0  0
 33 76  2  0  0  0  0
 34 51  1  0  0  0  0
 34 72  1  0  0  0  0
 34 77  2  0  0  0  0
 35 62  1  0  0  0  0
 35 68  1  0  0  0  0
 35 78  2  0  0  0  0
 36 63  1  0  0  0  0
 36 73  1  0  0  0  0
 36 79  2  0  0  0  0
 37 69  1  0  0  0  0
 37 74  1  0  0  0  0
 37 80  2  0  0  0  0
 38 42  1  0  0  0  0
 39 51  1  0  0  0  0
 40 43  1  0  0  0  0
 41 68  1  0  0  0  0
 42 45  1  0  0  0  0
 43 47  1  0  0  0  0
 44 46  1  0  0  0  0
 44 48  1  0  0  0  0
 45 50  1  0  0  0  0
 46 52  1  0  0  0  0
 47 53  1  0  0  0  0
 48 69  1  0  0  0  0
 49 52  1  0  0  0  0
 49 69  1  0  0  0  0
 50 72  1  0  0  0  0
 51 68  1  0  0  0  0
 52 67  1  0  0  0  0
 53 54  1  0  0  0  0
 53 61  1  0  0  0  0
 55 63  1  0  0  0  0
 56 64  1  0  0  0  0
 57 64  1  0  0  0  0
 58 64  1  0  0  0  0
 59 75  1  0  0  0  0
 60 74  1  0  0  0  0
 61 82  1  0  0  0  0
 62 64  1  0  0  0  0
 62 73  1  0  0  0  0
 63 75  1  0  0  0  0
 65 67  1  0  0  0  0
M  CHG  1  75   1
M  ISO  4  37 100  61 101  74 100  82 101
M  END
> <Batch ID>
0177

> <Smiles>
CNC(C)C(=O)NC(C(=O)N1Cc2cc([101O:1][101CH2:1]C3(C)CCCc4ccc(C[100NH:0][100C:0](=O)N5CCCC(n6nc(-c7ccc(Oc8ccc(F)cc8F)cc7)c(C(N)=O)c6N)C5)nc43)ccc2CC1C(=O)NC1CCCc2ccccc21)C(C)(C)C

> <Shape>
0.238

> <Color>
0.073

> <Negative vol penalty>
0.000

$$$$

  -OEChem-04052322523D

 83 92  0     1  0  0  0  0  0999 V2000
  -32.4258  -37.9129   21.5591 C   0  0  0  0  0  0  0  0  0  0  0  0
  -32.3438  -36.8911   20.6186 C   0  0  0  0  0  0  0  0  0  0  0  0
  -24.3972   -9.1263   22.2620 C   0  0  0  0  0  0  0  0  0  0  0  0
  -23.8977   -9.1520   19.8984 C   0  0  0  0  0  0  0  0  0  0  0  0
  -32.0466  -37.6755   22.8796 C   0  0  0  0  0  0  0  0  0  0  0  0
  -31.8835  -35.6308   20.9984 C   0  0  0  0  0  0  0  0  0  0  0  0
  -28.2139  -30.0281   18.4566 C   0  0  0  0  0  0  0  0  0  0  0  0
  -23.2964   -8.2995   22.4857 C   0  0  0  0  0  0  0  0  0  0  0  0
  -22.7969   -8.3251   20.1221 C   0  0  0  0  0  0  0  0  0  0  0  0
  -28.3181  -28.6445   18.3205 C   0  0  0  0  0  0  0  0  0  0  0  0
  -22.5343   -5.0221   22.1533 C   0  0  0  0  0  0  0  0  0  0  0  0
  -22.7088   -3.9241   22.9957 C   0  0  0  0  0  0  0  0  0  0  0  0
  -27.6156  -28.3722   20.6121 C   0  0  0  0  0  0  0  0  0  0  0  0
  -21.0040   -4.7873   24.4740 C   0  0  0  0  0  0  0  0  0  0  0  0
  -27.5702  -23.7375   17.3854 C   0  0  0  0  0  0  0  0  0  0  0  0
  -29.5323  -23.7606   18.6526 C   0  0  0  0  0  0  0  0  0  0  0  0
  -24.6979   -9.5526   20.9683 C   0  0  0  0  0  0  0  0  0  0  0  0
  -27.1545  -10.0081   20.4533 C   0  0  0  0  0  0  0  0  0  0  0  0
  -31.5723  -36.4144   23.2736 C   0  0  0  0  0  0  0  0  0  0  0  0
  -27.8196  -30.5956   19.6768 C   0  0  0  0  0  0  0  0  0  0  0  0
  -31.4988  -35.3759   22.3257 C   0  0  0  0  0  0  0  0  0  0  0  0
  -27.5047  -29.7631   20.7604 C   0  0  0  0  0  0  0  0  0  0  0  0
  -28.5477  -24.4840   18.0111 C   0  0  0  0  0  0  0  0  0  0  0  0
  -22.4962   -7.8988   21.4158 C   0  0  0  0  0  0  0  0  0  0  0  0
  -28.0218  -27.8164   19.3991 C   0  0  0  0  0  0  0  0  0  0  0  0
  -21.5947   -6.0027   22.4714 C   0  0  0  0  0  0  0  0  0  0  0  0
  -21.9437   -3.8067   24.1560 C   0  0  0  0  0  0  0  0  0  0  0  0
  -20.8295   -5.8853   23.6317 C   0  0  0  0  0  0  0  0  0  0  0  0
  -25.8346  -10.4072   20.7367 C   0  0  0  0  0  0  0  0  0  0  0  0
  -27.8480  -11.1859   20.3186 C   0  0  0  0  0  0  0  0  0  0  0  0
  -28.5609  -21.7991   18.0397 C   0  0  0  0  0  0  0  0  0  0  0  0
  -27.7045   -8.6904   20.3232 C   0  0  0  0  0  0  0  0  0  0  0  0
  -29.1740  -32.5562   21.7805 C   0  0  0  0  0  0  0  0  0  0  0  0
  -26.2490  -32.4470   23.1787 C   0  0  0  0  0  0  0  0  0  0  0  0
  -23.3190  -30.7588   23.6389 C   0  0  0  0  0  0  0  0  0  0  0  0
  -28.4545  -16.1919   18.4702 C   0  0  0  0  0  0  0  0  0  0  0  0
  -31.2187  -36.1921   24.7228 C   0  0  0  0  0  0  0  0  0  0  0  0
  -27.6863  -32.0887   19.7995 C   0  0  0  0  0  0  0  0  0  0  0  0
  -27.0574  -30.3216   22.0857 C   0  0  0  0  0  0  0  0  0  0  0  0
  -30.3876  -34.9340   24.9609 C   0  0  0  0  0  0  0  0  0  0  0  0
  -26.5237  -15.9403   21.3939 C   0  0  0  0  0  0  0  0  0  0  0  0
  -30.9833  -33.7499   24.2061 C   0  0  0  0  0  0  0  0  0  0  0  0
  -26.2734  -14.4342   21.4640 C   0  0  0  0  0  0  0  0  0  0  0  0
  -26.4262  -16.4714   19.9629 C   0  0  0  0  0  0  0  0  0  0  0  0
  -29.6457  -19.6921   18.7552 C   0  0  0  0  0  0  0  0  0  0  0  0
  -27.2737  -19.7084   17.9683 C   0  0  0  0  0  0  0  0  0  0  0  0
  -29.7838  -18.2580   18.2513 C   0  0  0  0  0  0  0  0  0  0  0  0
  -27.4575  -18.2801   17.4675 C   0  0  0  0  0  0  0  0  0  0  0  0
  -27.0381  -14.2488   19.0664 C   0  0  0  0  0  0  0  0  0  0  0  0
  -30.9812  -34.0023   22.6936 C   0  0  1  0  0  0  0  0  0  0  0  0
  -27.7717  -32.5798   21.2414 C   0  0  1  0  0  0  0  0  0  0  0  0
  -27.1872  -13.6762   20.4846 C   0  0  2  0  0  0  0  0  0  0  0  0
  -21.1350  -30.9018   24.8665 C   0  0  0  0  0  0  0  0  0  0  0  0
  -27.6543  -31.6492   25.7669 C   0  0  0  0  0  0  0  0  0  0  0  0
  -25.4383  -30.8961   26.6561 C   0  0  0  0  0  0  0  0  0  0  0  0
  -25.7903  -33.2915   26.0553 C   0  0  0  0  0  0  0  0  0  0  0  0
  -21.7700  -30.7768   21.1172 C   0  0  0  0  0  0  0  0  0  0  0  0
  -28.5398  -25.9669   17.9966 C   0  0  0  0  0  0  0  0  0  1  0  0
  -25.5919  -31.5685   24.2157 C   0  0  1  0  0  0  0  0  0  0  0  0
  -21.8726  -31.2151   23.5740 C   0  0  2  0  0  0  0  0  0  0  0  0
  -26.1290  -31.8406   25.6493 C   0  0  0  0  0  0  0  0  0  0  0  0
  -27.5458  -22.3886   17.3797 N   0  0  0  0  0  0  0  0  0  0  0  0
  -29.5699  -22.4124   18.6872 N   0  0  0  0  0  0  0  0  0  0  0  0
  -25.6955  -11.7349   20.7800 N   0  0  0  0  0  0  0  0  0  0  0  0
  -26.9369  -12.1803   20.5220 N   0  0  0  0  0  0  0  0  0  0  0  0
  -28.5681  -20.3984   18.0540 N   0  0  0  0  0  0  0  0  0  0  0  0
  -26.9485  -31.7881   22.1578 N   0  0  0  0  0  0  0  0  0  0  0  0
  -27.2831  -15.6926   19.0589 N   0  0  0  0  0  0  0  0  0  0  0  0
  -28.4981  -17.5716   18.2156 N   0  0  0  0  0  0  0  0  0  0  0  0
  -29.1422  -11.4578   20.0473 N   0  0  0  0  0  0  0  0  0  0  0  0
  -26.8519   -7.5909   20.4922 N   0  0  0  0  0  0  0  0  0  0  0  0
  -29.6561  -33.7977   22.1489 N   0  0  0  0  0  0  0  0  0  0  0  0
  -24.1543  -31.7683   24.0683 N   0  0  0  0  0  0  0  0  0  0  0  0
  -21.1649  -30.5355   22.4523 N   0  3  0  0  0  0  0  0  0  0  0  0
  -28.9195   -8.4936   20.0810 O   0  0  0  0  0  0  0  0  0  0  0  0
  -29.7736  -31.4903   21.8580 O   0  0  0  0  0  0  0  0  0  0  0  0
  -26.1395  -33.6725   23.2672 O   0  0  0  0  0  0  0  0  0  0  0  0
  -23.6720  -29.6195   23.3422 O   0  0  0  0  0  0  0  0  0  0  0  0
  -29.4063  -15.4522   18.1911 O   0  0  0  0  0  0  0  0  0  0  0  0
  -21.4221   -7.0918   21.6337 O   0  0  0  0  0  0  0  0  0  0  0  0
  -28.1239  -26.4576   19.2683 O   0  0  0  0  0  0  0  0  0  1  0  0
  -22.1103   -2.7514   24.9640 F   0  0  0  0  0  0  0  0  0  0  0  0
  -19.9244   -6.8236   23.9418 F   0  0  0  0  0  0  0  0  0  0  0  0
  1  2  1  0  0  0  0
  1  5  2  0  0  0  0
  2  6  2  0  0  0  0
  3  8  2  0  0  0  0
  3 17  1  0  0  0  0
  4  9  1  0  0  0  0
  4 17  2  0  0  0  0
  5 19  1  0  0  0  0
  6 21  1  0  0  0  0
  7 10  2  0  0  0  0
  7 20  1  0  0  0  0
  8 24  1  0  0  0  0
  9 24  2  0  0  0  0
 10 25  1  0  0  0  0
 11 12  2  0  0  0  0
 11 26  1  0  0  0  0
 12 27  1  0  0  0  0
 13 22  1  0  0  0  0
 13 25  2  0  0  0  0
 14 27  2  0  0  0  0
 14 28  1  0  0  0  0
 15 23  1  0  0  0  0
 15 62  2  0  0  0  0
 16 23  2  0  0  0  0
 16 63  1  0  0  0  0
 17 29  1  0  0  0  0
 18 29  1  0  0  0  0
 18 30  2  0  0  0  0
 18 32  1  0  0  0  0
 19 21  2  0  0  0  0
 19 37  1  0  0  0  0
 20 22  2  0  0  0  0
 20 38  1  0  0  0  0
 21 50  1  0  0  0  0
 22 39  1  0  0  0  0
 23 58  1  0  0  0  0
 24 80  1  0  0  0  0
 25 81  1  0  0  0  0
 26 28  2  0  0  0  0
 26 80  1  0  0  0  0
 27 82  1  0  0  0  0
 28 83  1  0  0  0  0
 29 64  2  0  0  0  0
 30 65  1  0  0  0  0
 30 70  1  0  0  0  0
 31 62  1  0  0  0  0
 31 63  2  0  0  0  0
 31 66  1  0  0  0  0
 32 71  1  0  0  0  0
 32 75  2  0  0  0  0
 33 51  1  0  0  0  0
 33 72  1  0  0  0  0
 33 76  2  0  0  0  0
 34 59  1  0  0  0  0
 34 67  1  0  0  0  0
 34 77  2  0  0  0  0
 35 60  1  0  0  0  0
 35 73  1  0  0  0  0
 35 78  2  0  0  0  0
 36 68  1  0  0  0  0
 36 69  1  0  0  0  0
 36 79  2  0  0  0  0
 37 40  1  0  0  0  0
 38 51  1  0  0  0  0
 39 67  1  0  0  0  0
 40 42  1  0  0  0  0
 41 43  1  0  0  0  0
 41 44  1  0  0  0  0
 42 50  1  0  0  0  0
 43 52  1  0  0  0  0
 44 68  1  0  0  0  0
 45 47  1  0  0  0  0
 45 66  1  0  0  0  0
 46 48  1  0  0  0  0
 46 66  1  0  0  0  0
 47 69  1  0  0  0  0
 48 69  1  0  0  0  0
 49 52  1  0  0  0  0
 49 68  1  0  0  0  0
 50 72  1  0  0  0  0
 51 67  1  0  0  0  0
 52 65  1  0  0  0  0
 53 60  1  0  0  0  0
 54 61  1  0  0  0  0
 55 61  1  0  0  0  0
 56 61  1  0  0  0  0
 57 74  1  0  0  0  0
 58 81  1  0  0  0  0
 59 61  1  0  0  0  0
 59 73  1  0  0  0  0
 60 74  1  0  0  0  0
 64 65  1  0  0  0  0
M  CHG  1  74   1
M  ISO  4  36 100  58 101  69 100  81 101
M  END
> <Batch ID>
0177

> <Smiles>
CNC(C)C(=O)NC(C(=O)N1Cc2cc([101O:1][101CH2:1]c3cnc(N4CC[100N:0]([100C:0](=O)N5CCCC(n6nc(-c7ccc(Oc8ccc(F)cc8F)cc7)c(C(N)=O)c6N)C5)CC4)nc3)ccc2CC1C(=O)NC1CCCc2ccccc21)C(C)(C)C

> <Shape>
0.257

> <Color>
0.110

> <Negative vol penalty>
0.000

$$$$

  -OEChem-04052322523D

 85 94  0     1  0  0  0  0  0999 V2000
  -23.6303  -21.2435   31.3091 C   0  0  0  0  0  0  0  0  0  0  0  0
  -24.2427  -22.0672   30.3700 C   0  0  0  0  0  0  0  0  0  0  0  0
  -29.4695  -17.7669   20.4330 C   0  0  0  0  0  0  0  0  0  0  0  0
  -27.2612  -18.3571   19.6505 C   0  0  0  0  0  0  0  0  0  0  0  0
  -22.9471  -20.1015   30.8930 C   0  0  0  0  0  0  0  0  0  0  0  0
  -24.1732  -21.7487   29.0142 C   0  0  0  0  0  0  0  0  0  0  0  0
  -23.0891  -25.7662   26.1281 C   0  0  0  0  0  0  0  0  0  0  0  0
  -29.0587  -16.4437   20.5941 C   0  0  0  0  0  0  0  0  0  0  0  0
  -26.8505  -17.0339   19.8116 C   0  0  0  0  0  0  0  0  0  0  0  0
  -24.1284  -26.6556   25.8586 C   0  0  0  0  0  0  0  0  0  0  0  0
  -28.6934  -12.8373   20.8691 C   0  0  0  0  0  0  0  0  0  0  0  0
  -29.5449  -11.8332   20.4082 C   0  0  0  0  0  0  0  0  0  0  0  0
  -24.5919  -30.3254   22.5748 C   0  0  0  0  0  0  0  0  0  0  0  0
  -24.4252  -25.6420   23.6898 C   0  0  0  0  0  0  0  0  0  0  0  0
  -29.3955  -12.7333   18.1711 C   0  0  0  0  0  0  0  0  0  0  0  0
  -28.5707  -18.7236   19.9613 C   0  0  0  0  0  0  0  0  0  0  0  0
  -29.5576  -20.6723   18.6436 C   0  0  0  0  0  0  0  0  0  0  0  0
  -22.8611  -19.7741   29.5307 C   0  0  0  0  0  0  0  0  0  0  0  0
  -22.7167  -24.7993   25.1832 C   0  0  0  0  0  0  0  0  0  0  0  0
  -23.4894  -20.6006   28.5796 C   0  0  0  0  0  0  0  0  0  0  0  0
  -24.0499  -30.4358   21.2991 C   0  0  0  0  0  0  0  0  0  0  0  0
  -23.3792  -24.7432   23.9487 C   0  0  0  0  0  0  0  0  0  0  0  0
  -25.9025  -29.8885   22.7318 C   0  0  0  0  0  0  0  0  0  0  0  0
  -27.7493  -16.0771   20.2834 C   0  0  0  0  0  0  0  0  0  0  0  0
  -24.7985  -26.5917   24.6404 C   0  0  0  0  0  0  0  0  0  0  0  0
  -28.1928  -13.7893   19.9810 C   0  0  0  0  0  0  0  0  0  0  0  0
  -29.8960  -11.7813   19.0593 C   0  0  0  0  0  0  0  0  0  0  0  0
  -28.5439  -13.7374   18.6320 C   0  0  0  0  0  0  0  0  0  0  0  0
  -28.9943  -20.0908   19.7952 C   0  0  0  0  0  0  0  0  0  0  0  0
  -24.8536  -30.0997   20.2217 C   0  0  0  0  0  0  0  0  0  0  0  0
  -26.6232  -29.5767   21.5903 C   0  0  0  0  0  0  0  0  0  0  0  0
  -29.7821  -21.9811   18.9946 C   0  0  0  0  0  0  0  0  0  0  0  0
  -29.8515  -20.0822   17.3704 C   0  0  0  0  0  0  0  0  0  0  0  0
  -22.6708  -21.6215   25.1241 C   0  0  0  0  0  0  0  0  0  0  0  0
  -21.2031  -22.0842   22.2686 C   0  0  0  0  0  0  0  0  0  0  0  0
  -20.6534  -24.1276   19.5911 C   0  0  0  0  0  0  0  0  0  0  0  0
  -28.0679  -26.6611   21.2541 C   0  0  0  0  0  0  0  0  0  0  0  0
  -22.1519  -18.5039   29.1327 C   0  0  0  0  0  0  0  0  0  0  0  0
  -21.5758  -23.8646   25.4786 C   0  0  0  0  0  0  0  0  0  0  0  0
  -23.0043  -23.7370   22.8925 C   0  0  0  0  0  0  0  0  0  0  0  0
  -21.8060  -18.4391   27.6473 C   0  0  0  0  0  0  0  0  0  0  0  0
  -29.5800  -24.2639   23.5045 C   0  0  0  0  0  0  0  0  0  0  0  0
  -22.3754  -32.0897   20.2340 C   0  0  0  0  0  0  0  0  0  0  0  0
  -22.2320  -32.2242   21.7177 C   0  0  0  0  0  0  0  0  0  0  0  0
  -23.0055  -18.8544   26.8013 C   0  0  0  0  0  0  0  0  0  0  0  0
  -29.6072  -23.0056   22.6349 C   0  0  0  0  0  0  0  0  0  0  0  0
  -28.3124  -25.0773   23.2602 C   0  0  0  0  0  0  0  0  0  0  0  0
  -28.1150  -24.2000   20.9656 C   0  0  0  0  0  0  0  0  0  0  0  0
  -22.6463  -30.9032   21.1226 C   0  0  0  0  0  0  0  0  0  0  0  0
  -23.4151  -20.3020   27.0979 C   0  0  1  0  0  0  0  0  0  0  0  0
  -21.6210  -22.5855   24.6484 C   0  0  1  0  0  0  0  0  0  0  0  0
  -29.3826  -23.3459   21.1497 C   0  0  2  0  0  0  0  0  0  0  0  0
  -24.3259  -30.1983   18.8276 C   0  0  0  0  0  0  0  0  0  0  0  0
  -26.5577  -31.1277   24.8215 C   0  0  0  0  0  0  0  0  0  0  0  0
  -19.4386  -24.2159   17.3970 C   0  0  0  0  0  0  0  0  0  0  0  0
  -23.3100  -20.2567   21.0312 C   0  0  0  0  0  0  0  0  0  0  0  0
  -22.6442  -21.1287   18.7807 C   0  0  0  0  0  0  0  0  0  0  0  0
  -20.9865  -19.8964   20.1794 C   0  0  0  0  0  0  0  0  0  0  0  0
  -19.0362  -26.4535   20.4479 C   0  0  0  0  0  0  0  0  0  0  0  0
  -28.0354  -29.1022   21.6985 C   0  0  0  0  0  0  0  0  0  0  0  0
  -25.7454  -28.7457   24.9867 C   0  0  0  0  0  0  0  0  0  1  0  0
  -26.5013  -29.7656   24.1242 C   0  0  1  0  0  0  0  0  0  0  0  0
  -21.6676  -22.2396   20.8406 C   0  0  1  0  0  0  0  0  0  0  0  0
  -19.3750  -24.5371   18.8822 C   0  0  2  0  0  0  0  0  0  0  0  0
  -22.1607  -20.8982   20.2284 C   0  0  0  0  0  0  0  0  0  0  0  0
  -28.8688  -20.9589   20.8025 N   0  0  0  0  0  0  0  0  0  0  0  0
  -26.1308  -29.6714   20.3348 N   0  0  0  0  0  0  0  0  0  0  0  0
  -29.3566  -22.0992   20.2849 N   0  0  0  0  0  0  0  0  0  0  0  0
  -21.8865  -22.8407   23.2311 N   0  0  0  0  0  0  0  0  0  0  0  0
  -28.1675  -25.3838   21.8301 N   0  0  0  0  0  0  0  0  0  0  0  0
  -30.3002  -23.0308   18.3222 N   0  0  0  0  0  0  0  0  0  0  0  0
  -29.5575  -18.7253   17.1790 N   0  0  0  0  0  0  0  0  0  0  0  0
  -22.5172  -21.2264   26.4393 N   0  0  0  0  0  0  0  0  0  0  0  0
  -20.5613  -22.8561   20.1163 N   0  0  0  0  0  0  0  0  0  0  0  0
  -28.1192  -27.7285   22.1423 N   0  0  0  0  0  0  0  0  0  0  0  0
  -19.1431  -26.0011   19.0369 N   0  3  0  0  0  0  0  0  0  0  0  0
  -30.3750  -20.7348   16.4356 O   0  0  0  0  0  0  0  0  0  0  0  0
  -23.5539  -21.2616   24.3545 O   0  0  0  0  0  0  0  0  0  0  0  0
  -20.2638  -21.3251   22.5197 O   0  0  0  0  0  0  0  0  0  0  0  0
  -21.6368  -24.8609   19.6677 O   0  0  0  0  0  0  0  0  0  0  0  0
  -27.9476  -26.8379   20.0370 O   0  0  0  0  0  0  0  0  0  0  0  0
  -27.3482  -14.7860   20.4402 O   0  0  0  0  0  0  0  0  0  0  0  0
  -25.8137  -27.4582   24.3750 O   0  0  0  0  0  0  0  0  0  1  0  0
  -30.7149  -10.8180   18.6171 F   0  0  0  0  0  0  0  0  0  0  0  0
  -28.0671  -14.6499   17.7743 F   0  0  0  0  0  0  0  0  0  0  0  0
  1  2  1  0  0  0  0
  1  5  2  0  0  0  0
  2  6  2  0  0  0  0
  3  8  2  0  0  0  0
  3 16  1  0  0  0  0
  4  9  1  0  0  0  0
  4 16  2  0  0  0  0
  5 18  1  0  0  0  0
  6 20  1  0  0  0  0
  7 10  2  0  0  0  0
  7 19  1  0  0  0  0
  8 24  1  0  0  0  0
  9 24  2  0  0  0  0
 10 25  1  0  0  0  0
 11 12  2  0  0  0  0
 11 26  1  0  0  0  0
 12 27  1  0  0  0  0
 13 21  2  0  0  0  0
 13 23  1  0  0  0  0
 14 22  1  0  0  0  0
 14 25  2  0  0  0  0
 15 27  2  0  0  0  0
 15 28  1  0  0  0  0
 16 29  1  0  0  0  0
 17 29  1  0  0  0  0
 17 32  2  0  0  0  0
 17 33  1  0  0  0  0
 18 20  2  0  0  0  0
 18 38  1  0  0  0  0
 19 22  2  0  0  0  0
 19 39  1  0  0  0  0
 20 50  1  0  0  0  0
 21 30  1  0  0  0  0
 21 49  1  0  0  0  0
 22 40  1  0  0  0  0
 23 31  2  0  0  0  0
 23 62  1  0  0  0  0
 24 82  1  0  0  0  0
 25 83  1  0  0  0  0
 26 28  2  0  0  0  0
 26 82  1  0  0  0  0
 27 84  1  0  0  0  0
 28 85  1  0  0  0  0
 29 66  2  0  0  0  0
 30 53  1  0  0  0  0
 30 67  2  0  0  0  0
 31 60  1  0  0  0  0
 31 67  1  0  0  0  0
 32 68  1  0  0  0  0
 32 71  1  0  0  0  0
 33 72  1  0  0  0  0
 33 77  2  0  0  0  0
 34 51  1  0  0  0  0
 34 73  1  0  0  0  0
 34 78  2  0  0  0  0
 35 63  1  0  0  0  0
 35 69  1  0  0  0  0
 35 79  2  0  0  0  0
 36 64  1  0  0  0  0
 36 74  1  0  0  0  0
 36 80  2  0  0  0  0
 37 70  1  0  0  0  0
 37 75  1  0  0  0  0
 37 81  2  0  0  0  0
 38 41  1  0  0  0  0
 39 51  1  0  0  0  0
 40 69  1  0  0  0  0
 41 45  1  0  0  0  0
 42 46  1  0  0  0  0
 42 47  1  0  0  0  0
 43 44  1  0  0  0  0
 43 49  1  0  0  0  0
 44 49  1  0  0  0  0
 45 50  1  0  0  0  0
 46 52  1  0  0  0  0
 47 70  1  0  0  0  0
 48 52  1  0  0  0  0
 48 70  1  0  0  0  0
 50 73  1  0  0  0  0
 51 69  1  0  0  0  0
 52 68  1  0  0  0  0
 54 62  1  0  0  0  0
 55 64  1  0  0  0  0
 56 65  1  0  0  0  0
 57 65  1  0  0  0  0
 58 65  1  0  0  0  0
 59 76  1  0  0  0  0
 60 75  1  0  0  0  0
 61 62  1  0  0  0  0
 61 83  1  0  0  0  0
 63 65  1  0  0  0  0
 63 74  1  0  0  0  0
 64 76  1  0  0  0  0
 66 68  1  0  0  0  0
M  CHG  1  76   1
M  ISO  4  37 100  61 101  75 100  83 101
M  END
> <Batch ID>
0177

> <Smiles>
CNC(C)C(=O)NC(C(=O)N1Cc2cc([101O:1][101CH2:1]C(C)c3cc(C4CC4)c(C)nc3C[100NH:0][100C:0](=O)N3CCCC(n4nc(-c5ccc(Oc6ccc(F)cc6F)cc5)c(C(N)=O)c4N)C3)ccc2CC1C(=O)NC1CCCc2ccccc21)C(C)(C)C

> <Shape>
0.191

> <Color>
0.066

> <Negative vol penalty>
0.000

$$$$

  -OEChem-04052322523D

 83 92  0     1  0  0  0  0  0999 V2000
  -29.0478  -25.3401   10.6047 C   0  0  0  0  0  0  0  0  0  0  0  0
  -28.8969  -24.3138   11.5316 C   0  0  0  0  0  0  0  0  0  0  0  0
  -23.3399   -9.7703   19.9705 C   0  0  0  0  0  0  0  0  0  0  0  0
  -23.7967   -9.9961   22.3321 C   0  0  0  0  0  0  0  0  0  0  0  0
  -30.0185  -26.3209   10.8040 C   0  0  0  0  0  0  0  0  0  0  0  0
  -29.7175  -24.2670   12.6581 C   0  0  0  0  0  0  0  0  0  0  0  0
  -28.1766  -22.3224   18.2572 C   0  0  0  0  0  0  0  0  0  0  0  0
  -22.6460   -8.5860   20.2179 C   0  0  0  0  0  0  0  0  0  0  0  0
  -23.1027   -8.8117   22.5796 C   0  0  0  0  0  0  0  0  0  0  0  0
  -28.3715  -21.1089   18.9153 C   0  0  0  0  0  0  0  0  0  0  0  0
  -21.1429   -6.0370   23.8751 C   0  0  0  0  0  0  0  0  0  0  0  0
  -20.2468   -6.0207   24.9438 C   0  0  0  0  0  0  0  0  0  0  0  0
  -30.3484  -22.0044   19.9685 C   0  0  0  0  0  0  0  0  0  0  0  0
  -28.3372  -17.2093   22.1221 C   0  0  0  0  0  0  0  0  0  0  0  0
  -18.9843   -7.8038   23.9123 C   0  0  0  0  0  0  0  0  0  0  0  0
  -23.9153  -10.4754   21.0276 C   0  0  0  0  0  0  0  0  0  0  0  0
  -24.1063  -13.0041   20.7498 C   0  0  0  0  0  0  0  0  0  0  0  0
  -30.8449  -26.2915   11.9384 C   0  0  0  0  0  0  0  0  0  0  0  0
  -29.0738  -23.3842   18.4417 C   0  0  0  0  0  0  0  0  0  0  0  0
  -30.7011  -25.2476   12.8721 C   0  0  0  0  0  0  0  0  0  0  0  0
  -30.1612  -23.2312   19.3135 C   0  0  0  0  0  0  0  0  0  0  0  0
  -28.6806  -16.0908   22.8733 C   0  0  0  0  0  0  0  0  0  0  0  0
  -29.0675  -17.5249   20.9817 C   0  0  0  0  0  0  0  0  0  0  0  0
  -22.5273   -8.1066   21.5224 C   0  0  0  0  0  0  0  0  0  0  0  0
  -29.4591  -20.9487   19.7688 C   0  0  0  0  0  0  0  0  0  0  0  0
  -20.9599   -6.9367   22.8250 C   0  0  0  0  0  0  0  0  0  0  0  0
  -19.1675   -6.9041   24.9624 C   0  0  0  0  0  0  0  0  0  0  0  0
  -19.8806   -7.8201   22.8436 C   0  0  0  0  0  0  0  0  0  0  0  0
  -24.6328  -11.6986   20.7726 C   0  0  0  0  0  0  0  0  0  0  0  0
  -29.7541  -15.3266   22.4452 C   0  0  0  0  0  0  0  0  0  0  0  0
  -30.1238  -16.6965   20.6384 C   0  0  0  0  0  0  0  0  0  0  0  0
  -25.1855  -13.8046   20.4654 C   0  0  0  0  0  0  0  0  0  0  0  0
  -22.7620  -13.4529   20.9664 C   0  0  0  0  0  0  0  0  0  0  0  0
  -31.0277  -25.0250   16.5459 C   0  0  0  0  0  0  0  0  0  0  0  0
  -31.4694  -26.8237   19.2090 C   0  0  0  0  0  0  0  0  0  0  0  0
  -31.3682  -27.0324   22.6139 C   0  0  0  0  0  0  0  0  0  0  0  0
  -31.1722  -12.5376   21.2120 C   0  0  0  0  0  0  0  0  0  0  0  0
  -31.9118  -27.3472   12.0868 C   0  0  0  0  0  0  0  0  0  0  0  0
  -28.8346  -24.6957   17.7451 C   0  0  0  0  0  0  0  0  0  0  0  0
  -31.1420  -24.3470   19.5615 C   0  0  0  0  0  0  0  0  0  0  0  0
  -32.4896  -27.4351   13.4970 C   0  0  0  0  0  0  0  0  0  0  0  0
  -29.3804  -13.7902   18.2203 C   0  0  0  0  0  0  0  0  0  0  0  0
  -32.8173  -26.0429   14.0274 C   0  0  0  0  0  0  0  0  0  0  0  0
  -27.9307  -13.4151   18.5117 C   0  0  0  0  0  0  0  0  0  0  0  0
  -31.4532  -14.2117   24.1594 C   0  0  0  0  0  0  0  0  0  0  0  0
  -30.3557  -12.8478   18.9166 C   0  0  0  0  0  0  0  0  0  0  0  0
  -32.1229  -12.9987   23.5244 C   0  0  0  0  0  0  0  0  0  0  0  0
  -28.6979  -12.3923   20.6934 C   0  0  0  0  0  0  0  0  0  0  0  0
  -31.5555  -25.1764   14.1192 C   0  0  1  0  0  0  0  0  0  0  0  0
  -30.2597  -14.0241   23.1959 C   0  0  2  0  0  0  0  0  0  0  0  0
  -30.0985  -25.5392   17.6090 C   0  0  1  0  0  0  0  0  0  0  0  0
  -27.6876  -13.3403   20.0266 C   0  0  2  0  0  0  0  0  0  0  0  0
  -27.9102  -15.7391   24.0974 C   0  0  0  0  0  0  0  0  0  0  0  0
  -30.9445  -16.9863   19.4244 C   0  0  0  0  0  0  0  0  0  0  0  0
  -31.8216  -28.6189   24.5046 C   0  0  0  0  0  0  0  0  0  0  0  0
  -34.4677  -26.3769   18.8616 C   0  0  0  0  0  0  0  0  0  0  0  0
  -34.7846  -27.1407   21.2248 C   0  0  0  0  0  0  0  0  0  0  0  0
  -33.8297  -28.7012   19.5290 C   0  0  0  0  0  0  0  0  0  0  0  0
  -28.5519  -26.9416   23.5189 C   0  0  0  0  0  0  0  0  0  0  0  0
  -28.7012  -18.7297   20.1660 C   0  0  0  0  0  0  0  0  0  1  0  0
  -32.4201  -26.7831   20.3810 C   0  0  1  0  0  0  0  0  0  0  0  0
  -30.7761  -28.0777   23.5418 C   0  0  2  0  0  0  0  0  0  0  0  0
  -33.8583  -27.2286   19.9931 C   0  0  0  0  0  0  0  0  0  0  0  0
  -25.9445  -11.6672   20.5224 N   0  0  0  0  0  0  0  0  0  0  0  0
  -30.4872  -15.6016   21.3431 N   0  0  0  0  0  0  0  0  0  0  0  0
  -26.2512  -12.9628   20.3397 N   0  0  0  0  0  0  0  0  0  0  0  0
  -30.8688  -25.6080   18.8524 N   0  0  0  0  0  0  0  0  0  0  0  0
  -30.0848  -12.7364   20.3523 N   0  0  0  0  0  0  0  0  0  0  0  0
  -31.1045  -13.0595   22.4832 N   0  0  0  0  0  0  0  0  0  0  0  0
  -25.3173  -15.1395   20.3130 N   0  0  0  0  0  0  0  0  0  0  0  0
  -21.7758  -12.4975   21.2477 N   0  0  0  0  0  0  0  0  0  0  0  0
  -30.7792  -25.5361   15.2864 N   0  0  0  0  0  0  0  0  0  0  0  0
  -31.8077  -27.5892   21.4315 N   0  0  0  0  0  0  0  0  0  0  0  0
  -29.6619  -27.4912   24.3391 N   0  3  0  0  0  0  0  0  0  0  0  0
  -22.4415  -14.6636   20.8960 O   0  0  0  0  0  0  0  0  0  0  0  0
  -31.9060  -24.2251   16.8465 O   0  0  0  0  0  0  0  0  0  0  0  0
  -31.2617  -27.8960   18.6357 O   0  0  0  0  0  0  0  0  0  0  0  0
  -31.4375  -25.8415   22.9099 O   0  0  0  0  0  0  0  0  0  0  0  0
  -32.1890  -11.9332   20.8448 O   0  0  0  0  0  0  0  0  0  0  0  0
  -21.8500   -6.9511   21.7643 O   0  0  0  0  0  0  0  0  0  0  0  0
  -29.6520  -19.7650   20.4119 O   0  0  0  0  0  0  0  0  0  1  0  0
  -18.3061   -6.8873   25.9881 F   0  0  0  0  0  0  0  0  0  0  0  0
  -19.6988   -8.6859   21.8371 F   0  0  0  0  0  0  0  0  0  0  0  0
  1  2  1  0  0  0  0
  1  5  2  0  0  0  0
  2  6  2  0  0  0  0
  3  8  2  0  0  0  0
  3 16  1  0  0  0  0
  4  9  1  0  0  0  0
  4 16  2  0  0  0  0
  5 18  1  0  0  0  0
  6 20  1  0  0  0  0
  7 10  2  0  0  0  0
  7 19  1  0  0  0  0
  8 24  1  0  0  0  0
  9 24  2  0  0  0  0
 10 25  1  0  0  0  0
 11 12  2  0  0  0  0
 11 26  1  0  0  0  0
 12 27  1  0  0  0  0
 13 21  1  0  0  0  0
 13 25  2  0  0  0  0
 14 22  2  0  0  0  0
 14 23  1  0  0  0  0
 15 27  2  0  0  0  0
 15 28  1  0  0  0  0
 16 29  1  0  0  0  0
 17 29  1  0  0  0  0
 17 32  2  0  0  0  0
 17 33  1  0  0  0  0
 18 20  2  0  0  0  0
 18 38  1  0  0  0  0
 19 21  2  0  0  0  0
 19 39  1  0  0  0  0
 20 49  1  0  0  0  0
 21 40  1  0  0  0  0
 22 30  1  0  0  0  0
 22 53  1  0  0  0  0
 23 31  2  0  0  0  0
 23 60  1  0  0  0  0
 24 80  1  0  0  0  0
 25 81  1  0  0  0  0
 26 28  2  0  0  0  0
 26 80  1  0  0  0  0
 27 82  1  0  0  0  0
 28 83  1  0  0  0  0
 29 64  2  0  0  0  0
 30 50  1  0  0  0  0
 30 65  2  0  0  0  0
 31 54  1  0  0  0  0
 31 65  1  0  0  0  0
 32 66  1  0  0  0  0
 32 70  1  0  0  0  0
 33 71  1  0  0  0  0
 33 75  2  0  0  0  0
 34 51  1  0  0  0  0
 34 72  1  0  0  0  0
 34 76  2  0  0  0  0
 35 61  1  0  0  0  0
 35 67  1  0  0  0  0
 35 77  2  0  0  0  0
 36 62  1  0  0  0  0
 36 73  1  0  0  0  0
 36 78  2  0  0  0  0
 37 68  1  0  0  0  0
 37 69  1  0  0  0  0
 37 79  2  0  0  0  0
 38 41  1  0  0  0  0
 39 51  1  0  0  0  0
 40 67  1  0  0  0  0
 41 43  1  0  0  0  0
 42 44  1  0  0  0  0
 42 46  1  0  0  0  0
 43 49  1  0  0  0  0
 44 52  1  0  0  0  0
 45 47  1  0  0  0  0
 45 50  1  0  0  0  0
 46 68  1  0  0  0  0
 47 69  1  0  0  0  0
 48 52  1  0  0  0  0
 48 68  1  0  0  0  0
 49 72  1  0  0  0  0
 50 69  1  0  0  0  0
 51 67  1  0  0  0  0
 52 66  1  0  0  0  0
 55 62  1  0  0  0  0
 56 63  1  0  0  0  0
 57 63  1  0  0  0  0
 58 63  1  0  0  0  0
 59 74  1  0  0  0  0
 60 81  1  0  0  0  0
 61 63  1  0  0  0  0
 61 73  1  0  0  0  0
 62 74  1  0  0  0  0
 64 66  1  0  0  0  0
M  CHG  1  74   1
M  ISO  4  37 100  60 101  69 100  81 101
M  END
> <Batch ID>
0177

> <Smiles>
CNC(C)C(=O)NC(C(=O)N1Cc2cc([101O:1][101CH2:1]c3cc(C)c(C4CC[100N:0]4[100C:0](=O)N4CCCC(n5nc(-c6ccc(Oc7ccc(F)cc7F)cc6)c(C(N)=O)c5N)C4)nc3C)ccc2CC1C(=O)NC1CCCc2ccccc21)C(C)(C)C

> <Shape>
0.253

> <Color>
0.185

> <Negative vol penalty>
0.000

$$$$

  -OEChem-04052322523D

 85 94  0     1  0  0  0  0  0999 V2000
  -25.2122  -31.8127   21.4748 C   0  0  0  0  0  0  0  0  0  0  0  0
  -25.3736  -30.4433   21.6589 C   0  0  0  0  0  0  0  0  0  0  0  0
  -23.0234   -9.9043   19.9529 C   0  0  0  0  0  0  0  0  0  0  0  0
  -23.8064   -9.8775   22.2383 C   0  0  0  0  0  0  0  0  0  0  0  0
  -24.0317  -32.3061   20.9208 C   0  0  0  0  0  0  0  0  0  0  0  0
  -24.3541  -29.5664   21.2901 C   0  0  0  0  0  0  0  0  0  0  0  0
  -26.0836  -25.5222   18.7804 C   0  0  0  0  0  0  0  0  0  0  0  0
  -22.2519   -8.7697   20.2039 C   0  0  0  0  0  0  0  0  0  0  0  0
  -23.0348   -8.7429   22.4893 C   0  0  0  0  0  0  0  0  0  0  0  0
  -26.6726  -24.5085   19.5349 C   0  0  0  0  0  0  0  0  0  0  0  0
  -19.7930   -8.0269   23.1205 C   0  0  0  0  0  0  0  0  0  0  0  0
  -19.0472   -7.9999   24.2989 C   0  0  0  0  0  0  0  0  0  0  0  0
  -24.6232  -23.2413   19.4213 C   0  0  0  0  0  0  0  0  0  0  0  0
  -29.5907  -18.5490   20.8466 C   0  0  0  0  0  0  0  0  0  0  0  0
  -20.2444   -6.0260   25.0114 C   0  0  0  0  0  0  0  0  0  0  0  0
  -23.8007  -10.4582   20.9701 C   0  0  0  0  0  0  0  0  0  0  0  0
  -24.2079  -12.9742   20.8610 C   0  0  0  0  0  0  0  0  0  0  0  0
  -23.0011  -31.4340   20.5360 C   0  0  0  0  0  0  0  0  0  0  0  0
  -24.7542  -25.4076   18.3491 C   0  0  0  0  0  0  0  0  0  0  0  0
  -23.1582  -30.0486   20.7316 C   0  0  0  0  0  0  0  0  0  0  0  0
  -24.0204  -24.2537   18.6592 C   0  0  0  0  0  0  0  0  0  0  0  0
  -30.5590  -19.8638   19.0754 C   0  0  0  0  0  0  0  0  0  0  0  0
  -29.4876  -19.5791   19.9166 C   0  0  0  0  0  0  0  0  0  0  0  0
  -22.2576   -8.1890   21.4721 C   0  0  0  0  0  0  0  0  0  0  0  0
  -25.9415  -23.3691   19.8580 C   0  0  0  0  0  0  0  0  0  0  0  0
  -20.7645   -7.0534   22.8875 C   0  0  0  0  0  0  0  0  0  0  0  0
  -19.2729   -6.9995   25.2444 C   0  0  0  0  0  0  0  0  0  0  0  0
  -20.9902   -6.0530   23.8330 C   0  0  0  0  0  0  0  0  0  0  0  0
  -24.5983  -11.6299   20.7113 C   0  0  0  0  0  0  0  0  0  0  0  0
  -30.7720  -17.8240   20.9125 C   0  0  0  0  0  0  0  0  0  0  0  0
  -31.7158  -19.1056   19.1862 C   0  0  0  0  0  0  0  0  0  0  0  0
  -25.3157  -13.6967   20.4908 C   0  0  0  0  0  0  0  0  0  0  0  0
  -22.9558  -13.5208   21.2960 C   0  0  0  0  0  0  0  0  0  0  0  0
  -22.0818  -27.0521   18.8567 C   0  0  0  0  0  0  0  0  0  0  0  0
  -20.8754  -25.0297   16.6257 C   0  0  0  0  0  0  0  0  0  0  0  0
  -21.0816  -22.0202   15.0298 C   0  0  0  0  0  0  0  0  0  0  0  0
  -30.8261  -14.5697   20.6285 C   0  0  0  0  0  0  0  0  0  0  0  0
  -21.7242  -32.0176   19.9850 C   0  0  0  0  0  0  0  0  0  0  0  0
  -24.1419  -26.4980   17.5133 C   0  0  0  0  0  0  0  0  0  0  0  0
  -22.5964  -24.0731   18.2032 C   0  0  0  0  0  0  0  0  0  0  0  0
  -20.8431  -30.9932   19.2746 C   0  0  0  0  0  0  0  0  0  0  0  0
  -29.6017  -12.2304   18.2400 C   0  0  0  0  0  0  0  0  0  0  0  0
  -31.5156  -22.0488   18.0831 C   0  0  0  0  0  0  0  0  0  0  0  0
  -30.1206  -22.3522   18.5329 C   0  0  0  0  0  0  0  0  0  0  0  0
  -20.7174  -29.7248   20.1125 C   0  0  0  0  0  0  0  0  0  0  0  0
  -28.1615  -11.9721   18.6860 C   0  0  0  0  0  0  0  0  0  0  0  0
  -30.5365  -12.4197   19.4326 C   0  0  0  0  0  0  0  0  0  0  0  0
  -28.6689  -13.1924   20.8429 C   0  0  0  0  0  0  0  0  0  0  0  0
  -30.4722  -20.9644   18.0689 C   0  0  0  0  0  0  0  0  0  0  0  0
  -22.0851  -29.0636   20.3211 C   0  0  1  0  0  0  0  0  0  0  0  0
  -22.6172  -26.5048   17.5639 C   0  0  1  0  0  0  0  0  0  0  0  0
  -27.6786  -13.0506   19.6743 C   0  0  2  0  0  0  0  0  0  0  0  0
  -32.9149  -19.3293   18.3358 C   0  0  0  0  0  0  0  0  0  0  0  0
  -19.9328  -20.6352   13.2807 C   0  0  0  0  0  0  0  0  0  0  0  0
  -18.6692  -24.3461   18.6195 C   0  0  0  0  0  0  0  0  0  0  0  0
  -18.1401  -22.3278   17.2358 C   0  0  0  0  0  0  0  0  0  0  0  0
  -17.8947  -24.6088   16.2561 C   0  0  0  0  0  0  0  0  0  0  0  0
  -23.4900  -21.9848   13.3101 C   0  0  0  0  0  0  0  0  0  0  0  0
  -30.9613  -16.7103   21.8770 C   0  0  0  0  0  0  0  0  0  0  0  0
  -27.1644  -20.0637   20.6872 C   0  0  0  0  0  0  0  0  0  0  0  0
  -26.0529  -21.0480   20.3636 C   0  0  0  0  0  0  0  0  0  1  0  0
  -20.2096  -23.6753   16.6591 C   0  0  1  0  0  0  0  0  0  0  0  0
  -21.0265  -21.6550   13.5574 C   0  0  2  0  0  0  0  0  0  0  0  0
  -18.7546  -23.7435   17.2030 C   0  0  0  0  0  0  0  0  0  0  0  0
  -25.8559  -11.5033   20.2794 N   0  0  0  0  0  0  0  0  0  0  0  0
  -26.2653  -12.7772   20.1546 N   0  0  0  0  0  0  0  0  0  0  0  0
  -31.7882  -18.1194   20.0905 N   0  3  0  0  0  0  0  0  0  0  0  0
  -22.0401  -25.1698   17.3937 N   0  0  0  0  0  0  0  0  0  0  0  0
  -30.0224  -13.4571   20.3301 N   0  0  0  0  0  0  0  0  0  0  0  0
  -25.5605  -15.0226   20.4233 N   0  0  0  0  0  0  0  0  0  0  0  0
  -21.9237  -12.6366   21.6384 N   0  0  0  0  0  0  0  0  0  0  0  0
  -28.3122  -20.3081   19.8440 N   0  0  0  0  0  0  0  0  0  0  0  0
  -22.4859  -28.3448   19.1307 N   0  0  0  0  0  0  0  0  0  0  0  0
  -20.3179  -23.1338   15.3087 N   0  0  0  0  0  0  0  0  0  0  0  0
  -30.2603  -15.5089   21.4820 N   0  0  0  0  0  0  0  0  0  0  0  0
  -22.3286  -21.0787   13.1176 N   0  3  0  0  0  0  0  0  0  0  0  0
  -22.7528  -14.7568   21.3628 O   0  0  0  0  0  0  0  0  0  0  0  0
  -21.3546  -26.3538   19.5533 O   0  0  0  0  0  0  0  0  0  0  0  0
  -20.3844  -25.9282   15.9377 O   0  0  0  0  0  0  0  0  0  0  0  0
  -21.7337  -21.3793   15.8511 O   0  0  0  0  0  0  0  0  0  0  0  0
  -31.9617  -14.7179   20.1642 O   0  0  0  0  0  0  0  0  0  0  0  0
  -21.5046   -7.0820   21.7175 O   0  0  0  0  0  0  0  0  0  0  0  0
  -26.5138  -22.3786   20.5949 O   0  0  0  0  0  0  0  0  0  1  0  0
  -18.5577   -6.9746   26.3766 F   0  0  0  0  0  0  0  0  0  0  0  0
  -21.9229   -5.1158   23.6152 F   0  0  0  0  0  0  0  0  0  0  0  0
  1  2  1  0  0  0  0
  1  5  2  0  0  0  0
  2  6  2  0  0  0  0
  3  8  2  0  0  0  0
  3 16  1  0  0  0  0
  4  9  1  0  0  0  0
  4 16  2  0  0  0  0
  5 18  1  0  0  0  0
  6 20  1  0  0  0  0
  7 10  2  0  0  0  0
  7 19  1  0  0  0  0
  8 24  1  0  0  0  0
  9 24  2  0  0  0  0
 10 25  1  0  0  0  0
 11 12  2  0  0  0  0
 11 26  1  0  0  0  0
 12 27  1  0  0  0  0
 13 21  1  0  0  0  0
 13 25  2  0  0  0  0
 14 23  1  0  0  0  0
 14 30  2  0  0  0  0
 15 27  2  0  0  0  0
 15 28  1  0  0  0  0
 16 29  1  0  0  0  0
 17 29  1  0  0  0  0
 17 32  2  0  0  0  0
 17 33  1  0  0  0  0
 18 20  2  0  0  0  0
 18 38  1  0  0  0  0
 19 21  2  0  0  0  0
 19 39  1  0  0  0  0
 20 50  1  0  0  0  0
 21 40  1  0  0  0  0
 22 23  2  0  0  0  0
 22 31  1  0  0  0  0
 22 49  1  0  0  0  0
 23 72  1  0  0  0  0
 24 82  1  0  0  0  0
 25 83  1  0  0  0  0
 26 28  2  0  0  0  0
 26 82  1  0  0  0  0
 27 84  1  0  0  0  0
 28 85  1  0  0  0  0
 29 65  2  0  0  0  0
 30 59  1  0  0  0  0
 30 67  1  0  0  0  0
 31 53  1  0  0  0  0
 31 67  2  0  0  0  0
 32 66  1  0  0  0  0
 32 70  1  0  0  0  0
 33 71  1  0  0  0  0
 33 77  2  0  0  0  0
 34 51  1  0  0  0  0
 34 73  1  0  0  0  0
 34 78  2  0  0  0  0
 35 62  1  0  0  0  0
 35 68  1  0  0  0  0
 35 79  2  0  0  0  0
 36 63  1  0  0  0  0
 36 74  1  0  0  0  0
 36 80  2  0  0  0  0
 37 69  1  0  0  0  0
 37 75  1  0  0  0  0
 37 81  2  0  0  0  0
 38 41  1  0  0  0  0
 39 51  1  0  0  0  0
 40 68  1  0  0  0  0
 41 45  1  0  0  0  0
 42 46  1  0  0  0  0
 42 47  1  0  0  0  0
 43 44  1  0  0  0  0
 43 49  1  0  0  0  0
 44 49  1  0  0  0  0
 45 50  1  0  0  0  0
 46 52  1  0  0  0  0
 47 69  1  0  0  0  0
 48 52  1  0  0  0  0
 48 69  1  0  0  0  0
 50 73  1  0  0  0  0
 51 68  1  0  0  0  0
 52 66  1  0  0  0  0
 54 63  1  0  0  0  0
 55 64  1  0  0  0  0
 56 64  1  0  0  0  0
 57 64  1  0  0  0  0
 58 76  1  0  0  0  0
 59 75  1  0  0  0  0
 60 61  1  0  0  0  0
 60 72  1  0  0  0  0
 61 83  1  0  0  0  0
 62 64  1  0  0  0  0
 62 74  1  0  0  0  0
 63 76  1  0  0  0  0
 65 66  1  0  0  0  0
M  CHG  2  67   1  76   1
M  ISO  4  37 100  61 101  75 100  83 101
M  END
> <Batch ID>
0177

> <Smiles>
CNC(C)C(=O)NC(C(=O)N1Cc2cc([101O:1][101CH2:1]CNc3cc(C[100NH:0][100C:0](=O)N4CCCC(n5nc(-c6ccc(Oc7ccc(F)cc7F)cc6)c(C(N)=O)c5N)C4)nc(C)c3C3CC3)ccc2CC1C(=O)NC1CCCc2ccccc21)C(C)(C)C

> <Shape>
0.260

> <Color>
0.198

> <Negative vol penalty>
0.000

$$$$

  -OEChem-04052322523D

 86 95  0     1  0  0  0  0  0999 V2000
  -16.6127  -28.8345   23.1072 C   0  0  0  0  0  0  0  0  0  0  0  0
  -17.1295  -29.6419   22.0990 C   0  0  0  0  0  0  0  0  0  0  0  0
  -28.3213  -12.2626   22.6549 C   0  0  0  0  0  0  0  0  0  0  0  0
  -27.0930  -12.5570   20.5953 C   0  0  0  0  0  0  0  0  0  0  0  0
  -17.3179  -28.6722   24.2990 C   0  0  0  0  0  0  0  0  0  0  0  0
  -18.3513  -30.2884   22.2824 C   0  0  0  0  0  0  0  0  0  0  0  0
  -24.8463  -30.0303   17.9494 C   0  0  0  0  0  0  0  0  0  0  0  0
  -27.9247  -10.9261   22.7003 C   0  0  0  0  0  0  0  0  0  0  0  0
  -26.6965  -11.2205   20.6407 C   0  0  0  0  0  0  0  0  0  0  0  0
  -26.1036  -29.9422   17.3513 C   0  0  0  0  0  0  0  0  0  0  0  0
  -24.3935   -9.3592   22.2725 C   0  0  0  0  0  0  0  0  0  0  0  0
  -23.0549   -9.0710   22.0064 C   0  0  0  0  0  0  0  0  0  0  0  0
  -27.1567  -30.4772   19.4614 C   0  0  0  0  0  0  0  0  0  0  0  0
  -23.7231   -7.6929   20.1379 C   0  0  0  0  0  0  0  0  0  0  0  0
  -27.6924  -24.5400   19.1635 C   0  0  0  0  0  0  0  0  0  0  0  0
  -27.9054  -13.0781   21.6024 C   0  0  0  0  0  0  0  0  0  0  0  0
  -29.4678  -14.9835   20.9420 C   0  0  0  0  0  0  0  0  0  0  0  0
  -18.5537  -29.3093   24.4933 C   0  0  0  0  0  0  0  0  0  0  0  0
  -24.7400  -30.3274   19.3109 C   0  0  0  0  0  0  0  0  0  0  0  0
  -19.0731  -30.1355   23.4784 C   0  0  0  0  0  0  0  0  0  0  0  0
  -25.9005  -30.5545   20.0688 C   0  0  0  0  0  0  0  0  0  0  0  0
  -28.4915  -24.4301   18.0494 C   0  0  0  0  0  0  0  0  0  0  0  0
  -28.9055  -23.1610   17.6407 C   0  0  0  0  0  0  0  0  0  0  0  0
  -28.5249  -22.0334   18.3393 C   0  0  0  0  0  0  0  0  0  0  0  0
  -27.1123  -10.4050   21.6932 C   0  0  0  0  0  0  0  0  0  0  0  0
  -27.2558  -30.1653   18.1054 C   0  0  0  0  0  0  0  0  0  0  0  0
  -25.3969   -8.8144   21.4712 C   0  0  0  0  0  0  0  0  0  0  0  0
  -22.7197   -8.2379   20.9392 C   0  0  0  0  0  0  0  0  0  0  0  0
  -25.0616   -7.9812   20.4039 C   0  0  0  0  0  0  0  0  0  0  0  0
  -28.3142  -14.4589   21.5552 C   0  0  0  0  0  0  0  0  0  0  0  0
  -27.7307  -22.2446   19.4568 C   0  0  0  0  0  0  0  0  0  0  0  0
  -29.3969  -16.3349   21.1765 C   0  0  0  0  0  0  0  0  0  0  0  0
  -30.5101  -14.3094   20.2246 C   0  0  0  0  0  0  0  0  0  0  0  0
  -22.4827  -30.8695   22.2582 C   0  0  0  0  0  0  0  0  0  0  0  0
  -24.8919  -29.2595   23.2652 C   0  0  0  0  0  0  0  0  0  0  0  0
  -26.9945  -26.9418   23.5975 C   0  0  0  0  0  0  0  0  0  0  0  0
  -26.5285  -21.1040   21.3542 C   0  0  0  0  0  0  0  0  0  0  0  0
  -19.2567  -29.1415   25.8170 C   0  0  0  0  0  0  0  0  0  0  0  0
  -23.4042  -30.4930   19.9832 C   0  0  0  0  0  0  0  0  0  0  0  0
  -29.7208  -23.2452   16.3879 C   0  0  0  0  0  0  0  0  0  0  0  0
  -25.7366  -30.9055   21.5223 C   0  0  0  0  0  0  0  0  0  0  0  0
  -20.7238  -29.5621   25.7851 C   0  0  0  0  0  0  0  0  0  0  0  0
  -30.1290  -24.7289   16.4022 C   0  0  0  0  0  0  0  0  0  0  0  0
  -26.3473  -18.9950   24.2172 C   0  0  0  0  0  0  0  0  0  0  0  0
  -20.8778  -30.9098   25.0875 C   0  0  0  0  0  0  0  0  0  0  0  0
  -26.9377  -17.6701   23.7294 C   0  0  0  0  0  0  0  0  0  0  0  0
  -25.5250  -19.6841   23.1296 C   0  0  0  0  0  0  0  0  0  0  0  0
  -26.8118  -18.5476   21.3627 C   0  0  0  0  0  0  0  0  0  0  0  0
  -20.4072  -30.8336   23.6300 C   0  0  1  0  0  0  0  0  0  0  0  0
  -28.9818  -25.4765   17.1055 C   0  0  2  0  0  0  0  0  0  0  0  0
  -23.3985  -30.0047   21.4428 C   0  0  1  0  0  0  0  0  0  0  0  0
  -27.7021  -17.8481   22.4029 C   0  0  2  0  0  0  0  0  0  0  0  0
  -28.9493  -20.6762   17.8991 C   0  0  0  0  0  0  0  0  0  0  0  0
  -28.6028  -25.1395   24.2774 C   0  0  0  0  0  0  0  0  0  0  0  0
  -26.0966  -31.8180   24.4083 C   0  0  0  0  0  0  0  0  0  0  0  0
  -27.8186  -30.4097   25.5571 C   0  0  0  0  0  0  0  0  0  0  0  0
  -25.4047  -30.1337   26.1226 C   0  0  0  0  0  0  0  0  0  0  0  0
  -24.8272  -24.9423   23.8505 C   0  0  0  0  0  0  0  0  0  0  0  0
  -30.0323  -27.7072   16.7546 C   0  0  0  0  0  0  0  0  0  0  0  0
  -29.5675  -29.6572   18.3415 C   0  0  0  0  0  0  0  0  0  1  0  0
  -26.2604  -29.2925   23.8973 C   0  0  1  0  0  0  0  0  0  0  0  0
  -27.1699  -25.6419   24.3616 C   0  0  2  0  0  0  0  0  0  0  0  0
  -30.5916  -28.9304   17.4758 C   0  0  1  0  0  0  0  0  0  0  0  0
  -26.3917  -30.4121   24.9681 C   0  0  0  0  0  0  0  0  0  0  0  0
  -27.3060  -23.4637   19.8868 N   0  0  0  0  0  0  0  0  0  0  0  0
  -27.5655  -15.4004   22.1357 N   0  0  0  0  0  0  0  0  0  0  0  0
  -28.2501  -16.5301   21.8885 N   0  0  0  0  0  0  0  0  0  0  0  0
  -24.7000  -30.0566   22.1302 N   0  0  0  0  0  0  0  0  0  0  0  0
  -26.3149  -19.8222   21.9040 N   0  0  0  0  0  0  0  0  0  0  0  0
  -30.2044  -17.3635   20.8412 N   0  0  0  0  0  0  0  0  0  0  0  0
  -30.4272  -12.9182   20.0760 N   0  0  0  0  0  0  0  0  0  0  0  0
  -27.3215  -21.1144   20.2072 N   0  0  0  0  0  0  0  0  0  0  0  0
  -21.4108  -30.1924   22.8077 N   0  0  0  0  0  0  0  0  0  0  0  0
  -26.5078  -27.9476   24.4055 N   0  0  0  0  0  0  0  0  0  0  0  0
  -29.4991  -26.7173   17.7233 N   0  3  0  0  0  0  0  0  0  0  0  0
  -26.2700  -24.5906   23.8087 N   0  3  0  0  0  0  0  0  0  0  0  0
  -31.4946  -14.9205   19.7440 O   0  0  0  0  0  0  0  0  0  0  0  0
  -22.7301  -32.0633   22.3818 O   0  0  0  0  0  0  0  0  0  0  0  0
  -24.0134  -28.5515   23.7655 O   0  0  0  0  0  0  0  0  0  0  0  0
  -27.2658  -27.0548   22.4041 O   0  0  0  0  0  0  0  0  0  0  0  0
  -26.0662  -22.1204   21.8787 O   0  0  0  0  0  0  0  0  0  0  0  0
  -31.6861  -28.5366   18.3050 O   0  0  0  0  0  0  0  0  0  0  0  0
  -26.7254   -9.1008   21.7371 O   0  0  0  0  0  0  0  0  0  0  0  0
  -28.4802  -30.0733   17.5162 O   0  0  0  0  0  0  0  0  0  1  0  0
  -21.4343   -7.9599   20.6847 F   0  0  0  0  0  0  0  0  0  0  0  0
  -26.0212   -7.4538   19.6313 F   0  0  0  0  0  0  0  0  0  0  0  0
  1  2  1  0  0  0  0
  1  5  2  0  0  0  0
  2  6  2  0  0  0  0
  3  8  2  0  0  0  0
  3 16  1  0  0  0  0
  4  9  1  0  0  0  0
  4 16  2  0  0  0  0
  5 18  1  0  0  0  0
  6 20  1  0  0  0  0
  7 10  2  0  0  0  0
  7 19  1  0  0  0  0
  8 25  1  0  0  0  0
  9 25  2  0  0  0  0
 10 26  1  0  0  0  0
 11 12  2  0  0  0  0
 11 27  1  0  0  0  0
 12 28  1  0  0  0  0
 13 21  1  0  0  0  0
 13 26  2  0  0  0  0
 14 28  2  0  0  0  0
 14 29  1  0  0  0  0
 15 22  2  0  0  0  0
 15 65  1  0  0  0  0
 16 30  1  0  0  0  0
 17 30  1  0  0  0  0
 17 32  2  0  0  0  0
 17 33  1  0  0  0  0
 18 20  2  0  0  0  0
 18 38  1  0  0  0  0
 19 21  2  0  0  0  0
 19 39  1  0  0  0  0
 20 49  1  0  0  0  0
 21 41  1  0  0  0  0
 22 23  1  0  0  0  0
 22 50  1  0  0  0  0
 23 24  2  0  0  0  0
 23 40  1  0  0  0  0
 24 31  1  0  0  0  0
 24 53  1  0  0  0  0
 25 83  1  0  0  0  0
 26 84  1  0  0  0  0
 27 29  2  0  0  0  0
 27 83  1  0  0  0  0
 28 85  1  0  0  0  0
 29 86  1  0  0  0  0
 30 66  2  0  0  0  0
 31 65  2  0  0  0  0
 31 72  1  0  0  0  0
 32 67  1  0  0  0  0
 32 70  1  0  0  0  0
 33 71  1  0  0  0  0
 33 77  2  0  0  0  0
 34 51  1  0  0  0  0
 34 73  1  0  0  0  0
 34 78  2  0  0  0  0
 35 61  1  0  0  0  0
 35 68  1  0  0  0  0
 35 79  2  0  0  0  0
 36 62  1  0  0  0  0
 36 74  1  0  0  0  0
 36 80  2  0  0  0  0
 37 69  1  0  0  0  0
 37 72  1  0  0  0  0
 37 81  2  0  0  0  0
 38 42  1  0  0  0  0
 39 51  1  0  0  0  0
 40 43  1  0  0  0  0
 41 68  1  0  0  0  0
 42 45  1  0  0  0  0
 43 50  1  0  0  0  0
 44 46  1  0  0  0  0
 44 47  1  0  0  0  0
 45 49  1  0  0  0  0
 46 52  1  0  0  0  0
 47 69  1  0  0  0  0
 48 52  1  0  0  0  0
 48 69  1  0  0  0  0
 49 73  1  0  0  0  0
 50 75  1  0  0  0  0
 51 68  1  0  0  0  0
 52 67  1  0  0  0  0
 54 62  1  0  0  0  0
 55 64  1  0  0  0  0
 56 64  1  0  0  0  0
 57 64  1  0  0  0  0
 58 76  1  0  0  0  0
 59 63  1  0  0  0  0
 59 75  1  0  0  0  0
 60 63  1  0  0  0  0
 60 84  1  0  0  0  0
 61 64  1  0  0  0  0
 61 74  1  0  0  0  0
 62 76  1  0  0  0  0
 63 82  1  0  0  0  0
 66 67  1  0  0  0  0
M  CHG  2  75   1  76   1
M  ISO  4  37 100  60 101  72 100  84 101
M  END
> <Batch ID>
0177

> <Smiles>
CNC(C)C(=O)NC(C(=O)N1Cc2cc([101O:1][101CH2:1]C(O)CNC3CCc4c3cnc([100NH:0][100C:0](=O)N3CCCC(n5nc(-c6ccc(Oc7ccc(F)cc7F)cc6)c(C(N)=O)c5N)C3)c4C)ccc2CC1C(=O)NC1CCCc2ccccc21)C(C)(C)C

> <Shape>
0.239

> <Color>
0.089

> <Negative vol penalty>
0.000

$$$$

  -OEChem-04052322523D

 82 91  0     1  0  0  0  0  0999 V2000
  -28.4174  -11.1631   19.5194 C   0  0  0  0  0  0  0  0  0  0  0  0
  -28.8318  -12.4509   19.1950 C   0  0  0  0  0  0  0  0  0  0  0  0
  -20.1032  -28.1493   23.9642 C   0  0  0  0  0  0  0  0  0  0  0  0
  -20.4766  -27.1479   21.7974 C   0  0  0  0  0  0  0  0  0  0  0  0
  -27.1042  -10.9371   19.9295 C   0  0  0  0  0  0  0  0  0  0  0  0
  -27.9328  -13.5134   19.2795 C   0  0  0  0  0  0  0  0  0  0  0  0
  -29.1917  -19.2801   20.9124 C   0  0  0  0  0  0  0  0  0  0  0  0
  -18.7264  -28.1120   23.7441 C   0  0  0  0  0  0  0  0  0  0  0  0
  -19.0997  -27.1107   21.5773 C   0  0  0  0  0  0  0  0  0  0  0  0
  -29.4228  -20.4364   20.1685 C   0  0  0  0  0  0  0  0  0  0  0  0
  -15.6679  -26.4204   20.5952 C   0  0  0  0  0  0  0  0  0  0  0  0
  -15.1259  -25.2476   20.0696 C   0  0  0  0  0  0  0  0  0  0  0  0
  -27.1072  -21.0602   20.4301 C   0  0  0  0  0  0  0  0  0  0  0  0
  -29.6544  -25.1542   18.6177 C   0  0  0  0  0  0  0  0  0  0  0  0
  -30.3456  -23.9895   16.6302 C   0  0  0  0  0  0  0  0  0  0  0  0
  -15.9363  -24.0153   21.9832 C   0  0  0  0  0  0  0  0  0  0  0  0
  -20.9784  -27.6673   22.9907 C   0  0  0  0  0  0  0  0  0  0  0  0
  -23.1939  -26.7081   23.8147 C   0  0  0  0  0  0  0  0  0  0  0  0
  -26.1912  -11.9989   20.0284 C   0  0  0  0  0  0  0  0  0  0  0  0
  -27.9119  -18.9993   21.4123 C   0  0  0  0  0  0  0  0  0  0  0  0
  -26.6057  -13.3013   19.6901 C   0  0  0  0  0  0  0  0  0  0  0  0
  -26.8631  -19.9010   21.1822 C   0  0  0  0  0  0  0  0  0  0  0  0
  -29.9774  -23.9666   17.9708 C   0  0  0  0  0  0  0  0  0  0  0  0
  -18.2246  -27.5927   22.5508 C   0  0  0  0  0  0  0  0  0  0  0  0
  -28.3798  -21.3252   19.9248 C   0  0  0  0  0  0  0  0  0  0  0  0
  -16.3442  -26.3907   21.8149 C   0  0  0  0  0  0  0  0  0  0  0  0
  -15.2601  -24.0451   20.7635 C   0  0  0  0  0  0  0  0  0  0  0  0
  -16.4784  -25.1882   22.5088 C   0  0  0  0  0  0  0  0  0  0  0  0
  -22.4008  -27.7060   23.2172 C   0  0  0  0  0  0  0  0  0  0  0  0
  -29.7146  -26.3288   17.8852 C   0  0  0  0  0  0  0  0  0  0  0  0
  -30.3746  -25.2162   15.9867 C   0  0  0  0  0  0  0  0  0  0  0  0
  -24.4669  -27.2236   23.7949 C   0  0  0  0  0  0  0  0  0  0  0  0
  -22.8140  -25.4295   24.3406 C   0  0  0  0  0  0  0  0  0  0  0  0
  -25.7944  -16.6694   20.9748 C   0  0  0  0  0  0  0  0  0  0  0  0
  -24.1926  -18.2114   23.3368 C   0  0  0  0  0  0  0  0  0  0  0  0
  -23.6243  -21.1178   25.0328 C   0  0  0  0  0  0  0  0  0  0  0  0
  -28.5306  -29.8928   20.9279 C   0  0  0  0  0  0  0  0  0  0  0  0
  -24.7691  -11.6984   20.4309 C   0  0  0  0  0  0  0  0  0  0  0  0
  -27.6852  -17.7610   22.2355 C   0  0  0  0  0  0  0  0  0  0  0  0
  -25.4755  -19.6557   21.7140 C   0  0  0  0  0  0  0  0  0  0  0  0
  -23.9815  -12.9357   20.8540 C   0  0  0  0  0  0  0  0  0  0  0  0
  -26.1459  -31.8591   22.7662 C   0  0  0  0  0  0  0  0  0  0  0  0
  -24.1915  -14.0695   19.8554 C   0  0  0  0  0  0  0  0  0  0  0  0
  -24.9999  -30.8938   23.0501 C   0  0  0  0  0  0  0  0  0  0  0  0
  -26.7828  -31.5650   21.4146 C   0  0  0  0  0  0  0  0  0  0  0  0
  -28.0338  -27.9387   19.2562 C   0  0  0  0  0  0  0  0  0  0  0  0
  -30.0642  -28.1826   19.8141 C   0  0  0  0  0  0  0  0  0  0  0  0
  -26.1743  -29.1668   21.5943 C   0  0  0  0  0  0  0  0  0  0  0  0
  -25.6667  -14.4836   19.7930 C   0  0  1  0  0  0  0  0  0  0  0  0
  -29.3719  -27.7486   18.5016 C   0  0  0  0  0  0  0  0  0  0  0  0
  -26.2254  -17.3186   22.2596 C   0  0  1  0  0  0  0  0  0  0  0  0
  -25.4835  -29.4404   22.9450 C   0  0  2  0  0  0  0  0  0  0  0  0
  -30.7649  -25.2785   14.5477 C   0  0  0  0  0  0  0  0  0  0  0  0
  -22.2313  -22.0765   26.8870 C   0  0  0  0  0  0  0  0  0  0  0  0
  -21.7718  -18.2776   21.4807 C   0  0  0  0  0  0  0  0  0  0  0  0
  -20.7702  -20.0286   22.9636 C   0  0  0  0  0  0  0  0  0  0  0  0
  -21.2421  -17.7520   23.8677 C   0  0  0  0  0  0  0  0  0  0  0  0
  -26.0178  -21.8043   26.6324 C   0  0  0  0  0  0  0  0  0  0  0  0
  -29.9290  -22.6655   18.7167 C   0  0  0  0  0  0  0  0  0  1  0  0
  -23.1676  -19.3185   23.3871 C   0  0  1  0  0  0  0  0  0  0  0  0
  -23.5525  -21.4194   26.5188 C   0  0  2  0  0  0  0  0  0  0  0  0
  -21.7635  -18.8481   22.9130 C   0  0  0  0  0  0  0  0  0  0  0  0
  -23.1104  -28.7746   22.8451 N   0  0  0  0  0  0  0  0  0  0  0  0
  -30.0676  -26.3906   16.5817 N   0  0  0  0  0  0  0  0  0  0  0  0
  -24.3628  -28.4512   23.2098 N   0  0  0  0  0  0  0  0  0  0  0  0
  -25.3025  -18.4280   22.5079 N   0  0  0  0  0  0  0  0  0  0  0  0
  -27.2092  -30.1671   21.2979 N   0  0  0  0  0  0  0  0  0  0  0  0
  -28.7794  -28.7523   20.2013 N   0  0  0  0  0  0  0  0  0  0  0  0
  -25.6538  -26.7421   24.2212 N   0  0  0  0  0  0  0  0  0  0  0  0
  -21.4642  -25.0569   24.2811 N   0  0  0  0  0  0  0  0  0  0  0  0
  -26.0097  -15.3050   20.9341 N   0  0  0  0  0  0  0  0  0  0  0  0
  -23.1949  -19.8384   24.7500 N   0  0  0  0  0  0  0  0  0  0  0  0
  -24.6594  -22.3349   26.9157 N   0  3  0  0  0  0  0  0  0  0  0  0
  -23.6443  -24.6478   24.8632 O   0  0  0  0  0  0  0  0  0  0  0  0
  -25.3017  -17.3553   20.0869 O   0  0  0  0  0  0  0  0  0  0  0  0
  -24.0187  -17.1950   24.0137 O   0  0  0  0  0  0  0  0  0  0  0  0
  -24.0181  -21.9367   24.2052 O   0  0  0  0  0  0  0  0  0  0  0  0
  -29.4609  -30.6591   21.2117 O   0  0  0  0  0  0  0  0  0  0  0  0
  -16.8811  -27.5560   22.3358 O   0  0  0  0  0  0  0  0  0  0  0  0
  -28.6025  -22.4543   19.1985 O   0  0  0  0  0  0  0  0  0  1  0  0
  -14.7382  -22.9192   20.2593 F   0  0  0  0  0  0  0  0  0  0  0  0
  -17.1260  -25.1536   23.6815 F   0  0  0  0  0  0  0  0  0  0  0  0
  1  2  1  0  0  0  0
  1  5  2  0  0  0  0
  2  6  2  0  0  0  0
  3  8  2  0  0  0  0
  3 17  1  0  0  0  0
  4  9  1  0  0  0  0
  4 17  2  0  0  0  0
  5 19  1  0  0  0  0
  6 21  1  0  0  0  0
  7 10  2  0  0  0  0
  7 20  1  0  0  0  0
  8 24  1  0  0  0  0
  9 24  2  0  0  0  0
 10 25  1  0  0  0  0
 11 12  2  0  0  0  0
 11 26  1  0  0  0  0
 12 27  1  0  0  0  0
 13 22  1  0  0  0  0
 13 25  2  0  0  0  0
 14 23  2  0  0  0  0
 14 30  1  0  0  0  0
 15 23  1  0  0  0  0
 15 31  2  0  0  0  0
 16 27  2  0  0  0  0
 16 28  1  0  0  0  0
 17 29  1  0  0  0  0
 18 29  1  0  0  0  0
 18 32  2  0  0  0  0
 18 33  1  0  0  0  0
 19 21  2  0  0  0  0
 19 38  1  0  0  0  0
 20 22  2  0  0  0  0
 20 39  1  0  0  0  0
 21 49  1  0  0  0  0
 22 40  1  0  0  0  0
 23 59  1  0  0  0  0
 24 79  1  0  0  0  0
 25 80  1  0  0  0  0
 26 28  2  0  0  0  0
 26 79  1  0  0  0  0
 27 81  1  0  0  0  0
 28 82  1  0  0  0  0
 29 63  2  0  0  0  0
 30 50  1  0  0  0  0
 30 64  2  0  0  0  0
 31 53  1  0  0  0  0
 31 64  1  0  0  0  0
 32 65  1  0  0  0  0
 32 69  1  0  0  0  0
 33 70  1  0  0  0  0
 33 74  2  0  0  0  0
 34 51  1  0  0  0  0
 34 71  1  0  0  0  0
 34 75  2  0  0  0  0
 35 60  1  0  0  0  0
 35 66  1  0  0  0  0
 35 76  2  0  0  0  0
 36 61  1  0  0  0  0
 36 72  1  0  0  0  0
 36 77  2  0  0  0  0
 37 67  1  0  0  0  0
 37 68  1  0  0  0  0
 37 78  2  0  0  0  0
 38 41  1  0  0  0  0
 39 51  1  0  0  0  0
 40 66  1  0  0  0  0
 41 43  1  0  0  0  0
 42 44  1  0  0  0  0
 42 45  1  0  0  0  0
 43 49  1  0  0  0  0
 44 52  1  0  0  0  0
 45 67  1  0  0  0  0
 46 50  1  0  0  0  0
 46 68  1  0  0  0  0
 47 50  1  0  0  0  0
 47 68  1  0  0  0  0
 48 52  1  0  0  0  0
 48 67  1  0  0  0  0
 49 71  1  0  0  0  0
 51 66  1  0  0  0  0
 52 65  1  0  0  0  0
 54 61  1  0  0  0  0
 55 62  1  0  0  0  0
 56 62  1  0  0  0  0
 57 62  1  0  0  0  0
 58 73  1  0  0  0  0
 59 80  1  0  0  0  0
 60 62  1  0  0  0  0
 60 72  1  0  0  0  0
 61 73  1  0  0  0  0
 63 65  1  0  0  0  0
M  CHG  1  73   1
M  ISO  4  37 100  59 101  68 100  80 101
M  END
> <Batch ID>
0177

> <Smiles>
CNC(C)C(=O)NC(C(=O)N1Cc2cc([101O:1][101CH2:1]c3cc(C)nc(C4C[100N:0]([100C:0](=O)N5CCCC(n6nc(-c7ccc(Oc8ccc(F)cc8F)cc7)c(C(N)=O)c6N)C5)C4)c3)ccc2CC1C(=O)NC1CCCc2ccccc21)C(C)(C)C

> <Shape>
0.229

> <Color>
0.067

> <Negative vol penalty>
0.000

$$$$

  -OEChem-04052322523D

 82 91  0     1  0  0  0  0  0999 V2000
  -16.8251  -28.4433   23.9324 C   0  0  0  0  0  0  0  0  0  0  0  0
  -17.7356  -27.3976   24.0468 C   0  0  0  0  0  0  0  0  0  0  0  0
  -23.0960   -9.9440   21.5462 C   0  0  0  0  0  0  0  0  0  0  0  0
  -23.7753  -11.0272   23.5962 C   0  0  0  0  0  0  0  0  0  0  0  0
  -17.1268  -29.5444   23.1321 C   0  0  0  0  0  0  0  0  0  0  0  0
  -18.9480  -27.4520   23.3601 C   0  0  0  0  0  0  0  0  0  0  0  0
  -24.3489  -25.2666   25.2469 C   0  0  0  0  0  0  0  0  0  0  0  0
  -22.3827   -8.9981   22.2823 C   0  0  0  0  0  0  0  0  0  0  0  0
  -23.0619  -10.0813   24.3324 C   0  0  0  0  0  0  0  0  0  0  0  0
  -25.0326  -24.0847   24.9653 C   0  0  0  0  0  0  0  0  0  0  0  0
  -23.0545   -6.2043   24.0622 C   0  0  0  0  0  0  0  0  0  0  0  0
  -23.1881   -4.8648   23.6969 C   0  0  0  0  0  0  0  0  0  0  0  0
  -26.2971  -25.2296   23.2596 C   0  0  0  0  0  0  0  0  0  0  0  0
  -20.8130   -4.7442   23.2708 C   0  0  0  0  0  0  0  0  0  0  0  0
  -28.1376  -19.3516   22.8843 C   0  0  0  0  0  0  0  0  0  0  0  0
  -23.7924  -10.9586   22.2031 C   0  0  0  0  0  0  0  0  0  0  0  0
  -24.0540  -13.1658   20.9512 C   0  0  0  0  0  0  0  0  0  0  0  0
  -18.3476  -29.6167   22.4429 C   0  0  0  0  0  0  0  0  0  0  0  0
  -24.6270  -26.4382   24.5283 C   0  0  0  0  0  0  0  0  0  0  0  0
  -19.2658  -28.5545   22.5488 C   0  0  0  0  0  0  0  0  0  0  0  0
  -25.6174  -26.4257   23.5357 C   0  0  0  0  0  0  0  0  0  0  0  0
  -22.3656   -9.0667   23.6754 C   0  0  0  0  0  0  0  0  0  0  0  0
  -26.0048  -24.0653   23.9696 C   0  0  0  0  0  0  0  0  0  0  0  0
  -21.8002   -6.8138   24.0319 C   0  0  0  0  0  0  0  0  0  0  0  0
  -22.0674   -4.1347   23.3012 C   0  0  0  0  0  0  0  0  0  0  0  0
  -20.6795   -6.0837   23.6362 C   0  0  0  0  0  0  0  0  0  0  0  0
  -24.5299  -11.9357   21.4432 C   0  0  0  0  0  0  0  0  0  0  0  0
  -29.3072  -19.1652   22.1809 C   0  0  0  0  0  0  0  0  0  0  0  0
  -29.4260  -21.4140   21.7826 C   0  0  0  0  0  0  0  0  0  0  0  0
  -28.2561  -21.6003   22.4854 C   0  0  0  0  0  0  0  0  0  0  0  0
  -25.1326  -13.7169   20.3036 C   0  0  0  0  0  0  0  0  0  0  0  0
  -22.7533  -13.7574   21.0691 C   0  0  0  0  0  0  0  0  0  0  0  0
  -22.9542  -28.3451   22.6126 C   0  0  0  0  0  0  0  0  0  0  0  0
  -25.6387  -30.1629   22.7223 C   0  0  0  0  0  0  0  0  0  0  0  0
  -29.0087  -30.3252   23.2351 C   0  0  0  0  0  0  0  0  0  0  0  0
  -30.6482  -14.9154   20.3094 C   0  0  0  0  0  0  0  0  0  0  0  0
  -18.6092  -30.8055   21.5524 C   0  0  0  0  0  0  0  0  0  0  0  0
  -23.8995  -27.7116   24.8624 C   0  0  0  0  0  0  0  0  0  0  0  0
  -25.9676  -27.6616   22.7493 C   0  0  0  0  0  0  0  0  0  0  0  0
  -20.0751  -30.9580   21.1549 C   0  0  0  0  0  0  0  0  0  0  0  0
  -29.5786  -11.7398   19.0039 C   0  0  0  0  0  0  0  0  0  0  0  0
  -20.6481  -29.6182   20.7039 C   0  0  0  0  0  0  0  0  0  0  0  0
  -28.1540  -11.5786   19.5238 C   0  0  0  0  0  0  0  0  0  0  0  0
  -30.4475  -12.4737   20.0166 C   0  0  0  0  0  0  0  0  0  0  0  0
  -29.1014  -16.5173   21.6883 C   0  0  0  0  0  0  0  0  0  0  0  0
  -30.6534  -17.4529   20.5887 C   0  0  0  0  0  0  0  0  0  0  0  0
  -28.4775  -13.7016   20.8912 C   0  0  0  0  0  0  0  0  0  0  0  0
  -20.6019  -28.5883   21.8391 C   0  0  1  0  0  0  0  0  0  0  0  0
  -29.9933  -17.7542   21.9539 C   0  0  0  0  0  0  0  0  0  0  0  0
  -23.9019  -28.7193   23.7170 C   0  0  1  0  0  0  0  0  0  0  0  0
  -27.5646  -12.9437   19.9070 C   0  0  2  0  0  0  0  0  0  0  0  0
  -30.1510  -22.5591   21.1621 C   0  0  0  0  0  0  0  0  0  0  0  0
  -30.9284  -31.9413   23.2172 C   0  0  0  0  0  0  0  0  0  0  0  0
  -25.6359  -30.1285   19.6713 C   0  0  0  0  0  0  0  0  0  0  0  0
  -28.0148  -30.9068   19.7298 C   0  0  0  0  0  0  0  0  0  0  0  0
  -26.2118  -32.3391   20.6891 C   0  0  0  0  0  0  0  0  0  0  0  0
  -29.5896  -29.8465   26.0973 C   0  0  0  0  0  0  0  0  0  0  0  0
  -27.6566  -22.9647   22.6595 C   0  0  0  0  0  0  0  0  0  1  0  0
  -26.9110  -30.2405   21.9135 C   0  0  1  0  0  0  0  0  0  0  0  0
  -29.8570  -31.2726   24.0642 C   0  0  2  0  0  0  0  0  0  0  0  0
  -26.6856  -30.8798   20.5142 C   0  0  0  0  0  0  0  0  0  0  0  0
  -27.5910  -20.5725   23.0492 N   0  0  0  0  0  0  0  0  0  0  0  0
  -25.8110  -11.7177   21.1345 N   0  0  0  0  0  0  0  0  0  0  0  0
  -29.9724  -20.1931   21.6174 N   0  0  0  0  0  0  0  0  0  0  0  0
  -26.1492  -12.8183   20.4414 N   0  0  0  0  0  0  0  0  0  0  0  0
  -25.2241  -28.8804   23.1087 N   0  0  0  0  0  0  0  0  0  0  0  0
  -29.8661  -13.7597   20.4135 N   0  0  0  0  0  0  0  0  0  0  0  0
  -30.1018  -16.1096   20.7167 N   0  0  0  0  0  0  0  0  0  0  0  0
  -25.3010  -14.8777   19.6353 N   0  0  0  0  0  0  0  0  0  0  0  0
  -21.7611  -13.0560   21.7676 N   0  0  0  0  0  0  0  0  0  0  0  0
  -21.6714  -28.8292   22.7840 N   0  0  0  0  0  0  0  0  0  0  0  0
  -27.8802  -30.9470   22.7441 N   0  0  0  0  0  0  0  0  0  0  0  0
  -30.5266  -30.5337   25.1718 N   0  3  0  0  0  0  0  0  0  0  0  0
  -22.4745  -14.8675   20.5557 O   0  0  0  0  0  0  0  0  0  0  0  0
  -23.3575  -27.6685   21.6738 O   0  0  0  0  0  0  0  0  0  0  0  0
  -25.0387  -31.2024   23.0070 O   0  0  0  0  0  0  0  0  0  0  0  0
  -29.3183  -29.1520   23.0393 O   0  0  0  0  0  0  0  0  0  0  0  0
  -31.8136  -14.8800   19.8925 O   0  0  0  0  0  0  0  0  0  0  0  0
  -21.6694   -8.1440   24.3941 O   0  0  0  0  0  0  0  0  0  0  0  0
  -26.6732  -22.9128   23.6922 O   0  0  0  0  0  0  0  0  0  1  0  0
  -22.1960   -2.8488   22.9490 F   0  0  0  0  0  0  0  0  0  0  0  0
  -19.4720   -6.6642   23.6039 F   0  0  0  0  0  0  0  0  0  0  0  0
  1  2  1  0  0  0  0
  1  5  2  0  0  0  0
  2  6  2  0  0  0  0
  3  8  2  0  0  0  0
  3 16  1  0  0  0  0
  4  9  1  0  0  0  0
  4 16  2  0  0  0  0
  5 18  1  0  0  0  0
  6 20  1  0  0  0  0
  7 10  2  0  0  0  0
  7 19  1  0  0  0  0
  8 22  1  0  0  0  0
  9 22  2  0  0  0  0
 10 23  1  0  0  0  0
 11 12  2  0  0  0  0
 11 24  1  0  0  0  0
 12 25  1  0  0  0  0
 13 21  1  0  0  0  0
 13 23  2  0  0  0  0
 14 25  2  0  0  0  0
 14 26  1  0  0  0  0
 15 28  1  0  0  0  0
 15 62  2  0  0  0  0
 16 27  1  0  0  0  0
 17 27  1  0  0  0  0
 17 31  2  0  0  0  0
 17 32  1  0  0  0  0
 18 20  2  0  0  0  0
 18 37  1  0  0  0  0
 19 21  2  0  0  0  0
 19 38  1  0  0  0  0
 20 48  1  0  0  0  0
 21 39  1  0  0  0  0
 22 79  1  0  0  0  0
 23 80  1  0  0  0  0
 24 26  2  0  0  0  0
 24 79  1  0  0  0  0
 25 81  1  0  0  0  0
 26 82  1  0  0  0  0
 27 63  2  0  0  0  0
 28 49  1  0  0  0  0
 28 64  2  0  0  0  0
 29 30  2  0  0  0  0
 29 52  1  0  0  0  0
 29 64  1  0  0  0  0
 30 58  1  0  0  0  0
 30 62  1  0  0  0  0
 31 65  1  0  0  0  0
 31 69  1  0  0  0  0
 32 70  1  0  0  0  0
 32 74  2  0  0  0  0
 33 50  1  0  0  0  0
 33 71  1  0  0  0  0
 33 75  2  0  0  0  0
 34 59  1  0  0  0  0
 34 66  1  0  0  0  0
 34 76  2  0  0  0  0
 35 60  1  0  0  0  0
 35 72  1  0  0  0  0
 35 77  2  0  0  0  0
 36 67  1  0  0  0  0
 36 68  1  0  0  0  0
 36 78  2  0  0  0  0
 37 40  1  0  0  0  0
 38 50  1  0  0  0  0
 39 66  1  0  0  0  0
 40 42  1  0  0  0  0
 41 43  1  0  0  0  0
 41 44  1  0  0  0  0
 42 48  1  0  0  0  0
 43 51  1  0  0  0  0
 44 67  1  0  0  0  0
 45 49  1  0  0  0  0
 45 68  1  0  0  0  0
 46 49  1  0  0  0  0
 46 68  1  0  0  0  0
 47 51  1  0  0  0  0
 47 67  1  0  0  0  0
 48 71  1  0  0  0  0
 50 66  1  0  0  0  0
 51 65  1  0  0  0  0
 53 60  1  0  0  0  0
 54 61  1  0  0  0  0
 55 61  1  0  0  0  0
 56 61  1  0  0  0  0
 57 73  1  0  0  0  0
 58 80  1  0  0  0  0
 59 61  1  0  0  0  0
 59 72  1  0  0  0  0
 60 73  1  0  0  0  0
 63 65  1  0  0  0  0
M  CHG  1  73   1
M  ISO  4  36 100  58 101  68 100  80 101
M  END
> <Batch ID>
0177

> <Smiles>
CNC(C)C(=O)NC(C(=O)N1Cc2cc([101O:1][101CH2:1]c3ncc(C4C[100N:0]([100C:0](=O)N5CCCC(n6nc(-c7ccc(Oc8ccc(F)cc8F)cc7)c(C(N)=O)c6N)C5)C4)nc3C)ccc2CC1C(=O)NC1CCCc2ccccc21)C(C)(C)C

> <Shape>
0.282

> <Color>
0.172

> <Negative vol penalty>
0.000

$$$$

  -OEChem-04052322523D

 84 93  0     1  0  0  0  0  0999 V2000
  -26.1316  -34.7178   25.1631 C   0  0  0  0  0  0  0  0  0  0  0  0
  -26.0477  -34.5690   23.7833 C   0  0  0  0  0  0  0  0  0  0  0  0
  -24.9888  -14.2736   23.6359 C   0  0  0  0  0  0  0  0  0  0  0  0
  -24.2593  -15.8084   21.9185 C   0  0  0  0  0  0  0  0  0  0  0  0
  -26.6662  -33.6919   25.9396 C   0  0  0  0  0  0  0  0  0  0  0  0
  -26.4872  -33.3897   23.1809 C   0  0  0  0  0  0  0  0  0  0  0  0
  -27.7048  -26.7052   18.3604 C   0  0  0  0  0  0  0  0  0  0  0  0
  -24.6660  -15.2143   24.6138 C   0  0  0  0  0  0  0  0  0  0  0  0
  -23.9365  -16.7491   22.8965 C   0  0  0  0  0  0  0  0  0  0  0  0
  -28.0468  -25.3745   18.5971 C   0  0  0  0  0  0  0  0  0  0  0  0
  -25.5679  -18.9887   24.8340 C   0  0  0  0  0  0  0  0  0  0  0  0
  -25.9634  -20.3088   24.6189 C   0  0  0  0  0  0  0  0  0  0  0  0
  -26.6158  -25.3586   20.5391 C   0  0  0  0  0  0  0  0  0  0  0  0
  -23.6543  -21.0144   24.7035 C   0  0  0  0  0  0  0  0  0  0  0  0
  -24.7855  -14.5706   22.2882 C   0  0  0  0  0  0  0  0  0  0  0  0
  -24.2786  -12.6038   20.7446 C   0  0  0  0  0  0  0  0  0  0  0  0
  -27.1238  -32.5048   25.3443 C   0  0  0  0  0  0  0  0  0  0  0  0
  -26.8227  -27.3771   19.2189 C   0  0  0  0  0  0  0  0  0  0  0  0
  -27.0078  -32.3332   23.9499 C   0  0  0  0  0  0  0  0  0  0  0  0
  -26.2622  -26.6971   20.3095 C   0  0  0  0  0  0  0  0  0  0  0  0
  -24.1398  -16.4521   24.2441 C   0  0  0  0  0  0  0  0  0  0  0  0
  -27.5045  -24.7019   19.6883 C   0  0  0  0  0  0  0  0  0  0  0  0
  -24.2155  -18.6813   24.9838 C   0  0  0  0  0  0  0  0  0  0  0  0
  -25.0066  -21.3217   24.5537 C   0  0  0  0  0  0  0  0  0  0  0  0
  -23.2588  -19.6942   24.9186 C   0  0  0  0  0  0  0  0  0  0  0  0
  -25.1193  -13.5994   21.2775 C   0  0  0  0  0  0  0  0  0  0  0  0
  -27.7429  -21.4069   21.2212 C   0  0  0  0  0  0  0  0  0  0  0  0
  -27.4201  -20.2883   20.4897 C   0  0  0  0  0  0  0  0  0  0  0  0
  -25.0617  -11.9490   19.8256 C   0  0  0  0  0  0  0  0  0  0  0  0
  -28.8907  -19.8250   22.0643 C   0  0  0  0  0  0  0  0  0  0  0  0
  -22.9121  -12.2983   21.0527 C   0  0  0  0  0  0  0  0  0  0  0  0
  -27.0388  -29.9180   21.1164 C   0  0  0  0  0  0  0  0  0  0  0  0
  -23.8544  -29.4246   21.4892 C   0  0  0  0  0  0  0  0  0  0  0  0
  -21.6623  -26.5930   21.9300 C   0  0  0  0  0  0  0  0  0  0  0  0
  -29.5847  -15.0908   20.1879 C   0  0  0  0  0  0  0  0  0  0  0  0
  -27.6862  -31.4236   26.2331 C   0  0  0  0  0  0  0  0  0  0  0  0
  -26.4432  -28.8044   18.9344 C   0  0  0  0  0  0  0  0  0  0  0  0
  -25.2948  -27.3671   21.2495 C   0  0  0  0  0  0  0  0  0  0  0  0
  -28.5275  -30.4051   25.4707 C   0  0  0  0  0  0  0  0  0  0  0  0
  -29.2556  -11.5811   20.7716 C   0  0  0  0  0  0  0  0  0  0  0  0
  -30.2323  -17.4949   17.5514 C   0  0  0  0  0  0  0  0  0  0  0  0
  -27.7689  -29.9174   24.2454 C   0  0  0  0  0  0  0  0  0  0  0  0
  -28.3191  -11.0886   19.6739 C   0  0  0  0  0  0  0  0  0  0  0  0
  -29.5225  -18.4102   18.5391 C   0  0  0  0  0  0  0  0  0  0  0  0
  -30.1562  -12.6901   20.2499 C   0  0  0  0  0  0  0  0  0  0  0  0
  -29.6296  -16.1346   17.8668 C   0  0  0  0  0  0  0  0  0  0  0  0
  -28.3987  -13.4357   18.6558 C   0  0  0  0  0  0  0  0  0  0  0  0
  -27.5078  -31.0717   23.2695 C   0  0  1  0  0  0  0  0  0  0  0  0
  -25.9350  -29.5447   20.1677 C   0  0  1  0  0  0  0  0  0  0  0  0
  -27.5100  -12.2283   19.0342 C   0  0  2  0  0  0  0  0  0  0  0  0
  -29.4149  -17.5496   19.8010 C   0  0  1  0  0  0  0  0  0  0  0  0
  -26.5027  -20.0873   19.3537 C   0  0  0  0  0  0  0  0  0  0  0  0
  -29.8100  -19.0165   22.8915 C   0  0  0  0  0  0  0  0  0  0  0  0
  -19.2405  -26.2977   21.3426 C   0  0  0  0  0  0  0  0  0  0  0  0
  -23.3486  -30.2979   24.3687 C   0  0  0  0  0  0  0  0  0  0  0  0
  -21.4957  -28.6179   24.4792 C   0  0  0  0  0  0  0  0  0  0  0  0
  -21.3703  -30.5052   22.8529 C   0  0  0  0  0  0  0  0  0  0  0  0
  -22.2276  -24.1740   20.3214 C   0  0  0  0  0  0  0  0  0  0  0  0
  -27.2383  -22.7802   21.0638 C   0  0  0  0  0  0  0  0  0  1  0  0
  -28.1749  -17.8899   20.6178 C   0  0  0  0  0  0  0  0  0  0  0  0
  -23.0014  -28.6184   22.4387 C   0  0  1  0  0  0  0  0  0  0  0  0
  -20.6772  -26.0399   20.9160 C   0  0  2  0  0  0  0  0  0  0  0  0
  -22.3305  -29.5018   23.5282 C   0  0  0  0  0  0  0  0  0  0  0  0
  -26.3427  -13.5822   20.7418 N   0  0  0  0  0  0  0  0  0  0  0  0
  -28.6591  -21.1118   22.1996 N   0  0  0  0  0  0  0  0  0  0  0  0
  -28.1634  -19.2831   21.0412 N   0  0  0  0  0  0  0  0  0  0  0  0
  -26.2765  -12.5678   19.8627 N   0  0  0  0  0  0  0  0  0  0  0  0
  -24.9597  -28.7652   20.9329 N   0  0  0  0  0  0  0  0  0  0  0  0
  -29.3875  -13.7975   19.6816 N   0  0  0  0  0  0  0  0  0  0  0  0
  -29.4069  -16.1652   19.3132 N   0  0  0  0  0  0  0  0  0  0  0  0
  -24.8227  -10.9100   18.9976 N   0  0  0  0  0  0  0  0  0  0  0  0
  -22.2570  -13.0703   22.0219 N   0  0  0  0  0  0  0  0  0  0  0  0
  -26.6117  -30.6169   22.2293 N   0  0  0  0  0  0  0  0  0  0  0  0
  -22.0598  -27.8739   21.6097 N   0  0  0  0  0  0  0  0  0  0  0  0
  -20.8647  -24.5696   20.7605 N   0  3  0  0  0  0  0  0  0  0  0  0
  -22.2953  -11.3579   20.4972 O   0  0  0  0  0  0  0  0  0  0  0  0
  -28.1922  -29.5944   20.8586 O   0  0  0  0  0  0  0  0  0  0  0  0
  -23.5472  -30.5939   21.2445 O   0  0  0  0  0  0  0  0  0  0  0  0
  -22.0384  -25.9543   22.9103 O   0  0  0  0  0  0  0  0  0  0  0  0
  -29.9148  -15.2776   21.3665 O   0  0  0  0  0  0  0  0  0  0  0  0
  -23.8245  -17.3703   25.1981 O   0  0  0  0  0  0  0  0  0  0  0  0
  -27.8387  -23.3971   19.9231 O   0  0  0  0  0  0  0  0  0  1  0  0
  -25.3867  -22.5896   24.3486 F   0  0  0  0  0  0  0  0  0  0  0  0
  -21.9582  -19.4053   25.0630 F   0  0  0  0  0  0  0  0  0  0  0  0
  1  2  1  0  0  0  0
  1  5  2  0  0  0  0
  2  6  2  0  0  0  0
  3  8  2  0  0  0  0
  3 15  1  0  0  0  0
  4  9  1  0  0  0  0
  4 15  2  0  0  0  0
  5 17  1  0  0  0  0
  6 19  1  0  0  0  0
  7 10  2  0  0  0  0
  7 18  1  0  0  0  0
  8 21  1  0  0  0  0
  9 21  2  0  0  0  0
 10 22  1  0  0  0  0
 11 12  2  0  0  0  0
 11 23  1  0  0  0  0
 12 24  1  0  0  0  0
 13 20  1  0  0  0  0
 13 22  2  0  0  0  0
 14 24  2  0  0  0  0
 14 25  1  0  0  0  0
 15 26  1  0  0  0  0
 16 26  1  0  0  0  0
 16 29  2  0  0  0  0
 16 31  1  0  0  0  0
 17 19  2  0  0  0  0
 17 36  1  0  0  0  0
 18 20  2  0  0  0  0
 18 37  1  0  0  0  0
 19 48  1  0  0  0  0
 20 38  1  0  0  0  0
 21 81  1  0  0  0  0
 22 82  1  0  0  0  0
 23 25  2  0  0  0  0
 23 81  1  0  0  0  0
 24 83  1  0  0  0  0
 25 84  1  0  0  0  0
 26 64  2  0  0  0  0
 27 28  2  0  0  0  0
 27 59  1  0  0  0  0
 27 65  1  0  0  0  0
 28 52  1  0  0  0  0
 28 66  1  0  0  0  0
 29 67  1  0  0  0  0
 29 71  1  0  0  0  0
 30 53  1  0  0  0  0
 30 65  2  0  0  0  0
 30 66  1  0  0  0  0
 31 72  1  0  0  0  0
 31 76  2  0  0  0  0
 32 49  1  0  0  0  0
 32 73  1  0  0  0  0
 32 77  2  0  0  0  0
 33 61  1  0  0  0  0
 33 68  1  0  0  0  0
 33 78  2  0  0  0  0
 34 62  1  0  0  0  0
 34 74  1  0  0  0  0
 34 79  2  0  0  0  0
 35 69  1  0  0  0  0
 35 70  1  0  0  0  0
 35 80  2  0  0  0  0
 36 39  1  0  0  0  0
 37 49  1  0  0  0  0
 38 68  1  0  0  0  0
 39 42  1  0  0  0  0
 40 43  1  0  0  0  0
 40 45  1  0  0  0  0
 41 44  1  0  0  0  0
 41 46  1  0  0  0  0
 42 48  1  0  0  0  0
 43 50  1  0  0  0  0
 44 51  1  0  0  0  0
 45 69  1  0  0  0  0
 46 70  1  0  0  0  0
 47 50  1  0  0  0  0
 47 69  1  0  0  0  0
 48 73  1  0  0  0  0
 49 68  1  0  0  0  0
 50 67  1  0  0  0  0
 51 60  1  0  0  0  0
 51 70  1  0  0  0  0
 54 62  1  0  0  0  0
 55 63  1  0  0  0  0
 56 63  1  0  0  0  0
 57 63  1  0  0  0  0
 58 75  1  0  0  0  0
 59 82  1  0  0  0  0
 60 66  1  0  0  0  0
 61 63  1  0  0  0  0
 61 74  1  0  0  0  0
 62 75  1  0  0  0  0
 64 67  1  0  0  0  0
M  CHG  1  75   1
M  ISO  4  35 100  59 101  70 100  82 101
M  END
> <Batch ID>
0177

> <Smiles>
CNC(C)C(=O)NC(C(=O)N1Cc2cc([101O:1][101CH2:1]c3nc(C)n(CC4CCC[100N:0]4[100C:0](=O)N4CCCC(n5nc(-c6ccc(Oc7ccc(F)cc7F)cc6)c(C(N)=O)c5N)C4)c3C)ccc2CC1C(=O)NC1CCCc2ccccc21)C(C)(C)C

> <Shape>
0.307

> <Color>
0.073

> <Negative vol penalty>
0.000

$$$$

  -OEChem-04052322523D

 85 94  0     1  0  0  0  0  0999 V2000
  -32.6549  -29.9188   25.2405 C   0  0  0  0  0  0  0  0  0  0  0  0
  -31.9022  -28.8562   24.7509 C   0  0  0  0  0  0  0  0  0  0  0  0
  -22.8483  -10.7109   21.1772 C   0  0  0  0  0  0  0  0  0  0  0  0
  -24.5493   -9.0110   21.4090 C   0  0  0  0  0  0  0  0  0  0  0  0
  -32.0414  -30.9154   25.9984 C   0  0  0  0  0  0  0  0  0  0  0  0
  -30.5357  -28.7889   25.0200 C   0  0  0  0  0  0  0  0  0  0  0  0
  -27.8090  -27.5634   20.9324 C   0  0  0  0  0  0  0  0  0  0  0  0
  -27.7365  -19.2074   21.1986 C   0  0  0  0  0  0  0  0  0  0  0  0
  -22.0941  -10.0922   22.1741 C   0  0  0  0  0  0  0  0  0  0  0  0
  -23.7951   -8.3923   22.4060 C   0  0  0  0  0  0  0  0  0  0  0  0
  -27.7937  -26.2210   20.5562 C   0  0  0  0  0  0  0  0  0  0  0  0
  -21.1014   -6.3575   22.5910 C   0  0  0  0  0  0  0  0  0  0  0  0
  -20.9624   -4.9708   22.5320 C   0  0  0  0  0  0  0  0  0  0  0  0
  -27.7236  -17.8338   20.9834 C   0  0  0  0  0  0  0  0  0  0  0  0
  -25.6423  -25.9552   21.6146 C   0  0  0  0  0  0  0  0  0  0  0  0
  -22.0112   -4.7735   24.6995 C   0  0  0  0  0  0  0  0  0  0  0  0
  -24.0759  -10.1703   20.7946 C   0  0  0  0  0  0  0  0  0  0  0  0
  -24.4727  -11.0404   18.4296 C   0  0  0  0  0  0  0  0  0  0  0  0
  -30.6648  -30.8653   26.2687 C   0  0  0  0  0  0  0  0  0  0  0  0
  -26.7442  -28.1100   21.6631 C   0  0  0  0  0  0  0  0  0  0  0  0
  -29.9034  -29.7850   25.7833 C   0  0  0  0  0  0  0  0  0  0  0  0
  -28.9316  -19.9104   21.0955 C   0  0  0  0  0  0  0  0  0  0  0  0
  -25.6453  -27.3054   21.9966 C   0  0  0  0  0  0  0  0  0  0  0  0
  -22.5675   -8.9329   22.7886 C   0  0  0  0  0  0  0  0  0  0  0  0
  -26.7116  -25.4160   20.8998 C   0  0  0  0  0  0  0  0  0  0  0  0
  -21.6953   -6.9522   23.7042 C   0  0  0  0  0  0  0  0  0  0  0  0
  -21.4173   -4.1789   23.5863 C   0  0  0  0  0  0  0  0  0  0  0  0
  -22.1502   -6.1602   24.7585 C   0  0  0  0  0  0  0  0  0  0  0  0
  -24.8552  -10.8087   19.7644 C   0  0  0  0  0  0  0  0  0  0  0  0
  -30.0772  -19.1989   20.7774 C   0  0  0  0  0  0  0  0  0  0  0  0
  -28.9232  -17.2153   20.6701 C   0  0  0  0  0  0  0  0  0  0  0  0
  -25.5555  -11.6704   17.8665 C   0  0  0  0  0  0  0  0  0  0  0  0
  -23.2480  -10.7152   17.7587 C   0  0  0  0  0  0  0  0  0  0  0  0
  -26.4429  -29.4376   24.5355 C   0  0  0  0  0  0  0  0  0  0  0  0
  -23.4153  -30.0123   23.5226 C   0  0  0  0  0  0  0  0  0  0  0  0
  -20.8637  -28.2253   21.7023 C   0  0  0  0  0  0  0  0  0  0  0  0
  -29.9773  -14.9921   20.1288 C   0  0  0  0  0  0  0  0  0  0  0  0
  -30.0550  -31.9409   27.1323 C   0  0  0  0  0  0  0  0  0  0  0  0
  -26.7636  -29.5665   22.0382 C   0  0  0  0  0  0  0  0  0  0  0  0
  -24.4680  -27.8490   22.7628 C   0  0  0  0  0  0  0  0  0  0  0  0
  -28.5312  -31.9919   27.0566 C   0  0  0  0  0  0  0  0  0  0  0  0
  -30.3187  -11.9885   18.2477 C   0  0  0  0  0  0  0  0  0  0  0  0
  -27.9433  -30.5900   27.1818 C   0  0  0  0  0  0  0  0  0  0  0  0
  -28.9200  -11.3692   18.2966 C   0  0  0  0  0  0  0  0  0  0  0  0
  -30.6803  -12.6769   19.5626 C   0  0  0  0  0  0  0  0  0  0  0  0
  -28.0674  -22.1903   20.3546 C   0  0  0  0  0  0  0  0  0  0  0  0
  -27.4587  -22.9705   22.4557 C   0  0  0  0  0  0  0  0  0  0  0  0
  -28.3011  -13.0418   20.0872 C   0  0  0  0  0  0  0  0  0  0  0  0
  -28.9532  -21.4041   21.3297 C   0  0  1  0  0  0  0  0  0  0  0  0
  -28.4139  -29.6898   26.0330 C   0  0  1  0  0  0  0  0  0  0  0  0
  -25.8620  -29.8898   23.2256 C   0  0  1  0  0  0  0  0  0  0  0  0
  -28.4589  -21.8399   22.7350 C   0  0  1  0  0  0  0  0  0  0  0  0
  -27.8664  -12.3929   18.7630 C   0  0  2  0  0  0  0  0  0  0  0  0
  -29.6235  -22.3038   23.6097 C   0  0  0  0  0  0  0  0  0  0  0  0
  -32.4544  -19.0298   19.9985 C   0  0  0  0  0  0  0  0  0  0  0  0
  -18.9770  -29.0727   20.2812 C   0  0  0  0  0  0  0  0  0  0  0  0
  -21.7733  -29.7995   26.0854 C   0  0  0  0  0  0  0  0  0  0  0  0
  -19.8473  -28.9962   24.7021 C   0  0  0  0  0  0  0  0  0  0  0  0
  -20.7810  -31.2794   24.3305 C   0  0  0  0  0  0  0  0  0  0  0  0
  -21.7318  -26.6076   19.3810 C   0  0  0  0  0  0  0  0  0  0  0  0
  -31.3892  -19.9026   20.6549 C   0  0  0  0  0  0  0  0  0  0  0  0
  -22.1072  -29.2611   23.5825 C   0  0  1  0  0  0  0  0  0  0  0  0
  -20.3892  -28.5083   20.2884 C   0  0  2  0  0  0  0  0  0  0  0  0
  -21.1521  -29.8204   24.6745 C   0  0  0  0  0  0  0  0  0  0  0  0
  -26.0851  -11.2550   20.0332 N   0  0  0  0  0  0  0  0  0  0  0  0
  -30.1039  -17.8647   20.5613 N   0  0  0  0  0  0  0  0  0  0  0  0
  -26.4847  -11.7734   18.8595 N   0  0  0  0  0  0  0  0  0  0  0  0
  -24.5367  -29.2775   23.1121 N   0  0  0  0  0  0  0  0  0  0  0  0
  -29.6391  -13.6355   19.9393 N   0  0  0  0  0  0  0  0  0  0  0  0
  -27.8309  -23.4191   21.1134 N   0  0  2  0  0  0  0  0  0  1  0  0
  -25.7939  -12.1406   16.6237 N   0  0  0  0  0  0  0  0  0  0  0  0
  -23.1447   -9.4708   17.1224 N   0  0  0  0  0  0  0  0  0  0  0  0
  -28.8993  -15.8153   20.4527 N   0  0  0  0  0  0  0  0  0  0  0  0
  -27.6774  -29.9877   24.8233 N   0  0  0  0  0  0  0  0  0  0  0  0
  -21.5555  -29.2938   22.2324 N   0  0  0  0  0  0  0  0  0  0  0  0
  -20.3994  -27.2574   19.4784 N   0  3  0  0  0  0  0  0  0  0  0  0
  -22.2800  -11.5116   17.7105 O   0  0  0  0  0  0  0  0  0  0  0  0
  -25.8167  -28.6492   25.2341 O   0  0  0  0  0  0  0  0  0  0  0  0
  -23.4399  -31.2087   23.8218 O   0  0  0  0  0  0  0  0  0  0  0  0
  -20.6397  -27.1639   22.2802 O   0  0  0  0  0  0  0  0  0  0  0  0
  -31.1332  -15.3989   19.9858 O   0  0  0  0  0  0  0  0  0  0  0  0
  -21.8319   -8.3291   23.7616 O   0  0  0  0  0  0  0  0  0  0  0  0
  -26.6944  -24.1052   20.5345 O   0  0  0  0  0  0  0  0  0  1  0  0
  -21.2824   -2.8474   23.5302 F   0  0  0  0  0  0  0  0  0  0  0  0
  -22.7206   -6.7259   25.8311 F   0  0  0  0  0  0  0  0  0  0  0  0
  1  2  1  0  0  0  0
  1  5  2  0  0  0  0
  2  6  2  0  0  0  0
  3  9  2  0  0  0  0
  3 17  1  0  0  0  0
  4 10  1  0  0  0  0
  4 17  2  0  0  0  0
  5 19  1  0  0  0  0
  6 21  1  0  0  0  0
  7 11  2  0  0  0  0
  7 20  1  0  0  0  0
  8 14  2  0  0  0  0
  8 22  1  0  0  0  0
  9 24  1  0  0  0  0
 10 24  2  0  0  0  0
 11 25  1  0  0  0  0
 12 13  2  0  0  0  0
 12 26  1  0  0  0  0
 13 27  1  0  0  0  0
 14 31  1  0  0  0  0
 15 23  1  0  0  0  0
 15 25  2  0  0  0  0
 16 27  2  0  0  0  0
 16 28  1  0  0  0  0
 17 29  1  0  0  0  0
 18 29  1  0  0  0  0
 18 32  2  0  0  0  0
 18 33  1  0  0  0  0
 19 21  2  0  0  0  0
 19 38  1  0  0  0  0
 20 23  2  0  0  0  0
 20 39  1  0  0  0  0
 21 50  1  0  0  0  0
 22 30  2  0  0  0  0
 22 49  1  0  0  0  0
 23 40  1  0  0  0  0
 24 82  1  0  0  0  0
 25 83  1  0  0  0  0
 26 28  2  0  0  0  0
 26 82  1  0  0  0  0
 27 84  1  0  0  0  0
 28 85  1  0  0  0  0
 29 65  2  0  0  0  0
 30 61  1  0  0  0  0
 30 66  1  0  0  0  0
 31 66  2  0  0  0  0
 31 73  1  0  0  0  0
 32 67  1  0  0  0  0
 32 71  1  0  0  0  0
 33 72  1  0  0  0  0
 33 77  2  0  0  0  0
 34 51  1  0  0  0  0
 34 74  1  0  0  0  0
 34 78  2  0  0  0  0
 35 62  1  0  0  0  0
 35 68  1  0  0  0  0
 35 79  2  0  0  0  0
 36 63  1  0  0  0  0
 36 75  1  0  0  0  0
 36 80  2  0  0  0  0
 37 69  1  0  0  0  0
 37 73  1  0  0  0  0
 37 81  2  0  0  0  0
 38 41  1  0  0  0  0
 39 51  1  0  0  0  0
 40 68  1  0  0  0  0
 41 43  1  0  0  0  0
 42 44  1  0  0  0  0
 42 45  1  0  0  0  0
 43 50  1  0  0  0  0
 44 53  1  0  0  0  0
 45 69  1  0  0  0  0
 46 49  1  0  0  0  0
 46 70  1  0  0  0  0
 47 52  1  0  0  0  0
 47 70  1  0  0  0  0
 48 53  1  0  0  0  0
 48 69  1  0  0  0  0
 49 52  1  0  0  0  0
 50 74  1  0  0  0  0
 51 68  1  0  0  0  0
 52 54  1  0  0  0  0
 53 67  1  0  0  0  0
 55 61  1  0  0  0  0
 56 63  1  0  0  0  0
 57 64  1  0  0  0  0
 58 64  1  0  0  0  0
 59 64  1  0  0  0  0
 60 76  1  0  0  0  0
 62 64  1  0  0  0  0
 62 75  1  0  0  0  0
 63 76  1  0  0  0  0
 65 67  1  0  0  0  0
 70 83  1  0  0  0  0
M  CHG  1  76   1
M  ISO  4  37 100  70 101  73 100  83 101
M  END
> <Batch ID>
0177

> <Smiles>
CCc1nc([100NH:0][100C:0](=O)N2CCCC(n3nc(-c4ccc(Oc5ccc(F)cc5F)cc4)c(C(N)=O)c3N)C2)ccc1C1C[101N:1]([101O:1]c2ccc3c(c2)CN(C(=O)C(NC(=O)C(C)NC)C(C)(C)C)C(C(=O)NC2CCCc4ccccc42)C3)CC1C

> <Shape>
0.267

> <Color>
0.104

> <Negative vol penalty>
0.000

$$$$

  -OEChem-04052322523D

 85 95  0     1  0  0  0  0  0999 V2000
  -16.3591  -26.1612   24.3784 C   0  0  0  0  0  0  0  0  0  0  0  0
  -17.6022  -25.6939   23.9640 C   0  0  0  0  0  0  0  0  0  0  0  0
  -24.3573   -8.9536   21.4715 C   0  0  0  0  0  0  0  0  0  0  0  0
  -24.4537  -10.5286   23.3009 C   0  0  0  0  0  0  0  0  0  0  0  0
  -16.0431  -27.5124   24.2431 C   0  0  0  0  0  0  0  0  0  0  0  0
  -18.5297  -26.5774   23.4130 C   0  0  0  0  0  0  0  0  0  0  0  0
  -23.1963  -25.8949   25.2577 C   0  0  0  0  0  0  0  0  0  0  0  0
  -24.0338   -7.9338   22.3664 C   0  0  0  0  0  0  0  0  0  0  0  0
  -24.1301   -9.5089   24.1959 C   0  0  0  0  0  0  0  0  0  0  0  0
  -23.9296  -24.8218   24.7533 C   0  0  0  0  0  0  0  0  0  0  0  0
  -21.2947   -6.8560   24.0303 C   0  0  0  0  0  0  0  0  0  0  0  0
  -20.2593   -5.9898   23.6793 C   0  0  0  0  0  0  0  0  0  0  0  0
  -25.1250  -26.3302   23.2989 C   0  0  0  0  0  0  0  0  0  0  0  0
  -21.7894   -4.1225   23.7739 C   0  0  0  0  0  0  0  0  0  0  0  0
  -24.5673  -10.2510   21.9387 C   0  0  0  0  0  0  0  0  0  0  0  0
  -24.0092  -12.1524   20.3323 C   0  0  0  0  0  0  0  0  0  0  0  0
  -16.9709  -28.4147   23.6991 C   0  0  0  0  0  0  0  0  0  0  0  0
  -23.4145  -27.1943   24.7778 C   0  0  0  0  0  0  0  0  0  0  0  0
  -18.2254  -27.9417   23.2691 C   0  0  0  0  0  0  0  0  0  0  0  0
  -24.3948  -27.4184   23.8007 C   0  0  0  0  0  0  0  0  0  0  0  0
  -23.9202   -8.2114   23.7286 C   0  0  0  0  0  0  0  0  0  0  0  0
  -24.8922  -25.0389   23.7717 C   0  0  0  0  0  0  0  0  0  0  0  0
  -22.5775   -6.3555   24.2530 C   0  0  0  0  0  0  0  0  0  0  0  0
  -20.5066   -4.6231   23.5511 C   0  0  0  0  0  0  0  0  0  0  0  0
  -22.8248   -4.9887   24.1248 C   0  0  0  0  0  0  0  0  0  0  0  0
  -24.9021  -11.3047   21.0148 C   0  0  0  0  0  0  0  0  0  0  0  0
  -28.0983  -21.2671   21.9167 C   0  0  0  0  0  0  0  0  0  0  0  0
  -27.8503  -19.9152   22.0078 C   0  0  0  0  0  0  0  0  0  0  0  0
  -25.9811  -20.3420   23.2541 C   0  0  0  0  0  0  0  0  0  0  0  0
  -26.2294  -21.6939   23.1637 C   0  0  0  0  0  0  0  0  0  0  0  0
  -24.8181  -12.9727   19.5845 C   0  0  0  0  0  0  0  0  0  0  0  0
  -22.5765  -12.1946   20.3708 C   0  0  0  0  0  0  0  0  0  0  0  0
  -21.6394  -29.3550   23.2664 C   0  0  0  0  0  0  0  0  0  0  0  0
  -24.2403  -31.2392   23.7218 C   0  0  0  0  0  0  0  0  0  0  0  0
  -27.6045  -31.4546   24.2537 C   0  0  0  0  0  0  0  0  0  0  0  0
  -29.4187  -16.2304   19.3015 C   0  0  0  0  0  0  0  0  0  0  0  0
  -16.5664  -29.8577   23.5293 C   0  0  0  0  0  0  0  0  0  0  0  0
  -22.6337  -28.3449   25.3514 C   0  0  0  0  0  0  0  0  0  0  0  0
  -24.6816  -28.7972   23.2666 C   0  0  0  0  0  0  0  0  0  0  0  0
  -17.7450  -30.7955   23.2809 C   0  0  0  0  0  0  0  0  0  0  0  0
  -29.7433  -12.7263   18.5611 C   0  0  0  0  0  0  0  0  0  0  0  0
  -18.6787  -30.2114   22.2256 C   0  0  0  0  0  0  0  0  0  0  0  0
  -29.2484  -23.1603   20.5874 C   0  0  0  0  0  0  0  0  0  0  0  0
  -29.1756  -21.9747   19.6768 C   0  0  0  0  0  0  0  0  0  0  0  0
  -28.4704  -12.1024   19.1235 C   0  0  0  0  0  0  0  0  0  0  0  0
  -30.2034  -13.8943   19.4231 C   0  0  0  0  0  0  0  0  0  0  0  0
  -28.2445  -17.3191   21.3742 C   0  0  0  0  0  0  0  0  0  0  0  0
  -28.7932  -18.6508   19.8188 C   0  0  0  0  0  0  0  0  0  0  0  0
  -27.8683  -14.3698   20.1124 C   0  0  0  0  0  0  0  0  0  0  0  0
  -19.2674  -28.8736   22.6895 C   0  0  1  0  0  0  0  0  0  0  0  0
  -29.2834  -21.7694   21.1656 C   0  0  0  0  0  0  0  0  0  0  0  0
  -28.7494  -18.7824   21.3587 C   0  0  0  0  0  0  0  0  0  0  0  0
  -22.5798  -29.5531   24.4214 C   0  0  1  0  0  0  0  0  0  0  0  0
  -27.3757  -13.1671   19.2832 C   0  0  2  0  0  0  0  0  0  0  0  0
  -24.8011  -19.8171   23.9983 C   0  0  0  0  0  0  0  0  0  0  0  0
  -29.4493  -33.1305   24.5457 C   0  0  0  0  0  0  0  0  0  0  0  0
  -24.2098  -31.7920   20.7212 C   0  0  0  0  0  0  0  0  0  0  0  0
  -26.5517  -32.6530   20.9266 C   0  0  0  0  0  0  0  0  0  0  0  0
  -24.6955  -33.7897   22.1452 C   0  0  0  0  0  0  0  0  0  0  0  0
  -28.2338  -30.4617   26.9697 C   0  0  0  0  0  0  0  0  0  0  0  0
  -25.3231  -22.7004   23.8094 C   0  0  0  0  0  0  0  0  0  1  0  0
  -25.5000  -31.5293   22.9421 C   0  0  1  0  0  0  0  0  0  0  0  0
  -28.4172  -32.2628   25.2490 C   0  0  2  0  0  0  0  0  0  0  0  0
  -25.2327  -32.4146   21.6923 C   0  0  0  0  0  0  0  0  0  0  0  0
  -26.1805  -11.5626   20.7261 N   0  0  0  0  0  0  0  0  0  0  0  0
  -26.7872  -19.4284   22.6781 N   0  0  0  0  0  0  0  0  0  0  0  0
  -27.2923  -22.1807   22.4931 N   0  0  0  0  0  0  0  0  0  0  0  0
  -26.0967  -12.5815   19.8538 N   0  0  0  0  0  0  0  0  0  0  0  0
  -23.8876  -29.8887   23.8545 N   0  0  0  0  0  0  0  0  0  0  0  0
  -29.1462  -14.8928   19.6094 N   0  0  0  0  0  0  0  0  0  0  0  0
  -28.7821  -17.2083   20.0288 N   0  0  0  0  0  0  0  0  0  0  0  0
  -24.5534  -13.9833   18.7294 N   0  0  0  0  0  0  0  0  0  0  0  0
  -21.9031  -11.2804   21.1924 N   0  0  0  0  0  0  0  0  0  0  0  0
  -20.3352  -29.0941   23.6412 N   0  0  0  0  0  0  0  0  0  0  0  0
  -26.4445  -32.1066   23.8924 N   0  0  0  0  0  0  0  0  0  0  0  0
  -29.1300  -31.3564   26.1930 N   0  3  0  0  0  0  0  0  0  0  0  0
  -21.9127  -13.0078   19.6842 O   0  0  0  0  0  0  0  0  0  0  0  0
  -22.0652  -29.4345   22.1201 O   0  0  0  0  0  0  0  0  0  0  0  0
  -23.5970  -32.1759   24.2018 O   0  0  0  0  0  0  0  0  0  0  0  0
  -27.9646  -30.3565   23.8354 O   0  0  0  0  0  0  0  0  0  0  0  0
  -30.2308  -16.5457   18.4215 O   0  0  0  0  0  0  0  0  0  0  0  0
  -23.6042   -7.2166   24.6022 O   0  0  0  0  0  0  0  0  0  0  0  0
  -25.6089  -23.9932   23.2772 O   0  0  0  0  0  0  0  0  0  1  0  0
  -19.5119   -3.7912   23.2155 F   0  0  0  0  0  0  0  0  0  0  0  0
  -24.0549   -4.5018   24.3387 F   0  0  0  0  0  0  0  0  0  0  0  0
  1  2  1  0  0  0  0
  1  5  2  0  0  0  0
  2  6  2  0  0  0  0
  3  8  2  0  0  0  0
  3 15  1  0  0  0  0
  4  9  1  0  0  0  0
  4 15  2  0  0  0  0
  5 17  1  0  0  0  0
  6 19  1  0  0  0  0
  7 10  2  0  0  0  0
  7 18  1  0  0  0  0
  8 21  1  0  0  0  0
  9 21  2  0  0  0  0
 10 22  1  0  0  0  0
 11 12  2  0  0  0  0
 11 23  1  0  0  0  0
 12 24  1  0  0  0  0
 13 20  1  0  0  0  0
 13 22  2  0  0  0  0
 14 24  2  0  0  0  0
 14 25  1  0  0  0  0
 15 26  1  0  0  0  0
 16 26  1  0  0  0  0
 16 31  2  0  0  0  0
 16 32  1  0  0  0  0
 17 19  2  0  0  0  0
 17 37  1  0  0  0  0
 18 20  2  0  0  0  0
 18 38  1  0  0  0  0
 19 50  1  0  0  0  0
 20 39  1  0  0  0  0
 21 82  1  0  0  0  0
 22 83  1  0  0  0  0
 23 25  2  0  0  0  0
 23 82  1  0  0  0  0
 24 84  1  0  0  0  0
 25 85  1  0  0  0  0
 26 65  2  0  0  0  0
 27 28  1  0  0  0  0
 27 51  1  0  0  0  0
 27 67  2  0  0  0  0
 28 52  1  0  0  0  0
 28 66  2  0  0  0  0
 29 30  2  0  0  0  0
 29 55  1  0  0  0  0
 29 66  1  0  0  0  0
 30 61  1  0  0  0  0
 30 67  1  0  0  0  0
 31 68  1  0  0  0  0
 31 72  1  0  0  0  0
 32 73  1  0  0  0  0
 32 77  2  0  0  0  0
 33 53  1  0  0  0  0
 33 74  1  0  0  0  0
 33 78  2  0  0  0  0
 34 62  1  0  0  0  0
 34 69  1  0  0  0  0
 34 79  2  0  0  0  0
 35 63  1  0  0  0  0
 35 75  1  0  0  0  0
 35 80  2  0  0  0  0
 36 70  1  0  0  0  0
 36 71  1  0  0  0  0
 36 81  2  0  0  0  0
 37 40  1  0  0  0  0
 38 53  1  0  0  0  0
 39 69  1  0  0  0  0
 40 42  1  0  0  0  0
 41 45  1  0  0  0  0
 41 46  1  0  0  0  0
 42 50  1  0  0  0  0
 43 44  1  0  0  0  0
 43 51  1  0  0  0  0
 44 51  1  0  0  0  0
 45 54  1  0  0  0  0
 46 70  1  0  0  0  0
 47 52  1  0  0  0  0
 47 71  1  0  0  0  0
 48 52  1  0  0  0  0
 48 71  1  0  0  0  0
 49 54  1  0  0  0  0
 49 70  1  0  0  0  0
 50 74  1  0  0  0  0
 53 69  1  0  0  0  0
 54 68  1  0  0  0  0
 56 63  1  0  0  0  0
 57 64  1  0  0  0  0
 58 64  1  0  0  0  0
 59 64  1  0  0  0  0
 60 76  1  0  0  0  0
 61 83  1  0  0  0  0
 62 64  1  0  0  0  0
 62 75  1  0  0  0  0
 63 76  1  0  0  0  0
 65 68  1  0  0  0  0
M  CHG  1  76   1
M  ISO  4  36 100  61 101  71 100  83 101
M  END
> <Batch ID>
0177

> <Smiles>
CNC(C)C(=O)NC(C(=O)N1Cc2cc([101O:1][101CH2:1]c3nc(C4CC4)c(C4C[100N:0]([100C:0](=O)N5CCCC(n6nc(-c7ccc(Oc8ccc(F)cc8F)cc7)c(C(N)=O)c6N)C5)C4)nc3C)ccc2CC1C(=O)NC1CCCc2ccccc21)C(C)(C)C

> <Shape>
0.296

> <Color>
0.095

> <Negative vol penalty>
0.000

$$$$

  -OEChem-04052322523D

 84 93  0     1  0  0  0  0  0999 V2000
  -31.4230  -24.4078   17.5093 C   0  0  0  0  0  0  0  0  0  0  0  0
  -30.2918  -24.1573   18.2794 C   0  0  0  0  0  0  0  0  0  0  0  0
  -24.3072   -9.3244   22.2697 C   0  0  0  0  0  0  0  0  0  0  0  0
  -24.1948   -8.9941   19.8790 C   0  0  0  0  0  0  0  0  0  0  0  0
  -32.2133  -25.5249   17.7765 C   0  0  0  0  0  0  0  0  0  0  0  0
  -29.9508  -25.0232   19.3178 C   0  0  0  0  0  0  0  0  0  0  0  0
  -25.0107  -26.1351   19.3775 C   0  0  0  0  0  0  0  0  0  0  0  0
  -23.1941   -8.5003   22.4359 C   0  0  0  0  0  0  0  0  0  0  0  0
  -23.0818   -8.1700   20.0452 C   0  0  0  0  0  0  0  0  0  0  0  0
  -24.1482  -25.1749   19.9046 C   0  0  0  0  0  0  0  0  0  0  0  0
  -20.6016   -6.1939   23.5194 C   0  0  0  0  0  0  0  0  0  0  0  0
  -20.6488   -5.2368   24.5330 C   0  0  0  0  0  0  0  0  0  0  0  0
  -24.0703  -26.3952   21.9840 C   0  0  0  0  0  0  0  0  0  0  0  0
  -24.4703  -21.2224   23.4790 C   0  0  0  0  0  0  0  0  0  0  0  0
  -22.5795   -4.2268   23.4892 C   0  0  0  0  0  0  0  0  0  0  0  0
  -24.8075   -9.5714   20.9913 C   0  0  0  0  0  0  0  0  0  0  0  0
  -27.3096  -10.0335   20.8089 C   0  0  0  0  0  0  0  0  0  0  0  0
  -31.8765  -26.4102   18.8126 C   0  0  0  0  0  0  0  0  0  0  0  0
  -25.4188  -27.2287   20.1547 C   0  0  0  0  0  0  0  0  0  0  0  0
  -30.7382  -26.1524   19.6000 C   0  0  0  0  0  0  0  0  0  0  0  0
  -24.9360  -27.3693   21.4636 C   0  0  0  0  0  0  0  0  0  0  0  0
  -25.2775  -20.2706   22.8516 C   0  0  0  0  0  0  0  0  0  0  0  0
  -24.9198  -19.7997   21.5817 C   0  0  0  0  0  0  0  0  0  0  0  0
  -22.5814   -7.9231   21.3237 C   0  0  0  0  0  0  0  0  0  0  0  0
  -23.6802  -25.3033   21.2090 C   0  0  0  0  0  0  0  0  0  0  0  0
  -21.5433   -6.1674   22.4907 C   0  0  0  0  0  0  0  0  0  0  0  0
  -21.6378   -4.2533   24.5179 C   0  0  0  0  0  0  0  0  0  0  0  0
  -22.5322   -5.1838   22.4756 C   0  0  0  0  0  0  0  0  0  0  0  0
  -25.9569  -10.4230   20.8189 C   0  0  0  0  0  0  0  0  0  0  0  0
  -23.3529  -21.6854   22.8033 C   0  0  0  0  0  0  0  0  0  0  0  0
  -23.7800  -20.3403   20.9930 C   0  0  0  0  0  0  0  0  0  0  0  0
  -28.0023  -11.2034   20.6139 C   0  0  0  0  0  0  0  0  0  0  0  0
  -27.8883   -8.7307   20.9621 C   0  0  0  0  0  0  0  0  0  0  0  0
  -28.2110  -28.2925   21.2390 C   0  0  0  0  0  0  0  0  0  0  0  0
  -26.4224  -30.8068   22.2398 C   0  0  0  0  0  0  0  0  0  0  0  0
  -23.3564  -32.0053   23.1397 C   0  0  0  0  0  0  0  0  0  0  0  0
  -26.8895  -16.7572   21.8536 C   0  0  0  0  0  0  0  0  0  0  0  0
  -32.7878  -27.5786   19.0940 C   0  0  0  0  0  0  0  0  0  0  0  0
  -26.3284  -28.2700   19.5623 C   0  0  0  0  0  0  0  0  0  0  0  0
  -26.4861  -19.7222   23.5657 C   0  0  0  0  0  0  0  0  0  0  0  0
  -25.3280  -28.5354   22.3324 C   0  0  0  0  0  0  0  0  0  0  0  0
  -25.7474  -18.7814   20.8428 C   0  0  0  0  0  0  0  0  0  0  0  0
  -32.1489  -28.6517   19.9718 C   0  0  0  0  0  0  0  0  0  0  0  0
  -27.5870  -15.5228   18.6163 C   0  0  0  0  0  0  0  0  0  0  0  0
  -31.4515  -28.0157   21.1701 C   0  0  0  0  0  0  0  0  0  0  0  0
  -27.3690  -14.0231   18.8110 C   0  0  0  0  0  0  0  0  0  0  0  0
  -26.5506  -16.3577   19.3706 C   0  0  0  0  0  0  0  0  0  0  0  0
  -26.2296  -14.5261   21.0039 C   0  0  0  0  0  0  0  0  0  0  0  0
  -30.3217  -27.0819   20.7192 C   0  0  1  0  0  0  0  0  0  0  0  0
  -27.0864  -29.0707   20.6166 C   0  0  1  0  0  0  0  0  0  0  0  0
  -27.2951  -13.6674   20.3061 C   0  0  1  0  0  0  0  0  0  0  0  0
  -27.4868  -19.0441   22.6189 C   0  0  2  0  0  0  0  0  0  0  0  0
  -23.3513  -19.9136   19.6259 C   0  0  0  0  0  0  0  0  0  0  0  0
  -28.3576  -20.0557   21.8662 C   0  0  0  0  0  0  0  0  0  0  0  0
  -22.2151  -34.0899   23.9455 C   0  0  0  0  0  0  0  0  0  0  0  0
  -27.5813  -30.3609   25.0270 C   0  0  0  0  0  0  0  0  0  0  0  0
  -25.7451  -31.7948   25.9438 C   0  0  0  0  0  0  0  0  0  0  0  0
  -27.3986  -32.7600   24.3447 C   0  0  0  0  0  0  0  0  0  0  0  0
  -21.6047  -32.1068   20.7564 C   0  0  0  0  0  0  0  0  0  0  0  0
  -22.4778  -22.7061   23.4508 C   0  0  0  0  0  0  0  0  0  0  0  0
  -22.9012  -24.1432   23.1334 C   0  0  0  0  0  0  0  0  0  1  0  0
  -25.6536  -31.1392   23.4958 C   0  0  1  0  0  0  0  0  0  0  0  0
  -22.6063  -33.2607   22.7323 C   0  0  2  0  0  0  0  0  0  0  0  0
  -26.5886  -31.4906   24.6874 C   0  0  0  0  0  0  0  0  0  0  0  0
  -25.7975  -11.7376   20.6443 N   0  0  0  0  0  0  0  0  0  0  0  0
  -22.9876  -21.2701   21.5720 N   0  0  0  0  0  0  0  0  0  0  0  0
  -27.0591  -12.1843   20.5228 N   0  0  0  0  0  0  0  0  0  0  0  0
  -26.2243  -29.5238   21.7102 N   0  0  0  0  0  0  0  0  0  0  0  0
  -26.7746  -18.1495   21.6902 N   0  0  0  0  0  0  0  0  0  0  0  0
  -26.4770  -15.9525   20.7808 N   0  0  0  0  0  0  0  0  0  0  0  0
  -29.3202  -11.4784   20.5132 N   0  0  0  0  0  0  0  0  0  0  0  0
  -27.0323   -7.6377   21.1541 N   0  0  0  0  0  0  0  0  0  0  0  0
  -29.1560  -27.8483   20.3340 N   0  0  0  0  0  0  0  0  0  0  0  0
  -24.7212  -32.2015   23.1345 N   0  0  0  0  0  0  0  0  0  0  0  0
  -21.3660  -32.9041   21.9870 N   0  3  0  0  0  0  0  0  0  0  0  0
  -29.1286   -8.5437   20.9462 O   0  0  0  0  0  0  0  0  0  0  0  0
  -28.2213  -28.1099   22.4507 O   0  0  0  0  0  0  0  0  0  0  0  0
  -27.1656  -31.6567   21.7429 O   0  0  0  0  0  0  0  0  0  0  0  0
  -22.7882  -30.9568   23.4367 O   0  0  0  0  0  0  0  0  0  0  0  0
  -27.3270  -16.2611   22.8995 O   0  0  0  0  0  0  0  0  0  0  0  0
  -21.4955   -7.1187   21.4855 O   0  0  0  0  0  0  0  0  0  0  0  0
  -22.8329  -24.3606   21.7299 O   0  0  0  0  0  0  0  0  0  1  0  0
  -21.6840   -3.3352   25.4922 F   0  0  0  0  0  0  0  0  0  0  0  0
  -23.4403   -5.1540   21.4906 F   0  0  0  0  0  0  0  0  0  0  0  0
  1  2  1  0  0  0  0
  1  5  2  0  0  0  0
  2  6  2  0  0  0  0
  3  8  2  0  0  0  0
  3 16  1  0  0  0  0
  4  9  1  0  0  0  0
  4 16  2  0  0  0  0
  5 18  1  0  0  0  0
  6 20  1  0  0  0  0
  7 10  2  0  0  0  0
  7 19  1  0  0  0  0
  8 24  1  0  0  0  0
  9 24  2  0  0  0  0
 10 25  1  0  0  0  0
 11 12  2  0  0  0  0
 11 26  1  0  0  0  0
 12 27  1  0  0  0  0
 13 21  1  0  0  0  0
 13 25  2  0  0  0  0
 14 22  2  0  0  0  0
 14 30  1  0  0  0  0
 15 27  2  0  0  0  0
 15 28  1  0  0  0  0
 16 29  1  0  0  0  0
 17 29  1  0  0  0  0
 17 32  2  0  0  0  0
 17 33  1  0  0  0  0
 18 20  2  0  0  0  0
 18 38  1  0  0  0  0
 19 21  2  0  0  0  0
 19 39  1  0  0  0  0
 20 49  1  0  0  0  0
 21 41  1  0  0  0  0
 22 23  1  0  0  0  0
 22 40  1  0  0  0  0
 23 31  2  0  0  0  0
 23 42  1  0  0  0  0
 24 81  1  0  0  0  0
 25 82  1  0  0  0  0
 26 28  2  0  0  0  0
 26 81  1  0  0  0  0
 27 83  1  0  0  0  0
 28 84  1  0  0  0  0
 29 65  2  0  0  0  0
 30 60  1  0  0  0  0
 30 66  2  0  0  0  0
 31 53  1  0  0  0  0
 31 66  1  0  0  0  0
 32 67  1  0  0  0  0
 32 71  1  0  0  0  0
 33 72  1  0  0  0  0
 33 76  2  0  0  0  0
 34 50  1  0  0  0  0
 34 73  1  0  0  0  0
 34 77  2  0  0  0  0
 35 62  1  0  0  0  0
 35 68  1  0  0  0  0
 35 78  2  0  0  0  0
 36 63  1  0  0  0  0
 36 74  1  0  0  0  0
 36 79  2  0  0  0  0
 37 69  1  0  0  0  0
 37 70  1  0  0  0  0
 37 80  2  0  0  0  0
 38 43  1  0  0  0  0
 39 50  1  0  0  0  0
 40 52  1  0  0  0  0
 41 68  1  0  0  0  0
 42 69  1  0  0  0  0
 43 45  1  0  0  0  0
 44 46  1  0  0  0  0
 44 47  1  0  0  0  0
 45 49  1  0  0  0  0
 46 51  1  0  0  0  0
 47 70  1  0  0  0  0
 48 51  1  0  0  0  0
 48 70  1  0  0  0  0
 49 73  1  0  0  0  0
 50 68  1  0  0  0  0
 51 67  1  0  0  0  0
 52 54  1  0  0  0  0
 52 69  1  0  0  0  0
 55 63  1  0  0  0  0
 56 64  1  0  0  0  0
 57 64  1  0  0  0  0
 58 64  1  0  0  0  0
 59 75  1  0  0  0  0
 60 61  1  0  0  0  0
 61 82  1  0  0  0  0
 62 64  1  0  0  0  0
 62 74  1  0  0  0  0
 63 75  1  0  0  0  0
 65 67  1  0  0  0  0
M  CHG  1  75   1
M  ISO  4  37 100  61 101  69 100  82 101
M  END
> <Batch ID>
0177

> <Smiles>
CNC(C)C(=O)NC(C(=O)N1Cc2cc([101O:1][101CH2:1]Cc3cc4c(c(C)n3)C[100N:0]([100C:0](=O)N3CCCC(n5nc(-c6ccc(Oc7ccc(F)cc7F)cc6)c(C(N)=O)c5N)C3)C(C)C4)ccc2CC1C(=O)NC1CCCc2ccccc21)C(C)(C)C

> <Shape>
0.260

> <Color>
0.099

> <Negative vol penalty>
0.000

$$$$

  -OEChem-04052322523D

 85 94  0     1  0  0  0  0  0999 V2000
  -28.6448  -37.1847   20.3522 C   0  0  0  0  0  0  0  0  0  0  0  0
  -28.9728  -35.8574   20.0951 C   0  0  0  0  0  0  0  0  0  0  0  0
  -22.0076  -13.0900   21.6389 C   0  0  0  0  0  0  0  0  0  0  0  0
  -22.5234  -10.9433   20.6577 C   0  0  0  0  0  0  0  0  0  0  0  0
  -27.7444  -37.4944   21.3707 C   0  0  0  0  0  0  0  0  0  0  0  0
  -28.4013  -34.8390   20.8571 C   0  0  0  0  0  0  0  0  0  0  0  0
  -26.8423  -29.2365   18.9368 C   0  0  0  0  0  0  0  0  0  0  0  0
  -20.6868  -12.6849   21.8310 C   0  0  0  0  0  0  0  0  0  0  0  0
  -21.2026  -10.5382   20.8499 C   0  0  0  0  0  0  0  0  0  0  0  0
  -27.4843  -28.0021   19.0256 C   0  0  0  0  0  0  0  0  0  0  0  0
  -18.0541   -8.8088   21.4111 C   0  0  0  0  0  0  0  0  0  0  0  0
  -17.8355   -7.5342   21.9335 C   0  0  0  0  0  0  0  0  0  0  0  0
  -26.2014  -27.4838   21.0016 C   0  0  0  0  0  0  0  0  0  0  0  0
  -19.0685   -8.1375   23.9216 C   0  0  0  0  0  0  0  0  0  0  0  0
  -22.9259  -12.2193   21.0521 C   0  0  0  0  0  0  0  0  0  0  0  0
  -25.3654  -12.4859   21.7490 C   0  0  0  0  0  0  0  0  0  0  0  0
  -27.1542  -36.4786   22.1392 C   0  0  0  0  0  0  0  0  0  0  0  0
  -25.8813  -29.6090   19.8876 C   0  0  0  0  0  0  0  0  0  0  0  0
  -27.4932  -35.1354   21.8877 C   0  0  0  0  0  0  0  0  0  0  0  0
  -25.5468  -28.7224   20.9212 C   0  0  0  0  0  0  0  0  0  0  0  0
  -20.2843  -11.4090   21.4366 C   0  0  0  0  0  0  0  0  0  0  0  0
  -27.1660  -27.1267   20.0598 C   0  0  0  0  0  0  0  0  0  0  0  0
  -18.7800   -9.7479   22.1439 C   0  0  0  0  0  0  0  0  0  0  0  0
  -18.3426   -7.1985   23.1888 C   0  0  0  0  0  0  0  0  0  0  0  0
  -19.2872   -9.4122   23.3992 C   0  0  0  0  0  0  0  0  0  0  0  0
  -24.2903  -12.6374   20.8529 C   0  0  0  0  0  0  0  0  0  0  0  0
  -26.4381  -13.0414   21.0954 C   0  0  0  0  0  0  0  0  0  0  0  0
  -25.3920  -11.8957   23.0554 C   0  0  0  0  0  0  0  0  0  0  0  0
  -25.6301  -31.9475   22.0259 C   0  0  0  0  0  0  0  0  0  0  0  0
  -22.6608  -30.7125   22.4505 C   0  0  0  0  0  0  0  0  0  0  0  0
  -20.5806  -28.0186   22.2014 C   0  0  0  0  0  0  0  0  0  0  0  0
  -28.7033  -17.0478   18.0198 C   0  0  0  0  0  0  0  0  0  0  0  0
  -26.2225  -36.8650   23.2605 C   0  0  0  0  0  0  0  0  0  0  0  0
  -25.1786  -30.9330   19.7625 C   0  0  0  0  0  0  0  0  0  0  0  0
  -24.5075  -29.0663   21.9557 C   0  0  0  0  0  0  0  0  0  0  0  0
  -25.3748  -35.7046   23.7753 C   0  0  0  0  0  0  0  0  0  0  0  0
  -26.9798  -14.5302   16.3052 C   0  0  0  0  0  0  0  0  0  0  0  0
  -26.2395  -34.4667   23.9916 C   0  0  0  0  0  0  0  0  0  0  0  0
  -26.1967  -13.8047   17.3972 C   0  0  0  0  0  0  0  0  0  0  0  0
  -27.8926  -21.2191   19.9308 C   0  0  0  0  0  0  0  0  0  0  0  0
  -26.9894  -16.0331   16.5529 C   0  0  0  0  0  0  0  0  0  0  0  0
  -30.5561  -17.4901   19.5926 C   0  0  0  0  0  0  0  0  0  0  0  0
  -28.2569  -17.9122   20.3672 C   0  0  0  0  0  0  0  0  0  0  0  0
  -26.7911  -15.6939   18.9990 C   0  0  0  0  0  0  0  0  0  0  0  0
  -28.1446  -22.2502   21.0240 C   0  0  0  0  0  0  0  0  0  0  0  0
  -30.9758  -18.9536   19.6818 C   0  0  0  0  0  0  0  0  0  0  0  0
  -28.9354  -19.0227   21.1691 C   0  0  0  0  0  0  0  0  0  0  0  0
  -30.3304  -22.8719   19.9497 C   0  0  0  0  0  0  0  0  0  0  0  0
  -26.8753  -34.0011   22.6762 C   0  0  1  0  0  0  0  0  0  0  0  0
  -24.5868  -31.4223   21.0807 C   0  0  1  0  0  0  0  0  0  0  0  0
  -30.0920  -21.8422   18.8402 C   0  0  2  0  0  0  0  0  0  0  0  0
  -26.7383  -14.1663   18.7903 C   0  0  1  0  0  0  0  0  0  0  0  0
  -29.1812  -20.6890   19.2991 C   0  0  1  0  0  0  0  0  0  0  0  0
  -31.4286  -21.3577   18.2734 C   0  0  0  0  0  0  0  0  0  0  0  0
  -18.2194  -27.3038   22.6613 C   0  0  0  0  0  0  0  0  0  0  0  0
  -23.2984  -30.5310   25.4289 C   0  0  0  0  0  0  0  0  0  0  0  0
  -21.3513  -28.9774   25.6799 C   0  0  0  0  0  0  0  0  0  0  0  0
  -20.9839  -31.3195   24.9037 C   0  0  0  0  0  0  0  0  0  0  0  0
  -20.0808  -27.4260   19.3452 C   0  0  0  0  0  0  0  0  0  0  0  0
  -29.1798  -24.4710   21.4793 C   0  0  0  0  0  0  0  0  0  0  0  0
  -27.9602  -25.3711   21.4537 C   0  0  0  0  0  0  0  0  0  1  0  0
  -22.0620  -29.6503   23.3405 C   0  0  1  0  0  0  0  0  0  0  0  0
  -19.1809  -27.8761   21.6313 C   0  0  2  0  0  0  0  0  0  0  0  0
  -21.9449  -30.1136   24.8200 C   0  0  0  0  0  0  0  0  0  0  0  0
  -24.6474  -13.2419   19.7166 N   0  0  0  0  0  0  0  0  0  0  0  0
  -25.9589  -13.4753   19.8944 N   0  0  0  0  0  0  0  0  0  0  0  0
  -23.8529  -30.3750   21.7941 N   0  0  0  0  0  0  0  0  0  0  0  0
  -27.4931  -16.3530   17.8890 N   0  0  0  0  0  0  0  0  0  0  0  0
  -29.1297  -17.3618   19.3209 N   0  0  0  0  0  0  0  0  0  0  0  0
  -27.7350  -13.1962   21.4366 N   0  0  0  0  0  0  0  0  0  0  0  0
  -24.2009  -11.3722   23.5764 N   0  0  0  0  0  0  0  0  0  0  0  0
  -25.9054  -33.2925   21.8690 N   0  0  0  0  0  0  0  0  0  0  0  0
  -20.7914  -29.2747   22.7296 N   0  0  0  0  0  0  0  0  0  0  0  0
  -29.8853  -19.8105   20.2998 N   0  3  0  0  0  0  0  0  0  0  0  0
  -29.0017  -23.3648   20.4754 N   0  3  2  0  0  0  0  0  0  0  0  0
  -19.1936  -26.9718   20.4468 N   0  3  0  0  0  0  0  0  0  0  0  0
  -26.4374  -11.8491   23.7471 O   0  0  0  0  0  0  0  0  0  0  0  0
  -26.1461  -31.1890   22.8383 O   0  0  0  0  0  0  0  0  0  0  0  0
  -22.0881  -31.7991   22.3363 O   0  0  0  0  0  0  0  0  0  0  0  0
  -21.4032  -27.1057   22.1835 O   0  0  0  0  0  0  0  0  0  0  0  0
  -29.3546  -17.3962   17.0265 O   0  0  0  0  0  0  0  0  0  0  0  0
  -18.9956  -11.0132   21.6242 O   0  0  0  0  0  0  0  0  0  0  0  0
  -27.7960  -25.9129   20.1498 O   0  0  0  0  0  0  0  0  0  1  0  0
  -18.1313   -5.9749   23.6910 F   0  0  0  0  0  0  0  0  0  0  0  0
  -19.9843  -10.3105   24.1083 F   0  0  0  0  0  0  0  0  0  0  0  0
  1  2  1  0  0  0  0
  1  5  2  0  0  0  0
  2  6  2  0  0  0  0
  3  8  2  0  0  0  0
  3 15  1  0  0  0  0
  4  9  1  0  0  0  0
  4 15  2  0  0  0  0
  5 17  1  0  0  0  0
  6 19  1  0  0  0  0
  7 10  2  0  0  0  0
  7 18  1  0  0  0  0
  8 21  1  0  0  0  0
  9 21  2  0  0  0  0
 10 22  1  0  0  0  0
 11 12  2  0  0  0  0
 11 23  1  0  0  0  0
 12 24  1  0  0  0  0
 13 20  1  0  0  0  0
 13 22  2  0  0  0  0
 14 24  2  0  0  0  0
 14 25  1  0  0  0  0
 15 26  1  0  0  0  0
 16 26  1  0  0  0  0
 16 27  2  0  0  0  0
 16 28  1  0  0  0  0
 17 19  2  0  0  0  0
 17 33  1  0  0  0  0
 18 20  2  0  0  0  0
 18 34  1  0  0  0  0
 19 49  1  0  0  0  0
 20 35  1  0  0  0  0
 21 82  1  0  0  0  0
 22 83  1  0  0  0  0
 23 25  2  0  0  0  0
 23 82  1  0  0  0  0
 24 84  1  0  0  0  0
 25 85  1  0  0  0  0
 26 65  2  0  0  0  0
 27 66  1  0  0  0  0
 27 70  1  0  0  0  0
 28 71  1  0  0  0  0
 28 77  2  0  0  0  0
 29 50  1  0  0  0  0
 29 72  1  0  0  0  0
 29 78  2  0  0  0  0
 30 62  1  0  0  0  0
 30 67  1  0  0  0  0
 30 79  2  0  0  0  0
 31 63  1  0  0  0  0
 31 73  1  0  0  0  0
 31 80  2  0  0  0  0
 32 68  1  0  0  0  0
 32 69  1  0  0  0  0
 32 81  2  0  0  0  0
 33 36  1  0  0  0  0
 34 50  1  0  0  0  0
 35 67  1  0  0  0  0
 36 38  1  0  0  0  0
 37 39  1  0  0  0  0
 37 41  1  0  0  0  0
 38 49  1  0  0  0  0
 39 52  1  0  0  0  0
 40 45  1  0  0  0  0
 40 53  1  0  0  0  0
 41 68  1  0  0  0  0
 42 46  1  0  0  0  0
 42 69  1  0  0  0  0
 43 47  1  0  0  0  0
 43 69  1  0  0  0  0
 44 52  1  0  0  0  0
 44 68  1  0  0  0  0
 45 75  1  0  0  0  0
 46 74  1  0  0  0  0
 47 74  1  0  0  0  0
 48 51  1  0  0  0  0
 48 75  1  0  0  0  0
 49 72  1  0  0  0  0
 50 67  1  0  0  0  0
 51 53  1  0  0  0  0
 51 54  1  0  0  0  0
 52 66  1  0  0  0  0
 53 74  1  0  0  0  0
 55 63  1  0  0  0  0
 56 64  1  0  0  0  0
 57 64  1  0  0  0  0
 58 64  1  0  0  0  0
 59 76  1  0  0  0  0
 60 61  1  0  0  0  0
 60 75  1  0  0  0  0
 61 83  1  0  0  0  0
 62 64  1  0  0  0  0
 62 73  1  0  0  0  0
 63 76  1  0  0  0  0
 65 66  1  0  0  0  0
M  CHG  3  74   1  75   1  76   1
M  ISO  4  32 100  61 101  69 100  83 101
M  END
> <Batch ID>
0177

> <Smiles>
CNC(C)C(=O)NC(C(=O)N1Cc2cc([101O:1][101CH2:1]CN3CCC(N4CC[100N:0]([100C:0](=O)N5CCCC(n6nc(-c7ccc(Oc8ccc(F)cc8F)cc7)c(C(N)=O)c6N)C5)CC4)C(C)C3)ccc2CC1C(=O)NC1CCCc2ccccc21)C(C)(C)C

> <Shape>
0.279

> <Color>
0.066

> <Negative vol penalty>
0.000

$$$$

  -OEChem-04052322523D

 86 95  0     1  0  0  0  0  0999 V2000
  -19.5570  -10.4608   21.7238 C   0  0  0  0  0  0  0  0  0  0  0  0
  -20.1773  -11.7011   21.8350 C   0  0  0  0  0  0  0  0  0  0  0  0
  -20.1198  -28.1232   23.3946 C   0  0  0  0  0  0  0  0  0  0  0  0
  -19.9222  -26.3622   21.7523 C   0  0  0  0  0  0  0  0  0  0  0  0
  -20.3199   -9.3210   21.4739 C   0  0  0  0  0  0  0  0  0  0  0  0
  -21.5613  -11.8020   21.6975 C   0  0  0  0  0  0  0  0  0  0  0  0
  -24.6848  -16.4444   19.2081 C   0  0  0  0  0  0  0  0  0  0  0  0
  -18.7453  -28.3478   23.3193 C   0  0  0  0  0  0  0  0  0  0  0  0
  -18.5475  -26.5867   21.6771 C   0  0  0  0  0  0  0  0  0  0  0  0
  -25.3534  -17.5322   19.7681 C   0  0  0  0  0  0  0  0  0  0  0  0
  -16.5880  -29.9145   21.2419 C   0  0  0  0  0  0  0  0  0  0  0  0
  -16.1516  -31.2369   21.1607 C   0  0  0  0  0  0  0  0  0  0  0  0
  -27.4297  -16.3100   19.6485 C   0  0  0  0  0  0  0  0  0  0  0  0
  -14.9052  -30.9514   23.2107 C   0  0  0  0  0  0  0  0  0  0  0  0
  -20.7083  -27.1305   22.6111 C   0  0  0  0  0  0  0  0  0  0  0  0
  -22.7996  -26.0149   23.5543 C   0  0  0  0  0  0  0  0  0  0  0  0
  -21.7129   -9.4093   21.3237 C   0  0  0  0  0  0  0  0  0  0  0  0
  -25.3831  -15.2752   18.8737 C   0  0  0  0  0  0  0  0  0  0  0  0
  -22.3438  -10.6620   21.4467 C   0  0  0  0  0  0  0  0  0  0  0  0
  -26.7681  -15.2097   19.0821 C   0  0  0  0  0  0  0  0  0  0  0  0
  -28.9114  -20.6977   21.7280 C   0  0  0  0  0  0  0  0  0  0  0  0
  -30.2846  -22.3207   20.5612 C   0  0  0  0  0  0  0  0  0  0  0  0
  -29.1840  -23.1842   20.5834 C   0  0  0  0  0  0  0  0  0  0  0  0
  -30.1215  -21.0691   21.1467 C   0  0  0  0  0  0  0  0  0  0  0  0
  -17.9591  -27.5795   22.4605 C   0  0  0  0  0  0  0  0  0  0  0  0
  -26.7255  -17.4641   19.9910 C   0  0  0  0  0  0  0  0  0  0  0  0
  -16.1830  -29.1106   22.3074 C   0  0  0  0  0  0  0  0  0  0  0  0
  -15.3102  -31.7553   22.1451 C   0  0  0  0  0  0  0  0  0  0  0  0
  -15.3416  -29.6290   23.2918 C   0  0  0  0  0  0  0  0  0  0  0  0
  -22.1283  -26.8984   22.6880 C   0  0  0  0  0  0  0  0  0  0  0  0
  -27.8641  -21.6016   21.7141 C   0  0  0  0  0  0  0  0  0  0  0  0
  -29.3432  -24.4300   20.0022 C   0  0  0  0  0  0  0  0  0  0  0  0
  -24.1271  -26.1629   23.2346 C   0  0  0  0  0  0  0  0  0  0  0  0
  -31.4857  -23.9316   19.4600 C   0  0  0  0  0  0  0  0  0  0  0  0
  -22.2705  -25.1386   24.5583 C   0  0  0  0  0  0  0  0  0  0  0  0
  -25.2577  -12.2412   19.8134 C   0  0  0  0  0  0  0  0  0  0  0  0
  -27.4205  -11.8212   17.4325 C   0  0  0  0  0  0  0  0  0  0  0  0
  -29.8267  -13.1817   15.4310 C   0  0  0  0  0  0  0  0  0  0  0  0
  -28.2108  -26.6182   19.4770 C   0  0  0  0  0  0  0  0  0  0  0  0
  -22.5008   -8.1427   21.1014 C   0  0  0  0  0  0  0  0  0  0  0  0
  -24.6518  -14.1205   18.2458 C   0  0  0  0  0  0  0  0  0  0  0  0
  -27.5673  -13.9850   18.7217 C   0  0  0  0  0  0  0  0  0  0  0  0
  -23.9201   -8.3890   20.5962 C   0  0  0  0  0  0  0  0  0  0  0  0
  -26.4529  -29.5946   20.3302 C   0  0  0  0  0  0  0  0  0  0  0  0
  -24.5942   -9.4872   21.4125 C   0  0  0  0  0  0  0  0  0  0  0  0
  -25.2263  -29.0858   21.0909 C   0  0  0  0  0  0  0  0  0  0  0  0
  -26.8327  -28.6644   19.1794 C   0  0  0  0  0  0  0  0  0  0  0  0
  -25.7818  -26.7462   20.3131 C   0  0  0  0  0  0  0  0  0  0  0  0
  -23.8399  -10.8156   21.2791 C   0  0  1  0  0  0  0  0  0  0  0  0
  -25.3762  -12.7891   18.4193 C   0  0  1  0  0  0  0  0  0  0  0  0
  -25.4001  -27.6162   21.5219 C   0  0  2  0  0  0  0  0  0  0  0  0
  -26.5321  -21.3078   22.3054 C   0  0  0  0  0  0  0  0  0  0  0  0
  -32.7757  -24.3416   18.8341 C   0  0  0  0  0  0  0  0  0  0  0  0
  -31.4434  -12.5817   13.6080 C   0  0  0  0  0  0  0  0  0  0  0  0
  -29.2327  -10.4760   19.4858 C   0  0  0  0  0  0  0  0  0  0  0  0
  -31.1386  -10.7616   17.8877 C   0  0  0  0  0  0  0  0  0  0  0  0
  -29.1785   -9.3566   17.2501 C   0  0  0  0  0  0  0  0  0  0  0  0
  -28.5701  -15.0745   13.5344 C   0  0  0  0  0  0  0  0  0  0  0  0
  -28.7364  -19.3394   22.3625 C   0  0  0  0  0  0  0  0  0  0  0  0
  -28.5339  -18.2378   21.3278 C   0  0  0  0  0  0  0  0  0  1  0  0
  -28.9261  -11.8708   17.3349 C   0  0  1  0  0  0  0  0  0  0  0  0
  -30.0523  -13.1038   13.9318 C   0  0  2  0  0  0  0  0  0  0  0  0
  -29.6039  -10.6388   17.9983 C   0  0  0  0  0  0  0  0  0  0  0  0
  -31.4467  -22.6934   19.9960 N   0  0  0  0  0  0  0  0  0  0  0  0
  -22.9607  -27.5589   21.8787 N   0  0  0  0  0  0  0  0  0  0  0  0
  -30.4905  -24.8356   19.4282 N   0  0  0  0  0  0  0  0  0  0  0  0
  -24.1687  -27.0902   22.2353 N   0  0  0  0  0  0  0  0  0  0  0  0
  -28.0271  -22.8042   21.1496 N   0  3  0  0  0  0  0  0  0  0  0  0
  -26.8059  -12.8799   18.1163 N   0  0  0  0  0  0  0  0  0  0  0  0
  -26.9844  -27.2905   19.6634 N   0  0  0  0  0  0  0  0  0  0  0  0
  -31.2064  -20.1559   21.1513 N   0  0  0  0  0  0  0  0  0  0  0  0
  -25.2513  -25.5890   23.7135 N   0  0  0  0  0  0  0  0  0  0  0  0
  -20.8833  -25.1103   24.7567 N   0  0  0  0  0  0  0  0  0  0  0  0
  -28.2480  -25.3291   20.0075 N   0  0  0  0  0  0  0  0  0  0  0  0
  -24.1457  -11.4455   20.0125 N   0  0  0  0  0  0  0  0  0  0  0  0
  -29.2382  -12.0343   15.9192 N   0  0  0  0  0  0  0  0  0  0  0  0
  -29.9008  -14.4517   13.3145 N   0  3  0  0  0  0  0  0  0  0  0  0
  -23.0073  -24.4146   25.2699 O   0  0  0  0  0  0  0  0  0  0  0  0
  -26.1127  -12.5186   20.6462 O   0  0  0  0  0  0  0  0  0  0  0  0
  -26.8115  -10.8817   16.9148 O   0  0  0  0  0  0  0  0  0  0  0  0
  -30.1443  -14.1609   16.1024 O   0  0  0  0  0  0  0  0  0  0  0  0
  -29.1673  -27.1569   18.9140 O   0  0  0  0  0  0  0  0  0  0  0  0
  -16.6177  -27.7982   22.3870 O   0  0  0  0  0  0  0  0  0  0  0  0
  -27.3804  -18.5242   20.5380 O   0  0  0  0  0  0  0  0  0  1  0  0
  -14.8925  -33.0256   22.0678 F   0  0  0  0  0  0  0  0  0  0  0  0
  -14.9502  -28.8619   24.3185 F   0  0  0  0  0  0  0  0  0  0  0  0
  1  2  1  0  0  0  0
  1  5  2  0  0  0  0
  2  6  2  0  0  0  0
  3  8  2  0  0  0  0
  3 15  1  0  0  0  0
  4  9  1  0  0  0  0
  4 15  2  0  0  0  0
  5 17  1  0  0  0  0
  6 19  1  0  0  0  0
  7 10  2  0  0  0  0
  7 18  1  0  0  0  0
  8 25  1  0  0  0  0
  9 25  2  0  0  0  0
 10 26  1  0  0  0  0
 11 12  2  0  0  0  0
 11 27  1  0  0  0  0
 12 28  1  0  0  0  0
 13 20  1  0  0  0  0
 13 26  2  0  0  0  0
 14 28  2  0  0  0  0
 14 29  1  0  0  0  0
 15 30  1  0  0  0  0
 16 30  1  0  0  0  0
 16 33  2  0  0  0  0
 16 35  1  0  0  0  0
 17 19  2  0  0  0  0
 17 40  1  0  0  0  0
 18 20  2  0  0  0  0
 18 41  1  0  0  0  0
 19 49  1  0  0  0  0
 20 42  1  0  0  0  0
 21 24  2  0  0  0  0
 21 31  1  0  0  0  0
 21 59  1  0  0  0  0
 22 23  2  0  0  0  0
 22 24  1  0  0  0  0
 22 64  1  0  0  0  0
 23 32  1  0  0  0  0
 23 68  1  0  0  0  0
 24 71  1  0  0  0  0
 25 83  1  0  0  0  0
 26 84  1  0  0  0  0
 27 29  2  0  0  0  0
 27 83  1  0  0  0  0
 28 85  1  0  0  0  0
 29 86  1  0  0  0  0
 30 65  2  0  0  0  0
 31 52  1  0  0  0  0
 31 68  2  0  0  0  0
 32 66  2  0  0  0  0
 32 74  1  0  0  0  0
 33 67  1  0  0  0  0
 33 72  1  0  0  0  0
 34 53  1  0  0  0  0
 34 64  2  0  0  0  0
 34 66  1  0  0  0  0
 35 73  1  0  0  0  0
 35 78  2  0  0  0  0
 36 50  1  0  0  0  0
 36 75  1  0  0  0  0
 36 79  2  0  0  0  0
 37 61  1  0  0  0  0
 37 69  1  0  0  0  0
 37 80  2  0  0  0  0
 38 62  1  0  0  0  0
 38 76  1  0  0  0  0
 38 81  2  0  0  0  0
 39 70  1  0  0  0  0
 39 74  1  0  0  0  0
 39 82  2  0  0  0  0
 40 43  1  0  0  0  0
 41 50  1  0  0  0  0
 42 69  1  0  0  0  0
 43 45  1  0  0  0  0
 44 46  1  0  0  0  0
 44 47  1  0  0  0  0
 45 49  1  0  0  0  0
 46 51  1  0  0  0  0
 47 70  1  0  0  0  0
 48 51  1  0  0  0  0
 48 70  1  0  0  0  0
 49 75  1  0  0  0  0
 50 69  1  0  0  0  0
 51 67  1  0  0  0  0
 54 62  1  0  0  0  0
 55 63  1  0  0  0  0
 56 63  1  0  0  0  0
 57 63  1  0  0  0  0
 58 77  1  0  0  0  0
 59 60  1  0  0  0  0
 60 84  1  0  0  0  0
 61 63  1  0  0  0  0
 61 76  1  0  0  0  0
 62 77  1  0  0  0  0
 65 67  1  0  0  0  0
M  CHG  2  68   1  77   1
M  ISO  4  39 100  60 101  74 100  84 101
M  END
> <Batch ID>
0177

> <Smiles>
CNC(C)C(=O)NC(C(=O)N1Cc2cc([101O:1][101CH2:1]Cc3c(C)nc4c([100NH:0][100C:0](=O)N5CCCC(n6nc(-c7ccc(Oc8ccc(F)cc8F)cc7)c(C(N)=O)c6N)C5)nc(C)nc4c3N)ccc2CC1C(=O)NC1CCCc2ccccc21)C(C)(C)C

> <Shape>
0.243

> <Color>
0.075

> <Negative vol penalty>
0.000

$$$$

  -OEChem-04052322523D

 87 96  0     1  0  0  0  0  0999 V2000
  -25.9987  -38.2077   19.3037 C   0  0  0  0  0  0  0  0  0  0  0  0
  -26.1698  -37.0410   18.5654 C   0  0  0  0  0  0  0  0  0  0  0  0
  -24.6245   -9.0180   21.8926 C   0  0  0  0  0  0  0  0  0  0  0  0
  -23.0702   -9.8665   20.2491 C   0  0  0  0  0  0  0  0  0  0  0  0
  -26.1845  -38.1905   20.6854 C   0  0  0  0  0  0  0  0  0  0  0  0
  -26.5280  -35.8567   19.2083 C   0  0  0  0  0  0  0  0  0  0  0  0
  -25.5784  -28.7687   18.7884 C   0  0  0  0  0  0  0  0  0  0  0  0
  -23.5804   -8.3557   22.5382 C   0  0  0  0  0  0  0  0  0  0  0  0
  -22.0260   -9.2042   20.8946 C   0  0  0  0  0  0  0  0  0  0  0  0
  -26.3124  -27.5839   18.7539 C   0  0  0  0  0  0  0  0  0  0  0  0
  -21.7872   -5.5210   22.1119 C   0  0  0  0  0  0  0  0  0  0  0  0
  -22.0032   -4.2011   22.5077 C   0  0  0  0  0  0  0  0  0  0  0  0
  -26.5293  -27.6554   21.1554 C   0  0  0  0  0  0  0  0  0  0  0  0
  -30.1477  -24.1699   21.0320 C   0  0  0  0  0  0  0  0  0  0  0  0
  -21.5987   -4.8243   24.8066 C   0  0  0  0  0  0  0  0  0  0  0  0
  -24.3694   -9.7735   20.7481 C   0  0  0  0  0  0  0  0  0  0  0  0
  -26.2640   -9.9570   19.0497 C   0  0  0  0  0  0  0  0  0  0  0  0
  -26.5358  -37.0031   21.3468 C   0  0  0  0  0  0  0  0  0  0  0  0
  -25.3232  -29.4127   20.0077 C   0  0  0  0  0  0  0  0  0  0  0  0
  -26.7201  -35.8238   20.5999 C   0  0  0  0  0  0  0  0  0  0  0  0
  -25.7896  -28.8470   21.2029 C   0  0  0  0  0  0  0  0  0  0  0  0
  -28.7625  -24.1160   20.9244 C   0  0  0  0  0  0  0  0  0  0  0  0
  -28.1417  -22.9131   20.6064 C   0  0  0  0  0  0  0  0  0  0  0  0
  -22.2812   -8.4488   22.0392 C   0  0  0  0  0  0  0  0  0  0  0  0
  -26.7904  -27.0286   19.9372 C   0  0  0  0  0  0  0  0  0  0  0  0
  -21.4770   -6.4926   23.0634 C   0  0  0  0  0  0  0  0  0  0  0  0
  -21.9089   -3.8527   23.8550 C   0  0  0  0  0  0  0  0  0  0  0  0
  -21.3827   -6.1443   24.4108 C   0  0  0  0  0  0  0  0  0  0  0  0
  -25.4475  -10.4583   20.0811 C   0  0  0  0  0  0  0  0  0  0  0  0
  -30.8611  -23.0023   20.8138 C   0  0  0  0  0  0  0  0  0  0  0  0
  -28.9449  -21.8019   20.4071 C   0  0  0  0  0  0  0  0  0  0  0  0
  -27.1270  -10.9865   18.7639 C   0  0  0  0  0  0  0  0  0  0  0  0
  -26.2441   -8.6753   18.4074 C   0  0  0  0  0  0  0  0  0  0  0  0
  -26.0610  -32.2459   21.2456 C   0  0  0  0  0  0  0  0  0  0  0  0
  -24.1204  -31.2641   23.6523 C   0  0  0  0  0  0  0  0  0  0  0  0
  -22.6916  -28.6688   25.3464 C   0  0  0  0  0  0  0  0  0  0  0  0
  -26.7975  -16.7408   19.2190 C   0  0  0  0  0  0  0  0  0  0  0  0
  -26.7720  -37.0442   22.8358 C   0  0  0  0  0  0  0  0  0  0  0  0
  -24.5071  -30.6760   20.0305 C   0  0  0  0  0  0  0  0  0  0  0  0
  -25.5255  -29.4883   22.5399 C   0  0  0  0  0  0  0  0  0  0  0  0
  -26.7849  -35.6644   23.4887 C   0  0  0  0  0  0  0  0  0  0  0  0
  -29.2543  -14.7663   20.7696 C   0  0  0  0  0  0  0  0  0  0  0  0
  -27.6450  -34.6989   22.6795 C   0  0  0  0  0  0  0  0  0  0  0  0
  -28.6324  -13.3737   20.6698 C   0  0  0  0  0  0  0  0  0  0  0  0
  -28.2152  -15.8346   21.1135 C   0  0  0  0  0  0  0  0  0  0  0  0
  -28.6544  -19.9257   18.8185 C   0  0  0  0  0  0  0  0  0  0  0  0
  -27.9126  -19.7174   21.1960 C   0  0  0  0  0  0  0  0  0  0  0  0
  -27.5606  -18.9425   18.4102 C   0  0  0  0  0  0  0  0  0  0  0  0
  -26.8251  -18.7489   20.7444 C   0  0  0  0  0  0  0  0  0  0  0  0
  -26.4248  -14.4577   20.1053 C   0  0  0  0  0  0  0  0  0  0  0  0
  -27.0842  -34.5138   21.2643 C   0  0  1  0  0  0  0  0  0  0  0  0
  -24.7462  -31.5194   21.2790 C   0  0  1  0  0  0  0  0  0  0  0  0
  -27.4348  -13.3716   19.7033 C   0  0  2  0  0  0  0  0  0  0  0  0
  -32.3493  -23.0227   20.9215 C   0  0  0  0  0  0  0  0  0  0  0  0
  -26.1791  -23.0845   19.0584 C   0  0  0  0  0  0  0  0  0  0  0  0
  -21.1835  -28.1781   27.2912 C   0  0  0  0  0  0  0  0  0  0  0  0
  -26.4097  -31.8685   25.5769 C   0  0  0  0  0  0  0  0  0  0  0  0
  -25.2240  -30.5011   27.3068 C   0  0  0  0  0  0  0  0  0  0  0  0
  -24.1495  -32.5593   26.3946 C   0  0  0  0  0  0  0  0  0  0  0  0
  -20.6911  -27.3475   23.6110 C   0  0  0  0  0  0  0  0  0  0  0  0
  -27.9671  -25.3586   21.1547 C   0  0  0  0  0  0  0  0  0  1  0  0
  -26.6552  -22.8360   20.4874 C   0  0  1  0  0  0  0  0  0  0  0  0
  -24.3161  -30.4989   24.9389 C   0  0  1  0  0  0  0  0  0  0  0  0
  -21.2615  -28.4226   25.7922 C   0  0  2  0  0  0  0  0  0  0  0  0
  -25.0316  -31.3456   26.0291 C   0  0  0  0  0  0  0  0  0  0  0  0
  -25.7636  -11.7090   20.4272 N   0  0  0  0  0  0  0  0  0  0  0  0
  -30.2934  -21.8155   20.5030 N   0  0  0  0  0  0  0  0  0  0  0  0
  -26.7884  -12.0023   19.6087 N   0  0  0  0  0  0  0  0  0  0  0  0
  -28.3260  -20.5870   20.0860 N   0  0  0  0  0  0  0  0  0  0  0  0
  -24.7282  -30.7255   22.5094 N   0  0  0  0  0  0  0  0  0  0  0  0
  -27.0742  -15.7674   20.1905 N   0  0  0  0  0  0  0  0  0  0  0  0
  -27.1936  -18.0561   19.5080 N   0  0  0  0  0  0  0  0  0  0  0  0
  -28.1350  -11.1130   17.8748 N   0  0  0  0  0  0  0  0  0  0  0  0
  -25.2922   -7.7344   18.8231 N   0  0  0  0  0  0  0  0  0  0  0  0
  -25.9445  -33.6222   21.2849 N   0  0  0  0  0  0  0  0  0  0  0  0
  -22.9970  -30.0133   25.3297 N   0  0  0  0  0  0  0  0  0  0  0  0
  -20.6981  -27.2337   25.0922 N   0  3  0  0  0  0  0  0  0  0  0  0
  -27.0574   -8.3675   17.5034 O   0  0  0  0  0  0  0  0  0  0  0  0
  -27.1041  -31.6051   21.1899 O   0  0  0  0  0  0  0  0  0  0  0  0
  -23.4470  -32.2975   23.6598 O   0  0  0  0  0  0  0  0  0  0  0  0
  -23.4618  -27.7592   25.0467 O   0  0  0  0  0  0  0  0  0  0  0  0
  -26.2336  -16.4540   18.1557 O   0  0  0  0  0  0  0  0  0  0  0  0
  -21.2621   -7.8025   22.6687 O   0  0  0  0  0  0  0  0  0  0  0  0
  -27.5127  -25.8643   19.9061 O   0  0  0  0  0  0  0  0  0  1  0  0
  -22.1148   -2.5848   24.2348 F   0  0  0  0  0  0  0  0  0  0  0  0
  -21.0838   -7.0731   25.3293 F   0  0  0  0  0  0  0  0  0  0  0  0
  -26.1461  -21.6217   20.8725 F   0  0  0  0  0  0  0  0  0  0  0  0
  1  2  1  0  0  0  0
  1  5  2  0  0  0  0
  2  6  2  0  0  0  0
  3  8  2  0  0  0  0
  3 16  1  0  0  0  0
  4  9  1  0  0  0  0
  4 16  2  0  0  0  0
  5 18  1  0  0  0  0
  6 20  1  0  0  0  0
  7 10  2  0  0  0  0
  7 19  1  0  0  0  0
  8 24  1  0  0  0  0
  9 24  2  0  0  0  0
 10 25  1  0  0  0  0
 11 12  2  0  0  0  0
 11 26  1  0  0  0  0
 12 27  1  0  0  0  0
 13 21  1  0  0  0  0
 13 25  2  0  0  0  0
 14 22  1  0  0  0  0
 14 30  2  0  0  0  0
 15 27  2  0  0  0  0
 15 28  1  0  0  0  0
 16 29  1  0  0  0  0
 17 29  1  0  0  0  0
 17 32  2  0  0  0  0
 17 33  1  0  0  0  0
 18 20  2  0  0  0  0
 18 38  1  0  0  0  0
 19 21  2  0  0  0  0
 19 39  1  0  0  0  0
 20 51  1  0  0  0  0
 21 40  1  0  0  0  0
 22 23  2  0  0  0  0
 22 61  1  0  0  0  0
 23 31  1  0  0  0  0
 23 62  1  0  0  0  0
 24 83  1  0  0  0  0
 25 84  1  0  0  0  0
 26 28  2  0  0  0  0
 26 83  1  0  0  0  0
 27 85  1  0  0  0  0
 28 86  1  0  0  0  0
 29 66  2  0  0  0  0
 30 54  1  0  0  0  0
 30 67  1  0  0  0  0
 31 67  2  0  0  0  0
 31 69  1  0  0  0  0
 32 68  1  0  0  0  0
 32 73  1  0  0  0  0
 33 74  1  0  0  0  0
 33 78  2  0  0  0  0
 34 52  1  0  0  0  0
 34 75  1  0  0  0  0
 34 79  2  0  0  0  0
 35 63  1  0  0  0  0
 35 70  1  0  0  0  0
 35 80  2  0  0  0  0
 36 64  1  0  0  0  0
 36 76  1  0  0  0  0
 36 81  2  0  0  0  0
 37 71  1  0  0  0  0
 37 72  1  0  0  0  0
 37 82  2  0  0  0  0
 38 41  1  0  0  0  0
 39 52  1  0  0  0  0
 40 70  1  0  0  0  0
 41 43  1  0  0  0  0
 42 44  1  0  0  0  0
 42 45  1  0  0  0  0
 43 51  1  0  0  0  0
 44 53  1  0  0  0  0
 45 71  1  0  0  0  0
 46 48  1  0  0  0  0
 46 69  1  0  0  0  0
 47 49  1  0  0  0  0
 47 69  1  0  0  0  0
 48 72  1  0  0  0  0
 49 72  1  0  0  0  0
 50 53  1  0  0  0  0
 50 71  1  0  0  0  0
 51 75  1  0  0  0  0
 52 70  1  0  0  0  0
 53 68  1  0  0  0  0
 55 62  1  0  0  0  0
 56 64  1  0  0  0  0
 57 65  1  0  0  0  0
 58 65  1  0  0  0  0
 59 65  1  0  0  0  0
 60 77  1  0  0  0  0
 61 84  1  0  0  0  0
 62 87  1  0  0  0  0
 63 65  1  0  0  0  0
 63 76  1  0  0  0  0
 64 77  1  0  0  0  0
 66 68  1  0  0  0  0
M  CHG  1  77   1
M  ISO  4  37 100  61 101  72 100  84 101
M  END
> <Batch ID>
0177

> <Smiles>
CNC(C)C(=O)NC(C(=O)N1Cc2cc([101O:1][101CH2:1]c3cc(C)nc(N4CC[100N:0]([100C:0](=O)N5CCCC(n6nc(-c7ccc(Oc8ccc(F)cc8F)cc7)c(C(N)=O)c6N)C5)CC4)c3C(C)F)ccc2CC1C(=O)NC1CCCc2ccccc21)C(C)(C)C

> <Shape>
0.310

> <Color>
0.123

> <Negative vol penalty>
0.000

$$$$

  -OEChem-04052322523D

 86 95  0     1  0  0  0  0  0999 V2000
  -22.7445   -8.2822   22.3291 C   0  0  0  0  0  0  0  0  0  0  0  0
  -23.7651   -9.1395   22.7278 C   0  0  0  0  0  0  0  0  0  0  0  0
  -22.7840  -28.9848   21.6040 C   0  0  0  0  0  0  0  0  0  0  0  0
  -23.6490  -27.7462   23.4893 C   0  0  0  0  0  0  0  0  0  0  0  0
  -22.0682   -8.5146   21.1322 C   0  0  0  0  0  0  0  0  0  0  0  0
  -24.1107  -10.2290   21.9291 C   0  0  0  0  0  0  0  0  0  0  0  0
  -26.0166  -15.7298   23.8305 C   0  0  0  0  0  0  0  0  0  0  0  0
  -21.6920  -29.3902   22.3713 C   0  0  0  0  0  0  0  0  0  0  0  0
  -22.5570  -28.1516   24.2567 C   0  0  0  0  0  0  0  0  0  0  0  0
  -27.2863  -16.2931   23.9491 C   0  0  0  0  0  0  0  0  0  0  0  0
  -18.7618  -28.0743   23.4235 C   0  0  0  0  0  0  0  0  0  0  0  0
  -17.4976  -28.0036   22.8385 C   0  0  0  0  0  0  0  0  0  0  0  0
  -27.0199  -17.3337   21.7892 C   0  0  0  0  0  0  0  0  0  0  0  0
  -17.2248  -30.3852   23.1400 C   0  0  0  0  0  0  0  0  0  0  0  0
  -31.3878  -20.2095   19.6975 C   0  0  0  0  0  0  0  0  0  0  0  0
  -23.7625  -28.1627   22.1629 C   0  0  0  0  0  0  0  0  0  0  0  0
  -26.1272  -28.4022   21.2364 C   0  0  0  0  0  0  0  0  0  0  0  0
  -22.3992   -9.6130   20.3232 C   0  0  0  0  0  0  0  0  0  0  0  0
  -25.2420  -15.9557   22.6836 C   0  0  0  0  0  0  0  0  0  0  0  0
  -23.4391  -10.4755   20.7196 C   0  0  0  0  0  0  0  0  0  0  0  0
  -25.7395  -16.7742   21.6596 C   0  0  0  0  0  0  0  0  0  0  0  0
  -30.4695  -19.9662   18.6966 C   0  0  0  0  0  0  0  0  0  0  0  0
  -21.5785  -28.9736   23.6976 C   0  0  0  0  0  0  0  0  0  0  0  0
  -27.7893  -17.0929   22.9271 C   0  0  0  0  0  0  0  0  0  0  0  0
  -19.2575  -29.3005   23.8669 C   0  0  0  0  0  0  0  0  0  0  0  0
  -16.7291  -29.1590   22.6967 C   0  0  0  0  0  0  0  0  0  0  0  0
  -18.4890  -30.4559   23.7250 C   0  0  0  0  0  0  0  0  0  0  0  0
  -24.8904  -27.7432   21.3706 C   0  0  0  0  0  0  0  0  0  0  0  0
  -29.9290  -18.6967   18.6779 C   0  0  0  0  0  0  0  0  0  0  0  0
  -26.8499  -27.6054   20.3824 C   0  0  0  0  0  0  0  0  0  0  0  0
  -31.1594  -18.0916   20.4909 C   0  0  0  0  0  0  0  0  0  0  0  0
  -26.5821  -29.6252   21.8306 C   0  0  0  0  0  0  0  0  0  0  0  0
  -24.0233  -14.1101   20.4006 C   0  0  0  0  0  0  0  0  0  0  0  0
  -22.6135  -16.8753   19.4582 C   0  0  0  0  0  0  0  0  0  0  0  0
  -22.6506  -20.2878   19.4436 C   0  0  0  0  0  0  0  0  0  0  0  0
  -28.6330  -22.6630   18.8525 C   0  0  0  0  0  0  0  0  0  0  0  0
  -21.6719   -9.7963   19.0148 C   0  0  0  0  0  0  0  0  0  0  0  0
  -23.8634  -15.3625   22.5827 C   0  0  0  0  0  0  0  0  0  0  0  0
  -24.9396  -17.0641   20.4168 C   0  0  0  0  0  0  0  0  0  0  0  0
  -21.8469  -11.1871   18.4103 C   0  0  0  0  0  0  0  0  0  0  0  0
  -25.4168  -23.6753   17.5377 C   0  0  0  0  0  0  0  0  0  0  0  0
  -23.3132  -11.6057   18.4497 C   0  0  0  0  0  0  0  0  0  0  0  0
  -25.0970  -24.8868   18.4153 C   0  0  0  0  0  0  0  0  0  0  0  0
  -30.4910  -15.8939   21.9440 C   0  0  0  0  0  0  0  0  0  0  0  0
  -31.5387  -17.3707   23.0840 C   0  0  0  0  0  0  0  0  0  0  0  0
  -26.1186  -22.5824   18.3384 C   0  0  0  0  0  0  0  0  0  0  0  0
  -27.0410  -24.2392   19.9125 C   0  0  0  0  0  0  0  0  0  0  0  0
  -23.8264  -11.6823   19.8926 C   0  0  1  0  0  0  0  0  0  0  0  0
  -23.3695  -15.2400   21.1445 C   0  0  1  0  0  0  0  0  0  0  0  0
  -26.3508  -25.3887   19.1559 C   0  0  2  0  0  0  0  0  0  0  0  0
  -30.1385  -16.7363   23.1855 C   0  0  0  0  0  0  0  0  0  1  0  0
  -31.5723  -16.9662   21.5690 C   0  0  0  0  0  0  0  0  0  0  0  0
  -28.9225  -18.3194   17.6410 C   0  0  0  0  0  0  0  0  0  0  0  0
  -34.1222  -15.0642   19.3647 C   0  0  0  0  0  0  0  0  0  0  0  0
  -21.3881  -22.2678   18.5585 C   0  0  0  0  0  0  0  0  0  0  0  0
  -23.7957  -16.3878   16.6879 C   0  0  0  0  0  0  0  0  0  0  0  0
  -23.3263  -18.7856   16.1420 C   0  0  0  0  0  0  0  0  0  0  0  0
  -21.4446  -17.2402   16.6835 C   0  0  0  0  0  0  0  0  0  0  0  0
  -22.0764  -21.2868   22.1696 C   0  0  0  0  0  0  0  0  0  0  0  0
  -30.1043  -21.0198   17.7157 C   0  0  0  0  0  0  0  0  0  0  0  0
  -32.9065  -16.3427   21.1500 C   0  0  0  0  0  0  0  0  0  0  0  0
  -32.7912  -15.6618   19.7922 C   0  0  0  0  0  0  0  0  0  0  0  0
  -22.9906  -18.0059   18.5316 C   0  0  1  0  0  0  0  0  0  0  0  0
  -21.5626  -21.3082   19.7254 C   0  0  2  0  0  0  0  0  0  0  0  0
  -22.9054  -17.5980   17.0337 C   0  0  0  0  0  0  0  0  0  0  0  0
  -31.7574  -19.2918   20.6149 N   0  0  0  0  0  0  0  0  0  0  0  0
  -24.8275  -26.6147   20.6588 N   0  0  0  0  0  0  0  0  0  0  0  0
  -30.2526  -17.7310   19.5629 N   0  0  0  0  0  0  0  0  0  0  0  0
  -26.0337  -26.5585   20.0690 N   0  0  0  0  0  0  0  0  0  0  0  0
  -23.5999  -16.4562   20.3622 N   0  0  0  0  0  0  0  0  0  0  0  0
  -27.3136  -23.1211   19.0032 N   0  0  0  0  0  0  0  0  0  0  0  0
  -28.0974  -27.7051   19.8764 N   0  0  0  0  0  0  0  0  0  0  0  0
  -25.7120  -30.3176   22.6837 N   0  0  0  0  0  0  0  0  0  0  0  0
  -23.3691  -12.8996   20.5278 N   0  0  0  0  0  0  0  0  0  0  0  0
  -22.1371  -19.1324   18.8936 N   0  0  0  0  0  0  0  0  0  0  0  0
  -28.8045  -21.5965   17.9785 N   0  0  0  0  0  0  0  0  0  0  0  0
  -21.8994  -22.1024   20.9406 N   0  3  0  0  0  0  0  0  0  0  0  0
  -27.7202  -30.0987   21.5985 O   0  0  0  0  0  0  0  0  0  0  0  0
  -25.0448  -14.3211   19.7574 O   0  0  0  0  0  0  0  0  0  0  0  0
  -21.4829  -16.3870   19.3875 O   0  0  0  0  0  0  0  0  0  0  0  0
  -23.8378  -20.4965   19.6836 O   0  0  0  0  0  0  0  0  0  0  0  0
  -29.5889  -23.1706   19.4488 O   0  0  0  0  0  0  0  0  0  0  0  0
  -20.5132  -29.3692   24.4468 O   0  0  0  0  0  0  0  0  0  0  0  0
  -29.0287  -17.6434   23.0401 O   0  0  0  0  0  0  0  0  0  1  0  0
  -15.5157  -29.0912   22.1334 F   0  0  0  0  0  0  0  0  0  0  0  0
  -18.9604  -31.6369   24.1480 F   0  0  0  0  0  0  0  0  0  0  0  0
  1  2  1  0  0  0  0
  1  5  2  0  0  0  0
  2  6  2  0  0  0  0
  3  8  2  0  0  0  0
  3 16  1  0  0  0  0
  4  9  1  0  0  0  0
  4 16  2  0  0  0  0
  5 18  1  0  0  0  0
  6 20  1  0  0  0  0
  7 10  2  0  0  0  0
  7 19  1  0  0  0  0
  8 23  1  0  0  0  0
  9 23  2  0  0  0  0
 10 24  1  0  0  0  0
 11 12  2  0  0  0  0
 11 25  1  0  0  0  0
 12 26  1  0  0  0  0
 13 21  1  0  0  0  0
 13 24  2  0  0  0  0
 14 26  2  0  0  0  0
 14 27  1  0  0  0  0
 15 22  1  0  0  0  0
 15 66  2  0  0  0  0
 16 28  1  0  0  0  0
 17 28  1  0  0  0  0
 17 30  2  0  0  0  0
 17 32  1  0  0  0  0
 18 20  2  0  0  0  0
 18 37  1  0  0  0  0
 19 21  2  0  0  0  0
 19 38  1  0  0  0  0
 20 48  1  0  0  0  0
 21 39  1  0  0  0  0
 22 29  2  0  0  0  0
 22 60  1  0  0  0  0
 23 83  1  0  0  0  0
 24 84  1  0  0  0  0
 25 27  2  0  0  0  0
 25 83  1  0  0  0  0
 26 85  1  0  0  0  0
 27 86  1  0  0  0  0
 28 67  2  0  0  0  0
 29 53  1  0  0  0  0
 29 68  1  0  0  0  0
 30 69  1  0  0  0  0
 30 72  1  0  0  0  0
 31 52  1  0  0  0  0
 31 66  1  0  0  0  0
 31 68  2  0  0  0  0
 32 73  1  0  0  0  0
 32 78  2  0  0  0  0
 33 49  1  0  0  0  0
 33 74  1  0  0  0  0
 33 79  2  0  0  0  0
 34 63  1  0  0  0  0
 34 70  1  0  0  0  0
 34 80  2  0  0  0  0
 35 64  1  0  0  0  0
 35 75  1  0  0  0  0
 35 81  2  0  0  0  0
 36 71  1  0  0  0  0
 36 76  1  0  0  0  0
 36 82  2  0  0  0  0
 37 40  1  0  0  0  0
 38 49  1  0  0  0  0
 39 70  1  0  0  0  0
 40 42  1  0  0  0  0
 41 43  1  0  0  0  0
 41 46  1  0  0  0  0
 42 48  1  0  0  0  0
 43 50  1  0  0  0  0
 44 51  1  0  0  0  0
 44 52  1  0  0  0  0
 45 51  1  0  0  0  0
 45 52  1  0  0  0  0
 46 71  1  0  0  0  0
 47 50  1  0  0  0  0
 47 71  1  0  0  0  0
 48 74  1  0  0  0  0
 49 70  1  0  0  0  0
 50 69  1  0  0  0  0
 51 84  1  0  0  0  0
 52 61  1  0  0  0  0
 54 62  1  0  0  0  0
 55 64  1  0  0  0  0
 56 65  1  0  0  0  0
 57 65  1  0  0  0  0
 58 65  1  0  0  0  0
 59 77  1  0  0  0  0
 60 76  1  0  0  0  0
 61 62  1  0  0  0  0
 63 65  1  0  0  0  0
 63 75  1  0  0  0  0
 64 77  1  0  0  0  0
 67 69  1  0  0  0  0
M  CHG  1  77   1
M  ISO  4  36 100  51 101  76 100  84 101
M  END
> <Batch ID>
0177

> <Smiles>
CCCC1(c2ncc(C[100NH:0][100C:0](=O)N3CCCC(n4nc(-c5ccc(Oc6ccc(F)cc6F)cc5)c(C(N)=O)c4N)C3)c(C)n2)C[101CH:1]([101O:1]c2ccc3c(c2)CN(C(=O)C(NC(=O)C(C)NC)C(C)(C)C)C(C(=O)NC2CCCc4ccccc42)C3)C1

> <Shape>
0.234

> <Color>
0.076

> <Negative vol penalty>
0.000

$$$$

  -OEChem-04052322523D

 86 95  0     1  0  0  0  0  0999 V2000
  -19.7775  -23.7810   24.2100 C   0  0  0  0  0  0  0  0  0  0  0  0
  -21.0770  -24.2159   24.4445 C   0  0  0  0  0  0  0  0  0  0  0  0
  -25.9709  -15.1841   20.4458 C   0  0  0  0  0  0  0  0  0  0  0  0
  -28.2146  -14.2882   20.4671 C   0  0  0  0  0  0  0  0  0  0  0  0
  -18.8931  -24.5904   23.5001 C   0  0  0  0  0  0  0  0  0  0  0  0
  -21.4891  -25.4653   23.9795 C   0  0  0  0  0  0  0  0  0  0  0  0
  -25.9466  -27.0104   25.3746 C   0  0  0  0  0  0  0  0  0  0  0  0
  -25.4535  -13.8889   20.4619 C   0  0  0  0  0  0  0  0  0  0  0  0
  -27.6972  -12.9929   20.4833 C   0  0  0  0  0  0  0  0  0  0  0  0
  -27.1259  -26.4586   24.8759 C   0  0  0  0  0  0  0  0  0  0  0  0
  -24.9369  -11.4410   22.7365 C   0  0  0  0  0  0  0  0  0  0  0  0
  -23.8834  -11.1745   23.6110 C   0  0  0  0  0  0  0  0  0  0  0  0
  -27.4180  -28.3843   23.4527 C   0  0  0  0  0  0  0  0  0  0  0  0
  -26.4150  -23.6778   18.7453 C   0  0  0  0  0  0  0  0  0  0  0  0
  -27.0049  -24.4949   20.9335 C   0  0  0  0  0  0  0  0  0  0  0  0
  -22.4862  -10.5561   21.7395 C   0  0  0  0  0  0  0  0  0  0  0  0
  -27.3515  -15.3838   20.4484 C   0  0  0  0  0  0  0  0  0  0  0  0
  -28.1978  -17.5269   21.5431 C   0  0  0  0  0  0  0  0  0  0  0  0
  -19.2991  -25.8448   23.0158 C   0  0  0  0  0  0  0  0  0  0  0  0
  -25.4878  -28.2503   24.9074 C   0  0  0  0  0  0  0  0  0  0  0  0
  -20.6041  -26.3070   23.2817 C   0  0  0  0  0  0  0  0  0  0  0  0
  -26.2340  -28.9508   23.9489 C   0  0  0  0  0  0  0  0  0  0  0  0
  -26.0404  -24.2337   19.9649 C   0  0  0  0  0  0  0  0  0  0  0  0
  -26.3166  -12.7933   20.4806 C   0  0  0  0  0  0  0  0  0  0  0  0
  -27.8602  -27.1442   23.9127 C   0  0  0  0  0  0  0  0  0  0  0  0
  -24.7650  -11.2650   21.3634 C   0  0  0  0  0  0  0  0  0  0  0  0
  -22.6581  -10.7321   23.1125 C   0  0  0  0  0  0  0  0  0  0  0  0
  -23.5397  -10.8226   20.8650 C   0  0  0  0  0  0  0  0  0  0  0  0
  -27.8865  -16.7215   20.4312 C   0  0  0  0  0  0  0  0  0  0  0  0
  -27.7552  -23.3950   18.5232 C   0  0  0  0  0  0  0  0  0  0  0  0
  -28.3301  -24.1913   20.6560 C   0  0  0  0  0  0  0  0  0  0  0  0
  -28.6707  -18.6959   20.9987 C   0  0  0  0  0  0  0  0  0  0  0  0
  -28.0709  -17.2437   22.9429 C   0  0  0  0  0  0  0  0  0  0  0  0
  -28.2438  -22.8086   17.2685 C   0  0  0  0  0  0  0  0  0  0  0  0
  -22.8850  -29.2482   23.3798 C   0  0  0  0  0  0  0  0  0  0  0  0
  -24.1809  -32.1773   23.8931 C   0  0  0  0  0  0  0  0  0  0  0  0
  -26.9745  -34.0462   24.4848 C   0  0  0  0  0  0  0  0  0  0  0  0
  -18.2986  -26.6834   22.2601 C   0  0  0  0  0  0  0  0  0  0  0  0
  -24.2278  -28.8443   25.4749 C   0  0  0  0  0  0  0  0  0  0  0  0
  -25.7951  -30.2946   23.4292 C   0  0  0  0  0  0  0  0  0  0  0  0
  -18.9515  -27.7844   21.4308 C   0  0  0  0  0  0  0  0  0  0  0  0
  -29.9537  -19.8474   16.2442 C   0  0  0  0  0  0  0  0  0  0  0  0
  -19.9438  -28.5593   22.2849 C   0  0  0  0  0  0  0  0  0  0  0  0
  -29.5797  -18.8280   17.3218 C   0  0  0  0  0  0  0  0  0  0  0  0
  -31.4523  -25.5311   22.2738 C   0  0  0  0  0  0  0  0  0  0  0  0
  -28.7978  -20.7978   15.9421 C   0  0  0  0  0  0  0  0  0  0  0  0
  -27.8702  -20.4688   18.2084 C   0  0  0  0  0  0  0  0  0  0  0  0
  -21.0838  -27.6491   22.7591 C   0  0  1  0  0  0  0  0  0  0  0  0
  -29.4211  -24.4403   21.6390 C   0  0  2  0  0  0  0  0  0  0  0  0
  -23.5849  -29.8752   24.5523 C   0  0  1  0  0  0  0  0  0  0  0  0
  -29.0249  -19.5236   18.5790 C   0  0  1  0  0  0  0  0  0  0  0  0
  -31.6468  -24.0094   22.2529 C   0  0  2  0  0  0  0  0  0  0  0  0
  -30.1536  -25.7945   21.4824 C   0  0  2  0  0  0  0  0  0  0  0  0
  -32.9644  -23.5856   21.6227 C   0  0  0  0  0  0  0  0  0  0  0  0
  -30.5076  -26.1400   20.0198 C   0  0  0  0  0  0  0  0  0  0  0  0
  -27.7235  -36.4177   24.8201 C   0  0  0  0  0  0  0  0  0  0  0  0
  -23.9117  -32.6835   20.8962 C   0  0  0  0  0  0  0  0  0  0  0  0
  -25.5010  -34.6016   21.1481 C   0  0  0  0  0  0  0  0  0  0  0  0
  -23.3108  -34.6339   22.3417 C   0  0  0  0  0  0  0  0  0  0  0  0
  -24.2727  -25.5981   21.0780 C   0  0  0  0  0  0  0  0  0  0  0  0
  -27.9858  -33.4645   27.2047 C   0  0  0  0  0  0  0  0  0  0  0  0
  -29.3627  -26.9381   22.0808 C   0  0  0  0  0  0  0  0  0  1  0  0
  -25.1331  -33.0724   23.1374 C   0  0  1  0  0  0  0  0  0  0  0  0
  -27.2592  -35.1388   25.4995 C   0  0  2  0  0  0  0  0  0  0  0  0
  -24.4717  -33.7216   21.8890 C   0  0  0  0  0  0  0  0  0  0  0  0
  -28.1401  -17.3276   19.2683 N   0  0  0  0  0  0  0  0  0  0  0  0
  -28.6157  -18.5263   19.6465 N   0  0  0  0  0  0  0  0  0  0  0  0
  -28.6632  -23.6566   19.4733 N   0  3  0  0  0  0  0  0  0  0  0  0
  -30.5171  -23.4694   21.4891 N   0  0  0  0  0  0  0  0  0  0  0  0
  -28.3018  -21.4162   17.1709 N   0  0  0  0  0  0  0  0  0  0  0  0
  -24.5532  -30.8307   24.0105 N   0  0  0  0  0  0  0  0  0  0  0  0
  -29.1239  -19.8420   21.5495 N   0  0  0  0  0  0  0  0  0  0  0  0
  -27.5674  -15.9939   23.3287 N   0  0  0  0  0  0  0  0  0  0  0  0
  -24.6858  -24.5317   20.2188 N   0  0  0  0  0  0  0  0  0  0  0  0
  -21.8843  -28.3619   23.7301 N   0  0  0  0  0  0  0  0  0  0  0  0
  -25.6482  -34.0322   24.1078 N   0  0  0  0  0  0  0  0  0  0  0  0
  -28.3199  -34.6996   26.4498 N   0  3  0  0  0  0  0  0  0  0  0  0
  -28.3791  -18.0804   23.8252 O   0  0  0  0  0  0  0  0  0  0  0  0
  -28.5805  -23.6033   16.3921 O   0  0  0  0  0  0  0  0  0  0  0  0
  -23.2264  -29.5476   22.2416 O   0  0  0  0  0  0  0  0  0  0  0  0
  -23.1484  -32.6568   24.3680 O   0  0  0  0  0  0  0  0  0  0  0  0
  -27.8426  -33.2839   24.0655 O   0  0  0  0  0  0  0  0  0  0  0  0
  -25.8121  -11.5292   20.4966 O   0  0  0  0  0  0  0  0  0  0  0  0
  -29.0112  -26.6075   23.4237 O   0  0  0  0  0  0  0  0  0  1  0  0
  -21.6470  -10.4748   23.9526 F   0  0  0  0  0  0  0  0  0  0  0  0
  -23.3690  -10.6506   19.5470 F   0  0  0  0  0  0  0  0  0  0  0  0
  1  2  1  0  0  0  0
  1  5  2  0  0  0  0
  2  6  2  0  0  0  0
  3  8  2  0  0  0  0
  3 17  1  0  0  0  0
  4  9  1  0  0  0  0
  4 17  2  0  0  0  0
  5 19  1  0  0  0  0
  6 21  1  0  0  0  0
  7 10  2  0  0  0  0
  7 20  1  0  0  0  0
  8 24  1  0  0  0  0
  9 24  2  0  0  0  0
 10 25  1  0  0  0  0
 11 12  2  0  0  0  0
 11 26  1  0  0  0  0
 12 27  1  0  0  0  0
 13 22  1  0  0  0  0
 13 25  2  0  0  0  0
 14 23  2  0  0  0  0
 14 30  1  0  0  0  0
 15 23  1  0  0  0  0
 15 31  2  0  0  0  0
 16 27  2  0  0  0  0
 16 28  1  0  0  0  0
 17 29  1  0  0  0  0
 18 29  1  0  0  0  0
 18 32  2  0  0  0  0
 18 33  1  0  0  0  0
 19 21  2  0  0  0  0
 19 38  1  0  0  0  0
 20 22  2  0  0  0  0
 20 39  1  0  0  0  0
 21 48  1  0  0  0  0
 22 40  1  0  0  0  0
 23 74  1  0  0  0  0
 24 83  1  0  0  0  0
 25 84  1  0  0  0  0
 26 28  2  0  0  0  0
 26 83  1  0  0  0  0
 27 85  1  0  0  0  0
 28 86  1  0  0  0  0
 29 66  2  0  0  0  0
 30 34  1  0  0  0  0
 30 68  2  0  0  0  0
 31 49  1  0  0  0  0
 31 68  1  0  0  0  0
 32 67  1  0  0  0  0
 32 72  1  0  0  0  0
 33 73  1  0  0  0  0
 33 78  2  0  0  0  0
 34 70  1  0  0  0  0
 34 79  2  0  0  0  0
 35 50  1  0  0  0  0
 35 75  1  0  0  0  0
 35 80  2  0  0  0  0
 36 63  1  0  0  0  0
 36 71  1  0  0  0  0
 36 81  2  0  0  0  0
 37 64  1  0  0  0  0
 37 76  1  0  0  0  0
 37 82  2  0  0  0  0
 38 41  1  0  0  0  0
 39 50  1  0  0  0  0
 40 71  1  0  0  0  0
 41 43  1  0  0  0  0
 42 44  1  0  0  0  0
 42 46  1  0  0  0  0
 43 48  1  0  0  0  0
 44 51  1  0  0  0  0
 45 52  1  0  0  0  0
 45 53  1  0  0  0  0
 46 70  1  0  0  0  0
 47 51  1  0  0  0  0
 47 70  1  0  0  0  0
 48 75  1  0  0  0  0
 49 53  1  0  0  0  0
 49 69  1  0  0  0  0
 50 71  1  0  0  0  0
 51 67  1  0  0  0  0
 52 54  1  0  0  0  0
 52 69  1  0  0  0  0
 53 55  1  0  0  0  0
 53 62  1  0  0  0  0
 56 64  1  0  0  0  0
 57 65  1  0  0  0  0
 58 65  1  0  0  0  0
 59 65  1  0  0  0  0
 60 74  1  0  0  0  0
 61 77  1  0  0  0  0
 62 84  1  0  0  0  0
 63 65  1  0  0  0  0
 63 76  1  0  0  0  0
 64 77  1  0  0  0  0
 66 67  1  0  0  0  0
M  CHG  2  68   1  77   1
M  ISO  4  30 100  34 100  62 101  84 101
M  END
> <Batch ID>
0177

> <Smiles>
CNc1cc(C2NC(C)CC2(C)[101CH2:1][101O:1]c2ccc3c(c2)CN(C(=O)C(NC(=O)C(C)NC)C(C)(C)C)C(C(=O)NC2CCCc4ccccc42)C3)n[100c:0]([100C:0](=O)N2CCCC(n3nc(-c4ccc(Oc5ccc(F)cc5F)cc4)c(C(N)=O)c3N)C2)c1

> <Shape>
0.248

> <Color>
0.062

> <Negative vol penalty>
0.000

$$$$

  -OEChem-04052322523D

 88 97  0     1  0  0  0  0  0999 V2000
  -25.7164  -35.3407   23.1718 C   0  0  0  0  0  0  0  0  0  0  0  0
  -26.3152  -34.1027   22.9612 C   0  0  0  0  0  0  0  0  0  0  0  0
  -22.2381  -16.3974   21.5699 C   0  0  0  0  0  0  0  0  0  0  0  0
  -24.3637  -15.2718   21.7972 C   0  0  0  0  0  0  0  0  0  0  0  0
  -24.4056  -35.4088   23.6417 C   0  0  0  0  0  0  0  0  0  0  0  0
  -25.6036  -32.9321   23.2216 C   0  0  0  0  0  0  0  0  0  0  0  0
  -26.1269  -29.4835   19.5502 C   0  0  0  0  0  0  0  0  0  0  0  0
  -21.6527  -15.2057   21.1425 C   0  0  0  0  0  0  0  0  0  0  0  0
  -23.7783  -14.0800   21.3698 C   0  0  0  0  0  0  0  0  0  0  0  0
  -27.3123  -28.7499   19.5300 C   0  0  0  0  0  0  0  0  0  0  0  0
  -21.8413  -11.6451   22.6888 C   0  0  0  0  0  0  0  0  0  0  0  0
  -22.1431  -10.4846   23.4013 C   0  0  0  0  0  0  0  0  0  0  0  0
  -26.1812  -26.9041   20.5943 C   0  0  0  0  0  0  0  0  0  0  0  0
  -23.0652   -9.4953   21.3993 C   0  0  0  0  0  0  0  0  0  0  0  0
  -23.5936  -16.4305   21.8972 C   0  0  0  0  0  0  0  0  0  0  0  0
  -24.3059  -18.1299   23.6614 C   0  0  0  0  0  0  0  0  0  0  0  0
  -23.6743  -34.2384   23.8988 C   0  0  0  0  0  0  0  0  0  0  0  0
  -24.9604  -28.9361   20.1035 C   0  0  0  0  0  0  0  0  0  0  0  0
  -24.2822  -32.9846   23.6966 C   0  0  0  0  0  0  0  0  0  0  0  0
  -24.9816  -27.6319   20.6181 C   0  0  0  0  0  0  0  0  0  0  0  0
  -22.4227  -14.0470   21.0425 C   0  0  0  0  0  0  0  0  0  0  0  0
  -27.3403  -27.4611   20.0547 C   0  0  0  0  0  0  0  0  0  0  0  0
  -22.1513  -11.7308   21.3315 C   0  0  0  0  0  0  0  0  0  0  0  0
  -22.7551   -9.4097   22.7566 C   0  0  0  0  0  0  0  0  0  0  0  0
  -22.7634  -10.6559   20.6868 C   0  0  0  0  0  0  0  0  0  0  0  0
  -24.1991  -17.6614   22.3382 C   0  0  0  0  0  0  0  0  0  0  0  0
  -24.9567  -19.3341   23.5478 C   0  0  0  0  0  0  0  0  0  0  0  0
  -23.8571  -17.5301   24.8839 C   0  0  0  0  0  0  0  0  0  0  0  0
  -23.0612  -29.6959   22.5364 C   0  0  0  0  0  0  0  0  0  0  0  0
  -21.2496  -27.2697   21.3727 C   0  0  0  0  0  0  0  0  0  0  0  0
  -21.0927  -24.3837   19.5579 C   0  0  0  0  0  0  0  0  0  0  0  0
  -28.6981  -21.4149   19.4825 C   0  0  0  0  0  0  0  0  0  0  0  0
  -22.2762  -34.3624   24.4507 C   0  0  0  0  0  0  0  0  0  0  0  0
  -23.6831  -29.7304   20.0935 C   0  0  0  0  0  0  0  0  0  0  0  0
  -23.7515  -26.9909   21.2050 C   0  0  0  0  0  0  0  0  0  0  0  0
  -21.4634  -33.0746   24.3456 C   0  0  0  0  0  0  0  0  0  0  0  0
  -25.5959  -22.9729   20.5052 C   0  0  0  0  0  0  0  0  0  0  0  0
  -22.2891  -31.8822   24.8181 C   0  0  0  0  0  0  0  0  0  0  0  0
  -24.8966  -21.8165   21.2220 C   0  0  0  0  0  0  0  0  0  0  0  0
  -32.5131  -22.8072   16.8904 C   0  0  0  0  0  0  0  0  0  0  0  0
  -32.8013  -23.9930   19.1671 C   0  0  0  0  0  0  0  0  0  0  0  0
  -26.3703  -22.4803   19.2862 C   0  0  0  0  0  0  0  0  0  0  0  0
  -26.6664  -20.2515   20.2953 C   0  0  0  0  0  0  0  0  0  0  0  0
  -30.7663  -25.3730   17.3426 C   0  0  0  0  0  0  0  0  0  0  0  0
  -23.5345  -31.6924   23.9439 C   0  0  1  0  0  0  0  0  0  0  0  0
  -22.6825  -29.2660   21.1474 C   0  0  1  0  0  0  0  0  0  0  0  0
  -30.3094  -24.1350   16.5621 C   0  0  2  0  0  0  0  0  0  0  0  0
  -25.8844  -20.6812   21.5499 C   0  0  2  0  0  0  0  0  0  0  0  0
  -30.6396  -22.6992   18.6231 C   0  0  1  0  0  0  0  0  0  0  0  0
  -30.9632  -22.8139   17.1091 C   0  0  2  0  0  0  0  0  0  0  0  0
  -33.4205  -23.0287   18.1284 C   0  0  0  0  0  0  0  0  0  0  0  0
  -31.2663  -23.8906   19.3866 C   0  0  1  0  0  0  0  0  0  0  0  0
  -30.4874  -24.3879   15.0577 C   0  0  0  0  0  0  0  0  0  0  0  0
  -30.3744  -21.5943   16.3598 C   0  0  0  0  0  0  0  0  0  0  0  0
  -33.7879  -21.6793   18.7901 C   0  0  0  0  0  0  0  0  0  0  0  0
  -34.7613  -23.6351   17.6434 C   0  0  0  0  0  0  0  0  0  0  0  0
  -31.5969  -22.5664   21.4808 C   0  0  0  0  0  0  0  0  0  0  0  0
  -19.4816  -22.6087   18.8155 C   0  0  0  0  0  0  0  0  0  0  0  0
  -21.3028  -26.0545   24.1710 C   0  0  0  0  0  0  0  0  0  0  0  0
  -20.5302  -23.8930   23.1713 C   0  0  0  0  0  0  0  0  0  0  0  0
  -19.0874  -25.9222   23.0181 C   0  0  0  0  0  0  0  0  0  0  0  0
  -21.5552  -24.9960   16.6996 C   0  0  0  0  0  0  0  0  0  0  0  0
  -30.9572  -23.7745   20.8929 C   0  0  0  0  0  0  0  0  0  0  0  0
  -30.8448  -26.4541   19.5858 C   0  0  0  0  0  0  0  0  0  0  0  0
  -29.6427  -27.3699   19.4660 C   0  0  0  0  0  0  0  0  0  1  0  0
  -21.1802  -25.7799   21.6067 C   0  0  1  0  0  0  0  0  0  0  0  0
  -20.1424  -23.9325   18.4635 C   0  0  2  0  0  0  0  0  0  0  0  0
  -20.5490  -25.4249   22.9825 C   0  0  0  0  0  0  0  0  0  0  0  0
  -24.7386  -18.4997   21.4492 N   0  0  0  0  0  0  0  0  0  0  0  0
  -25.1907  -19.5071   22.2153 N   0  0  0  0  0  0  0  0  0  0  0  0
  -22.5286  -27.8102   21.1780 N   0  0  0  0  0  0  0  0  0  0  0  0
  -27.3059  -21.4138   19.6698 N   0  0  0  0  0  0  0  0  0  0  0  0
  -25.3458  -20.2512   24.4587 N   0  0  0  0  0  0  0  0  0  0  0  0
  -23.2065  -16.2904   24.8204 N   0  0  0  0  0  0  0  0  0  0  0  0
  -23.1803  -31.0641   22.6892 N   0  0  0  0  0  0  0  0  0  0  0  0
  -20.4711  -25.2195   20.4615 N   0  0  0  0  0  0  0  0  0  0  0  0
  -29.2239  -22.5497   18.8770 N   0  0  0  0  0  0  0  0  0  0  0  0
  -30.5710  -25.1697   18.8345 N   0  3  1  0  0  0  0  0  0  0  0  0
  -20.8761  -23.7641   17.1773 N   0  3  0  0  0  0  0  0  0  0  0  0
  -24.0133  -18.0851   25.9979 O   0  0  0  0  0  0  0  0  0  0  0  0
  -23.2311  -28.8490   23.4057 O   0  0  0  0  0  0  0  0  0  0  0  0
  -20.2068  -27.9285   21.3560 O   0  0  0  0  0  0  0  0  0  0  0  0
  -22.2678  -24.0273   19.6085 O   0  0  0  0  0  0  0  0  0  0  0  0
  -29.4205  -20.4759   19.8338 O   0  0  0  0  0  0  0  0  0  0  0  0
  -21.8518  -12.8839   20.6257 O   0  0  0  0  0  0  0  0  0  0  0  0
  -28.5045  -26.7380   20.0366 O   0  0  0  0  0  0  0  0  0  1  0  0
  -23.0463   -8.2959   23.4413 F   0  0  0  0  0  0  0  0  0  0  0  0
  -23.0647  -10.7327   19.3833 F   0  0  0  0  0  0  0  0  0  0  0  0
  1  2  1  0  0  0  0
  1  5  2  0  0  0  0
  2  6  2  0  0  0  0
  3  8  2  0  0  0  0
  3 15  1  0  0  0  0
  4  9  1  0  0  0  0
  4 15  2  0  0  0  0
  5 17  1  0  0  0  0
  6 19  1  0  0  0  0
  7 10  2  0  0  0  0
  7 18  1  0  0  0  0
  8 21  1  0  0  0  0
  9 21  2  0  0  0  0
 10 22  1  0  0  0  0
 11 12  2  0  0  0  0
 11 23  1  0  0  0  0
 12 24  1  0  0  0  0
 13 20  1  0  0  0  0
 13 22  2  0  0  0  0
 14 24  2  0  0  0  0
 14 25  1  0  0  0  0
 15 26  1  0  0  0  0
 16 26  1  0  0  0  0
 16 27  2  0  0  0  0
 16 28  1  0  0  0  0
 17 19  2  0  0  0  0
 17 33  1  0  0  0  0
 18 20  2  0  0  0  0
 18 34  1  0  0  0  0
 19 45  1  0  0  0  0
 20 35  1  0  0  0  0
 21 85  1  0  0  0  0
 22 86  1  0  0  0  0
 23 25  2  0  0  0  0
 23 85  1  0  0  0  0
 24 87  1  0  0  0  0
 25 88  1  0  0  0  0
 26 69  2  0  0  0  0
 27 70  1  0  0  0  0
 27 73  1  0  0  0  0
 28 74  1  0  0  0  0
 28 80  2  0  0  0  0
 29 46  1  0  0  0  0
 29 75  1  0  0  0  0
 29 81  2  0  0  0  0
 30 66  1  0  0  0  0
 30 71  1  0  0  0  0
 30 82  2  0  0  0  0
 31 67  1  0  0  0  0
 31 76  1  0  0  0  0
 31 83  2  0  0  0  0
 32 72  1  0  0  0  0
 32 77  1  0  0  0  0
 32 84  2  0  0  0  0
 33 36  1  0  0  0  0
 34 46  1  0  0  0  0
 35 71  1  0  0  0  0
 36 38  1  0  0  0  0
 37 39  1  0  0  0  0
 37 42  1  0  0  0  0
 38 45  1  0  0  0  0
 39 48  1  0  0  0  0
 40 50  1  0  0  0  0
 40 51  1  0  0  0  0
 41 51  1  0  0  0  0
 41 52  1  0  0  0  0
 42 72  1  0  0  0  0
 43 48  1  0  0  0  0
 43 72  1  0  0  0  0
 44 47  1  0  0  0  0
 44 78  1  0  0  0  0
 45 75  1  0  0  0  0
 46 71  1  0  0  0  0
 47 50  1  0  0  0  0
 47 53  1  0  0  0  0
 48 70  1  0  0  0  0
 49 50  1  0  0  0  0
 49 52  1  0  0  0  0
 49 77  1  0  0  0  0
 50 54  1  0  0  0  0
 51 55  1  0  0  0  0
 51 56  1  0  0  0  0
 52 63  1  0  0  0  0
 52 78  1  0  0  0  0
 57 63  1  0  0  0  0
 58 67  1  0  0  0  0
 59 68  1  0  0  0  0
 60 68  1  0  0  0  0
 61 68  1  0  0  0  0
 62 79  1  0  0  0  0
 64 65  1  0  0  0  0
 64 78  1  0  0  0  0
 65 86  1  0  0  0  0
 66 68  1  0  0  0  0
 66 76  1  0  0  0  0
 67 79  1  0  0  0  0
 69 70  1  0  0  0  0
M  CHG  2  78   1  79   1
M  ISO  4  32 100  65 101  77 100  86 101
M  END
> <Batch ID>
0177

> <Smiles>
CCC12CC(C)(C)CC(C)(C(C)CN1C[101CH2:1][101O:1]c1ccc3c(c1)CN(C(=O)C(NC(=O)C(C)NC)C(C)(C)C)C(C(=O)NC1CCCc4ccccc41)C3)C2[100NH:0][100C:0](=O)N1CCCC(n2nc(-c3ccc(Oc4ccc(F)cc4F)cc3)c(C(N)=O)c2N)C1

> <Shape>
0.237

> <Color>
0.073

> <Negative vol penalty>
0.000

$$$$

  -OEChem-04052322523D

 83 92  0     1  0  0  0  0  0999 V2000
  -30.1296  -35.1630   21.1899 C   0  0  0  0  0  0  0  0  0  0  0  0
  -30.4169  -33.9736   20.5280 C   0  0  0  0  0  0  0  0  0  0  0  0
  -23.6885  -10.2879   22.0273 C   0  0  0  0  0  0  0  0  0  0  0  0
  -25.0263   -8.2765   22.0708 C   0  0  0  0  0  0  0  0  0  0  0  0
  -29.3104  -35.1513   22.3181 C   0  0  0  0  0  0  0  0  0  0  0  0
  -29.8861  -32.7716   20.9946 C   0  0  0  0  0  0  0  0  0  0  0  0
  -27.5214  -26.4293   18.6493 C   0  0  0  0  0  0  0  0  0  0  0  0
  -22.5367   -9.5183   21.8642 C   0  0  0  0  0  0  0  0  0  0  0  0
  -23.8745   -7.5069   21.9078 C   0  0  0  0  0  0  0  0  0  0  0  0
  -27.7052  -25.0643   18.8655 C   0  0  0  0  0  0  0  0  0  0  0  0
  -21.2474   -4.9940   21.8647 C   0  0  0  0  0  0  0  0  0  0  0  0
  -21.1015   -3.8648   22.6705 C   0  0  0  0  0  0  0  0  0  0  0  0
  -27.0915  -18.8662   19.9476 C   0  0  0  0  0  0  0  0  0  0  0  0
  -26.2384  -25.1756   20.7773 C   0  0  0  0  0  0  0  0  0  0  0  0
  -21.1846   -5.2603   24.6410 C   0  0  0  0  0  0  0  0  0  0  0  0
  -24.9333   -9.6670   22.1305 C   0  0  0  0  0  0  0  0  0  0  0  0
  -26.7057  -10.8747   23.5117 C   0  0  0  0  0  0  0  0  0  0  0  0
  -28.7615  -33.9498   22.7931 C   0  0  0  0  0  0  0  0  0  0  0  0
  -26.7019  -27.1812   19.5035 C   0  0  0  0  0  0  0  0  0  0  0  0
  -29.0599  -32.7436   22.1310 C   0  0  0  0  0  0  0  0  0  0  0  0
  -28.3369  -18.3158   20.2674 C   0  0  0  0  0  0  0  0  0  0  0  0
  -26.0438  -26.5494   20.5684 C   0  0  0  0  0  0  0  0  0  0  0  0
  -26.9868  -20.2086   19.6091 C   0  0  0  0  0  0  0  0  0  0  0  0
  -22.6296   -8.1278   21.8045 C   0  0  0  0  0  0  0  0  0  0  0  0
  -27.0660  -24.4378   19.9313 C   0  0  0  0  0  0  0  0  0  0  0  0
  -21.3619   -6.2563   22.4470 C   0  0  0  0  0  0  0  0  0  0  0  0
  -21.0701   -3.9980   24.0587 C   0  0  0  0  0  0  0  0  0  0  0  0
  -21.3305   -6.3895   23.8352 C   0  0  0  0  0  0  0  0  0  0  0  0
  -26.1236  -10.4615   22.2984 C   0  0  0  0  0  0  0  0  0  0  0  0
  -29.4504  -19.1654   20.2610 C   0  0  0  0  0  0  0  0  0  0  0  0
  -28.1445  -20.9626   19.6035 C   0  0  0  0  0  0  0  0  0  0  0  0
  -27.8094  -11.5996   23.1337 C   0  0  0  0  0  0  0  0  0  0  0  0
  -26.2864  -10.6255   24.8600 C   0  0  0  0  0  0  0  0  0  0  0  0
  -27.1613  -29.6461   21.4571 C   0  0  0  0  0  0  0  0  0  0  0  0
  -23.9341  -29.5107   21.7552 C   0  0  0  0  0  0  0  0  0  0  0  0
  -21.0804  -27.6510   21.5428 C   0  0  0  0  0  0  0  0  0  0  0  0
  -30.3274  -15.3115   19.9454 C   0  0  0  0  0  0  0  0  0  0  0  0
  -27.9198  -33.9808   24.0442 C   0  0  0  0  0  0  0  0  0  0  0  0
  -26.4927  -28.6473   19.2410 C   0  0  0  0  0  0  0  0  0  0  0  0
  -28.4340  -16.8571   20.6377 C   0  0  0  0  0  0  0  0  0  0  0  0
  -25.1375  -27.3077   21.5023 C   0  0  0  0  0  0  0  0  0  0  0  0
  -27.0934  -32.7146   24.2539 C   0  0  0  0  0  0  0  0  0  0  0  0
  -30.0465  -12.1071   18.6356 C   0  0  0  0  0  0  0  0  0  0  0  0
  -27.9517  -31.4736   24.0296 C   0  0  0  0  0  0  0  0  0  0  0  0
  -29.0461  -11.4168   19.5615 C   0  0  0  0  0  0  0  0  0  0  0  0
  -29.6277  -13.5459   18.3582 C   0  0  0  0  0  0  0  0  0  0  0  0
  -30.7485  -17.3024   21.3529 C   0  0  0  0  0  0  0  0  0  0  0  0
  -28.4606  -13.6944   20.5350 C   0  0  0  0  0  0  0  0  0  0  0  0
  -28.4829  -31.4227   22.5920 C   0  0  1  0  0  0  0  0  0  0  0  0
  -30.8335  -18.6212   20.5731 C   0  0  2  0  0  0  0  0  0  0  0  0
  -26.0440  -29.4179   20.4788 C   0  0  1  0  0  0  0  0  0  0  0  0
  -28.8349  -12.2315   20.8495 C   0  0  1  0  0  0  0  0  0  0  0  0
  -25.6595  -20.7899   19.2651 C   0  0  0  0  0  0  0  0  0  0  0  0
  -31.6908  -19.6196   21.3559 C   0  0  0  0  0  0  0  0  0  0  0  0
  -18.5990  -27.8049   21.8835 C   0  0  0  0  0  0  0  0  0  0  0  0
  -24.3437  -29.3865   24.7763 C   0  0  0  0  0  0  0  0  0  0  0  0
  -21.9779  -28.5968   24.9944 C   0  0  0  0  0  0  0  0  0  0  0  0
  -22.4553  -30.8510   24.0389 C   0  0  0  0  0  0  0  0  0  0  0  0
  -20.5343  -27.0131   18.7049 C   0  0  0  0  0  0  0  0  0  0  0  0
  -28.0989  -22.4103   19.2396 C   0  0  0  0  0  0  0  0  0  1  0  0
  -22.9743  -28.7894   22.6705 C   0  0  1  0  0  0  0  0  0  0  0  0
  -19.7407  -27.9333   20.8872 C   0  0  2  0  0  0  0  0  0  0  0  0
  -22.9563  -29.3917   24.1038 C   0  0  0  0  0  0  0  0  0  0  0  0
  -26.8013  -10.8885   21.2296 N   0  0  0  0  0  0  0  0  0  0  0  0
  -29.3659  -20.4750   19.9134 N   0  0  0  0  0  0  0  0  0  0  0  0
  -27.8206  -11.5777   21.7701 N   0  0  0  0  0  0  0  0  0  0  0  0
  -24.9699  -28.7404   21.2078 N   0  0  0  0  0  0  0  0  0  0  0  0
  -29.8226  -16.3833   20.6969 N   0  0  0  0  0  0  0  0  0  0  0  0
  -29.4301  -14.2895   19.6028 N   0  0  0  0  0  0  0  0  0  0  0  0
  -28.7616  -12.2473   23.8381 N   0  0  0  0  0  0  0  0  0  0  0  0
  -25.1300   -9.8618   25.0697 N   0  0  0  0  0  0  0  0  0  0  0  0
  -27.4458  -30.9790   21.6854 N   0  0  0  0  0  0  0  0  0  0  0  0
  -21.6793  -28.8063   21.9989 N   0  0  0  0  0  0  0  0  0  0  0  0
  -19.4991  -26.9771   19.7699 N   0  3  0  0  0  0  0  0  0  0  0  0
  -26.9092  -11.0807   25.8491 O   0  0  0  0  0  0  0  0  0  0  0  0
  -27.7228  -28.6842   21.9682 O   0  0  0  0  0  0  0  0  0  0  0  0
  -23.7666  -30.7116   21.5285 O   0  0  0  0  0  0  0  0  0  0  0  0
  -21.5472  -26.5186   21.6438 O   0  0  0  0  0  0  0  0  0  0  0  0
  -31.5132  -15.2739   19.5925 O   0  0  0  0  0  0  0  0  0  0  0  0
  -21.5059   -7.3765   21.6456 O   0  0  0  0  0  0  0  0  0  0  0  0
  -27.2456  -23.0962   20.1464 O   0  0  0  0  0  0  0  0  0  1  0  0
  -20.9285   -2.9137   24.8323 F   0  0  0  0  0  0  0  0  0  0  0  0
  -21.4389   -7.5997   24.4003 F   0  0  0  0  0  0  0  0  0  0  0  0
  1  2  1  0  0  0  0
  1  5  2  0  0  0  0
  2  6  2  0  0  0  0
  3  8  2  0  0  0  0
  3 16  1  0  0  0  0
  4  9  1  0  0  0  0
  4 16  2  0  0  0  0
  5 18  1  0  0  0  0
  6 20  1  0  0  0  0
  7 10  2  0  0  0  0
  7 19  1  0  0  0  0
  8 24  1  0  0  0  0
  9 24  2  0  0  0  0
 10 25  1  0  0  0  0
 11 12  2  0  0  0  0
 11 26  1  0  0  0  0
 12 27  1  0  0  0  0
 13 21  2  0  0  0  0
 13 23  1  0  0  0  0
 14 22  1  0  0  0  0
 14 25  2  0  0  0  0
 15 27  2  0  0  0  0
 15 28  1  0  0  0  0
 16 29  1  0  0  0  0
 17 29  1  0  0  0  0
 17 32  2  0  0  0  0
 17 33  1  0  0  0  0
 18 20  2  0  0  0  0
 18 38  1  0  0  0  0
 19 22  2  0  0  0  0
 19 39  1  0  0  0  0
 20 49  1  0  0  0  0
 21 30  1  0  0  0  0
 21 40  1  0  0  0  0
 22 41  1  0  0  0  0
 23 31  2  0  0  0  0
 23 53  1  0  0  0  0
 24 80  1  0  0  0  0
 25 81  1  0  0  0  0
 26 28  2  0  0  0  0
 26 80  1  0  0  0  0
 27 82  1  0  0  0  0
 28 83  1  0  0  0  0
 29 64  2  0  0  0  0
 30 50  1  0  0  0  0
 30 65  2  0  0  0  0
 31 60  1  0  0  0  0
 31 65  1  0  0  0  0
 32 66  1  0  0  0  0
 32 70  1  0  0  0  0
 33 71  1  0  0  0  0
 33 75  2  0  0  0  0
 34 51  1  0  0  0  0
 34 72  1  0  0  0  0
 34 76  2  0  0  0  0
 35 61  1  0  0  0  0
 35 67  1  0  0  0  0
 35 77  2  0  0  0  0
 36 62  1  0  0  0  0
 36 73  1  0  0  0  0
 36 78  2  0  0  0  0
 37 68  1  0  0  0  0
 37 69  1  0  0  0  0
 37 79  2  0  0  0  0
 38 42  1  0  0  0  0
 39 51  1  0  0  0  0
 40 68  1  0  0  0  0
 41 67  1  0  0  0  0
 42 44  1  0  0  0  0
 43 45  1  0  0  0  0
 43 46  1  0  0  0  0
 44 49  1  0  0  0  0
 45 52  1  0  0  0  0
 46 69  1  0  0  0  0
 47 50  1  0  0  0  0
 47 68  1  0  0  0  0
 48 52  1  0  0  0  0
 48 69  1  0  0  0  0
 49 72  1  0  0  0  0
 50 54  1  0  0  0  0
 51 67  1  0  0  0  0
 52 66  1  0  0  0  0
 55 62  1  0  0  0  0
 56 63  1  0  0  0  0
 57 63  1  0  0  0  0
 58 63  1  0  0  0  0
 59 74  1  0  0  0  0
 60 81  1  0  0  0  0
 61 63  1  0  0  0  0
 61 73  1  0  0  0  0
 62 74  1  0  0  0  0
 64 66  1  0  0  0  0
M  CHG  1  74   1
M  ISO  4  37 100  60 101  68 100  81 101
M  END
> <Batch ID>
0177

> <Smiles>
CNC(C)C(=O)NC(C(=O)N1Cc2cc([101O:1][101CH2:1]c3nc4c(cc3C)C[100N:0]([100C:0](=O)N3CCCC(n5nc(-c6ccc(Oc7ccc(F)cc7F)cc6)c(C(N)=O)c5N)C3)CC4C)ccc2CC1C(=O)NC1CCCc2ccccc21)C(C)(C)C

> <Shape>
0.301

> <Color>
0.120

> <Negative vol penalty>
0.000

$$$$

  -OEChem-04052322523D

 86 95  0     1  0  0  0  0  0999 V2000
  -29.8158  -30.8842   25.8003 C   0  0  0  0  0  0  0  0  0  0  0  0
  -29.3641  -29.7459   25.1402 C   0  0  0  0  0  0  0  0  0  0  0  0
  -26.6113   -6.5119   21.7550 C   0  0  0  0  0  0  0  0  0  0  0  0
  -25.8782   -7.2010   23.9516 C   0  0  0  0  0  0  0  0  0  0  0  0
  -28.9067  -31.8602   26.2062 C   0  0  0  0  0  0  0  0  0  0  0  0
  -28.0027  -29.5825   24.8866 C   0  0  0  0  0  0  0  0  0  0  0  0
  -27.0837  -27.9755   20.1730 C   0  0  0  0  0  0  0  0  0  0  0  0
  -27.4477   -5.5574   22.3336 C   0  0  0  0  0  0  0  0  0  0  0  0
  -26.7146   -6.2464   24.5302 C   0  0  0  0  0  0  0  0  0  0  0  0
  -27.2878  -26.6215   19.9108 C   0  0  0  0  0  0  0  0  0  0  0  0
  -26.6823   -2.9114   25.0753 C   0  0  0  0  0  0  0  0  0  0  0  0
  -26.1574   -2.1310   26.1054 C   0  0  0  0  0  0  0  0  0  0  0  0
  -24.9156  -26.2316   20.1104 C   0  0  0  0  0  0  0  0  0  0  0  0
  -27.8592   -2.9646   27.6041 C   0  0  0  0  0  0  0  0  0  0  0  0
  -25.8266   -7.3338   22.5640 C   0  0  0  0  0  0  0  0  0  0  0  0
  -23.6220   -8.1498   21.5733 C   0  0  0  0  0  0  0  0  0  0  0  0
  -27.5345  -31.7132   25.9489 C   0  0  0  0  0  0  0  0  0  0  0  0
  -25.7931  -28.4666   20.4171 C   0  0  0  0  0  0  0  0  0  0  0  0
  -27.0742  -30.5568   25.2907 C   0  0  0  0  0  0  0  0  0  0  0  0
  -24.6975  -27.5927   20.3730 C   0  0  0  0  0  0  0  0  0  0  0  0
  -27.4994   -5.4245   23.7212 C   0  0  0  0  0  0  0  0  0  0  0  0
  -26.2039  -25.7488   19.8823 C   0  0  0  0  0  0  0  0  0  0  0  0
  -27.7958   -3.7183   25.3096 C   0  0  0  0  0  0  0  0  0  0  0  0
  -26.7458   -2.1577   27.3698 C   0  0  0  0  0  0  0  0  0  0  0  0
  -28.3842   -3.7449   26.5740 C   0  0  0  0  0  0  0  0  0  0  0  0
  -24.9628   -8.3205   21.9670 C   0  0  0  0  0  0  0  0  0  0  0  0
  -23.2543   -9.3729   21.0678 C   0  0  0  0  0  0  0  0  0  0  0  0
  -29.1694  -20.0979   18.8733 C   0  0  0  0  0  0  0  0  0  0  0  0
  -22.7839   -6.9896   21.6570 C   0  0  0  0  0  0  0  0  0  0  0  0
  -24.3606  -29.8857   22.8743 C   0  0  0  0  0  0  0  0  0  0  0  0
  -21.9065  -30.1769   20.7732 C   0  0  0  0  0  0  0  0  0  0  0  0
  -20.3513  -29.0343   17.9584 C   0  0  0  0  0  0  0  0  0  0  0  0
  -27.1381  -13.7267   19.0819 C   0  0  0  0  0  0  0  0  0  0  0  0
  -26.5846  -32.7726   26.4488 C   0  0  0  0  0  0  0  0  0  0  0  0
  -25.5867  -29.9346   20.6720 C   0  0  0  0  0  0  0  0  0  0  0  0
  -23.2897  -28.0733   20.6083 C   0  0  0  0  0  0  0  0  0  0  0  0
  -29.6202  -21.3298   19.6390 C   0  0  0  0  0  0  0  0  0  0  0  0
  -25.2002  -32.7001   25.8095 C   0  0  0  0  0  0  0  0  0  0  0  0
  -24.6356  -13.9695   21.7871 C   0  0  0  0  0  0  0  0  0  0  0  0
  -24.6899  -31.2627   25.8031 C   0  0  0  0  0  0  0  0  0  0  0  0
  -24.0120  -12.5758   21.8890 C   0  0  0  0  0  0  0  0  0  0  0  0
  -28.4988  -20.5028   21.6844 C   0  0  0  0  0  0  0  0  0  0  0  0
  -26.7121  -17.4149   19.4687 C   0  0  0  0  0  0  0  0  0  0  0  0
  -25.0225  -14.3250   20.3558 C   0  0  0  0  0  0  0  0  0  0  0  0
  -27.8404  -19.3887   20.8910 C   0  0  0  0  0  0  0  0  0  0  0  0
  -26.3143  -16.0985   18.8092 C   0  0  0  0  0  0  0  0  0  0  0  0
  -28.6746  -15.5257   18.3750 C   0  0  0  0  0  0  0  0  0  0  0  0
  -25.8958  -11.9817   20.2946 C   0  0  0  0  0  0  0  0  0  0  0  0
  -25.6079  -30.3550   24.9755 C   0  0  1  0  0  0  0  0  0  0  0  0
  -24.2886  -30.2353   21.4148 C   0  0  1  0  0  0  0  0  0  0  0  0
  -28.7378  -21.7312   20.8147 C   0  0  2  0  0  0  0  0  0  0  0  0
  -29.1594  -16.8267   19.0365 C   0  0  1  0  0  0  0  0  0  0  0  0
  -24.4817  -11.6251   20.7716 C   0  0  1  0  0  0  0  0  0  0  0  0
  -28.0629  -17.9107   18.9361 C   0  0  2  0  0  0  0  0  0  0  0  0
  -29.6152  -16.5546   20.4765 C   0  0  0  0  0  0  0  0  0  0  0  0
  -18.3449  -29.4502   16.5097 C   0  0  0  0  0  0  0  0  0  0  0  0
  -20.1259  -28.8413   22.8602 C   0  0  0  0  0  0  0  0  0  0  0  0
  -18.4405  -28.4271   21.0557 C   0  0  0  0  0  0  0  0  0  0  0  0
  -19.0669  -30.7643   21.6622 C   0  0  0  0  0  0  0  0  0  0  0  0
  -22.0344  -29.6292   15.5978 C   0  0  0  0  0  0  0  0  0  0  0  0
  -27.4394  -22.3930   20.3497 C   0  0  0  0  0  0  0  0  0  0  0  0
  -27.6454  -23.8632   20.0325 C   0  0  0  0  0  0  0  0  0  1  0  0
  -20.7169  -29.3281   20.3945 C   0  0  1  0  0  0  0  0  0  0  0  0
  -19.8159  -29.7611   16.7379 C   0  0  2  0  0  0  0  0  0  0  0  0
  -19.6142  -29.3305   21.4906 C   0  0  0  0  0  0  0  0  0  0  0  0
  -25.4162   -9.5546   21.7317 N   0  0  0  0  0  0  0  0  0  0  0  0
  -24.3544  -10.1705   21.1846 N   0  0  0  0  0  0  0  0  0  0  0  0
  -28.4499  -19.1404   19.5855 N   0  0  0  0  0  0  0  0  0  0  0  0
  -23.1401  -29.5162   20.8596 N   0  0  0  0  0  0  0  0  0  0  0  0
  -25.9875  -13.3611   19.8021 N   0  0  0  0  0  0  0  0  0  0  0  0
  -27.3810  -15.0970   18.9100 N   0  0  0  0  0  0  0  0  0  0  0  0
  -22.1005   -9.8330   20.5392 N   0  0  0  0  0  0  0  0  0  0  0  0
  -23.3205   -5.8158   22.2035 N   0  0  0  0  0  0  0  0  0  0  0  0
  -25.3632  -30.5429   23.5615 N   0  0  0  0  0  0  0  0  0  0  0  0
  -20.2674  -29.8123   19.0937 N   0  0  0  0  0  0  0  0  0  0  0  0
  -20.5757  -29.3586   15.5206 N   0  3  0  0  0  0  0  0  0  0  0  0
  -29.5238  -19.9634   17.6987 O   0  0  0  0  0  0  0  0  0  0  0  0
  -21.5994   -6.9889   21.2440 O   0  0  0  0  0  0  0  0  0  0  0  0
  -23.5644  -29.0804   23.3427 O   0  0  0  0  0  0  0  0  0  0  0  0
  -21.7482  -31.3830   20.9775 O   0  0  0  0  0  0  0  0  0  0  0  0
  -20.7958  -27.8895   17.9102 O   0  0  0  0  0  0  0  0  0  0  0  0
  -27.9169  -12.8728   18.6380 O   0  0  0  0  0  0  0  0  0  0  0  0
  -28.3153   -4.4930   24.2861 O   0  0  0  0  0  0  0  0  0  0  0  0
  -26.4018  -24.4168   19.6254 O   0  0  0  0  0  0  0  0  0  1  0  0
  -26.2407   -1.4095   28.3594 F   0  0  0  0  0  0  0  0  0  0  0  0
  -29.4533   -4.5191   26.8054 F   0  0  0  0  0  0  0  0  0  0  0  0
  1  2  1  0  0  0  0
  1  5  2  0  0  0  0
  2  6  2  0  0  0  0
  3  8  2  0  0  0  0
  3 15  1  0  0  0  0
  4  9  1  0  0  0  0
  4 15  2  0  0  0  0
  5 17  1  0  0  0  0
  6 19  1  0  0  0  0
  7 10  2  0  0  0  0
  7 18  1  0  0  0  0
  8 21  1  0  0  0  0
  9 21  2  0  0  0  0
 10 22  1  0  0  0  0
 11 12  2  0  0  0  0
 11 23  1  0  0  0  0
 12 24  1  0  0  0  0
 13 20  1  0  0  0  0
 13 22  2  0  0  0  0
 14 24  2  0  0  0  0
 14 25  1  0  0  0  0
 15 26  1  0  0  0  0
 16 26  1  0  0  0  0
 16 27  2  0  0  0  0
 16 29  1  0  0  0  0
 17 19  2  0  0  0  0
 17 34  1  0  0  0  0
 18 20  2  0  0  0  0
 18 35  1  0  0  0  0
 19 49  1  0  0  0  0
 20 36  1  0  0  0  0
 21 83  1  0  0  0  0
 22 84  1  0  0  0  0
 23 25  2  0  0  0  0
 23 83  1  0  0  0  0
 24 85  1  0  0  0  0
 25 86  1  0  0  0  0
 26 66  2  0  0  0  0
 27 67  1  0  0  0  0
 27 72  1  0  0  0  0
 28 37  1  0  0  0  0
 28 68  1  0  0  0  0
 28 77  2  0  0  0  0
 29 73  1  0  0  0  0
 29 78  2  0  0  0  0
 30 50  1  0  0  0  0
 30 74  1  0  0  0  0
 30 79  2  0  0  0  0
 31 63  1  0  0  0  0
 31 69  1  0  0  0  0
 31 80  2  0  0  0  0
 32 64  1  0  0  0  0
 32 75  1  0  0  0  0
 32 81  2  0  0  0  0
 33 70  1  0  0  0  0
 33 71  1  0  0  0  0
 33 82  2  0  0  0  0
 34 38  1  0  0  0  0
 35 50  1  0  0  0  0
 36 69  1  0  0  0  0
 37 51  1  0  0  0  0
 38 40  1  0  0  0  0
 39 41  1  0  0  0  0
 39 44  1  0  0  0  0
 40 49  1  0  0  0  0
 41 53  1  0  0  0  0
 42 45  1  0  0  0  0
 42 51  1  0  0  0  0
 43 46  1  0  0  0  0
 43 54  1  0  0  0  0
 44 70  1  0  0  0  0
 45 68  1  0  0  0  0
 46 71  1  0  0  0  0
 47 52  1  0  0  0  0
 47 71  1  0  0  0  0
 48 53  1  0  0  0  0
 48 70  1  0  0  0  0
 49 74  1  0  0  0  0
 50 69  1  0  0  0  0
 51 61  1  0  0  0  0
 52 54  1  0  0  0  0
 52 55  1  0  0  0  0
 53 67  1  0  0  0  0
 54 68  1  0  0  0  0
 56 64  1  0  0  0  0
 57 65  1  0  0  0  0
 58 65  1  0  0  0  0
 59 65  1  0  0  0  0
 60 76  1  0  0  0  0
 61 62  1  0  0  0  0
 62 84  1  0  0  0  0
 63 65  1  0  0  0  0
 63 75  1  0  0  0  0
 64 76  1  0  0  0  0
 66 67  1  0  0  0  0
M  CHG  1  76   1
M  ISO  4  33 100  62 101  71 100  84 101
M  END
> <Batch ID>
0177

> <Smiles>
CNC(C)C(=O)NC(C(=O)N1Cc2cc([101O:1][101CH2:1]CC3CCN(C4CC[100N:0]([100C:0](=O)N5CCCC(n6nc(-c7ccc(Oc8ccc(F)cc8F)cc7)c(C(N)=O)c6N)C5)CC4C)C(=O)C3)ccc2CC1C(=O)NC1CCCc2ccccc21)C(C)(C)C

> <Shape>
0.282

> <Color>
0.067

> <Negative vol penalty>
0.000

$$$$

  -OEChem-04052322523D

 84 93  0     1  0  0  0  0  0999 V2000
  -17.1010  -28.4621   24.3415 C   0  0  0  0  0  0  0  0  0  0  0  0
  -17.8434  -27.5585   23.5880 C   0  0  0  0  0  0  0  0  0  0  0  0
  -22.8000   -9.9882   20.2459 C   0  0  0  0  0  0  0  0  0  0  0  0
  -24.3277   -9.3072   21.9893 C   0  0  0  0  0  0  0  0  0  0  0  0
  -17.3435  -29.8301   24.2248 C   0  0  0  0  0  0  0  0  0  0  0  0
  -18.8281  -28.0225   22.7166 C   0  0  0  0  0  0  0  0  0  0  0  0
  -23.1205  -25.3546   23.0376 C   0  0  0  0  0  0  0  0  0  0  0  0
  -22.2237   -8.7180   20.2547 C   0  0  0  0  0  0  0  0  0  0  0  0
  -23.7513   -8.0370   21.9981 C   0  0  0  0  0  0  0  0  0  0  0  0
  -23.1493  -24.1156   22.3990 C   0  0  0  0  0  0  0  0  0  0  0  0
  -22.4439   -4.7249   22.7322 C   0  0  0  0  0  0  0  0  0  0  0  0
  -22.1566   -4.1509   23.9706 C   0  0  0  0  0  0  0  0  0  0  0  0
  -23.0572  -19.4722   17.9714 C   0  0  0  0  0  0  0  0  0  0  0  0
  -24.3372  -25.1046   20.5470 C   0  0  0  0  0  0  0  0  0  0  0  0
  -20.6843   -5.9963   24.4845 C   0  0  0  0  0  0  0  0  0  0  0  0
  -23.8520  -10.2828   21.1132 C   0  0  0  0  0  0  0  0  0  0  0  0
  -24.0645  -12.7080   21.8755 C   0  0  0  0  0  0  0  0  0  0  0  0
  -18.3382  -30.3106   23.3586 C   0  0  0  0  0  0  0  0  0  0  0  0
  -23.6911  -26.4821   22.4297 C   0  0  0  0  0  0  0  0  0  0  0  0
  -19.0832  -29.3983   22.5872 C   0  0  0  0  0  0  0  0  0  0  0  0
  -24.2501  -18.7992   17.6907 C   0  0  0  0  0  0  0  0  0  0  0  0
  -24.3165  -26.3562   21.1811 C   0  0  0  0  0  0  0  0  0  0  0  0
  -23.0868  -20.7640   18.4806 C   0  0  0  0  0  0  0  0  0  0  0  0
  -22.6993   -7.7424   21.1308 C   0  0  0  0  0  0  0  0  0  0  0  0
  -23.7552  -23.9910   21.1522 C   0  0  0  0  0  0  0  0  0  0  0  0
  -21.8514   -5.9347   22.3700 C   0  0  0  0  0  0  0  0  0  0  0  0
  -21.2768   -4.7866   24.8467 C   0  0  0  0  0  0  0  0  0  0  0  0
  -20.9717   -6.5704   23.2461 C   0  0  0  0  0  0  0  0  0  0  0  0
  -24.4481  -11.5946   21.1041 C   0  0  0  0  0  0  0  0  0  0  0  0
  -25.4520  -19.4631   17.9528 C   0  0  0  0  0  0  0  0  0  0  0  0
  -24.3230  -21.3402   18.7031 C   0  0  0  0  0  0  0  0  0  0  0  0
  -24.9359  -13.7016   21.5012 C   0  0  0  0  0  0  0  0  0  0  0  0
  -23.0145  -12.8329   22.8437 C   0  0  0  0  0  0  0  0  0  0  0  0
  -22.5862  -29.2851   21.4169 C   0  0  0  0  0  0  0  0  0  0  0  0
  -25.7300  -29.8995   20.9058 C   0  0  0  0  0  0  0  0  0  0  0  0
  -28.8653  -28.6782   20.3356 C   0  0  0  0  0  0  0  0  0  0  0  0
  -27.7682  -16.5272   17.7863 C   0  0  0  0  0  0  0  0  0  0  0  0
  -18.5319  -31.8008   23.2311 C   0  0  0  0  0  0  0  0  0  0  0  0
  -23.6752  -27.8059   23.1437 C   0  0  0  0  0  0  0  0  0  0  0  0
  -24.2142  -17.3848   17.1847 C   0  0  0  0  0  0  0  0  0  0  0  0
  -24.9615  -27.5317   20.4951 C   0  0  0  0  0  0  0  0  0  0  0  0
  -19.8486  -32.1891   22.5635 C   0  0  0  0  0  0  0  0  0  0  0  0
  -29.1628  -13.5267   18.7428 C   0  0  0  0  0  0  0  0  0  0  0  0
  -20.0775  -31.3532   21.3082 C   0  0  0  0  0  0  0  0  0  0  0  0
  -28.0382  -12.8340   19.5117 C   0  0  0  0  0  0  0  0  0  0  0  0
  -25.5520  -16.9268   16.6147 C   0  0  0  0  0  0  0  0  0  0  0  0
  -28.6234  -14.2235   17.4991 C   0  0  0  0  0  0  0  0  0  0  0  0
  -26.4098  -14.5379   18.5542 C   0  0  0  0  0  0  0  0  0  0  0  0
  -20.1769  -29.8614   21.6493 C   0  0  1  0  0  0  0  0  0  0  0  0
  -26.7885  -18.8044   17.6771 C   0  0  2  0  0  0  0  0  0  0  0  0
  -23.8344  -28.9950   22.2013 C   0  0  1  0  0  0  0  0  0  0  0  0
  -26.8989  -13.8187   19.8277 C   0  0  1  0  0  0  0  0  0  0  0  0
  -21.8137  -21.4795   18.7732 C   0  0  0  0  0  0  0  0  0  0  0  0
  -27.6662  -20.9478   16.7365 C   0  0  0  0  0  0  0  0  0  0  0  0
  -31.2250  -29.4249   19.9215 C   0  0  0  0  0  0  0  0  0  0  0  0
  -24.9914  -30.6355   18.0383 C   0  0  0  0  0  0  0  0  0  0  0  0
  -27.4146  -30.4440   17.4388 C   0  0  0  0  0  0  0  0  0  0  0  0
  -26.6743  -32.1483   19.1032 C   0  0  0  0  0  0  0  0  0  0  0  0
  -29.8465  -27.3177   22.7738 C   0  0  0  0  0  0  0  0  0  0  0  0
  -24.4206  -22.7258   19.2516 C   0  0  0  0  0  0  0  0  0  1  0  0
  -27.4848  -19.4880   16.4931 C   0  0  0  0  0  0  0  0  0  0  0  0
  -26.6836  -29.7047   19.7518 C   0  0  1  0  0  0  0  0  0  0  0  0
  -30.2050  -29.0069   20.9692 C   0  0  2  0  0  0  0  0  0  0  0  0
  -26.4272  -30.7112   18.5948 C   0  0  0  0  0  0  0  0  0  0  0  0
  -25.4825  -11.8557   20.3004 N   0  0  0  0  0  0  0  0  0  0  0  0
  -25.4994  -20.7242   18.4550 N   0  0  0  0  0  0  0  0  0  0  0  0
  -25.7562  -13.1447   20.5647 N   0  0  0  0  0  0  0  0  0  0  0  0
  -24.9145  -28.8062   21.2306 N   0  0  0  0  0  0  0  0  0  0  0  0
  -27.5391  -15.1452   17.8369 N   0  0  0  0  0  0  0  0  0  0  0  0
  -26.6711  -17.3495   17.4677 N   0  0  0  0  0  0  0  0  0  0  0  0
  -25.0726  -14.9885   21.8851 N   0  0  0  0  0  0  0  0  0  0  0  0
  -22.2129  -11.7140   23.1081 N   0  0  0  0  0  0  0  0  0  0  0  0
  -21.4797  -29.5545   22.1996 N   0  0  0  0  0  0  0  0  0  0  0  0
  -28.0270  -29.7728   20.3164 N   0  0  0  0  0  0  0  0  0  0  0  0
  -30.7384  -27.8213   21.6977 N   0  3  0  0  0  0  0  0  0  0  0  0
  -22.7832  -13.9096   23.4444 O   0  0  0  0  0  0  0  0  0  0  0  0
  -22.6244  -29.2674   20.1922 O   0  0  0  0  0  0  0  0  0  0  0  0
  -25.7145  -30.9794   21.5018 O   0  0  0  0  0  0  0  0  0  0  0  0
  -28.5913  -27.5630   19.8977 O   0  0  0  0  0  0  0  0  0  0  0  0
  -28.8905  -16.9993   18.0081 O   0  0  0  0  0  0  0  0  0  0  0  0
  -22.1370   -6.5030   21.1399 O   0  0  0  0  0  0  0  0  0  0  0  0
  -23.7844  -22.7744   20.5220 O   0  0  0  0  0  0  0  0  0  1  0  0
  -20.9999   -4.2344   26.0352 F   0  0  0  0  0  0  0  0  0  0  0  0
  -20.3985   -7.7322   22.9032 F   0  0  0  0  0  0  0  0  0  0  0  0
  1  2  1  0  0  0  0
  1  5  2  0  0  0  0
  2  6  2  0  0  0  0
  3  8  2  0  0  0  0
  3 16  1  0  0  0  0
  4  9  1  0  0  0  0
  4 16  2  0  0  0  0
  5 18  1  0  0  0  0
  6 20  1  0  0  0  0
  7 10  2  0  0  0  0
  7 19  1  0  0  0  0
  8 24  1  0  0  0  0
  9 24  2  0  0  0  0
 10 25  1  0  0  0  0
 11 12  2  0  0  0  0
 11 26  1  0  0  0  0
 12 27  1  0  0  0  0
 13 21  1  0  0  0  0
 13 23  2  0  0  0  0
 14 22  1  0  0  0  0
 14 25  2  0  0  0  0
 15 27  2  0  0  0  0
 15 28  1  0  0  0  0
 16 29  1  0  0  0  0
 17 29  1  0  0  0  0
 17 32  2  0  0  0  0
 17 33  1  0  0  0  0
 18 20  2  0  0  0  0
 18 38  1  0  0  0  0
 19 22  2  0  0  0  0
 19 39  1  0  0  0  0
 20 49  1  0  0  0  0
 21 30  2  0  0  0  0
 21 40  1  0  0  0  0
 22 41  1  0  0  0  0
 23 31  1  0  0  0  0
 23 53  1  0  0  0  0
 24 81  1  0  0  0  0
 25 82  1  0  0  0  0
 26 28  2  0  0  0  0
 26 81  1  0  0  0  0
 27 83  1  0  0  0  0
 28 84  1  0  0  0  0
 29 65  2  0  0  0  0
 30 50  1  0  0  0  0
 30 66  1  0  0  0  0
 31 60  1  0  0  0  0
 31 66  2  0  0  0  0
 32 67  1  0  0  0  0
 32 71  1  0  0  0  0
 33 72  1  0  0  0  0
 33 76  2  0  0  0  0
 34 51  1  0  0  0  0
 34 73  1  0  0  0  0
 34 77  2  0  0  0  0
 35 62  1  0  0  0  0
 35 68  1  0  0  0  0
 35 78  2  0  0  0  0
 36 63  1  0  0  0  0
 36 74  1  0  0  0  0
 36 79  2  0  0  0  0
 37 69  1  0  0  0  0
 37 70  1  0  0  0  0
 37 80  2  0  0  0  0
 38 42  1  0  0  0  0
 39 51  1  0  0  0  0
 40 46  1  0  0  0  0
 41 68  1  0  0  0  0
 42 44  1  0  0  0  0
 43 45  1  0  0  0  0
 43 47  1  0  0  0  0
 44 49  1  0  0  0  0
 45 52  1  0  0  0  0
 46 70  1  0  0  0  0
 47 69  1  0  0  0  0
 48 52  1  0  0  0  0
 48 69  1  0  0  0  0
 49 73  1  0  0  0  0
 50 61  1  0  0  0  0
 50 70  1  0  0  0  0
 51 68  1  0  0  0  0
 52 67  1  0  0  0  0
 54 61  1  0  0  0  0
 55 63  1  0  0  0  0
 56 64  1  0  0  0  0
 57 64  1  0  0  0  0
 58 64  1  0  0  0  0
 59 75  1  0  0  0  0
 60 82  1  0  0  0  0
 62 64  1  0  0  0  0
 62 74  1  0  0  0  0
 63 75  1  0  0  0  0
 65 67  1  0  0  0  0
M  CHG  1  75   1
M  ISO  4  37 100  60 101  70 100  82 101
M  END
> <Batch ID>
0177

> <Smiles>
CCC1c2nc([101CH2:1][101O:1]c3ccc4c(c3)CN(C(=O)C(NC(=O)C(C)NC)C(C)(C)C)C(C(=O)NC3CCCc5ccccc53)C4)c(C)cc2CC[100N:0]1[100C:0](=O)N1CCCC(n2nc(-c3ccc(Oc4ccc(F)cc4F)cc3)c(C(N)=O)c2N)C1

> <Shape>
0.252

> <Color>
0.132

> <Negative vol penalty>
0.000

$$$$

  -OEChem-04052322523D

 82 91  0     1  0  0  0  0  0999 V2000
  -28.8728  -37.4942   21.3348 C   0  0  0  0  0  0  0  0  0  0  0  0
  -28.9617  -36.4005   20.4796 C   0  0  0  0  0  0  0  0  0  0  0  0
  -24.7144   -8.8947   21.8518 C   0  0  0  0  0  0  0  0  0  0  0  0
  -23.5788   -9.7321   19.8906 C   0  0  0  0  0  0  0  0  0  0  0  0
  -28.5581  -37.3024   22.6794 C   0  0  0  0  0  0  0  0  0  0  0  0
  -28.7370  -35.1142   20.9688 C   0  0  0  0  0  0  0  0  0  0  0  0
  -26.0879  -28.7653   18.9713 C   0  0  0  0  0  0  0  0  0  0  0  0
  -23.6006   -8.1155   22.1641 C   0  0  0  0  0  0  0  0  0  0  0  0
  -22.4649   -8.9528   20.2029 C   0  0  0  0  0  0  0  0  0  0  0  0
  -26.4342  -27.4151   18.9410 C   0  0  0  0  0  0  0  0  0  0  0  0
  -22.2435   -5.1896   21.1488 C   0  0  0  0  0  0  0  0  0  0  0  0
  -22.4645   -3.8662   21.5298 C   0  0  0  0  0  0  0  0  0  0  0  0
  -25.8195  -27.2115   21.2648 C   0  0  0  0  0  0  0  0  0  0  0  0
  -26.3760  -22.4816   19.3268 C   0  0  0  0  0  0  0  0  0  0  0  0
  -21.4145   -4.3044   23.6612 C   0  0  0  0  0  0  0  0  0  0  0  0
  -28.9133  -21.6190   18.8723 C   0  0  0  0  0  0  0  0  0  0  0  0
  -24.7036   -9.7031   20.7150 C   0  0  0  0  0  0  0  0  0  0  0  0
  -26.9545  -10.1387   19.5965 C   0  0  0  0  0  0  0  0  0  0  0  0
  -28.3199  -36.0140   23.1833 C   0  0  0  0  0  0  0  0  0  0  0  0
  -25.6144  -29.3523   20.1535 C   0  0  0  0  0  0  0  0  0  0  0  0
  -28.4200  -34.9049   22.3217 C   0  0  0  0  0  0  0  0  0  0  0  0
  -25.4655  -28.5687   21.3068 C   0  0  0  0  0  0  0  0  0  0  0  0
  -26.6541  -21.1156   19.4636 C   0  0  0  0  0  0  0  0  0  0  0  0
  -27.9611  -20.6635   19.2300 C   0  0  0  0  0  0  0  0  0  0  0  0
  -22.4758   -8.1445   21.3397 C   0  0  0  0  0  0  0  0  0  0  0  0
  -26.3027  -26.6387   20.0886 C   0  0  0  0  0  0  0  0  0  0  0  0
  -21.6081   -6.0706   22.0240 C   0  0  0  0  0  0  0  0  0  0  0  0
  -22.0500   -3.4235   22.7860 C   0  0  0  0  0  0  0  0  0  0  0  0
  -21.1936   -5.6279   23.2802 C   0  0  0  0  0  0  0  0  0  0  0  0
  -25.8537  -10.5087   20.3921 C   0  0  0  0  0  0  0  0  0  0  0  0
  -27.4034  -23.3398   18.9713 C   0  0  0  0  0  0  0  0  0  0  0  0
  -27.7669  -11.2462   19.5979 C   0  0  0  0  0  0  0  0  0  0  0  0
  -27.2190   -8.9043   18.9168 C   0  0  0  0  0  0  0  0  0  0  0  0
  -26.6255  -31.6855   22.0607 C   0  0  0  0  0  0  0  0  0  0  0  0
  -23.7838  -31.1784   23.5405 C   0  0  0  0  0  0  0  0  0  0  0  0
  -21.2055  -29.0448   24.2091 C   0  0  0  0  0  0  0  0  0  0  0  0
  -26.1625  -17.0105   20.7228 C   0  0  0  0  0  0  0  0  0  0  0  0
  -28.0292  -35.8521   24.6543 C   0  0  0  0  0  0  0  0  0  0  0  0
  -25.2199  -30.8037   20.1626 C   0  0  0  0  0  0  0  0  0  0  0  0
  -25.5388  -20.1737   19.8428 C   0  0  0  0  0  0  0  0  0  0  0  0
  -28.3522  -19.2141   19.3219 C   0  0  0  0  0  0  0  0  0  0  0  0
  -24.9427  -29.1462   22.5958 C   0  0  0  0  0  0  0  0  0  0  0  0
  -27.4375  -34.4912   25.0121 C   0  0  0  0  0  0  0  0  0  0  0  0
  -28.9535  -15.0322   22.2523 C   0  0  0  0  0  0  0  0  0  0  0  0
  -28.2244  -33.3726   24.3366 C   0  0  0  0  0  0  0  0  0  0  0  0
  -28.5043  -13.6070   21.9345 C   0  0  0  0  0  0  0  0  0  0  0  0
  -25.8145  -19.4168   21.1412 C   0  0  0  0  0  0  0  0  0  0  0  0
  -28.1348  -18.5947   20.7059 C   0  0  0  0  0  0  0  0  0  0  0  0
  -27.7617  -15.9752   22.3681 C   0  0  0  0  0  0  0  0  0  0  0  0
  -26.4262  -14.5592   20.8382 C   0  0  0  0  0  0  0  0  0  0  0  0
  -28.1588  -33.4964   22.8095 C   0  0  1  0  0  0  0  0  0  0  0  0
  -25.2347  -31.4182   21.5589 C   0  0  1  0  0  0  0  0  0  0  0  0
  -27.6022  -13.5805   20.6891 C   0  0  2  0  0  0  0  0  0  0  0  0
  -19.0461  -28.9014   25.4794 C   0  0  0  0  0  0  0  0  0  0  0  0
  -25.3401  -30.8541   26.1449 C   0  0  0  0  0  0  0  0  0  0  0  0
  -23.3041  -29.7983   27.1488 C   0  0  0  0  0  0  0  0  0  0  0  0
  -23.2182  -32.1611   26.3535 C   0  0  0  0  0  0  0  0  0  0  0  0
  -19.6468  -28.5843   21.7358 C   0  0  0  0  0  0  0  0  0  0  0  0
  -27.1228  -24.7980   18.8255 C   0  0  0  0  0  0  0  0  0  1  0  0
  -23.3058  -30.2857   24.6602 C   0  0  1  0  0  0  0  0  0  0  0  0
  -19.7005  -29.2330   24.1473 C   0  0  2  0  0  0  0  0  0  0  0  0
  -23.8038  -30.7641   26.0532 C   0  0  0  0  0  0  0  0  0  0  0  0
  -28.6696  -22.9420   18.7403 N   0  0  0  0  0  0  0  0  0  0  0  0
  -25.9545  -11.7539   20.8648 N   0  0  0  0  0  0  0  0  0  0  0  0
  -27.1283  -12.1759   20.3647 N   0  0  0  0  0  0  0  0  0  0  0  0
  -24.5764  -30.5716   22.5560 N   0  0  0  0  0  0  0  0  0  0  0  0
  -26.7203  -18.2806   20.9624 N   0  0  0  0  0  0  0  0  0  0  0  0
  -26.8926  -15.9029   21.1852 N   0  0  0  0  0  0  0  0  0  0  0  0
  -28.9580  -11.5056   19.0180 N   0  0  0  0  0  0  0  0  0  0  0  0
  -26.2791   -7.8698   19.0204 N   0  0  0  0  0  0  0  0  0  0  0  0
  -26.8843  -33.0183   22.3180 N   0  0  0  0  0  0  0  0  0  0  0  0
  -21.8538  -30.2171   24.5359 N   0  0  0  0  0  0  0  0  0  0  0  0
  -19.1106  -28.3503   23.1014 N   0  3  0  0  0  0  0  0  0  0  0  0
  -28.2659   -8.7182   18.2513 O   0  0  0  0  0  0  0  0  0  0  0  0
  -27.4056  -30.7516   22.2053 O   0  0  0  0  0  0  0  0  0  0  0  0
  -23.4598  -32.3687   23.5358 O   0  0  0  0  0  0  0  0  0  0  0  0
  -21.7512  -27.9650   23.9931 O   0  0  0  0  0  0  0  0  0  0  0  0
  -25.0812  -16.8753   20.1367 O   0  0  0  0  0  0  0  0  0  0  0  0
  -21.3887   -7.3840   21.6440 O   0  0  0  0  0  0  0  0  0  0  0  0
  -26.6429  -25.3115   20.0617 O   0  0  0  0  0  0  0  0  0  1  0  0
  -22.2608   -2.1522   23.1511 F   0  0  0  0  0  0  0  0  0  0  0  0
  -20.5816   -6.4693   24.1248 F   0  0  0  0  0  0  0  0  0  0  0  0
  1  2  1  0  0  0  0
  1  5  2  0  0  0  0
  2  6  2  0  0  0  0
  3  8  2  0  0  0  0
  3 17  1  0  0  0  0
  4  9  1  0  0  0  0
  4 17  2  0  0  0  0
  5 19  1  0  0  0  0
  6 21  1  0  0  0  0
  7 10  2  0  0  0  0
  7 20  1  0  0  0  0
  8 25  1  0  0  0  0
  9 25  2  0  0  0  0
 10 26  1  0  0  0  0
 11 12  2  0  0  0  0
 11 27  1  0  0  0  0
 12 28  1  0  0  0  0
 13 22  1  0  0  0  0
 13 26  2  0  0  0  0
 14 23  2  0  0  0  0
 14 31  1  0  0  0  0
 15 28  2  0  0  0  0
 15 29  1  0  0  0  0
 16 24  2  0  0  0  0
 16 63  1  0  0  0  0
 17 30  1  0  0  0  0
 18 30  1  0  0  0  0
 18 32  2  0  0  0  0
 18 33  1  0  0  0  0
 19 21  2  0  0  0  0
 19 38  1  0  0  0  0
 20 22  2  0  0  0  0
 20 39  1  0  0  0  0
 21 51  1  0  0  0  0
 22 42  1  0  0  0  0
 23 24  1  0  0  0  0
 23 40  1  0  0  0  0
 24 41  1  0  0  0  0
 25 79  1  0  0  0  0
 26 80  1  0  0  0  0
 27 29  2  0  0  0  0
 27 79  1  0  0  0  0
 28 81  1  0  0  0  0
 29 82  1  0  0  0  0
 30 64  2  0  0  0  0
 31 59  1  0  0  0  0
 31 63  2  0  0  0  0
 32 65  1  0  0  0  0
 32 69  1  0  0  0  0
 33 70  1  0  0  0  0
 33 74  2  0  0  0  0
 34 52  1  0  0  0  0
 34 71  1  0  0  0  0
 34 75  2  0  0  0  0
 35 60  1  0  0  0  0
 35 66  1  0  0  0  0
 35 76  2  0  0  0  0
 36 61  1  0  0  0  0
 36 72  1  0  0  0  0
 36 77  2  0  0  0  0
 37 67  1  0  0  0  0
 37 68  1  0  0  0  0
 37 78  2  0  0  0  0
 38 43  1  0  0  0  0
 39 52  1  0  0  0  0
 40 47  1  0  0  0  0
 41 48  1  0  0  0  0
 42 66  1  0  0  0  0
 43 45  1  0  0  0  0
 44 46  1  0  0  0  0
 44 49  1  0  0  0  0
 45 51  1  0  0  0  0
 46 53  1  0  0  0  0
 47 67  1  0  0  0  0
 48 67  1  0  0  0  0
 49 68  1  0  0  0  0
 50 53  1  0  0  0  0
 50 68  1  0  0  0  0
 51 71  1  0  0  0  0
 52 66  1  0  0  0  0
 53 65  1  0  0  0  0
 54 61  1  0  0  0  0
 55 62  1  0  0  0  0
 56 62  1  0  0  0  0
 57 62  1  0  0  0  0
 58 73  1  0  0  0  0
 59 80  1  0  0  0  0
 60 62  1  0  0  0  0
 60 72  1  0  0  0  0
 61 73  1  0  0  0  0
 64 65  1  0  0  0  0
M  CHG  1  73   1
M  ISO  4  37 100  59 101  67 100  80 101
M  END
> <Batch ID>
0177

> <Smiles>
CNC(C)C(=O)NC(C(=O)N1Cc2cc([101O:1][101CH2:1]c3cc4c(cn3)CC[100N:0]([100C:0](=O)N3CCCC(n5nc(-c6ccc(Oc7ccc(F)cc7F)cc6)c(C(N)=O)c5N)C3)CC4)ccc2CC1C(=O)NC1CCCc2ccccc21)C(C)(C)C

> <Shape>
0.287

> <Color>
0.124

> <Negative vol penalty>
0.000

$$$$

  -OEChem-04052322523D

 83 92  0     1  0  0  0  0  0999 V2000
  -35.1921  -32.2754   22.9123 C   0  0  0  0  0  0  0  0  0  0  0  0
  -35.6917  -31.0420   23.3179 C   0  0  0  0  0  0  0  0  0  0  0  0
  -23.2241   -9.8494   19.9373 C   0  0  0  0  0  0  0  0  0  0  0  0
  -23.9705   -9.9079   22.2344 C   0  0  0  0  0  0  0  0  0  0  0  0
  -33.8287  -32.4261   22.6630 C   0  0  0  0  0  0  0  0  0  0  0  0
  -34.8278  -29.9588   23.4754 C   0  0  0  0  0  0  0  0  0  0  0  0
  -34.6300  -22.8306   22.7928 C   0  0  0  0  0  0  0  0  0  0  0  0
  -22.5639   -8.6454   20.1824 C   0  0  0  0  0  0  0  0  0  0  0  0
  -23.3102   -8.7039   22.4795 C   0  0  0  0  0  0  0  0  0  0  0  0
  -34.2912  -21.6882   23.5168 C   0  0  0  0  0  0  0  0  0  0  0  0
  -20.1449   -7.6752   23.0655 C   0  0  0  0  0  0  0  0  0  0  0  0
  -19.3872   -7.5794   24.2326 C   0  0  0  0  0  0  0  0  0  0  0  0
  -31.9665  -22.0455   22.9810 C   0  0  0  0  0  0  0  0  0  0  0  0
  -30.4386  -15.9310   24.1866 C   0  0  0  0  0  0  0  0  0  0  0  0
  -20.7611   -5.7352   24.9732 C   0  0  0  0  0  0  0  0  0  0  0  0
  -32.9014  -16.8864   23.5479 C   0  0  0  0  0  0  0  0  0  0  0  0
  -23.9275  -10.4806   20.9632 C   0  0  0  0  0  0  0  0  0  0  0  0
  -24.0874  -13.0240   20.8474 C   0  0  0  0  0  0  0  0  0  0  0  0
  -32.9491  -31.3417   22.8082 C   0  0  0  0  0  0  0  0  0  0  0  0
  -33.6367  -23.5963   22.1656 C   0  0  0  0  0  0  0  0  0  0  0  0
  -33.4511  -30.0955   23.2291 C   0  0  0  0  0  0  0  0  0  0  0  0
  -32.2955  -23.1957   22.2476 C   0  0  0  0  0  0  0  0  0  0  0  0
  -31.0823  -16.7922   25.0842 C   0  0  0  0  0  0  0  0  0  0  0  0
  -32.3475  -17.3126   24.7589 C   0  0  0  0  0  0  0  0  0  0  0  0
  -22.6069   -8.0727   21.4536 C   0  0  0  0  0  0  0  0  0  0  0  0
  -32.9590  -21.2971   23.6134 C   0  0  0  0  0  0  0  0  0  0  0  0
  -21.2107   -6.8010   22.8521 C   0  0  0  0  0  0  0  0  0  0  0  0
  -19.6953   -6.6094   25.1865 C   0  0  0  0  0  0  0  0  0  0  0  0
  -21.5188   -5.8310   23.8060 C   0  0  0  0  0  0  0  0  0  0  0  0
  -24.6102  -11.7241   20.7105 C   0  0  0  0  0  0  0  0  0  0  0  0
  -31.0844  -15.5934   23.0108 C   0  0  0  0  0  0  0  0  0  0  0  0
  -25.1246  -13.8505   20.4903 C   0  0  0  0  0  0  0  0  0  0  0  0
  -22.7811  -13.4465   21.2607 C   0  0  0  0  0  0  0  0  0  0  0  0
  -32.5962  -26.5864   22.4489 C   0  0  0  0  0  0  0  0  0  0  0  0
  -30.7925  -25.7901   19.8731 C   0  0  0  0  0  0  0  0  0  0  0  0
  -29.3048  -23.3372   18.0246 C   0  0  0  0  0  0  0  0  0  0  0  0
  -30.8727  -14.2480   20.8915 C   0  0  0  0  0  0  0  0  0  0  0  0
  -31.4762  -31.5652   22.5729 C   0  0  0  0  0  0  0  0  0  0  0  0
  -34.0214  -24.8109   21.3661 C   0  0  0  0  0  0  0  0  0  0  0  0
  -30.3605  -17.1705   26.3517 C   0  0  0  0  0  0  0  0  0  0  0  0
  -31.1935  -23.9718   21.5756 C   0  0  0  0  0  0  0  0  0  0  0  0
  -30.6837  -30.2718   22.4013 C   0  0  0  0  0  0  0  0  0  0  0  0
  -31.2851  -17.7456   27.4165 C   0  0  0  0  0  0  0  0  0  0  0  0
  -29.2758  -13.2940   17.8556 C   0  0  0  0  0  0  0  0  0  0  0  0
  -31.0654  -29.2646   23.4814 C   0  0  0  0  0  0  0  0  0  0  0  0
  -27.8583  -12.9187   18.2940 C   0  0  0  0  0  0  0  0  0  0  0  0
  -32.1786  -18.8162   26.8044 C   0  0  0  0  0  0  0  0  0  0  0  0
  -30.3184  -12.8799   18.8925 C   0  0  0  0  0  0  0  0  0  0  0  0
  -28.6428  -12.9813   20.6956 C   0  0  0  0  0  0  0  0  0  0  0  0
  -32.5495  -28.8904   23.3872 C   0  0  1  0  0  0  0  0  0  0  0  0
  -32.8747  -25.8029   21.1974 C   0  0  1  0  0  0  0  0  0  0  0  0
  -27.5516  -13.4365   19.7129 C   0  0  2  0  0  0  0  0  0  0  0  0
  -33.1058  -18.2505   25.6966 C   0  0  1  0  0  0  0  0  0  0  0  0
  -34.2715  -17.4705   26.3424 C   0  0  0  0  0  0  0  0  0  0  0  0
  -27.8667  -22.9971   15.9964 C   0  0  0  0  0  0  0  0  0  0  0  0
  -28.3531  -26.7262   21.4488 C   0  0  0  0  0  0  0  0  0  0  0  0
  -26.9105  -25.5080   19.8047 C   0  0  0  0  0  0  0  0  0  0  0  0
  -28.3558  -27.3910   19.0379 C   0  0  0  0  0  0  0  0  0  0  0  0
  -31.3882  -21.7262   16.6745 C   0  0  0  0  0  0  0  0  0  0  0  0
  -33.6913  -19.4619   24.9368 C   0  0  0  0  0  0  0  0  0  1  0  0
  -29.4227  -25.1884   19.6720 C   0  0  1  0  0  0  0  0  0  0  0  0
  -29.2888  -23.0717   16.5301 C   0  0  2  0  0  0  0  0  0  0  0  0
  -28.2808  -26.1896   20.0052 C   0  0  0  0  0  0  0  0  0  0  0  0
  -32.3055  -16.0469   22.6695 N   0  0  0  0  0  0  0  0  0  0  0  0
  -25.8806  -11.7200   20.2983 N   0  0  0  0  0  0  0  0  0  0  0  0
  -26.1649  -13.0275   20.1731 N   0  0  0  0  0  0  0  0  0  0  0  0
  -31.6195  -25.1555   20.8108 N   0  0  0  0  0  0  0  0  0  0  0  0
  -29.9643  -13.4097   20.2111 N   0  0  0  0  0  0  0  0  0  0  0  0
  -25.2391  -15.1938   20.4196 N   0  0  0  0  0  0  0  0  0  0  0  0
  -21.8356  -12.4665   21.5921 N   0  0  0  0  0  0  0  0  0  0  0  0
  -30.4137  -14.7173   22.1218 N   0  0  0  0  0  0  0  0  0  0  0  0
  -32.7662  -27.9505   22.3083 N   0  0  0  0  0  0  0  0  0  0  0  0
  -29.3951  -24.6846   18.3031 N   0  0  0  0  0  0  0  0  0  0  0  0
  -29.9732  -21.7834   16.2255 N   0  3  0  0  0  0  0  0  0  0  0  0
  -22.4567  -14.6569   21.3181 O   0  0  0  0  0  0  0  0  0  0  0  0
  -32.2511  -25.9971   23.4664 O   0  0  0  0  0  0  0  0  0  0  0  0
  -31.1195  -26.7822   19.2170 O   0  0  0  0  0  0  0  0  0  0  0  0
  -29.2396  -22.4394   18.8614 O   0  0  0  0  0  0  0  0  0  0  0  0
  -31.9655  -14.5507   20.4054 O   0  0  0  0  0  0  0  0  0  0  0  0
  -21.9626   -6.8980   21.6932 O   0  0  0  0  0  0  0  0  0  0  0  0
  -32.6255  -20.1829   24.3199 O   0  0  0  0  0  0  0  0  0  1  0  0
  -18.9685   -6.5185   26.3079 F   0  0  0  0  0  0  0  0  0  0  0  0
  -22.5423   -4.9892   23.6071 F   0  0  0  0  0  0  0  0  0  0  0  0
  1  2  1  0  0  0  0
  1  5  2  0  0  0  0
  2  6  2  0  0  0  0
  3  8  2  0  0  0  0
  3 17  1  0  0  0  0
  4  9  1  0  0  0  0
  4 17  2  0  0  0  0
  5 19  1  0  0  0  0
  6 21  1  0  0  0  0
  7 10  2  0  0  0  0
  7 20  1  0  0  0  0
  8 25  1  0  0  0  0
  9 25  2  0  0  0  0
 10 26  1  0  0  0  0
 11 12  2  0  0  0  0
 11 27  1  0  0  0  0
 12 28  1  0  0  0  0
 13 22  1  0  0  0  0
 13 26  2  0  0  0  0
 14 23  1  0  0  0  0
 14 31  2  0  0  0  0
 15 28  2  0  0  0  0
 15 29  1  0  0  0  0
 16 24  1  0  0  0  0
 16 64  2  0  0  0  0
 17 30  1  0  0  0  0
 18 30  1  0  0  0  0
 18 32  2  0  0  0  0
 18 33  1  0  0  0  0
 19 21  2  0  0  0  0
 19 38  1  0  0  0  0
 20 22  2  0  0  0  0
 20 39  1  0  0  0  0
 21 50  1  0  0  0  0
 22 41  1  0  0  0  0
 23 24  2  0  0  0  0
 23 40  1  0  0  0  0
 24 53  1  0  0  0  0
 25 80  1  0  0  0  0
 26 81  1  0  0  0  0
 27 29  2  0  0  0  0
 27 80  1  0  0  0  0
 28 82  1  0  0  0  0
 29 83  1  0  0  0  0
 30 65  2  0  0  0  0
 31 64  1  0  0  0  0
 31 71  1  0  0  0  0
 32 66  1  0  0  0  0
 32 69  1  0  0  0  0
 33 70  1  0  0  0  0
 33 75  2  0  0  0  0
 34 51  1  0  0  0  0
 34 72  1  0  0  0  0
 34 76  2  0  0  0  0
 35 61  1  0  0  0  0
 35 67  1  0  0  0  0
 35 77  2  0  0  0  0
 36 62  1  0  0  0  0
 36 73  1  0  0  0  0
 36 78  2  0  0  0  0
 37 68  1  0  0  0  0
 37 71  1  0  0  0  0
 37 79  2  0  0  0  0
 38 42  1  0  0  0  0
 39 51  1  0  0  0  0
 40 43  1  0  0  0  0
 41 67  1  0  0  0  0
 42 45  1  0  0  0  0
 43 47  1  0  0  0  0
 44 46  1  0  0  0  0
 44 48  1  0  0  0  0
 45 50  1  0  0  0  0
 46 52  1  0  0  0  0
 47 53  1  0  0  0  0
 48 68  1  0  0  0  0
 49 52  1  0  0  0  0
 49 68  1  0  0  0  0
 50 72  1  0  0  0  0
 51 67  1  0  0  0  0
 52 66  1  0  0  0  0
 53 54  1  0  0  0  0
 53 60  1  0  0  0  0
 55 62  1  0  0  0  0
 56 63  1  0  0  0  0
 57 63  1  0  0  0  0
 58 63  1  0  0  0  0
 59 74  1  0  0  0  0
 60 81  1  0  0  0  0
 61 63  1  0  0  0  0
 61 73  1  0  0  0  0
 62 74  1  0  0  0  0
 65 66  1  0  0  0  0
M  CHG  1  74   1
M  ISO  4  37 100  60 101  71 100  81 101
M  END
> <Batch ID>
0177

> <Smiles>
CNC(C)C(=O)NC(C(=O)N1Cc2cc([101O:1][101CH2:1]C3(C)CCCc4cc([100NH:0][100C:0](=O)N5CCCC(n6nc(-c7ccc(Oc8ccc(F)cc8F)cc7)c(C(N)=O)c6N)C5)ncc43)ccc2CC1C(=O)NC1CCCc2ccccc21)C(C)(C)C

> <Shape>
0.225

> <Color>
0.203

> <Negative vol penalty>
0.000

$$$$

  -OEChem-04052322523D

 84 93  0     1  0  0  0  0  0999 V2000
  -28.5394  -35.4685   23.4762 C   0  0  0  0  0  0  0  0  0  0  0  0
  -28.6102  -34.0792   23.4981 C   0  0  0  0  0  0  0  0  0  0  0  0
  -24.5881  -10.4009   23.3158 C   0  0  0  0  0  0  0  0  0  0  0  0
  -24.2492   -9.1414   21.2821 C   0  0  0  0  0  0  0  0  0  0  0  0
  -27.2983  -36.1027   23.5125 C   0  0  0  0  0  0  0  0  0  0  0  0
  -27.4399  -33.3235   23.5574 C   0  0  0  0  0  0  0  0  0  0  0  0
  -27.4827  -29.4198   20.3318 C   0  0  0  0  0  0  0  0  0  0  0  0
  -23.5365   -9.7107   23.9186 C   0  0  0  0  0  0  0  0  0  0  0  0
  -23.1976   -8.4511   21.8849 C   0  0  0  0  0  0  0  0  0  0  0  0
  -28.2190  -28.2954   20.7027 C   0  0  0  0  0  0  0  0  0  0  0  0
  -22.8225   -5.8930   24.0611 C   0  0  0  0  0  0  0  0  0  0  0  0
  -22.7739   -4.5098   23.8884 C   0  0  0  0  0  0  0  0  0  0  0  0
  -26.1872  -27.2071   21.4144 C   0  0  0  0  0  0  0  0  0  0  0  0
  -20.6108   -4.7176   22.8325 C   0  0  0  0  0  0  0  0  0  0  0  0
  -29.2043  -23.9728   20.9979 C   0  0  0  0  0  0  0  0  0  0  0  0
  -24.9444  -10.1164   21.9976 C   0  0  0  0  0  0  0  0  0  0  0  0
  -27.3914  -10.4704   21.3695 C   0  0  0  0  0  0  0  0  0  0  0  0
  -26.1118  -35.3542   23.5626 C   0  0  0  0  0  0  0  0  0  0  0  0
  -26.0921  -29.4504   20.5099 C   0  0  0  0  0  0  0  0  0  0  0  0
  -26.1818  -33.9483   23.5958 C   0  0  0  0  0  0  0  0  0  0  0  0
  -25.4352  -28.3320   21.0427 C   0  0  0  0  0  0  0  0  0  0  0  0
  -22.8413   -8.7357   23.2031 C   0  0  0  0  0  0  0  0  0  0  0  0
  -27.5716  -27.1900   21.2467 C   0  0  0  0  0  0  0  0  0  0  0  0
  -21.7652   -6.6886   23.6196 C   0  0  0  0  0  0  0  0  0  0  0  0
  -21.6681   -3.9220   23.2741 C   0  0  0  0  0  0  0  0  0  0  0  0
  -20.6594   -6.1009   23.0052 C   0  0  0  0  0  0  0  0  0  0  0  0
  -26.0302  -10.8295   21.3742 C   0  0  0  0  0  0  0  0  0  0  0  0
  -29.3461  -23.0407   19.9902 C   0  0  0  0  0  0  0  0  0  0  0  0
  -28.4848  -25.1032   20.6687 C   0  0  0  0  0  0  0  0  0  1  0  0
  -28.0065  -11.4654   20.6498 C   0  0  0  0  0  0  0  0  0  0  0  0
  -28.1485  -24.3351   18.5559 C   0  0  0  0  0  0  0  0  0  0  0  0
  -28.0416   -9.3385   21.9626 C   0  0  0  0  0  0  0  0  0  0  0  0
  -24.0870  -31.2394   22.2079 C   0  0  0  0  0  0  0  0  0  0  0  0
  -21.8330  -29.5417   20.6080 C   0  0  0  0  0  0  0  0  0  0  0  0
  -21.0080  -26.6938   18.9181 C   0  0  0  0  0  0  0  0  0  0  0  0
  -28.8682  -16.6095   19.3783 C   0  0  0  0  0  0  0  0  0  0  0  0
  -24.7954  -36.0852   23.6481 C   0  0  0  0  0  0  0  0  0  0  0  0
  -25.3090  -30.6606   20.0800 C   0  0  0  0  0  0  0  0  0  0  0  0
  -23.9417  -28.3068   21.2356 C   0  0  0  0  0  0  0  0  0  0  0  0
  -23.5886  -35.2054   23.3321 C   0  0  0  0  0  0  0  0  0  0  0  0
  -26.0716  -15.1700   17.8129 C   0  0  0  0  0  0  0  0  0  0  0  0
  -23.6891  -33.8754   24.0721 C   0  0  0  0  0  0  0  0  0  0  0  0
  -25.9157  -13.8720   18.6045 C   0  0  0  0  0  0  0  0  0  0  0  0
  -26.4356  -16.3512   18.7142 C   0  0  0  0  0  0  0  0  0  0  0  0
  -27.8517  -18.9130   19.0864 C   0  0  0  0  0  0  0  0  0  0  0  0
  -30.1680  -18.4585   18.3679 C   0  0  0  0  0  0  0  0  0  0  0  0
  -27.4679  -14.8154   20.3558 C   0  0  0  0  0  0  0  0  0  0  0  0
  -28.3428  -20.0398   19.9895 C   0  0  0  0  0  0  0  0  0  0  0  0
  -30.6955  -19.5576   19.2758 C   0  0  0  0  0  0  0  0  0  0  0  0
  -24.9337  -33.0935   23.6349 C   0  0  1  0  0  0  0  0  0  0  0  0
  -23.9602  -30.7801   20.7828 C   0  0  1  0  0  0  0  0  0  0  0  0
  -27.1597  -13.5994   19.4686 C   0  0  1  0  0  0  0  0  0  0  0  0
  -27.5603  -24.5363   17.2007 C   0  0  0  0  0  0  0  0  0  0  0  0
  -19.0806  -25.5774   17.7622 C   0  0  0  0  0  0  0  0  0  0  0  0
  -20.6173  -28.8407   23.3174 C   0  0  0  0  0  0  0  0  0  0  0  0
  -19.3313  -27.0126   22.1892 C   0  0  0  0  0  0  0  0  0  0  0  0
  -18.9497  -29.3898   21.5364 C   0  0  0  0  0  0  0  0  0  0  0  0
  -22.4416  -26.6392   16.3295 C   0  0  0  0  0  0  0  0  0  0  0  0
  -30.1128  -21.7783   20.2536 C   0  0  0  0  0  0  0  0  0  0  0  0
  -21.0977  -28.2458   20.8513 C   0  0  1  0  0  0  0  0  0  0  0  0
  -20.2946  -26.4782   17.5956 C   0  0  2  0  0  0  0  0  0  0  0  0
  -20.0274  -28.3731   21.9719 C   0  0  0  0  0  0  0  0  0  0  0  0
  -25.7939  -11.9641   20.7103 N   0  0  0  0  0  0  0  0  0  0  0  0
  -28.8294  -23.1900   18.7528 N   0  0  0  0  0  0  0  0  0  0  0  0
  -27.9407  -25.3178   19.4528 N   0  0  0  0  0  0  0  0  0  0  0  0
  -27.0150  -12.3267   20.2818 N   0  0  0  0  0  0  0  0  0  0  0  0
  -23.2208  -29.5164   20.8057 N   0  0  0  0  0  0  0  0  0  0  0  0
  -27.6021  -16.0297   19.5482 N   0  0  0  0  0  0  0  0  0  0  0  0
  -28.9073  -17.9162   18.8697 N   0  0  0  0  0  0  0  0  0  0  0  0
  -29.2934  -11.6790   20.3022 N   0  0  0  0  0  0  0  0  0  0  0  0
  -27.2603   -8.4125   22.6672 N   0  0  0  0  0  0  0  0  0  0  0  0
  -24.7101  -32.4645   22.3508 N   0  0  0  0  0  0  0  0  0  0  0  0
  -20.5633  -27.8308   19.5589 N   0  0  0  0  0  0  0  0  0  0  0  0
  -29.6264  -20.6128   19.4384 N   0  3  0  0  0  0  0  0  0  0  0  0
  -21.2150  -25.8483   16.6071 N   0  3  0  0  0  0  0  0  0  0  0  0
  -29.2812   -9.1625   21.8845 O   0  0  0  0  0  0  0  0  0  0  0  0
  -23.6504  -30.5352   23.1107 O   0  0  0  0  0  0  0  0  0  0  0  0
  -21.2002  -30.5377   20.2487 O   0  0  0  0  0  0  0  0  0  0  0  0
  -21.8708  -25.9280   19.3421 O   0  0  0  0  0  0  0  0  0  0  0  0
  -29.9036  -15.9955   19.6651 O   0  0  0  0  0  0  0  0  0  0  0  0
  -21.8152   -8.0618   23.7910 O   0  0  0  0  0  0  0  0  0  0  0  0
  -28.2985  -26.0754   21.6155 O   0  0  0  0  0  0  0  0  0  1  0  0
  -21.6223   -2.5938   23.1069 F   0  0  0  0  0  0  0  0  0  0  0  0
  -19.6411   -6.8601   22.5779 F   0  0  0  0  0  0  0  0  0  0  0  0
  1  2  1  0  0  0  0
  1  5  2  0  0  0  0
  2  6  2  0  0  0  0
  3  8  2  0  0  0  0
  3 16  1  0  0  0  0
  4  9  1  0  0  0  0
  4 16  2  0  0  0  0
  5 18  1  0  0  0  0
  6 20  1  0  0  0  0
  7 10  2  0  0  0  0
  7 19  1  0  0  0  0
  8 22  1  0  0  0  0
  9 22  2  0  0  0  0
 10 23  1  0  0  0  0
 11 12  2  0  0  0  0
 11 24  1  0  0  0  0
 12 25  1  0  0  0  0
 13 21  1  0  0  0  0
 13 23  2  0  0  0  0
 14 25  2  0  0  0  0
 14 26  1  0  0  0  0
 15 28  2  0  0  0  0
 15 29  1  0  0  0  0
 16 27  1  0  0  0  0
 17 27  1  0  0  0  0
 17 30  2  0  0  0  0
 17 32  1  0  0  0  0
 18 20  2  0  0  0  0
 18 37  1  0  0  0  0
 19 21  2  0  0  0  0
 19 38  1  0  0  0  0
 20 50  1  0  0  0  0
 21 39  1  0  0  0  0
 22 81  1  0  0  0  0
 23 82  1  0  0  0  0
 24 26  2  0  0  0  0
 24 81  1  0  0  0  0
 25 83  1  0  0  0  0
 26 84  1  0  0  0  0
 27 63  2  0  0  0  0
 28 59  1  0  0  0  0
 28 64  1  0  0  0  0
 29 65  2  0  0  0  0
 29 82  1  0  0  0  0
 30 66  1  0  0  0  0
 30 70  1  0  0  0  0
 31 53  1  0  0  0  0
 31 64  2  0  0  0  0
 31 65  1  0  0  0  0
 32 71  1  0  0  0  0
 32 76  2  0  0  0  0
 33 51  1  0  0  0  0
 33 72  1  0  0  0  0
 33 77  2  0  0  0  0
 34 60  1  0  0  0  0
 34 67  1  0  0  0  0
 34 78  2  0  0  0  0
 35 61  1  0  0  0  0
 35 73  1  0  0  0  0
 35 79  2  0  0  0  0
 36 68  1  0  0  0  0
 36 69  1  0  0  0  0
 36 80  2  0  0  0  0
 37 40  1  0  0  0  0
 38 51  1  0  0  0  0
 39 67  1  0  0  0  0
 40 42  1  0  0  0  0
 41 43  1  0  0  0  0
 41 44  1  0  0  0  0
 42 50  1  0  0  0  0
 43 52  1  0  0  0  0
 44 68  1  0  0  0  0
 45 48  1  0  0  0  0
 45 69  1  0  0  0  0
 46 49  1  0  0  0  0
 46 69  1  0  0  0  0
 47 52  1  0  0  0  0
 47 68  1  0  0  0  0
 48 74  1  0  0  0  0
 49 74  1  0  0  0  0
 50 72  1  0  0  0  0
 51 67  1  0  0  0  0
 52 66  1  0  0  0  0
 54 61  1  0  0  0  0
 55 62  1  0  0  0  0
 56 62  1  0  0  0  0
 57 62  1  0  0  0  0
 58 75  1  0  0  0  0
 59 74  1  0  0  0  0
 60 62  1  0  0  0  0
 60 73  1  0  0  0  0
 61 75  1  0  0  0  0
 63 66  1  0  0  0  0
M  CHG  2  74   1  75   1
M  ISO  4  29 101  36 100  69 100  82 101
M  END
> <Batch ID>
0177

> <Smiles>
CNC(C)C(=O)NC(C(=O)N1Cc2cc([101O:1][101c:1]3cc(CN4CC[100N:0]([100C:0](=O)N5CCCC(n6nc(-c7ccc(Oc8ccc(F)cc8F)cc7)c(C(N)=O)c6N)C5)CC4)nc(C)n3)ccc2CC1C(=O)NC1CCCc2ccccc21)C(C)(C)C

> <Shape>
0.317

> <Color>
0.076

> <Negative vol penalty>
0.000

$$$$

  -OEChem-04052322523D

 85 95  0     1  0  0  0  0  0999 V2000
  -28.8637  -23.6221   17.8291 C   0  0  0  0  0  0  0  0  0  0  0  0
  -27.6781  -23.7942   18.5363 C   0  0  0  0  0  0  0  0  0  0  0  0
  -26.5437  -13.2820   19.2679 C   0  0  0  0  0  0  0  0  0  0  0  0
  -24.8926  -13.8446   20.9396 C   0  0  0  0  0  0  0  0  0  0  0  0
  -30.0039  -24.3347   18.1981 C   0  0  0  0  0  0  0  0  0  0  0  0
  -27.6323  -24.6782   19.6137 C   0  0  0  0  0  0  0  0  0  0  0  0
  -23.5017  -27.6073   19.5491 C   0  0  0  0  0  0  0  0  0  0  0  0
  -26.4406  -11.9360   19.6191 C   0  0  0  0  0  0  0  0  0  0  0  0
  -24.7895  -12.4986   21.2907 C   0  0  0  0  0  0  0  0  0  0  0  0
  -22.3067  -27.0323   19.9793 C   0  0  0  0  0  0  0  0  0  0  0  0
  -23.2819   -9.7218   20.0921 C   0  0  0  0  0  0  0  0  0  0  0  0
  -22.0021   -9.1955   20.2673 C   0  0  0  0  0  0  0  0  0  0  0  0
  -22.5755  -28.0959   22.1278 C   0  0  0  0  0  0  0  0  0  0  0  0
  -22.1753  -24.2986   22.5448 C   0  0  0  0  0  0  0  0  0  0  0  0
  -22.5436   -8.6405   22.5555 C   0  0  0  0  0  0  0  0  0  0  0  0
  -21.6847  -23.3251   20.5746 C   0  0  0  0  0  0  0  0  0  0  0  0
  -25.7697  -14.2363   19.9282 C   0  0  0  0  0  0  0  0  0  0  0  0
  -25.1241  -16.3120   18.5932 C   0  0  0  0  0  0  0  0  0  0  0  0
  -29.9695  -25.2351   19.2745 C   0  0  0  0  0  0  0  0  0  0  0  0
  -24.2494  -28.4234   20.4100 C   0  0  0  0  0  0  0  0  0  0  0  0
  -28.7734  -25.4025   19.9983 C   0  0  0  0  0  0  0  0  0  0  0  0
  -23.7784  -28.6820   21.7052 C   0  0  0  0  0  0  0  0  0  0  0  0
  -21.3508  -24.3795   21.3955 C   0  0  0  0  0  0  0  0  0  0  0  0
  -25.5635  -11.5443   20.6305 C   0  0  0  0  0  0  0  0  0  0  0  0
  -21.8449  -27.2742   21.2698 C   0  0  0  0  0  0  0  0  0  0  0  0
  -24.1926   -9.7074   21.1486 C   0  0  0  0  0  0  0  0  0  0  0  0
  -21.6329   -8.6549   21.4990 C   0  0  0  0  0  0  0  0  0  0  0  0
  -23.8234   -9.1668   22.3803 C   0  0  0  0  0  0  0  0  0  0  0  0
  -25.8761  -15.6269   19.5662 C   0  0  0  0  0  0  0  0  0  0  0  0
  -22.9882  -23.1973   22.3910 C   0  0  0  0  0  0  0  0  0  0  0  0
  -25.6020  -17.5991   18.6332 C   0  0  0  0  0  0  0  0  0  0  0  0
  -24.0862  -15.8283   17.7303 C   0  0  0  0  0  0  0  0  0  0  0  0
  -27.1643  -28.2784   21.6696 C   0  0  0  0  0  0  0  0  0  0  0  0
  -26.4182  -31.2418   22.7576 C   0  0  0  0  0  0  0  0  0  0  0  0
  -23.9968  -33.4904   23.6104 C   0  0  0  0  0  0  0  0  0  0  0  0
  -27.5849  -21.5148   22.4080 C   0  0  0  0  0  0  0  0  0  0  0  0
  -31.2399  -25.9477   19.6658 C   0  0  0  0  0  0  0  0  0  0  0  0
  -25.5229  -29.0577   19.9218 C   0  0  0  0  0  0  0  0  0  0  0  0
  -24.5335  -29.5673   22.6616 C   0  0  0  0  0  0  0  0  0  0  0  0
  -31.0086  -27.1447   20.5845 C   0  0  0  0  0  0  0  0  0  0  0  0
  -29.7679  -19.7203   20.2421 C   0  0  0  0  0  0  0  0  0  0  0  0
  -30.0490  -26.7754   21.7112 C   0  0  0  0  0  0  0  0  0  0  0  0
  -24.4046  -23.6087   24.6550 C   0  0  0  0  0  0  0  0  0  0  0  0
  -28.9169  -18.5455   19.7566 C   0  0  0  0  0  0  0  0  0  0  0  0
  -22.5935  -20.5548   19.6433 C   0  0  0  0  0  0  0  0  0  0  0  0
  -22.8364  -20.0455   21.0295 C   0  0  0  0  0  0  0  0  0  0  0  0
  -25.8551  -23.0992   24.5677 C   0  0  0  0  0  0  0  0  0  0  0  0
  -29.4681  -20.0705   21.6980 C   0  0  0  0  0  0  0  0  0  0  0  0
  -27.1935  -19.1406   21.5100 C   0  0  0  0  0  0  0  0  0  0  0  0
  -28.6775  -26.3708   21.1573 C   0  0  1  0  0  0  0  0  0  0  0  0
  -24.0821  -22.7019   23.4284 C   0  0  2  0  0  0  0  0  0  0  0  0
  -26.4640  -29.4568   21.0543 C   0  0  1  0  0  0  0  0  0  0  0  0
  -23.3106  -21.4277   20.6465 C   0  0  0  0  0  0  0  0  0  0  0  0
  -27.4202  -18.7864   20.0303 C   0  0  2  0  0  0  0  0  0  0  0  0
  -25.5963  -22.8456   23.0664 C   0  0  2  0  0  0  0  0  0  0  0  0
  -18.9354  -25.0362   21.6744 C   0  0  0  0  0  0  0  0  0  0  0  0
  -23.6946  -35.8165   24.5020 C   0  0  0  0  0  0  0  0  0  0  0  0
  -27.1453  -30.2617   25.5541 C   0  0  0  0  0  0  0  0  0  0  0  0
  -25.9465  -32.2516   26.4875 C   0  0  0  0  0  0  0  0  0  0  0  0
  -27.9378  -32.5727   25.0198 C   0  0  0  0  0  0  0  0  0  0  0  0
  -22.5667  -34.3643   21.1711 C   0  0  0  0  0  0  0  0  0  0  0  0
  -20.2986  -25.4290   21.1193 C   0  0  1  0  0  0  0  0  0  1  0  0
  -25.7604  -31.7900   24.0009 C   0  0  1  0  0  0  0  0  0  0  0  0
  -23.8114  -34.9545   23.2547 C   0  0  2  0  0  0  0  0  0  0  0  0
  -26.6840  -31.7007   25.2485 C   0  0  0  0  0  0  0  0  0  0  0  0
  -26.7644  -16.4135   20.1795 N   0  0  0  0  0  0  0  0  0  0  0  0
  -22.6814  -22.6134   21.1897 N   0  0  0  0  0  0  0  0  0  0  0  0
  -26.5736  -17.6062   19.5903 N   0  0  0  0  0  0  0  0  0  0  0  0
  -25.7763  -30.1592   22.1396 N   0  0  0  0  0  0  0  0  0  0  0  0
  -28.0322  -20.2882   21.8900 N   0  0  0  0  0  0  0  0  0  0  0  0
  -25.2818  -18.7140   17.9427 N   0  0  0  0  0  0  0  0  0  0  0  0
  -23.7179  -14.4790   17.8195 N   0  0  0  0  0  0  0  0  0  0  0  0
  -27.9203  -27.5438   20.7761 N   0  0  0  0  0  0  0  0  0  0  0  0
  -25.3301  -33.1445   23.6717 N   0  0  0  0  0  0  0  0  0  0  0  0
  -26.2087  -21.6408   22.5524 N   0  0  0  0  0  0  0  0  0  0  0  0
  -22.5771  -35.1373   22.4397 N   0  3  0  0  0  0  0  0  0  0  0  0
  -23.5141  -16.5668   16.8931 O   0  0  0  0  0  0  0  0  0  0  0  0
  -27.0299  -28.0531   22.8666 O   0  0  0  0  0  0  0  0  0  0  0  0
  -27.4592  -31.7598   22.3457 O   0  0  0  0  0  0  0  0  0  0  0  0
  -23.0532  -32.7305   23.8172 O   0  0  0  0  0  0  0  0  0  0  0  0
  -28.3546  -22.4318   22.7139 O   0  0  0  0  0  0  0  0  0  0  0  0
  -25.4625  -10.2310   20.9733 O   0  0  0  0  0  0  0  0  0  0  0  0
  -20.6791  -26.7138   21.6925 O   0  0  0  0  0  0  0  0  0  1  0  0
  -20.4034   -8.1509   21.6676 F   0  0  0  0  0  0  0  0  0  0  0  0
  -24.6936   -9.1512   23.3993 F   0  0  0  0  0  0  0  0  0  0  0  0
  1  2  1  0  0  0  0
  1  5  2  0  0  0  0
  2  6  2  0  0  0  0
  3  8  2  0  0  0  0
  3 17  1  0  0  0  0
  4  9  1  0  0  0  0
  4 17  2  0  0  0  0
  5 19  1  0  0  0  0
  6 21  1  0  0  0  0
  7 10  2  0  0  0  0
  7 20  1  0  0  0  0
  8 24  1  0  0  0  0
  9 24  2  0  0  0  0
 10 25  1  0  0  0  0
 11 12  2  0  0  0  0
 11 26  1  0  0  0  0
 12 27  1  0  0  0  0
 13 22  1  0  0  0  0
 13 25  2  0  0  0  0
 14 23  1  0  0  0  0
 14 30  2  0  0  0  0
 15 27  2  0  0  0  0
 15 28  1  0  0  0  0
 16 23  2  0  0  0  0
 16 67  1  0  0  0  0
 17 29  1  0  0  0  0
 18 29  1  0  0  0  0
 18 31  2  0  0  0  0
 18 32  1  0  0  0  0
 19 21  2  0  0  0  0
 19 37  1  0  0  0  0
 20 22  2  0  0  0  0
 20 38  1  0  0  0  0
 21 50  1  0  0  0  0
 22 39  1  0  0  0  0
 23 62  1  0  0  0  0
 24 82  1  0  0  0  0
 25 83  1  0  0  0  0
 26 28  2  0  0  0  0
 26 82  1  0  0  0  0
 27 84  1  0  0  0  0
 28 85  1  0  0  0  0
 29 66  2  0  0  0  0
 30 51  1  0  0  0  0
 30 67  1  0  0  0  0
 31 68  1  0  0  0  0
 31 71  1  0  0  0  0
 32 72  1  0  0  0  0
 32 77  2  0  0  0  0
 33 52  1  0  0  0  0
 33 73  1  0  0  0  0
 33 78  2  0  0  0  0
 34 63  1  0  0  0  0
 34 69  1  0  0  0  0
 34 79  2  0  0  0  0
 35 64  1  0  0  0  0
 35 74  1  0  0  0  0
 35 80  2  0  0  0  0
 36 70  1  0  0  0  0
 36 75  1  0  0  0  0
 36 81  2  0  0  0  0
 37 40  1  0  0  0  0
 38 52  1  0  0  0  0
 39 69  1  0  0  0  0
 40 42  1  0  0  0  0
 41 44  1  0  0  0  0
 41 48  1  0  0  0  0
 42 50  1  0  0  0  0
 43 47  1  0  0  0  0
 43 51  1  0  0  0  0
 44 54  1  0  0  0  0
 45 46  1  0  0  0  0
 45 53  1  0  0  0  0
 46 53  1  0  0  0  0
 47 55  1  0  0  0  0
 48 70  1  0  0  0  0
 49 54  1  0  0  0  0
 49 70  1  0  0  0  0
 50 73  1  0  0  0  0
 51 55  1  0  0  0  0
 52 69  1  0  0  0  0
 53 67  1  0  0  0  0
 54 68  1  0  0  0  0
 55 75  1  0  0  0  0
 56 62  1  0  0  0  0
 57 64  1  0  0  0  0
 58 65  1  0  0  0  0
 59 65  1  0  0  0  0
 60 65  1  0  0  0  0
 61 76  1  0  0  0  0
 62 83  1  0  0  0  0
 63 65  1  0  0  0  0
 63 74  1  0  0  0  0
 64 76  1  0  0  0  0
 66 68  1  0  0  0  0
M  CHG  1  76   1
M  ISO  4  36 100  62 101  75 100  83 101
M  END
> <Batch ID>
0177

> <Smiles>
CNC(C)C(=O)NC(C(=O)N1Cc2cc([101O:1][101CH:1](C)c3cc(C4CCC4[100NH:0][100C:0](=O)N4CCCC(n5nc(-c6ccc(Oc7ccc(F)cc7F)cc6)c(C(N)=O)c5N)C4)n(C4CC4)c3)ccc2CC1C(=O)NC1CCCc2ccccc21)C(C)(C)C

> <Shape>
0.287

> <Color>
0.076

> <Negative vol penalty>
0.000

$$$$

  -OEChem-04052322523D

 87 97  0     1  0  0  0  0  0999 V2000
  -23.3386  -37.4480   17.4071 C   0  0  0  0  0  0  0  0  0  0  0  0
  -23.5509  -36.1642   16.9151 C   0  0  0  0  0  0  0  0  0  0  0  0
  -24.4818   -8.7820   19.8210 C   0  0  0  0  0  0  0  0  0  0  0  0
  -22.0797   -8.8533   20.0698 C   0  0  0  0  0  0  0  0  0  0  0  0
  -23.9400  -37.8441   18.6011 C   0  0  0  0  0  0  0  0  0  0  0  0
  -24.3656  -35.2759   17.6163 C   0  0  0  0  0  0  0  0  0  0  0  0
  -25.0793  -28.2920   19.0419 C   0  0  0  0  0  0  0  0  0  0  0  0
  -24.5004   -7.4991   20.3683 C   0  0  0  0  0  0  0  0  0  0  0  0
  -22.0983   -7.5704   20.6171 C   0  0  0  0  0  0  0  0  0  0  0  0
  -26.0308  -27.2742   18.9917 C   0  0  0  0  0  0  0  0  0  0  0  0
  -22.8144   -6.1434   23.5973 C   0  0  0  0  0  0  0  0  0  0  0  0
  -22.0489   -5.9155   24.7408 C   0  0  0  0  0  0  0  0  0  0  0  0
  -26.9537  -28.0420   21.0840 C   0  0  0  0  0  0  0  0  0  0  0  0
  -30.8145  -22.2418   19.2072 C   0  0  0  0  0  0  0  0  0  0  0  0
  -20.7848   -4.2298   23.5586 C   0  0  0  0  0  0  0  0  0  0  0  0
  -23.2714   -9.4591   19.6718 C   0  0  0  0  0  0  0  0  0  0  0  0
  -23.1208  -11.1277   17.7480 C   0  0  0  0  0  0  0  0  0  0  0  0
  -24.7547  -36.9570   19.3222 C   0  0  0  0  0  0  0  0  0  0  0  0
  -25.0646  -29.2006   20.1099 C   0  0  0  0  0  0  0  0  0  0  0  0
  -24.9795  -35.6608   18.8203 C   0  0  0  0  0  0  0  0  0  0  0  0
  -25.9993  -29.0689   21.1467 C   0  0  0  0  0  0  0  0  0  0  0  0
  -31.1866  -23.5261   18.8661 C   0  0  0  0  0  0  0  0  0  0  0  0
  -30.2338  -24.5370   18.7479 C   0  0  0  0  0  0  0  0  0  0  0  0
  -23.3087   -6.8933   20.7663 C   0  0  0  0  0  0  0  0  0  0  0  0
  -26.9700  -27.1509   20.0114 C   0  0  0  0  0  0  0  0  0  0  0  0
  -22.5651   -5.4146   22.4344 C   0  0  0  0  0  0  0  0  0  0  0  0
  -21.0341   -4.9587   24.7215 C   0  0  0  0  0  0  0  0  0  0  0  0
  -21.5503   -4.4577   22.4150 C   0  0  0  0  0  0  0  0  0  0  0  0
  -23.2516  -10.7846   19.1071 C   0  0  0  0  0  0  0  0  0  0  0  0
  -28.9117  -24.2367   18.9763 C   0  0  0  0  0  0  0  0  0  0  0  0
  -29.4608  -22.0352   19.4306 C   0  0  0  0  0  0  0  0  0  0  0  0
  -23.1594  -12.5006   17.7353 C   0  0  0  0  0  0  0  0  0  0  0  0
  -22.9772  -10.2811   16.5998 C   0  0  0  0  0  0  0  0  0  0  0  0
  -25.4389  -32.3451   20.3849 C   0  0  0  0  0  0  0  0  0  0  0  0
  -24.6339  -31.7781   23.4757 C   0  0  0  0  0  0  0  0  0  0  0  0
  -24.4706  -29.5642   26.0677 C   0  0  0  0  0  0  0  0  0  0  0  0
  -25.1933  -17.2384   19.2259 C   0  0  0  0  0  0  0  0  0  0  0  0
  -25.4213  -37.4459   20.5836 C   0  0  0  0  0  0  0  0  0  0  0  0
  -24.0149  -30.2766   20.1627 C   0  0  0  0  0  0  0  0  0  0  0  0
  -32.5499  -24.0407   18.5302 C   0  0  0  0  0  0  0  0  0  0  0  0
  -30.8557  -25.8240   18.3228 C   0  0  0  0  0  0  0  0  0  0  0  0
  -26.0134  -30.0063   22.3255 C   0  0  0  0  0  0  0  0  0  0  0  0
  -25.9687  -36.3211   21.4585 C   0  0  0  0  0  0  0  0  0  0  0  0
  -32.3329  -25.5578   18.6535 C   0  0  0  0  0  0  0  0  0  0  0  0
  -22.9183  -15.8482   21.5108 C   0  0  0  0  0  0  0  0  0  0  0  0
  -26.7442  -35.3161   20.6127 C   0  0  0  0  0  0  0  0  0  0  0  0
  -22.7880  -14.4212   20.9790 C   0  0  0  0  0  0  0  0  0  0  0  0
  -27.6729  -19.1018   20.8895 C   0  0  0  0  0  0  0  0  0  0  0  0
  -26.9495  -20.1833   18.7274 C   0  0  0  0  0  0  0  0  0  0  0  0
  -24.3612  -16.3529   21.4500 C   0  0  0  0  0  0  0  0  0  0  0  0
  -26.2427  -18.5936   21.0938 C   0  0  0  0  0  0  0  0  0  0  0  0
  -25.5326  -19.6796   18.9877 C   0  0  0  0  0  0  0  0  0  0  0  0
  -24.8507  -14.8108   19.5790 C   0  0  0  0  0  0  0  0  0  0  0  0
  -25.8366  -34.6604   19.5649 C   0  0  1  0  0  0  0  0  0  0  0  0
  -24.4157  -31.4599   21.0383 C   0  0  1  0  0  0  0  0  0  0  0  0
  -23.4026  -14.2973   19.5734 C   0  0  1  0  0  0  0  0  0  0  0  0
  -27.7008  -20.3791   20.0468 C   0  0  0  0  0  0  0  0  0  0  0  0
  -23.8021  -29.4024   28.4810 C   0  0  0  0  0  0  0  0  0  0  0  0
  -27.1871  -33.2433   24.2786 C   0  0  0  0  0  0  0  0  0  0  0  0
  -26.9610  -32.2413   26.5619 C   0  0  0  0  0  0  0  0  0  0  0  0
  -25.1928  -33.7711   25.6924 C   0  0  0  0  0  0  0  0  0  0  0  0
  -22.4152  -27.5172   25.4813 C   0  0  0  0  0  0  0  0  0  0  0  0
  -27.8561  -25.2795   18.8415 C   0  0  0  0  0  0  0  0  0  1  0  0
  -25.3961  -31.4403   24.7342 C   0  0  1  0  0  0  0  0  0  0  0  0
  -23.3523  -29.2305   27.0385 C   0  0  2  0  0  0  0  0  0  0  0  0
  -26.1855  -32.6574   25.2937 C   0  0  0  0  0  0  0  0  0  0  0  0
  -23.3650  -11.8533   19.9001 N   0  0  0  0  0  0  0  0  0  0  0  0
  -28.5022  -22.9953   19.3252 N   0  0  0  0  0  0  0  0  0  0  0  0
  -23.3057  -12.8815   19.0367 N   0  0  0  0  0  0  0  0  0  0  0  0
  -24.9709  -31.0458   22.3285 N   0  0  0  0  0  0  0  0  0  0  0  0
  -24.9174  -16.1773   20.1012 N   0  0  0  0  0  0  0  0  0  0  0  0
  -25.5465  -18.4662   19.8054 N   0  0  0  0  0  0  0  0  0  0  0  0
  -23.0823  -13.4070   16.7379 N   0  0  0  0  0  0  0  0  0  0  0  0
  -22.9566   -8.8929   16.7917 N   0  0  0  0  0  0  0  0  0  0  0  0
  -29.0720  -20.7542   19.7800 N   0  0  0  0  0  0  0  0  0  0  0  0
  -25.0105  -33.6424   20.1779 N   0  0  0  0  0  0  0  0  0  0  0  0
  -24.4208  -30.8818   25.6645 N   0  0  0  0  0  0  0  0  0  0  0  0
  -22.9061  -27.8212   26.8501 N   0  3  0  0  0  0  0  0  0  0  0  0
  -22.8868  -10.7415   15.4365 O   0  0  0  0  0  0  0  0  0  0  0  0
  -26.5365  -31.8856   20.0917 O   0  0  0  0  0  0  0  0  0  0  0  0
  -23.7664  -32.6544   23.5108 O   0  0  0  0  0  0  0  0  0  0  0  0
  -25.3071  -28.7394   25.7062 O   0  0  0  0  0  0  0  0  0  0  0  0
  -25.1281  -17.0973   17.9983 O   0  0  0  0  0  0  0  0  0  0  0  0
  -23.3264   -5.6414   21.3001 O   0  0  0  0  0  0  0  0  0  0  0  0
  -27.9065  -26.1521   19.9642 O   0  0  0  0  0  0  0  0  0  1  0  0
  -20.3001   -4.7388   25.8201 F   0  0  0  0  0  0  0  0  0  0  0  0
  -21.3069   -3.7536   21.3011 F   0  0  0  0  0  0  0  0  0  0  0  0
  1  2  1  0  0  0  0
  1  5  2  0  0  0  0
  2  6  2  0  0  0  0
  3  8  2  0  0  0  0
  3 16  1  0  0  0  0
  4  9  1  0  0  0  0
  4 16  2  0  0  0  0
  5 18  1  0  0  0  0
  6 20  1  0  0  0  0
  7 10  2  0  0  0  0
  7 19  1  0  0  0  0
  8 24  1  0  0  0  0
  9 24  2  0  0  0  0
 10 25  1  0  0  0  0
 11 12  2  0  0  0  0
 11 26  1  0  0  0  0
 12 27  1  0  0  0  0
 13 21  1  0  0  0  0
 13 25  2  0  0  0  0
 14 22  2  0  0  0  0
 14 31  1  0  0  0  0
 15 27  2  0  0  0  0
 15 28  1  0  0  0  0
 16 29  1  0  0  0  0
 17 29  1  0  0  0  0
 17 32  2  0  0  0  0
 17 33  1  0  0  0  0
 18 20  2  0  0  0  0
 18 38  1  0  0  0  0
 19 21  2  0  0  0  0
 19 39  1  0  0  0  0
 20 54  1  0  0  0  0
 21 42  1  0  0  0  0
 22 23  1  0  0  0  0
 22 40  1  0  0  0  0
 23 30  2  0  0  0  0
 23 41  1  0  0  0  0
 24 84  1  0  0  0  0
 25 85  1  0  0  0  0
 26 28  2  0  0  0  0
 26 84  1  0  0  0  0
 27 86  1  0  0  0  0
 28 87  1  0  0  0  0
 29 67  2  0  0  0  0
 30 63  1  0  0  0  0
 30 68  1  0  0  0  0
 31 68  2  0  0  0  0
 31 75  1  0  0  0  0
 32 69  1  0  0  0  0
 32 73  1  0  0  0  0
 33 74  1  0  0  0  0
 33 79  2  0  0  0  0
 34 55  1  0  0  0  0
 34 76  1  0  0  0  0
 34 80  2  0  0  0  0
 35 64  1  0  0  0  0
 35 70  1  0  0  0  0
 35 81  2  0  0  0  0
 36 65  1  0  0  0  0
 36 77  1  0  0  0  0
 36 82  2  0  0  0  0
 37 71  1  0  0  0  0
 37 72  1  0  0  0  0
 37 83  2  0  0  0  0
 38 43  1  0  0  0  0
 39 55  1  0  0  0  0
 40 44  1  0  0  0  0
 41 44  1  0  0  0  0
 42 70  1  0  0  0  0
 43 46  1  0  0  0  0
 45 47  1  0  0  0  0
 45 50  1  0  0  0  0
 46 54  1  0  0  0  0
 47 56  1  0  0  0  0
 48 51  1  0  0  0  0
 48 57  1  0  0  0  0
 49 52  1  0  0  0  0
 49 57  1  0  0  0  0
 50 71  1  0  0  0  0
 51 72  1  0  0  0  0
 52 72  1  0  0  0  0
 53 56  1  0  0  0  0
 53 71  1  0  0  0  0
 54 76  1  0  0  0  0
 55 70  1  0  0  0  0
 56 69  1  0  0  0  0
 57 75  1  0  0  0  0
 58 65  1  0  0  0  0
 59 66  1  0  0  0  0
 60 66  1  0  0  0  0
 61 66  1  0  0  0  0
 62 78  1  0  0  0  0
 63 85  1  0  0  0  0
 64 66  1  0  0  0  0
 64 77  1  0  0  0  0
 65 78  1  0  0  0  0
 67 69  1  0  0  0  0
M  CHG  1  78   1
M  ISO  4  37 100  63 101  72 100  85 101
M  END
> <Batch ID>
0177

> <Smiles>
CNC(C)C(=O)NC(C(=O)N1Cc2cc([101O:1][101CH2:1]c3nc(NC4CC[100N:0]([100C:0](=O)N5CCCC(n6nc(-c7ccc(Oc8ccc(F)cc8F)cc7)c(C(N)=O)c6N)C5)CC4)cc4c3CCC4)ccc2CC1C(=O)NC1CCCc2ccccc21)C(C)(C)C

> <Shape>
0.253

> <Color>
0.094

> <Negative vol penalty>
0.000

$$$$

  -OEChem-04052322523D

 84 93  0     1  0  0  0  0  0999 V2000
  -22.6806  -12.6648   27.4653 C   0  0  0  0  0  0  0  0  0  0  0  0
  -23.4071  -13.6147   26.7544 C   0  0  0  0  0  0  0  0  0  0  0  0
  -22.2616  -27.2329   20.3691 C   0  0  0  0  0  0  0  0  0  0  0  0
  -22.6673  -28.8903   22.0796 C   0  0  0  0  0  0  0  0  0  0  0  0
  -22.2456  -11.5026   26.8297 C   0  0  0  0  0  0  0  0  0  0  0  0
  -23.7000  -13.4023   25.4077 C   0  0  0  0  0  0  0  0  0  0  0  0
  -24.0574  -17.6438   21.0046 C   0  0  0  0  0  0  0  0  0  0  0  0
  -21.0087  -26.9688   20.9222 C   0  0  0  0  0  0  0  0  0  0  0  0
  -21.4143  -28.6262   22.6327 C   0  0  0  0  0  0  0  0  0  0  0  0
  -25.1393  -18.3046   20.4243 C   0  0  0  0  0  0  0  0  0  0  0  0
  -18.1932  -29.4242   21.9939 C   0  0  0  0  0  0  0  0  0  0  0  0
  -17.4039  -30.5153   22.3574 C   0  0  0  0  0  0  0  0  0  0  0  0
  -25.1480  -16.6977   18.6252 C   0  0  0  0  0  0  0  0  0  0  0  0
  -17.3844  -29.7390   24.6452 C   0  0  0  0  0  0  0  0  0  0  0  0
  -30.2458  -19.1708   21.1965 C   0  0  0  0  0  0  0  0  0  0  0  0
  -23.0910  -28.1936   20.9478 C   0  0  0  0  0  0  0  0  0  0  0  0
  -24.6942  -29.4158   19.3846 C   0  0  0  0  0  0  0  0  0  0  0  0
  -22.5250  -11.2804   25.4721 C   0  0  0  0  0  0  0  0  0  0  0  0
  -23.5188  -16.4967   20.4042 C   0  0  0  0  0  0  0  0  0  0  0  0
  -23.2695  -12.2354   24.7538 C   0  0  0  0  0  0  0  0  0  0  0  0
  -24.0577  -16.0257   19.1985 C   0  0  0  0  0  0  0  0  0  0  0  0
  -20.5850  -27.6655   22.0539 C   0  0  0  0  0  0  0  0  0  0  0  0
  -25.6866  -17.8299   19.2360 C   0  0  0  0  0  0  0  0  0  0  0  0
  -18.5780  -28.4904   22.9561 C   0  0  0  0  0  0  0  0  0  0  0  0
  -16.9995  -30.6727   23.6831 C   0  0  0  0  0  0  0  0  0  0  0  0
  -18.1737  -28.6479   24.2817 C   0  0  0  0  0  0  0  0  0  0  0  0
  -24.3856  -28.4665   20.3773 C   0  0  0  0  0  0  0  0  0  0  0  0
  -29.6578  -19.5564   20.0167 C   0  0  0  0  0  0  0  0  0  0  0  0
  -30.4839  -17.7925   21.0370 C   0  0  0  0  0  0  0  0  0  0  0  0
  -26.0478  -29.2840   19.1924 C   0  0  0  0  0  0  0  0  0  0  0  0
  -23.8342  -30.3346   18.6977 C   0  0  0  0  0  0  0  0  0  0  0  0
  -23.1978  -13.4541   21.2663 C   0  0  0  0  0  0  0  0  0  0  0  0
  -21.5182  -13.2527   18.4985 C   0  0  0  0  0  0  0  0  0  0  0  0
  -20.9001  -14.5101   15.3866 C   0  0  0  0  0  0  0  0  0  0  0  0
  -29.9082  -24.9250   19.9271 C   0  0  0  0  0  0  0  0  0  0  0  0
  -22.0745   -9.9870   24.8405 C   0  0  0  0  0  0  0  0  0  0  0  0
  -22.3347  -15.8109   21.0287 C   0  0  0  0  0  0  0  0  0  0  0  0
  -23.5031  -14.8101   18.5032 C   0  0  0  0  0  0  0  0  0  0  0  0
  -22.1043  -10.0116   23.3144 C   0  0  0  0  0  0  0  0  0  0  0  0
  -30.0556  -28.0181   21.4631 C   0  0  0  0  0  0  0  0  0  0  0  0
  -23.4192  -10.6023   22.8156 C   0  0  0  0  0  0  0  0  0  0  0  0
  -28.6512  -28.5887   21.2666 C   0  0  0  0  0  0  0  0  0  0  0  0
  -28.6138  -21.7585   20.7115 C   0  0  0  0  0  0  0  0  0  0  0  0
  -30.2359  -21.6854   18.7691 C   0  0  0  0  0  0  0  0  0  0  0  0
  -29.9984  -26.5342   21.8068 C   0  0  0  0  0  0  0  0  0  0  0  0
  -28.1412  -23.1354   20.2364 C   0  0  0  0  0  0  0  0  0  0  0  0
  -29.7085  -23.0471   18.3264 C   0  0  0  0  0  0  0  0  0  0  0  0
  -27.8614  -26.2671   20.5903 C   0  0  0  0  0  0  0  0  0  0  0  0
  -23.5858  -12.0526   23.2852 C   0  0  1  0  0  0  0  0  0  0  0  0
  -29.1580  -20.9100   19.5481 C   0  0  0  0  0  0  0  0  0  0  0  0
  -22.1944  -14.3532   20.6011 C   0  0  1  0  0  0  0  0  0  0  0  0
  -27.8603  -27.7674   20.2329 C   0  0  1  0  0  0  0  0  0  0  0  0
  -31.1033  -16.8710   22.0044 C   0  0  0  0  0  0  0  0  0  0  0  0
  -19.5004  -14.1098   13.3426 C   0  0  0  0  0  0  0  0  0  0  0  0
  -23.3394  -10.9357   17.7080 C   0  0  0  0  0  0  0  0  0  0  0  0
  -22.5458  -11.2080   15.3492 C   0  0  0  0  0  0  0  0  0  0  0  0
  -20.9252  -10.6033   17.1466 C   0  0  0  0  0  0  0  0  0  0  0  0
  -19.5721  -17.1429   15.6385 C   0  0  0  0  0  0  0  0  0  0  0  0
  -29.0378  -18.3204   17.9186 C   0  0  0  0  0  0  0  0  0  0  0  0
  -27.6537  -17.6807   17.9078 C   0  0  0  0  0  0  0  0  0  1  0  0
  -21.8609  -12.9505   17.0596 C   0  0  1  0  0  0  0  0  0  0  0  0
  -19.6014  -14.8395   14.6730 C   0  0  2  0  0  0  0  0  0  0  0  0
  -22.1797  -11.4462   16.8297 C   0  0  0  0  0  0  0  0  0  0  0  0
  -25.4570  -27.7821   20.7871 N   0  0  0  0  0  0  0  0  0  0  0  0
  -30.0801  -17.3335   19.8494 N   0  0  0  0  0  0  0  0  0  0  0  0
  -29.5821  -18.4296   19.2521 N   0  0  0  0  0  0  0  0  0  0  0  0
  -26.4519  -28.3018   20.0481 N   0  0  0  0  0  0  0  0  0  0  0  0
  -22.3491  -14.1706   19.1565 N   0  0  0  0  0  0  0  0  0  0  0  0
  -29.2365  -25.7899   20.8042 N   0  0  0  0  0  0  0  0  0  0  0  0
  -29.1953  -23.8084   19.4650 N   0  0  0  0  0  0  0  0  0  0  0  0
  -26.9198  -29.9136   18.3766 N   0  0  0  0  0  0  0  0  0  0  0  0
  -22.4694  -30.3383   19.0167 N   0  0  0  0  0  0  0  0  0  0  0  0
  -22.7770  -12.9411   22.4784 N   0  0  0  0  0  0  0  0  0  0  0  0
  -20.7490  -13.4545   16.2607 N   0  0  0  0  0  0  0  0  0  0  0  0
  -19.5099  -16.3042   14.4139 N   0  3  0  0  0  0  0  0  0  0  0  0
  -24.2604  -31.1174   17.8150 O   0  0  0  0  0  0  0  0  0  0  0  0
  -24.2735  -13.2403   20.7195 O   0  0  0  0  0  0  0  0  0  0  0  0
  -20.5449  -12.7003   19.0172 O   0  0  0  0  0  0  0  0  0  0  0  0
  -21.9451  -15.1251   15.1857 O   0  0  0  0  0  0  0  0  0  0  0  0
  -31.0757  -25.1376   19.5765 O   0  0  0  0  0  0  0  0  0  0  0  0
  -19.3623  -27.4082   22.5938 O   0  0  0  0  0  0  0  0  0  0  0  0
  -26.7504  -18.4771   18.6638 O   0  0  0  0  0  0  0  0  0  1  0  0
  -16.2429  -31.7214   24.0323 F   0  0  0  0  0  0  0  0  0  0  0  0
  -18.5413  -27.7548   25.2107 F   0  0  0  0  0  0  0  0  0  0  0  0
  1  2  1  0  0  0  0
  1  5  2  0  0  0  0
  2  6  2  0  0  0  0
  3  8  2  0  0  0  0
  3 16  1  0  0  0  0
  4  9  1  0  0  0  0
  4 16  2  0  0  0  0
  5 18  1  0  0  0  0
  6 20  1  0  0  0  0
  7 10  2  0  0  0  0
  7 19  1  0  0  0  0
  8 22  1  0  0  0  0
  9 22  2  0  0  0  0
 10 23  1  0  0  0  0
 11 12  2  0  0  0  0
 11 24  1  0  0  0  0
 12 25  1  0  0  0  0
 13 21  1  0  0  0  0
 13 23  2  0  0  0  0
 14 25  2  0  0  0  0
 14 26  1  0  0  0  0
 15 28  2  0  0  0  0
 15 29  1  0  0  0  0
 16 27  1  0  0  0  0
 17 27  1  0  0  0  0
 17 30  2  0  0  0  0
 17 31  1  0  0  0  0
 18 20  2  0  0  0  0
 18 36  1  0  0  0  0
 19 21  2  0  0  0  0
 19 37  1  0  0  0  0
 20 49  1  0  0  0  0
 21 38  1  0  0  0  0
 22 81  1  0  0  0  0
 23 82  1  0  0  0  0
 24 26  2  0  0  0  0
 24 81  1  0  0  0  0
 25 83  1  0  0  0  0
 26 84  1  0  0  0  0
 27 64  2  0  0  0  0
 28 50  1  0  0  0  0
 28 66  1  0  0  0  0
 29 53  1  0  0  0  0
 29 65  2  0  0  0  0
 30 67  1  0  0  0  0
 30 71  1  0  0  0  0
 31 72  1  0  0  0  0
 31 76  2  0  0  0  0
 32 51  1  0  0  0  0
 32 73  1  0  0  0  0
 32 77  2  0  0  0  0
 33 61  1  0  0  0  0
 33 68  1  0  0  0  0
 33 78  2  0  0  0  0
 34 62  1  0  0  0  0
 34 74  1  0  0  0  0
 34 79  2  0  0  0  0
 35 69  1  0  0  0  0
 35 70  1  0  0  0  0
 35 80  2  0  0  0  0
 36 39  1  0  0  0  0
 37 51  1  0  0  0  0
 38 68  1  0  0  0  0
 39 41  1  0  0  0  0
 40 42  1  0  0  0  0
 40 45  1  0  0  0  0
 41 49  1  0  0  0  0
 42 52  1  0  0  0  0
 43 46  1  0  0  0  0
 43 50  1  0  0  0  0
 44 47  1  0  0  0  0
 44 50  1  0  0  0  0
 45 69  1  0  0  0  0
 46 70  1  0  0  0  0
 47 70  1  0  0  0  0
 48 52  1  0  0  0  0
 48 69  1  0  0  0  0
 49 73  1  0  0  0  0
 51 68  1  0  0  0  0
 52 67  1  0  0  0  0
 54 62  1  0  0  0  0
 55 63  1  0  0  0  0
 56 63  1  0  0  0  0
 57 63  1  0  0  0  0
 58 75  1  0  0  0  0
 59 60  1  0  0  0  0
 59 66  1  0  0  0  0
 60 82  1  0  0  0  0
 61 63  1  0  0  0  0
 61 74  1  0  0  0  0
 62 75  1  0  0  0  0
 64 67  1  0  0  0  0
 65 66  1  0  0  0  0
M  CHG  1  75   1
M  ISO  4  35 100  60 101  70 100  82 101
M  END
> <Batch ID>
0177

> <Smiles>
CNC(C)C(=O)NC(C(=O)N1Cc2cc([101O:1][101CH2:1]Cn3nc(C)cc3C3CC[100N:0]([100C:0](=O)N4CCCC(n5nc(-c6ccc(Oc7ccc(F)cc7F)cc6)c(C(N)=O)c5N)C4)CC3)ccc2CC1C(=O)NC1CCCc2ccccc21)C(C)(C)C

> <Shape>
0.234

> <Color>
0.072

> <Negative vol penalty>
0.000

$$$$

  -OEChem-04052322523D

 83 92  0     1  0  0  0  0  0999 V2000
  -26.4704  -31.1076   26.9538 C   0  0  0  0  0  0  0  0  0  0  0  0
  -26.7520  -29.9123   26.3000 C   0  0  0  0  0  0  0  0  0  0  0  0
  -23.0273   -9.9538   19.8875 C   0  0  0  0  0  0  0  0  0  0  0  0
  -23.9203   -9.7352   22.1217 C   0  0  0  0  0  0  0  0  0  0  0  0
  -25.3792  -31.8785   26.5553 C   0  0  0  0  0  0  0  0  0  0  0  0
  -25.9419  -29.4867   25.2479 C   0  0  0  0  0  0  0  0  0  0  0  0
  -28.6188  -27.7995   21.2942 C   0  0  0  0  0  0  0  0  0  0  0  0
  -22.2952   -8.7799   20.0653 C   0  0  0  0  0  0  0  0  0  0  0  0
  -23.1881   -8.5614   22.2995 C   0  0  0  0  0  0  0  0  0  0  0  0
  -29.1561  -26.5166   21.3899 C   0  0  0  0  0  0  0  0  0  0  0  0
  -19.9980   -7.7008   23.0085 C   0  0  0  0  0  0  0  0  0  0  0  0
  -19.3108   -7.5435   24.2121 C   0  0  0  0  0  0  0  0  0  0  0  0
  -27.3393  -25.6625   20.0523 C   0  0  0  0  0  0  0  0  0  0  0  0
  -20.5861   -5.5453   24.6790 C   0  0  0  0  0  0  0  0  0  0  0  0
  -30.1120  -21.5283   22.2787 C   0  0  0  0  0  0  0  0  0  0  0  0
  -23.8400  -10.4314   20.9157 C   0  0  0  0  0  0  0  0  0  0  0  0
  -24.1834  -12.9568   21.0264 C   0  0  0  0  0  0  0  0  0  0  0  0
  -24.5609  -31.4669   25.4915 C   0  0  0  0  0  0  0  0  0  0  0  0
  -27.4299  -28.0222   20.5848 C   0  0  0  0  0  0  0  0  0  0  0  0
  -24.8378  -30.2522   24.8357 C   0  0  0  0  0  0  0  0  0  0  0  0
  -26.7904  -26.9496   19.9470 C   0  0  0  0  0  0  0  0  0  0  0  0
  -22.3755   -8.0837   21.2713 C   0  0  0  0  0  0  0  0  0  0  0  0
  -28.5148  -25.4474   20.7713 C   0  0  0  0  0  0  0  0  0  0  0  0
  -20.9792   -6.7804   22.6401 C   0  0  0  0  0  0  0  0  0  0  0  0
  -19.6049   -6.4658   25.0474 C   0  0  0  0  0  0  0  0  0  0  0  0
  -21.2733   -5.7027   23.4754 C   0  0  0  0  0  0  0  0  0  0  0  0
  -24.5970  -11.6436   20.7324 C   0  0  0  0  0  0  0  0  0  0  0  0
  -30.6713  -22.6088   21.5706 C   0  0  0  0  0  0  0  0  0  0  0  0
  -30.8583  -20.4417   21.8928 C   0  0  0  0  0  0  0  0  0  0  0  0
  -25.2551  -13.7409   20.6756 C   0  0  0  0  0  0  0  0  0  0  0  0
  -22.9415  -13.4258   21.5681 C   0  0  0  0  0  0  0  0  0  0  0  0
  -24.5342  -29.0936   21.3402 C   0  0  0  0  0  0  0  0  0  0  0  0
  -24.0619  -28.9250   18.1354 C   0  0  0  0  0  0  0  0  0  0  0  0
  -24.9482  -27.5392   15.1452 C   0  0  0  0  0  0  0  0  0  0  0  0
  -30.7441  -14.7482   20.6418 C   0  0  0  0  0  0  0  0  0  0  0  0
  -23.3647  -32.3102   25.1274 C   0  0  0  0  0  0  0  0  0  0  0  0
  -26.8776  -29.4165   20.4684 C   0  0  0  0  0  0  0  0  0  0  0  0
  -25.5225  -27.1390   19.1564 C   0  0  0  0  0  0  0  0  0  0  0  0
  -22.7768  -31.9749   23.7592 C   0  0  0  0  0  0  0  0  0  0  0  0
  -29.4599  -12.6093   18.1016 C   0  0  0  0  0  0  0  0  0  0  0  0
  -22.6328  -30.4652   23.5954 C   0  0  0  0  0  0  0  0  0  0  0  0
  -28.0492  -12.2711   18.5869 C   0  0  0  0  0  0  0  0  0  0  0  0
  -30.5232  -17.1429   23.5082 C   0  0  0  0  0  0  0  0  0  0  0  0
  -30.4466  -12.7121   19.2625 C   0  0  0  0  0  0  0  0  0  0  0  0
  -30.9591  -18.6052   23.5986 C   0  0  0  0  0  0  0  0  0  0  0  0
  -28.6321  -13.2982   20.8239 C   0  0  0  0  0  0  0  0  0  0  0  0
  -30.5431  -18.0264   21.2856 C   0  0  0  0  0  0  0  0  0  0  0  0
  -23.9970  -29.7692   23.6738 C   0  0  1  0  0  0  0  0  0  0  0  0
  -25.3854  -29.4436   20.1525 C   0  0  1  0  0  0  0  0  0  0  0  0
  -27.5900  -13.2389   19.6940 C   0  0  2  0  0  0  0  0  0  0  0  0
  -30.8902  -16.7658   22.0795 C   0  0  2  0  0  0  0  0  0  0  0  0
  -24.3569  -27.5716   12.7066 C   0  0  0  0  0  0  0  0  0  0  0  0
  -21.5897  -27.2331   18.7149 C   0  0  0  0  0  0  0  0  0  0  0  0
  -21.6003  -26.5206   16.3148 C   0  0  0  0  0  0  0  0  0  0  0  0
  -21.2927  -28.9263   16.8985 C   0  0  0  0  0  0  0  0  0  0  0  0
  -32.8016  -20.1631   20.3175 C   0  0  0  0  0  0  0  0  0  0  0  0
  -27.6458  -28.4898   14.3847 C   0  0  0  0  0  0  0  0  0  0  0  0
  -30.2440  -24.0466   21.6101 C   0  0  0  0  0  0  0  0  0  1  0  0
  -23.5691  -27.8635   17.1817 C   0  0  1  0  0  0  0  0  0  0  0  0
  -25.2412  -28.1638   13.7930 C   0  0  2  0  0  0  0  0  0  0  0  0
  -22.0358  -27.6317   17.2939 C   0  0  0  0  0  0  0  0  0  0  0  0
  -25.8348  -11.5924   20.2332 N   0  0  0  0  0  0  0  0  0  0  0  0
  -31.6941  -22.2421   20.7938 N   0  0  0  0  0  0  0  0  0  0  0  0
  -31.7834  -20.9190   21.0116 N   0  0  0  0  0  0  0  0  0  0  0  0
  -26.2082  -12.8832   20.2107 N   0  0  0  0  0  0  0  0  0  0  0  0
  -30.7988  -19.1077   22.2356 N   0  0  3  0  0  0  0  0  0  0  0  0
  -25.0184  -28.5200   19.0771 N   0  0  0  0  0  0  0  0  0  0  0  0
  -29.9527  -13.6466   20.2767 N   0  0  0  0  0  0  0  0  0  0  0  0
  -25.4657  -15.0735   20.7225 N   0  0  0  0  0  0  0  0  0  0  0  0
  -21.9478  -12.4855   21.8725 N   0  0  0  0  0  0  0  0  0  0  0  0
  -24.7167  -29.9259   22.4280 N   0  0  0  0  0  0  0  0  0  0  0  0
  -24.0166  -28.2684   15.8535 N   0  0  0  0  0  0  0  0  0  0  0  0
  -30.1988  -15.5878   21.6053 N   0  0  0  0  0  0  0  0  0  0  0  0
  -26.6649  -27.9373   13.4154 N   0  3  0  0  0  0  0  0  0  0  0  0
  -22.7136  -14.6442   21.7608 O   0  0  0  0  0  0  0  0  0  0  0  0
  -23.7674  -28.1400   21.2740 O   0  0  0  0  0  0  0  0  0  0  0  0
  -23.6198  -30.0729   18.0433 O   0  0  0  0  0  0  0  0  0  0  0  0
  -25.4887  -26.5057   15.5327 O   0  0  0  0  0  0  0  0  0  0  0  0
  -31.8522  -14.9702   20.1419 O   0  0  0  0  0  0  0  0  0  0  0  0
  -21.6611   -6.9384   21.4452 O   0  0  0  0  0  0  0  0  0  0  0  0
  -29.0367  -24.1940   20.8637 O   0  0  0  0  0  0  0  0  0  1  0  0
  -18.9460   -6.3157   26.2039 F   0  0  0  0  0  0  0  0  0  0  0  0
  -22.2157   -4.8158   23.1274 F   0  0  0  0  0  0  0  0  0  0  0  0
  1  2  1  0  0  0  0
  1  5  2  0  0  0  0
  2  6  2  0  0  0  0
  3  8  2  0  0  0  0
  3 16  1  0  0  0  0
  4  9  1  0  0  0  0
  4 16  2  0  0  0  0
  5 18  1  0  0  0  0
  6 20  1  0  0  0  0
  7 10  2  0  0  0  0
  7 19  1  0  0  0  0
  8 22  1  0  0  0  0
  9 22  2  0  0  0  0
 10 23  1  0  0  0  0
 11 12  2  0  0  0  0
 11 24  1  0  0  0  0
 12 25  1  0  0  0  0
 13 21  1  0  0  0  0
 13 23  2  0  0  0  0
 14 25  2  0  0  0  0
 14 26  1  0  0  0  0
 15 28  1  0  0  0  0
 15 29  2  0  0  0  0
 16 27  1  0  0  0  0
 17 27  1  0  0  0  0
 17 30  2  0  0  0  0
 17 31  1  0  0  0  0
 18 20  2  0  0  0  0
 18 36  1  0  0  0  0
 19 21  2  0  0  0  0
 19 37  1  0  0  0  0
 20 48  1  0  0  0  0
 21 38  1  0  0  0  0
 22 80  1  0  0  0  0
 23 81  1  0  0  0  0
 24 26  2  0  0  0  0
 24 80  1  0  0  0  0
 25 82  1  0  0  0  0
 26 83  1  0  0  0  0
 27 62  2  0  0  0  0
 28 58  1  0  0  0  0
 28 63  2  0  0  0  0
 29 64  1  0  0  0  0
 29 66  1  0  0  0  0
 30 65  1  0  0  0  0
 30 69  1  0  0  0  0
 31 70  1  0  0  0  0
 31 75  2  0  0  0  0
 32 49  1  0  0  0  0
 32 71  1  0  0  0  0
 32 76  2  0  0  0  0
 33 59  1  0  0  0  0
 33 67  1  0  0  0  0
 33 77  2  0  0  0  0
 34 60  1  0  0  0  0
 34 72  1  0  0  0  0
 34 78  2  0  0  0  0
 35 68  1  0  0  0  0
 35 73  1  0  0  0  0
 35 79  2  0  0  0  0
 36 39  1  0  0  0  0
 37 49  1  0  0  0  0
 38 67  1  0  0  0  0
 39 41  1  0  0  0  0
 40 42  1  0  0  0  0
 40 44  1  0  0  0  0
 41 48  1  0  0  0  0
 42 50  1  0  0  0  0
 43 45  1  0  0  0  0
 43 51  1  0  0  0  0
 44 68  1  0  0  0  0
 45 66  1  0  0  0  0
 46 50  1  0  0  0  0
 46 68  1  0  0  0  0
 47 51  1  0  0  0  0
 47 66  1  0  0  0  0
 48 71  1  0  0  0  0
 49 67  1  0  0  0  0
 50 65  1  0  0  0  0
 51 73  1  0  0  0  0
 52 60  1  0  0  0  0
 53 61  1  0  0  0  0
 54 61  1  0  0  0  0
 55 61  1  0  0  0  0
 56 64  1  0  0  0  0
 57 74  1  0  0  0  0
 58 81  1  0  0  0  0
 59 61  1  0  0  0  0
 59 72  1  0  0  0  0
 60 74  1  0  0  0  0
 62 65  1  0  0  0  0
 63 64  1  0  0  0  0
M  CHG  1  74   1
M  ISO  4  35 100  58 101  73 100  81 101
M  END
> <Batch ID>
0177

> <Smiles>
CNC(C)C(=O)NC(C(=O)N1Cc2cc([101O:1][101CH2:1]c3cc(N4CCC([100NH:0][100C:0](=O)N5CCCC(n6nc(-c7ccc(Oc8ccc(F)cc8F)cc7)c(C(N)=O)c6N)C5)C4)n(C)n3)ccc2CC1C(=O)NC1CCCc2ccccc21)C(C)(C)C

> <Shape>
0.318

> <Color>
0.207

> <Negative vol penalty>
0.000

$$$$

  -OEChem-04052322523D

 85 94  0     1  0  0  0  0  0999 V2000
  -17.9836  -10.6508   21.0414 C   0  0  0  0  0  0  0  0  0  0  0  0
  -18.1940  -12.0196   20.9098 C   0  0  0  0  0  0  0  0  0  0  0  0
  -21.4390  -29.8186   22.0844 C   0  0  0  0  0  0  0  0  0  0  0  0
  -22.7523  -28.1518   23.2394 C   0  0  0  0  0  0  0  0  0  0  0  0
  -18.8733   -9.8784   21.7868 C   0  0  0  0  0  0  0  0  0  0  0  0
  -19.2937  -12.6171   21.5246 C   0  0  0  0  0  0  0  0  0  0  0  0
  -23.9804  -17.9576   20.6132 C   0  0  0  0  0  0  0  0  0  0  0  0
  -20.3042  -29.4099   22.7849 C   0  0  0  0  0  0  0  0  0  0  0  0
  -21.6175  -27.7431   23.9399 C   0  0  0  0  0  0  0  0  0  0  0  0
  -24.4982  -19.0629   21.2870 C   0  0  0  0  0  0  0  0  0  0  0  0
  -18.0583  -26.8885   22.6341 C   0  0  0  0  0  0  0  0  0  0  0  0
  -16.8767  -26.7222   21.9118 C   0  0  0  0  0  0  0  0  0  0  0  0
  -26.0124  -17.6162   22.4843 C   0  0  0  0  0  0  0  0  0  0  0  0
  -27.6363  -21.7238   22.9628 C   0  0  0  0  0  0  0  0  0  0  0  0
  -15.8029  -28.3967   23.2830 C   0  0  0  0  0  0  0  0  0  0  0  0
  -28.6163  -20.7813   20.5972 C   0  0  0  0  0  0  0  0  0  0  0  0
  -22.6631  -29.1895   22.3116 C   0  0  0  0  0  0  0  0  0  0  0  0
  -24.7592  -30.6025   21.9692 C   0  0  0  0  0  0  0  0  0  0  0  0
  -19.9898  -10.4651   22.4031 C   0  0  0  0  0  0  0  0  0  0  0  0
  -24.4680  -16.6698   20.8783 C   0  0  0  0  0  0  0  0  0  0  0  0
  -20.1985  -11.8521   22.2801 C   0  0  0  0  0  0  0  0  0  0  0  0
  -25.5009  -16.4965   21.8107 C   0  0  0  0  0  0  0  0  0  0  0  0
  -28.7200  -22.3627   22.3705 C   0  0  0  0  0  0  0  0  0  0  0  0
  -29.2258  -21.8883   21.1653 C   0  0  0  0  0  0  0  0  0  0  0  0
  -20.3934  -28.3721   23.7127 C   0  0  0  0  0  0  0  0  0  0  0  0
  -25.5123  -18.8920   22.2248 C   0  0  0  0  0  0  0  0  0  0  0  0
  -18.1122  -27.8088   23.6809 C   0  0  0  0  0  0  0  0  0  0  0  0
  -15.7490  -27.4764   22.2362 C   0  0  0  0  0  0  0  0  0  0  0  0
  -16.9846  -28.5629   24.0054 C   0  0  0  0  0  0  0  0  0  0  0  0
  -23.8356  -29.6109   21.5879 C   0  0  0  0  0  0  0  0  0  0  0  0
  -27.0985  -20.6236   22.3148 C   0  0  0  0  0  0  0  0  0  1  0  0
  -25.6813  -30.6225   20.9514 C   0  0  0  0  0  0  0  0  0  0  0  0
  -24.7818  -31.4314   23.1388 C   0  0  0  0  0  0  0  0  0  0  0  0
  -23.2053  -13.9830   22.0145 C   0  0  0  0  0  0  0  0  0  0  0  0
  -26.1168  -12.7603   21.2723 C   0  0  0  0  0  0  0  0  0  0  0  0
  -29.4394  -13.3167   20.7268 C   0  0  0  0  0  0  0  0  0  0  0  0
  -27.4168  -26.5292   16.9409 C   0  0  0  0  0  0  0  0  0  0  0  0
  -20.8977   -9.5972   23.2380 C   0  0  0  0  0  0  0  0  0  0  0  0
  -23.9174  -15.4910   20.1236 C   0  0  0  0  0  0  0  0  0  0  0  0
  -26.0730  -15.1373   22.1169 C   0  0  0  0  0  0  0  0  0  0  0  0
  -22.2450  -10.2452   23.5467 C   0  0  0  0  0  0  0  0  0  0  0  0
  -26.1020  -29.7677   16.2627 C   0  0  0  0  0  0  0  0  0  0  0  0
  -22.0512  -11.6861   24.0080 C   0  0  0  0  0  0  0  0  0  0  0  0
  -25.4554  -30.1842   17.5850 C   0  0  0  0  0  0  0  0  0  0  0  0
  -30.2248  -25.3798   18.3183 C   0  0  0  0  0  0  0  0  0  0  0  0
  -25.9322  -28.2734   15.9975 C   0  0  0  0  0  0  0  0  0  0  0  0
  -25.7459  -27.8111   18.4111 C   0  0  0  0  0  0  0  0  0  0  0  0
  -31.0461  -24.1426   18.6460 C   0  0  0  0  0  0  0  0  0  0  0  0
  -28.6729  -23.7748   19.1111 C   0  0  0  0  0  0  0  0  0  0  0  0
  -21.3935  -12.5327   22.9115 C   0  0  1  0  0  0  0  0  0  0  0  0
  -24.1331  -14.1650   20.8466 C   0  0  1  0  0  0  0  0  0  0  0  0
  -25.9396  -29.2991   18.7493 C   0  0  2  0  0  0  0  0  0  0  0  0
  -28.8379  -24.8290   18.0344 C   0  0  1  0  0  0  0  0  0  0  0  0
  -29.3226  -23.5516   23.0425 C   0  0  0  0  0  0  0  0  0  0  0  0
  -31.5712  -21.5864   20.2704 C   0  0  0  0  0  0  0  0  0  0  0  0
  -31.5733  -12.1164   20.1763 C   0  0  0  0  0  0  0  0  0  0  0  0
  -26.2832  -11.7439   24.1445 C   0  0  0  0  0  0  0  0  0  0  0  0
  -28.7432  -11.4180   23.8129 C   0  0  0  0  0  0  0  0  0  0  0  0
  -27.1182  -10.1374   22.4193 C   0  0  0  0  0  0  0  0  0  0  0  0
  -29.7794  -14.8343   18.2088 C   0  0  0  0  0  0  0  0  0  0  0  0
  -30.3836  -22.5348   20.4872 C   0  0  1  0  0  0  0  0  0  0  0  0
  -27.4308  -12.6110   22.0004 C   0  0  1  0  0  0  0  0  0  0  0  0
  -30.3687  -12.8578   19.6177 C   0  0  2  0  0  0  0  0  0  0  0  0
  -27.3819  -11.5031   23.0901 C   0  0  0  0  0  0  0  0  0  0  0  0
  -27.5620  -20.1342   21.1428 N   0  0  0  0  0  0  0  0  0  0  0  0
  -24.1428  -29.0422   20.4190 N   0  0  0  0  0  0  0  0  0  0  0  0
  -25.2697  -29.6786   20.0570 N   0  0  0  0  0  0  0  0  0  0  0  0
  -25.4972  -14.0151   21.3575 N   0  0  0  0  0  0  0  0  0  0  0  0
  -26.4117  -27.4903   17.1388 N   0  0  0  0  0  0  0  0  0  0  0  0
  -26.7958  -31.3553   20.7431 N   0  0  0  0  0  0  0  0  0  0  0  0
  -23.7580  -31.2810   24.0842 N   0  0  0  0  0  0  0  0  0  0  0  0
  -22.3643  -12.8926   21.9003 N   0  0  0  0  0  0  0  0  0  0  0  0
  -28.4442  -12.3947   20.9734 N   0  0  0  0  0  0  0  0  0  0  0  0
  -27.8181  -25.8358   18.0763 N   0  0  0  0  0  0  0  0  0  0  0  0
  -30.0408  -23.1256   19.1575 N   0  3  2  0  0  0  0  0  0  0  0  0
  -30.8584  -14.0277   18.8350 N   0  3  0  0  0  0  0  0  0  0  0  0
  -25.6740  -32.2918   23.3318 O   0  0  0  0  0  0  0  0  0  0  0  0
  -23.2503  -14.7726   22.9505 O   0  0  0  0  0  0  0  0  0  0  0  0
  -25.6606  -11.8011   20.6450 O   0  0  0  0  0  0  0  0  0  0  0  0
  -29.5841  -14.3844   21.3180 O   0  0  0  0  0  0  0  0  0  0  0  0
  -27.9231  -26.3093   15.8353 O   0  0  0  0  0  0  0  0  0  0  0  0
  -19.2863  -27.9732   24.3966 O   0  0  0  0  0  0  0  0  0  0  0  0
  -26.0190  -19.9691   22.8843 O   0  0  0  0  0  0  0  0  0  1  0  0
  -14.6148  -27.3177   21.5415 F   0  0  0  0  0  0  0  0  0  0  0  0
  -17.0306  -29.4494   25.0092 F   0  0  0  0  0  0  0  0  0  0  0  0
  1  2  1  0  0  0  0
  1  5  2  0  0  0  0
  2  6  2  0  0  0  0
  3  8  2  0  0  0  0
  3 17  1  0  0  0  0
  4  9  1  0  0  0  0
  4 17  2  0  0  0  0
  5 19  1  0  0  0  0
  6 21  1  0  0  0  0
  7 10  2  0  0  0  0
  7 20  1  0  0  0  0
  8 25  1  0  0  0  0
  9 25  2  0  0  0  0
 10 26  1  0  0  0  0
 11 12  2  0  0  0  0
 11 27  1  0  0  0  0
 12 28  1  0  0  0  0
 13 22  1  0  0  0  0
 13 26  2  0  0  0  0
 14 23  2  0  0  0  0
 14 31  1  0  0  0  0
 15 28  2  0  0  0  0
 15 29  1  0  0  0  0
 16 24  2  0  0  0  0
 16 65  1  0  0  0  0
 17 30  1  0  0  0  0
 18 30  1  0  0  0  0
 18 32  2  0  0  0  0
 18 33  1  0  0  0  0
 19 21  2  0  0  0  0
 19 38  1  0  0  0  0
 20 22  2  0  0  0  0
 20 39  1  0  0  0  0
 21 50  1  0  0  0  0
 22 40  1  0  0  0  0
 23 24  1  0  0  0  0
 23 54  1  0  0  0  0
 24 61  1  0  0  0  0
 25 82  1  0  0  0  0
 26 83  1  0  0  0  0
 27 29  2  0  0  0  0
 27 82  1  0  0  0  0
 28 84  1  0  0  0  0
 29 85  1  0  0  0  0
 30 66  2  0  0  0  0
 31 65  2  0  0  0  0
 31 83  1  0  0  0  0
 32 67  1  0  0  0  0
 32 70  1  0  0  0  0
 33 71  1  0  0  0  0
 33 77  2  0  0  0  0
 34 51  1  0  0  0  0
 34 72  1  0  0  0  0
 34 78  2  0  0  0  0
 35 62  1  0  0  0  0
 35 68  1  0  0  0  0
 35 79  2  0  0  0  0
 36 63  1  0  0  0  0
 36 73  1  0  0  0  0
 36 80  2  0  0  0  0
 37 69  1  0  0  0  0
 37 74  1  0  0  0  0
 37 81  2  0  0  0  0
 38 41  1  0  0  0  0
 39 51  1  0  0  0  0
 40 68  1  0  0  0  0
 41 43  1  0  0  0  0
 42 44  1  0  0  0  0
 42 46  1  0  0  0  0
 43 50  1  0  0  0  0
 44 52  1  0  0  0  0
 45 48  1  0  0  0  0
 45 53  1  0  0  0  0
 46 69  1  0  0  0  0
 47 52  1  0  0  0  0
 47 69  1  0  0  0  0
 48 75  1  0  0  0  0
 49 53  1  0  0  0  0
 49 75  1  0  0  0  0
 50 72  1  0  0  0  0
 51 68  1  0  0  0  0
 52 67  1  0  0  0  0
 53 74  1  0  0  0  0
 55 61  1  0  0  0  0
 56 63  1  0  0  0  0
 57 64  1  0  0  0  0
 58 64  1  0  0  0  0
 59 64  1  0  0  0  0
 60 76  1  0  0  0  0
 61 75  1  0  0  0  0
 62 64  1  0  0  0  0
 62 73  1  0  0  0  0
 63 76  1  0  0  0  0
 66 67  1  0  0  0  0
M  CHG  2  75   1  76   1
M  ISO  4  31 101  37 100  74 100  83 101
M  END
> <Batch ID>
0177

> <Smiles>
CNC(C)C(=O)NC(C(=O)N1Cc2cc([101O:1][101c:1]3cc(C)c(C(C)N4CCC([100NH:0][100C:0](=O)N5CCCC(n6nc(-c7ccc(Oc8ccc(F)cc8F)cc7)c(C(N)=O)c6N)C5)C4)cn3)ccc2CC1C(=O)NC1CCCc2ccccc21)C(C)(C)C

> <Shape>
0.270

> <Color>
0.051

> <Negative vol penalty>
0.000

$$$$

  -OEChem-04052322523D

 84 93  0     1  0  0  0  0  0999 V2000
  -29.5074  -31.5606   26.0414 C   0  0  0  0  0  0  0  0  0  0  0  0
  -29.2391  -30.4359   25.2677 C   0  0  0  0  0  0  0  0  0  0  0  0
  -23.8309  -10.4698   22.6819 C   0  0  0  0  0  0  0  0  0  0  0  0
  -23.1507  -12.7560   23.0664 C   0  0  0  0  0  0  0  0  0  0  0  0
  -28.4561  -32.3134   26.5630 C   0  0  0  0  0  0  0  0  0  0  0  0
  -27.9193  -30.0627   25.0162 C   0  0  0  0  0  0  0  0  0  0  0  0
  -27.1417  -28.8207   20.1687 C   0  0  0  0  0  0  0  0  0  0  0  0
  -23.1271  -10.0694   23.8177 C   0  0  0  0  0  0  0  0  0  0  0  0
  -22.4468  -12.3556   24.2021 C   0  0  0  0  0  0  0  0  0  0  0  0
  -27.5692  -27.5588   19.7583 C   0  0  0  0  0  0  0  0  0  0  0  0
  -19.9141   -9.4444   24.6655 C   0  0  0  0  0  0  0  0  0  0  0  0
  -19.1185   -8.3031   24.5662 C   0  0  0  0  0  0  0  0  0  0  0  0
  -25.3084  -26.7385   19.9462 C   0  0  0  0  0  0  0  0  0  0  0  0
  -20.4134   -7.2485   26.3121 C   0  0  0  0  0  0  0  0  0  0  0  0
  -28.7179  -22.7007   19.4420 C   0  0  0  0  0  0  0  0  0  0  0  0
  -23.8427  -11.8132   22.3063 C   0  0  0  0  0  0  0  0  0  0  0  0
  -24.0836  -12.3047   19.8147 C   0  0  0  0  0  0  0  0  0  0  0  0
  -27.1227  -31.9548   26.3097 C   0  0  0  0  0  0  0  0  0  0  0  0
  -25.7940  -29.0487   20.4820 C   0  0  0  0  0  0  0  0  0  0  0  0
  -26.8492  -30.8106   25.5361 C   0  0  0  0  0  0  0  0  0  0  0  0
  -24.8660  -28.0050   20.3579 C   0  0  0  0  0  0  0  0  0  0  0  0
  -22.4351  -11.0123   24.5778 C   0  0  0  0  0  0  0  0  0  0  0  0
  -26.6530  -26.5167   19.6498 C   0  0  0  0  0  0  0  0  0  0  0  0
  -20.9595   -9.4878   25.5881 C   0  0  0  0  0  0  0  0  0  0  0  0
  -19.3681   -7.2051   25.3895 C   0  0  0  0  0  0  0  0  0  0  0  0
  -21.2091   -8.3898   26.4114 C   0  0  0  0  0  0  0  0  0  0  0  0
  -24.5700  -12.2275   21.1335 C   0  0  0  0  0  0  0  0  0  0  0  0
  -28.7071  -23.7186   18.5102 C   0  0  0  0  0  0  0  0  0  0  0  0
  -28.9562  -21.4366   18.9426 C   0  0  0  0  0  0  0  0  0  0  0  0
  -25.1552  -12.7482   19.0789 C   0  0  0  0  0  0  0  0  0  0  0  0
  -29.1337  -22.2508   16.8277 C   0  0  0  0  0  0  0  0  0  0  0  0
  -22.7796  -12.0027   19.3008 C   0  0  0  0  0  0  0  0  0  0  0  0
  -24.2169  -29.9285   23.0977 C   0  0  0  0  0  0  0  0  0  0  0  0
  -21.6830  -30.0012   21.0737 C   0  0  0  0  0  0  0  0  0  0  0  0
  -20.2599  -28.9033   18.1726 C   0  0  0  0  0  0  0  0  0  0  0  0
  -30.0355  -15.9187   20.4862 C   0  0  0  0  0  0  0  0  0  0  0  0
  -26.0199  -32.7723   26.9343 C   0  0  0  0  0  0  0  0  0  0  0  0
  -25.3442  -30.4225   20.8975 C   0  0  0  0  0  0  0  0  0  0  0  0
  -23.4044  -28.2030   20.6629 C   0  0  0  0  0  0  0  0  0  0  0  0
  -24.6493  -32.5244   26.3096 C   0  0  0  0  0  0  0  0  0  0  0  0
  -29.9387  -12.6784   19.0139 C   0  0  0  0  0  0  0  0  0  0  0  0
  -24.3963  -31.0282   26.1540 C   0  0  0  0  0  0  0  0  0  0  0  0
  -28.5079  -12.2024   19.2712 C   0  0  0  0  0  0  0  0  0  0  0  0
  -28.5818  -19.1134   21.7827 C   0  0  0  0  0  0  0  0  0  0  0  0
  -30.4786  -13.5006   20.1821 C   0  0  0  0  0  0  0  0  0  0  0  0
  -28.7596  -20.5456   21.2793 C   0  0  0  0  0  0  0  0  0  0  0  0
  -28.1977  -14.1604   20.8425 C   0  0  0  0  0  0  0  0  0  0  0  0
  -29.1885  -18.9938   19.4722 C   0  0  0  0  0  0  0  0  0  0  0  0
  -25.4308  -30.3879   25.2205 C   0  0  1  0  0  0  0  0  0  0  0  0
  -24.0382  -30.4107   21.6859 C   0  0  1  0  0  0  0  0  0  0  0  0
  -27.5899  -13.3741   19.6683 C   0  0  2  0  0  0  0  0  0  0  0  0
  -29.4344  -18.3041   20.8151 C   0  0  2  0  0  0  0  0  0  0  0  0
  -29.3647  -22.0010   15.3760 C   0  0  0  0  0  0  0  0  0  0  0  0
  -18.1661  -29.1085   16.8047 C   0  0  0  0  0  0  0  0  0  0  0  0
  -20.2296  -28.1622   23.0271 C   0  0  0  0  0  0  0  0  0  0  0  0
  -18.5844  -27.6486   21.2110 C   0  0  0  0  0  0  0  0  0  0  0  0
  -18.8148  -29.9832   22.0592 C   0  0  0  0  0  0  0  0  0  0  0  0
  -21.7372  -30.0286   15.8682 C   0  0  0  0  0  0  0  0  0  0  0  0
  -28.4558  -25.1285   18.9579 C   0  0  0  0  0  0  0  0  0  1  0  0
  -20.6473  -29.0005   20.6211 C   0  0  1  0  0  0  0  0  0  0  0  0
  -19.5674  -29.6480   17.0455 C   0  0  2  0  0  0  0  0  0  0  0  0
  -19.5968  -28.6941   21.7256 C   0  0  0  0  0  0  0  0  0  0  0  0
  -25.8510  -12.5924   21.2328 N   0  0  0  0  0  0  0  0  0  0  0  0
  -28.9120  -23.5287   17.1903 N   0  0  0  0  0  0  0  0  0  0  0  0
  -29.1688  -21.1745   17.6363 N   0  0  0  0  0  0  0  0  0  0  0  0
  -26.1786  -12.9032   19.9670 N   0  0  0  0  0  0  0  0  0  0  0  0
  -28.9752  -20.3920   19.8420 N   0  0  3  0  0  0  0  0  0  0  0  0
  -23.0148  -29.5627   21.0714 N   0  0  0  0  0  0  0  0  0  0  0  0
  -29.5624  -14.5964   20.5073 N   0  0  0  0  0  0  0  0  0  0  0  0
  -25.3125  -13.0166   17.7652 N   0  0  0  0  0  0  0  0  0  0  0  0
  -21.7955  -11.5588   20.1946 N   0  0  0  0  0  0  0  0  0  0  0  0
  -25.1118  -30.6766   23.8387 N   0  0  0  0  0  0  0  0  0  0  0  0
  -20.0789  -29.5313   19.3867 N   0  0  0  0  0  0  0  0  0  0  0  0
  -29.1004  -16.8973   20.8006 N   0  0  0  0  0  0  0  0  0  0  0  0
  -20.3459  -29.5150   15.7817 N   0  3  0  0  0  0  0  0  0  0  0  0
  -22.5002  -12.1072   18.0824 O   0  0  0  0  0  0  0  0  0  0  0  0
  -23.5881  -28.9512   23.4865 O   0  0  0  0  0  0  0  0  0  0  0  0
  -21.3244  -31.1325   21.4099 O   0  0  0  0  0  0  0  0  0  0  0  0
  -20.8947  -27.8660   17.9944 O   0  0  0  0  0  0  0  0  0  0  0  0
  -31.2033  -16.2065   20.2027 O   0  0  0  0  0  0  0  0  0  0  0  0
  -21.7480  -10.6219   25.6860 O   0  0  0  0  0  0  0  0  0  0  0  0
  -27.0677  -25.2837   19.2501 O   0  0  0  0  0  0  0  0  0  1  0  0
  -18.6029   -6.1097   25.2952 F   0  0  0  0  0  0  0  0  0  0  0  0
  -22.2112   -8.4261   27.3004 F   0  0  0  0  0  0  0  0  0  0  0  0
  1  2  1  0  0  0  0
  1  5  2  0  0  0  0
  2  6  2  0  0  0  0
  3  8  2  0  0  0  0
  3 16  1  0  0  0  0
  4  9  1  0  0  0  0
  4 16  2  0  0  0  0
  5 18  1  0  0  0  0
  6 20  1  0  0  0  0
  7 10  2  0  0  0  0
  7 19  1  0  0  0  0
  8 22  1  0  0  0  0
  9 22  2  0  0  0  0
 10 23  1  0  0  0  0
 11 12  2  0  0  0  0
 11 24  1  0  0  0  0
 12 25  1  0  0  0  0
 13 21  1  0  0  0  0
 13 23  2  0  0  0  0
 14 25  2  0  0  0  0
 14 26  1  0  0  0  0
 15 28  1  0  0  0  0
 15 29  2  0  0  0  0
 16 27  1  0  0  0  0
 17 27  1  0  0  0  0
 17 30  2  0  0  0  0
 17 32  1  0  0  0  0
 18 20  2  0  0  0  0
 18 37  1  0  0  0  0
 19 21  2  0  0  0  0
 19 38  1  0  0  0  0
 20 49  1  0  0  0  0
 21 39  1  0  0  0  0
 22 81  1  0  0  0  0
 23 82  1  0  0  0  0
 24 26  2  0  0  0  0
 24 81  1  0  0  0  0
 25 83  1  0  0  0  0
 26 84  1  0  0  0  0
 27 63  2  0  0  0  0
 28 59  1  0  0  0  0
 28 64  2  0  0  0  0
 29 65  1  0  0  0  0
 29 67  1  0  0  0  0
 30 66  1  0  0  0  0
 30 70  1  0  0  0  0
 31 53  1  0  0  0  0
 31 64  1  0  0  0  0
 31 65  2  0  0  0  0
 32 71  1  0  0  0  0
 32 76  2  0  0  0  0
 33 50  1  0  0  0  0
 33 72  1  0  0  0  0
 33 77  2  0  0  0  0
 34 60  1  0  0  0  0
 34 68  1  0  0  0  0
 34 78  2  0  0  0  0
 35 61  1  0  0  0  0
 35 73  1  0  0  0  0
 35 79  2  0  0  0  0
 36 69  1  0  0  0  0
 36 74  1  0  0  0  0
 36 80  2  0  0  0  0
 37 40  1  0  0  0  0
 38 50  1  0  0  0  0
 39 68  1  0  0  0  0
 40 42  1  0  0  0  0
 41 43  1  0  0  0  0
 41 45  1  0  0  0  0
 42 49  1  0  0  0  0
 43 51  1  0  0  0  0
 44 46  1  0  0  0  0
 44 52  1  0  0  0  0
 45 69  1  0  0  0  0
 46 67  1  0  0  0  0
 47 51  1  0  0  0  0
 47 69  1  0  0  0  0
 48 52  1  0  0  0  0
 48 67  1  0  0  0  0
 49 72  1  0  0  0  0
 50 68  1  0  0  0  0
 51 66  1  0  0  0  0
 52 74  1  0  0  0  0
 54 61  1  0  0  0  0
 55 62  1  0  0  0  0
 56 62  1  0  0  0  0
 57 62  1  0  0  0  0
 58 75  1  0  0  0  0
 59 82  1  0  0  0  0
 60 62  1  0  0  0  0
 60 73  1  0  0  0  0
 61 75  1  0  0  0  0
 63 66  1  0  0  0  0
M  CHG  1  75   1
M  ISO  4  36 100  59 101  74 100  82 101
M  END
> <Batch ID>
0177

> <Smiles>
CNC(C)C(=O)NC(C(=O)N1Cc2cc([101O:1][101CH2:1]c3cc(N4CCC([100NH:0][100C:0](=O)N5CCCC(n6nc(-c7ccc(Oc8ccc(F)cc8F)cc7)c(C(N)=O)c6N)C5)C4)nc(C)n3)ccc2CC1C(=O)NC1CCCc2ccccc21)C(C)(C)C

> <Shape>
0.302

> <Color>
0.076

> <Negative vol penalty>
0.000

$$$$

  -OEChem-04052322523D

 90100  0     1  0  0  0  0  0999 V2000
  -19.9921  -23.0316   13.4767 C   0  0  0  0  0  0  0  0  0  0  0  0
  -20.2314  -21.6639   13.5629 C   0  0  0  0  0  0  0  0  0  0  0  0
  -28.7645  -26.5395   17.6280 C   0  0  0  0  0  0  0  0  0  0  0  0
  -28.4865  -26.0161   19.9702 C   0  0  0  0  0  0  0  0  0  0  0  0
  -20.6297  -23.9064   14.3553 C   0  0  0  0  0  0  0  0  0  0  0  0
  -21.1095  -21.1702   14.5271 C   0  0  0  0  0  0  0  0  0  0  0  0
  -22.1519  -15.4639   18.7303 C   0  0  0  0  0  0  0  0  0  0  0  0
  -28.2477  -27.8155   17.8518 C   0  0  0  0  0  0  0  0  0  0  0  0
  -27.9697  -27.2922   20.1940 C   0  0  0  0  0  0  0  0  0  0  0  0
  -23.1385  -14.5363   19.0620 C   0  0  0  0  0  0  0  0  0  0  0  0
  -25.0321  -28.9045   19.7442 C   0  0  0  0  0  0  0  0  0  0  0  0
  -23.8855  -29.0105   20.5314 C   0  0  0  0  0  0  0  0  0  0  0  0
  -28.1342  -13.6795   20.5436 C   0  0  0  0  0  0  0  0  0  0  0  0
  -24.1225  -16.1342   20.5779 C   0  0  0  0  0  0  0  0  0  0  0  0
  -30.0694  -13.4531   19.0894 C   0  0  0  0  0  0  0  0  0  0  0  0
  -25.0922  -30.3928   22.1031 C   0  0  0  0  0  0  0  0  0  0  0  0
  -28.8839  -25.6397   18.6872 C   0  0  0  0  0  0  0  0  0  0  0  0
  -30.6922  -23.9953   17.9567 C   0  0  0  0  0  0  0  0  0  0  0  0
  -21.5087  -23.4224   15.3371 C   0  0  0  0  0  0  0  0  0  0  0  0
  -22.1495  -16.7395   19.3127 C   0  0  0  0  0  0  0  0  0  0  0  0
  -21.7606  -22.0396   15.4188 C   0  0  0  0  0  0  0  0  0  0  0  0
  -27.6009  -12.5380   19.9629 C   0  0  0  0  0  0  0  0  0  0  0  0
  -23.1332  -17.0752   20.2538 C   0  0  0  0  0  0  0  0  0  0  0  0
  -28.2946  -11.8580   18.9541 C   0  0  0  0  0  0  0  0  0  0  0  0
  -29.3785  -14.1339   20.1026 C   0  0  0  0  0  0  0  0  0  0  0  0
  -29.5254  -12.3087   18.5039 C   0  0  0  0  0  0  0  0  0  0  0  0
  -27.8503  -28.1919   19.1347 C   0  0  0  0  0  0  0  0  0  0  0  0
  -24.1257  -14.8724   19.9838 C   0  0  0  0  0  0  0  0  0  0  0  0
  -26.2088  -29.5427   20.1365 C   0  0  0  0  0  0  0  0  0  0  0  0
  -23.9155  -29.7546   21.7108 C   0  0  0  0  0  0  0  0  0  0  0  0
  -26.2389  -30.2868   21.3159 C   0  0  0  0  0  0  0  0  0  0  0  0
  -29.4172  -24.3212   18.4566 C   0  0  0  0  0  0  0  0  0  0  0  0
  -30.7082  -22.6223   17.9256 C   0  0  0  0  0  0  0  0  0  0  0  0
  -31.7661  -24.8568   17.5562 C   0  0  0  0  0  0  0  0  0  0  0  0
  -22.4150  -19.7091   18.2105 C   0  0  0  0  0  0  0  0  0  0  0  0
  -21.7689  -20.4945   21.2907 C   0  0  0  0  0  0  0  0  0  0  0  0
  -21.8046  -19.5875   24.5805 C   0  0  0  0  0  0  0  0  0  0  0  0
  -29.7534  -17.7986   20.3272 C   0  0  0  0  0  0  0  0  0  0  0  0
  -22.2110  -24.4110   16.2338 C   0  0  0  0  0  0  0  0  0  0  0  0
  -21.0627  -17.7193   18.9642 C   0  0  0  0  0  0  0  0  0  0  0  0
  -27.5225  -10.6809   18.4466 C   0  0  0  0  0  0  0  0  0  0  0  0
  -23.1633  -18.4243   20.9226 C   0  0  0  0  0  0  0  0  0  0  0  0
  -22.8390  -23.7728   17.4701 C   0  0  0  0  0  0  0  0  0  0  0  0
  -26.9707  -19.2691   18.5406 C   0  0  0  0  0  0  0  0  0  0  0  0
  -23.6143  -22.5163   17.0867 C   0  0  0  0  0  0  0  0  0  0  0  0
  -27.4723  -20.6971   18.3187 C   0  0  0  0  0  0  0  0  0  0  0  0
  -27.4013  -18.7376   19.9046 C   0  0  0  0  0  0  0  0  0  0  0  0
  -29.3737  -20.2151   19.9288 C   0  0  0  0  0  0  0  0  0  0  0  0
  -25.8248   -9.9871   21.7625 C   0  0  0  0  0  0  0  0  0  0  0  0
  -22.6874  -21.4635   16.4673 C   0  0  1  0  0  0  0  0  0  0  0  0
  -21.4561  -19.1685   19.2332 C   0  0  1  0  0  0  0  0  0  0  0  0
  -26.4354  -10.5034   19.5231 C   0  0  2  0  0  0  0  0  0  0  0  0
  -28.9902  -20.8014   18.5579 C   0  0  2  0  0  0  0  0  0  0  0  0
  -26.2846  -11.8720   20.2665 C   0  0  2  0  0  0  0  0  0  0  0  0
  -26.6982   -9.4451   20.6278 C   0  0  0  0  0  0  0  0  0  0  0  0
  -30.2636  -11.6021   17.4203 C   0  0  0  0  0  0  0  0  0  0  0  0
  -28.1626   -9.3162   21.0898 C   0  0  0  0  0  0  0  0  0  0  0  0
  -26.2115   -8.0583   20.1871 C   0  0  0  0  0  0  0  0  0  0  0  0
  -30.2163  -15.2154   22.2215 C   0  0  0  0  0  0  0  0  0  0  0  0
  -21.2495  -20.4545   26.8691 C   0  0  0  0  0  0  0  0  0  0  0  0
  -24.2970  -22.2026   21.2541 C   0  0  0  0  0  0  0  0  0  0  0  0
  -24.2101  -22.2608   23.7556 C   0  0  0  0  0  0  0  0  0  0  0  0
  -22.3481  -23.2485   22.4213 C   0  0  0  0  0  0  0  0  0  0  0  0
  -25.1405  -12.2679   22.5734 C   0  0  0  0  0  0  0  0  0  0  0  0
  -19.8051  -17.4525   25.0312 C   0  0  0  0  0  0  0  0  0  0  0  0
  -25.1026  -12.6722   19.7123 C   0  0  0  0  0  0  0  0  0  1  0  0
  -29.9779  -15.3576   20.7117 C   0  0  2  0  0  0  0  0  0  0  0  0
  -22.5980  -20.7350   22.5292 C   0  0  1  0  0  0  0  0  0  0  0  0
  -20.7436  -19.6796   25.6623 C   0  0  2  0  0  0  0  0  0  0  0  0
  -23.3641  -22.0869   22.4762 C   0  0  0  0  0  0  0  0  0  0  0  0
  -28.6768  -23.2420   18.7238 N   0  0  0  0  0  0  0  0  0  0  0  0
  -29.4892  -22.2247   18.3904 N   0  0  0  0  0  0  0  0  0  0  0  0
  -22.0829  -19.3501   20.5441 N   0  0  0  0  0  0  0  0  0  0  0  0
  -28.8585  -18.8483   20.0612 N   0  0  0  0  0  0  0  0  0  0  0  0
  -31.6460  -21.7284   17.5463 N   0  0  0  0  0  0  0  0  0  0  0  0
  -32.7116  -25.2374   18.5183 N   0  0  0  0  0  0  0  0  0  0  0  0
  -21.9285  -20.7888   17.4985 N   0  0  0  0  0  0  0  0  0  0  0  0
  -21.6867  -20.6085   23.6614 N   0  0  0  0  0  0  0  0  0  0  0  0
  -29.1843  -16.5365   20.4449 N   0  0  0  0  0  0  0  0  0  0  0  0
  -26.0966  -11.4767   21.7356 N   0  3  1  0  0  0  0  0  0  0  0  0
  -20.3438  -18.3165   26.1130 N   0  3  0  0  0  0  0  0  0  0  0  0
  -31.8745  -25.2899   16.3839 O   0  0  0  0  0  0  0  0  0  0  0  0
  -23.5153  -19.1862   18.0781 O   0  0  0  0  0  0  0  0  0  0  0  0
  -20.8709  -21.2889   21.0005 O   0  0  0  0  0  0  0  0  0  0  0  0
  -22.6553  -18.7008   24.5556 O   0  0  0  0  0  0  0  0  0  0  0  0
  -30.9712  -17.9725   20.4457 O   0  0  0  0  0  0  0  0  0  0  0  0
  -27.3461  -29.4372   19.3535 O   0  0  0  0  0  0  0  0  0  0  0  0
  -25.1094  -13.9514   20.3153 O   0  0  0  0  0  0  0  0  0  1  0  0
  -22.8140  -29.8576   22.4658 F   0  0  0  0  0  0  0  0  0  0  0  0
  -27.3661  -30.9031   21.6973 F   0  0  0  0  0  0  0  0  0  0  0  0
  1  2  1  0  0  0  0
  1  5  2  0  0  0  0
  2  6  2  0  0  0  0
  3  8  2  0  0  0  0
  3 17  1  0  0  0  0
  4  9  1  0  0  0  0
  4 17  2  0  0  0  0
  5 19  1  0  0  0  0
  6 21  1  0  0  0  0
  7 10  2  0  0  0  0
  7 20  1  0  0  0  0
  8 27  1  0  0  0  0
  9 27  2  0  0  0  0
 10 28  1  0  0  0  0
 11 12  2  0  0  0  0
 11 29  1  0  0  0  0
 12 30  1  0  0  0  0
 13 22  1  0  0  0  0
 13 25  2  0  0  0  0
 14 23  1  0  0  0  0
 14 28  2  0  0  0  0
 15 25  1  0  0  0  0
 15 26  2  0  0  0  0
 16 30  2  0  0  0  0
 16 31  1  0  0  0  0
 17 32  1  0  0  0  0
 18 32  1  0  0  0  0
 18 33  2  0  0  0  0
 18 34  1  0  0  0  0
 19 21  2  0  0  0  0
 19 39  1  0  0  0  0
 20 23  2  0  0  0  0
 20 40  1  0  0  0  0
 21 50  1  0  0  0  0
 22 24  2  0  0  0  0
 22 54  1  0  0  0  0
 23 42  1  0  0  0  0
 24 26  1  0  0  0  0
 24 41  1  0  0  0  0
 25 67  1  0  0  0  0
 26 56  1  0  0  0  0
 27 87  1  0  0  0  0
 28 88  1  0  0  0  0
 29 31  2  0  0  0  0
 29 87  1  0  0  0  0
 30 89  1  0  0  0  0
 31 90  1  0  0  0  0
 32 71  2  0  0  0  0
 33 72  1  0  0  0  0
 33 75  1  0  0  0  0
 34 76  1  0  0  0  0
 34 82  2  0  0  0  0
 35 51  1  0  0  0  0
 35 77  1  0  0  0  0
 35 83  2  0  0  0  0
 36 68  1  0  0  0  0
 36 73  1  0  0  0  0
 36 84  2  0  0  0  0
 37 69  1  0  0  0  0
 37 78  1  0  0  0  0
 37 85  2  0  0  0  0
 38 74  1  0  0  0  0
 38 79  1  0  0  0  0
 38 86  2  0  0  0  0
 39 43  1  0  0  0  0
 40 51  1  0  0  0  0
 41 52  1  0  0  0  0
 42 73  1  0  0  0  0
 43 45  1  0  0  0  0
 44 46  1  0  0  0  0
 44 47  1  0  0  0  0
 45 50  1  0  0  0  0
 46 53  1  0  0  0  0
 47 74  1  0  0  0  0
 48 53  1  0  0  0  0
 48 74  1  0  0  0  0
 49 55  1  0  0  0  0
 49 80  1  0  0  0  0
 50 77  1  0  0  0  0
 51 73  1  0  0  0  0
 52 54  1  0  0  0  0
 52 55  1  0  0  0  0
 53 72  1  0  0  0  0
 54 66  1  0  0  0  0
 54 80  1  0  0  0  0
 55 57  1  0  0  0  0
 55 58  1  0  0  0  0
 59 67  1  0  0  0  0
 60 69  1  0  0  0  0
 61 70  1  0  0  0  0
 62 70  1  0  0  0  0
 63 70  1  0  0  0  0
 64 80  1  0  0  0  0
 65 81  1  0  0  0  0
 66 88  1  0  0  0  0
 67 79  1  0  0  0  0
 68 70  1  0  0  0  0
 68 78  1  0  0  0  0
 69 81  1  0  0  0  0
 71 72  1  0  0  0  0
M  CHG  2  80   1  81   1
M  ISO  4  38 100  66 101  79 100  88 101
M  END
> <Batch ID>
0177

> <Smiles>
CNC(C)C(=O)NC(C(=O)N1Cc2cc([101O:1][101CH2:1]C34c5cc(C(C)[100NH:0][100C:0](=O)N6CCCC(n7nc(-c8ccc(Oc9ccc(F)cc9F)cc8)c(C(N)=O)c7N)C6)cc(C)c5CC3C(C)(C)CN4C)ccc2CC1C(=O)NC1CCCc2ccccc21)C(C)(C)C

> <Shape>
0.219

> <Color>
0.057

> <Negative vol penalty>
0.000

$$$$

  -OEChem-04052322523D

 84 93  0     1  0  0  0  0  0999 V2000
  -26.2315  -36.8680   22.3618 C   0  0  0  0  0  0  0  0  0  0  0  0
  -26.8541  -35.7046   21.9212 C   0  0  0  0  0  0  0  0  0  0  0  0
  -24.6982   -9.7416   21.7210 C   0  0  0  0  0  0  0  0  0  0  0  0
  -22.8566  -10.9198   20.6927 C   0  0  0  0  0  0  0  0  0  0  0  0
  -25.1873  -36.7927   23.2826 C   0  0  0  0  0  0  0  0  0  0  0  0
  -26.4335  -34.4651   22.4021 C   0  0  0  0  0  0  0  0  0  0  0  0
  -26.2836  -29.1772   19.3164 C   0  0  0  0  0  0  0  0  0  0  0  0
  -23.7985   -9.0192   22.5047 C   0  0  0  0  0  0  0  0  0  0  0  0
  -21.9569  -10.1974   21.4764 C   0  0  0  0  0  0  0  0  0  0  0  0
  -27.1569  -28.0912   19.2733 C   0  0  0  0  0  0  0  0  0  0  0  0
  -21.7302   -6.3718   22.1232 C   0  0  0  0  0  0  0  0  0  0  0  0
  -21.9297   -4.9961   22.2379 C   0  0  0  0  0  0  0  0  0  0  0  0
  -25.8162  -26.9551   20.9259 C   0  0  0  0  0  0  0  0  0  0  0  0
  -22.1662   -5.2299   24.6309 C   0  0  0  0  0  0  0  0  0  0  0  0
  -29.0833  -23.5511   18.8815 C   0  0  0  0  0  0  0  0  0  0  0  0
  -24.2273  -10.6920   20.8150 C   0  0  0  0  0  0  0  0  0  0  0  0
  -25.6446  -11.0912   18.7318 C   0  0  0  0  0  0  0  0  0  0  0  0
  -24.7473  -35.5511   23.7677 C   0  0  0  0  0  0  0  0  0  0  0  0
  -25.1742  -29.1647   20.1741 C   0  0  0  0  0  0  0  0  0  0  0  0
  -25.3834  -34.3732   23.3313 C   0  0  0  0  0  0  0  0  0  0  0  0
  -24.9289  -28.0411   20.9762 C   0  0  0  0  0  0  0  0  0  0  0  0
  -22.4279   -9.2470   22.3824 C   0  0  0  0  0  0  0  0  0  0  0  0
  -26.9249  -26.9812   20.0802 C   0  0  0  0  0  0  0  0  0  0  0  0
  -21.7487   -7.1766   23.2623 C   0  0  0  0  0  0  0  0  0  0  0  0
  -22.1477   -4.4251   23.4917 C   0  0  0  0  0  0  0  0  0  0  0  0
  -21.9667   -6.6056   24.5161 C   0  0  0  0  0  0  0  0  0  0  0  0
  -25.1562  -11.4390   20.0055 C   0  0  0  0  0  0  0  0  0  0  0  0
  -29.6827  -24.7503   19.2089 C   0  0  0  0  0  0  0  0  0  0  0  0
  -29.8933  -22.4369   18.9634 C   0  0  0  0  0  0  0  0  0  0  0  0
  -26.4897  -12.1203   18.3954 C   0  0  0  0  0  0  0  0  0  0  0  0
  -31.6575  -23.7061   19.6294 C   0  0  0  0  0  0  0  0  0  0  0  0
  -25.3597   -9.9407   17.9249 C   0  0  0  0  0  0  0  0  0  0  0  0
  -24.2235  -30.9342   22.6376 C   0  0  0  0  0  0  0  0  0  0  0  0
  -21.5504  -29.1101   22.4152 C   0  0  0  0  0  0  0  0  0  0  0  0
  -20.1155  -26.1843   21.4016 C   0  0  0  0  0  0  0  0  0  0  0  0
  -27.7646  -17.3218   17.9928 C   0  0  0  0  0  0  0  0  0  0  0  0
  -23.6463  -35.5230   24.7980 C   0  0  0  0  0  0  0  0  0  0  0  0
  -24.2268  -30.3329   20.1892 C   0  0  0  0  0  0  0  0  0  0  0  0
  -23.7409  -27.9697   21.8992 C   0  0  0  0  0  0  0  0  0  0  0  0
  -23.0119  -34.1458   24.9742 C   0  0  0  0  0  0  0  0  0  0  0  0
  -28.3307  -15.9223   21.1646 C   0  0  0  0  0  0  0  0  0  0  0  0
  -24.0895  -33.0720   25.0859 C   0  0  0  0  0  0  0  0  0  0  0  0
  -27.5884  -14.5916   21.0463 C   0  0  0  0  0  0  0  0  0  0  0  0
  -27.5612  -17.0683   20.5057 C   0  0  0  0  0  0  0  0  0  0  0  0
  -30.1680  -20.1449   18.0694 C   0  0  0  0  0  0  0  0  0  0  0  0
  -28.1559  -20.7611   19.4177 C   0  0  0  0  0  0  0  0  0  0  0  0
  -29.3300  -19.1078   17.3266 C   0  0  0  0  0  0  0  0  0  0  0  0
  -27.3514  -19.7232   18.6431 C   0  0  0  0  0  0  0  0  0  0  0  0
  -26.4403  -15.4759   18.9806 C   0  0  0  0  0  0  0  0  0  0  0  0
  -24.9392  -33.0083   23.8109 C   0  0  1  0  0  0  0  0  0  0  0  0
  -23.4147  -30.4269   21.4773 C   0  0  1  0  0  0  0  0  0  0  0  0
  -27.2169  -14.2945   19.5826 C   0  0  2  0  0  0  0  0  0  0  0  0
  -33.0869  -23.7922   20.0449 C   0  0  0  0  0  0  0  0  0  0  0  0
  -17.9216  -24.9661   21.3914 C   0  0  0  0  0  0  0  0  0  0  0  0
  -21.9052  -28.4512   25.3732 C   0  0  0  0  0  0  0  0  0  0  0  0
  -20.3105  -26.5454   25.0684 C   0  0  0  0  0  0  0  0  0  0  0  0
  -19.5428  -28.8864   24.6775 C   0  0  0  0  0  0  0  0  0  0  0  0
  -20.0440  -26.0997   18.4442 C   0  0  0  0  0  0  0  0  0  0  0  0
  -28.8866  -26.0106   19.1498 C   0  0  0  0  0  0  0  0  0  1  0  0
  -21.0993  -27.7976   23.0091 C   0  0  1  0  0  0  0  0  0  0  0  0
  -18.8420  -25.9031   20.6248 C   0  0  2  0  0  0  0  0  0  0  0  0
  -20.7380  -27.9220   24.5162 C   0  0  0  0  0  0  0  0  0  0  0  0
  -25.6501  -12.5983   20.4482 N   0  0  0  0  0  0  0  0  0  0  0  0
  -30.9723  -24.8647   19.5884 N   0  0  0  0  0  0  0  0  0  0  0  0
  -31.1896  -22.4781   19.3350 N   0  0  0  0  0  0  0  0  0  0  0  0
  -26.4576  -12.9879   19.4472 N   0  0  0  0  0  0  0  0  0  0  0  0
  -29.3225  -21.1995   18.6392 N   0  0  0  0  0  0  0  0  0  0  0  0
  -22.8471  -29.1395   21.8829 N   0  0  0  0  0  0  0  0  0  0  0  0
  -27.1938  -16.7231   19.1258 N   0  0  0  0  0  0  0  0  0  0  0  0
  -28.2029  -18.6484   18.1292 N   0  0  0  0  0  0  0  0  0  0  0  0
  -27.2497  -12.3585   17.3054 N   0  0  0  0  0  0  0  0  0  0  0  0
  -24.4685   -8.9800   18.4221 N   0  0  0  0  0  0  0  0  0  0  0  0
  -24.2261  -32.3104   22.7627 N   0  0  0  0  0  0  0  0  0  0  0  0
  -20.0043  -27.3244   22.1692 N   0  0  0  0  0  0  0  0  0  0  0  0
  -19.1639  -25.2755   19.3120 N   0  3  0  0  0  0  0  0  0  0  0  0
  -25.8927   -9.7617   16.8036 O   0  0  0  0  0  0  0  0  0  0  0  0
  -24.8012  -30.1361   23.3663 O   0  0  0  0  0  0  0  0  0  0  0  0
  -20.7779  -30.0719   22.4170 O   0  0  0  0  0  0  0  0  0  0  0  0
  -21.1082  -25.4626   21.3371 O   0  0  0  0  0  0  0  0  0  0  0  0
  -27.8797  -16.7093   16.9240 O   0  0  0  0  0  0  0  0  0  0  0  0
  -21.5496   -8.5421   23.1469 O   0  0  0  0  0  0  0  0  0  0  0  0
  -27.7820  -25.9128   20.0403 O   0  0  0  0  0  0  0  0  0  1  0  0
  -22.3378   -3.1038   23.6019 F   0  0  0  0  0  0  0  0  0  0  0  0
  -21.9844   -7.3736   25.6142 F   0  0  0  0  0  0  0  0  0  0  0  0
  1  2  1  0  0  0  0
  1  5  2  0  0  0  0
  2  6  2  0  0  0  0
  3  8  2  0  0  0  0
  3 16  1  0  0  0  0
  4  9  1  0  0  0  0
  4 16  2  0  0  0  0
  5 18  1  0  0  0  0
  6 20  1  0  0  0  0
  7 10  2  0  0  0  0
  7 19  1  0  0  0  0
  8 22  1  0  0  0  0
  9 22  2  0  0  0  0
 10 23  1  0  0  0  0
 11 12  2  0  0  0  0
 11 24  1  0  0  0  0
 12 25  1  0  0  0  0
 13 21  1  0  0  0  0
 13 23  2  0  0  0  0
 14 25  2  0  0  0  0
 14 26  1  0  0  0  0
 15 28  1  0  0  0  0
 15 29  2  0  0  0  0
 16 27  1  0  0  0  0
 17 27  1  0  0  0  0
 17 30  2  0  0  0  0
 17 32  1  0  0  0  0
 18 20  2  0  0  0  0
 18 37  1  0  0  0  0
 19 21  2  0  0  0  0
 19 38  1  0  0  0  0
 20 50  1  0  0  0  0
 21 39  1  0  0  0  0
 22 81  1  0  0  0  0
 23 82  1  0  0  0  0
 24 26  2  0  0  0  0
 24 81  1  0  0  0  0
 25 83  1  0  0  0  0
 26 84  1  0  0  0  0
 27 63  2  0  0  0  0
 28 59  1  0  0  0  0
 28 64  2  0  0  0  0
 29 65  1  0  0  0  0
 29 67  1  0  0  0  0
 30 66  1  0  0  0  0
 30 71  1  0  0  0  0
 31 53  1  0  0  0  0
 31 64  1  0  0  0  0
 31 65  2  0  0  0  0
 32 72  1  0  0  0  0
 32 76  2  0  0  0  0
 33 51  1  0  0  0  0
 33 73  1  0  0  0  0
 33 77  2  0  0  0  0
 34 60  1  0  0  0  0
 34 68  1  0  0  0  0
 34 78  2  0  0  0  0
 35 61  1  0  0  0  0
 35 74  1  0  0  0  0
 35 79  2  0  0  0  0
 36 69  1  0  0  0  0
 36 70  1  0  0  0  0
 36 80  2  0  0  0  0
 37 40  1  0  0  0  0
 38 51  1  0  0  0  0
 39 68  1  0  0  0  0
 40 42  1  0  0  0  0
 41 43  1  0  0  0  0
 41 44  1  0  0  0  0
 42 50  1  0  0  0  0
 43 52  1  0  0  0  0
 44 69  1  0  0  0  0
 45 47  1  0  0  0  0
 45 67  1  0  0  0  0
 46 48  1  0  0  0  0
 46 67  1  0  0  0  0
 47 70  1  0  0  0  0
 48 70  1  0  0  0  0
 49 52  1  0  0  0  0
 49 69  1  0  0  0  0
 50 73  1  0  0  0  0
 51 68  1  0  0  0  0
 52 66  1  0  0  0  0
 54 61  1  0  0  0  0
 55 62  1  0  0  0  0
 56 62  1  0  0  0  0
 57 62  1  0  0  0  0
 58 75  1  0  0  0  0
 59 82  1  0  0  0  0
 60 62  1  0  0  0  0
 60 74  1  0  0  0  0
 61 75  1  0  0  0  0
 63 66  1  0  0  0  0
M  CHG  1  75   1
M  ISO  4  36 100  59 101  70 100  82 101
M  END
> <Batch ID>
0177

> <Smiles>
CNC(C)C(=O)NC(C(=O)N1Cc2cc([101O:1][101CH2:1]c3cc(N4CC[100N:0]([100C:0](=O)N5CCCC(n6nc(-c7ccc(Oc8ccc(F)cc8F)cc7)c(C(N)=O)c6N)C5)CC4)nc(C)n3)ccc2CC1C(=O)NC1CCCc2ccccc21)C(C)(C)C

> <Shape>
0.343

> <Color>
0.076

> <Negative vol penalty>
0.000

$$$$

  -OEChem-04052322523D

 87 97  0     1  0  0  0  0  0999 V2000
  -32.3955  -31.0288   23.4425 C   0  0  0  0  0  0  0  0  0  0  0  0
  -31.8048  -29.8229   23.8060 C   0  0  0  0  0  0  0  0  0  0  0  0
  -23.0680   -9.9163   19.9127 C   0  0  0  0  0  0  0  0  0  0  0  0
  -23.8545   -9.8575   22.1963 C   0  0  0  0  0  0  0  0  0  0  0  0
  -32.0967  -31.6063   22.2092 C   0  0  0  0  0  0  0  0  0  0  0  0
  -30.9139  -29.1943   22.9368 C   0  0  0  0  0  0  0  0  0  0  0  0
  -31.7663  -24.2178   22.5456 C   0  0  0  0  0  0  0  0  0  0  0  0
  -22.3241   -8.7583   20.1391 C   0  0  0  0  0  0  0  0  0  0  0  0
  -23.1105   -8.6995   22.4227 C   0  0  0  0  0  0  0  0  0  0  0  0
  -31.3099  -23.4099   23.5861 C   0  0  0  0  0  0  0  0  0  0  0  0
  -21.1341   -5.9307   23.7055 C   0  0  0  0  0  0  0  0  0  0  0  0
  -20.3913   -5.8561   24.8838 C   0  0  0  0  0  0  0  0  0  0  0  0
  -29.3826  -22.8086   22.2658 C   0  0  0  0  0  0  0  0  0  0  0  0
  -32.1010  -16.5624   22.6038 C   0  0  0  0  0  0  0  0  0  0  0  0
  -19.1434   -7.8160   24.2212 C   0  0  0  0  0  0  0  0  0  0  0  0
  -29.9641  -17.4236   23.2664 C   0  0  0  0  0  0  0  0  0  0  0  0
  -23.8333  -10.4659   20.9413 C   0  0  0  0  0  0  0  0  0  0  0  0
  -24.1803  -12.9926   20.8878 C   0  0  0  0  0  0  0  0  0  0  0  0
  -31.2091  -30.9796   21.3203 C   0  0  0  0  0  0  0  0  0  0  0  0
  -31.0275  -24.3359   21.3595 C   0  0  0  0  0  0  0  0  0  0  0  0
  -30.6018  -29.7646   21.6910 C   0  0  0  0  0  0  0  0  0  0  0  0
  -29.8331  -23.6167   21.2107 C   0  0  0  0  0  0  0  0  0  0  0  0
  -28.5867  -17.7243   23.4372 C   0  0  0  0  0  0  0  0  0  0  0  0
  -30.7149  -16.5514   22.4611 C   0  0  0  0  0  0  0  0  0  0  0  0
  -22.3453   -8.1499   21.3941 C   0  0  0  0  0  0  0  0  0  0  0  0
  -30.1164  -22.7074   23.4475 C   0  0  0  0  0  0  0  0  0  0  0  0
  -20.8816   -6.9479   22.7851 C   0  0  0  0  0  0  0  0  0  0  0  0
  -19.3960   -6.7987   25.1417 C   0  0  0  0  0  0  0  0  0  0  0  0
  -19.8862   -7.8905   23.0429 C   0  0  0  0  0  0  0  0  0  0  0  0
  -24.6024  -11.6617   20.7080 C   0  0  0  0  0  0  0  0  0  0  0  0
  -28.4986  -18.7068   24.4045 C   0  0  0  0  0  0  0  0  0  0  0  0
  -32.6703  -17.4286   23.5272 C   0  0  0  0  0  0  0  0  0  0  0  0
  -30.6660  -18.2414   24.1513 C   0  0  0  0  0  0  0  0  0  0  0  0
  -25.2701  -13.7494   20.5329 C   0  0  0  0  0  0  0  0  0  0  0  0
  -22.9161  -13.4994   21.3358 C   0  0  0  0  0  0  0  0  0  0  0  0
  -29.5901  -26.7302   19.8413 C   0  0  0  0  0  0  0  0  0  0  0  0
  -29.1149  -24.4792   17.5544 C   0  0  0  0  0  0  0  0  0  0  0  0
  -28.8390  -21.1724   16.7571 C   0  0  0  0  0  0  0  0  0  0  0  0
  -30.7407  -14.7772   20.6728 C   0  0  0  0  0  0  0  0  0  0  0  0
  -30.8805  -31.6659   20.0181 C   0  0  0  0  0  0  0  0  0  0  0  0
  -31.5471  -25.1906   20.2361 C   0  0  0  0  0  0  0  0  0  0  0  0
  -27.3854  -17.1744   22.7480 C   0  0  0  0  0  0  0  0  0  0  0  0
  -29.0131  -23.6934   19.9497 C   0  0  0  0  0  0  0  0  0  0  0  0
  -27.2483  -19.3179   24.9271 C   0  0  0  0  0  0  0  0  0  0  0  0
  -30.2143  -30.7475   18.9968 C   0  0  0  0  0  0  0  0  0  0  0  0
  -26.0950  -17.5254   23.5143 C   0  0  0  0  0  0  0  0  0  0  0  0
  -26.0768  -18.9934   23.9813 C   0  0  0  0  0  0  0  0  0  0  0  0
  -29.5925  -12.4330   18.2513 C   0  0  0  0  0  0  0  0  0  0  0  0
  -29.0985  -29.9403   19.6526 C   0  0  0  0  0  0  0  0  0  0  0  0
  -28.1572  -12.1329   18.6894 C   0  0  0  0  0  0  0  0  0  0  0  0
  -30.5221  -12.6261   19.4481 C   0  0  0  0  0  0  0  0  0  0  0  0
  -28.6333  -13.3160   20.8712 C   0  0  0  0  0  0  0  0  0  0  0  0
  -29.6495  -29.0398   20.7649 C   0  0  1  0  0  0  0  0  0  0  0  0
  -30.4534  -25.6399   19.2722 C   0  0  1  0  0  0  0  0  0  0  0  0
  -27.6464  -13.1780   19.7005 C   0  0  2  0  0  0  0  0  0  0  0  0
  -34.1584  -17.4324   23.6722 C   0  0  0  0  0  0  0  0  0  0  0  0
  -28.4121  -19.6437   14.8133 C   0  0  0  0  0  0  0  0  0  0  0  0
  -26.1469  -25.1793   17.6589 C   0  0  0  0  0  0  0  0  0  0  0  0
  -25.6708  -23.0385   16.4511 C   0  0  0  0  0  0  0  0  0  0  0  0
  -27.0502  -24.8057   15.3569 C   0  0  0  0  0  0  0  0  0  0  0  0
  -31.4792  -19.8683   17.0535 C   0  0  0  0  0  0  0  0  0  0  0  0
  -30.1085  -20.0264   25.8962 C   0  0  0  0  0  0  0  0  0  0  0  0
  -30.6534  -21.3217   25.3042 C   0  0  0  0  0  0  0  0  0  1  0  0
  -28.0360  -23.4650   17.2604 C   0  0  1  0  0  0  0  0  0  0  0  0
  -29.4695  -20.3472   15.6498 C   0  0  2  0  0  0  0  0  0  0  0  0
  -26.7402  -24.1220   16.7065 C   0  0  0  0  0  0  0  0  0  0  0  0
  -25.8621  -11.5747   20.2724 N   0  0  0  0  0  0  0  0  0  0  0  0
  -32.0003  -18.2900   24.3271 N   0  0  0  0  0  0  0  0  0  0  0  0
  -29.7595  -19.0122   24.8343 N   0  0  0  0  0  0  0  0  0  0  0  0
  -26.2408  -12.8605   20.1756 N   0  0  0  0  0  0  0  0  0  0  0  0
  -29.5598  -24.5474   18.8823 N   0  0  0  0  0  0  0  0  0  0  0  0
  -29.9761  -13.6333   20.3604 N   0  0  0  0  0  0  0  0  0  0  0  0
  -25.4832  -15.0819   20.4946 N   0  0  0  0  0  0  0  0  0  0  0  0
  -21.9058  -12.5835   21.6594 N   0  0  0  0  0  0  0  0  0  0  0  0
  -30.1053  -15.6805   21.5242 N   0  0  0  0  0  0  0  0  0  0  0  0
  -30.2855  -27.8694   20.1990 N   0  0  0  0  0  0  0  0  0  0  0  0
  -28.6350  -22.4792   16.3672 N   0  0  0  0  0  0  0  0  0  0  0  0
  -30.3768  -19.3147   16.2257 N   0  3  0  0  0  0  0  0  0  0  0  0
  -22.6838  -14.7285   21.4302 O   0  0  0  0  0  0  0  0  0  0  0  0
  -28.3824  -26.5516   19.9465 O   0  0  0  0  0  0  0  0  0  0  0  0
  -29.5521  -25.1799   16.6382 O   0  0  0  0  0  0  0  0  0  0  0  0
  -28.5526  -20.7036   17.8565 O   0  0  0  0  0  0  0  0  0  0  0  0
  -31.8647  -14.9563   20.1969 O   0  0  0  0  0  0  0  0  0  0  0  0
  -21.6193   -7.0201   21.6154 O   0  0  0  0  0  0  0  0  0  0  0  0
  -29.6683  -21.9187   24.4618 O   0  0  0  0  0  0  0  0  0  1  0  0
  -18.6818   -6.7261   26.2725 F   0  0  0  0  0  0  0  0  0  0  0  0
  -19.6383   -8.8693   22.1619 F   0  0  0  0  0  0  0  0  0  0  0  0
  1  2  1  0  0  0  0
  1  5  2  0  0  0  0
  2  6  2  0  0  0  0
  3  8  2  0  0  0  0
  3 17  1  0  0  0  0
  4  9  1  0  0  0  0
  4 17  2  0  0  0  0
  5 19  1  0  0  0  0
  6 21  1  0  0  0  0
  7 10  2  0  0  0  0
  7 20  1  0  0  0  0
  8 25  1  0  0  0  0
  9 25  2  0  0  0  0
 10 26  1  0  0  0  0
 11 12  2  0  0  0  0
 11 27  1  0  0  0  0
 12 28  1  0  0  0  0
 13 22  1  0  0  0  0
 13 26  2  0  0  0  0
 14 24  2  0  0  0  0
 14 32  1  0  0  0  0
 15 28  2  0  0  0  0
 15 29  1  0  0  0  0
 16 23  1  0  0  0  0
 16 24  1  0  0  0  0
 16 33  2  0  0  0  0
 17 30  1  0  0  0  0
 18 30  1  0  0  0  0
 18 34  2  0  0  0  0
 18 35  1  0  0  0  0
 19 21  2  0  0  0  0
 19 40  1  0  0  0  0
 20 22  2  0  0  0  0
 20 41  1  0  0  0  0
 21 53  1  0  0  0  0
 22 43  1  0  0  0  0
 23 31  2  0  0  0  0
 23 42  1  0  0  0  0
 24 75  1  0  0  0  0
 25 84  1  0  0  0  0
 26 85  1  0  0  0  0
 27 29  2  0  0  0  0
 27 84  1  0  0  0  0
 28 86  1  0  0  0  0
 29 87  1  0  0  0  0
 30 67  2  0  0  0  0
 31 44  1  0  0  0  0
 31 69  1  0  0  0  0
 32 56  1  0  0  0  0
 32 68  2  0  0  0  0
 33 68  1  0  0  0  0
 33 69  1  0  0  0  0
 34 70  1  0  0  0  0
 34 73  1  0  0  0  0
 35 74  1  0  0  0  0
 35 79  2  0  0  0  0
 36 54  1  0  0  0  0
 36 76  1  0  0  0  0
 36 80  2  0  0  0  0
 37 64  1  0  0  0  0
 37 71  1  0  0  0  0
 37 81  2  0  0  0  0
 38 65  1  0  0  0  0
 38 77  1  0  0  0  0
 38 82  2  0  0  0  0
 39 72  1  0  0  0  0
 39 75  1  0  0  0  0
 39 83  2  0  0  0  0
 40 45  1  0  0  0  0
 41 54  1  0  0  0  0
 42 46  1  0  0  0  0
 43 71  1  0  0  0  0
 44 47  1  0  0  0  0
 45 49  1  0  0  0  0
 46 47  1  0  0  0  0
 48 50  1  0  0  0  0
 48 51  1  0  0  0  0
 49 53  1  0  0  0  0
 50 55  1  0  0  0  0
 51 72  1  0  0  0  0
 52 55  1  0  0  0  0
 52 72  1  0  0  0  0
 53 76  1  0  0  0  0
 54 71  1  0  0  0  0
 55 70  1  0  0  0  0
 57 65  1  0  0  0  0
 58 66  1  0  0  0  0
 59 66  1  0  0  0  0
 60 66  1  0  0  0  0
 61 78  1  0  0  0  0
 62 63  1  0  0  0  0
 62 69  1  0  0  0  0
 63 85  1  0  0  0  0
 64 66  1  0  0  0  0
 64 77  1  0  0  0  0
 65 78  1  0  0  0  0
 67 70  1  0  0  0  0
M  CHG  1  78   1
M  ISO  4  39 100  63 101  75 100  85 101
M  END
> <Batch ID>
0177

> <Smiles>
CNC(C)C(=O)NC(C(=O)N1Cc2cc([101O:1][101CH2:1]Cn3c4c(c5c([100NH:0][100C:0](=O)N6CCCC(n7nc(-c8ccc(Oc9ccc(F)cc9F)cc8)c(C(N)=O)c7N)C6)cc(C)nc53)CCCC4)ccc2CC1C(=O)NC1CCCc2ccccc21)C(C)(C)C

> <Shape>
0.233

> <Color>
0.211

> <Negative vol penalty>
0.000

$$$$

  -OEChem-04052322523D

 84 93  0     1  0  0  0  0  0999 V2000
  -24.1938   -8.3654   21.7207 C   0  0  0  0  0  0  0  0  0  0  0  0
  -24.8800   -9.5399   21.4291 C   0  0  0  0  0  0  0  0  0  0  0  0
  -23.2935  -26.3101   21.6133 C   0  0  0  0  0  0  0  0  0  0  0  0
  -23.1538  -28.6748   22.0884 C   0  0  0  0  0  0  0  0  0  0  0  0
  -22.7999   -8.3495   21.6965 C   0  0  0  0  0  0  0  0  0  0  0  0
  -24.1727  -10.6990   21.1120 C   0  0  0  0  0  0  0  0  0  0  0  0
  -25.9831  -14.7902   23.4846 C   0  0  0  0  0  0  0  0  0  0  0  0
  -22.1203  -26.0954   22.3365 C   0  0  0  0  0  0  0  0  0  0  0  0
  -21.9805  -28.4601   22.8117 C   0  0  0  0  0  0  0  0  0  0  0  0
  -27.1430  -15.3652   22.9671 C   0  0  0  0  0  0  0  0  0  0  0  0
  -18.7527  -28.5845   24.4801 C   0  0  0  0  0  0  0  0  0  0  0  0
  -17.6870  -29.4578   24.2628 C   0  0  0  0  0  0  0  0  0  0  0  0
  -25.8106  -17.0487   21.8672 C   0  0  0  0  0  0  0  0  0  0  0  0
  -17.6386  -28.8193   21.9332 C   0  0  0  0  0  0  0  0  0  0  0  0
  -23.8103  -27.5998   21.4893 C   0  0  0  0  0  0  0  0  0  0  0  0
  -25.1346  -28.1051   19.3683 C   0  0  0  0  0  0  0  0  0  0  0  0
  -22.0749   -9.5114   21.3884 C   0  0  0  0  0  0  0  0  0  0  0  0
  -24.7253  -15.3347   23.1879 C   0  0  0  0  0  0  0  0  0  0  0  0
  -22.7677  -10.6983   21.0823 C   0  0  0  0  0  0  0  0  0  0  0  0
  -24.6364  -16.4803   22.3843 C   0  0  0  0  0  0  0  0  0  0  0  0
  -21.4638  -27.1704   22.9357 C   0  0  0  0  0  0  0  0  0  0  0  0
  -27.0567  -16.4929   22.1559 C   0  0  0  0  0  0  0  0  0  0  0  0
  -19.2614  -27.8285   23.4239 C   0  0  0  0  0  0  0  0  0  0  0  0
  -17.1300  -29.5753   22.9894 C   0  0  0  0  0  0  0  0  0  0  0  0
  -18.7043  -27.9460   22.1505 C   0  0  0  0  0  0  0  0  0  0  0  0
  -25.0225  -27.8221   20.7428 C   0  0  0  0  0  0  0  0  0  0  0  0
  -26.4853  -28.2292   19.1524 C   0  0  0  0  0  0  0  0  0  0  0  0
  -31.2403  -18.2623   19.1773 C   0  0  0  0  0  0  0  0  0  0  0  0
  -29.3555  -18.6631   20.3277 C   0  0  0  0  0  0  0  0  0  0  0  0
  -30.9384  -20.2473   20.1801 C   0  0  0  0  0  0  0  0  0  0  0  0
  -24.1095  -28.2435   18.3755 C   0  0  0  0  0  0  0  0  0  0  0  0
  -22.1197  -14.2829   21.7019 C   0  0  0  0  0  0  0  0  0  0  0  0
  -20.8772  -17.1028   22.7150 C   0  0  0  0  0  0  0  0  0  0  0  0
  -21.4284  -20.3175   23.7194 C   0  0  0  0  0  0  0  0  0  0  0  0
  -31.1400  -25.9730   22.3542 C   0  0  0  0  0  0  0  0  0  0  0  0
  -20.5699   -9.4335   21.3284 C   0  0  0  0  0  0  0  0  0  0  0  0
  -23.4855  -14.7185   23.7757 C   0  0  0  0  0  0  0  0  0  0  0  0
  -23.3116  -17.1153   22.0524 C   0  0  0  0  0  0  0  0  0  0  0  0
  -19.8879  -10.7991   21.3493 C   0  0  0  0  0  0  0  0  0  0  0  0
  -30.5432  -29.4592   21.3726 C   0  0  0  0  0  0  0  0  0  0  0  0
  -20.5695  -11.7512   20.3717 C   0  0  0  0  0  0  0  0  0  0  0  0
  -29.0538  -29.4631   21.0256 C   0  0  0  0  0  0  0  0  0  0  0  0
  -29.6245  -23.2246   20.4395 C   0  0  0  0  0  0  0  0  0  0  0  0
  -30.8775  -28.4252   22.4454 C   0  0  0  0  0  0  0  0  0  0  0  0
  -29.3627  -24.4627   21.2908 C   0  0  0  0  0  0  0  0  0  0  0  0
  -28.9250  -27.0669   21.8006 C   0  0  0  0  0  0  0  0  0  0  0  0
  -31.5429  -23.5926   21.7952 C   0  0  0  0  0  0  0  0  0  0  0  0
  -22.0354  -11.9823   20.7579 C   0  0  1  0  0  0  0  0  0  0  0  0
  -22.2218  -15.0518   22.9887 C   0  0  1  0  0  0  0  0  0  0  0  0
  -28.5613  -28.0463   20.6761 C   0  0  1  0  0  0  0  0  0  0  0  0
  -30.6559  -22.4723   21.2732 C   0  0  2  0  0  0  0  0  0  0  0  0
  -32.0790  -17.3474   18.3517 C   0  0  0  0  0  0  0  0  0  0  0  0
  -20.2141  -22.3901   24.4456 C   0  0  0  0  0  0  0  0  0  0  0  0
  -20.0873  -17.6517   19.8193 C   0  0  0  0  0  0  0  0  0  0  0  0
  -19.7653  -20.0567   20.4362 C   0  0  0  0  0  0  0  0  0  0  0  0
  -18.3623  -18.2965   21.5114 C   0  0  0  0  0  0  0  0  0  0  0  0
  -22.7512  -20.3048   26.3669 C   0  0  0  0  0  0  0  0  0  0  0  0
  -28.0256  -18.2095   20.8254 C   0  0  0  0  0  0  0  0  0  1  0  0
  -20.7997  -18.5010   22.1511 C   0  0  1  0  0  0  0  0  0  0  0  0
  -20.8962  -21.1091   24.9003 C   0  0  2  0  0  0  0  0  0  0  0  0
  -19.7786  -18.6136   20.9840 C   0  0  0  0  0  0  0  0  0  0  0  0
  -26.2075  -27.7693   21.3567 N   0  0  0  0  0  0  0  0  0  0  0  0
  -30.0548  -17.7856   19.5903 N   0  0  0  0  0  0  0  0  0  0  0  0
  -31.7472  -19.4793   19.4324 N   0  0  0  0  0  0  0  0  0  0  0  0
  -29.7321  -19.9077   20.6625 N   0  0  0  0  0  0  0  0  0  0  0  0
  -27.0771  -28.0207   20.3634 N   0  0  0  0  0  0  0  0  0  0  0  0
  -22.1276  -16.4723   22.6459 N   0  0  0  0  0  0  0  0  0  0  0  0
  -30.3646  -27.1048   22.0793 N   0  0  0  0  0  0  0  0  0  0  0  0
  -30.6452  -24.7355   21.9446 N   0  0  0  0  0  0  0  0  0  0  0  0
  -27.2127  -28.4950   18.0466 N   0  0  0  0  0  0  0  0  0  0  0  0
  -22.7734  -28.0849   18.7681 N   0  0  0  0  0  0  0  0  0  0  0  0
  -31.3958  -21.5220   20.4856 N   0  0  0  0  0  0  0  0  0  0  0  0
  -22.1262  -12.9106   21.8644 N   0  0  0  0  0  0  0  0  0  0  0  0
  -20.5167  -19.3812   23.2796 N   0  0  0  0  0  0  0  0  0  0  0  0
  -22.0078  -21.4711   25.8245 N   0  3  0  0  0  0  0  0  0  0  0  0
  -24.3714  -28.4840   17.1726 O   0  0  0  0  0  0  0  0  0  0  0  0
  -22.0394  -14.8896   20.6402 O   0  0  0  0  0  0  0  0  0  0  0  0
  -19.8673  -16.5917   23.2053 O   0  0  0  0  0  0  0  0  0  0  0  0
  -22.5401  -20.5129   23.2332 O   0  0  0  0  0  0  0  0  0  0  0  0
  -32.2476  -26.0680   22.8994 O   0  0  0  0  0  0  0  0  0  0  0  0
  -20.3188  -26.9613   23.6413 O   0  0  0  0  0  0  0  0  0  0  0  0
  -28.1949  -17.0595   21.6455 O   0  0  0  0  0  0  0  0  0  1  0  0
  -16.1057  -30.4129   22.7813 F   0  0  0  0  0  0  0  0  0  0  0  0
  -19.1880  -27.2215   21.1321 F   0  0  0  0  0  0  0  0  0  0  0  0
  1  2  1  0  0  0  0
  1  5  2  0  0  0  0
  2  6  2  0  0  0  0
  3  8  2  0  0  0  0
  3 15  1  0  0  0  0
  4  9  1  0  0  0  0
  4 15  2  0  0  0  0
  5 17  1  0  0  0  0
  6 19  1  0  0  0  0
  7 10  2  0  0  0  0
  7 18  1  0  0  0  0
  8 21  1  0  0  0  0
  9 21  2  0  0  0  0
 10 22  1  0  0  0  0
 11 12  2  0  0  0  0
 11 23  1  0  0  0  0
 12 24  1  0  0  0  0
 13 20  1  0  0  0  0
 13 22  2  0  0  0  0
 14 24  2  0  0  0  0
 14 25  1  0  0  0  0
 15 26  1  0  0  0  0
 16 26  1  0  0  0  0
 16 27  2  0  0  0  0
 16 31  1  0  0  0  0
 17 19  2  0  0  0  0
 17 36  1  0  0  0  0
 18 20  2  0  0  0  0
 18 37  1  0  0  0  0
 19 48  1  0  0  0  0
 20 38  1  0  0  0  0
 21 81  1  0  0  0  0
 22 82  1  0  0  0  0
 23 25  2  0  0  0  0
 23 81  1  0  0  0  0
 24 83  1  0  0  0  0
 25 84  1  0  0  0  0
 26 62  2  0  0  0  0
 27 66  1  0  0  0  0
 27 70  1  0  0  0  0
 28 52  1  0  0  0  0
 28 63  2  0  0  0  0
 28 64  1  0  0  0  0
 29 58  1  0  0  0  0
 29 63  1  0  0  0  0
 29 65  2  0  0  0  0
 30 64  2  0  0  0  0
 30 65  1  0  0  0  0
 30 72  1  0  0  0  0
 31 71  1  0  0  0  0
 31 76  2  0  0  0  0
 32 49  1  0  0  0  0
 32 73  1  0  0  0  0
 32 77  2  0  0  0  0
 33 59  1  0  0  0  0
 33 67  1  0  0  0  0
 33 78  2  0  0  0  0
 34 60  1  0  0  0  0
 34 74  1  0  0  0  0
 34 79  2  0  0  0  0
 35 68  1  0  0  0  0
 35 69  1  0  0  0  0
 35 80  2  0  0  0  0
 36 39  1  0  0  0  0
 37 49  1  0  0  0  0
 38 67  1  0  0  0  0
 39 41  1  0  0  0  0
 40 42  1  0  0  0  0
 40 44  1  0  0  0  0
 41 48  1  0  0  0  0
 42 50  1  0  0  0  0
 43 45  1  0  0  0  0
 43 51  1  0  0  0  0
 44 68  1  0  0  0  0
 45 69  1  0  0  0  0
 46 50  1  0  0  0  0
 46 68  1  0  0  0  0
 47 51  1  0  0  0  0
 47 69  1  0  0  0  0
 48 73  1  0  0  0  0
 49 67  1  0  0  0  0
 50 66  1  0  0  0  0
 51 72  1  0  0  0  0
 53 60  1  0  0  0  0
 54 61  1  0  0  0  0
 55 61  1  0  0  0  0
 56 61  1  0  0  0  0
 57 75  1  0  0  0  0
 58 82  1  0  0  0  0
 59 61  1  0  0  0  0
 59 74  1  0  0  0  0
 60 75  1  0  0  0  0
 62 66  1  0  0  0  0
M  CHG  1  75   1
M  ISO  4  35 100  58 101  69 100  82 101
M  END
> <Batch ID>
0177

> <Smiles>
CNC(C)C(=O)NC(C(=O)N1Cc2cc([101O:1][101CH2:1]c3nc(C)nc(NC4CC[100N:0]([100C:0](=O)N5CCCC(n6nc(-c7ccc(Oc8ccc(F)cc8F)cc7)c(C(N)=O)c6N)C5)C4)n3)ccc2CC1C(=O)NC1CCCc2ccccc21)C(C)(C)C

> <Shape>
0.205

> <Color>
0.100

> <Negative vol penalty>
0.000

$$$$

  -OEChem-04052322523D

 85 94  0     1  0  0  0  0  0999 V2000
  -28.6448  -37.1847   20.3522 C   0  0  0  0  0  0  0  0  0  0  0  0
  -28.9728  -35.8574   20.0951 C   0  0  0  0  0  0  0  0  0  0  0  0
  -22.0076  -13.0900   21.6389 C   0  0  0  0  0  0  0  0  0  0  0  0
  -22.5234  -10.9433   20.6577 C   0  0  0  0  0  0  0  0  0  0  0  0
  -27.7444  -37.4944   21.3707 C   0  0  0  0  0  0  0  0  0  0  0  0
  -28.4013  -34.8390   20.8571 C   0  0  0  0  0  0  0  0  0  0  0  0
  -26.8423  -29.2365   18.9368 C   0  0  0  0  0  0  0  0  0  0  0  0
  -20.6868  -12.6849   21.8310 C   0  0  0  0  0  0  0  0  0  0  0  0
  -21.2026  -10.5382   20.8499 C   0  0  0  0  0  0  0  0  0  0  0  0
  -27.4843  -28.0021   19.0256 C   0  0  0  0  0  0  0  0  0  0  0  0
  -18.0541   -8.8088   21.4111 C   0  0  0  0  0  0  0  0  0  0  0  0
  -17.8355   -7.5342   21.9335 C   0  0  0  0  0  0  0  0  0  0  0  0
  -26.2014  -27.4838   21.0016 C   0  0  0  0  0  0  0  0  0  0  0  0
  -19.0685   -8.1375   23.9216 C   0  0  0  0  0  0  0  0  0  0  0  0
  -22.9259  -12.2193   21.0521 C   0  0  0  0  0  0  0  0  0  0  0  0
  -25.3654  -12.4859   21.7490 C   0  0  0  0  0  0  0  0  0  0  0  0
  -27.1542  -36.4786   22.1392 C   0  0  0  0  0  0  0  0  0  0  0  0
  -25.8813  -29.6090   19.8876 C   0  0  0  0  0  0  0  0  0  0  0  0
  -27.4932  -35.1354   21.8877 C   0  0  0  0  0  0  0  0  0  0  0  0
  -25.5468  -28.7224   20.9212 C   0  0  0  0  0  0  0  0  0  0  0  0
  -20.2843  -11.4090   21.4366 C   0  0  0  0  0  0  0  0  0  0  0  0
  -27.1660  -27.1267   20.0598 C   0  0  0  0  0  0  0  0  0  0  0  0
  -18.7800   -9.7479   22.1439 C   0  0  0  0  0  0  0  0  0  0  0  0
  -18.3426   -7.1985   23.1888 C   0  0  0  0  0  0  0  0  0  0  0  0
  -19.2872   -9.4122   23.3992 C   0  0  0  0  0  0  0  0  0  0  0  0
  -24.2903  -12.6374   20.8529 C   0  0  0  0  0  0  0  0  0  0  0  0
  -26.4381  -13.0414   21.0954 C   0  0  0  0  0  0  0  0  0  0  0  0
  -25.3920  -11.8957   23.0554 C   0  0  0  0  0  0  0  0  0  0  0  0
  -25.6301  -31.9475   22.0259 C   0  0  0  0  0  0  0  0  0  0  0  0
  -22.6608  -30.7125   22.4505 C   0  0  0  0  0  0  0  0  0  0  0  0
  -20.5806  -28.0186   22.2014 C   0  0  0  0  0  0  0  0  0  0  0  0
  -28.7033  -17.0478   18.0198 C   0  0  0  0  0  0  0  0  0  0  0  0
  -26.2225  -36.8650   23.2605 C   0  0  0  0  0  0  0  0  0  0  0  0
  -25.1786  -30.9330   19.7625 C   0  0  0  0  0  0  0  0  0  0  0  0
  -24.5075  -29.0663   21.9557 C   0  0  0  0  0  0  0  0  0  0  0  0
  -25.3748  -35.7046   23.7753 C   0  0  0  0  0  0  0  0  0  0  0  0
  -26.9798  -14.5302   16.3052 C   0  0  0  0  0  0  0  0  0  0  0  0
  -26.2395  -34.4667   23.9916 C   0  0  0  0  0  0  0  0  0  0  0  0
  -26.1967  -13.8047   17.3972 C   0  0  0  0  0  0  0  0  0  0  0  0
  -27.8926  -21.2191   19.9308 C   0  0  0  0  0  0  0  0  0  0  0  0
  -26.9894  -16.0331   16.5529 C   0  0  0  0  0  0  0  0  0  0  0  0
  -30.5561  -17.4901   19.5926 C   0  0  0  0  0  0  0  0  0  0  0  0
  -28.2569  -17.9122   20.3672 C   0  0  0  0  0  0  0  0  0  0  0  0
  -26.7911  -15.6939   18.9990 C   0  0  0  0  0  0  0  0  0  0  0  0
  -28.1446  -22.2502   21.0240 C   0  0  0  0  0  0  0  0  0  0  0  0
  -30.9758  -18.9536   19.6818 C   0  0  0  0  0  0  0  0  0  0  0  0
  -28.9354  -19.0227   21.1691 C   0  0  0  0  0  0  0  0  0  0  0  0
  -30.3304  -22.8719   19.9497 C   0  0  0  0  0  0  0  0  0  0  0  0
  -26.8753  -34.0011   22.6762 C   0  0  1  0  0  0  0  0  0  0  0  0
  -24.5868  -31.4223   21.0807 C   0  0  1  0  0  0  0  0  0  0  0  0
  -30.0920  -21.8422   18.8402 C   0  0  2  0  0  0  0  0  0  0  0  0
  -26.7383  -14.1663   18.7903 C   0  0  1  0  0  0  0  0  0  0  0  0
  -29.1812  -20.6890   19.2991 C   0  0  1  0  0  0  0  0  0  0  0  0
  -31.4286  -21.3577   18.2734 C   0  0  0  0  0  0  0  0  0  0  0  0
  -18.2194  -27.3038   22.6613 C   0  0  0  0  0  0  0  0  0  0  0  0
  -23.2984  -30.5310   25.4289 C   0  0  0  0  0  0  0  0  0  0  0  0
  -21.3513  -28.9774   25.6799 C   0  0  0  0  0  0  0  0  0  0  0  0
  -20.9839  -31.3195   24.9037 C   0  0  0  0  0  0  0  0  0  0  0  0
  -20.0808  -27.4260   19.3452 C   0  0  0  0  0  0  0  0  0  0  0  0
  -29.1798  -24.4710   21.4793 C   0  0  0  0  0  0  0  0  0  0  0  0
  -27.9602  -25.3711   21.4537 C   0  0  0  0  0  0  0  0  0  1  0  0
  -22.0620  -29.6503   23.3405 C   0  0  1  0  0  0  0  0  0  0  0  0
  -19.1809  -27.8761   21.6313 C   0  0  2  0  0  0  0  0  0  0  0  0
  -21.9449  -30.1136   24.8200 C   0  0  0  0  0  0  0  0  0  0  0  0
  -24.6474  -13.2419   19.7166 N   0  0  0  0  0  0  0  0  0  0  0  0
  -25.9589  -13.4753   19.8944 N   0  0  0  0  0  0  0  0  0  0  0  0
  -23.8529  -30.3750   21.7941 N   0  0  0  0  0  0  0  0  0  0  0  0
  -27.4931  -16.3530   17.8890 N   0  0  0  0  0  0  0  0  0  0  0  0
  -29.1297  -17.3618   19.3209 N   0  0  0  0  0  0  0  0  0  0  0  0
  -27.7350  -13.1962   21.4366 N   0  0  0  0  0  0  0  0  0  0  0  0
  -24.2009  -11.3722   23.5764 N   0  0  0  0  0  0  0  0  0  0  0  0
  -25.9054  -33.2925   21.8690 N   0  0  0  0  0  0  0  0  0  0  0  0
  -20.7914  -29.2747   22.7296 N   0  0  0  0  0  0  0  0  0  0  0  0
  -29.8853  -19.8105   20.2998 N   0  3  0  0  0  0  0  0  0  0  0  0
  -29.0017  -23.3648   20.4754 N   0  3  2  0  0  0  0  0  0  0  0  0
  -19.1936  -26.9718   20.4468 N   0  3  0  0  0  0  0  0  0  0  0  0
  -26.4374  -11.8491   23.7471 O   0  0  0  0  0  0  0  0  0  0  0  0
  -26.1461  -31.1890   22.8383 O   0  0  0  0  0  0  0  0  0  0  0  0
  -22.0881  -31.7991   22.3363 O   0  0  0  0  0  0  0  0  0  0  0  0
  -21.4032  -27.1057   22.1835 O   0  0  0  0  0  0  0  0  0  0  0  0
  -29.3546  -17.3962   17.0265 O   0  0  0  0  0  0  0  0  0  0  0  0
  -18.9956  -11.0132   21.6242 O   0  0  0  0  0  0  0  0  0  0  0  0
  -27.7960  -25.9129   20.1498 O   0  0  0  0  0  0  0  0  0  1  0  0
  -18.1313   -5.9749   23.6910 F   0  0  0  0  0  0  0  0  0  0  0  0
  -19.9843  -10.3105   24.1083 F   0  0  0  0  0  0  0  0  0  0  0  0
  1  2  1  0  0  0  0
  1  5  2  0  0  0  0
  2  6  2  0  0  0  0
  3  8  2  0  0  0  0
  3 15  1  0  0  0  0
  4  9  1  0  0  0  0
  4 15  2  0  0  0  0
  5 17  1  0  0  0  0
  6 19  1  0  0  0  0
  7 10  2  0  0  0  0
  7 18  1  0  0  0  0
  8 21  1  0  0  0  0
  9 21  2  0  0  0  0
 10 22  1  0  0  0  0
 11 12  2  0  0  0  0
 11 23  1  0  0  0  0
 12 24  1  0  0  0  0
 13 20  1  0  0  0  0
 13 22  2  0  0  0  0
 14 24  2  0  0  0  0
 14 25  1  0  0  0  0
 15 26  1  0  0  0  0
 16 26  1  0  0  0  0
 16 27  2  0  0  0  0
 16 28  1  0  0  0  0
 17 19  2  0  0  0  0
 17 33  1  0  0  0  0
 18 20  2  0  0  0  0
 18 34  1  0  0  0  0
 19 49  1  0  0  0  0
 20 35  1  0  0  0  0
 21 82  1  0  0  0  0
 22 83  1  0  0  0  0
 23 25  2  0  0  0  0
 23 82  1  0  0  0  0
 24 84  1  0  0  0  0
 25 85  1  0  0  0  0
 26 65  2  0  0  0  0
 27 66  1  0  0  0  0
 27 70  1  0  0  0  0
 28 71  1  0  0  0  0
 28 77  2  0  0  0  0
 29 50  1  0  0  0  0
 29 72  1  0  0  0  0
 29 78  2  0  0  0  0
 30 62  1  0  0  0  0
 30 67  1  0  0  0  0
 30 79  2  0  0  0  0
 31 63  1  0  0  0  0
 31 73  1  0  0  0  0
 31 80  2  0  0  0  0
 32 68  1  0  0  0  0
 32 69  1  0  0  0  0
 32 81  2  0  0  0  0
 33 36  1  0  0  0  0
 34 50  1  0  0  0  0
 35 67  1  0  0  0  0
 36 38  1  0  0  0  0
 37 39  1  0  0  0  0
 37 41  1  0  0  0  0
 38 49  1  0  0  0  0
 39 52  1  0  0  0  0
 40 45  1  0  0  0  0
 40 53  1  0  0  0  0
 41 68  1  0  0  0  0
 42 46  1  0  0  0  0
 42 69  1  0  0  0  0
 43 47  1  0  0  0  0
 43 69  1  0  0  0  0
 44 52  1  0  0  0  0
 44 68  1  0  0  0  0
 45 75  1  0  0  0  0
 46 74  1  0  0  0  0
 47 74  1  0  0  0  0
 48 51  1  0  0  0  0
 48 75  1  0  0  0  0
 49 72  1  0  0  0  0
 50 67  1  0  0  0  0
 51 53  1  0  0  0  0
 51 54  1  0  0  0  0
 52 66  1  0  0  0  0
 53 74  1  0  0  0  0
 55 63  1  0  0  0  0
 56 64  1  0  0  0  0
 57 64  1  0  0  0  0
 58 64  1  0  0  0  0
 59 76  1  0  0  0  0
 60 61  1  0  0  0  0
 60 75  1  0  0  0  0
 61 83  1  0  0  0  0
 62 64  1  0  0  0  0
 62 73  1  0  0  0  0
 63 76  1  0  0  0  0
 65 66  1  0  0  0  0
M  CHG  3  74   1  75   1  76   1
M  ISO  4  32 100  61 101  69 100  83 101
M  END
> <Batch ID>
0177

> <Smiles>
CNC(C)C(=O)NC(C(=O)N1Cc2cc([101O:1][101CH2:1]CN3CCC(N4CC[100N:0]([100C:0](=O)N5CCCC(n6nc(-c7ccc(Oc8ccc(F)cc8F)cc7)c(C(N)=O)c6N)C5)CC4)C(C)C3)ccc2CC1C(=O)NC1CCCc2ccccc21)C(C)(C)C

> <Shape>
0.279

> <Color>
0.066

> <Negative vol penalty>
0.000

$$$$

  -OEChem-04052322523D

 85 94  0     1  0  0  0  0  0999 V2000
  -19.3194  -32.4135   26.8111 C   0  0  0  0  0  0  0  0  0  0  0  0
  -20.6249  -31.9340   26.8465 C   0  0  0  0  0  0  0  0  0  0  0  0
  -25.0011   -8.6065   22.6925 C   0  0  0  0  0  0  0  0  0  0  0  0
  -24.9963   -8.3364   20.2917 C   0  0  0  0  0  0  0  0  0  0  0  0
  -18.4643  -32.0284   25.7794 C   0  0  0  0  0  0  0  0  0  0  0  0
  -21.0757  -31.0682   25.8507 C   0  0  0  0  0  0  0  0  0  0  0  0
  -26.9958  -29.3635   22.1951 C   0  0  0  0  0  0  0  0  0  0  0  0
  -23.7242   -8.0488   22.7578 C   0  0  0  0  0  0  0  0  0  0  0  0
  -23.7195   -7.7787   20.3569 C   0  0  0  0  0  0  0  0  0  0  0  0
  -27.7725  -28.2556   21.8590 C   0  0  0  0  0  0  0  0  0  0  0  0
  -20.6128   -6.3649   23.5936 C   0  0  0  0  0  0  0  0  0  0  0  0
  -20.3719   -5.4099   24.5813 C   0  0  0  0  0  0  0  0  0  0  0  0
  -26.2308  -27.7213   20.0822 C   0  0  0  0  0  0  0  0  0  0  0  0
  -22.1036   -4.0075   23.6478 C   0  0  0  0  0  0  0  0  0  0  0  0
  -25.6371   -8.7503   21.4594 C   0  0  0  0  0  0  0  0  0  0  0  0
  -28.1267   -8.8459   22.0075 C   0  0  0  0  0  0  0  0  0  0  0  0
  -18.9078  -31.1651   24.7652 C   0  0  0  0  0  0  0  0  0  0  0  0
  -25.8229  -29.6529   21.4830 C   0  0  0  0  0  0  0  0  0  0  0  0
  -20.2253  -30.6701   24.8052 C   0  0  0  0  0  0  0  0  0  0  0  0
  -25.4423  -28.8349   20.4096 C   0  0  0  0  0  0  0  0  0  0  0  0
  -23.0834   -7.6349   21.5900 C   0  0  0  0  0  0  0  0  0  0  0  0
  -27.3885  -27.4326   20.8043 C   0  0  0  0  0  0  0  0  0  0  0  0
  -21.5991   -6.1411   22.6329 C   0  0  0  0  0  0  0  0  0  0  0  0
  -21.1173   -4.2313   24.6084 C   0  0  0  0  0  0  0  0  0  0  0  0
  -22.3445   -4.9625   22.6600 C   0  0  0  0  0  0  0  0  0  0  0  0
  -26.9559   -9.3268   21.3913 C   0  0  0  0  0  0  0  0  0  0  0  0
  -29.1014   -9.7403   21.6378 C   0  0  0  0  0  0  0  0  0  0  0  0
  -28.3164   -7.6938   22.8395 C   0  0  0  0  0  0  0  0  0  0  0  0
  -22.7380  -29.8448   22.2249 C   0  0  0  0  0  0  0  0  0  0  0  0
  -22.4680  -30.8936   19.1672 C   0  0  0  0  0  0  0  0  0  0  0  0
  -23.7596  -30.9809   16.0095 C   0  0  0  0  0  0  0  0  0  0  0  0
  -29.0677  -15.3367   20.1926 C   0  0  0  0  0  0  0  0  0  0  0  0
  -17.9326  -30.7394   23.6964 C   0  0  0  0  0  0  0  0  0  0  0  0
  -25.0103  -30.8670   21.8410 C   0  0  0  0  0  0  0  0  0  0  0  0
  -24.2028  -29.1138   19.6007 C   0  0  0  0  0  0  0  0  0  0  0  0
  -18.6020  -30.1156   22.4745 C   0  0  0  0  0  0  0  0  0  0  0  0
  -30.2844  -12.7647   18.1314 C   0  0  0  0  0  0  0  0  0  0  0  0
  -25.5925  -21.2773   20.0304 C   0  0  0  0  0  0  0  0  0  0  0  0
  -19.6472  -29.0907   22.9034 C   0  0  0  0  0  0  0  0  0  0  0  0
  -29.6779  -11.5300   18.7974 C   0  0  0  0  0  0  0  0  0  0  0  0
  -26.4687  -20.0478   19.8545 C   0  0  0  0  0  0  0  0  0  0  0  0
  -29.3016  -13.9364   18.0927 C   0  0  0  0  0  0  0  0  0  0  0  0
  -26.4036  -22.4419   20.5887 C   0  0  0  0  0  0  0  0  0  0  0  0
  -28.8238  -16.8470   18.1718 C   0  0  0  0  0  0  0  0  0  0  0  0
  -30.0169  -17.6233   20.1872 C   0  0  0  0  0  0  0  0  0  0  0  0
  -28.1239  -13.0495   20.0791 C   0  0  0  0  0  0  0  0  0  0  0  0
  -27.8708  -18.0342   18.2672 C   0  0  0  0  0  0  0  0  0  0  0  0
  -29.0701  -18.8041   20.3277 C   0  0  0  0  0  0  0  0  0  0  0  0
  -20.7588  -29.7489   23.7296 C   0  0  1  0  0  0  0  0  0  0  0  0
  -23.5601  -30.7736   21.3768 C   0  0  1  0  0  0  0  0  0  0  0  0
  -29.1084  -11.8746   20.1850 C   0  0  1  0  0  0  0  0  0  0  0  0
  -27.6910  -20.3996   19.0105 C   0  0  1  0  0  0  0  0  0  0  0  0
  -28.4741  -21.6088   19.5824 C   0  0  1  0  0  0  0  0  0  0  0  0
  -29.6718  -21.9482   18.6766 C   0  0  0  0  0  0  0  0  0  0  0  0
  -23.2951  -31.8860   13.7155 C   0  0  0  0  0  0  0  0  0  0  0  0
  -20.3570  -28.7316   18.7442 C   0  0  0  0  0  0  0  0  0  0  0  0
  -20.6281  -29.0477   16.2754 C   0  0  0  0  0  0  0  0  0  0  0  0
  -19.8188  -30.9353   17.6914 C   0  0  0  0  0  0  0  0  0  0  0  0
  -26.2479  -32.5831   16.0114 C   0  0  0  0  0  0  0  0  0  0  0  0
  -28.2224  -23.9598   20.2676 C   0  0  0  0  0  0  0  0  0  0  0  0
  -27.4660  -25.2301   19.9105 C   0  0  0  0  0  0  0  0  0  1  0  0
  -22.2445  -30.2356   17.8270 C   0  0  1  0  0  0  0  0  0  0  0  0
  -23.9888  -32.1317   15.0464 C   0  0  2  0  0  0  0  0  0  0  0  0
  -20.7845  -29.7309   17.6508 C   0  0  0  0  0  0  0  0  0  0  0  0
  -27.1654  -10.4403   20.6840 N   0  0  0  0  0  0  0  0  0  0  0  0
  -28.4793  -10.6666   20.8535 N   0  0  0  0  0  0  0  0  0  0  0  0
  -23.4382  -30.3091   19.9935 N   0  0  0  0  0  0  0  0  0  0  0  0
  -28.7542  -14.2014   19.4305 N   0  0  0  0  0  0  0  0  0  0  0  0
  -29.3764  -16.5105   19.4894 N   0  0  0  0  0  0  0  0  0  0  0  0
  -27.5549  -22.7699   19.7293 N   0  0  2  0  0  0  0  0  0  0  0  0
  -30.4213   -9.8169   21.9104 N   0  0  0  0  0  0  0  0  0  0  0  0
  -28.6504   -6.4769   22.2297 N   0  0  0  0  0  0  0  0  0  0  0  0
  -21.6783  -30.4578   22.8658 N   0  0  0  0  0  0  0  0  0  0  0  0
  -22.6675  -31.2040   16.8212 N   0  0  0  0  0  0  0  0  0  0  0  0
  -28.5589  -19.1867   18.9583 N   0  3  0  0  0  0  0  0  0  0  0  0
  -25.4460  -32.3108   14.7908 N   0  3  0  0  0  0  0  0  0  0  0  0
  -28.1771   -7.7383   24.0854 O   0  0  0  0  0  0  0  0  0  0  0  0
  -23.0416  -28.6595   22.2916 O   0  0  0  0  0  0  0  0  0  0  0  0
  -21.8112  -31.8939   19.4668 O   0  0  0  0  0  0  0  0  0  0  0  0
  -24.4753  -29.9821   16.0364 O   0  0  0  0  0  0  0  0  0  0  0  0
  -29.0710  -15.3036   21.4297 O   0  0  0  0  0  0  0  0  0  0  0  0
  -21.8376   -7.0905   21.6534 O   0  0  0  0  0  0  0  0  0  0  0  0
  -28.1499  -26.3425   20.4722 O   0  0  0  0  0  0  0  0  0  1  0  0
  -20.8869   -3.3150   25.5579 F   0  0  0  0  0  0  0  0  0  0  0  0
  -23.2941   -4.7424   21.7404 F   0  0  0  0  0  0  0  0  0  0  0  0
  1  2  1  0  0  0  0
  1  5  2  0  0  0  0
  2  6  2  0  0  0  0
  3  8  2  0  0  0  0
  3 15  1  0  0  0  0
  4  9  1  0  0  0  0
  4 15  2  0  0  0  0
  5 17  1  0  0  0  0
  6 19  1  0  0  0  0
  7 10  2  0  0  0  0
  7 18  1  0  0  0  0
  8 21  1  0  0  0  0
  9 21  2  0  0  0  0
 10 22  1  0  0  0  0
 11 12  2  0  0  0  0
 11 23  1  0  0  0  0
 12 24  1  0  0  0  0
 13 20  1  0  0  0  0
 13 22  2  0  0  0  0
 14 24  2  0  0  0  0
 14 25  1  0  0  0  0
 15 26  1  0  0  0  0
 16 26  1  0  0  0  0
 16 27  2  0  0  0  0
 16 28  1  0  0  0  0
 17 19  2  0  0  0  0
 17 33  1  0  0  0  0
 18 20  2  0  0  0  0
 18 34  1  0  0  0  0
 19 49  1  0  0  0  0
 20 35  1  0  0  0  0
 21 82  1  0  0  0  0
 22 83  1  0  0  0  0
 23 25  2  0  0  0  0
 23 82  1  0  0  0  0
 24 84  1  0  0  0  0
 25 85  1  0  0  0  0
 26 65  2  0  0  0  0
 27 66  1  0  0  0  0
 27 71  1  0  0  0  0
 28 72  1  0  0  0  0
 28 77  2  0  0  0  0
 29 50  1  0  0  0  0
 29 73  1  0  0  0  0
 29 78  2  0  0  0  0
 30 62  1  0  0  0  0
 30 67  1  0  0  0  0
 30 79  2  0  0  0  0
 31 63  1  0  0  0  0
 31 74  1  0  0  0  0
 31 80  2  0  0  0  0
 32 68  1  0  0  0  0
 32 69  1  0  0  0  0
 32 81  2  0  0  0  0
 33 36  1  0  0  0  0
 34 50  1  0  0  0  0
 35 67  1  0  0  0  0
 36 39  1  0  0  0  0
 37 40  1  0  0  0  0
 37 42  1  0  0  0  0
 38 41  1  0  0  0  0
 38 43  1  0  0  0  0
 39 49  1  0  0  0  0
 40 51  1  0  0  0  0
 41 52  1  0  0  0  0
 42 68  1  0  0  0  0
 43 70  1  0  0  0  0
 44 47  1  0  0  0  0
 44 69  1  0  0  0  0
 45 48  1  0  0  0  0
 45 69  1  0  0  0  0
 46 51  1  0  0  0  0
 46 68  1  0  0  0  0
 47 75  1  0  0  0  0
 48 75  1  0  0  0  0
 49 73  1  0  0  0  0
 50 67  1  0  0  0  0
 51 66  1  0  0  0  0
 52 53  1  0  0  0  0
 52 75  1  0  0  0  0
 53 54  1  0  0  0  0
 53 70  1  0  0  0  0
 55 63  1  0  0  0  0
 56 64  1  0  0  0  0
 57 64  1  0  0  0  0
 58 64  1  0  0  0  0
 59 76  1  0  0  0  0
 60 61  1  0  0  0  0
 60 70  1  0  0  0  0
 61 83  1  0  0  0  0
 62 64  1  0  0  0  0
 62 74  1  0  0  0  0
 63 76  1  0  0  0  0
 65 66  1  0  0  0  0
M  CHG  2  75   1  76   1
M  ISO  4  32 100  61 101  69 100  83 101
M  END
> <Batch ID>
0177

> <Smiles>
CNC(C)C(=O)NC(C(=O)N1Cc2cc([101O:1][101CH2:1]CN3CCCC(N4CC[100N:0]([100C:0](=O)N5CCCC(n6nc(-c7ccc(Oc8ccc(F)cc8F)cc7)c(C(N)=O)c6N)C5)CC4)C3C)ccc2CC1C(=O)NC1CCCc2ccccc21)C(C)(C)C

> <Shape>
0.268

> <Color>
0.098

> <Negative vol penalty>
0.000

$$$$

  -OEChem-04052322523D

 86 96  0     1  0  0  0  0  0999 V2000
  -37.5095  -12.7365   23.0996 C   0  0  0  0  0  0  0  0  0  0  0  0
  -37.0439  -13.9587   22.6253 C   0  0  0  0  0  0  0  0  0  0  0  0
  -20.0510  -28.2207   21.5376 C   0  0  0  0  0  0  0  0  0  0  0  0
  -19.7060  -27.9075   23.9082 C   0  0  0  0  0  0  0  0  0  0  0  0
  -36.7809  -11.5727   22.8573 C   0  0  0  0  0  0  0  0  0  0  0  0
  -35.8498  -14.0176   21.9076 C   0  0  0  0  0  0  0  0  0  0  0  0
  -31.7284  -18.5469   21.9836 C   0  0  0  0  0  0  0  0  0  0  0  0
  -18.9000  -27.4789   21.2721 C   0  0  0  0  0  0  0  0  0  0  0  0
  -18.5550  -27.1657   23.6427 C   0  0  0  0  0  0  0  0  0  0  0  0
  -31.4966  -19.6186   21.1226 C   0  0  0  0  0  0  0  0  0  0  0  0
  -17.7881  -24.0228   22.6602 C   0  0  0  0  0  0  0  0  0  0  0  0
  -17.6067  -22.8332   23.3654 C   0  0  0  0  0  0  0  0  0  0  0  0
  -29.7957  -18.3348   19.9921 C   0  0  0  0  0  0  0  0  0  0  0  0
  -31.0733  -22.6518   17.1711 C   0  0  0  0  0  0  0  0  0  0  0  0
  -15.5445  -23.6926   24.2849 C   0  0  0  0  0  0  0  0  0  0  0  0
  -20.4540  -28.4350   22.8557 C   0  0  0  0  0  0  0  0  0  0  0  0
  -21.7320  -30.5918   23.3275 C   0  0  0  0  0  0  0  0  0  0  0  0
  -35.5725  -11.6188   22.1445 C   0  0  0  0  0  0  0  0  0  0  0  0
  -31.0020  -17.3550   21.8481 C   0  0  0  0  0  0  0  0  0  0  0  0
  -35.1051  -12.8532   21.6544 C   0  0  0  0  0  0  0  0  0  0  0  0
  -30.0184  -17.2503   20.8543 C   0  0  0  0  0  0  0  0  0  0  0  0
  -30.6660  -23.6546   16.3152 C   0  0  0  0  0  0  0  0  0  0  0  0
  -29.8907  -24.7167   16.7787 C   0  0  0  0  0  0  0  0  0  0  0  0
  -18.1520  -26.9514   22.3246 C   0  0  0  0  0  0  0  0  0  0  0  0
  -30.5322  -19.5117   20.1248 C   0  0  0  0  0  0  0  0  0  0  0  0
  -16.8476  -25.0475   22.7673 C   0  0  0  0  0  0  0  0  0  0  0  0
  -16.4849  -22.6680   24.1778 C   0  0  0  0  0  0  0  0  0  0  0  0
  -15.7258  -24.8823   23.5797 C   0  0  0  0  0  0  0  0  0  0  0  0
  -21.6432  -29.2007   23.1306 C   0  0  0  0  0  0  0  0  0  0  0  0
  -29.5349  -24.7523   18.1062 C   0  0  0  0  0  0  0  0  0  0  0  0
  -30.6772  -22.7779   18.4948 C   0  0  0  0  0  0  0  0  0  0  0  0
  -23.0671  -30.8222   23.5530 C   0  0  0  0  0  0  0  0  0  0  0  0
  -20.6998  -31.5868   23.3083 C   0  0  0  0  0  0  0  0  0  0  0  0
  -31.7495  -14.3333   21.2048 C   0  0  0  0  0  0  0  0  0  0  0  0
  -28.6056  -13.8316   21.8265 C   0  0  0  0  0  0  0  0  0  0  0  0
  -25.4430  -15.1053   21.9779 C   0  0  0  0  0  0  0  0  0  0  0  0
  -28.0321  -28.0738   22.0561 C   0  0  0  0  0  0  0  0  0  0  0  0
  -34.8439  -10.3278   21.8666 C   0  0  0  0  0  0  0  0  0  0  0  0
  -31.2454  -16.2177   22.8019 C   0  0  0  0  0  0  0  0  0  0  0  0
  -30.9008  -23.7727   14.8431 C   0  0  0  0  0  0  0  0  0  0  0  0
  -29.5280  -25.6489   15.6728 C   0  0  0  0  0  0  0  0  0  0  0  0
  -29.1973  -15.9998   20.6800 C   0  0  0  0  0  0  0  0  0  0  0  0
  -33.3978  -10.5283   21.4208 C   0  0  0  0  0  0  0  0  0  0  0  0
  -30.5620  -25.2536   14.6065 C   0  0  0  0  0  0  0  0  0  0  0  0
  -26.9963  -28.7313   25.2877 C   0  0  0  0  0  0  0  0  0  0  0  0
  -33.3144  -11.6122   20.3509 C   0  0  0  0  0  0  0  0  0  0  0  0
  -25.5130  -29.0660   25.1328 C   0  0  0  0  0  0  0  0  0  0  0  0
  -27.7619  -25.4024   19.7960 C   0  0  0  0  0  0  0  0  0  0  0  0
  -29.5207  -27.0844   19.0983 C   0  0  0  0  0  0  0  0  0  0  0  0
  -27.3883  -27.5622   24.3916 C   0  0  0  0  0  0  0  0  0  0  0  0
  -26.9214  -26.5497   20.3638 C   0  0  0  0  0  0  0  0  0  0  0  0
  -28.6302  -28.1907   19.6567 C   0  0  0  0  0  0  0  0  0  0  0  0
  -25.6005  -28.1163   22.7746 C   0  0  0  0  0  0  0  0  0  0  0  0
  -33.8017  -12.9613   20.8931 C   0  0  1  0  0  0  0  0  0  0  0  0
  -28.6758  -25.8773   18.6521 C   0  0  0  0  0  0  0  0  0  0  0  0
  -30.8061  -14.8669   22.2454 C   0  0  1  0  0  0  0  0  0  0  0  0
  -25.1500  -29.2993   23.6556 C   0  0  1  0  0  0  0  0  0  0  0  0
  -23.0751  -14.4440   22.4806 C   0  0  0  0  0  0  0  0  0  0  0  0
  -28.4182  -12.4490   19.1129 C   0  0  0  0  0  0  0  0  0  0  0  0
  -25.9279  -12.6662   19.2523 C   0  0  0  0  0  0  0  0  0  0  0  0
  -27.1573  -11.3149   20.9509 C   0  0  0  0  0  0  0  0  0  0  0  0
  -25.2634  -17.0200   24.2275 C   0  0  0  0  0  0  0  0  0  0  0  0
  -31.0885  -21.7313   19.4770 C   0  0  0  0  0  0  0  0  0  1  0  0
  -27.3393  -13.8360   21.0046 C   0  0  1  0  0  0  0  0  0  0  0  0
  -24.3686  -15.0095   23.0461 C   0  0  2  0  0  0  0  0  0  0  0  0
  -27.2273  -12.5895   20.0820 C   0  0  0  0  0  0  0  0  0  0  0  0
  -22.8277  -28.5903   23.2228 N   0  0  0  0  0  0  0  0  0  0  0  0
  -29.9218  -23.7985   18.9842 N   0  0  0  0  0  0  0  0  0  0  0  0
  -23.6733  -29.6026   23.4800 N   0  0  0  0  0  0  0  0  0  0  0  0
  -29.4767  -14.9131   21.6331 N   0  0  0  0  0  0  0  0  0  0  0  0
  -27.0242  -27.8205   22.9986 N   0  0  0  0  0  0  0  0  0  0  0  0
  -27.7764  -27.6867   20.7320 N   0  0  0  0  0  0  0  0  0  0  0  0
  -23.7699  -31.9469   23.8046 N   0  0  0  0  0  0  0  0  0  0  0  0
  -19.3821  -31.1779   23.0618 N   0  0  0  0  0  0  0  0  0  0  0  0
  -32.7820  -13.5722   21.7187 N   0  0  0  0  0  0  0  0  0  0  0  0
  -26.2386  -13.9794   21.9513 N   0  0  0  0  0  0  0  0  0  0  0  0
  -24.0832  -16.3565   23.6160 N   0  3  0  0  0  0  0  0  0  0  0  0
  -20.9413  -32.8046   23.4877 O   0  0  0  0  0  0  0  0  0  0  0  0
  -31.5542  -14.5916   20.0229 O   0  0  0  0  0  0  0  0  0  0  0  0
  -28.8107  -12.9066   22.6163 O   0  0  0  0  0  0  0  0  0  0  0  0
  -25.5621  -16.0797   21.2385 O   0  0  0  0  0  0  0  0  0  0  0  0
  -29.0976  -28.6147   22.3777 O   0  0  0  0  0  0  0  0  0  0  0  0
  -17.0286  -26.2277   22.0659 O   0  0  0  0  0  0  0  0  0  0  0  0
  -30.3027  -20.5635   19.2768 O   0  0  0  0  0  0  0  0  0  1  0  0
  -16.3102  -21.5249   24.8538 F   0  0  0  0  0  0  0  0  0  0  0  0
  -14.8183  -25.8626   23.6857 F   0  0  0  0  0  0  0  0  0  0  0  0
  1  2  1  0  0  0  0
  1  5  2  0  0  0  0
  2  6  2  0  0  0  0
  3  8  2  0  0  0  0
  3 16  1  0  0  0  0
  4  9  1  0  0  0  0
  4 16  2  0  0  0  0
  5 18  1  0  0  0  0
  6 20  1  0  0  0  0
  7 10  2  0  0  0  0
  7 19  1  0  0  0  0
  8 24  1  0  0  0  0
  9 24  2  0  0  0  0
 10 25  1  0  0  0  0
 11 12  2  0  0  0  0
 11 26  1  0  0  0  0
 12 27  1  0  0  0  0
 13 21  1  0  0  0  0
 13 25  2  0  0  0  0
 14 22  2  0  0  0  0
 14 31  1  0  0  0  0
 15 27  2  0  0  0  0
 15 28  1  0  0  0  0
 16 29  1  0  0  0  0
 17 29  1  0  0  0  0
 17 32  2  0  0  0  0
 17 33  1  0  0  0  0
 18 20  2  0  0  0  0
 18 38  1  0  0  0  0
 19 21  2  0  0  0  0
 19 39  1  0  0  0  0
 20 54  1  0  0  0  0
 21 42  1  0  0  0  0
 22 23  1  0  0  0  0
 22 40  1  0  0  0  0
 23 30  2  0  0  0  0
 23 41  1  0  0  0  0
 24 83  1  0  0  0  0
 25 84  1  0  0  0  0
 26 28  2  0  0  0  0
 26 83  1  0  0  0  0
 27 85  1  0  0  0  0
 28 86  1  0  0  0  0
 29 67  2  0  0  0  0
 30 55  1  0  0  0  0
 30 68  1  0  0  0  0
 31 63  1  0  0  0  0
 31 68  2  0  0  0  0
 32 69  1  0  0  0  0
 32 73  1  0  0  0  0
 33 74  1  0  0  0  0
 33 78  2  0  0  0  0
 34 56  1  0  0  0  0
 34 75  1  0  0  0  0
 34 79  2  0  0  0  0
 35 64  1  0  0  0  0
 35 70  1  0  0  0  0
 35 80  2  0  0  0  0
 36 65  1  0  0  0  0
 36 76  1  0  0  0  0
 36 81  2  0  0  0  0
 37 71  1  0  0  0  0
 37 72  1  0  0  0  0
 37 82  2  0  0  0  0
 38 43  1  0  0  0  0
 39 56  1  0  0  0  0
 40 44  1  0  0  0  0
 41 44  1  0  0  0  0
 42 70  1  0  0  0  0
 43 46  1  0  0  0  0
 45 47  1  0  0  0  0
 45 50  1  0  0  0  0
 46 54  1  0  0  0  0
 47 57  1  0  0  0  0
 48 51  1  0  0  0  0
 48 55  1  0  0  0  0
 49 52  1  0  0  0  0
 49 55  1  0  0  0  0
 50 71  1  0  0  0  0
 51 72  1  0  0  0  0
 52 72  1  0  0  0  0
 53 57  1  0  0  0  0
 53 71  1  0  0  0  0
 54 75  1  0  0  0  0
 56 70  1  0  0  0  0
 57 69  1  0  0  0  0
 58 65  1  0  0  0  0
 59 66  1  0  0  0  0
 60 66  1  0  0  0  0
 61 66  1  0  0  0  0
 62 77  1  0  0  0  0
 63 84  1  0  0  0  0
 64 66  1  0  0  0  0
 64 76  1  0  0  0  0
 65 77  1  0  0  0  0
 67 69  1  0  0  0  0
M  CHG  1  77   1
M  ISO  4  37 100  63 101  72 100  84 101
M  END
> <Batch ID>
0177

> <Smiles>
CNC(C)C(=O)NC(C(=O)N1Cc2cc([101O:1][101CH2:1]c3cc4c(c(C5CC[100N:0]([100C:0](=O)N6CCCC(n7nc(-c8ccc(Oc9ccc(F)cc9F)cc8)c(C(N)=O)c7N)C6)CC5)n3)CCC4)ccc2CC1C(=O)NC1CCCc2ccccc21)C(C)(C)C

> <Shape>
0.233

> <Color>
0.082

> <Negative vol penalty>
0.000

$$$$

  -OEChem-04052322523D

 84 93  0     1  0  0  0  0  0999 V2000
  -26.1458  -35.7897   15.6058 C   0  0  0  0  0  0  0  0  0  0  0  0
  -26.3699  -34.4207   15.7108 C   0  0  0  0  0  0  0  0  0  0  0  0
  -23.6276  -10.2549   21.7595 C   0  0  0  0  0  0  0  0  0  0  0  0
  -25.0320   -8.2895   21.7987 C   0  0  0  0  0  0  0  0  0  0  0  0
  -26.1997  -36.5931   16.7441 C   0  0  0  0  0  0  0  0  0  0  0  0
  -26.6493  -33.8544   16.9541 C   0  0  0  0  0  0  0  0  0  0  0  0
  -24.9624  -28.3113   18.9374 C   0  0  0  0  0  0  0  0  0  0  0  0
  -22.4943   -9.4440   21.7010 C   0  0  0  0  0  0  0  0  0  0  0  0
  -23.8987   -7.4785   21.7403 C   0  0  0  0  0  0  0  0  0  0  0  0
  -25.6366  -27.0927   19.0014 C   0  0  0  0  0  0  0  0  0  0  0  0
  -21.5195   -6.3688   23.8683 C   0  0  0  0  0  0  0  0  0  0  0  0
  -21.4636   -5.2727   24.7291 C   0  0  0  0  0  0  0  0  0  0  0  0
  -26.2138  -27.5396   21.3006 C   0  0  0  0  0  0  0  0  0  0  0  0
  -21.3046   -3.7887   22.8292 C   0  0  0  0  0  0  0  0  0  0  0  0
  -29.0300  -23.4212   19.4131 C   0  0  0  0  0  0  0  0  0  0  0  0
  -27.5989  -21.1883   19.7189 C   0  0  0  0  0  0  0  0  0  0  0  0
  -24.8965   -9.6777   21.8083 C   0  0  0  0  0  0  0  0  0  0  0  0
  -26.7100  -10.9967   23.0245 C   0  0  0  0  0  0  0  0  0  0  0  0
  -26.4703  -36.0349   18.0034 C   0  0  0  0  0  0  0  0  0  0  0  0
  -24.9179  -29.1596   20.0532 C   0  0  0  0  0  0  0  0  0  0  0  0
  -26.7083  -34.6513   18.1100 C   0  0  0  0  0  0  0  0  0  0  0  0
  -25.5361  -28.7673   21.2490 C   0  0  0  0  0  0  0  0  0  0  0  0
  -22.6298   -8.0558   21.6914 C   0  0  0  0  0  0  0  0  0  0  0  0
  -26.2649  -26.7079   20.1822 C   0  0  0  0  0  0  0  0  0  0  0  0
  -21.4678   -6.1749   22.4879 C   0  0  0  0  0  0  0  0  0  0  0  0
  -21.3563   -3.9826   24.2096 C   0  0  0  0  0  0  0  0  0  0  0  0
  -21.3604   -4.8849   21.9684 C   0  0  0  0  0  0  0  0  0  0  0  0
  -26.0677  -10.5149   21.8682 C   0  0  0  0  0  0  0  0  0  0  0  0
  -27.6552  -23.4412   19.3303 C   0  0  0  0  0  0  0  0  0  0  0  0
  -28.9738  -21.1681   19.8010 C   0  0  0  0  0  0  0  0  0  0  0  0
  -27.7632  -11.7387   22.5483 C   0  0  0  0  0  0  0  0  0  0  0  0
  -26.3839  -10.7918   24.4055 C   0  0  0  0  0  0  0  0  0  0  0  0
  -29.0227  -18.6913   20.2341 C   0  0  0  0  0  0  0  0  0  0  0  0
  -25.9418  -32.1040   20.6745 C   0  0  0  0  0  0  0  0  0  0  0  0
  -24.3476  -31.6507   23.4630 C   0  0  0  0  0  0  0  0  0  0  0  0
  -23.0900  -29.4605   25.7583 C   0  0  0  0  0  0  0  0  0  0  0  0
  -29.7248  -15.5755   18.9675 C   0  0  0  0  0  0  0  0  0  0  0  0
  -26.5651  -36.9505   19.1981 C   0  0  0  0  0  0  0  0  0  0  0  0
  -24.1638  -30.4587   19.9761 C   0  0  0  0  0  0  0  0  0  0  0  0
  -25.5005  -29.6326   22.4812 C   0  0  0  0  0  0  0  0  0  0  0  0
  -26.4970  -36.2166   20.5349 C   0  0  0  0  0  0  0  0  0  0  0  0
  -29.6844  -12.1335   17.8870 C   0  0  0  0  0  0  0  0  0  0  0  0
  -27.4165  -34.9996   20.5231 C   0  0  0  0  0  0  0  0  0  0  0  0
  -28.7731  -11.4500   18.9080 C   0  0  0  0  0  0  0  0  0  0  0  0
  -30.2963  -17.0891   21.9071 C   0  0  0  0  0  0  0  0  0  0  0  0
  -29.2494  -13.5708   17.6051 C   0  0  0  0  0  0  0  0  0  0  0  0
  -29.4451  -15.8677   21.5525 C   0  0  0  0  0  0  0  0  0  0  0  0
  -28.1763  -13.7276   19.8130 C   0  0  0  0  0  0  0  0  0  0  0  0
  -26.9897  -33.9962   19.4449 C   0  0  1  0  0  0  0  0  0  0  0  0
  -30.0747  -17.6062   20.4785 C   0  0  1  0  0  0  0  0  0  0  0  0
  -24.6198  -31.4770   21.0165 C   0  0  1  0  0  0  0  0  0  0  0  0
  -28.6224  -12.3045   20.1806 C   0  0  1  0  0  0  0  0  0  0  0  0
  -21.8729  -29.3885   27.9517 C   0  0  0  0  0  0  0  0  0  0  0  0
  -26.9213  -32.4140   24.9134 C   0  0  0  0  0  0  0  0  0  0  0  0
  -25.9566  -31.4235   27.0006 C   0  0  0  0  0  0  0  0  0  0  0  0
  -24.8377  -33.3698   25.9131 C   0  0  0  0  0  0  0  0  0  0  0  0
  -20.8025  -28.0038   24.5734 C   0  0  0  0  0  0  0  0  0  0  0  0
  -26.9322  -24.7159   19.0675 C   0  0  0  0  0  0  0  0  0  1  0  0
  -24.7044  -31.0939   24.8201 C   0  0  1  0  0  0  0  0  0  0  0  0
  -21.7346  -29.3807   26.4372 C   0  0  2  0  0  0  0  0  0  0  0  0
  -25.6075  -32.0596   25.6382 C   0  0  0  0  0  0  0  0  0  0  0  0
  -26.9149  -22.3252   19.4820 N   0  0  0  0  0  0  0  0  0  0  0  0
  -29.7140  -22.2842   19.6496 N   0  0  0  0  0  0  0  0  0  0  0  0
  -26.6629  -10.9171   20.7421 N   0  0  0  0  0  0  0  0  0  0  0  0
  -27.6903  -11.6596   21.1886 N   0  0  0  0  0  0  0  0  0  0  0  0
  -24.7559  -30.8963   22.3539 N   0  0  0  0  0  0  0  0  0  0  0  0
  -29.1116  -14.3255   18.8535 N   0  0  0  0  0  0  0  0  0  0  0  0
  -29.6122  -16.2516   20.1610 N   0  0  0  0  0  0  0  0  0  0  0  0
  -28.7352  -12.4446   23.1641 N   0  0  0  0  0  0  0  0  0  0  0  0
  -25.2690  -10.0023   24.7188 N   0  0  0  0  0  0  0  0  0  0  0  0
  -29.6177  -19.9334   20.0526 N   0  0  0  0  0  0  0  0  0  0  0  0
  -25.8410  -33.2358   19.8883 N   0  0  0  0  0  0  0  0  0  0  0  0
  -23.4412  -30.7624   25.4703 N   0  0  0  0  0  0  0  0  0  0  0  0
  -21.0272  -28.1318   26.0363 N   0  3  0  0  0  0  0  0  0  0  0  0
  -27.0515  -11.3074   25.3340 O   0  0  0  0  0  0  0  0  0  0  0  0
  -27.8278  -18.4144   20.2135 O   0  0  0  0  0  0  0  0  0  0  0  0
  -26.9765  -31.5992   21.0942 O   0  0  0  0  0  0  0  0  0  0  0  0
  -23.7233  -32.7120   23.3899 O   0  0  0  0  0  0  0  0  0  0  0  0
  -23.7710  -28.4675   25.5118 O   0  0  0  0  0  0  0  0  0  0  0  0
  -30.3836  -16.0650   18.0402 O   0  0  0  0  0  0  0  0  0  0  0  0
  -21.5240   -7.2641   21.6346 O   0  0  0  0  0  0  0  0  0  0  0  0
  -26.9286  -25.5114   20.2476 O   0  0  0  0  0  0  0  0  0  1  0  0
  -21.3042   -2.9300   25.0363 F   0  0  0  0  0  0  0  0  0  0  0  0
  -21.3115   -4.6923   20.6431 F   0  0  0  0  0  0  0  0  0  0  0  0
  1  2  1  0  0  0  0
  1  5  2  0  0  0  0
  2  6  2  0  0  0  0
  3  8  2  0  0  0  0
  3 17  1  0  0  0  0
  4  9  1  0  0  0  0
  4 17  2  0  0  0  0
  5 19  1  0  0  0  0
  6 21  1  0  0  0  0
  7 10  2  0  0  0  0
  7 20  1  0  0  0  0
  8 23  1  0  0  0  0
  9 23  2  0  0  0  0
 10 24  1  0  0  0  0
 11 12  2  0  0  0  0
 11 25  1  0  0  0  0
 12 26  1  0  0  0  0
 13 22  1  0  0  0  0
 13 24  2  0  0  0  0
 14 26  2  0  0  0  0
 14 27  1  0  0  0  0
 15 29  1  0  0  0  0
 15 63  2  0  0  0  0
 16 30  2  0  0  0  0
 16 62  1  0  0  0  0
 17 28  1  0  0  0  0
 18 28  1  0  0  0  0
 18 31  2  0  0  0  0
 18 32  1  0  0  0  0
 19 21  2  0  0  0  0
 19 38  1  0  0  0  0
 20 22  2  0  0  0  0
 20 39  1  0  0  0  0
 21 49  1  0  0  0  0
 22 40  1  0  0  0  0
 23 81  1  0  0  0  0
 24 82  1  0  0  0  0
 25 27  2  0  0  0  0
 25 81  1  0  0  0  0
 26 83  1  0  0  0  0
 27 84  1  0  0  0  0
 28 64  2  0  0  0  0
 29 58  1  0  0  0  0
 29 62  2  0  0  0  0
 30 63  1  0  0  0  0
 30 71  1  0  0  0  0
 31 65  1  0  0  0  0
 31 69  1  0  0  0  0
 32 70  1  0  0  0  0
 32 75  2  0  0  0  0
 33 50  1  0  0  0  0
 33 71  1  0  0  0  0
 33 76  2  0  0  0  0
 34 51  1  0  0  0  0
 34 72  1  0  0  0  0
 34 77  2  0  0  0  0
 35 59  1  0  0  0  0
 35 66  1  0  0  0  0
 35 78  2  0  0  0  0
 36 60  1  0  0  0  0
 36 73  1  0  0  0  0
 36 79  2  0  0  0  0
 37 67  1  0  0  0  0
 37 68  1  0  0  0  0
 37 80  2  0  0  0  0
 38 41  1  0  0  0  0
 39 51  1  0  0  0  0
 40 66  1  0  0  0  0
 41 43  1  0  0  0  0
 42 44  1  0  0  0  0
 42 46  1  0  0  0  0
 43 49  1  0  0  0  0
 44 52  1  0  0  0  0
 45 47  1  0  0  0  0
 45 50  1  0  0  0  0
 46 67  1  0  0  0  0
 47 68  1  0  0  0  0
 48 52  1  0  0  0  0
 48 67  1  0  0  0  0
 49 72  1  0  0  0  0
 50 68  1  0  0  0  0
 51 66  1  0  0  0  0
 52 65  1  0  0  0  0
 53 60  1  0  0  0  0
 54 61  1  0  0  0  0
 55 61  1  0  0  0  0
 56 61  1  0  0  0  0
 57 74  1  0  0  0  0
 58 82  1  0  0  0  0
 59 61  1  0  0  0  0
 59 73  1  0  0  0  0
 60 74  1  0  0  0  0
 64 65  1  0  0  0  0
M  CHG  1  74   1
M  ISO  4  37 100  58 101  68 100  82 101
M  END
> <Batch ID>
0177

> <Smiles>
CNC(C)C(=O)NC(C(=O)N1Cc2cc([101O:1][101CH2:1]c3cnc(NC(=O)C4CC[100N:0]4[100C:0](=O)N4CCCC(n5nc(-c6ccc(Oc7ccc(F)cc7F)cc6)c(C(N)=O)c5N)C4)cn3)ccc2CC1C(=O)NC1CCCc2ccccc21)C(C)(C)C

> <Shape>
0.302

> <Color>
0.110

> <Negative vol penalty>
0.000

$$$$

  -OEChem-04052322523D

 84 93  0     1  0  0  0  0  0999 V2000
  -24.8112  -31.4644   20.5168 C   0  0  0  0  0  0  0  0  0  0  0  0
  -25.3777  -30.4200   19.7931 C   0  0  0  0  0  0  0  0  0  0  0  0
  -26.2567  -12.7265   21.6233 C   0  0  0  0  0  0  0  0  0  0  0  0
  -25.7321  -13.6175   19.4397 C   0  0  0  0  0  0  0  0  0  0  0  0
  -24.1870  -31.2076   21.7367 C   0  0  0  0  0  0  0  0  0  0  0  0
  -25.3212  -29.1182   20.2896 C   0  0  0  0  0  0  0  0  0  0  0  0
  -24.0231  -25.7420   16.7454 C   0  0  0  0  0  0  0  0  0  0  0  0
  -29.7186  -22.0616   16.1871 C   0  0  0  0  0  0  0  0  0  0  0  0
  -25.0622  -12.0064   21.6165 C   0  0  0  0  0  0  0  0  0  0  0  0
  -24.5376  -12.8973   19.4328 C   0  0  0  0  0  0  0  0  0  0  0  0
  -25.0143  -25.3487   15.8472 C   0  0  0  0  0  0  0  0  0  0  0  0
  -23.8821   -9.1524   20.2398 C   0  0  0  0  0  0  0  0  0  0  0  0
  -23.9261   -7.8201   20.6502 C   0  0  0  0  0  0  0  0  0  0  0  0
  -29.5863  -21.1079   17.1903 C   0  0  0  0  0  0  0  0  0  0  0  0
  -25.3575  -23.3283   17.1198 C   0  0  0  0  0  0  0  0  0  0  0  0
  -22.3663   -8.3159   22.4274 C   0  0  0  0  0  0  0  0  0  0  0  0
  -26.5916  -13.5322   20.5350 C   0  0  0  0  0  0  0  0  0  0  0  0
  -29.0790  -13.8490   20.0657 C   0  0  0  0  0  0  0  0  0  0  0  0
  -24.1144  -29.9006   22.2438 C   0  0  0  0  0  0  0  0  0  0  0  0
  -23.6988  -24.9351   17.8455 C   0  0  0  0  0  0  0  0  0  0  0  0
  -24.6967  -28.8438   21.5181 C   0  0  0  0  0  0  0  0  0  0  0  0
  -29.6170  -23.4121   16.5017 C   0  0  0  0  0  0  0  0  0  0  0  0
  -24.3601  -23.7124   18.0290 C   0  0  0  0  0  0  0  0  0  0  0  0
  -24.2026  -12.0917   20.5212 C   0  0  0  0  0  0  0  0  0  0  0  0
  -25.6836  -24.1432   16.0359 C   0  0  0  0  0  0  0  0  0  0  0  0
  -23.0803  -10.0666   20.9232 C   0  0  0  0  0  0  0  0  0  0  0  0
  -23.1682   -7.4018   21.7439 C   0  0  0  0  0  0  0  0  0  0  0  0
  -22.3224   -9.6484   22.0170 C   0  0  0  0  0  0  0  0  0  0  0  0
  -27.8251  -14.2768   20.5417 C   0  0  0  0  0  0  0  0  0  0  0  0
  -29.3844  -23.7543   17.8240 C   0  0  0  0  0  0  0  0  0  0  0  0
  -29.3553  -21.5532   18.4818 C   0  0  0  0  0  0  0  0  0  0  0  0
  -29.9158  -14.9131   20.2980 C   0  0  0  0  0  0  0  0  0  0  0  0
  -29.4538  -12.6013   19.4671 C   0  0  0  0  0  0  0  0  0  0  0  0
  -23.8173  -25.2923   21.0018 C   0  0  0  0  0  0  0  0  0  0  0  0
  -22.3202  -22.4147   20.9927 C   0  0  0  0  0  0  0  0  0  0  0  0
  -21.6585  -19.4983   19.3484 C   0  0  0  0  0  0  0  0  0  0  0  0
  -28.9884  -20.7898   20.8544 C   0  0  0  0  0  0  0  0  0  0  0  0
  -23.4709  -29.6788   23.5896 C   0  0  0  0  0  0  0  0  0  0  0  0
  -22.6086  -25.3608   18.7904 C   0  0  0  0  0  0  0  0  0  0  0  0
  -24.0350  -22.8003   19.1828 C   0  0  0  0  0  0  0  0  0  0  0  0
  -23.1250  -28.2179   23.8660 C   0  0  0  0  0  0  0  0  0  0  0  0
  -30.5068  -18.6375   23.2499 C   0  0  0  0  0  0  0  0  0  0  0  0
  -24.2991  -27.3137   23.5046 C   0  0  0  0  0  0  0  0  0  0  0  0
  -30.1106  -17.2358   22.7805 C   0  0  0  0  0  0  0  0  0  0  0  0
  -29.4966  -25.0896   13.1327 C   0  0  0  0  0  0  0  0  0  0  0  0
  -29.3841  -19.6490   23.0262 C   0  0  0  0  0  0  0  0  0  0  0  0
  -28.4590  -18.2950   21.1877 C   0  0  0  0  0  0  0  0  0  0  0  0
  -30.9516  -24.6963   13.2870 C   0  0  0  0  0  0  0  0  0  0  0  0
  -24.6340  -27.4146   22.0116 C   0  0  1  0  0  0  0  0  0  0  0  0
  -29.7580  -24.4515   15.4186 C   0  0  2  0  0  0  0  0  0  0  0  0
  -22.7178  -24.7045   20.1632 C   0  0  1  0  0  0  0  0  0  0  0  0
  -28.8004  -24.2885   14.2281 C   0  0  1  0  0  0  0  0  0  0  0  0
  -29.5817  -17.2548   21.3329 C   0  0  2  0  0  0  0  0  0  0  0  0
  -29.2651  -25.1899   18.2190 C   0  0  0  0  0  0  0  0  0  0  0  0
  -20.4349  -17.3230   19.6104 C   0  0  0  0  0  0  0  0  0  0  0  0
  -24.5156  -21.4071   22.8568 C   0  0  0  0  0  0  0  0  0  0  0  0
  -23.7996  -19.0683   22.3223 C   0  0  0  0  0  0  0  0  0  0  0  0
  -22.2116  -20.6315   23.4436 C   0  0  0  0  0  0  0  0  0  0  0  0
  -19.9253  -20.0588   17.0158 C   0  0  0  0  0  0  0  0  0  0  0  0
  -27.3925  -24.7915   14.5142 C   0  0  0  0  0  0  0  0  0  1  0  0
  -22.7722  -20.9743   21.0022 C   0  0  1  0  0  0  0  0  0  0  0  0
  -20.3588  -18.7539   19.1010 C   0  0  2  0  0  0  0  0  0  0  0  0
  -23.3325  -20.5382   22.3855 C   0  0  0  0  0  0  0  0  0  0  0  0
  -27.8578  -15.5161   21.0390 N   0  0  0  0  0  0  0  0  0  0  0  0
  -29.2505  -22.8564   18.8258 N   0  0  0  0  0  0  0  0  0  0  0  0
  -29.1424  -15.8760   20.8767 N   0  0  0  0  0  0  0  0  0  0  0  0
  -22.9660  -23.2636   20.0827 N   0  0  0  0  0  0  0  0  0  0  0  0
  -28.9366  -19.6137   21.6321 N   0  0  0  0  0  0  0  0  0  0  0  0
  -31.2303  -15.1097   20.0616 N   0  0  0  0  0  0  0  0  0  0  0  0
  -28.4699  -11.6168   19.3026 N   0  0  0  0  0  0  0  0  0  0  0  0
  -29.2221  -20.5734   19.4967 N   0  0  0  0  0  0  0  0  0  0  0  0
  -23.6877  -26.6493   21.2285 N   0  0  0  0  0  0  0  0  0  0  0  0
  -21.6337  -20.1861   20.5432 N   0  0  0  0  0  0  0  0  0  0  0  0
  -31.1272  -24.4768   14.7620 N   0  3  0  0  0  0  0  0  0  0  0  0
  -20.0517  -18.7181   17.6432 N   0  3  0  0  0  0  0  0  0  0  0  0
  -30.6301  -12.3602   19.1042 O   0  0  0  0  0  0  0  0  0  0  0  0
  -24.7158  -24.5681   21.4140 O   0  0  0  0  0  0  0  0  0  0  0  0
  -21.4221  -22.7717   21.7592 O   0  0  0  0  0  0  0  0  0  0  0  0
  -22.6027  -19.4692   18.5623 O   0  0  0  0  0  0  0  0  0  0  0  0
  -28.8636  -21.9082   21.3600 O   0  0  0  0  0  0  0  0  0  0  0  0
  -23.0370  -11.3889   20.5141 O   0  0  0  0  0  0  0  0  0  0  0  0
  -26.6519  -23.7573   15.1610 O   0  0  0  0  0  0  0  0  0  1  0  0
  -23.2094   -6.1219   22.1369 F   0  0  0  0  0  0  0  0  0  0  0  0
  -21.5493  -10.5217   22.6768 F   0  0  0  0  0  0  0  0  0  0  0  0
  1  2  1  0  0  0  0
  1  5  2  0  0  0  0
  2  6  2  0  0  0  0
  3  9  2  0  0  0  0
  3 17  1  0  0  0  0
  4 10  1  0  0  0  0
  4 17  2  0  0  0  0
  5 19  1  0  0  0  0
  6 21  1  0  0  0  0
  7 11  2  0  0  0  0
  7 20  1  0  0  0  0
  8 14  2  0  0  0  0
  8 22  1  0  0  0  0
  9 24  1  0  0  0  0
 10 24  2  0  0  0  0
 11 25  1  0  0  0  0
 12 13  2  0  0  0  0
 12 26  1  0  0  0  0
 13 27  1  0  0  0  0
 14 31  1  0  0  0  0
 15 23  1  0  0  0  0
 15 25  2  0  0  0  0
 16 27  2  0  0  0  0
 16 28  1  0  0  0  0
 17 29  1  0  0  0  0
 18 29  1  0  0  0  0
 18 32  2  0  0  0  0
 18 33  1  0  0  0  0
 19 21  2  0  0  0  0
 19 38  1  0  0  0  0
 20 23  2  0  0  0  0
 20 39  1  0  0  0  0
 21 49  1  0  0  0  0
 22 30  2  0  0  0  0
 22 50  1  0  0  0  0
 23 40  1  0  0  0  0
 24 81  1  0  0  0  0
 25 82  1  0  0  0  0
 26 28  2  0  0  0  0
 26 81  1  0  0  0  0
 27 83  1  0  0  0  0
 28 84  1  0  0  0  0
 29 64  2  0  0  0  0
 30 54  1  0  0  0  0
 30 65  1  0  0  0  0
 31 65  2  0  0  0  0
 31 71  1  0  0  0  0
 32 66  1  0  0  0  0
 32 69  1  0  0  0  0
 33 70  1  0  0  0  0
 33 76  2  0  0  0  0
 34 51  1  0  0  0  0
 34 72  1  0  0  0  0
 34 77  2  0  0  0  0
 35 61  1  0  0  0  0
 35 67  1  0  0  0  0
 35 78  2  0  0  0  0
 36 62  1  0  0  0  0
 36 73  1  0  0  0  0
 36 79  2  0  0  0  0
 37 68  1  0  0  0  0
 37 71  1  0  0  0  0
 37 80  2  0  0  0  0
 38 41  1  0  0  0  0
 39 51  1  0  0  0  0
 40 67  1  0  0  0  0
 41 43  1  0  0  0  0
 42 44  1  0  0  0  0
 42 46  1  0  0  0  0
 43 49  1  0  0  0  0
 44 53  1  0  0  0  0
 45 48  1  0  0  0  0
 45 52  1  0  0  0  0
 46 68  1  0  0  0  0
 47 53  1  0  0  0  0
 47 68  1  0  0  0  0
 48 74  1  0  0  0  0
 49 72  1  0  0  0  0
 50 52  1  0  0  0  0
 50 74  1  0  0  0  0
 51 67  1  0  0  0  0
 52 60  1  0  0  0  0
 53 66  1  0  0  0  0
 55 62  1  0  0  0  0
 56 63  1  0  0  0  0
 57 63  1  0  0  0  0
 58 63  1  0  0  0  0
 59 75  1  0  0  0  0
 60 82  1  0  0  0  0
 61 63  1  0  0  0  0
 61 73  1  0  0  0  0
 62 75  1  0  0  0  0
 64 66  1  0  0  0  0
M  CHG  2  74   1  75   1
M  ISO  4  37 100  60 101  71 100  82 101
M  END
> <Batch ID>
0177

> <Smiles>
CNC(C)C(=O)NC(C(=O)N1Cc2cc([101O:1][101CH2:1]C3CCNC3c3ccc([100NH:0][100C:0](=O)N4CCCC(n5nc(-c6ccc(Oc7ccc(F)cc7F)cc6)c(C(N)=O)c5N)C4)nc3C)ccc2CC1C(=O)NC1CCCc2ccccc21)C(C)(C)C

> <Shape>
0.206

> <Color>
0.079

> <Negative vol penalty>
0.000

$$$$

  -OEChem-04052322523D

 80 89  0     1  0  0  0  0  0999 V2000
  -23.3798  -37.9030   18.9594 C   0  0  0  0  0  0  0  0  0  0  0  0
  -23.5435  -36.7473   18.2026 C   0  0  0  0  0  0  0  0  0  0  0  0
  -23.5648  -11.0590   23.1901 C   0  0  0  0  0  0  0  0  0  0  0  0
  -23.4542   -9.7019   21.1944 C   0  0  0  0  0  0  0  0  0  0  0  0
  -24.0078  -38.0181   20.1989 C   0  0  0  0  0  0  0  0  0  0  0  0
  -24.3363  -35.7062   18.6844 C   0  0  0  0  0  0  0  0  0  0  0  0
  -24.8336  -28.5606   18.5836 C   0  0  0  0  0  0  0  0  0  0  0  0
  -22.6283  -10.2292   23.8064 C   0  0  0  0  0  0  0  0  0  0  0  0
  -22.5177   -8.8720   21.8106 C   0  0  0  0  0  0  0  0  0  0  0  0
  -25.7501  -27.5486   18.3013 C   0  0  0  0  0  0  0  0  0  0  0  0
  -22.5251   -6.3526   24.0629 C   0  0  0  0  0  0  0  0  0  0  0  0
  -22.6979   -4.9746   23.9332 C   0  0  0  0  0  0  0  0  0  0  0  0
  -26.7222  -27.8262   20.4915 C   0  0  0  0  0  0  0  0  0  0  0  0
  -20.5423   -4.8057   22.8553 C   0  0  0  0  0  0  0  0  0  0  0  0
  -23.9778  -10.7955   21.8841 C   0  0  0  0  0  0  0  0  0  0  0  0
  -26.3455  -11.5138   21.2634 C   0  0  0  0  0  0  0  0  0  0  0  0
  -24.8008  -36.9739   20.7005 C   0  0  0  0  0  0  0  0  0  0  0  0
  -24.8616  -29.2216   19.8200 C   0  0  0  0  0  0  0  0  0  0  0  0
  -24.9765  -35.8079   19.9312 C   0  0  0  0  0  0  0  0  0  0  0  0
  -25.8034  -28.8445   20.7880 C   0  0  0  0  0  0  0  0  0  0  0  0
  -22.1047   -9.1356   23.1166 C   0  0  0  0  0  0  0  0  0  0  0  0
  -26.6964  -27.1833   19.2542 C   0  0  0  0  0  0  0  0  0  0  0  0
  -21.3608   -6.9571   23.5889 C   0  0  0  0  0  0  0  0  0  0  0  0
  -21.7066   -4.2011   23.3294 C   0  0  0  0  0  0  0  0  0  0  0  0
  -20.3694   -6.1837   22.9851 C   0  0  0  0  0  0  0  0  0  0  0  0
  -24.9448  -11.6527   21.2468 C   0  0  0  0  0  0  0  0  0  0  0  0
  -26.8044  -12.5719   20.5175 C   0  0  0  0  0  0  0  0  0  0  0  0
  -27.1592  -10.5174   21.8964 C   0  0  0  0  0  0  0  0  0  0  0  0
  -25.3435  -32.2232   20.7486 C   0  0  0  0  0  0  0  0  0  0  0  0
  -24.5560  -31.0368   23.6631 C   0  0  0  0  0  0  0  0  0  0  0  0
  -24.3491  -28.3286   25.7294 C   0  0  0  0  0  0  0  0  0  0  0  0
  -26.8537  -17.7507   19.0944 C   0  0  0  0  0  0  0  0  0  0  0  0
  -25.4980  -37.1634   22.0244 C   0  0  0  0  0  0  0  0  0  0  0  0
  -23.8490  -30.2929   20.1191 C   0  0  0  0  0  0  0  0  0  0  0  0
  -25.8623  -29.5092   22.1383 C   0  0  0  0  0  0  0  0  0  0  0  0
  -26.0177  -35.8625   22.6308 C   0  0  0  0  0  0  0  0  0  0  0  0
  -24.3425  -15.8369   17.5518 C   0  0  0  0  0  0  0  0  0  0  0  0
  -26.7495  -35.0373   21.5770 C   0  0  0  0  0  0  0  0  0  0  0  0
  -24.3849  -14.5545   18.3821 C   0  0  0  0  0  0  0  0  0  0  0  0
  -26.3187  -24.1417   19.7290 C   0  0  0  0  0  0  0  0  0  0  0  0
  -28.4054  -23.8310   19.4035 C   0  0  0  0  0  0  0  0  0  0  0  0
  -24.5024  -17.0868   18.4191 C   0  0  0  0  0  0  0  0  0  0  0  0
  -25.4816  -19.8513   18.7287 C   0  0  0  0  0  0  0  0  0  0  0  0
  -27.8546  -19.7556   18.0391 C   0  0  0  0  0  0  0  0  0  0  0  0
  -25.7461  -15.7841   20.1149 C   0  0  0  0  0  0  0  0  0  0  0  0
  -25.7747  -21.0692   19.6014 C   0  0  0  0  0  0  0  0  0  0  0  0
  -28.1873  -20.9530   18.9166 C   0  0  0  0  0  0  0  0  0  0  0  0
  -25.8085  -34.6467   20.4309 C   0  0  1  0  0  0  0  0  0  0  0  0
  -24.2991  -31.2504   21.2181 C   0  0  1  0  0  0  0  0  0  0  0  0
  -25.6454  -14.5088   19.2639 C   0  0  1  0  0  0  0  0  0  0  0  0
  -27.2608  -22.9354   19.9197 C   0  0  0  0  0  0  0  0  0  0  0  0
  -27.5647  -25.0510   19.8510 C   0  0  0  0  0  0  0  0  0  1  0  0
  -23.7036  -27.6779   28.0654 C   0  0  0  0  0  0  0  0  0  0  0  0
  -27.1656  -32.2205   24.7114 C   0  0  0  0  0  0  0  0  0  0  0  0
  -26.9328  -30.7635   26.7340 C   0  0  0  0  0  0  0  0  0  0  0  0
  -25.2065  -32.4955   26.2413 C   0  0  0  0  0  0  0  0  0  0  0  0
  -22.2200  -26.5157   24.7602 C   0  0  0  0  0  0  0  0  0  0  0  0
  -25.3210  -30.4166   24.8072 C   0  0  1  0  0  0  0  0  0  0  0  0
  -23.2316  -27.8301   26.6278 C   0  0  2  0  0  0  0  0  0  0  0  0
  -26.1569  -31.4627   25.5974 C   0  0  0  0  0  0  0  0  0  0  0  0
  -24.5403  -12.7154   20.5460 N   0  0  0  0  0  0  0  0  0  0  0  0
  -25.6938  -13.2539   20.1154 N   0  0  0  0  0  0  0  0  0  0  0  0
  -24.8550  -30.5552   22.3808 N   0  0  0  0  0  0  0  0  0  0  0  0
  -25.6948  -16.9801   19.2713 N   0  0  0  0  0  0  0  0  0  0  0  0
  -26.6889  -19.0323   18.5480 N   0  0  0  0  0  0  0  0  0  0  0  0
  -28.0455  -12.9762   20.1730 N   0  0  0  0  0  0  0  0  0  0  0  0
  -26.5256   -9.5007   22.6238 N   0  0  0  0  0  0  0  0  0  0  0  0
  -24.9561  -33.5471   20.8292 N   0  0  0  0  0  0  0  0  0  0  0  0
  -24.3385  -29.7027   25.6157 N   0  0  0  0  0  0  0  0  0  0  0  0
  -26.9548  -21.8078   19.0340 N   0  3  0  0  0  0  0  0  0  0  0  0
  -22.7366  -26.5070   26.1531 N   0  3  0  0  0  0  0  0  0  0  0  0
  -28.4119  -10.5376   21.8330 O   0  0  0  0  0  0  0  0  0  0  0  0
  -26.4217  -31.8037   20.3445 O   0  0  0  0  0  0  0  0  0  0  0  0
  -23.7186  -31.9113   23.8992 O   0  0  0  0  0  0  0  0  0  0  0  0
  -25.1534  -27.5747   25.1860 O   0  0  0  0  0  0  0  0  0  0  0  0
  -27.9705  -17.3193   19.4072 O   0  0  0  0  0  0  0  0  0  0  0  0
  -21.1910   -8.3254   23.7177 O   0  0  0  0  0  0  0  0  0  0  0  0
  -27.5944  -26.1943   18.9804 O   0  0  0  0  0  0  0  0  0  1  0  0
  -21.8734   -2.8780   23.2035 F   0  0  0  0  0  0  0  0  0  0  0  0
  -19.2493   -6.7590   22.5267 F   0  0  0  0  0  0  0  0  0  0  0  0
  1  2  1  0  0  0  0
  1  5  2  0  0  0  0
  2  6  2  0  0  0  0
  3  8  2  0  0  0  0
  3 15  1  0  0  0  0
  4  9  1  0  0  0  0
  4 15  2  0  0  0  0
  5 17  1  0  0  0  0
  6 19  1  0  0  0  0
  7 10  2  0  0  0  0
  7 18  1  0  0  0  0
  8 21  1  0  0  0  0
  9 21  2  0  0  0  0
 10 22  1  0  0  0  0
 11 12  2  0  0  0  0
 11 23  1  0  0  0  0
 12 24  1  0  0  0  0
 13 20  1  0  0  0  0
 13 22  2  0  0  0  0
 14 24  2  0  0  0  0
 14 25  1  0  0  0  0
 15 26  1  0  0  0  0
 16 26  1  0  0  0  0
 16 27  2  0  0  0  0
 16 28  1  0  0  0  0
 17 19  2  0  0  0  0
 17 33  1  0  0  0  0
 18 20  2  0  0  0  0
 18 34  1  0  0  0  0
 19 48  1  0  0  0  0
 20 35  1  0  0  0  0
 21 77  1  0  0  0  0
 22 78  1  0  0  0  0
 23 25  2  0  0  0  0
 23 77  1  0  0  0  0
 24 79  1  0  0  0  0
 25 80  1  0  0  0  0
 26 61  2  0  0  0  0
 27 62  1  0  0  0  0
 27 66  1  0  0  0  0
 28 67  1  0  0  0  0
 28 72  2  0  0  0  0
 29 49  1  0  0  0  0
 29 68  1  0  0  0  0
 29 73  2  0  0  0  0
 30 58  1  0  0  0  0
 30 63  1  0  0  0  0
 30 74  2  0  0  0  0
 31 59  1  0  0  0  0
 31 69  1  0  0  0  0
 31 75  2  0  0  0  0
 32 64  1  0  0  0  0
 32 65  1  0  0  0  0
 32 76  2  0  0  0  0
 33 36  1  0  0  0  0
 34 49  1  0  0  0  0
 35 63  1  0  0  0  0
 36 38  1  0  0  0  0
 37 39  1  0  0  0  0
 37 42  1  0  0  0  0
 38 48  1  0  0  0  0
 39 50  1  0  0  0  0
 40 51  1  0  0  0  0
 40 52  1  0  0  0  0
 41 51  1  0  0  0  0
 41 52  1  0  0  0  0
 42 64  1  0  0  0  0
 43 46  1  0  0  0  0
 43 65  1  0  0  0  0
 44 47  1  0  0  0  0
 44 65  1  0  0  0  0
 45 50  1  0  0  0  0
 45 64  1  0  0  0  0
 46 70  1  0  0  0  0
 47 70  1  0  0  0  0
 48 68  1  0  0  0  0
 49 63  1  0  0  0  0
 50 62  1  0  0  0  0
 51 70  1  0  0  0  0
 52 78  1  0  0  0  0
 53 59  1  0  0  0  0
 54 60  1  0  0  0  0
 55 60  1  0  0  0  0
 56 60  1  0  0  0  0
 57 71  1  0  0  0  0
 58 60  1  0  0  0  0
 58 69  1  0  0  0  0
 59 71  1  0  0  0  0
 61 62  1  0  0  0  0
M  CHG  2  70   1  71   1
M  ISO  4  32 100  52 101  65 100  78 101
M  END
> <Batch ID>
0177

> <Smiles>
CNC(C)C(=O)NC(C(=O)N1Cc2cc([101O:1][101CH:1]3CC(N4CC[100N:0]([100C:0](=O)N5CCCC(n6nc(-c7ccc(Oc8ccc(F)cc8F)cc7)c(C(N)=O)c6N)C5)CC4)C3)ccc2CC1C(=O)NC1CCCc2ccccc21)C(C)(C)C

> <Shape>
0.243

> <Color>
0.100

> <Negative vol penalty>
0.000

$$$$

  -OEChem-04052322523D

 84 93  0     1  0  0  0  0  0999 V2000
  -26.4747  -35.2247   23.2347 C   0  0  0  0  0  0  0  0  0  0  0  0
  -26.9428  -33.9330   23.0161 C   0  0  0  0  0  0  0  0  0  0  0  0
  -28.2213  -14.0124   18.9889 C   0  0  0  0  0  0  0  0  0  0  0  0
  -30.2858  -13.1659   19.9155 C   0  0  0  0  0  0  0  0  0  0  0  0
  -25.1739  -35.4250   23.6948 C   0  0  0  0  0  0  0  0  0  0  0  0
  -26.1107  -32.8407   23.2585 C   0  0  0  0  0  0  0  0  0  0  0  0
  -26.3043  -29.3914   19.5559 C   0  0  0  0  0  0  0  0  0  0  0  0
  -27.6140  -12.7769   19.2132 C   0  0  0  0  0  0  0  0  0  0  0  0
  -29.6785  -11.9304   20.1398 C   0  0  0  0  0  0  0  0  0  0  0  0
  -27.4068  -28.5382   19.5375 C   0  0  0  0  0  0  0  0  0  0  0  0
  -25.4170   -9.9568   19.8734 C   0  0  0  0  0  0  0  0  0  0  0  0
  -24.1405   -9.9542   20.4355 C   0  0  0  0  0  0  0  0  0  0  0  0
  -26.0796  -26.8107   20.5735 C   0  0  0  0  0  0  0  0  0  0  0  0
  -24.9971  -11.0933   22.3863 C   0  0  0  0  0  0  0  0  0  0  0  0
  -29.5572  -14.2069   19.3400 C   0  0  0  0  0  0  0  0  0  0  0  0
  -30.2378  -16.5776   19.9915 C   0  0  0  0  0  0  0  0  0  0  0  0
  -24.3222  -34.3350   23.9337 C   0  0  0  0  0  0  0  0  0  0  0  0
  -25.0821  -28.9636   20.0940 C   0  0  0  0  0  0  0  0  0  0  0  0
  -24.7977  -33.0265   23.7235 C   0  0  0  0  0  0  0  0  0  0  0  0
  -24.9624  -27.6595   20.5952 C   0  0  0  0  0  0  0  0  0  0  0  0
  -28.3426  -11.7359   19.7887 C   0  0  0  0  0  0  0  0  0  0  0  0
  -27.2954  -27.2486   20.0490 C   0  0  0  0  0  0  0  0  0  0  0  0
  -26.4837  -10.5277   20.5677 C   0  0  0  0  0  0  0  0  0  0  0  0
  -23.9305  -10.5224   21.6919 C   0  0  0  0  0  0  0  0  0  0  0  0
  -26.2737  -11.0959   21.8242 C   0  0  0  0  0  0  0  0  0  0  0  0
  -30.1852  -15.4828   19.1080 C   0  0  0  0  0  0  0  0  0  0  0  0
  -30.9403  -17.5384   19.3061 C   0  0  0  0  0  0  0  0  0  0  0  0
  -28.6987  -24.4750   18.6576 C   0  0  0  0  0  0  0  0  0  0  0  0
  -29.4254  -23.3469   18.6160 C   0  0  0  0  0  0  0  0  0  0  0  0
  -29.6998  -16.7137   21.3135 C   0  0  0  0  0  0  0  0  0  0  0  0
  -23.2506  -29.8945   22.5194 C   0  0  0  0  0  0  0  0  0  0  0  0
  -21.2063  -27.6820   21.3161 C   0  0  0  0  0  0  0  0  0  0  0  0
  -20.7655  -24.8456   19.4702 C   0  0  0  0  0  0  0  0  0  0  0  0
  -32.1386  -20.3812   14.7845 C   0  0  0  0  0  0  0  0  0  0  0  0
  -22.9397  -34.5991   24.4758 C   0  0  0  0  0  0  0  0  0  0  0  0
  -23.8949  -29.8870   20.0821 C   0  0  0  0  0  0  0  0  0  0  0  0
  -23.6669  -27.1449   21.1655 C   0  0  0  0  0  0  0  0  0  0  0  0
  -29.7068  -22.4987   19.8265 C   0  0  0  0  0  0  0  0  0  0  0  0
  -21.9979  -33.4043   24.3508 C   0  0  0  0  0  0  0  0  0  0  0  0
  -33.6040  -17.2602   15.0227 C   0  0  0  0  0  0  0  0  0  0  0  0
  -22.6903  -32.1277   24.8174 C   0  0  0  0  0  0  0  0  0  0  0  0
  -32.8582  -16.5964   16.1802 C   0  0  0  0  0  0  0  0  0  0  0  0
  -28.6408  -24.3287   21.1890 C   0  0  0  0  0  0  0  0  0  0  0  0
  -32.6454  -18.0458   14.1350 C   0  0  0  0  0  0  0  0  0  0  0  0
  -31.9600  -22.5190   16.0047 C   0  0  0  0  0  0  0  0  0  0  0  0
  -29.8994  -21.2170   15.5951 C   0  0  0  0  0  0  0  0  0  0  0  0
  -31.1033  -18.4312   16.0296 C   0  0  0  0  0  0  0  0  0  0  0  0
  -31.4388  -22.9404   17.3724 C   0  0  0  0  0  0  0  0  0  0  0  0
  -29.3508  -21.6101   16.9590 C   0  0  0  0  0  0  0  0  0  0  0  0
  -23.9170  -31.8171   23.9513 C   0  0  1  0  0  0  0  0  0  0  0  0
  -28.1012  -25.0138   19.9265 C   0  0  1  0  0  0  0  0  0  1  0  0
  -22.8418  -29.5198   21.1230 C   0  0  1  0  0  0  0  0  0  0  0  0
  -32.0278  -17.6270   16.9657 C   0  0  1  0  0  0  0  0  0  0  0  0
  -28.7815  -22.7991   21.0338 C   0  0  0  0  0  0  0  0  0  0  0  0
  -27.4014  -22.1410   20.8326 C   0  0  0  0  0  0  0  0  0  0  0  0
  -29.4083  -22.2128   22.3112 C   0  0  0  0  0  0  0  0  0  0  0  0
  -18.9848  -23.2557   18.6965 C   0  0  0  0  0  0  0  0  0  0  0  0
  -21.1070  -26.4413   24.1019 C   0  0  0  0  0  0  0  0  0  0  0  0
  -20.1222  -24.3819   23.0737 C   0  0  0  0  0  0  0  0  0  0  0  0
  -18.9005  -26.5521   22.9300 C   0  0  0  0  0  0  0  0  0  0  0  0
  -21.3153  -25.4333   16.6222 C   0  0  0  0  0  0  0  0  0  0  0  0
  -20.9797  -26.2054   21.5340 C   0  0  1  0  0  0  0  0  0  0  0  0
  -19.7833  -24.5064   18.3636 C   0  0  2  0  0  0  0  0  0  0  0  0
  -20.3024  -25.9052   22.9010 C   0  0  0  0  0  0  0  0  0  0  0  0
  -30.8048  -15.7247   17.9497 N   0  0  0  0  0  0  0  0  0  0  0  0
  -31.2533  -16.9825   18.1006 N   0  0  0  0  0  0  0  0  0  0  0  0
  -22.5365  -28.0877   21.1372 N   0  0  0  0  0  0  0  0  0  0  0  0
  -31.8730  -19.0100   14.9182 N   0  0  0  0  0  0  0  0  0  0  0  0
  -31.3677  -21.2555   15.5679 N   0  0  0  0  0  0  0  0  0  0  0  0
  -31.3146  -18.7961   19.6230 N   0  0  0  0  0  0  0  0  0  0  0  0
  -29.0057  -15.6294   21.8674 N   0  0  0  0  0  0  0  0  0  0  0  0
  -23.5105  -31.2412   22.6873 N   0  0  0  0  0  0  0  0  0  0  0  0
  -20.2264  -25.7330   20.3774 N   0  0  0  0  0  0  0  0  0  0  0  0
  -29.9335  -22.9449   17.3450 N   0  3  0  0  0  0  0  0  0  0  0  0
  -20.5070  -24.2746   17.0816 N   0  3  0  0  0  0  0  0  0  0  0  0
  -29.8165  -17.7717   21.9774 O   0  0  0  0  0  0  0  0  0  0  0  0
  -23.3234  -29.0263   23.3812 O   0  0  0  0  0  0  0  0  0  0  0  0
  -20.2382  -28.4462   21.2979 O   0  0  0  0  0  0  0  0  0  0  0  0
  -21.8965  -24.3679   19.5264 O   0  0  0  0  0  0  0  0  0  0  0  0
  -33.0139  -20.8013   14.0174 O   0  0  0  0  0  0  0  0  0  0  0  0
  -27.7503  -10.5302   20.0080 O   0  0  0  0  0  0  0  0  0  0  0  0
  -28.3764  -26.4092   20.0328 O   0  0  0  0  0  0  0  0  0  1  0  0
  -22.7042  -10.5212   22.2309 F   0  0  0  0  0  0  0  0  0  0  0  0
  -27.2943  -11.6468   22.4955 F   0  0  0  0  0  0  0  0  0  0  0  0
  1  2  1  0  0  0  0
  1  5  2  0  0  0  0
  2  6  2  0  0  0  0
  3  8  2  0  0  0  0
  3 15  1  0  0  0  0
  4  9  1  0  0  0  0
  4 15  2  0  0  0  0
  5 17  1  0  0  0  0
  6 19  1  0  0  0  0
  7 10  2  0  0  0  0
  7 18  1  0  0  0  0
  8 21  1  0  0  0  0
  9 21  2  0  0  0  0
 10 22  1  0  0  0  0
 11 12  2  0  0  0  0
 11 23  1  0  0  0  0
 12 24  1  0  0  0  0
 13 20  1  0  0  0  0
 13 22  2  0  0  0  0
 14 24  2  0  0  0  0
 14 25  1  0  0  0  0
 15 26  1  0  0  0  0
 16 26  1  0  0  0  0
 16 27  2  0  0  0  0
 16 30  1  0  0  0  0
 17 19  2  0  0  0  0
 17 35  1  0  0  0  0
 18 20  2  0  0  0  0
 18 36  1  0  0  0  0
 19 50  1  0  0  0  0
 20 37  1  0  0  0  0
 21 81  1  0  0  0  0
 22 82  1  0  0  0  0
 23 25  2  0  0  0  0
 23 81  1  0  0  0  0
 24 83  1  0  0  0  0
 25 84  1  0  0  0  0
 26 65  2  0  0  0  0
 27 66  1  0  0  0  0
 27 70  1  0  0  0  0
 28 29  2  0  0  0  0
 28 51  1  0  0  0  0
 29 38  1  0  0  0  0
 29 74  1  0  0  0  0
 30 71  1  0  0  0  0
 30 76  2  0  0  0  0
 31 52  1  0  0  0  0
 31 72  1  0  0  0  0
 31 77  2  0  0  0  0
 32 62  1  0  0  0  0
 32 67  1  0  0  0  0
 32 78  2  0  0  0  0
 33 63  1  0  0  0  0
 33 73  1  0  0  0  0
 33 79  2  0  0  0  0
 34 68  1  0  0  0  0
 34 69  1  0  0  0  0
 34 80  2  0  0  0  0
 35 39  1  0  0  0  0
 36 52  1  0  0  0  0
 37 67  1  0  0  0  0
 38 54  1  0  0  0  0
 39 41  1  0  0  0  0
 40 42  1  0  0  0  0
 40 44  1  0  0  0  0
 41 50  1  0  0  0  0
 42 53  1  0  0  0  0
 43 51  1  0  0  0  0
 43 54  1  0  0  0  0
 44 68  1  0  0  0  0
 45 48  1  0  0  0  0
 45 69  1  0  0  0  0
 46 49  1  0  0  0  0
 46 69  1  0  0  0  0
 47 53  1  0  0  0  0
 47 68  1  0  0  0  0
 48 74  1  0  0  0  0
 49 74  1  0  0  0  0
 50 72  1  0  0  0  0
 51 82  1  0  0  0  0
 52 67  1  0  0  0  0
 53 66  1  0  0  0  0
 54 55  1  0  0  0  0
 54 56  1  0  0  0  0
 57 63  1  0  0  0  0
 58 64  1  0  0  0  0
 59 64  1  0  0  0  0
 60 64  1  0  0  0  0
 61 75  1  0  0  0  0
 62 64  1  0  0  0  0
 62 73  1  0  0  0  0
 63 75  1  0  0  0  0
 65 66  1  0  0  0  0
M  CHG  2  74   1  75   1
M  ISO  4  34 100  51 101  69 100  82 101
M  END
> <Batch ID>
0177

> <Smiles>
CNC(C)C(=O)NC(C(=O)N1Cc2cc([101O:1][101CH:1]3C=C(N4CC[100N:0]([100C:0](=O)N5CCCC(n6nc(-c7ccc(Oc8ccc(F)cc8F)cc7)c(C(N)=O)c6N)C5)CC4)CC(C)(C)C3)ccc2CC1C(=O)NC1CCCc2ccccc21)C(C)(C)C

> <Shape>
0.274

> <Color>
0.074

> <Negative vol penalty>
0.000

$$$$
