
  -OEChem-04052322553D

 83 92  0     1  0  0  0  0  0999 V2000
  -21.7093  -12.0792   21.0451 C   0  0  0  0  0  0  0  0  0  0  0  0
  -21.8247  -13.3163   21.6708 C   0  0  0  0  0  0  0  0  0  0  0  0
  -26.5875  -29.0334   20.8036 C   0  0  0  0  0  0  0  0  0  0  0  0
  -24.9656  -28.1666   19.2366 C   0  0  0  0  0  0  0  0  0  0  0  0
  -22.8333  -11.4768   20.4814 C   0  0  0  0  0  0  0  0  0  0  0  0
  -23.0645  -13.9514   21.7342 C   0  0  0  0  0  0  0  0  0  0  0  0
  -22.7832  -18.8793   20.6021 C   0  0  0  0  0  0  0  0  0  0  0  0
  -27.2856  -27.8271   20.7484 C   0  0  0  0  0  0  0  0  0  0  0  0
  -25.6637  -26.9602   19.1814 C   0  0  0  0  0  0  0  0  0  0  0  0
  -22.3029  -19.7339   21.5934 C   0  0  0  0  0  0  0  0  0  0  0  0
  -27.0069  -24.7260   22.0637 C   0  0  0  0  0  0  0  0  0  0  0  0
  -27.4389  -24.1723   23.2689 C   0  0  0  0  0  0  0  0  0  0  0  0
  -24.5665  -20.3665   22.1365 C   0  0  0  0  0  0  0  0  0  0  0  0
  -29.7274  -24.2927   22.5039 C   0  0  0  0  0  0  0  0  0  0  0  0
  -21.9742  -23.5064   23.9262 C   0  0  0  0  0  0  0  0  0  0  0  0
  -25.4274  -29.2031   20.0477 C   0  0  0  0  0  0  0  0  0  0  0  0
  -24.8930  -31.5782   19.2857 C   0  0  0  0  0  0  0  0  0  0  0  0
  -24.0857  -12.1093   20.5294 C   0  0  0  0  0  0  0  0  0  0  0  0
  -24.1617  -18.7534   20.3775 C   0  0  0  0  0  0  0  0  0  0  0  0
  -24.2066  -13.3563   21.1718 C   0  0  0  0  0  0  0  0  0  0  0  0
  -25.0617  -19.5115   21.1400 C   0  0  0  0  0  0  0  0  0  0  0  0
  -26.8237  -26.7905   19.9373 C   0  0  0  0  0  0  0  0  0  0  0  0
  -23.1947  -20.4755   22.3627 C   0  0  0  0  0  0  0  0  0  0  0  0
  -27.9352  -25.0630   21.0786 C   0  0  0  0  0  0  0  0  0  0  0  0
  -28.7991  -23.9557   23.4890 C   0  0  0  0  0  0  0  0  0  0  0  0
  -29.2954  -24.8464   21.2987 C   0  0  0  0  0  0  0  0  0  0  0  0
  -24.7055  -30.4488   20.1048 C   0  0  0  0  0  0  0  0  0  0  0  0
  -22.3795  -24.2497   21.3943 C   0  0  0  0  0  0  0  0  0  0  0  0
  -21.9049  -25.1425   22.3299 C   0  0  0  0  0  0  0  0  0  0  0  0
  -22.4485  -22.6136   22.9905 C   0  0  0  0  0  0  0  0  0  1  0  0
  -23.9685  -32.4877   19.7381 C   0  0  0  0  0  0  0  0  0  0  0  0
  -25.8198  -31.7866   18.2118 C   0  0  0  0  0  0  0  0  0  0  0  0
  -26.2564  -16.3699   20.5643 C   0  0  0  0  0  0  0  0  0  0  0  0
  -28.2810  -18.5682   19.3030 C   0  0  0  0  0  0  0  0  0  0  0  0
  -29.0543  -21.8579   18.8267 C   0  0  0  0  0  0  0  0  0  0  0  0
  -21.4605  -29.3302   23.5062 C   0  0  0  0  0  0  0  0  0  0  0  0
  -25.2812  -11.3974   19.9476 C   0  0  0  0  0  0  0  0  0  0  0  0
  -24.6626  -17.8473   19.2864 C   0  0  0  0  0  0  0  0  0  0  0  0
  -26.5500  -19.4278   20.9249 C   0  0  0  0  0  0  0  0  0  0  0  0
  -26.4858  -12.3091   19.7285 C   0  0  0  0  0  0  0  0  0  0  0  0
  -23.1334  -32.4530   23.9714 C   0  0  0  0  0  0  0  0  0  0  0  0
  -18.2164  -27.9255   22.6983 C   0  0  0  0  0  0  0  0  0  0  0  0
  -26.7301  -13.1760   20.9596 C   0  0  0  0  0  0  0  0  0  0  0  0
  -22.7277  -33.2966   22.7680 C   0  0  0  0  0  0  0  0  0  0  0  0
  -19.0925  -26.7463   22.2994 C   0  0  0  0  0  0  0  0  0  0  0  0
  -21.9816  -31.5651   24.4162 C   0  0  0  0  0  0  0  0  0  0  0  0
  -19.1403  -29.1140   22.4819 C   0  0  0  0  0  0  0  0  0  0  0  0
  -21.1285  -31.4186   22.0844 C   0  0  0  0  0  0  0  0  0  0  0  0
  -25.5295  -14.0881   21.2392 C   0  0  1  0  0  0  0  0  0  0  0  0
  -26.1100  -17.4103   19.4901 C   0  0  1  0  0  0  0  0  0  0  0  0
  -22.1813  -32.4467   21.6097 C   0  0  2  0  0  0  0  0  0  0  0  0
  -20.4750  -27.1416   22.8255 C   0  0  1  0  0  0  0  0  0  0  0  0
  -22.6087  -24.6558   19.9787 C   0  0  0  0  0  0  0  0  0  0  0  0
  -30.7912  -23.3431   17.7901 C   0  0  0  0  0  0  0  0  0  0  0  0
  -30.1672  -17.9815   21.6286 C   0  0  0  0  0  0  0  0  0  0  0  0
  -31.3833  -20.1017   21.0862 C   0  0  0  0  0  0  0  0  0  0  0  0
  -31.2955  -18.2532   19.4133 C   0  0  0  0  0  0  0  0  0  0  0  0
  -27.0830  -23.0720   16.9831 C   0  0  0  0  0  0  0  0  0  0  0  0
  -21.5956  -26.5702   21.9664 C   0  0  0  0  0  0  0  0  0  0  0  0
  -29.2129  -19.6123   19.8691 C   0  0  1  0  0  0  0  0  0  0  0  0
  -29.4661  -22.6261   17.5838 C   0  0  2  0  0  0  0  0  0  0  0  0
  -30.4868  -18.9875   20.5049 C   0  0  0  0  0  0  0  0  0  0  0  0
  -21.6939  -24.7870   23.6127 N   0  0  0  0  0  0  0  0  0  0  0  0
  -23.7381  -30.6226   21.0092 N   0  0  0  0  0  0  0  0  0  0  0  0
  -22.6597  -22.9691   21.7078 N   0  0  0  0  0  0  0  0  0  0  0  0
  -23.3095  -31.8719   20.7611 N   0  0  0  0  0  0  0  0  0  0  0  0
  -26.9910  -18.5230   19.8504 N   0  0  0  0  0  0  0  0  0  0  0  0
  -21.4891  -30.7212   23.3272 N   0  0  0  0  0  0  0  0  0  0  0  0
  -20.4671  -28.6095   22.8394 N   0  0  0  0  0  0  0  0  0  0  0  0
  -23.6633  -33.7462   19.3567 N   0  0  0  0  0  0  0  0  0  0  0  0
  -26.6993  -30.7479   17.8772 N   0  0  0  0  0  0  0  0  0  0  0  0
  -25.5307  -15.2169   20.3335 N   0  0  0  0  0  0  0  0  0  0  0  0
  -29.4845  -20.5486   18.7837 N   0  0  0  0  0  0  0  0  0  0  0  0
  -28.4318  -23.6411   17.2358 N   0  3  0  0  0  0  0  0  0  0  0  0
  -25.8778  -32.8680   17.5787 O   0  0  0  0  0  0  0  0  0  0  0  0
  -26.9759  -16.5960   21.5302 O   0  0  0  0  0  0  0  0  0  0  0  0
  -28.6807  -17.8250   18.4033 O   0  0  0  0  0  0  0  0  0  0  0  0
  -28.4181  -22.3693   19.7456 O   0  0  0  0  0  0  0  0  0  0  0  0
  -22.2797  -28.7580   24.2374 O   0  0  0  0  0  0  0  0  0  0  0  0
  -27.5048  -25.6133   19.8829 O   0  0  0  0  0  0  0  0  0  0  0  0
  -22.7211  -21.3232   23.3467 O   0  0  0  0  0  0  0  0  0  1  0  0
  -29.2139  -23.4254   24.6470 F   0  0  0  0  0  0  0  0  0  0  0  0
  -30.1920  -25.1692   20.3565 F   0  0  0  0  0  0  0  0  0  0  0  0
  1  2  1  0  0  0  0
  1  5  2  0  0  0  0
  2  6  2  0  0  0  0
  3  8  2  0  0  0  0
  3 16  1  0  0  0  0
  4  9  1  0  0  0  0
  4 16  2  0  0  0  0
  5 18  1  0  0  0  0
  6 20  1  0  0  0  0
  7 10  2  0  0  0  0
  7 19  1  0  0  0  0
  8 22  1  0  0  0  0
  9 22  2  0  0  0  0
 10 23  1  0  0  0  0
 11 12  2  0  0  0  0
 11 24  1  0  0  0  0
 12 25  1  0  0  0  0
 13 21  1  0  0  0  0
 13 23  2  0  0  0  0
 14 25  2  0  0  0  0
 14 26  1  0  0  0  0
 15 30  1  0  0  0  0
 15 63  2  0  0  0  0
 16 27  1  0  0  0  0
 17 27  1  0  0  0  0
 17 31  2  0  0  0  0
 17 32  1  0  0  0  0
 18 20  2  0  0  0  0
 18 37  1  0  0  0  0
 19 21  2  0  0  0  0
 19 38  1  0  0  0  0
 20 49  1  0  0  0  0
 21 39  1  0  0  0  0
 22 80  1  0  0  0  0
 23 81  1  0  0  0  0
 24 26  2  0  0  0  0
 24 80  1  0  0  0  0
 25 82  1  0  0  0  0
 26 83  1  0  0  0  0
 27 64  2  0  0  0  0
 28 29  2  0  0  0  0
 28 53  1  0  0  0  0
 28 65  1  0  0  0  0
 29 59  1  0  0  0  0
 29 63  1  0  0  0  0
 30 65  2  0  0  0  0
 30 81  1  0  0  0  0
 31 66  1  0  0  0  0
 31 70  1  0  0  0  0
 32 71  1  0  0  0  0
 32 75  2  0  0  0  0
 33 50  1  0  0  0  0
 33 72  1  0  0  0  0
 33 76  2  0  0  0  0
 34 60  1  0  0  0  0
 34 67  1  0  0  0  0
 34 77  2  0  0  0  0
 35 61  1  0  0  0  0
 35 73  1  0  0  0  0
 35 78  2  0  0  0  0
 36 68  1  0  0  0  0
 36 69  1  0  0  0  0
 36 79  2  0  0  0  0
 37 40  1  0  0  0  0
 38 50  1  0  0  0  0
 39 67  1  0  0  0  0
 40 43  1  0  0  0  0
 41 44  1  0  0  0  0
 41 46  1  0  0  0  0
 42 45  1  0  0  0  0
 42 47  1  0  0  0  0
 43 49  1  0  0  0  0
 44 51  1  0  0  0  0
 45 52  1  0  0  0  0
 46 68  1  0  0  0  0
 47 69  1  0  0  0  0
 48 51  1  0  0  0  0
 48 68  1  0  0  0  0
 49 72  1  0  0  0  0
 50 67  1  0  0  0  0
 51 66  1  0  0  0  0
 52 59  1  0  0  0  0
 52 69  1  0  0  0  0
 54 61  1  0  0  0  0
 55 62  1  0  0  0  0
 56 62  1  0  0  0  0
 57 62  1  0  0  0  0
 58 74  1  0  0  0  0
 60 62  1  0  0  0  0
 60 73  1  0  0  0  0
 61 74  1  0  0  0  0
 64 66  1  0  0  0  0
M  CHG  1  74   1
M  ISO  4  30 101  36 100  69 100  81 101
M  END
> <Batch ID>
0178

> <Smiles>
CNC(C)C(=O)NC(C(=O)N1Cc2cc([101O:1][101c:1]3cnc(CC4CCC[100N:0]4[100C:0](=O)N4CCCC(n5nc(-c6ccc(Oc7ccc(F)cc7F)cc6)c(C(N)=O)c5N)C4)c(C)n3)ccc2CC1C(=O)NC1CCCc2ccccc21)C(C)(C)C

> <Shape>
0.246

> <Color>
0.084

> <Negative vol penalty>
0.000

$$$$

  -OEChem-04052322553D

 82 91  0     1  0  0  0  0  0999 V2000
  -23.9712  -30.8509   24.7374 C   0  0  0  0  0  0  0  0  0  0  0  0
  -24.1752  -29.4747   24.7332 C   0  0  0  0  0  0  0  0  0  0  0  0
  -23.1955   -9.7183   20.9162 C   0  0  0  0  0  0  0  0  0  0  0  0
  -23.9362  -10.3794   23.1187 C   0  0  0  0  0  0  0  0  0  0  0  0
  -24.1146  -31.5793   23.5572 C   0  0  0  0  0  0  0  0  0  0  0  0
  -24.5218  -28.8260   23.5486 C   0  0  0  0  0  0  0  0  0  0  0  0
  -28.2772  -25.4892   24.1879 C   0  0  0  0  0  0  0  0  0  0  0  0
  -22.5034   -8.6423   21.4719 C   0  0  0  0  0  0  0  0  0  0  0  0
  -23.2440   -9.3034   23.6745 C   0  0  0  0  0  0  0  0  0  0  0  0
  -27.9466  -24.2597   24.7560 C   0  0  0  0  0  0  0  0  0  0  0  0
  -23.2250   -5.5558   22.6455 C   0  0  0  0  0  0  0  0  0  0  0  0
  -23.3464   -4.3153   22.0195 C   0  0  0  0  0  0  0  0  0  0  0  0
  -27.9268  -23.2579   22.5616 C   0  0  0  0  0  0  0  0  0  0  0  0
  -20.9596   -4.2694   21.6476 C   0  0  0  0  0  0  0  0  0  0  0  0
  -23.9120  -10.5868   21.7396 C   0  0  0  0  0  0  0  0  0  0  0  0
  -24.1386  -12.9988   20.9404 C   0  0  0  0  0  0  0  0  0  0  0  0
  -24.4726  -30.9405   22.3595 C   0  0  0  0  0  0  0  0  0  0  0  0
  -28.4246  -25.6150   22.7990 C   0  0  0  0  0  0  0  0  0  0  0  0
  -24.6689  -29.5463   22.3510 C   0  0  0  0  0  0  0  0  0  0  0  0
  -28.2618  -24.4895   21.9786 C   0  0  0  0  0  0  0  0  0  0  0  0
  -22.5276   -8.4349   22.8510 C   0  0  0  0  0  0  0  0  0  0  0  0
  -27.7685  -23.1445   23.9426 C   0  0  0  0  0  0  0  0  0  0  0  0
  -21.9709   -6.1532   22.7726 C   0  0  0  0  0  0  0  0  0  0  0  0
  -22.2137   -3.6721   21.5205 C   0  0  0  0  0  0  0  0  0  0  0  0
  -20.8382   -5.5100   22.2736 C   0  0  0  0  0  0  0  0  0  0  0  0
  -24.6277  -11.6981   21.1661 C   0  0  0  0  0  0  0  0  0  0  0  0
  -29.4315  -18.6637   23.1749 C   0  0  0  0  0  0  0  0  0  0  0  0
  -27.4535  -19.6583   23.7486 C   0  0  0  0  0  0  0  0  0  0  0  0
  -30.1034  -19.8294   23.4712 C   0  0  0  0  0  0  0  0  0  0  0  0
  -28.1253  -20.8239   24.0446 C   0  0  0  0  0  0  0  0  0  1  0  0
  -25.1980  -13.6720   20.3829 C   0  0  0  0  0  0  0  0  0  0  0  0
  -22.8425  -13.5491   21.2105 C   0  0  0  0  0  0  0  0  0  0  0  0
  -26.9548  -27.2859   20.5294 C   0  0  0  0  0  0  0  0  0  0  0  0
  -29.3047  -26.0675   18.6543 C   0  0  0  0  0  0  0  0  0  0  0  0
  -31.6086  -23.6052   18.1296 C   0  0  0  0  0  0  0  0  0  0  0  0
  -30.7125  -14.8728   20.4639 C   0  0  0  0  0  0  0  0  0  0  0  0
  -24.5696  -31.7630   21.0990 C   0  0  0  0  0  0  0  0  0  0  0  0
  -28.8076  -26.9423   22.2041 C   0  0  0  0  0  0  0  0  0  0  0  0
  -28.4287  -24.5671   20.4837 C   0  0  0  0  0  0  0  0  0  0  0  0
  -25.3054  -31.0545   19.9646 C   0  0  0  0  0  0  0  0  0  0  0  0
  -29.6018  -12.0117   18.5897 C   0  0  0  0  0  0  0  0  0  0  0  0
  -24.8051  -29.6211   19.8169 C   0  0  0  0  0  0  0  0  0  0  0  0
  -28.1930  -11.7442   19.1090 C   0  0  0  0  0  0  0  0  0  0  0  0
  -30.5010  -12.5358   19.7013 C   0  0  0  0  0  0  0  0  0  0  0  0
  -29.2088  -16.1639   22.1762 C   0  0  0  0  0  0  0  0  0  0  0  0
  -30.7284  -17.3055   21.2377 C   0  0  0  0  0  0  0  0  0  0  0  0
  -28.5589  -13.5576   20.8580 C   0  0  0  0  0  0  0  0  0  0  0  0
  -25.0702  -28.8102   21.0911 C   0  0  1  0  0  0  0  0  0  0  0  0
  -30.1093  -17.3286   22.6542 C   0  0  0  0  0  0  0  0  0  0  0  0
  -28.4278  -27.0693   20.7321 C   0  0  1  0  0  0  0  0  0  0  0  0
  -27.6165  -13.0040   19.7709 C   0  0  2  0  0  0  0  0  0  0  0  0
  -25.9744  -19.5588   23.9010 C   0  0  0  0  0  0  0  0  0  0  0  0
  -33.3568  -22.8599   16.4908 C   0  0  0  0  0  0  0  0  0  0  0  0
  -27.1163  -25.0604   16.7818 C   0  0  0  0  0  0  0  0  0  0  0  0
  -28.8125  -23.5538   15.7229 C   0  0  0  0  0  0  0  0  0  0  0  0
  -29.1128  -26.0284   15.6278 C   0  0  0  0  0  0  0  0  0  0  0  0
  -33.7622  -23.8307   20.1472 C   0  0  0  0  0  0  0  0  0  0  0  0
  -29.4680  -24.8201   17.8200 C   0  0  1  0  0  0  0  0  0  0  0  0
  -33.0775  -23.6642   17.7509 C   0  0  2  0  0  0  0  0  0  0  0  0
  -28.6223  -24.8643   16.5161 C   0  0  0  0  0  0  0  0  0  0  0  0
  -25.8988  -11.5515   20.7832 N   0  0  0  0  0  0  0  0  0  0  0  0
  -28.0945  -18.5572   23.3084 N   0  0  0  0  0  0  0  0  0  0  0  0
  -29.4623  -20.9304   23.9112 N   0  0  0  0  0  0  0  0  0  0  0  0
  -26.2175  -12.7688   20.3111 N   0  0  0  0  0  0  0  0  0  0  0  0
  -28.7974  -25.8884   19.9491 N   0  0  0  0  0  0  0  0  0  0  0  0
  -29.9327  -13.7154   20.3609 N   0  0  0  0  0  0  0  0  0  0  0  0
  -30.1796  -15.9607   21.1144 N   0  0  0  0  0  0  0  0  0  0  0  0
  -31.5060  -19.8685   23.3081 N   0  0  0  0  0  0  0  0  0  0  0  0
  -25.3477  -14.9426   19.9520 N   0  0  0  0  0  0  0  0  0  0  0  0
  -21.8708  -12.7190   21.7857 N   0  0  0  0  0  0  0  0  0  0  0  0
  -26.4602  -28.4131   21.1574 N   0  0  0  0  0  0  0  0  0  0  0  0
  -30.9012  -24.6624   17.5976 N   0  0  0  0  0  0  0  0  0  0  0  0
  -33.9190  -23.1182   18.8530 N   0  3  0  0  0  0  0  0  0  0  0  0
  -22.5496  -14.7372   20.9345 O   0  0  0  0  0  0  0  0  0  0  0  0
  -26.3146  -26.4902   19.8521 O   0  0  0  0  0  0  0  0  0  0  0  0
  -29.6225  -27.1599   18.1775 O   0  0  0  0  0  0  0  0  0  0  0  0
  -31.1354  -22.7087   18.8246 O   0  0  0  0  0  0  0  0  0  0  0  0
  -31.8650  -14.9261   20.0144 O   0  0  0  0  0  0  0  0  0  0  0  0
  -21.8521   -7.3852   23.3936 O   0  0  0  0  0  0  0  0  0  0  0  0
  -27.4452  -21.9433   24.4945 O   0  0  0  0  0  0  0  0  0  1  0  0
  -22.3307   -2.4815   20.9180 F   0  0  0  0  0  0  0  0  0  0  0  0
  -19.6309   -6.0794   22.3917 F   0  0  0  0  0  0  0  0  0  0  0  0
  1  2  1  0  0  0  0
  1  5  2  0  0  0  0
  2  6  2  0  0  0  0
  3  8  2  0  0  0  0
  3 15  1  0  0  0  0
  4  9  1  0  0  0  0
  4 15  2  0  0  0  0
  5 17  1  0  0  0  0
  6 19  1  0  0  0  0
  7 10  2  0  0  0  0
  7 18  1  0  0  0  0
  8 21  1  0  0  0  0
  9 21  2  0  0  0  0
 10 22  1  0  0  0  0
 11 12  2  0  0  0  0
 11 23  1  0  0  0  0
 12 24  1  0  0  0  0
 13 20  1  0  0  0  0
 13 22  2  0  0  0  0
 14 24  2  0  0  0  0
 14 25  1  0  0  0  0
 15 26  1  0  0  0  0
 16 26  1  0  0  0  0
 16 31  2  0  0  0  0
 16 32  1  0  0  0  0
 17 19  2  0  0  0  0
 17 37  1  0  0  0  0
 18 20  2  0  0  0  0
 18 38  1  0  0  0  0
 19 48  1  0  0  0  0
 20 39  1  0  0  0  0
 21 79  1  0  0  0  0
 22 80  1  0  0  0  0
 23 25  2  0  0  0  0
 23 79  1  0  0  0  0
 24 81  1  0  0  0  0
 25 82  1  0  0  0  0
 26 61  2  0  0  0  0
 27 29  1  0  0  0  0
 27 49  1  0  0  0  0
 27 62  2  0  0  0  0
 28 30  2  0  0  0  0
 28 52  1  0  0  0  0
 28 62  1  0  0  0  0
 29 63  2  0  0  0  0
 29 68  1  0  0  0  0
 30 63  1  0  0  0  0
 30 80  1  0  0  0  0
 31 64  1  0  0  0  0
 31 69  1  0  0  0  0
 32 70  1  0  0  0  0
 32 74  2  0  0  0  0
 33 50  1  0  0  0  0
 33 71  1  0  0  0  0
 33 75  2  0  0  0  0
 34 58  1  0  0  0  0
 34 65  1  0  0  0  0
 34 76  2  0  0  0  0
 35 59  1  0  0  0  0
 35 72  1  0  0  0  0
 35 77  2  0  0  0  0
 36 66  1  0  0  0  0
 36 67  1  0  0  0  0
 36 78  2  0  0  0  0
 37 40  1  0  0  0  0
 38 50  1  0  0  0  0
 39 65  1  0  0  0  0
 40 42  1  0  0  0  0
 41 43  1  0  0  0  0
 41 44  1  0  0  0  0
 42 48  1  0  0  0  0
 43 51  1  0  0  0  0
 44 66  1  0  0  0  0
 45 49  1  0  0  0  0
 45 67  1  0  0  0  0
 46 49  1  0  0  0  0
 46 67  1  0  0  0  0
 47 51  1  0  0  0  0
 47 66  1  0  0  0  0
 48 71  1  0  0  0  0
 50 65  1  0  0  0  0
 51 64  1  0  0  0  0
 53 59  1  0  0  0  0
 54 60  1  0  0  0  0
 55 60  1  0  0  0  0
 56 60  1  0  0  0  0
 57 73  1  0  0  0  0
 58 60  1  0  0  0  0
 58 72  1  0  0  0  0
 59 73  1  0  0  0  0
 61 64  1  0  0  0  0
M  CHG  1  73   1
M  ISO  4  30 101  36 100  67 100  80 101
M  END
> <Batch ID>
0178

> <Smiles>
CNC(C)C(=O)NC(C(=O)N1Cc2cc([101O:1][101c:1]3nc(N)c(C4C[100N:0]([100C:0](=O)N5CCCC(n6nc(-c7ccc(Oc8ccc(F)cc8F)cc7)c(C(N)=O)c6N)C5)C4)nc3C)ccc2CC1C(=O)NC1CCCc2ccccc21)C(C)(C)C

> <Shape>
0.288

> <Color>
0.172

> <Negative vol penalty>
0.000

$$$$

  -OEChem-04052322553D

 84 93  0     1  0  0  0  0  0999 V2000
  -21.5411  -12.3170   19.9975 C   0  0  0  0  0  0  0  0  0  0  0  0
  -21.6212  -13.3738   20.8988 C   0  0  0  0  0  0  0  0  0  0  0  0
  -26.1250  -26.5375   19.5336 C   0  0  0  0  0  0  0  0  0  0  0  0
  -24.9421  -28.1166   18.1393 C   0  0  0  0  0  0  0  0  0  0  0  0
  -22.7069  -11.7187   19.5213 C   0  0  0  0  0  0  0  0  0  0  0  0
  -22.8672  -13.8321   21.3253 C   0  0  0  0  0  0  0  0  0  0  0  0
  -23.1865  -18.8861   21.3134 C   0  0  0  0  0  0  0  0  0  0  0  0
  -26.9115  -26.1644   18.4437 C   0  0  0  0  0  0  0  0  0  0  0  0
  -25.7286  -27.7435   17.0494 C   0  0  0  0  0  0  0  0  0  0  0  0
  -22.5829  -19.5647   22.3712 C   0  0  0  0  0  0  0  0  0  0  0  0
  -29.5879  -27.3783   16.7715 C   0  0  0  0  0  0  0  0  0  0  0  0
  -30.9621  -27.2544   16.9759 C   0  0  0  0  0  0  0  0  0  0  0  0
  -24.7332  -19.8005   23.4390 C   0  0  0  0  0  0  0  0  0  0  0  0
  -30.8503  -24.9319   16.3199 C   0  0  0  0  0  0  0  0  0  0  0  0
  -25.1403  -27.5136   19.3814 C   0  0  0  0  0  0  0  0  0  0  0  0
  -24.5935  -28.9209   21.4376 C   0  0  0  0  0  0  0  0  0  0  0  0
  -23.9681  -12.1762   19.9347 C   0  0  0  0  0  0  0  0  0  0  0  0
  -24.5687  -18.6496   21.3157 C   0  0  0  0  0  0  0  0  0  0  0  0
  -24.0509  -13.2384   20.8552 C   0  0  0  0  0  0  0  0  0  0  0  0
  -25.3522  -19.1209   22.3788 C   0  0  0  0  0  0  0  0  0  0  0  0
  -26.7133  -26.7674   17.2017 C   0  0  0  0  0  0  0  0  0  0  0  0
  -23.3558  -20.0195   23.4356 C   0  0  0  0  0  0  0  0  0  0  0  0
  -28.8448  -26.2789   16.3413 C   0  0  0  0  0  0  0  0  0  0  0  0
  -31.5933  -26.0312   16.7501 C   0  0  0  0  0  0  0  0  0  0  0  0
  -29.4761  -25.0557   16.1154 C   0  0  0  0  0  0  0  0  0  0  0  0
  -24.3271  -27.8991   20.5067 C   0  0  0  0  0  0  0  0  0  0  0  0
  -21.2962  -22.9935   28.4382 C   0  0  0  0  0  0  0  0  0  0  0  0
  -23.3644  -22.5772   27.5557 C   0  0  0  0  0  0  0  0  0  0  0  0
  -20.7214  -22.2135   27.4591 C   0  0  0  0  0  0  0  0  0  0  0  0
  -22.7897  -21.7966   26.5770 C   0  0  0  0  0  0  0  0  0  0  0  0
  -23.5262  -28.8853   22.3014 C   0  0  0  0  0  0  0  0  0  0  0  0
  -25.7062  -29.8219   21.5147 C   0  0  0  0  0  0  0  0  0  0  0  0
  -26.4000  -16.0515   21.3255 C   0  0  0  0  0  0  0  0  0  0  0  0
  -28.7941  -18.2127   20.9799 C   0  0  0  0  0  0  0  0  0  0  0  0
  -29.8904  -21.4157   21.4109 C   0  0  0  0  0  0  0  0  0  0  0  0
  -19.8735  -24.3951   23.7138 C   0  0  0  0  0  0  0  0  0  0  0  0
  -25.1992  -11.4669   19.4290 C   0  0  0  0  0  0  0  0  0  0  0  0
  -25.2085  -17.9395   20.1543 C   0  0  0  0  0  0  0  0  0  0  0  0
  -26.8431  -18.9105   22.4193 C   0  0  0  0  0  0  0  0  0  0  0  0
  -26.4880  -12.2569   19.6418 C   0  0  0  0  0  0  0  0  0  0  0  0
  -18.9017  -27.7448   22.5104 C   0  0  0  0  0  0  0  0  0  0  0  0
  -26.5453  -12.8125   21.0612 C   0  0  0  0  0  0  0  0  0  0  0  0
  -20.2123  -28.2274   21.8959 C   0  0  0  0  0  0  0  0  0  0  0  0
  -17.2146  -22.7610   25.9143 C   0  0  0  0  0  0  0  0  0  0  0  0
  -18.7153  -26.2364   22.3523 C   0  0  0  0  0  0  0  0  0  0  0  0
  -21.1723  -25.9209   22.2617 C   0  0  0  0  0  0  0  0  0  0  0  0
  -25.3846  -13.7800   21.3223 C   0  0  1  0  0  0  0  0  0  0  0  0
  -26.5492  -17.3033   20.5080 C   0  0  1  0  0  0  0  0  0  0  0  0
  -18.5466  -23.0597   26.5420 C   0  0  2  0  0  0  0  0  0  0  0  0
  -21.3998  -27.4281   22.4540 C   0  0  1  0  0  0  0  0  0  0  0  0
  -18.4426  -22.8779   25.0490 C   0  0  2  0  0  0  0  0  0  0  0  0
  -20.4707  -23.6659   29.4812 C   0  0  0  0  0  0  0  0  0  0  0  0
  -24.8390  -22.7860   27.6172 C   0  0  0  0  0  0  0  0  0  0  0  0
  -31.4221  -23.3958   21.2368 C   0  0  0  0  0  0  0  0  0  0  0  0
  -30.1283  -16.9361   23.4089 C   0  0  0  0  0  0  0  0  0  0  0  0
  -31.5831  -18.9657   23.5894 C   0  0  0  0  0  0  0  0  0  0  0  0
  -31.6937  -17.5313   21.5515 C   0  0  0  0  0  0  0  0  0  0  0  0
  -28.7432  -22.2205   18.8041 C   0  0  0  0  0  0  0  0  0  0  0  0
  -19.2467  -22.0060   27.3969 C   0  0  0  0  0  0  0  0  0  0  0  0
  -23.6211  -21.1196   25.5273 C   0  0  0  0  0  0  0  0  0  1  0  0
  -29.6694  -18.9990   21.9258 C   0  0  1  0  0  0  0  0  0  0  0  0
  -30.5984  -22.3733   20.4695 C   0  0  2  0  0  0  0  0  0  0  0  0
  -30.7403  -18.1104   22.6194 C   0  0  0  0  0  0  0  0  0  0  0  0
  -23.1806  -27.2608   20.7557 N   0  0  0  0  0  0  0  0  0  0  0  0
  -22.6280  -23.1894   28.5041 N   0  0  0  0  0  0  0  0  0  0  0  0
  -21.4578  -21.6010   26.5109 N   0  0  0  0  0  0  0  0  0  0  0  0
  -22.7171  -27.8831   21.8530 N   0  0  0  0  0  0  0  0  0  0  0  0
  -27.4210  -18.2052   21.2634 N   0  0  0  0  0  0  0  0  0  0  0  0
  -19.8899  -25.4925   22.8340 N   0  0  0  0  0  0  0  0  0  0  0  0
  -23.2103  -29.6138   23.3932 N   0  0  0  0  0  0  0  0  0  0  0  0
  -26.7151  -29.7219   20.5469 N   0  0  0  0  0  0  0  0  0  0  0  0
  -25.6510  -15.0652   20.7126 N   0  0  0  0  0  0  0  0  0  0  0  0
  -30.2215  -20.1032   21.1484 N   0  0  0  0  0  0  0  0  0  0  0  0
  -18.6182  -23.9888   24.1520 N   0  0  0  0  0  0  0  0  0  0  0  0
  -29.6063  -23.1032   19.6305 N   0  3  0  0  0  0  0  0  0  0  0  0
  -25.8111  -30.6789   22.4246 O   0  0  0  0  0  0  0  0  0  0  0  0
  -26.9267  -15.9848   22.4300 O   0  0  0  0  0  0  0  0  0  0  0  0
  -29.3089  -17.6326   20.0207 O   0  0  0  0  0  0  0  0  0  0  0  0
  -29.1234  -21.7944   22.2934 O   0  0  0  0  0  0  0  0  0  0  0  0
  -20.9014  -23.8142   24.0793 O   0  0  0  0  0  0  0  0  0  0  0  0
  -27.4807  -26.4037   16.1380 O   0  0  0  0  0  0  0  0  0  0  0  0
  -22.7691  -20.6815   24.4697 O   0  0  0  0  0  0  0  0  0  1  0  0
  -32.9132  -25.9129   16.9450 F   0  0  0  0  0  0  0  0  0  0  0  0
  -28.7678  -23.9964   15.7010 F   0  0  0  0  0  0  0  0  0  0  0  0
  1  2  1  0  0  0  0
  1  5  2  0  0  0  0
  2  6  2  0  0  0  0
  3  8  2  0  0  0  0
  3 15  1  0  0  0  0
  4  9  1  0  0  0  0
  4 15  2  0  0  0  0
  5 17  1  0  0  0  0
  6 19  1  0  0  0  0
  7 10  2  0  0  0  0
  7 18  1  0  0  0  0
  8 21  1  0  0  0  0
  9 21  2  0  0  0  0
 10 22  1  0  0  0  0
 11 12  2  0  0  0  0
 11 23  1  0  0  0  0
 12 24  1  0  0  0  0
 13 20  1  0  0  0  0
 13 22  2  0  0  0  0
 14 24  2  0  0  0  0
 14 25  1  0  0  0  0
 15 26  1  0  0  0  0
 16 26  1  0  0  0  0
 16 31  2  0  0  0  0
 16 32  1  0  0  0  0
 17 19  2  0  0  0  0
 17 37  1  0  0  0  0
 18 20  2  0  0  0  0
 18 38  1  0  0  0  0
 19 47  1  0  0  0  0
 20 39  1  0  0  0  0
 21 81  1  0  0  0  0
 22 82  1  0  0  0  0
 23 25  2  0  0  0  0
 23 81  1  0  0  0  0
 24 83  1  0  0  0  0
 25 84  1  0  0  0  0
 26 64  2  0  0  0  0
 27 29  1  0  0  0  0
 27 52  1  0  0  0  0
 27 65  2  0  0  0  0
 28 30  2  0  0  0  0
 28 53  1  0  0  0  0
 28 65  1  0  0  0  0
 29 59  1  0  0  0  0
 29 66  2  0  0  0  0
 30 60  1  0  0  0  0
 30 66  1  0  0  0  0
 31 67  1  0  0  0  0
 31 70  1  0  0  0  0
 32 71  1  0  0  0  0
 32 76  2  0  0  0  0
 33 48  1  0  0  0  0
 33 72  1  0  0  0  0
 33 77  2  0  0  0  0
 34 61  1  0  0  0  0
 34 68  1  0  0  0  0
 34 78  2  0  0  0  0
 35 62  1  0  0  0  0
 35 73  1  0  0  0  0
 35 79  2  0  0  0  0
 36 69  1  0  0  0  0
 36 74  1  0  0  0  0
 36 80  2  0  0  0  0
 37 40  1  0  0  0  0
 38 48  1  0  0  0  0
 39 68  1  0  0  0  0
 40 42  1  0  0  0  0
 41 43  1  0  0  0  0
 41 45  1  0  0  0  0
 42 47  1  0  0  0  0
 43 50  1  0  0  0  0
 44 49  1  0  0  0  0
 44 51  1  0  0  0  0
 45 69  1  0  0  0  0
 46 50  1  0  0  0  0
 46 69  1  0  0  0  0
 47 72  1  0  0  0  0
 48 68  1  0  0  0  0
 49 51  1  0  0  0  0
 49 59  1  0  0  0  0
 50 67  1  0  0  0  0
 51 74  1  0  0  0  0
 54 62  1  0  0  0  0
 55 63  1  0  0  0  0
 56 63  1  0  0  0  0
 57 63  1  0  0  0  0
 58 75  1  0  0  0  0
 60 82  1  0  0  0  0
 61 63  1  0  0  0  0
 61 73  1  0  0  0  0
 62 75  1  0  0  0  0
 64 67  1  0  0  0  0
M  CHG  1  75   1
M  ISO  4  36 100  60 101  74 100  82 101
M  END
> <Batch ID>
0178

> <Smiles>
CNC(C)C(=O)NC(C(=O)N1Cc2cc([101O:1][101CH2:1]c3nc(CC4CC4[100NH:0][100C:0](=O)N4CCCC(n5nc(-c6ccc(Oc7ccc(F)cc7F)cc6)c(C(N)=O)c5N)C4)c(C)nc3C)ccc2CC1C(=O)NC1CCCc2ccccc21)C(C)(C)C

> <Shape>
0.202

> <Color>
0.056

> <Negative vol penalty>
0.000

$$$$

  -OEChem-04052322553D

 79 87  0     1  0  0  0  0  0999 V2000
  -27.1353  -20.5973   17.0179 C   0  0  0  0  0  0  0  0  0  0  0  0
  -27.8901  -20.2332   18.1283 C   0  0  0  0  0  0  0  0  0  0  0  0
  -23.1574   -9.8624   19.9643 C   0  0  0  0  0  0  0  0  0  0  0  0
  -23.8324   -9.9644   22.2819 C   0  0  0  0  0  0  0  0  0  0  0  0
  -27.4390  -21.7674   16.3232 C   0  0  0  0  0  0  0  0  0  0  0  0
  -28.9498  -21.0384   18.5441 C   0  0  0  0  0  0  0  0  0  0  0  0
  -29.0056  -21.7395   23.5591 C   0  0  0  0  0  0  0  0  0  0  0  0
  -22.4474   -8.6899   20.2227 C   0  0  0  0  0  0  0  0  0  0  0  0
  -23.1224   -8.7919   22.5403 C   0  0  0  0  0  0  0  0  0  0  0  0
  -29.4997  -20.6973   24.3423 C   0  0  0  0  0  0  0  0  0  0  0  0
  -23.5543   -5.4684   22.0947 C   0  0  0  0  0  0  0  0  0  0  0  0
  -24.1801   -4.4882   22.8647 C   0  0  0  0  0  0  0  0  0  0  0  0
  -31.6117  -21.8477   24.5300 C   0  0  0  0  0  0  0  0  0  0  0  0
  -22.4125   -4.6473   24.5040 C   0  0  0  0  0  0  0  0  0  0  0  0
  -32.9385  -16.6693   23.7165 C   0  0  0  0  0  0  0  0  0  0  0  0
  -30.4661  -15.8274   24.2692 C   0  0  0  0  0  0  0  0  0  0  0  0
  -23.8500  -10.4996   20.9939 C   0  0  0  0  0  0  0  0  0  0  0  0
  -24.1037  -13.0313   20.8095 C   0  0  0  0  0  0  0  0  0  0  0  0
  -28.4969  -22.5924   16.7365 C   0  0  0  0  0  0  0  0  0  0  0  0
  -29.8158  -22.8404   23.2459 C   0  0  0  0  0  0  0  0  0  0  0  0
  -29.2689  -22.2200   17.8535 C   0  0  0  0  0  0  0  0  0  0  0  0
  -31.1247  -22.9038   23.7448 C   0  0  0  0  0  0  0  0  0  0  0  0
  -22.4299   -8.1547   21.5107 C   0  0  0  0  0  0  0  0  0  0  0  0
  -30.8039  -20.7499   24.8254 C   0  0  0  0  0  0  0  0  0  0  0  0
  -22.3575   -6.0382   22.5293 C   0  0  0  0  0  0  0  0  0  0  0  0
  -23.6092   -4.0776   24.0694 C   0  0  0  0  0  0  0  0  0  0  0  0
  -21.7866   -5.6276   23.7339 C   0  0  0  0  0  0  0  0  0  0  0  0
  -24.5840  -11.7105   20.7275 C   0  0  0  0  0  0  0  0  0  0  0  0
  -32.2885  -17.0756   24.8611 C   0  0  0  0  0  0  0  0  0  0  0  0
  -31.1157  -15.4216   23.1243 C   0  0  0  0  0  0  0  0  0  0  0  0
  -25.1803  -13.8103   20.4624 C   0  0  0  0  0  0  0  0  0  0  0  0
  -22.8008  -13.5110   21.1674 C   0  0  0  0  0  0  0  0  0  0  0  0
  -30.9490  -24.0984   20.5557 C   0  0  0  0  0  0  0  0  0  0  0  0
  -32.0068  -26.4282   22.5495 C   0  0  0  0  0  0  0  0  0  0  0  0
  -32.9181  -27.3454   25.7078 C   0  0  0  0  0  0  0  0  0  0  0  0
  -30.9234  -14.0209   21.0393 C   0  0  0  0  0  0  0  0  0  0  0  0
  -28.8172  -23.8231   15.9257 C   0  0  0  0  0  0  0  0  0  0  0  0
  -29.2591  -23.9691   22.4222 C   0  0  0  0  0  0  0  0  0  0  0  0
  -32.0284  -24.0731   23.4541 C   0  0  0  0  0  0  0  0  0  0  0  0
  -29.7200  -24.8149   16.6547 C   0  0  0  0  0  0  0  0  0  0  0  0
  -29.3903  -13.0313   17.9820 C   0  0  0  0  0  0  0  0  0  0  0  0
  -30.8952  -24.0902   17.3032 C   0  0  0  0  0  0  0  0  0  0  0  0
  -27.9473  -12.7186   18.3846 C   0  0  0  0  0  0  0  0  0  0  0  0
  -30.3843  -12.6130   19.0639 C   0  0  0  0  0  0  0  0  0  0  0  0
  -28.6572  -12.8267   20.8077 C   0  0  0  0  0  0  0  0  0  0  0  0
  -30.4106  -23.0801   18.3502 C   0  0  1  0  0  0  0  0  0  0  0  0
  -30.3406  -24.7991   21.7375 C   0  0  1  0  0  0  0  0  0  0  0  0
  -27.6144  -13.2894   19.7770 C   0  0  2  0  0  0  0  0  0  0  0  0
  -33.7736  -29.3058   27.0203 C   0  0  0  0  0  0  0  0  0  0  0  0
  -34.7885  -26.0001   21.3711 C   0  0  0  0  0  0  0  0  0  0  0  0
  -35.7320  -27.2521   23.3232 C   0  0  0  0  0  0  0  0  0  0  0  0
  -34.1720  -28.3944   21.7471 C   0  0  0  0  0  0  0  0  0  0  0  0
  -30.5263  -27.3704   27.4507 C   0  0  0  0  0  0  0  0  0  0  0  0
  -32.9635  -18.0109   25.8346 C   0  0  0  0  0  0  0  0  0  0  0  0
  -32.6906  -19.4766   25.5147 C   0  0  0  0  0  0  0  0  0  1  0  0
  -33.2661  -26.6608   23.3489 C   0  0  1  0  0  0  0  0  0  0  0  0
  -32.5405  -28.5460   26.5565 C   0  0  2  0  0  0  0  0  0  0  0  0
  -34.4735  -27.0538   22.4516 C   0  0  0  0  0  0  0  0  0  0  0  0
  -31.0408  -16.6617   25.1581 N   0  0  0  0  0  0  0  0  0  0  0  0
  -32.3636  -15.8353   22.8275 N   0  0  0  0  0  0  0  0  0  0  0  0
  -25.8659  -11.6501   20.3573 N   0  0  0  0  0  0  0  0  0  0  0  0
  -26.2002  -12.9426   20.2035 N   0  0  0  0  0  0  0  0  0  0  0  0
  -31.4402  -25.1488   22.6390 N   0  0  0  0  0  0  0  0  0  0  0  0
  -30.0078  -13.1943   20.3543 N   0  0  0  0  0  0  0  0  0  0  0  0
  -25.3446  -15.1461   20.3565 N   0  0  0  0  0  0  0  0  0  0  0  0
  -21.8111  -12.5747   21.4961 N   0  0  0  0  0  0  0  0  0  0  0  0
  -30.4427  -14.5427   22.2398 N   0  0  0  0  0  0  0  0  0  0  0  0
  -30.0387  -23.7589   19.5731 N   0  0  0  0  0  0  0  0  0  0  0  0
  -32.9280  -27.6529   24.3637 N   0  0  0  0  0  0  0  0  0  0  0  0
  -31.7769  -28.1102   27.7598 N   0  3  0  0  0  0  0  0  0  0  0  0
  -22.5180  -14.7331   21.1789 O   0  0  0  0  0  0  0  0  0  0  0  0
  -32.1552  -23.8830   20.5361 O   0  0  0  0  0  0  0  0  0  0  0  0
  -31.5390  -27.3499   21.8763 O   0  0  0  0  0  0  0  0  0  0  0  0
  -33.1818  -26.2458   26.1894 O   0  0  0  0  0  0  0  0  0  0  0  0
  -32.0410  -14.2708   20.5805 O   0  0  0  0  0  0  0  0  0  0  0  0
  -21.7370   -7.0107   21.7633 O   0  0  0  0  0  0  0  0  0  0  0  0
  -31.2889  -19.7336   25.5895 O   0  0  0  0  0  0  0  0  0  1  0  0
  -24.2096   -3.1351   24.8080 F   0  0  0  0  0  0  0  0  0  0  0  0
  -20.6365   -6.1705   24.1561 F   0  0  0  0  0  0  0  0  0  0  0  0
  1  2  1  0  0  0  0
  1  5  2  0  0  0  0
  2  6  2  0  0  0  0
  3  8  2  0  0  0  0
  3 17  1  0  0  0  0
  4  9  1  0  0  0  0
  4 17  2  0  0  0  0
  5 19  1  0  0  0  0
  6 21  1  0  0  0  0
  7 10  2  0  0  0  0
  7 20  1  0  0  0  0
  8 23  1  0  0  0  0
  9 23  2  0  0  0  0
 10 24  1  0  0  0  0
 11 12  2  0  0  0  0
 11 25  1  0  0  0  0
 12 26  1  0  0  0  0
 13 22  1  0  0  0  0
 13 24  2  0  0  0  0
 14 26  2  0  0  0  0
 14 27  1  0  0  0  0
 15 29  1  0  0  0  0
 15 60  2  0  0  0  0
 16 30  2  0  0  0  0
 16 59  1  0  0  0  0
 17 28  1  0  0  0  0
 18 28  1  0  0  0  0
 18 31  2  0  0  0  0
 18 32  1  0  0  0  0
 19 21  2  0  0  0  0
 19 37  1  0  0  0  0
 20 22  2  0  0  0  0
 20 38  1  0  0  0  0
 21 46  1  0  0  0  0
 22 39  1  0  0  0  0
 23 76  1  0  0  0  0
 24 77  1  0  0  0  0
 25 27  2  0  0  0  0
 25 76  1  0  0  0  0
 26 78  1  0  0  0  0
 27 79  1  0  0  0  0
 28 61  2  0  0  0  0
 29 54  1  0  0  0  0
 29 59  2  0  0  0  0
 30 60  1  0  0  0  0
 30 67  1  0  0  0  0
 31 62  1  0  0  0  0
 31 65  1  0  0  0  0
 32 66  1  0  0  0  0
 32 71  2  0  0  0  0
 33 47  1  0  0  0  0
 33 68  1  0  0  0  0
 33 72  2  0  0  0  0
 34 56  1  0  0  0  0
 34 63  1  0  0  0  0
 34 73  2  0  0  0  0
 35 57  1  0  0  0  0
 35 69  1  0  0  0  0
 35 74  2  0  0  0  0
 36 64  1  0  0  0  0
 36 67  1  0  0  0  0
 36 75  2  0  0  0  0
 37 40  1  0  0  0  0
 38 47  1  0  0  0  0
 39 63  1  0  0  0  0
 40 42  1  0  0  0  0
 41 43  1  0  0  0  0
 41 44  1  0  0  0  0
 42 46  1  0  0  0  0
 43 48  1  0  0  0  0
 44 64  1  0  0  0  0
 45 48  1  0  0  0  0
 45 64  1  0  0  0  0
 46 68  1  0  0  0  0
 47 63  1  0  0  0  0
 48 62  1  0  0  0  0
 49 57  1  0  0  0  0
 50 58  1  0  0  0  0
 51 58  1  0  0  0  0
 52 58  1  0  0  0  0
 53 70  1  0  0  0  0
 54 55  1  0  0  0  0
 55 77  1  0  0  0  0
 56 58  1  0  0  0  0
 56 69  1  0  0  0  0
 57 70  1  0  0  0  0
 61 62  1  0  0  0  0
M  CHG  1  70   1
M  ISO  4  36 100  55 101  67 100  77 101
M  END
> <Batch ID>
0178

> <Smiles>
CNC(C)C(=O)NC(C(=O)N1Cc2cc([101O:1][101CH2:1]Cc3cnc([100NH:0][100C:0](=O)N4CCCC(n5nc(-c6ccc(Oc7ccc(F)cc7F)cc6)c(C(N)=O)c5N)C4)cn3)ccc2CC1C(=O)NC1CCCc2ccccc21)C(C)(C)C

> <Shape>
0.208

> <Color>
0.188

> <Negative vol penalty>
0.000

$$$$

  -OEChem-04052322553D

 82 91  0     1  0  0  0  0  0999 V2000
  -19.8456  -25.2470   24.6863 C   0  0  0  0  0  0  0  0  0  0  0  0
  -20.9252  -25.1539   23.8139 C   0  0  0  0  0  0  0  0  0  0  0  0
  -24.8065  -10.4537   22.7779 C   0  0  0  0  0  0  0  0  0  0  0  0
  -24.7554  -12.0879   24.5565 C   0  0  0  0  0  0  0  0  0  0  0  0
  -18.9472  -26.3070   24.5711 C   0  0  0  0  0  0  0  0  0  0  0  0
  -21.1066  -26.1202   22.8251 C   0  0  0  0  0  0  0  0  0  0  0  0
  -25.9172  -27.6629   22.4752 C   0  0  0  0  0  0  0  0  0  0  0  0
  -24.4589   -9.4540   23.6864 C   0  0  0  0  0  0  0  0  0  0  0  0
  -24.4077  -11.0882   25.4651 C   0  0  0  0  0  0  0  0  0  0  0  0
  -26.8082  -26.8234   21.8080 C   0  0  0  0  0  0  0  0  0  0  0  0
  -23.2321   -6.5337   25.4701 C   0  0  0  0  0  0  0  0  0  0  0  0
  -22.2445   -5.6255   25.0886 C   0  0  0  0  0  0  0  0  0  0  0  0
  -26.6125  -28.1950   19.8333 C   0  0  0  0  0  0  0  0  0  0  0  0
  -26.6035  -24.3423   19.8349 C   0  0  0  0  0  0  0  0  0  0  0  0
  -20.6695   -7.4411   24.8437 C   0  0  0  0  0  0  0  0  0  0  0  0
  -28.9408  -24.0743   20.1856 C   0  0  0  0  0  0  0  0  0  0  0  0
  -24.9548  -11.7707   23.2130 C   0  0  0  0  0  0  0  0  0  0  0  0
  -24.4403  -13.6038   21.5151 C   0  0  0  0  0  0  0  0  0  0  0  0
  -19.1230  -27.2921   23.5865 C   0  0  0  0  0  0  0  0  0  0  0  0
  -25.3578  -28.7705   21.8218 C   0  0  0  0  0  0  0  0  0  0  0  0
  -20.2089  -27.1936   22.6958 C   0  0  0  0  0  0  0  0  0  0  0  0
  -25.7167  -29.0485   20.4952 C   0  0  0  0  0  0  0  0  0  0  0  0
  -26.4568  -22.9659   19.9673 C   0  0  0  0  0  0  0  0  0  0  0  0
  -24.2595   -9.7713   25.0300 C   0  0  0  0  0  0  0  0  0  0  0  0
  -27.1537  -27.0877   20.4859 C   0  0  0  0  0  0  0  0  0  0  0  0
  -22.9383   -7.8956   25.5385 C   0  0  0  0  0  0  0  0  0  0  0  0
  -27.8660  -24.9147   19.9443 C   0  0  0  0  0  0  0  0  0  1  0  0
  -20.9633   -6.0792   24.7753 C   0  0  0  0  0  0  0  0  0  0  0  0
  -21.6570   -8.3493   25.2252 C   0  0  0  0  0  0  0  0  0  0  0  0
  -25.3144  -12.8037   22.2751 C   0  0  0  0  0  0  0  0  0  0  0  0
  -27.5945  -22.2124   20.2072 C   0  0  0  0  0  0  0  0  0  0  0  0
  -25.2691  -14.4226   20.7877 C   0  0  0  0  0  0  0  0  0  0  0  0
  -23.0072  -13.6066   21.4707 C   0  0  0  0  0  0  0  0  0  0  0  0
  -22.4075  -29.6617   21.0442 C   0  0  0  0  0  0  0  0  0  0  0  0
  -23.8952  -32.3899   20.1136 C   0  0  0  0  0  0  0  0  0  0  0  0
  -26.7674  -33.9158   19.0796 C   0  0  0  0  0  0  0  0  0  0  0  0
  -29.7368  -17.7459   20.4824 C   0  0  0  0  0  0  0  0  0  0  0  0
  -18.0992  -28.3934   23.4705 C   0  0  0  0  0  0  0  0  0  0  0  0
  -24.4189  -29.6816   22.5639 C   0  0  0  0  0  0  0  0  0  0  0  0
  -25.1598  -30.2363   19.7553 C   0  0  0  0  0  0  0  0  0  0  0  0
  -18.5729  -29.5799   22.6351 C   0  0  0  0  0  0  0  0  0  0  0  0
  -30.2538  -14.2769   20.0566 C   0  0  0  0  0  0  0  0  0  0  0  0
  -19.2175  -29.0972   21.3396 C   0  0  0  0  0  0  0  0  0  0  0  0
  -28.9626  -13.6391   20.5618 C   0  0  0  0  0  0  0  0  0  0  0  0
  -27.3133  -20.1700   21.7880 C   0  0  0  0  0  0  0  0  0  0  0  0
  -30.6303  -15.4828   20.9068 C   0  0  0  0  0  0  0  0  0  0  0  0
  -27.6581  -18.6939   21.6421 C   0  0  0  0  0  0  0  0  0  0  0  0
  -28.7435  -19.9398   19.9066 C   0  0  0  0  0  0  0  0  0  0  0  0
  -28.2488  -15.9214   21.4418 C   0  0  0  0  0  0  0  0  0  0  0  0
  -20.4533  -28.2357   21.6259 C   0  0  1  0  0  0  0  0  0  0  0  0
  -27.4958  -20.7107   20.3605 C   0  0  2  0  0  0  0  0  0  0  0  0
  -23.5128  -30.4879   21.6386 C   0  0  1  0  0  0  0  0  0  0  0  0
  -27.8337  -14.6795   20.6261 C   0  0  2  0  0  0  0  0  0  0  0  0
  -25.1072  -22.3464   19.8502 C   0  0  0  0  0  0  0  0  0  0  0  0
  -27.6635  -36.1460   18.3582 C   0  0  0  0  0  0  0  0  0  0  0  0
  -22.5481  -32.0497   17.3971 C   0  0  0  0  0  0  0  0  0  0  0  0
  -24.1782  -33.7026   16.4596 C   0  0  0  0  0  0  0  0  0  0  0  0
  -22.5907  -34.3990   18.2534 C   0  0  0  0  0  0  0  0  0  0  0  0
  -28.6977  -33.9956   21.3216 C   0  0  0  0  0  0  0  0  0  0  0  0
  -24.5268  -32.8798   18.8329 C   0  0  1  0  0  0  0  0  0  0  0  0
  -27.4439  -35.1988   19.5275 C   0  0  2  0  0  0  0  0  0  0  0  0
  -23.4701  -33.2342   17.7488 C   0  0  0  0  0  0  0  0  0  0  0  0
  -28.8370  -22.7331   20.3206 N   0  0  0  0  0  0  0  0  0  0  0  0
  -26.6001  -13.0883   22.0511 N   0  0  0  0  0  0  0  0  0  0  0  0
  -26.5398  -14.0764   21.1422 N   0  0  0  0  0  0  0  0  0  0  0  0
  -24.2408  -31.0939   20.5219 N   0  0  0  0  0  0  0  0  0  0  0  0
  -29.5386  -16.4552   20.9852 N   0  0  0  0  0  0  0  0  0  0  0  0
  -28.6952  -18.6637   20.6129 N   0  0  0  0  0  0  0  0  0  0  0  0
  -25.0276  -15.3976   19.8859 N   0  0  0  0  0  0  0  0  0  0  0  0
  -22.3118  -12.7002   22.2826 N   0  0  0  0  0  0  0  0  0  0  0  0
  -21.5806  -29.0711   21.9806 N   0  0  0  0  0  0  0  0  0  0  0  0
  -25.3963  -33.9905   19.2055 N   0  0  0  0  0  0  0  0  0  0  0  0
  -28.7670  -34.8988   20.1442 N   0  3  0  0  0  0  0  0  0  0  0  0
  -22.3628  -14.3786   20.7208 O   0  0  0  0  0  0  0  0  0  0  0  0
  -22.3110  -29.5683   19.8261 O   0  0  0  0  0  0  0  0  0  0  0  0
  -23.1292  -33.1325   20.7327 O   0  0  0  0  0  0  0  0  0  0  0  0
  -27.3925  -32.9458   18.6567 O   0  0  0  0  0  0  0  0  0  0  0  0
  -30.8158  -18.0790   19.9740 O   0  0  0  0  0  0  0  0  0  0  0  0
  -23.9200   -8.7961   25.9167 O   0  0  0  0  0  0  0  0  0  0  0  0
  -28.0395  -26.2536   19.8195 O   0  0  0  0  0  0  0  0  0  1  0  0
  -20.0155   -5.2071   24.4075 F   0  0  0  0  0  0  0  0  0  0  0  0
  -21.3692   -9.6566   25.2879 F   0  0  0  0  0  0  0  0  0  0  0  0
  1  2  1  0  0  0  0
  1  5  2  0  0  0  0
  2  6  2  0  0  0  0
  3  8  2  0  0  0  0
  3 17  1  0  0  0  0
  4  9  1  0  0  0  0
  4 17  2  0  0  0  0
  5 19  1  0  0  0  0
  6 21  1  0  0  0  0
  7 10  2  0  0  0  0
  7 20  1  0  0  0  0
  8 24  1  0  0  0  0
  9 24  2  0  0  0  0
 10 25  1  0  0  0  0
 11 12  2  0  0  0  0
 11 26  1  0  0  0  0
 12 28  1  0  0  0  0
 13 22  1  0  0  0  0
 13 25  2  0  0  0  0
 14 23  1  0  0  0  0
 14 27  2  0  0  0  0
 15 28  2  0  0  0  0
 15 29  1  0  0  0  0
 16 27  1  0  0  0  0
 16 63  2  0  0  0  0
 17 30  1  0  0  0  0
 18 30  1  0  0  0  0
 18 32  2  0  0  0  0
 18 33  1  0  0  0  0
 19 21  2  0  0  0  0
 19 38  1  0  0  0  0
 20 22  2  0  0  0  0
 20 39  1  0  0  0  0
 21 50  1  0  0  0  0
 22 40  1  0  0  0  0
 23 31  2  0  0  0  0
 23 54  1  0  0  0  0
 24 79  1  0  0  0  0
 25 80  1  0  0  0  0
 26 29  2  0  0  0  0
 26 79  1  0  0  0  0
 27 80  1  0  0  0  0
 28 81  1  0  0  0  0
 29 82  1  0  0  0  0
 30 64  2  0  0  0  0
 31 51  1  0  0  0  0
 31 63  1  0  0  0  0
 32 65  1  0  0  0  0
 32 69  1  0  0  0  0
 33 70  1  0  0  0  0
 33 74  2  0  0  0  0
 34 52  1  0  0  0  0
 34 71  1  0  0  0  0
 34 75  2  0  0  0  0
 35 60  1  0  0  0  0
 35 66  1  0  0  0  0
 35 76  2  0  0  0  0
 36 61  1  0  0  0  0
 36 72  1  0  0  0  0
 36 77  2  0  0  0  0
 37 67  1  0  0  0  0
 37 68  1  0  0  0  0
 37 78  2  0  0  0  0
 38 41  1  0  0  0  0
 39 52  1  0  0  0  0
 40 66  1  0  0  0  0
 41 43  1  0  0  0  0
 42 44  1  0  0  0  0
 42 46  1  0  0  0  0
 43 50  1  0  0  0  0
 44 53  1  0  0  0  0
 45 47  1  0  0  0  0
 45 51  1  0  0  0  0
 46 67  1  0  0  0  0
 47 68  1  0  0  0  0
 48 51  1  0  0  0  0
 48 68  1  0  0  0  0
 49 53  1  0  0  0  0
 49 67  1  0  0  0  0
 50 71  1  0  0  0  0
 52 66  1  0  0  0  0
 53 65  1  0  0  0  0
 55 61  1  0  0  0  0
 56 62  1  0  0  0  0
 57 62  1  0  0  0  0
 58 62  1  0  0  0  0
 59 73  1  0  0  0  0
 60 62  1  0  0  0  0
 60 72  1  0  0  0  0
 61 73  1  0  0  0  0
 64 65  1  0  0  0  0
M  CHG  1  73   1
M  ISO  4  27 101  37 100  68 100  80 101
M  END
> <Batch ID>
0178

> <Smiles>
CNC(C)C(=O)NC(C(=O)N1Cc2cc([101O:1][101c:1]3cnc(C4CC[100N:0]([100C:0](=O)N5CCCC(n6nc(-c7ccc(Oc8ccc(F)cc8F)cc7)c(C(N)=O)c6N)C5)C4)c(C)c3)ccc2CC1C(=O)NC1CCCc2ccccc21)C(C)(C)C

> <Shape>
0.250

> <Color>
0.156

> <Negative vol penalty>
0.000

$$$$

  -OEChem-04052322553D

 82 91  0     1  0  0  0  0  0999 V2000
  -27.0268  -34.7634   23.4084 C   0  0  0  0  0  0  0  0  0  0  0  0
  -27.9320  -33.9025   22.7960 C   0  0  0  0  0  0  0  0  0  0  0  0
  -24.0976  -11.3874   23.8342 C   0  0  0  0  0  0  0  0  0  0  0  0
  -24.1885  -13.7780   24.1716 C   0  0  0  0  0  0  0  0  0  0  0  0
  -25.8792  -34.2515   24.0126 C   0  0  0  0  0  0  0  0  0  0  0  0
  -27.6907  -32.5292   22.7886 C   0  0  0  0  0  0  0  0  0  0  0  0
  -28.7151  -26.7028   18.7487 C   0  0  0  0  0  0  0  0  0  0  0  0
  -23.5947  -11.2243   25.1249 C   0  0  0  0  0  0  0  0  0  0  0  0
  -23.6855  -13.6149   25.4624 C   0  0  0  0  0  0  0  0  0  0  0  0
  -29.2386  -25.4133   18.8313 C   0  0  0  0  0  0  0  0  0  0  0  0
  -20.6819  -13.0739   26.9136 C   0  0  0  0  0  0  0  0  0  0  0  0
  -19.6666  -13.9369   27.3257 C   0  0  0  0  0  0  0  0  0  0  0  0
  -27.1832  -24.6498   19.8372 C   0  0  0  0  0  0  0  0  0  0  0  0
  -30.0762  -20.7416   20.7735 C   0  0  0  0  0  0  0  0  0  0  0  0
  -21.0680  -14.7245   29.1293 C   0  0  0  0  0  0  0  0  0  0  0  0
  -24.3945  -12.6642   23.3575 C   0  0  0  0  0  0  0  0  0  0  0  0
  -24.1758  -13.0285   20.8421 C   0  0  0  0  0  0  0  0  0  0  0  0
  -25.6189  -32.8721   24.0041 C   0  0  0  0  0  0  0  0  0  0  0  0
  -27.4236  -26.9783   19.2205 C   0  0  0  0  0  0  0  0  0  0  0  0
  -26.5393  -31.9983   23.3944 C   0  0  0  0  0  0  0  0  0  0  0  0
  -26.6447  -25.9432   19.7571 C   0  0  0  0  0  0  0  0  0  0  0  0
  -30.7095  -19.5153   20.7660 C   0  0  0  0  0  0  0  0  0  0  0  0
  -30.1708  -18.4349   20.0648 C   0  0  0  0  0  0  0  0  0  0  0  0
  -23.3886  -12.3381   25.9390 C   0  0  0  0  0  0  0  0  0  0  0  0
  -28.4737  -24.3872   19.3783 C   0  0  0  0  0  0  0  0  0  0  0  0
  -21.8903  -13.0361   27.6094 C   0  0  0  0  0  0  0  0  0  0  0  0
  -19.8596  -14.7622   28.4335 C   0  0  0  0  0  0  0  0  0  0  0  0
  -22.0833  -13.8614   28.7172 C   0  0  0  0  0  0  0  0  0  0  0  0
  -24.9146  -12.8333   22.0244 C   0  0  0  0  0  0  0  0  0  0  0  0
  -28.8886  -20.8223   20.0613 C   0  0  0  0  0  0  0  0  0  0  0  0
  -28.9944  -18.6153   19.3736 C   0  0  0  0  0  0  0  0  0  0  0  0
  -25.1265  -13.1323   19.8563 C   0  0  0  0  0  0  0  0  0  0  0  0
  -22.7569  -13.1088   20.6520 C   0  0  0  0  0  0  0  0  0  0  0  0
  -26.2155  -28.8496   21.4882 C   0  0  0  0  0  0  0  0  0  0  0  0
  -23.3847  -27.8865   20.2307 C   0  0  0  0  0  0  0  0  0  0  0  0
  -21.6497  -25.5425   18.4581 C   0  0  0  0  0  0  0  0  0  0  0  0
  -30.8836  -14.7769   19.9009 C   0  0  0  0  0  0  0  0  0  0  0  0
  -24.3888  -32.3611   24.7115 C   0  0  0  0  0  0  0  0  0  0  0  0
  -26.8634  -28.3690   19.0996 C   0  0  0  0  0  0  0  0  0  0  0  0
  -32.0112  -19.1419   21.4027 C   0  0  0  0  0  0  0  0  0  0  0  0
  -25.2450  -26.1824   20.2591 C   0  0  0  0  0  0  0  0  0  0  0  0
  -24.0192  -30.9292   24.3330 C   0  0  0  0  0  0  0  0  0  0  0  0
  -31.9182  -17.6066   21.3869 C   0  0  0  0  0  0  0  0  0  0  0  0
  -29.5502  -11.6817   18.7528 C   0  0  0  0  0  0  0  0  0  0  0  0
  -25.2539  -30.0339   24.3613 C   0  0  0  0  0  0  0  0  0  0  0  0
  -28.1443  -11.6434   19.3544 C   0  0  0  0  0  0  0  0  0  0  0  0
  -30.5537  -12.3297   19.7042 C   0  0  0  0  0  0  0  0  0  0  0  0
  -28.7650  -13.6304   20.7916 C   0  0  0  0  0  0  0  0  0  0  0  0
  -26.3002  -30.5048   23.3440 C   0  0  1  0  0  0  0  0  0  0  0  0
  -31.0628  -17.2387   20.1590 C   0  0  1  0  0  0  0  0  0  0  0  0
  -25.7287  -28.6435   20.0817 C   0  0  1  0  0  0  0  0  0  0  0  0
  -27.7068  -13.0362   19.8464 C   0  0  2  0  0  0  0  0  0  0  0  0
  -28.3903  -17.5182   18.5665 C   0  0  0  0  0  0  0  0  0  0  0  0
  -19.3427  -25.0122   17.6249 C   0  0  0  0  0  0  0  0  0  0  0  0
  -22.5660  -27.0383   23.0449 C   0  0  0  0  0  0  0  0  0  0  0  0
  -20.7200  -25.6884   22.0258 C   0  0  0  0  0  0  0  0  0  0  0  0
  -20.7624  -28.1648   21.7287 C   0  0  0  0  0  0  0  0  0  0  0  0
  -22.5314  -25.5977   15.6335 C   0  0  0  0  0  0  0  0  0  0  0  0
  -28.1440  -22.1246   20.0324 C   0  0  0  0  0  0  0  0  0  1  0  0
  -22.4378  -26.7383   20.4838 C   0  0  1  0  0  0  0  0  0  0  0  0
  -20.6743  -25.6721   17.3021 C   0  0  2  0  0  0  0  0  0  0  0  0
  -21.6486  -26.9030   21.8132 C   0  0  0  0  0  0  0  0  0  0  0  0
  -26.2330  -12.8138   21.8113 N   0  0  0  0  0  0  0  0  0  0  0  0
  -28.3321  -19.7953   19.3640 N   0  0  0  0  0  0  0  0  0  0  0  0
  -26.3301  -12.9979   20.4836 N   0  0  0  0  0  0  0  0  0  0  0  0
  -24.7442  -27.5604   20.1250 N   0  0  0  0  0  0  0  0  0  0  0  0
  -30.0800  -13.6482   20.1320 N   0  0  0  0  0  0  0  0  0  0  0  0
  -25.0420  -13.3244   18.5228 N   0  0  0  0  0  0  0  0  0  0  0  0
  -21.9244  -12.9816   21.7723 N   0  0  0  0  0  0  0  0  0  0  0  0
  -25.9248  -30.0968   22.0072 N   0  0  0  0  0  0  0  0  0  0  0  0
  -21.5951  -26.6352   19.2974 N   0  0  0  0  0  0  0  0  0  0  0  0
  -30.3572  -15.9885   20.3318 N   0  0  0  0  0  0  0  0  0  0  0  0
  -21.2327  -25.0300   16.0787 N   0  3  0  0  0  0  0  0  0  0  0  0
  -22.2420  -13.2717   19.5198 O   0  0  0  0  0  0  0  0  0  0  0  0
  -26.8096  -27.9435   22.0608 O   0  0  0  0  0  0  0  0  0  0  0  0
  -22.9339  -29.0297   20.1234 O   0  0  0  0  0  0  0  0  0  0  0  0
  -22.3837  -24.5677   18.6042 O   0  0  0  0  0  0  0  0  0  0  0  0
  -31.9860  -14.7105   19.3465 O   0  0  0  0  0  0  0  0  0  0  0  0
  -22.8977  -12.1793   27.1985 O   0  0  0  0  0  0  0  0  0  0  0  0
  -28.9825  -23.1277   19.4608 O   0  0  0  0  0  0  0  0  0  1  0  0
  -18.8850  -15.5920   28.8282 F   0  0  0  0  0  0  0  0  0  0  0  0
  -23.2425  -13.8305   29.3889 F   0  0  0  0  0  0  0  0  0  0  0  0
  1  2  1  0  0  0  0
  1  5  2  0  0  0  0
  2  6  2  0  0  0  0
  3  8  2  0  0  0  0
  3 16  1  0  0  0  0
  4  9  1  0  0  0  0
  4 16  2  0  0  0  0
  5 18  1  0  0  0  0
  6 20  1  0  0  0  0
  7 10  2  0  0  0  0
  7 19  1  0  0  0  0
  8 24  1  0  0  0  0
  9 24  2  0  0  0  0
 10 25  1  0  0  0  0
 11 12  2  0  0  0  0
 11 26  1  0  0  0  0
 12 27  1  0  0  0  0
 13 21  1  0  0  0  0
 13 25  2  0  0  0  0
 14 22  2  0  0  0  0
 14 30  1  0  0  0  0
 15 27  2  0  0  0  0
 15 28  1  0  0  0  0
 16 29  1  0  0  0  0
 17 29  1  0  0  0  0
 17 32  2  0  0  0  0
 17 33  1  0  0  0  0
 18 20  2  0  0  0  0
 18 38  1  0  0  0  0
 19 21  2  0  0  0  0
 19 39  1  0  0  0  0
 20 49  1  0  0  0  0
 21 41  1  0  0  0  0
 22 23  1  0  0  0  0
 22 40  1  0  0  0  0
 23 31  2  0  0  0  0
 23 50  1  0  0  0  0
 24 79  1  0  0  0  0
 25 80  1  0  0  0  0
 26 28  2  0  0  0  0
 26 79  1  0  0  0  0
 27 81  1  0  0  0  0
 28 82  1  0  0  0  0
 29 63  2  0  0  0  0
 30 59  1  0  0  0  0
 30 64  2  0  0  0  0
 31 53  1  0  0  0  0
 31 64  1  0  0  0  0
 32 65  1  0  0  0  0
 32 68  1  0  0  0  0
 33 69  1  0  0  0  0
 33 74  2  0  0  0  0
 34 51  1  0  0  0  0
 34 70  1  0  0  0  0
 34 75  2  0  0  0  0
 35 60  1  0  0  0  0
 35 66  1  0  0  0  0
 35 76  2  0  0  0  0
 36 61  1  0  0  0  0
 36 71  1  0  0  0  0
 36 77  2  0  0  0  0
 37 67  1  0  0  0  0
 37 72  1  0  0  0  0
 37 78  2  0  0  0  0
 38 42  1  0  0  0  0
 39 51  1  0  0  0  0
 40 43  1  0  0  0  0
 41 66  1  0  0  0  0
 42 45  1  0  0  0  0
 43 50  1  0  0  0  0
 44 46  1  0  0  0  0
 44 47  1  0  0  0  0
 45 49  1  0  0  0  0
 46 52  1  0  0  0  0
 47 67  1  0  0  0  0
 48 52  1  0  0  0  0
 48 67  1  0  0  0  0
 49 70  1  0  0  0  0
 50 72  1  0  0  0  0
 51 66  1  0  0  0  0
 52 65  1  0  0  0  0
 54 61  1  0  0  0  0
 55 62  1  0  0  0  0
 56 62  1  0  0  0  0
 57 62  1  0  0  0  0
 58 73  1  0  0  0  0
 59 80  1  0  0  0  0
 60 62  1  0  0  0  0
 60 71  1  0  0  0  0
 61 73  1  0  0  0  0
 63 65  1  0  0  0  0
M  CHG  1  73   1
M  ISO  4  37 100  59 101  72 100  80 101
M  END
> <Batch ID>
0178

> <Smiles>
CNC(C)C(=O)NC(C(=O)N1Cc2cc([101O:1][101CH2:1]c3cc4c(c(C)n3)C([100NH:0][100C:0](=O)N3CCCC(n5nc(-c6ccc(Oc7ccc(F)cc7F)cc6)c(C(N)=O)c5N)C3)CC4)ccc2CC1C(=O)NC1CCCc2ccccc21)C(C)(C)C

> <Shape>
0.277

> <Color>
0.088

> <Negative vol penalty>
0.000

$$$$

  -OEChem-04052322553D

 83 92  0     1  0  0  0  0  0999 V2000
  -16.5036  -28.7603   23.2932 C   0  0  0  0  0  0  0  0  0  0  0  0
  -17.4206  -28.1927   22.4144 C   0  0  0  0  0  0  0  0  0  0  0  0
  -22.5784  -12.6958   20.7809 C   0  0  0  0  0  0  0  0  0  0  0  0
  -22.0708  -14.7647   21.9207 C   0  0  0  0  0  0  0  0  0  0  0  0
  -16.9025  -29.7869   24.1481 C   0  0  0  0  0  0  0  0  0  0  0  0
  -18.7369  -28.6521   22.3892 C   0  0  0  0  0  0  0  0  0  0  0  0
  -23.7763  -25.3303   21.3516 C   0  0  0  0  0  0  0  0  0  0  0  0
  -21.6082  -12.0402   21.5388 C   0  0  0  0  0  0  0  0  0  0  0  0
  -21.1006  -14.1091   22.6786 C   0  0  0  0  0  0  0  0  0  0  0  0
  -24.5510  -25.1331   20.2094 C   0  0  0  0  0  0  0  0  0  0  0  0
  -19.5136   -9.7443   23.4270 C   0  0  0  0  0  0  0  0  0  0  0  0
  -19.8440   -8.5043   23.9736 C   0  0  0  0  0  0  0  0  0  0  0  0
  -26.0629  -26.8636   20.9436 C   0  0  0  0  0  0  0  0  0  0  0  0
  -21.6513   -9.5293   25.2066 C   0  0  0  0  0  0  0  0  0  0  0  0
  -29.7847  -25.3467   18.5088 C   0  0  0  0  0  0  0  0  0  0  0  0
  -22.8098  -14.0581   20.9719 C   0  0  0  0  0  0  0  0  0  0  0  0
  -23.6330  -15.3758   18.9486 C   0  0  0  0  0  0  0  0  0  0  0  0
  -18.2268  -30.2525   24.1402 C   0  0  0  0  0  0  0  0  0  0  0  0
  -24.1336  -26.3048   22.2946 C   0  0  0  0  0  0  0  0  0  0  0  0
  -19.1536  -29.6868   23.2439 C   0  0  0  0  0  0  0  0  0  0  0  0
  -25.2925  -27.0694   22.0982 C   0  0  0  0  0  0  0  0  0  0  0  0
  -20.8693  -12.7468   22.4877 C   0  0  0  0  0  0  0  0  0  0  0  0
  -25.6929  -25.9018   20.0038 C   0  0  0  0  0  0  0  0  0  0  0  0
  -20.2521  -10.8769   23.7701 C   0  0  0  0  0  0  0  0  0  0  0  0
  -20.9128   -8.3968   24.8633 C   0  0  0  0  0  0  0  0  0  0  0  0
  -21.3209  -10.7694   24.6599 C   0  0  0  0  0  0  0  0  0  0  0  0
  -23.8122  -14.7358   20.1896 C   0  0  0  0  0  0  0  0  0  0  0  0
  -29.3745  -23.3535   19.3545 C   0  0  0  0  0  0  0  0  0  0  0  0
  -30.4919  -23.9200   19.9211 C   0  0  0  0  0  0  0  0  0  0  0  0
  -24.8783  -15.8587   18.6284 C   0  0  0  0  0  0  0  0  0  0  0  0
  -22.4470  -15.5208   18.1562 C   0  0  0  0  0  0  0  0  0  0  0  0
  -22.7700  -28.9482   23.4155 C   0  0  0  0  0  0  0  0  0  0  0  0
  -25.3050  -28.9309   25.4393 C   0  0  0  0  0  0  0  0  0  0  0  0
  -28.5085  -27.9325   26.0617 C   0  0  0  0  0  0  0  0  0  0  0  0
  -29.5885  -18.4538   20.1042 C   0  0  0  0  0  0  0  0  0  0  0  0
  -18.5995  -31.3966   25.0496 C   0  0  0  0  0  0  0  0  0  0  0  0
  -23.3021  -26.4867   23.5347 C   0  0  0  0  0  0  0  0  0  0  0  0
  -25.7306  -28.1144   23.0903 C   0  0  0  0  0  0  0  0  0  0  0  0
  -20.1061  -31.5703   25.2238 C   0  0  0  0  0  0  0  0  0  0  0  0
  -29.3976  -14.9725   20.6761 C   0  0  0  0  0  0  0  0  0  0  0  0
  -20.8108  -31.5045   23.8726 C   0  0  0  0  0  0  0  0  0  0  0  0
  -27.9129  -14.6487   20.5345 C   0  0  0  0  0  0  0  0  0  0  0  0
  -28.2122  -21.7293   21.0160 C   0  0  0  0  0  0  0  0  0  0  0  0
  -29.5948  -16.3226   21.3524 C   0  0  0  0  0  0  0  0  0  0  0  0
  -27.9658  -20.2267   20.9921 C   0  0  0  0  0  0  0  0  0  0  0  0
  -29.5683  -20.7971   19.3042 C   0  0  0  0  0  0  0  0  0  0  0  0
  -27.4347  -17.1504   20.4586 C   0  0  0  0  0  0  0  0  0  0  0  0
  -20.5966  -30.1410   23.2044 C   0  0  1  0  0  0  0  0  0  0  0  0
  -28.6897  -22.0244   19.5848 C   0  0  2  0  0  0  0  0  0  0  0  0
  -23.4762  -27.8606   24.1746 C   0  0  1  0  0  0  0  0  0  0  0  0
  -27.1797  -15.7801   19.7974 C   0  0  2  0  0  0  0  0  0  0  0  0
  -31.3738  -23.3639   20.9596 C   0  0  0  0  0  0  0  0  0  0  0  0
  -30.3259  -28.1039   27.7837 C   0  0  0  0  0  0  0  0  0  0  0  0
  -25.8771  -31.7922   24.5473 C   0  0  0  0  0  0  0  0  0  0  0  0
  -28.1668  -31.5683   25.5349 C   0  0  0  0  0  0  0  0  0  0  0  0
  -26.1556  -31.3886   26.9996 C   0  0  0  0  0  0  0  0  0  0  0  0
  -28.5614  -25.0012   26.4661 C   0  0  0  0  0  0  0  0  0  0  0  0
  -27.7812  -24.1672   17.5878 C   0  0  0  0  0  0  0  0  0  0  0  0
  -26.4714  -24.3986   18.3334 C   0  0  0  0  0  0  0  0  0  1  0  0
  -26.7021  -29.5020   25.4077 C   0  0  1  0  0  0  0  0  0  0  0  0
  -29.1442  -27.2892   27.2810 C   0  0  2  0  0  0  0  0  0  0  0  0
  -26.7163  -31.0445   25.6025 C   0  0  0  0  0  0  0  0  0  0  0  0
  -30.7417  -25.1608   19.3905 N   0  0  0  0  0  0  0  0  0  0  0  0
  -25.0721  -14.8041   20.6278 N   0  0  0  0  0  0  0  0  0  0  0  0
  -28.9322  -24.2793   18.4521 N   0  0  0  0  0  0  0  0  0  0  0  0
  -25.6959  -15.4926   19.6568 N   0  0  0  0  0  0  0  0  0  0  0  0
  -24.8810  -28.2593   24.2839 N   0  0  0  0  0  0  0  0  0  0  0  0
  -28.8699  -17.3892   20.6593 N   0  0  0  0  0  0  0  0  0  0  0  0
  -28.9789  -19.7075   20.0756 N   0  0  0  0  0  0  0  0  0  0  0  0
  -25.3428  -16.5565   17.5702 N   0  0  0  0  0  0  0  0  0  0  0  0
  -21.2525  -14.9641   18.6332 N   0  0  0  0  0  0  0  0  0  0  0  0
  -21.4581  -29.1440   23.8030 N   0  0  0  0  0  0  0  0  0  0  0  0
  -27.4666  -28.7662   26.4089 N   0  0  0  0  0  0  0  0  0  0  0  0
  -29.6251  -25.9177   26.9515 N   0  3  0  0  0  0  0  0  0  0  0  0
  -22.4499  -16.1120   17.0498 O   0  0  0  0  0  0  0  0  0  0  0  0
  -23.3712  -29.5650   22.5439 O   0  0  0  0  0  0  0  0  0  0  0  0
  -24.6180  -29.0693   26.4544 O   0  0  0  0  0  0  0  0  0  0  0  0
  -28.8997  -27.7198   24.9162 O   0  0  0  0  0  0  0  0  0  0  0  0
  -30.7448  -18.3011   19.6879 O   0  0  0  0  0  0  0  0  0  0  0  0
  -19.9223  -12.1074   23.2273 O   0  0  0  0  0  0  0  0  0  0  0  0
  -26.4559  -25.7105   18.8817 O   0  0  0  0  0  0  0  0  0  1  0  0
  -21.2290   -7.2062   25.3893 F   0  0  0  0  0  0  0  0  0  0  0  0
  -22.0333  -11.8540   24.9943 F   0  0  0  0  0  0  0  0  0  0  0  0
  1  2  1  0  0  0  0
  1  5  2  0  0  0  0
  2  6  2  0  0  0  0
  3  8  2  0  0  0  0
  3 16  1  0  0  0  0
  4  9  1  0  0  0  0
  4 16  2  0  0  0  0
  5 18  1  0  0  0  0
  6 20  1  0  0  0  0
  7 10  2  0  0  0  0
  7 19  1  0  0  0  0
  8 22  1  0  0  0  0
  9 22  2  0  0  0  0
 10 23  1  0  0  0  0
 11 12  2  0  0  0  0
 11 24  1  0  0  0  0
 12 25  1  0  0  0  0
 13 21  1  0  0  0  0
 13 23  2  0  0  0  0
 14 25  2  0  0  0  0
 14 26  1  0  0  0  0
 15 63  2  0  0  0  0
 15 65  1  0  0  0  0
 16 27  1  0  0  0  0
 17 27  1  0  0  0  0
 17 30  2  0  0  0  0
 17 31  1  0  0  0  0
 18 20  2  0  0  0  0
 18 36  1  0  0  0  0
 19 21  2  0  0  0  0
 19 37  1  0  0  0  0
 20 48  1  0  0  0  0
 21 38  1  0  0  0  0
 22 80  1  0  0  0  0
 23 81  1  0  0  0  0
 24 26  2  0  0  0  0
 24 80  1  0  0  0  0
 25 82  1  0  0  0  0
 26 83  1  0  0  0  0
 27 64  2  0  0  0  0
 28 29  2  0  0  0  0
 28 49  1  0  0  0  0
 28 65  1  0  0  0  0
 29 52  1  0  0  0  0
 29 63  1  0  0  0  0
 30 66  1  0  0  0  0
 30 70  1  0  0  0  0
 31 71  1  0  0  0  0
 31 75  2  0  0  0  0
 32 50  1  0  0  0  0
 32 72  1  0  0  0  0
 32 76  2  0  0  0  0
 33 60  1  0  0  0  0
 33 67  1  0  0  0  0
 33 77  2  0  0  0  0
 34 61  1  0  0  0  0
 34 73  1  0  0  0  0
 34 78  2  0  0  0  0
 35 68  1  0  0  0  0
 35 69  1  0  0  0  0
 35 79  2  0  0  0  0
 36 39  1  0  0  0  0
 37 50  1  0  0  0  0
 38 67  1  0  0  0  0
 39 41  1  0  0  0  0
 40 42  1  0  0  0  0
 40 44  1  0  0  0  0
 41 48  1  0  0  0  0
 42 51  1  0  0  0  0
 43 45  1  0  0  0  0
 43 49  1  0  0  0  0
 44 68  1  0  0  0  0
 45 69  1  0  0  0  0
 46 49  1  0  0  0  0
 46 69  1  0  0  0  0
 47 51  1  0  0  0  0
 47 68  1  0  0  0  0
 48 72  1  0  0  0  0
 50 67  1  0  0  0  0
 51 66  1  0  0  0  0
 53 61  1  0  0  0  0
 54 62  1  0  0  0  0
 55 62  1  0  0  0  0
 56 62  1  0  0  0  0
 57 74  1  0  0  0  0
 58 59  1  0  0  0  0
 58 65  1  0  0  0  0
 59 81  1  0  0  0  0
 60 62  1  0  0  0  0
 60 73  1  0  0  0  0
 61 74  1  0  0  0  0
 64 66  1  0  0  0  0
M  CHG  1  74   1
M  ISO  4  35 100  59 101  69 100  81 101
M  END
> <Batch ID>
0178

> <Smiles>
CNC(C)C(=O)NC(C(=O)N1Cc2cc([101O:1][101CH2:1]Cn3cnc(C)c3C3CC[100N:0]([100C:0](=O)N4CCCC(n5nc(-c6ccc(Oc7ccc(F)cc7F)cc6)c(C(N)=O)c5N)C4)C3)ccc2CC1C(=O)NC1CCCc2ccccc21)C(C)(C)C

> <Shape>
0.249

> <Color>
0.089

> <Negative vol penalty>
0.000

$$$$

  -OEChem-04052322553D

 83 91  0     1  0  0  0  0  0999 V2000
  -22.7909   -7.7724   21.8396 C   0  0  0  0  0  0  0  0  0  0  0  0
  -23.9299   -8.5289   22.0963 C   0  0  0  0  0  0  0  0  0  0  0  0
  -22.8627  -28.1369   23.2921 C   0  0  0  0  0  0  0  0  0  0  0  0
  -22.7092  -26.6433   21.3993 C   0  0  0  0  0  0  0  0  0  0  0  0
  -21.7498   -8.3153   21.0878 C   0  0  0  0  0  0  0  0  0  0  0  0
  -24.0289   -9.8283   21.6002 C   0  0  0  0  0  0  0  0  0  0  0  0
  -26.7991  -16.2303   23.2302 C   0  0  0  0  0  0  0  0  0  0  0  0
  -21.6536  -28.7271   22.9244 C   0  0  0  0  0  0  0  0  0  0  0  0
  -21.5000  -27.2335   21.0316 C   0  0  0  0  0  0  0  0  0  0  0  0
  -27.6083  -17.2248   22.6825 C   0  0  0  0  0  0  0  0  0  0  0  0
  -18.4272  -30.3856   22.6894 C   0  0  0  0  0  0  0  0  0  0  0  0
  -17.4894  -30.6229   23.6942 C   0  0  0  0  0  0  0  0  0  0  0  0
  -25.7136  -18.0864   21.4631 C   0  0  0  0  0  0  0  0  0  0  0  0
  -17.4181  -28.2585   24.1859 C   0  0  0  0  0  0  0  0  0  0  0  0
  -23.3906  -27.0950   22.5295 C   0  0  0  0  0  0  0  0  0  0  0  0
  -24.8225  -25.3822   23.7639 C   0  0  0  0  0  0  0  0  0  0  0  0
  -21.8319   -9.6255   20.5904 C   0  0  0  0  0  0  0  0  0  0  0  0
  -25.4413  -16.1496   22.8895 C   0  0  0  0  0  0  0  0  0  0  0  0
  -22.9884  -10.3888   20.8399 C   0  0  0  0  0  0  0  0  0  0  0  0
  -24.8888  -17.0915   22.0098 C   0  0  0  0  0  0  0  0  0  0  0  0
  -20.9722  -28.2754   21.7942 C   0  0  0  0  0  0  0  0  0  0  0  0
  -27.0662  -18.1513   21.7966 C   0  0  0  0  0  0  0  0  0  0  0  0
  -18.8605  -29.0848   22.4327 C   0  0  0  0  0  0  0  0  0  0  0  0
  -16.9849  -29.5594   24.4425 C   0  0  0  0  0  0  0  0  0  0  0  0
  -18.3559  -28.0212   23.1810 C   0  0  0  0  0  0  0  0  0  0  0  0
  -24.6399  -26.4853   22.9084 C   0  0  0  0  0  0  0  0  0  0  0  0
  -27.9032  -22.1734   19.2201 C   0  0  0  0  0  0  0  0  0  0  0  0
  -30.4705  -21.5512   19.6061 C   0  0  0  0  0  0  0  0  0  0  0  0
  -30.1099  -22.7176   18.9682 C   0  0  0  0  0  0  0  0  0  0  0  0
  -28.2636  -21.0066   19.8574 C   0  0  0  0  0  0  0  0  0  0  0  0
  -26.1830  -25.1965   23.7990 C   0  0  0  0  0  0  0  0  0  0  0  0
  -23.8494  -24.5957   24.4640 C   0  0  0  0  0  0  0  0  0  0  0  0
  -23.6123  -13.9773   21.4613 C   0  0  0  0  0  0  0  0  0  0  0  0
  -21.2268  -16.0197   22.2738 C   0  0  0  0  0  0  0  0  0  0  0  0
  -20.2808  -19.2025   23.0624 C   0  0  0  0  0  0  0  0  0  0  0  0
  -30.5872  -26.5823   19.9867 C   0  0  0  0  0  0  0  0  0  0  0  0
  -20.7012  -10.1524   19.7428 C   0  0  0  0  0  0  0  0  0  0  0  0
  -24.5758  -15.0871   23.5096 C   0  0  0  0  0  0  0  0  0  0  0  0
  -23.4323  -17.0605   21.6274 C   0  0  0  0  0  0  0  0  0  0  0  0
  -20.7247  -11.6690   19.5704 C   0  0  0  0  0  0  0  0  0  0  0  0
  -30.3015  -27.5963   23.3877 C   0  0  0  0  0  0  0  0  0  0  0  0
  -22.1308  -12.1445   19.2189 C   0  0  0  0  0  0  0  0  0  0  0  0
  -28.8346  -27.3270   23.7277 C   0  0  0  0  0  0  0  0  0  0  0  0
  -30.4670  -28.0868   21.9510 C   0  0  0  0  0  0  0  0  0  0  0  0
  -28.3907  -26.9494   21.2662 C   0  0  0  0  0  0  0  0  0  0  0  0
  -23.1224  -11.8108   20.3400 C   0  0  1  0  0  0  0  0  0  0  0  0
  -23.3223  -14.7861   22.6939 C   0  0  1  0  0  0  0  0  0  0  0  0
  -28.1790  -26.3994   22.6871 C   0  0  2  0  0  0  0  0  0  0  0  0
  -26.4727  -22.5292   18.9998 C   0  0  0  0  0  0  0  0  0  0  0  0
  -32.3464  -21.4422   21.2661 C   0  0  0  0  0  0  0  0  0  0  0  0
  -18.2576  -20.5704   23.6393 C   0  0  0  0  0  0  0  0  0  0  0  0
  -20.3792  -15.9978   19.3427 C   0  0  0  0  0  0  0  0  0  0  0  0
  -19.0164  -18.0490   19.7937 C   0  0  0  0  0  0  0  0  0  0  0  0
  -18.4874  -15.9173   20.9763 C   0  0  0  0  0  0  0  0  0  0  0  0
  -21.3814  -19.9246   25.7130 C   0  0  0  0  0  0  0  0  0  0  0  0
  -31.9011  -21.1959   19.8265 C   0  0  0  0  0  0  0  0  0  0  0  0
  -31.1339  -23.6786   18.4683 C   0  0  0  0  0  0  0  0  0  0  0  0
  -27.2328  -20.0387   20.3593 C   0  0  0  0  0  0  0  0  0  1  0  0
  -30.5520  -25.0338   18.0475 C   0  0  0  0  0  0  0  0  0  0  0  0
  -20.5656  -17.2070   21.6163 C   0  0  1  0  0  0  0  0  0  0  0  0
  -19.4146  -19.7472   24.1837 C   0  0  2  0  0  0  0  0  0  0  0  0
  -19.6401  -16.7924   20.4377 C   0  0  0  0  0  0  0  0  0  0  0  0
  -25.7922  -26.9666   22.4345 N   0  0  0  0  0  0  0  0  0  0  0  0
  -28.8199  -23.0499   18.7640 N   0  0  0  0  0  0  0  0  0  0  0  0
  -29.5538  -20.6745   20.0618 N   0  0  0  0  0  0  0  0  0  0  0  0
  -26.7119  -26.1623   22.9941 N   0  0  0  0  0  0  0  0  0  0  0  0
  -22.6286  -15.9988   22.2554 N   0  0  0  0  0  0  0  0  0  0  0  0
  -29.8246  -27.1619   21.0141 N   0  0  0  0  0  0  0  0  0  0  0  0
  -26.9664  -24.3031   24.4396 N   0  0  0  0  0  0  0  0  0  0  0  0
  -22.4946  -24.9229   24.3167 N   0  0  0  0  0  0  0  0  0  0  0  0
  -22.9823  -12.7477   21.4341 N   0  0  0  0  0  0  0  0  0  0  0  0
  -19.8865  -17.9374   22.6810 N   0  0  0  0  0  0  0  0  0  0  0  0
  -29.9025  -25.7125   19.1468 N   0  0  0  0  0  0  0  0  0  0  0  0
  -20.2226  -20.6130   25.0885 N   0  3  0  0  0  0  0  0  0  0  0  0
  -24.1729  -23.6417   25.2115 O   0  0  0  0  0  0  0  0  0  0  0  0
  -24.3516  -14.4355   20.5981 O   0  0  0  0  0  0  0  0  0  0  0  0
  -20.5255  -15.1467   22.7910 O   0  0  0  0  0  0  0  0  0  0  0  0
  -21.2115  -19.8373   22.5712 O   0  0  0  0  0  0  0  0  0  0  0  0
  -31.7904  -26.8180   19.8328 O   0  0  0  0  0  0  0  0  0  0  0  0
  -19.7922  -28.8509   21.4353 O   0  0  0  0  0  0  0  0  0  0  0  0
  -27.8539  -19.1226   21.2600 O   0  0  0  0  0  0  0  0  0  1  0  0
  -16.0854  -29.7875   25.4085 F   0  0  0  0  0  0  0  0  0  0  0  0
  -18.7692  -26.7695   22.9399 F   0  0  0  0  0  0  0  0  0  0  0  0
  1  2  1  0  0  0  0
  1  5  2  0  0  0  0
  2  6  2  0  0  0  0
  3  8  2  0  0  0  0
  3 15  1  0  0  0  0
  4  9  1  0  0  0  0
  4 15  2  0  0  0  0
  5 17  1  0  0  0  0
  6 19  1  0  0  0  0
  7 10  2  0  0  0  0
  7 18  1  0  0  0  0
  8 21  1  0  0  0  0
  9 21  2  0  0  0  0
 10 22  1  0  0  0  0
 11 12  2  0  0  0  0
 11 23  1  0  0  0  0
 12 24  1  0  0  0  0
 13 20  1  0  0  0  0
 13 22  2  0  0  0  0
 14 24  2  0  0  0  0
 14 25  1  0  0  0  0
 15 26  1  0  0  0  0
 16 26  1  0  0  0  0
 16 31  2  0  0  0  0
 16 32  1  0  0  0  0
 17 19  2  0  0  0  0
 17 37  1  0  0  0  0
 18 20  2  0  0  0  0
 18 38  1  0  0  0  0
 19 46  1  0  0  0  0
 20 39  1  0  0  0  0
 21 80  1  0  0  0  0
 22 81  1  0  0  0  0
 23 25  2  0  0  0  0
 23 80  1  0  0  0  0
 24 82  1  0  0  0  0
 25 83  1  0  0  0  0
 26 63  2  0  0  0  0
 27 30  1  0  0  0  0
 27 49  1  0  0  0  0
 27 64  2  0  0  0  0
 28 29  2  0  0  0  0
 28 56  1  0  0  0  0
 28 65  1  0  0  0  0
 29 57  1  0  0  0  0
 29 64  1  0  0  0  0
 30 58  1  0  0  0  0
 30 65  2  0  0  0  0
 31 66  1  0  0  0  0
 31 69  1  0  0  0  0
 32 70  1  0  0  0  0
 32 75  2  0  0  0  0
 33 47  1  0  0  0  0
 33 71  1  0  0  0  0
 33 76  2  0  0  0  0
 34 60  1  0  0  0  0
 34 67  1  0  0  0  0
 34 77  2  0  0  0  0
 35 61  1  0  0  0  0
 35 72  1  0  0  0  0
 35 78  2  0  0  0  0
 36 68  1  0  0  0  0
 36 73  1  0  0  0  0
 36 79  2  0  0  0  0
 37 40  1  0  0  0  0
 38 47  1  0  0  0  0
 39 67  1  0  0  0  0
 40 42  1  0  0  0  0
 41 43  1  0  0  0  0
 41 44  1  0  0  0  0
 42 46  1  0  0  0  0
 43 48  1  0  0  0  0
 44 68  1  0  0  0  0
 45 48  1  0  0  0  0
 45 68  1  0  0  0  0
 46 71  1  0  0  0  0
 47 67  1  0  0  0  0
 48 66  1  0  0  0  0
 50 56  1  0  0  0  0
 51 61  1  0  0  0  0
 52 62  1  0  0  0  0
 53 62  1  0  0  0  0
 54 62  1  0  0  0  0
 55 74  1  0  0  0  0
 57 59  1  0  0  0  0
 58 81  1  0  0  0  0
 59 73  1  0  0  0  0
 60 62  1  0  0  0  0
 60 72  1  0  0  0  0
 61 74  1  0  0  0  0
 63 66  1  0  0  0  0
M  CHG  1  74   1
M  ISO  4  36 100  58 101  73 100  81 101
M  END
> <Batch ID>
0178

> <Smiles>
CCc1nc([101CH2:1][101O:1]c2ccc3c(c2)CN(C(=O)C(NC(=O)C(C)NC)C(C)(C)C)C(C(=O)NC2CCCc4ccccc42)C3)c(C)nc1CC[100NH:0][100C:0](=O)N1CCCC(n2nc(-c3ccc(Oc4ccc(F)cc4F)cc3)c(C(N)=O)c2N)C1

> <Shape>
0.201

> <Color>
0.081

> <Negative vol penalty>
0.000

$$$$

  -OEChem-04052322553D

 84 93  0     1  0  0  0  0  0999 V2000
  -19.9418  -16.9048   27.2845 C   0  0  0  0  0  0  0  0  0  0  0  0
  -19.5655  -18.2433   27.3295 C   0  0  0  0  0  0  0  0  0  0  0  0
  -29.5493  -16.8100   19.6766 C   0  0  0  0  0  0  0  0  0  0  0  0
  -27.3324  -17.5432   20.2970 C   0  0  0  0  0  0  0  0  0  0  0  0
  -20.8763  -16.4759   26.3428 C   0  0  0  0  0  0  0  0  0  0  0  0
  -20.1242  -19.1541   26.4335 C   0  0  0  0  0  0  0  0  0  0  0  0
  -18.5133  -25.1113   22.7958 C   0  0  0  0  0  0  0  0  0  0  0  0
  -29.2771  -15.5454   20.1983 C   0  0  0  0  0  0  0  0  0  0  0  0
  -27.0602  -16.2785   20.8187 C   0  0  0  0  0  0  0  0  0  0  0  0
  -18.9957  -26.4000   22.5716 C   0  0  0  0  0  0  0  0  0  0  0  0
  -25.6549  -13.1365   21.9894 C   0  0  0  0  0  0  0  0  0  0  0  0
  -24.4244  -12.5574   21.6795 C   0  0  0  0  0  0  0  0  0  0  0  0
  -26.9564  -29.1383   19.9399 C   0  0  0  0  0  0  0  0  0  0  0  0
  -20.5413  -25.5304   20.9363 C   0  0  0  0  0  0  0  0  0  0  0  0
  -24.9738  -12.6482   19.3285 C   0  0  0  0  0  0  0  0  0  0  0  0
  -25.6311  -27.2277   19.3989 C   0  0  0  0  0  0  0  0  0  0  0  0
  -28.5770  -17.8090   19.7259 C   0  0  0  0  0  0  0  0  0  0  0  0
  -28.6351  -19.5581   17.8699 C   0  0  0  0  0  0  0  0  0  0  0  0
  -21.4395  -17.3800   25.4285 C   0  0  0  0  0  0  0  0  0  0  0  0
  -19.0497  -24.0192   22.0986 C   0  0  0  0  0  0  0  0  0  0  0  0
  -21.0680  -18.7371   25.4796 C   0  0  0  0  0  0  0  0  0  0  0  0
  -25.8384  -29.6537   20.5713 C   0  0  0  0  0  0  0  0  0  0  0  0
  -20.0622  -24.2292   21.1516 C   0  0  0  0  0  0  0  0  0  0  0  0
  -26.8524  -27.8905   19.3360 C   0  0  0  0  0  0  0  0  0  0  0  0
  -28.0325  -15.2796   20.7693 C   0  0  0  0  0  0  0  0  0  0  0  0
  -20.0118  -26.6093   21.6438 C   0  0  0  0  0  0  0  0  0  0  0  0
  -26.5449  -13.4715   20.9689 C   0  0  0  0  0  0  0  0  0  0  0  0
  -24.0839  -12.3132   20.3490 C   0  0  0  0  0  0  0  0  0  0  0  0
  -26.2043  -13.2274   19.6385 C   0  0  0  0  0  0  0  0  0  0  0  0
  -28.8578  -19.1157   19.1877 C   0  0  0  0  0  0  0  0  0  0  0  0
  -24.6568  -28.9230   20.5863 C   0  0  0  0  0  0  0  0  0  0  0  0
  -29.0652  -20.8625   17.8684 C   0  0  0  0  0  0  0  0  0  0  0  0
  -28.0883  -18.8530   16.7476 C   0  0  0  0  0  0  0  0  0  0  0  0
  -20.5940  -21.3677   22.9284 C   0  0  0  0  0  0  0  0  0  0  0  0
  -22.3537  -29.3113   21.5426 C   0  0  0  0  0  0  0  0  0  0  0  0
  -20.2864  -20.6674   19.7761 C   0  0  0  0  0  0  0  0  0  0  0  0
  -19.8586  -21.7994   16.5851 C   0  0  0  0  0  0  0  0  0  0  0  0
  -29.3204  -25.9056   20.2448 C   0  0  0  0  0  0  0  0  0  0  0  0
  -22.4810  -16.8786   24.4596 C   0  0  0  0  0  0  0  0  0  0  0  0
  -18.4999  -22.6388   22.3325 C   0  0  0  0  0  0  0  0  0  0  0  0
  -25.7096  -30.9594   21.2815 C   0  0  0  0  0  0  0  0  0  0  0  0
  -20.6578  -23.0931   20.3623 C   0  0  0  0  0  0  0  0  0  0  0  0
  -22.7460  -17.8361   23.3007 C   0  0  0  0  0  0  0  0  0  0  0  0
  -31.6831  -23.4701   21.3229 C   0  0  0  0  0  0  0  0  0  0  0  0
  -22.9108  -19.2630   23.8142 C   0  0  0  0  0  0  0  0  0  0  0  0
  -31.1370  -22.1566   20.7603 C   0  0  0  0  0  0  0  0  0  0  0  0
  -24.2501  -30.9214   21.7418 C   0  0  0  0  0  0  0  0  0  0  0  0
  -30.5598  -24.4013   21.7735 C   0  0  0  0  0  0  0  0  0  0  0  0
  -28.9867  -23.3596   20.1879 C   0  0  0  0  0  0  0  0  0  0  0  0
  -21.6333  -19.7506   24.5082 C   0  0  1  0  0  0  0  0  0  0  0  0
  -19.4746  -21.5329   21.9398 C   0  0  1  0  0  0  0  0  0  0  0  0
  -30.0802  -22.4105   19.6685 C   0  0  2  0  0  0  0  0  0  0  0  0
  -19.6847  -20.9924   14.2153 C   0  0  0  0  0  0  0  0  0  0  0  0
  -23.3043  -20.2227   19.7087 C   0  0  0  0  0  0  0  0  0  0  0  0
  -23.1990  -20.3631   17.2112 C   0  0  0  0  0  0  0  0  0  0  0  0
  -21.9741  -18.5503   18.4094 C   0  0  0  0  0  0  0  0  0  0  0  0
  -17.1245  -22.8935   16.2907 C   0  0  0  0  0  0  0  0  0  0  0  0
  -28.0171  -27.2797   18.6409 C   0  0  0  0  0  0  0  0  0  0  0  0
  -21.8515  -27.9860   21.0305 C   0  0  0  0  0  0  0  0  0  1  0  0
  -21.1121  -20.9235   18.5385 C   0  0  1  0  0  0  0  0  0  0  0  0
  -18.9190  -21.3584   15.4773 C   0  0  2  0  0  0  0  0  0  0  0  0
  -22.3877  -20.0363   18.4831 C   0  0  0  0  0  0  0  0  0  0  0  0
  -24.5250  -27.7144   20.0117 N   0  0  0  0  0  0  0  0  0  0  0  0
  -29.3883  -20.0622   19.9666 N   0  0  0  0  0  0  0  0  0  0  0  0
  -29.5026  -21.1123   19.1358 N   0  0  0  0  0  0  0  0  0  0  0  0
  -23.6693  -29.6495   21.2826 N   0  0  0  0  0  0  0  0  0  0  0  0
  -20.0910  -21.7612   20.6312 N   0  0  0  0  0  0  0  0  0  0  0  0
  -29.5925  -24.6021   20.6919 N   0  0  0  0  0  0  0  0  0  0  0  0
  -29.1082  -21.8087   16.9065 N   0  0  0  0  0  0  0  0  0  0  0  0
  -27.6970  -17.5187   16.9230 N   0  0  0  0  0  0  0  0  0  0  0  0
  -20.6362  -20.1233   23.5277 N   0  0  0  0  0  0  0  0  0  0  0  0
  -20.2122  -20.7478   17.4038 N   0  0  0  0  0  0  0  0  0  0  0  0
  -28.3961  -26.0066   19.2121 N   0  0  0  0  0  0  0  0  0  0  0  0
  -17.9607  -22.4504   15.1455 N   0  3  0  0  0  0  0  0  0  0  0  0
  -27.9661  -19.3852   15.6183 O   0  0  0  0  0  0  0  0  0  0  0  0
  -21.3633  -22.2997   23.1314 O   0  0  0  0  0  0  0  0  0  0  0  0
  -21.5852  -30.0460   22.1711 O   0  0  0  0  0  0  0  0  0  0  0  0
  -19.8256  -19.5403   19.9730 O   0  0  0  0  0  0  0  0  0  0  0  0
  -20.2434  -22.9600   16.7094 O   0  0  0  0  0  0  0  0  0  0  0  0
  -29.8649  -26.9049   20.7263 O   0  0  0  0  0  0  0  0  0  0  0  0
  -27.7665  -14.0457   21.2783 O   0  0  0  0  0  0  0  0  0  0  0  0
  -20.4850  -27.8661   21.4236 O   0  0  0  0  0  0  0  0  0  1  0  0
  -22.9028  -11.7557   20.0516 F   0  0  0  0  0  0  0  0  0  0  0  0
  -27.0557  -13.5460   18.6539 F   0  0  0  0  0  0  0  0  0  0  0  0
  1  2  1  0  0  0  0
  1  5  2  0  0  0  0
  2  6  2  0  0  0  0
  3  8  2  0  0  0  0
  3 17  1  0  0  0  0
  4  9  1  0  0  0  0
  4 17  2  0  0  0  0
  5 19  1  0  0  0  0
  6 21  1  0  0  0  0
  7 10  2  0  0  0  0
  7 20  1  0  0  0  0
  8 25  1  0  0  0  0
  9 25  2  0  0  0  0
 10 26  1  0  0  0  0
 11 12  2  0  0  0  0
 11 27  1  0  0  0  0
 12 28  1  0  0  0  0
 13 22  1  0  0  0  0
 13 24  2  0  0  0  0
 14 23  1  0  0  0  0
 14 26  2  0  0  0  0
 15 28  2  0  0  0  0
 15 29  1  0  0  0  0
 16 24  1  0  0  0  0
 16 63  2  0  0  0  0
 17 30  1  0  0  0  0
 18 30  1  0  0  0  0
 18 32  2  0  0  0  0
 18 33  1  0  0  0  0
 19 21  2  0  0  0  0
 19 39  1  0  0  0  0
 20 23  2  0  0  0  0
 20 40  1  0  0  0  0
 21 50  1  0  0  0  0
 22 31  2  0  0  0  0
 22 41  1  0  0  0  0
 23 42  1  0  0  0  0
 24 58  1  0  0  0  0
 25 81  1  0  0  0  0
 26 82  1  0  0  0  0
 27 29  2  0  0  0  0
 27 81  1  0  0  0  0
 28 83  1  0  0  0  0
 29 84  1  0  0  0  0
 30 64  2  0  0  0  0
 31 63  1  0  0  0  0
 31 66  1  0  0  0  0
 32 65  1  0  0  0  0
 32 69  1  0  0  0  0
 33 70  1  0  0  0  0
 33 75  2  0  0  0  0
 34 51  1  0  0  0  0
 34 71  1  0  0  0  0
 34 76  2  0  0  0  0
 35 59  1  0  0  0  0
 35 66  1  0  0  0  0
 35 77  2  0  0  0  0
 36 60  1  0  0  0  0
 36 67  1  0  0  0  0
 36 78  2  0  0  0  0
 37 61  1  0  0  0  0
 37 72  1  0  0  0  0
 37 79  2  0  0  0  0
 38 68  1  0  0  0  0
 38 73  1  0  0  0  0
 38 80  2  0  0  0  0
 39 43  1  0  0  0  0
 40 51  1  0  0  0  0
 41 47  1  0  0  0  0
 42 67  1  0  0  0  0
 43 45  1  0  0  0  0
 44 46  1  0  0  0  0
 44 48  1  0  0  0  0
 45 50  1  0  0  0  0
 46 52  1  0  0  0  0
 47 66  1  0  0  0  0
 48 68  1  0  0  0  0
 49 52  1  0  0  0  0
 49 68  1  0  0  0  0
 50 71  1  0  0  0  0
 51 67  1  0  0  0  0
 52 65  1  0  0  0  0
 53 61  1  0  0  0  0
 54 62  1  0  0  0  0
 55 62  1  0  0  0  0
 56 62  1  0  0  0  0
 57 74  1  0  0  0  0
 58 73  1  0  0  0  0
 59 82  1  0  0  0  0
 60 62  1  0  0  0  0
 60 72  1  0  0  0  0
 61 74  1  0  0  0  0
 64 65  1  0  0  0  0
M  CHG  1  74   1
M  ISO  4  38 100  59 101  73 100  82 101
M  END
> <Batch ID>
0178

> <Smiles>
CNC(C)C(=O)NC(C(=O)N1Cc2cc([101O:1][101CH2:1]C(=O)N3CCc4cc(C[100NH:0][100C:0](=O)N5CCCC(n6nc(-c7ccc(Oc8ccc(F)cc8F)cc7)c(C(N)=O)c6N)C5)cnc43)ccc2CC1C(=O)NC1CCCc2ccccc21)C(C)(C)C

> <Shape>
0.208

> <Color>
0.070

> <Negative vol penalty>
0.000

$$$$

  -OEChem-04052322553D

 87 96  0     1  0  0  0  0  0999 V2000
  -27.2841  -31.9382   27.9470 C   0  0  0  0  0  0  0  0  0  0  0  0
  -27.6653  -31.1363   26.8759 C   0  0  0  0  0  0  0  0  0  0  0  0
  -22.3688  -10.2658   20.6724 C   0  0  0  0  0  0  0  0  0  0  0  0
  -23.8990   -9.6084   22.4227 C   0  0  0  0  0  0  0  0  0  0  0  0
  -25.9370  -32.0472   28.2898 C   0  0  0  0  0  0  0  0  0  0  0  0
  -26.6997  -30.4422   26.1477 C   0  0  0  0  0  0  0  0  0  0  0  0
  -27.4192  -30.7852   21.1468 C   0  0  0  0  0  0  0  0  0  0  0  0
  -21.9552   -8.9407   20.5362 C   0  0  0  0  0  0  0  0  0  0  0  0
  -23.4853   -8.2832   22.2866 C   0  0  0  0  0  0  0  0  0  0  0  0
  -28.4097  -29.9779   20.5891 C   0  0  0  0  0  0  0  0  0  0  0  0
  -20.8625   -6.3828   23.2506 C   0  0  0  0  0  0  0  0  0  0  0  0
  -20.5986   -5.6648   24.4169 C   0  0  0  0  0  0  0  0  0  0  0  0
  -26.7204  -28.4152   19.8658 C   0  0  0  0  0  0  0  0  0  0  0  0
  -29.0170  -26.1592   20.9253 C   0  0  0  0  0  0  0  0  0  0  0  0
  -22.3073   -4.0649   23.8185 C   0  0  0  0  0  0  0  0  0  0  0  0
  -23.3408  -10.5997   21.6156 C   0  0  0  0  0  0  0  0  0  0  0  0
  -23.2193  -12.9479   22.6049 C   0  0  0  0  0  0  0  0  0  0  0  0
  -24.9536  -31.3617   27.5594 C   0  0  0  0  0  0  0  0  0  0  0  0
  -26.0705  -30.4075   21.0775 C   0  0  0  0  0  0  0  0  0  0  0  0
  -25.3384  -30.5412   26.4819 C   0  0  0  0  0  0  0  0  0  0  0  0
  -25.7145  -29.2207   20.4211 C   0  0  0  0  0  0  0  0  0  0  0  0
  -28.9442  -24.7885   21.1478 C   0  0  0  0  0  0  0  0  0  0  0  0
  -22.5134   -7.9494   21.3433 C   0  0  0  0  0  0  0  0  0  0  0  0
  -28.0607  -28.7912   19.9511 C   0  0  0  0  0  0  0  0  0  0  0  0
  -21.8486   -5.9419   22.3681 C   0  0  0  0  0  0  0  0  0  0  0  0
  -28.9727  -26.6501   19.6251 C   0  0  0  0  0  0  0  0  0  1  0  0
  -21.3211   -4.5059   24.7009 C   0  0  0  0  0  0  0  0  0  0  0  0
  -22.5711   -4.7829   22.6521 C   0  0  0  0  0  0  0  0  0  0  0  0
  -23.7688  -11.9683   21.7563 C   0  0  0  0  0  0  0  0  0  0  0  0
  -28.8286  -23.9578   20.0449 C   0  0  0  0  0  0  0  0  0  0  0  0
  -28.8557  -25.7361   18.5904 C   0  0  0  0  0  0  0  0  0  0  0  0
  -23.9743  -14.0704   22.3676 C   0  0  0  0  0  0  0  0  0  0  0  0
  -22.1243  -12.8517   23.5255 C   0  0  0  0  0  0  0  0  0  0  0  0
  -23.8229  -29.7134   23.2153 C   0  0  0  0  0  0  0  0  0  0  0  0
  -21.9132  -29.6062   20.5954 C   0  0  0  0  0  0  0  0  0  0  0  0
  -21.6457  -29.1711   17.2211 C   0  0  0  0  0  0  0  0  0  0  0  0
  -26.3542  -17.5730   18.9904 C   0  0  0  0  0  0  0  0  0  0  0  0
  -23.5146  -31.4733   27.9971 C   0  0  0  0  0  0  0  0  0  0  0  0
  -25.0117  -31.3026   21.6606 C   0  0  0  0  0  0  0  0  0  0  0  0
  -24.2791  -28.7803   20.3019 C   0  0  0  0  0  0  0  0  0  0  0  0
  -22.5184  -31.0011   26.9412 C   0  0  0  0  0  0  0  0  0  0  0  0
  -28.2939  -14.6775   19.8368 C   0  0  0  0  0  0  0  0  0  0  0  0
  -22.9590  -29.6652   26.3511 C   0  0  0  0  0  0  0  0  0  0  0  0
  -27.2297  -13.7749   20.4558 C   0  0  0  0  0  0  0  0  0  0  0  0
  -27.7419  -20.1762   16.7414 C   0  0  0  0  0  0  0  0  0  0  0  0
  -27.7556  -15.4810   18.6513 C   0  0  0  0  0  0  0  0  0  0  0  0
  -27.5503  -17.8071   16.7536 C   0  0  0  0  0  0  0  0  0  0  0  0
  -25.4624  -15.3422   19.5811 C   0  0  0  0  0  0  0  0  0  0  0  0
  -24.3181  -29.7922   25.6524 C   0  0  1  0  0  0  0  0  0  0  0  0
  -23.7157  -30.5646   21.9817 C   0  0  1  0  0  0  0  0  0  0  0  0
  -27.3838  -19.0071   15.8243 C   0  0  2  0  0  0  0  0  0  0  0  0
  -25.9722  -14.5834   20.8146 C   0  0  1  0  0  0  0  0  0  0  0  0
  -27.1201  -19.7690   18.0818 C   0  0  2  0  0  0  0  0  0  0  0  0
  -28.9920  -24.2564   22.5383 C   0  0  0  0  0  0  0  0  0  0  0  0
  -28.8057  -26.2099   17.1752 C   0  0  0  0  0  0  0  0  0  0  0  0
  -28.2536  -18.9309   14.5821 C   0  0  0  0  0  0  0  0  0  0  0  0
  -19.9505  -29.1025   15.3720 C   0  0  0  0  0  0  0  0  0  0  0  0
  -21.0525  -26.8193   21.4911 C   0  0  0  0  0  0  0  0  0  0  0  0
  -20.1423  -26.4369   19.1903 C   0  0  0  0  0  0  0  0  0  0  0  0
  -19.1991  -28.2529   20.6170 C   0  0  0  0  0  0  0  0  0  0  0  0
  -22.8949  -31.4675   15.8338 C   0  0  0  0  0  0  0  0  0  0  0  0
  -28.7446  -22.4706   20.2245 C   0  0  0  0  0  0  0  0  0  0  0  0
  -27.9054  -20.3234   19.2633 C   0  0  0  0  0  0  0  0  0  0  0  0
  -21.5030  -28.5344   19.6146 C   0  0  1  0  0  0  0  0  0  0  0  0
  -20.9195  -29.9734   16.1564 C   0  0  2  0  0  0  0  0  0  0  0  0
  -20.5015  -27.5179   20.2320 C   0  0  0  0  0  0  0  0  0  0  0  0
  -24.7937  -12.4281   21.0337 N   0  0  0  0  0  0  0  0  0  0  0  0
  -28.7823  -24.3978   18.7675 N   0  0  0  0  0  0  0  0  0  0  0  0
  -24.8942  -13.7091   21.4276 N   0  0  0  0  0  0  0  0  0  0  0  0
  -23.2809  -29.6865   20.8935 N   0  0  0  0  0  0  0  0  0  0  0  0
  -26.5137  -16.1814   18.9995 N   0  0  0  0  0  0  0  0  0  0  0  0
  -27.0955  -18.3009   18.0558 N   0  0  0  0  0  0  0  0  0  0  0  0
  -23.9345  -15.3215   22.8733 N   0  0  0  0  0  0  0  0  0  0  0  0
  -21.4583  -11.6244   23.6457 N   0  0  0  0  0  0  0  0  0  0  0  0
  -24.1634  -30.4157   24.3556 N   0  0  0  0  0  0  0  0  0  0  0  0
  -20.9974  -29.2310   18.4366 N   0  0  0  0  0  0  0  0  0  0  0  0
  -21.8957  -30.5687   15.2007 N   0  3  0  0  0  0  0  0  0  0  0  0
  -27.9530  -21.7970   19.1562 N   0  3  0  0  0  0  0  0  0  0  0  0
  -21.7371  -13.8298   24.2088 O   0  0  0  0  0  0  0  0  0  0  0  0
  -23.6108  -28.5089   23.1386 O   0  0  0  0  0  0  0  0  0  0  0  0
  -21.0528  -30.3496   21.0737 O   0  0  0  0  0  0  0  0  0  0  0  0
  -22.6821  -28.5501   16.9960 O   0  0  0  0  0  0  0  0  0  0  0  0
  -25.5646  -18.1363   19.7597 O   0  0  0  0  0  0  0  0  0  0  0  0
  -22.1099   -6.6563   21.2109 O   0  0  0  0  0  0  0  0  0  0  0  0
  -29.0437  -27.9862   19.3963 O   0  0  0  0  0  0  0  0  0  1  0  0
  -21.0687   -3.8173   25.8218 F   0  0  0  0  0  0  0  0  0  0  0  0
  -23.5205   -4.3551   21.8087 F   0  0  0  0  0  0  0  0  0  0  0  0
  1  2  1  0  0  0  0
  1  5  2  0  0  0  0
  2  6  2  0  0  0  0
  3  8  2  0  0  0  0
  3 16  1  0  0  0  0
  4  9  1  0  0  0  0
  4 16  2  0  0  0  0
  5 18  1  0  0  0  0
  6 20  1  0  0  0  0
  7 10  2  0  0  0  0
  7 19  1  0  0  0  0
  8 23  1  0  0  0  0
  9 23  2  0  0  0  0
 10 24  1  0  0  0  0
 11 12  2  0  0  0  0
 11 25  1  0  0  0  0
 12 27  1  0  0  0  0
 13 21  1  0  0  0  0
 13 24  2  0  0  0  0
 14 22  2  0  0  0  0
 14 26  1  0  0  0  0
 15 27  2  0  0  0  0
 15 28  1  0  0  0  0
 16 29  1  0  0  0  0
 17 29  1  0  0  0  0
 17 32  2  0  0  0  0
 17 33  1  0  0  0  0
 18 20  2  0  0  0  0
 18 38  1  0  0  0  0
 19 21  2  0  0  0  0
 19 39  1  0  0  0  0
 20 49  1  0  0  0  0
 21 40  1  0  0  0  0
 22 30  1  0  0  0  0
 22 54  1  0  0  0  0
 23 84  1  0  0  0  0
 24 85  1  0  0  0  0
 25 28  2  0  0  0  0
 25 84  1  0  0  0  0
 26 31  2  0  0  0  0
 26 85  1  0  0  0  0
 27 86  1  0  0  0  0
 28 87  1  0  0  0  0
 29 67  2  0  0  0  0
 30 62  1  0  0  0  0
 30 68  2  0  0  0  0
 31 55  1  0  0  0  0
 31 68  1  0  0  0  0
 32 69  1  0  0  0  0
 32 73  1  0  0  0  0
 33 74  1  0  0  0  0
 33 79  2  0  0  0  0
 34 50  1  0  0  0  0
 34 75  1  0  0  0  0
 34 80  2  0  0  0  0
 35 64  1  0  0  0  0
 35 70  1  0  0  0  0
 35 81  2  0  0  0  0
 36 65  1  0  0  0  0
 36 76  1  0  0  0  0
 36 82  2  0  0  0  0
 37 71  1  0  0  0  0
 37 72  1  0  0  0  0
 37 83  2  0  0  0  0
 38 41  1  0  0  0  0
 39 50  1  0  0  0  0
 40 70  1  0  0  0  0
 41 43  1  0  0  0  0
 42 44  1  0  0  0  0
 42 46  1  0  0  0  0
 43 49  1  0  0  0  0
 44 52  1  0  0  0  0
 45 51  1  0  0  0  0
 45 53  1  0  0  0  0
 46 71  1  0  0  0  0
 47 51  1  0  0  0  0
 47 72  1  0  0  0  0
 48 52  1  0  0  0  0
 48 71  1  0  0  0  0
 49 75  1  0  0  0  0
 50 70  1  0  0  0  0
 51 56  1  0  0  0  0
 52 69  1  0  0  0  0
 53 63  1  0  0  0  0
 53 72  1  0  0  0  0
 57 65  1  0  0  0  0
 58 66  1  0  0  0  0
 59 66  1  0  0  0  0
 60 66  1  0  0  0  0
 61 77  1  0  0  0  0
 62 78  1  0  0  0  0
 63 78  1  0  0  0  0
 64 66  1  0  0  0  0
 64 76  1  0  0  0  0
 65 77  1  0  0  0  0
 67 69  1  0  0  0  0
M  CHG  2  77   1  78   1
M  ISO  4  26 101  37 100  72 100  85 101
M  END
> <Batch ID>
0178

> <Smiles>
CNC(C)C(=O)NC(C(=O)N1Cc2cc([101O:1][101c:1]3cc(C)c(CNCC4CC(C)C[100N:0]4[100C:0](=O)N4CCCC(n5nc(-c6ccc(Oc7ccc(F)cc7F)cc6)c(C(N)=O)c5N)C4)nc3C)ccc2CC1C(=O)NC1CCCc2ccccc21)C(C)(C)C

> <Shape>
0.291

> <Color>
0.094

> <Negative vol penalty>
0.000

$$$$

  -OEChem-04052322553D

 86 95  0     1  0  0  0  0  0999 V2000
  -19.2507  -24.4021   20.3175 C   0  0  0  0  0  0  0  0  0  0  0  0
  -20.5219  -24.8694   19.9995 C   0  0  0  0  0  0  0  0  0  0  0  0
  -23.1605  -13.2388   22.0017 C   0  0  0  0  0  0  0  0  0  0  0  0
  -25.2935  -13.3773   23.1278 C   0  0  0  0  0  0  0  0  0  0  0  0
  -18.4977  -25.0462   21.2983 C   0  0  0  0  0  0  0  0  0  0  0  0
  -21.0404  -25.9817   20.6616 C   0  0  0  0  0  0  0  0  0  0  0  0
  -25.8534  -25.3223   22.0918 C   0  0  0  0  0  0  0  0  0  0  0  0
  -29.9575  -22.7549   19.3838 C   0  0  0  0  0  0  0  0  0  0  0  0
  -22.8688  -12.0662   22.6985 C   0  0  0  0  0  0  0  0  0  0  0  0
  -25.0018  -12.2047   23.8246 C   0  0  0  0  0  0  0  0  0  0  0  0
  -26.8338  -25.4587   21.1100 C   0  0  0  0  0  0  0  0  0  0  0  0
  -21.7158   -8.8397   23.9169 C   0  0  0  0  0  0  0  0  0  0  0  0
  -21.1753   -7.7737   23.1979 C   0  0  0  0  0  0  0  0  0  0  0  0
  -29.4043  -21.4762   19.3807 C   0  0  0  0  0  0  0  0  0  0  0  0
  -27.2958  -27.6940   21.8903 C   0  0  0  0  0  0  0  0  0  0  0  0
  -23.1419   -7.7224   21.7954 C   0  0  0  0  0  0  0  0  0  0  0  0
  -24.3729  -13.8943   22.2163 C   0  0  0  0  0  0  0  0  0  0  0  0
  -24.3815  -16.4244   21.8906 C   0  0  0  0  0  0  0  0  0  0  0  0
  -19.0110  -26.1611   21.9795 C   0  0  0  0  0  0  0  0  0  0  0  0
  -25.5789  -26.3766   22.9748 C   0  0  0  0  0  0  0  0  0  0  0  0
  -20.2930  -26.6421   21.6515 C   0  0  0  0  0  0  0  0  0  0  0  0
  -30.5669  -23.2038   18.2280 C   0  0  0  0  0  0  0  0  0  0  0  0
  -26.3132  -27.5676   22.8841 C   0  0  0  0  0  0  0  0  0  0  0  0
  -23.7894  -11.5492   23.6100 C   0  0  0  0  0  0  0  0  0  0  0  0
  -27.5532  -26.6457   21.0072 C   0  0  0  0  0  0  0  0  0  0  0  0
  -22.9694   -9.3472   23.5751 C   0  0  0  0  0  0  0  0  0  0  0  0
  -21.8884   -7.2150   22.1372 C   0  0  0  0  0  0  0  0  0  0  0  0
  -23.6824   -8.7886   22.5144 C   0  0  0  0  0  0  0  0  0  0  0  0
  -24.6751  -15.1053   21.4963 C   0  0  0  0  0  0  0  0  0  0  0  0
  -30.5870  -22.3687   17.1138 C   0  0  0  0  0  0  0  0  0  0  0  0
  -29.4805  -20.7170   18.2136 C   0  0  0  0  0  0  0  0  0  0  0  0
  -24.8700  -17.2043   20.8710 C   0  0  0  0  0  0  0  0  0  0  0  0
  -23.7258  -16.9021   23.0729 C   0  0  0  0  0  0  0  0  0  0  0  0
  -23.0345  -28.1779   23.5953 C   0  0  0  0  0  0  0  0  0  0  0  0
  -24.9121  -29.3234   25.9796 C   0  0  0  0  0  0  0  0  0  0  0  0
  -28.0592  -29.8484   27.1908 C   0  0  0  0  0  0  0  0  0  0  0  0
  -28.8593  -18.4930   17.2066 C   0  0  0  0  0  0  0  0  0  0  0  0
  -18.1410  -26.8530   22.9988 C   0  0  0  0  0  0  0  0  0  0  0  0
  -24.5367  -26.2039   24.0455 C   0  0  0  0  0  0  0  0  0  0  0  0
  -26.0709  -28.7219   23.8208 C   0  0  0  0  0  0  0  0  0  0  0  0
  -31.2476  -23.0476   15.9481 C   0  0  0  0  0  0  0  0  0  0  0  0
  -18.9122  -27.7977   23.9170 C   0  0  0  0  0  0  0  0  0  0  0  0
  -32.0300  -24.1565   16.6664 C   0  0  0  0  0  0  0  0  0  0  0  0
  -26.5664  -15.9335   16.2744 C   0  0  0  0  0  0  0  0  0  0  0  0
  -19.8577  -28.6775   23.1053 C   0  0  0  0  0  0  0  0  0  0  0  0
  -25.8458  -15.5984   17.5823 C   0  0  0  0  0  0  0  0  0  0  0  0
  -28.0422  -16.2532   16.5059 C   0  0  0  0  0  0  0  0  0  0  0  0
  -27.5818  -16.9529   18.8227 C   0  0  0  0  0  0  0  0  0  0  0  0
  -31.2088  -24.5238   17.9221 C   0  0  2  0  0  0  0  0  0  0  0  0
  -20.8999  -27.8307   22.3649 C   0  0  1  0  0  0  0  0  0  0  0  0
  -23.9849  -27.5293   24.5615 C   0  0  1  0  0  0  0  0  0  0  0  0
  -26.0776  -16.6871   18.6484 C   0  0  2  0  0  0  0  0  0  0  0  0
  -29.2766  -30.8410   29.1478 C   0  0  0  0  0  0  0  0  0  0  0  0
  -32.8316  -24.0087   19.7867 C   0  0  0  0  0  0  0  0  0  0  0  0
  -32.0490  -28.0936   19.8620 C   0  0  0  0  0  0  0  0  0  0  0  0
  -24.3582  -32.1234   24.9010 C   0  0  0  0  0  0  0  0  0  0  0  0
  -26.2980  -32.9512   26.2501 C   0  0  0  0  0  0  0  0  0  0  0  0
  -24.3254  -31.9408   27.3950 C   0  0  0  0  0  0  0  0  0  0  0  0
  -29.2858  -27.2486   27.8945 C   0  0  0  0  0  0  0  0  0  0  0  0
  -29.6116  -27.6383   20.3487 C   0  0  0  0  0  0  0  0  0  1  0  0
  -25.9097  -30.4492   26.1077 C   0  0  1  0  0  0  0  0  0  0  0  0
  -28.6722  -29.5786   28.5530 C   0  0  2  0  0  0  0  0  0  0  0  0
  -32.0767  -25.0923   19.0336 C   0  0  2  0  0  0  0  0  0  0  0  0
  -30.8523  -27.2000   19.5788 C   0  0  2  0  0  0  0  0  0  0  0  0
  -25.2263  -31.8453   26.1444 C   0  0  0  0  0  0  0  0  0  0  0  0
  -25.3014  -15.0466   20.3181 N   0  0  0  0  0  0  0  0  0  0  0  0
  -30.0593  -21.1341   17.0625 N   0  0  0  0  0  0  0  0  0  0  0  0
  -25.4053  -16.3386   19.9632 N   0  0  0  0  0  0  0  0  0  0  0  0
  -25.0372  -28.5068   24.8468 N   0  0  0  0  0  0  0  0  0  0  0  0
  -28.1842  -17.2956   17.5248 N   0  0  0  0  0  0  0  0  0  0  0  0
  -24.8895  -18.5393   20.6714 N   0  0  0  0  0  0  0  0  0  0  0  0
  -23.2868  -15.9652   24.0182 N   0  0  0  0  0  0  0  0  0  0  0  0
  -28.9033  -19.4233   18.2444 N   0  0  0  0  0  0  0  0  0  0  0  0
  -21.9391  -27.3989   23.2749 N   0  0  0  0  0  0  0  0  0  0  0  0
  -26.7165  -30.1477   27.2852 N   0  0  0  0  0  0  0  0  0  0  0  0
  -29.7454  -28.5502   28.4436 N   0  3  0  0  0  0  0  0  0  0  0  0
  -31.2009  -25.8104   19.9942 N   0  3  0  0  0  0  0  0  0  0  0  0
  -23.5204  -18.1226   23.2769 O   0  0  0  0  0  0  0  0  0  0  0  0
  -23.2763  -29.3026   23.1729 O   0  0  0  0  0  0  0  0  0  0  0  0
  -24.0579  -29.1697   26.8562 O   0  0  0  0  0  0  0  0  0  0  0  0
  -28.7074  -29.8023   26.1476 O   0  0  0  0  0  0  0  0  0  0  0  0
  -29.3377  -18.6903   16.0867 O   0  0  0  0  0  0  0  0  0  0  0  0
  -23.5050  -10.4052   24.2903 O   0  0  0  0  0  0  0  0  0  0  0  0
  -28.5102  -26.7817   20.0494 O   0  0  0  0  0  0  0  0  0  1  0  0
  -21.3699   -6.1902   21.4478 F   0  0  0  0  0  0  0  0  0  0  0  0
  -24.8877   -9.2711   22.1821 F   0  0  0  0  0  0  0  0  0  0  0  0
  1  2  1  0  0  0  0
  1  5  2  0  0  0  0
  2  6  2  0  0  0  0
  3  9  2  0  0  0  0
  3 17  1  0  0  0  0
  4 10  1  0  0  0  0
  4 17  2  0  0  0  0
  5 19  1  0  0  0  0
  6 21  1  0  0  0  0
  7 11  2  0  0  0  0
  7 20  1  0  0  0  0
  8 14  2  0  0  0  0
  8 22  1  0  0  0  0
  9 24  1  0  0  0  0
 10 24  2  0  0  0  0
 11 25  1  0  0  0  0
 12 13  2  0  0  0  0
 12 26  1  0  0  0  0
 13 27  1  0  0  0  0
 14 31  1  0  0  0  0
 15 23  1  0  0  0  0
 15 25  2  0  0  0  0
 16 27  2  0  0  0  0
 16 28  1  0  0  0  0
 17 29  1  0  0  0  0
 18 29  1  0  0  0  0
 18 32  2  0  0  0  0
 18 33  1  0  0  0  0
 19 21  2  0  0  0  0
 19 38  1  0  0  0  0
 20 23  2  0  0  0  0
 20 39  1  0  0  0  0
 21 50  1  0  0  0  0
 22 30  2  0  0  0  0
 22 49  1  0  0  0  0
 23 40  1  0  0  0  0
 24 83  1  0  0  0  0
 25 84  1  0  0  0  0
 26 28  2  0  0  0  0
 26 83  1  0  0  0  0
 27 85  1  0  0  0  0
 28 86  1  0  0  0  0
 29 66  2  0  0  0  0
 30 41  1  0  0  0  0
 30 67  1  0  0  0  0
 31 67  2  0  0  0  0
 31 73  1  0  0  0  0
 32 68  1  0  0  0  0
 32 71  1  0  0  0  0
 33 72  1  0  0  0  0
 33 78  2  0  0  0  0
 34 51  1  0  0  0  0
 34 74  1  0  0  0  0
 34 79  2  0  0  0  0
 35 61  1  0  0  0  0
 35 69  1  0  0  0  0
 35 80  2  0  0  0  0
 36 62  1  0  0  0  0
 36 75  1  0  0  0  0
 36 81  2  0  0  0  0
 37 70  1  0  0  0  0
 37 73  1  0  0  0  0
 37 82  2  0  0  0  0
 38 42  1  0  0  0  0
 39 51  1  0  0  0  0
 40 69  1  0  0  0  0
 41 43  1  0  0  0  0
 42 45  1  0  0  0  0
 43 49  1  0  0  0  0
 44 46  1  0  0  0  0
 44 47  1  0  0  0  0
 45 50  1  0  0  0  0
 46 52  1  0  0  0  0
 47 70  1  0  0  0  0
 48 52  1  0  0  0  0
 48 70  1  0  0  0  0
 49 63  1  0  0  0  0
 50 74  1  0  0  0  0
 51 69  1  0  0  0  0
 52 68  1  0  0  0  0
 53 62  1  0  0  0  0
 54 63  1  0  0  0  0
 55 64  1  0  0  0  0
 56 65  1  0  0  0  0
 57 65  1  0  0  0  0
 58 65  1  0  0  0  0
 59 76  1  0  0  0  0
 60 64  1  0  0  0  0
 60 84  1  0  0  0  0
 61 65  1  0  0  0  0
 61 75  1  0  0  0  0
 62 76  1  0  0  0  0
 63 77  1  0  0  0  0
 64 77  1  0  0  0  0
 66 68  1  0  0  0  0
M  CHG  2  76   1  77   1
M  ISO  4  37 100  60 101  73 100  84 101
M  END
> <Batch ID>
0178

> <Smiles>
CNC(C)C(=O)NC(C(=O)N1Cc2cc([101O:1][101CH2:1]C(C)NC(C)C3CCc4nc([100NH:0][100C:0](=O)N5CCCC(n6nc(-c7ccc(Oc8ccc(F)cc8F)cc7)c(C(N)=O)c6N)C5)ccc43)ccc2CC1C(=O)NC1CCCc2ccccc21)C(C)(C)C

> <Shape>
0.226

> <Color>
0.067

> <Negative vol penalty>
0.000

$$$$

  -OEChem-04052322553D

 87 97  0     1  0  0  0  0  0999 V2000
  -16.8791  -30.7672   23.3795 C   0  0  0  0  0  0  0  0  0  0  0  0
  -18.2365  -30.8940   23.6566 C   0  0  0  0  0  0  0  0  0  0  0  0
  -25.6968  -13.1473   21.7469 C   0  0  0  0  0  0  0  0  0  0  0  0
  -25.9464  -13.5066   19.3709 C   0  0  0  0  0  0  0  0  0  0  0  0
  -16.3182  -29.5018   23.2120 C   0  0  0  0  0  0  0  0  0  0  0  0
  -19.0337  -29.7552   23.7673 C   0  0  0  0  0  0  0  0  0  0  0  0
  -24.8951  -29.1867   22.0861 C   0  0  0  0  0  0  0  0  0  0  0  0
  -24.6317  -12.2800   21.5039 C   0  0  0  0  0  0  0  0  0  0  0  0
  -24.8814  -12.6393   19.1278 C   0  0  0  0  0  0  0  0  0  0  0  0
  -26.0876  -29.2503   22.8055 C   0  0  0  0  0  0  0  0  0  0  0  0
  -24.2051   -9.0737   20.5186 C   0  0  0  0  0  0  0  0  0  0  0  0
  -24.1777   -7.8683   21.2199 C   0  0  0  0  0  0  0  0  0  0  0  0
  -26.0968  -26.8451   22.9910 C   0  0  0  0  0  0  0  0  0  0  0  0
  -30.7962  -27.1194   20.9801 C   0  0  0  0  0  0  0  0  0  0  0  0
  -22.0531   -8.4826   22.1925 C   0  0  0  0  0  0  0  0  0  0  0  0
  -26.3541  -13.7606   20.6804 C   0  0  0  0  0  0  0  0  0  0  0  0
  -28.8185  -14.3233   21.0235 C   0  0  0  0  0  0  0  0  0  0  0  0
  -17.1108  -28.3474   23.3112 C   0  0  0  0  0  0  0  0  0  0  0  0
  -24.2877  -27.9505   21.8227 C   0  0  0  0  0  0  0  0  0  0  0  0
  -18.4826  -28.4731   23.6023 C   0  0  0  0  0  0  0  0  0  0  0  0
  -24.8980  -26.7684   22.2658 C   0  0  0  0  0  0  0  0  0  0  0  0
  -31.0295  -26.2284   22.0097 C   0  0  0  0  0  0  0  0  0  0  0  0
  -31.2200  -24.8718   21.7396 C   0  0  0  0  0  0  0  0  0  0  0  0
  -24.2240  -12.0260   20.1943 C   0  0  0  0  0  0  0  0  0  0  0  0
  -26.6872  -28.0796   23.2606 C   0  0  0  0  0  0  0  0  0  0  0  0
  -23.1566   -9.9836   20.6543 C   0  0  0  0  0  0  0  0  0  0  0  0
  -23.1016   -7.5727   22.0568 C   0  0  0  0  0  0  0  0  0  0  0  0
  -22.0805   -9.6880   21.4912 C   0  0  0  0  0  0  0  0  0  0  0  0
  -27.4541  -14.6570   20.9308 C   0  0  0  0  0  0  0  0  0  0  0  0
  -30.7531  -26.5858   19.6997 C   0  0  0  0  0  0  0  0  0  0  0  0
  -31.1722  -24.4344   20.4364 C   0  0  0  0  0  0  0  0  0  0  0  0
  -29.4485  -15.5187   21.2696 C   0  0  0  0  0  0  0  0  0  0  0  0
  -29.4593  -13.0468   20.8983 C   0  0  0  0  0  0  0  0  0  0  0  0
  -21.5060  -26.6115   22.5794 C   0  0  0  0  0  0  0  0  0  0  0  0
  -22.5400  -24.2634   20.5945 C   0  0  0  0  0  0  0  0  0  0  0  0
  -25.1700  -22.6736   19.1106 C   0  0  0  0  0  0  0  0  0  0  0  0
  -30.2016  -20.8198   20.1388 C   0  0  0  0  0  0  0  0  0  0  0  0
  -16.4503  -26.9990   23.1691 C   0  0  0  0  0  0  0  0  0  0  0  0
  -23.0154  -27.8972   21.0223 C   0  0  0  0  0  0  0  0  0  0  0  0
  -31.5012  -24.0989   22.9840 C   0  0  0  0  0  0  0  0  0  0  0  0
  -24.2969  -25.4149   21.9919 C   0  0  0  0  0  0  0  0  0  0  0  0
  -17.4376  -25.8592   22.9314 C   0  0  0  0  0  0  0  0  0  0  0  0
  -30.9772  -25.0716   24.0516 C   0  0  0  0  0  0  0  0  0  0  0  0
  -27.5571  -20.0501   22.4865 C   0  0  0  0  0  0  0  0  0  0  0  0
  -18.6084  -25.9555   23.9044 C   0  0  0  0  0  0  0  0  0  0  0  0
  -29.2647  -28.3696   18.5700 C   0  0  0  0  0  0  0  0  0  0  0  0
  -29.3509  -27.2146   17.6220 C   0  0  0  0  0  0  0  0  0  0  0  0
  -27.4097  -18.5396   22.2941 C   0  0  0  0  0  0  0  0  0  0  0  0
  -27.8478  -20.7502   21.1623 C   0  0  0  0  0  0  0  0  0  0  0  0
  -28.8942  -18.7169   20.2436 C   0  0  0  0  0  0  0  0  0  0  0  0
  -31.1754  -26.4937   23.4821 C   0  0  2  0  0  0  0  0  0  0  0  0
  -19.3850  -27.2627   23.7055 C   0  0  1  0  0  0  0  0  0  0  0  0
  -30.4979  -27.5063   18.5525 C   0  0  0  0  0  0  0  0  0  0  0  0
  -22.2161  -26.6189   21.2552 C   0  0  1  0  0  0  0  0  0  0  0  0
  -28.6216  -17.9487   21.5496 C   0  0  2  0  0  0  0  0  0  0  0  0
  -25.7038  -20.7655   17.5705 C   0  0  0  0  0  0  0  0  0  0  0  0
  -30.4552  -27.7080   25.5476 C   0  0  0  0  0  0  0  0  0  0  0  0
  -22.0281  -22.2907   22.8653 C   0  0  0  0  0  0  0  0  0  0  0  0
  -23.4353  -20.6218   21.6393 C   0  0  0  0  0  0  0  0  0  0  0  0
  -21.3348  -21.4803   20.6032 C   0  0  0  0  0  0  0  0  0  0  0  0
  -26.4082  -24.4769   17.1171 C   0  0  0  0  0  0  0  0  0  0  0  0
  -31.3888  -22.9984   20.1027 C   0  0  0  0  0  0  0  0  0  0  0  0
  -28.7390  -27.0283   23.8443 C   0  0  0  0  0  0  0  0  0  1  0  0
  -23.3489  -23.0001   20.7633 C   0  0  1  0  0  0  0  0  0  0  0  0
  -25.4119  -22.2546   17.6717 C   0  0  2  0  0  0  0  0  0  0  0  0
  -30.1827  -27.4897   24.0608 C   0  0  2  0  0  0  0  0  0  0  0  0
  -22.5474  -21.8737   21.4748 C   0  0  0  0  0  0  0  0  0  0  0  0
  -27.2295  -15.9622   21.1041 N   0  0  0  0  0  0  0  0  0  0  0  0
  -30.9336  -25.2711   19.4010 N   0  0  0  0  0  0  0  0  0  0  0  0
  -28.4614  -16.4591   21.3083 N   0  0  0  0  0  0  0  0  0  0  0  0
  -23.0491  -25.4154   21.2107 N   0  0  0  0  0  0  0  0  0  0  0  0
  -29.0235  -20.1527   20.5137 N   0  0  0  0  0  0  0  0  0  0  0  0
  -30.7448  -15.8467   21.4547 N   0  0  0  0  0  0  0  0  0  0  0  0
  -28.6631  -11.9215   20.6452 N   0  0  0  0  0  0  0  0  0  0  0  0
  -20.2423  -27.1694   22.5433 N   0  0  0  0  0  0  0  0  0  0  0  0
  -23.8298  -22.6425   19.4331 N   0  0  0  0  0  0  0  0  0  0  0  0
  -30.2412  -22.1792   20.4236 N   0  0  0  0  0  0  0  0  0  0  0  0
  -26.5701  -23.0002   17.1028 N   0  3  0  0  0  0  0  0  0  0  0  0
  -30.6994  -12.9058   21.0238 O   0  0  0  0  0  0  0  0  0  0  0  0
  -22.0628  -26.1336   23.5609 O   0  0  0  0  0  0  0  0  0  0  0  0
  -21.4986  -24.2310   19.9341 O   0  0  0  0  0  0  0  0  0  0  0  0
  -26.0794  -22.9927   19.8733 O   0  0  0  0  0  0  0  0  0  0  0  0
  -31.1509  -20.2451   19.5951 O   0  0  0  0  0  0  0  0  0  0  0  0
  -23.1849  -11.1796   19.9568 O   0  0  0  0  0  0  0  0  0  0  0  0
  -27.8509  -28.1388   23.9635 O   0  0  0  0  0  0  0  0  0  1  0  0
  -23.0747   -6.4144   22.7290 F   0  0  0  0  0  0  0  0  0  0  0  0
  -21.0697  -10.5577   21.6247 F   0  0  0  0  0  0  0  0  0  0  0  0
  1  2  1  0  0  0  0
  1  5  2  0  0  0  0
  2  6  2  0  0  0  0
  3  8  2  0  0  0  0
  3 16  1  0  0  0  0
  4  9  1  0  0  0  0
  4 16  2  0  0  0  0
  5 18  1  0  0  0  0
  6 20  1  0  0  0  0
  7 10  2  0  0  0  0
  7 19  1  0  0  0  0
  8 24  1  0  0  0  0
  9 24  2  0  0  0  0
 10 25  1  0  0  0  0
 11 12  2  0  0  0  0
 11 26  1  0  0  0  0
 12 27  1  0  0  0  0
 13 21  1  0  0  0  0
 13 25  2  0  0  0  0
 14 22  2  0  0  0  0
 14 30  1  0  0  0  0
 15 27  2  0  0  0  0
 15 28  1  0  0  0  0
 16 29  1  0  0  0  0
 17 29  1  0  0  0  0
 17 32  2  0  0  0  0
 17 33  1  0  0  0  0
 18 20  2  0  0  0  0
 18 38  1  0  0  0  0
 19 21  2  0  0  0  0
 19 39  1  0  0  0  0
 20 52  1  0  0  0  0
 21 41  1  0  0  0  0
 22 23  1  0  0  0  0
 22 51  1  0  0  0  0
 23 31  2  0  0  0  0
 23 40  1  0  0  0  0
 24 84  1  0  0  0  0
 25 85  1  0  0  0  0
 26 28  2  0  0  0  0
 26 84  1  0  0  0  0
 27 86  1  0  0  0  0
 28 87  1  0  0  0  0
 29 68  2  0  0  0  0
 30 53  1  0  0  0  0
 30 69  2  0  0  0  0
 31 62  1  0  0  0  0
 31 69  1  0  0  0  0
 32 70  1  0  0  0  0
 32 73  1  0  0  0  0
 33 74  1  0  0  0  0
 33 79  2  0  0  0  0
 34 54  1  0  0  0  0
 34 75  1  0  0  0  0
 34 80  2  0  0  0  0
 35 64  1  0  0  0  0
 35 71  1  0  0  0  0
 35 81  2  0  0  0  0
 36 65  1  0  0  0  0
 36 76  1  0  0  0  0
 36 82  2  0  0  0  0
 37 72  1  0  0  0  0
 37 77  1  0  0  0  0
 37 83  2  0  0  0  0
 38 42  1  0  0  0  0
 39 54  1  0  0  0  0
 40 43  1  0  0  0  0
 41 71  1  0  0  0  0
 42 45  1  0  0  0  0
 43 51  1  0  0  0  0
 44 48  1  0  0  0  0
 44 49  1  0  0  0  0
 45 52  1  0  0  0  0
 46 47  1  0  0  0  0
 46 53  1  0  0  0  0
 47 53  1  0  0  0  0
 48 55  1  0  0  0  0
 49 72  1  0  0  0  0
 50 55  1  0  0  0  0
 50 72  1  0  0  0  0
 51 66  1  0  0  0  0
 52 75  1  0  0  0  0
 54 71  1  0  0  0  0
 55 70  1  0  0  0  0
 56 65  1  0  0  0  0
 57 66  1  0  0  0  0
 58 67  1  0  0  0  0
 59 67  1  0  0  0  0
 60 67  1  0  0  0  0
 61 78  1  0  0  0  0
 62 77  1  0  0  0  0
 63 66  1  0  0  0  0
 63 85  1  0  0  0  0
 64 67  1  0  0  0  0
 64 76  1  0  0  0  0
 65 78  1  0  0  0  0
 68 70  1  0  0  0  0
M  CHG  1  78   1
M  ISO  4  37 100  63 101  77 100  85 101
M  END
> <Batch ID>
0178

> <Smiles>
CNC(C)C(=O)NC(C(=O)N1Cc2cc([101O:1][101CH2:1]C(C)C3CCc4c3cc(C3CC3)nc4C[100NH:0][100C:0](=O)N3CCCC(n4nc(-c5ccc(Oc6ccc(F)cc6F)cc5)c(C(N)=O)c4N)C3)ccc2CC1C(=O)NC1CCCc2ccccc21)C(C)(C)C

> <Shape>
0.247

> <Color>
0.070

> <Negative vol penalty>
0.000

$$$$

  -OEChem-04052322553D

 83 92  0     1  0  0  0  0  0999 V2000
  -23.5055  -24.0095   19.7461 C   0  0  0  0  0  0  0  0  0  0  0  0
  -24.3460  -22.9648   19.3784 C   0  0  0  0  0  0  0  0  0  0  0  0
  -22.4752  -28.1490   21.1683 C   0  0  0  0  0  0  0  0  0  0  0  0
  -23.6478  -28.1169   23.2804 C   0  0  0  0  0  0  0  0  0  0  0  0
  -22.5811  -23.8271   20.7725 C   0  0  0  0  0  0  0  0  0  0  0  0
  -24.2542  -21.7338   20.0289 C   0  0  0  0  0  0  0  0  0  0  0  0
  -26.9519  -18.0412   18.2149 C   0  0  0  0  0  0  0  0  0  0  0  0
  -32.4040  -19.4880   19.5505 C   0  0  0  0  0  0  0  0  0  0  0  0
  -21.2654  -27.9630   21.8371 C   0  0  0  0  0  0  0  0  0  0  0  0
  -22.4379  -27.9309   23.9492 C   0  0  0  0  0  0  0  0  0  0  0  0
  -28.3386  -17.9849   18.3476 C   0  0  0  0  0  0  0  0  0  0  0  0
  -19.0753  -29.8469   23.5941 C   0  0  0  0  0  0  0  0  0  0  0  0
  -17.9935  -30.6391   23.2095 C   0  0  0  0  0  0  0  0  0  0  0  0
  -32.4092  -20.8747   19.4488 C   0  0  0  0  0  0  0  0  0  0  0  0
  -28.0988  -16.3334   20.0895 C   0  0  0  0  0  0  0  0  0  0  0  0
  -16.7447  -28.6531   22.6318 C   0  0  0  0  0  0  0  0  0  0  0  0
  -23.6664  -28.2258   21.8899 C   0  0  0  0  0  0  0  0  0  0  0  0
  -25.5308  -29.6424   20.8774 C   0  0  0  0  0  0  0  0  0  0  0  0
  -22.4872  -22.5968   21.4437 C   0  0  0  0  0  0  0  0  0  0  0  0
  -26.1264  -17.2507   19.0274 C   0  0  0  0  0  0  0  0  0  0  0  0
  -23.3113  -21.5226   21.0511 C   0  0  0  0  0  0  0  0  0  0  0  0
  -32.1195  -18.8871   20.7718 C   0  0  0  0  0  0  0  0  0  0  0  0
  -26.7020  -16.3796   19.9634 C   0  0  0  0  0  0  0  0  0  0  0  0
  -21.2467  -27.8540   23.2276 C   0  0  0  0  0  0  0  0  0  0  0  0
  -28.9122  -17.1330   19.2870 C   0  0  0  0  0  0  0  0  0  0  0  0
  -18.9918  -28.4579   23.4975 C   0  0  0  0  0  0  0  0  0  0  0  0
  -16.8282  -30.0422   22.7284 C   0  0  0  0  0  0  0  0  0  0  0  0
  -17.8265  -27.8610   23.0164 C   0  0  0  0  0  0  0  0  0  0  0  0
  -24.9166  -28.4173   21.1996 C   0  0  0  0  0  0  0  0  0  0  0  0
  -32.1257  -21.6097   20.5886 C   0  0  0  0  0  0  0  0  0  0  0  0
  -31.8491  -19.7111   21.8524 C   0  0  0  0  0  0  0  0  0  0  0  0
  -26.6887  -29.2862   20.2301 C   0  0  0  0  0  0  0  0  0  0  0  0
  -25.0938  -30.9825   21.1399 C   0  0  0  0  0  0  0  0  0  0  0  0
  -23.8819  -17.8462   21.1979 C   0  0  0  0  0  0  0  0  0  0  0  0
  -23.5097  -14.6245   21.1283 C   0  0  0  0  0  0  0  0  0  0  0  0
  -24.8680  -11.5648   20.4653 C   0  0  0  0  0  0  0  0  0  0  0  0
  -30.0227  -24.4228   20.5241 C   0  0  0  0  0  0  0  0  0  0  0  0
  -21.4635  -22.4518   22.5420 C   0  0  0  0  0  0  0  0  0  0  0  0
  -24.6333  -17.3033   18.8534 C   0  0  0  0  0  0  0  0  0  0  0  0
  -25.8607  -15.4953   20.8458 C   0  0  0  0  0  0  0  0  0  0  0  0
  -21.7427  -21.2681   23.4624 C   0  0  0  0  0  0  0  0  0  0  0  0
  -28.5459  -25.8038   17.5226 C   0  0  0  0  0  0  0  0  0  0  0  0
  -21.9992  -20.0165   22.6363 C   0  0  0  0  0  0  0  0  0  0  0  0
  -27.4992  -26.7536   18.1078 C   0  0  0  0  0  0  0  0  0  0  0  0
  -33.0827  -16.7614   21.8654 C   0  0  0  0  0  0  0  0  0  0  0  0
  -33.3330  -16.6451   20.3944 C   0  0  0  0  0  0  0  0  0  0  0  0
  -28.6590  -24.5275   18.3511 C   0  0  0  0  0  0  0  0  0  0  0  0
  -27.9053  -25.7029   20.3819 C   0  0  0  0  0  0  0  0  0  0  0  0
  -23.2505  -20.1843   21.7649 C   0  0  1  0  0  0  0  0  0  0  0  0
  -23.8710  -16.8330   20.0884 C   0  0  1  0  0  0  0  0  0  0  0  0
  -27.7595  -27.0222   19.6019 C   0  0  2  0  0  0  0  0  0  0  0  0
  -32.1130  -17.4017   20.8884 C   0  0  0  0  0  0  0  0  0  0  0  0
  -31.5384  -19.1233   23.1902 C   0  0  0  0  0  0  0  0  0  0  0  0
  -24.3339   -9.1140   20.5415 C   0  0  0  0  0  0  0  0  0  0  0  0
  -23.8679  -14.6432   24.1584 C   0  0  0  0  0  0  0  0  0  0  0  0
  -24.2752  -12.1750   24.0555 C   0  0  0  0  0  0  0  0  0  0  0  0
  -22.0780  -13.1061   23.3290 C   0  0  0  0  0  0  0  0  0  0  0  0
  -25.2488  -11.2726   17.5449 C   0  0  0  0  0  0  0  0  0  0  0  0
  -32.1221  -23.1001   20.5155 C   0  0  0  0  0  0  0  0  0  0  0  0
  -30.7792  -16.7613   20.7124 C   0  0  0  0  0  0  0  0  0  1  0  0
  -24.1163  -13.4619   21.8761 C   0  0  1  0  0  0  0  0  0  0  0  0
  -24.3363  -10.3734   19.6891 C   0  0  2  0  0  0  0  0  0  0  0  0
  -23.6004  -13.3645   23.3396 C   0  0  0  0  0  0  0  0  0  0  0  0
  -25.6255  -27.3618   20.7905 N   0  0  0  0  0  0  0  0  0  0  0  0
  -31.8448  -21.0617   21.7921 N   0  0  0  0  0  0  0  0  0  0  0  0
  -26.6971  -27.9226   20.2046 N   0  0  0  0  0  0  0  0  0  0  0  0
  -24.4055  -15.5874   20.6423 N   0  0  0  0  0  0  0  0  0  0  0  0
  -28.9254  -24.8524   19.7595 N   0  0  0  0  0  0  0  0  0  0  0  0
  -27.6902  -30.0095   19.6859 N   0  0  0  0  0  0  0  0  0  0  0  0
  -23.8802  -31.1693   21.8156 N   0  0  0  0  0  0  0  0  0  0  0  0
  -23.3407  -19.0688   20.8488 N   0  0  0  0  0  0  0  0  0  0  0  0
  -23.8523  -12.2753   21.0693 N   0  0  0  0  0  0  0  0  0  0  0  0
  -30.9393  -23.6150   19.8622 N   0  0  0  0  0  0  0  0  0  0  0  0
  -25.1765  -10.1236   18.4839 N   0  3  0  0  0  0  0  0  0  0  0  0
  -25.7518  -31.9848   20.7711 O   0  0  0  0  0  0  0  0  0  0  0  0
  -24.3455  -17.5408   22.2904 O   0  0  0  0  0  0  0  0  0  0  0  0
  -22.2867  -14.6729   20.9747 O   0  0  0  0  0  0  0  0  0  0  0  0
  -26.0649  -11.8357   20.5323 O   0  0  0  0  0  0  0  0  0  0  0  0
  -30.1773  -24.7401   21.7084 O   0  0  0  0  0  0  0  0  0  0  0  0
  -20.0663  -27.6728   23.8805 O   0  0  0  0  0  0  0  0  0  0  0  0
  -30.2654  -17.0766   19.4190 O   0  0  0  0  0  0  0  0  0  1  0  0
  -15.7889  -30.8029   22.3605 F   0  0  0  0  0  0  0  0  0  0  0  0
  -17.7400  -26.5270   22.9225 F   0  0  0  0  0  0  0  0  0  0  0  0
  1  2  1  0  0  0  0
  1  5  2  0  0  0  0
  2  6  2  0  0  0  0
  3  9  2  0  0  0  0
  3 17  1  0  0  0  0
  4 10  1  0  0  0  0
  4 17  2  0  0  0  0
  5 19  1  0  0  0  0
  6 21  1  0  0  0  0
  7 11  2  0  0  0  0
  7 20  1  0  0  0  0
  8 14  2  0  0  0  0
  8 22  1  0  0  0  0
  9 24  1  0  0  0  0
 10 24  2  0  0  0  0
 11 25  1  0  0  0  0
 12 13  2  0  0  0  0
 12 26  1  0  0  0  0
 13 27  1  0  0  0  0
 14 30  1  0  0  0  0
 15 23  1  0  0  0  0
 15 25  2  0  0  0  0
 16 27  2  0  0  0  0
 16 28  1  0  0  0  0
 17 29  1  0  0  0  0
 18 29  1  0  0  0  0
 18 32  2  0  0  0  0
 18 33  1  0  0  0  0
 19 21  2  0  0  0  0
 19 38  1  0  0  0  0
 20 23  2  0  0  0  0
 20 39  1  0  0  0  0
 21 49  1  0  0  0  0
 22 31  2  0  0  0  0
 22 52  1  0  0  0  0
 23 40  1  0  0  0  0
 24 80  1  0  0  0  0
 25 81  1  0  0  0  0
 26 28  2  0  0  0  0
 26 80  1  0  0  0  0
 27 82  1  0  0  0  0
 28 83  1  0  0  0  0
 29 64  2  0  0  0  0
 30 59  1  0  0  0  0
 30 65  2  0  0  0  0
 31 53  1  0  0  0  0
 31 65  1  0  0  0  0
 32 66  1  0  0  0  0
 32 69  1  0  0  0  0
 33 70  1  0  0  0  0
 33 75  2  0  0  0  0
 34 50  1  0  0  0  0
 34 71  1  0  0  0  0
 34 76  2  0  0  0  0
 35 61  1  0  0  0  0
 35 67  1  0  0  0  0
 35 77  2  0  0  0  0
 36 62  1  0  0  0  0
 36 72  1  0  0  0  0
 36 78  2  0  0  0  0
 37 68  1  0  0  0  0
 37 73  1  0  0  0  0
 37 79  2  0  0  0  0
 38 41  1  0  0  0  0
 39 50  1  0  0  0  0
 40 67  1  0  0  0  0
 41 43  1  0  0  0  0
 42 44  1  0  0  0  0
 42 47  1  0  0  0  0
 43 49  1  0  0  0  0
 44 51  1  0  0  0  0
 45 46  1  0  0  0  0
 45 52  1  0  0  0  0
 46 52  1  0  0  0  0
 47 68  1  0  0  0  0
 48 51  1  0  0  0  0
 48 68  1  0  0  0  0
 49 71  1  0  0  0  0
 50 67  1  0  0  0  0
 51 66  1  0  0  0  0
 52 60  1  0  0  0  0
 54 62  1  0  0  0  0
 55 63  1  0  0  0  0
 56 63  1  0  0  0  0
 57 63  1  0  0  0  0
 58 74  1  0  0  0  0
 59 73  1  0  0  0  0
 60 81  1  0  0  0  0
 61 63  1  0  0  0  0
 61 72  1  0  0  0  0
 62 74  1  0  0  0  0
 64 66  1  0  0  0  0
M  CHG  1  74   1
M  ISO  4  37 100  60 101  73 100  81 101
M  END
> <Batch ID>
0178

> <Smiles>
CNC(C)C(=O)NC(C(=O)N1Cc2cc([101O:1][101CH2:1]C3(c4ccc(C[100NH:0][100C:0](=O)N5CCCC(n6nc(-c7ccc(Oc8ccc(F)cc8F)cc7)c(C(N)=O)c6N)C5)nc4C)CC3)ccc2CC1C(=O)NC1CCCc2ccccc21)C(C)(C)C

> <Shape>
0.221

> <Color>
0.077

> <Negative vol penalty>
0.000

$$$$

  -OEChem-04052322553D

 85 94  0     1  0  0  0  0  0999 V2000
  -29.0551  -31.0183   26.8641 C   0  0  0  0  0  0  0  0  0  0  0  0
  -28.8083  -29.9472   26.0113 C   0  0  0  0  0  0  0  0  0  0  0  0
  -23.9906   -9.8907   22.1855 C   0  0  0  0  0  0  0  0  0  0  0  0
  -24.4412   -9.1256   19.9386 C   0  0  0  0  0  0  0  0  0  0  0  0
  -28.0085  -31.8528   27.2540 C   0  0  0  0  0  0  0  0  0  0  0  0
  -27.5145  -29.7093   25.5488 C   0  0  0  0  0  0  0  0  0  0  0  0
  -27.3807  -28.6875   20.5907 C   0  0  0  0  0  0  0  0  0  0  0  0
  -22.9837   -8.9334   22.3095 C   0  0  0  0  0  0  0  0  0  0  0  0
  -23.4343   -8.1683   20.0626 C   0  0  0  0  0  0  0  0  0  0  0  0
  -27.7505  -27.4028   20.1952 C   0  0  0  0  0  0  0  0  0  0  0  0
  -20.5376   -6.4527   23.3477 C   0  0  0  0  0  0  0  0  0  0  0  0
  -20.4876   -5.7134   24.5295 C   0  0  0  0  0  0  0  0  0  0  0  0
  -25.4230  -26.7975   20.0064 C   0  0  0  0  0  0  0  0  0  0  0  0
  -28.5285  -22.4446   19.7990 C   0  0  0  0  0  0  0  0  0  0  0  0
  -22.7120   -4.8745   24.0989 C   0  0  0  0  0  0  0  0  0  0  0  0
  -29.1466  -23.2748   17.6577 C   0  0  0  0  0  0  0  0  0  0  0  0
  -24.7193   -9.9868   21.0000 C   0  0  0  0  0  0  0  0  0  0  0  0
  -27.1208  -10.8250   21.1954 C   0  0  0  0  0  0  0  0  0  0  0  0
  -26.7029  -31.6308   26.7884 C   0  0  0  0  0  0  0  0  0  0  0  0
  -26.0270  -29.0343   20.7078 C   0  0  0  0  0  0  0  0  0  0  0  0
  -26.4492  -30.5409   25.9340 C   0  0  0  0  0  0  0  0  0  0  0  0
  -25.0387  -28.0881   20.4011 C   0  0  0  0  0  0  0  0  0  0  0  0
  -28.7367  -23.5307   18.9562 C   0  0  0  0  0  0  0  0  0  0  0  0
  -22.7056   -8.0722   21.2481 C   0  0  0  0  0  0  0  0  0  0  0  0
  -26.7716  -26.4567   19.9057 C   0  0  0  0  0  0  0  0  0  0  0  0
  -21.6748   -6.4028   22.5414 C   0  0  0  0  0  0  0  0  0  0  0  0
  -28.7337  -21.1539   19.3242 C   0  0  0  0  0  0  0  0  0  0  0  0
  -21.5748   -4.9244   24.9051 C   0  0  0  0  0  0  0  0  0  0  0  0
  -22.7620   -5.6137   22.9171 C   0  0  0  0  0  0  0  0  0  0  0  0
  -25.7592  -10.9759   20.8711 C   0  0  0  0  0  0  0  0  0  0  0  0
  -29.1436  -21.0044   18.0091 C   0  0  0  0  0  0  0  0  0  0  0  0
  -27.6825  -12.0414   20.8930 C   0  0  0  0  0  0  0  0  0  0  0  0
  -27.8156   -9.6871   21.7227 C   0  0  0  0  0  0  0  0  0  0  0  0
  -24.1532  -29.9852   23.0928 C   0  0  0  0  0  0  0  0  0  0  0  0
  -21.9767  -30.3581   20.7167 C   0  0  0  0  0  0  0  0  0  0  0  0
  -20.9222  -29.4854   17.5905 C   0  0  0  0  0  0  0  0  0  0  0  0
  -28.1428  -16.1396   17.1124 C   0  0  0  0  0  0  0  0  0  0  0  0
  -25.5956  -32.5318   27.2752 C   0  0  0  0  0  0  0  0  0  0  0  0
  -25.6445  -30.4323   21.1099 C   0  0  0  0  0  0  0  0  0  0  0  0
  -23.5715  -28.4161   20.4917 C   0  0  0  0  0  0  0  0  0  0  0  0
  -24.3203  -32.4342   26.4419 C   0  0  0  0  0  0  0  0  0  0  0  0
  -25.5381  -16.4705   19.7364 C   0  0  0  0  0  0  0  0  0  0  0  0
  -23.9603  -30.9742   26.1858 C   0  0  0  0  0  0  0  0  0  0  0  0
  -25.4554  -15.0352   20.2578 C   0  0  0  0  0  0  0  0  0  0  0  0
  -29.1107  -19.5022   15.9154 C   0  0  0  0  0  0  0  0  0  0  0  0
  -25.9169  -16.4941   18.2612 C   0  0  0  0  0  0  0  0  0  0  0  0
  -28.8652  -18.0192   15.6751 C   0  0  0  0  0  0  0  0  0  0  0  0
  -27.1115  -14.3465   18.4583 C   0  0  0  0  0  0  0  0  0  0  0  0
  -28.3905  -18.5444   17.9660 C   0  0  0  0  0  0  0  0  0  0  0  0
  -25.0637  -30.2650   25.3914 C   0  0  1  0  0  0  0  0  0  0  0  0
  -24.2374  -30.5227   21.6922 C   0  0  1  0  0  0  0  0  0  0  0  0
  -26.7470  -14.2558   19.9507 C   0  0  2  0  0  0  0  0  0  0  0  0
  -29.3809  -19.6094   17.4366 C   0  0  2  0  0  0  0  0  0  0  0  0
  -30.8319  -19.1974   17.7617 C   0  0  0  0  0  0  0  0  0  0  0  0
  -19.0900  -29.9292   15.9342 C   0  0  0  0  0  0  0  0  0  0  0  0
  -20.0811  -28.6111   22.3490 C   0  0  0  0  0  0  0  0  0  0  0  0
  -18.6943  -28.3098   20.2865 C   0  0  0  0  0  0  0  0  0  0  0  0
  -19.0014  -30.5862   21.2592 C   0  0  0  0  0  0  0  0  0  0  0  0
  -22.8306  -30.5302   15.5842 C   0  0  0  0  0  0  0  0  0  0  0  0
  -28.1128  -20.3556   21.4766 C   0  0  0  0  0  0  0  0  0  0  0  0
  -28.5275  -24.9238   19.4332 C   0  0  0  0  0  0  0  0  0  1  0  0
  -20.9366  -29.4745   20.0712 C   0  0  1  0  0  0  0  0  0  0  0  0
  -20.4806  -30.3251   16.4054 C   0  0  2  0  0  0  0  0  0  0  0  0
  -19.7059  -29.2383   20.9916 C   0  0  0  0  0  0  0  0  0  0  0  0
  -29.3562  -22.0352   17.1606 N   0  0  0  0  0  0  0  0  0  0  0  0
  -25.4732  -12.1922   20.3991 N   0  0  0  0  0  0  0  0  0  0  0  0
  -26.6629  -12.8167   20.4246 N   0  0  0  0  0  0  0  0  0  0  0  0
  -23.2480  -29.7945   20.8953 N   0  0  0  0  0  0  0  0  0  0  0  0
  -27.1516  -15.7424   18.0174 N   0  0  0  0  0  0  0  0  0  0  0  0
  -28.3432  -17.5074   16.9334 N   0  0  0  0  0  0  0  0  0  0  0  0
  -28.9442  -12.5127   20.9848 N   0  0  0  0  0  0  0  0  0  0  0  0
  -27.0865   -8.5172   21.9756 N   0  0  0  0  0  0  0  0  0  0  0  0
  -24.9877  -30.6226   23.9911 N   0  0  0  0  0  0  0  0  0  0  0  0
  -20.6145  -30.0926   18.7896 N   0  0  0  0  0  0  0  0  0  0  0  0
  -21.4285  -30.1547   15.2680 N   0  3  0  0  0  0  0  0  0  0  0  0
  -29.0435   -9.7125   21.9779 O   0  0  0  0  0  0  0  0  0  0  0  0
  -23.3868  -29.0617   23.3405 O   0  0  0  0  0  0  0  0  0  0  0  0
  -21.6743  -31.5084   21.0437 O   0  0  0  0  0  0  0  0  0  0  0  0
  -21.4805  -28.3977   17.4651 O   0  0  0  0  0  0  0  0  0  0  0  0
  -28.8507  -15.3091   16.5273 O   0  0  0  0  0  0  0  0  0  0  0  0
  -21.7233   -7.1378   21.3689 O   0  0  0  0  0  0  0  0  0  0  0  0
  -28.5353  -20.0864   20.1389 O   0  0  0  0  0  0  0  0  0  0  0  0
  -27.1321  -25.1937   19.5176 O   0  0  0  0  0  0  0  0  0  1  0  0
  -21.5272   -4.2158   26.0408 F   0  0  0  0  0  0  0  0  0  0  0  0
  -23.8577   -5.5627   22.1472 F   0  0  0  0  0  0  0  0  0  0  0  0
  1  2  1  0  0  0  0
  1  5  2  0  0  0  0
  2  6  2  0  0  0  0
  3  8  2  0  0  0  0
  3 17  1  0  0  0  0
  4  9  1  0  0  0  0
  4 17  2  0  0  0  0
  5 19  1  0  0  0  0
  6 21  1  0  0  0  0
  7 10  2  0  0  0  0
  7 20  1  0  0  0  0
  8 24  1  0  0  0  0
  9 24  2  0  0  0  0
 10 25  1  0  0  0  0
 11 12  2  0  0  0  0
 11 26  1  0  0  0  0
 12 28  1  0  0  0  0
 13 22  1  0  0  0  0
 13 25  2  0  0  0  0
 14 23  2  0  0  0  0
 14 27  1  0  0  0  0
 15 28  2  0  0  0  0
 15 29  1  0  0  0  0
 16 23  1  0  0  0  0
 16 65  2  0  0  0  0
 17 30  1  0  0  0  0
 18 30  1  0  0  0  0
 18 32  2  0  0  0  0
 18 33  1  0  0  0  0
 19 21  2  0  0  0  0
 19 38  1  0  0  0  0
 20 22  2  0  0  0  0
 20 39  1  0  0  0  0
 21 50  1  0  0  0  0
 22 40  1  0  0  0  0
 23 61  1  0  0  0  0
 24 81  1  0  0  0  0
 25 83  1  0  0  0  0
 26 29  2  0  0  0  0
 26 81  1  0  0  0  0
 27 31  2  0  0  0  0
 27 82  1  0  0  0  0
 28 84  1  0  0  0  0
 29 85  1  0  0  0  0
 30 66  2  0  0  0  0
 31 53  1  0  0  0  0
 31 65  1  0  0  0  0
 32 67  1  0  0  0  0
 32 71  1  0  0  0  0
 33 72  1  0  0  0  0
 33 76  2  0  0  0  0
 34 51  1  0  0  0  0
 34 73  1  0  0  0  0
 34 77  2  0  0  0  0
 35 62  1  0  0  0  0
 35 68  1  0  0  0  0
 35 78  2  0  0  0  0
 36 63  1  0  0  0  0
 36 74  1  0  0  0  0
 36 79  2  0  0  0  0
 37 69  1  0  0  0  0
 37 70  1  0  0  0  0
 37 80  2  0  0  0  0
 38 41  1  0  0  0  0
 39 51  1  0  0  0  0
 40 68  1  0  0  0  0
 41 43  1  0  0  0  0
 42 44  1  0  0  0  0
 42 46  1  0  0  0  0
 43 50  1  0  0  0  0
 44 52  1  0  0  0  0
 45 47  1  0  0  0  0
 45 53  1  0  0  0  0
 46 69  1  0  0  0  0
 47 70  1  0  0  0  0
 48 52  1  0  0  0  0
 48 69  1  0  0  0  0
 49 53  1  0  0  0  0
 49 70  1  0  0  0  0
 50 73  1  0  0  0  0
 51 68  1  0  0  0  0
 52 67  1  0  0  0  0
 53 54  1  0  0  0  0
 55 63  1  0  0  0  0
 56 64  1  0  0  0  0
 57 64  1  0  0  0  0
 58 64  1  0  0  0  0
 59 75  1  0  0  0  0
 60 82  1  0  0  0  0
 61 83  1  0  0  0  0
 62 64  1  0  0  0  0
 62 74  1  0  0  0  0
 63 75  1  0  0  0  0
 66 67  1  0  0  0  0
M  CHG  1  75   1
M  ISO  4  37 100  61 101  70 100  83 101
M  END
> <Batch ID>
0178

> <Smiles>
CNC(C)C(=O)NC(C(=O)N1Cc2cc([101O:1][101CH2:1]c3cnc(C4(C)CC[100N:0]([100C:0](=O)N5CCCC(n6nc(-c7ccc(Oc8ccc(F)cc8F)cc7)c(C(N)=O)c6N)C5)C4)c(OC)c3)ccc2CC1C(=O)NC1CCCc2ccccc21)C(C)(C)C

> <Shape>
0.296

> <Color>
0.116

> <Negative vol penalty>
0.000

$$$$

  -OEChem-04052322553D

 81 90  0     1  0  0  0  0  0999 V2000
  -31.6996  -30.0515   30.0893 C   0  0  0  0  0  0  0  0  0  0  0  0
  -31.7520  -28.7643   29.5642 C   0  0  0  0  0  0  0  0  0  0  0  0
  -23.0757   -9.8635   19.9371 C   0  0  0  0  0  0  0  0  0  0  0  0
  -23.8353   -9.8682   22.2306 C   0  0  0  0  0  0  0  0  0  0  0  0
  -31.0023  -31.0514   29.4126 C   0  0  0  0  0  0  0  0  0  0  0  0
  -31.1061  -28.4760   28.3625 C   0  0  0  0  0  0  0  0  0  0  0  0
  -32.9540  -24.5517   24.0392 C   0  0  0  0  0  0  0  0  0  0  0  0
  -22.3331   -8.7092   20.1855 C   0  0  0  0  0  0  0  0  0  0  0  0
  -23.0927   -8.7139   22.4790 C   0  0  0  0  0  0  0  0  0  0  0  0
  -32.5943  -23.2359   23.7511 C   0  0  0  0  0  0  0  0  0  0  0  0
  -19.8653   -7.9117   23.0801 C   0  0  0  0  0  0  0  0  0  0  0  0
  -19.1083   -7.8693   24.2508 C   0  0  0  0  0  0  0  0  0  0  0  0
  -31.0254  -24.0325   22.1008 C   0  0  0  0  0  0  0  0  0  0  0  0
  -20.3518   -5.9323   24.9848 C   0  0  0  0  0  0  0  0  0  0  0  0
  -32.2127  -18.5360   21.9482 C   0  0  0  0  0  0  0  0  0  0  0  0
  -23.8269  -10.4430   20.9597 C   0  0  0  0  0  0  0  0  0  0  0  0
  -24.1659  -12.9687   20.8431 C   0  0  0  0  0  0  0  0  0  0  0  0
  -30.3557  -30.7775   28.1971 C   0  0  0  0  0  0  0  0  0  0  0  0
  -32.3433  -25.6200   23.3668 C   0  0  0  0  0  0  0  0  0  0  0  0
  -30.3984  -29.4728   27.6695 C   0  0  0  0  0  0  0  0  0  0  0  0
  -31.3810  -25.3608   22.3804 C   0  0  0  0  0  0  0  0  0  0  0  0
  -22.3415   -8.1344   21.4564 C   0  0  0  0  0  0  0  0  0  0  0  0
  -31.6278  -22.9762   22.7838 C   0  0  0  0  0  0  0  0  0  0  0  0
  -20.8656   -6.9643   22.8616 C   0  0  0  0  0  0  0  0  0  0  0  0
  -19.3515   -6.8796   25.2032 C   0  0  0  0  0  0  0  0  0  0  0  0
  -21.1088   -5.9746   23.8140 C   0  0  0  0  0  0  0  0  0  0  0  0
  -24.5946  -11.6351   20.7037 C   0  0  0  0  0  0  0  0  0  0  0  0
  -29.7851  -17.7423   22.7255 C   0  0  0  0  0  0  0  0  0  0  0  0
  -31.4325  -19.3281   22.7614 C   0  0  0  0  0  0  0  0  0  0  0  0
  -30.5651  -16.9506   21.9117 C   0  0  0  0  0  0  0  0  0  0  0  0
  -25.2572  -13.7199   20.4810 C   0  0  0  0  0  0  0  0  0  0  0  0
  -22.8948  -13.4825   21.2626 C   0  0  0  0  0  0  0  0  0  0  0  0
  -30.5470  -28.0907   24.2460 C   0  0  0  0  0  0  0  0  0  0  0  0
  -30.8819  -28.9421   21.1338 C   0  0  0  0  0  0  0  0  0  0  0  0
  -31.4998  -27.9817   17.9178 C   0  0  0  0  0  0  0  0  0  0  0  0
  -30.7222  -14.7713   20.6577 C   0  0  0  0  0  0  0  0  0  0  0  0
  -29.5746  -31.8794   27.5259 C   0  0  0  0  0  0  0  0  0  0  0  0
  -32.7617  -27.0326   23.6702 C   0  0  0  0  0  0  0  0  0  0  0  0
  -30.7101  -26.4715   21.6158 C   0  0  0  0  0  0  0  0  0  0  0  0
  -29.2320  -31.5824   26.0683 C   0  0  0  0  0  0  0  0  0  0  0  0
  -29.6108  -12.3594   18.2861 C   0  0  0  0  0  0  0  0  0  0  0  0
  -28.6874  -30.1647   25.9261 C   0  0  0  0  0  0  0  0  0  0  0  0
  -27.8571  -17.8545   24.4414 C   0  0  0  0  0  0  0  0  0  0  0  0
  -28.2987  -16.4257   24.3794 C   0  0  0  0  0  0  0  0  0  0  0  0
  -28.1714  -12.0657   18.7151 C   0  0  0  0  0  0  0  0  0  0  0  0
  -30.5255  -12.5877   19.4881 C   0  0  0  0  0  0  0  0  0  0  0  0
  -28.6176  -13.3081   20.8701 C   0  0  0  0  0  0  0  0  0  0  0  0
  -29.7314  -29.1269   26.3559 C   0  0  1  0  0  0  0  0  0  0  0  0
  -28.4267  -17.3021   23.1623 C   0  0  0  0  0  0  0  0  0  0  0  0
  -31.7045  -28.0640   23.2883 C   0  0  1  0  0  0  0  0  0  0  0  0
  -27.6451  -13.1354   19.6920 C   0  0  2  0  0  0  0  0  0  0  0  0
  -31.6696  -28.8960   15.5870 C   0  0  0  0  0  0  0  0  0  0  0  0
  -27.8397  -29.1238   20.9861 C   0  0  0  0  0  0  0  0  0  0  0  0
  -28.0287  -29.0942   18.4898 C   0  0  0  0  0  0  0  0  0  0  0  0
  -29.0533  -30.9572   19.7945 C   0  0  0  0  0  0  0  0  0  0  0  0
  -34.3274  -27.1435   17.6705 C   0  0  0  0  0  0  0  0  0  0  0  0
  -31.9340  -20.6611   23.2337 C   0  0  0  0  0  0  0  0  0  1  0  0
  -30.1180  -28.6650   19.8615 C   0  0  1  0  0  0  0  0  0  0  0  0
  -32.4281  -28.5476   16.8583 C   0  0  2  0  0  0  0  0  0  0  0  0
  -28.7710  -29.4390   19.7986 C   0  0  0  0  0  0  0  0  0  0  0  0
  -31.7930  -17.3330   21.5088 N   0  0  0  0  0  0  0  0  0  0  0  0
  -25.8596  -11.5412   20.2854 N   0  0  0  0  0  0  0  0  0  0  0  0
  -30.2047  -18.9455   23.1647 N   0  0  0  0  0  0  0  0  0  0  0  0
  -26.2351  -12.8254   20.1588 N   0  0  0  0  0  0  0  0  0  0  0  0
  -31.1487  -27.8359   21.9529 N   0  0  0  0  0  0  0  0  0  0  0  0
  -29.9653  -13.6167   20.3668 N   0  0  0  0  0  0  0  0  0  0  0  0
  -25.4662  -15.0517   20.4098 N   0  0  0  0  0  0  0  0  0  0  0  0
  -21.8838  -12.5718   21.5985 N   0  0  0  0  0  0  0  0  0  0  0  0
  -30.0737  -15.6946   21.4773 N   0  0  0  0  0  0  0  0  0  0  0  0
  -30.7223  -28.9465   25.3167 N   0  0  0  0  0  0  0  0  0  0  0  0
  -31.0311  -28.9645   18.7638 N   0  0  0  0  0  0  0  0  0  0  0  0
  -33.4885  -27.5579   16.5166 N   0  3  0  0  0  0  0  0  0  0  0  0
  -22.6571  -14.7128   21.3215 O   0  0  0  0  0  0  0  0  0  0  0  0
  -29.5668  -27.3881   24.0287 O   0  0  0  0  0  0  0  0  0  0  0  0
  -31.2352  -30.0963   21.3879 O   0  0  0  0  0  0  0  0  0  0  0  0
  -31.2158  -26.7879   17.9858 O   0  0  0  0  0  0  0  0  0  0  0  0
  -31.8512  -14.9419   20.1905 O   0  0  0  0  0  0  0  0  0  0  0  0
  -21.6168   -7.0081   21.6991 O   0  0  0  0  0  0  0  0  0  0  0  0
  -31.2743  -21.6928   22.5012 O   0  0  0  0  0  0  0  0  0  1  0  0
  -18.6255   -6.8400   26.3281 F   0  0  0  0  0  0  0  0  0  0  0  0
  -22.0692   -5.0625   23.6102 F   0  0  0  0  0  0  0  0  0  0  0  0
  1  2  1  0  0  0  0
  1  5  2  0  0  0  0
  2  6  2  0  0  0  0
  3  8  2  0  0  0  0
  3 16  1  0  0  0  0
  4  9  1  0  0  0  0
  4 16  2  0  0  0  0
  5 18  1  0  0  0  0
  6 20  1  0  0  0  0
  7 10  2  0  0  0  0
  7 19  1  0  0  0  0
  8 22  1  0  0  0  0
  9 22  2  0  0  0  0
 10 23  1  0  0  0  0
 11 12  2  0  0  0  0
 11 24  1  0  0  0  0
 12 25  1  0  0  0  0
 13 21  1  0  0  0  0
 13 23  2  0  0  0  0
 14 25  2  0  0  0  0
 14 26  1  0  0  0  0
 15 29  1  0  0  0  0
 15 61  2  0  0  0  0
 16 27  1  0  0  0  0
 17 27  1  0  0  0  0
 17 31  2  0  0  0  0
 17 32  1  0  0  0  0
 18 20  2  0  0  0  0
 18 37  1  0  0  0  0
 19 21  2  0  0  0  0
 19 38  1  0  0  0  0
 20 48  1  0  0  0  0
 21 39  1  0  0  0  0
 22 78  1  0  0  0  0
 23 79  1  0  0  0  0
 24 26  2  0  0  0  0
 24 78  1  0  0  0  0
 25 80  1  0  0  0  0
 26 81  1  0  0  0  0
 27 62  2  0  0  0  0
 28 30  2  0  0  0  0
 28 49  1  0  0  0  0
 28 63  1  0  0  0  0
 29 57  1  0  0  0  0
 29 63  2  0  0  0  0
 30 61  1  0  0  0  0
 30 69  1  0  0  0  0
 31 64  1  0  0  0  0
 31 67  1  0  0  0  0
 32 68  1  0  0  0  0
 32 73  2  0  0  0  0
 33 50  1  0  0  0  0
 33 70  1  0  0  0  0
 33 74  2  0  0  0  0
 34 58  1  0  0  0  0
 34 65  1  0  0  0  0
 34 75  2  0  0  0  0
 35 59  1  0  0  0  0
 35 71  1  0  0  0  0
 35 76  2  0  0  0  0
 36 66  1  0  0  0  0
 36 69  1  0  0  0  0
 36 77  2  0  0  0  0
 37 40  1  0  0  0  0
 38 50  1  0  0  0  0
 39 65  1  0  0  0  0
 40 42  1  0  0  0  0
 41 45  1  0  0  0  0
 41 46  1  0  0  0  0
 42 48  1  0  0  0  0
 43 44  1  0  0  0  0
 43 49  1  0  0  0  0
 44 49  1  0  0  0  0
 45 51  1  0  0  0  0
 46 66  1  0  0  0  0
 47 51  1  0  0  0  0
 47 66  1  0  0  0  0
 48 70  1  0  0  0  0
 50 65  1  0  0  0  0
 51 64  1  0  0  0  0
 52 59  1  0  0  0  0
 53 60  1  0  0  0  0
 54 60  1  0  0  0  0
 55 60  1  0  0  0  0
 56 72  1  0  0  0  0
 57 79  1  0  0  0  0
 58 60  1  0  0  0  0
 58 71  1  0  0  0  0
 59 72  1  0  0  0  0
 62 64  1  0  0  0  0
M  CHG  1  72   1
M  ISO  4  36 100  57 101  69 100  79 101
M  END
> <Batch ID>
0178

> <Smiles>
CNC(C)C(=O)NC(C(=O)N1Cc2cc([101O:1][101CH2:1]c3cnc([100NH:0][100C:0](=O)N4CCCC(n5nc(-c6ccc(Oc7ccc(F)cc7F)cc6)c(C(N)=O)c5N)C4)c(C4CC4)n3)ccc2CC1C(=O)NC1CCCc2ccccc21)C(C)(C)C

> <Shape>
0.209

> <Color>
0.192

> <Negative vol penalty>
0.000

$$$$

  -OEChem-04052322553D

 84 93  0     1  0  0  0  0  0999 V2000
  -17.9165  -30.0366   19.0148 C   0  0  0  0  0  0  0  0  0  0  0  0
  -19.2678  -29.8549   18.7380 C   0  0  0  0  0  0  0  0  0  0  0  0
  -24.3417  -13.8386   20.6291 C   0  0  0  0  0  0  0  0  0  0  0  0
  -26.7273  -13.4727   20.7384 C   0  0  0  0  0  0  0  0  0  0  0  0
  -17.4971  -30.2460   20.3278 C   0  0  0  0  0  0  0  0  0  0  0  0
  -20.2005  -29.8836   19.7741 C   0  0  0  0  0  0  0  0  0  0  0  0
  -25.3324  -26.5688   20.2007 C   0  0  0  0  0  0  0  0  0  0  0  0
  -24.1476  -12.4875   20.3418 C   0  0  0  0  0  0  0  0  0  0  0  0
  -26.5332  -12.1216   20.4512 C   0  0  0  0  0  0  0  0  0  0  0  0
  -26.6654  -26.8630   19.9172 C   0  0  0  0  0  0  0  0  0  0  0  0
  -22.9966   -9.0632   19.9360 C   0  0  0  0  0  0  0  0  0  0  0  0
  -21.9776   -8.3956   20.6153 C   0  0  0  0  0  0  0  0  0  0  0  0
  -27.0348  -27.3994   22.2399 C   0  0  0  0  0  0  0  0  0  0  0  0
  -30.3726  -22.3637   22.7048 C   0  0  0  0  0  0  0  0  0  0  0  0
  -23.0528   -8.8965   22.7202 C   0  0  0  0  0  0  0  0  0  0  0  0
  -31.8643  -26.5375   22.2556 C   0  0  0  0  0  0  0  0  0  0  0  0
  -25.6315  -14.3312   20.8273 C   0  0  0  0  0  0  0  0  0  0  0  0
  -25.8671  -16.3296   22.3953 C   0  0  0  0  0  0  0  0  0  0  0  0
  -18.4241  -30.2677   21.3817 C   0  0  0  0  0  0  0  0  0  0  0  0
  -24.8371  -26.6984   21.5062 C   0  0  0  0  0  0  0  0  0  0  0  0
  -19.7933  -30.0949   21.1024 C   0  0  0  0  0  0  0  0  0  0  0  0
  -25.6959  -27.1037   22.5379 C   0  0  0  0  0  0  0  0  0  0  0  0
  -31.0664  -23.3244   23.4409 C   0  0  0  0  0  0  0  0  0  0  0  0
  -31.3040  -24.5581   22.8215 C   0  0  0  0  0  0  0  0  0  0  0  0
  -25.2433  -11.6290   20.2529 C   0  0  0  0  0  0  0  0  0  0  0  0
  -27.5161  -27.2811   20.9362 C   0  0  0  0  0  0  0  0  0  0  0  0
  -24.0438   -9.6474   20.6487 C   0  0  0  0  0  0  0  0  0  0  0  0
  -22.0057   -8.3123   22.0074 C   0  0  0  0  0  0  0  0  0  0  0  0
  -24.0718   -9.5641   22.0408 C   0  0  0  0  0  0  0  0  0  0  0  0
  -25.8327  -15.7269   21.1236 C   0  0  0  0  0  0  0  0  0  0  0  0
  -30.8342  -24.7332   21.5272 C   0  0  0  0  0  0  0  0  0  0  0  0
  -29.9580  -22.6737   21.4133 C   0  0  0  0  0  0  0  0  0  0  0  0
  -26.0839  -17.6613   22.1383 C   0  0  0  0  0  0  0  0  0  0  0  0
  -25.7165  -15.7386   23.6929 C   0  0  0  0  0  0  0  0  0  0  0  0
  -22.5944  -28.4771   22.8883 C   0  0  0  0  0  0  0  0  0  0  0  0
  -23.2902  -26.6497   25.4764 C   0  0  0  0  0  0  0  0  0  0  0  0
  -25.5487  -24.6805   27.1100 C   0  0  0  0  0  0  0  0  0  0  0  0
  -28.7443  -21.7271   19.4190 C   0  0  0  0  0  0  0  0  0  0  0  0
  -17.9284  -30.5446   22.7790 C   0  0  0  0  0  0  0  0  0  0  0  0
  -23.4034  -26.3515   21.8006 C   0  0  0  0  0  0  0  0  0  0  0  0
  -25.2184  -27.2392   23.9599 C   0  0  0  0  0  0  0  0  0  0  0  0
  -18.9391  -30.1875   23.8658 C   0  0  0  0  0  0  0  0  0  0  0  0
  -25.9525  -20.2400   17.7846 C   0  0  0  0  0  0  0  0  0  0  0  0
  -20.3218  -30.7214   23.5052 C   0  0  0  0  0  0  0  0  0  0  0  0
  -25.6752  -18.9829   18.6122 C   0  0  0  0  0  0  0  0  0  0  0  0
  -27.4488  -20.5259   17.6714 C   0  0  0  0  0  0  0  0  0  0  0  0
  -27.8910  -19.3274   19.7779 C   0  0  0  0  0  0  0  0  0  0  0  0
  -20.8326  -30.0947   22.2023 C   0  0  1  0  0  0  0  0  0  0  0  0
  -22.8773  -27.0128   23.0708 C   0  0  1  0  0  0  0  0  0  0  0  0
  -26.3945  -19.0350   19.9744 C   0  0  2  0  0  0  0  0  0  0  0  0
  -31.5184  -23.0092   24.8271 C   0  0  0  0  0  0  0  0  0  0  0  0
  -25.8452  -23.3593   29.2228 C   0  0  0  0  0  0  0  0  0  0  0  0
  -31.6203  -25.9769   18.7023 C   0  0  0  0  0  0  0  0  0  0  0  0
  -23.7232  -29.2388   27.0318 C   0  0  0  0  0  0  0  0  0  0  0  0
  -24.9089  -27.9042   28.7872 C   0  0  0  0  0  0  0  0  0  0  0  0
  -22.5054  -27.4554   28.2931 C   0  0  0  0  0  0  0  0  0  0  0  0
  -25.9067  -22.1513   25.6155 C   0  0  0  0  0  0  0  0  0  0  0  0
  -29.4285  -26.8560   19.5879 C   0  0  0  0  0  0  0  0  0  1  0  0
  -24.2671  -26.7481   26.6232 C   0  0  1  0  0  0  0  0  0  0  0  0
  -25.4087  -23.3190   27.7666 C   0  0  2  0  0  0  0  0  0  0  0  0
  -30.9311  -26.7034   19.8607 C   0  0  1  0  0  0  0  0  0  0  0  0
  -23.8600  -27.8360   27.6568 C   0  0  0  0  0  0  0  0  0  0  0  0
  -31.9436  -25.6916   23.2610 N   0  0  0  0  0  0  0  0  0  0  0  0
  -26.0131  -16.6037   20.1323 N   0  0  0  0  0  0  0  0  0  0  0  0
  -30.1627  -23.8493   20.7707 N   0  0  0  0  0  0  0  0  0  0  0  0
  -31.2016  -26.0033   21.1832 N   0  0  0  0  0  0  0  0  0  0  0  0
  -26.1629  -17.7711   20.7812 N   0  0  0  0  0  0  0  0  0  0  0  0
  -23.8067  -26.8945   24.1962 N   0  0  0  0  0  0  0  0  0  0  0  0
  -28.0623  -20.5649   19.0007 N   0  0  0  0  0  0  0  0  0  0  0  0
  -26.2128  -18.7375   22.9432 N   0  0  0  0  0  0  0  0  0  0  0  0
  -25.4999  -14.3564   23.7764 N   0  0  0  0  0  0  0  0  0  0  0  0
  -29.2579  -21.6597   20.7137 N   0  0  0  0  0  0  0  0  0  0  0  0
  -21.3155  -28.7518   22.4427 N   0  0  0  0  0  0  0  0  0  0  0  0
  -24.3776  -25.4049   27.1817 N   0  0  0  0  0  0  0  0  0  0  0  0
  -26.2440  -22.3117   27.0533 N   0  3  0  0  0  0  0  0  0  0  0  0
  -25.7559  -16.4186   24.7462 O   0  0  0  0  0  0  0  0  0  0  0  0
  -23.4709  -29.2972   23.1349 O   0  0  0  0  0  0  0  0  0  0  0  0
  -22.1138  -26.3591   25.7074 O   0  0  0  0  0  0  0  0  0  0  0  0
  -26.5935  -25.0647   26.5892 O   0  0  0  0  0  0  0  0  0  0  0  0
  -28.8405  -22.7198   18.6929 O   0  0  0  0  0  0  0  0  0  0  0  0
  -25.0543  -10.3105   19.9728 O   0  0  0  0  0  0  0  0  0  0  0  0
  -28.8174  -27.5696   20.6621 O   0  0  0  0  0  0  0  0  0  1  0  0
  -21.0263   -7.6725   22.6598 F   0  0  0  0  0  0  0  0  0  0  0  0
  -25.0746  -10.1243   22.7310 F   0  0  0  0  0  0  0  0  0  0  0  0
  1  2  1  0  0  0  0
  1  5  2  0  0  0  0
  2  6  2  0  0  0  0
  3  8  2  0  0  0  0
  3 17  1  0  0  0  0
  4  9  1  0  0  0  0
  4 17  2  0  0  0  0
  5 19  1  0  0  0  0
  6 21  1  0  0  0  0
  7 10  2  0  0  0  0
  7 20  1  0  0  0  0
  8 25  1  0  0  0  0
  9 25  2  0  0  0  0
 10 26  1  0  0  0  0
 11 12  2  0  0  0  0
 11 27  1  0  0  0  0
 12 28  1  0  0  0  0
 13 22  1  0  0  0  0
 13 26  2  0  0  0  0
 14 23  2  0  0  0  0
 14 32  1  0  0  0  0
 15 28  2  0  0  0  0
 15 29  1  0  0  0  0
 16 63  2  0  0  0  0
 16 66  1  0  0  0  0
 17 30  1  0  0  0  0
 18 30  1  0  0  0  0
 18 33  2  0  0  0  0
 18 34  1  0  0  0  0
 19 21  2  0  0  0  0
 19 39  1  0  0  0  0
 20 22  2  0  0  0  0
 20 40  1  0  0  0  0
 21 48  1  0  0  0  0
 22 41  1  0  0  0  0
 23 24  1  0  0  0  0
 23 51  1  0  0  0  0
 24 31  2  0  0  0  0
 24 63  1  0  0  0  0
 25 81  1  0  0  0  0
 26 82  1  0  0  0  0
 27 29  2  0  0  0  0
 27 81  1  0  0  0  0
 28 83  1  0  0  0  0
 29 84  1  0  0  0  0
 30 64  2  0  0  0  0
 31 65  1  0  0  0  0
 31 66  1  0  0  0  0
 32 65  2  0  0  0  0
 32 72  1  0  0  0  0
 33 67  1  0  0  0  0
 33 70  1  0  0  0  0
 34 71  1  0  0  0  0
 34 76  2  0  0  0  0
 35 49  1  0  0  0  0
 35 73  1  0  0  0  0
 35 77  2  0  0  0  0
 36 59  1  0  0  0  0
 36 68  1  0  0  0  0
 36 78  2  0  0  0  0
 37 60  1  0  0  0  0
 37 74  1  0  0  0  0
 37 79  2  0  0  0  0
 38 69  1  0  0  0  0
 38 72  1  0  0  0  0
 38 80  2  0  0  0  0
 39 42  1  0  0  0  0
 40 49  1  0  0  0  0
 41 68  1  0  0  0  0
 42 44  1  0  0  0  0
 43 45  1  0  0  0  0
 43 46  1  0  0  0  0
 44 48  1  0  0  0  0
 45 50  1  0  0  0  0
 46 69  1  0  0  0  0
 47 50  1  0  0  0  0
 47 69  1  0  0  0  0
 48 73  1  0  0  0  0
 49 68  1  0  0  0  0
 50 67  1  0  0  0  0
 52 60  1  0  0  0  0
 53 61  1  0  0  0  0
 54 62  1  0  0  0  0
 55 62  1  0  0  0  0
 56 62  1  0  0  0  0
 57 75  1  0  0  0  0
 58 61  1  0  0  0  0
 58 82  1  0  0  0  0
 59 62  1  0  0  0  0
 59 74  1  0  0  0  0
 60 75  1  0  0  0  0
 61 66  1  0  0  0  0
 64 67  1  0  0  0  0
M  CHG  1  75   1
M  ISO  4  38 100  58 101  72 100  82 101
M  END
> <Batch ID>
0178

> <Smiles>
CNC(C)C(=O)NC(C(=O)N1Cc2cc([101O:1][101CH2:1]C(C)n3cnc4c(C)cc([100NH:0][100C:0](=O)N5CCCC(n6nc(-c7ccc(Oc8ccc(F)cc8F)cc7)c(C(N)=O)c6N)C5)nc43)ccc2CC1C(=O)NC1CCCc2ccccc21)C(C)(C)C

> <Shape>
0.198

> <Color>
0.086

> <Negative vol penalty>
0.000

$$$$

  -OEChem-04052322553D

 82 91  0     1  0  0  0  0  0999 V2000
  -26.0446  -35.5504   21.5507 C   0  0  0  0  0  0  0  0  0  0  0  0
  -26.5785  -34.2658   21.5374 C   0  0  0  0  0  0  0  0  0  0  0  0
  -24.5601  -13.7772   19.5532 C   0  0  0  0  0  0  0  0  0  0  0  0
  -25.7309  -14.3612   21.5843 C   0  0  0  0  0  0  0  0  0  0  0  0
  -24.8114  -35.7853   22.1573 C   0  0  0  0  0  0  0  0  0  0  0  0
  -25.8798  -33.2155   22.1317 C   0  0  0  0  0  0  0  0  0  0  0  0
  -25.8159  -29.0497   19.2530 C   0  0  0  0  0  0  0  0  0  0  0  0
  -24.6856  -12.4246   19.8698 C   0  0  0  0  0  0  0  0  0  0  0  0
  -25.8564  -13.0086   21.9009 C   0  0  0  0  0  0  0  0  0  0  0  0
  -26.9691  -28.2663   19.2410 C   0  0  0  0  0  0  0  0  0  0  0  0
  -23.1760  -10.1942   21.9142 C   0  0  0  0  0  0  0  0  0  0  0  0
  -22.0507   -9.3849   21.7585 C   0  0  0  0  0  0  0  0  0  0  0  0
  -25.9469  -26.7481   20.8125 C   0  0  0  0  0  0  0  0  0  0  0  0
  -23.2525   -8.0199   20.1680 C   0  0  0  0  0  0  0  0  0  0  0  0
  -25.0828  -14.7455   20.4105 C   0  0  0  0  0  0  0  0  0  0  0  0
  -23.9014  -17.0063   20.4424 C   0  0  0  0  0  0  0  0  0  0  0  0
  -24.0929  -34.7356   22.7509 C   0  0  0  0  0  0  0  0  0  0  0  0
  -24.7218  -28.6935   20.0545 C   0  0  0  0  0  0  0  0  0  0  0  0
  -24.6365  -33.4369   22.7480 C   0  0  0  0  0  0  0  0  0  0  0  0
  -24.7800  -27.5273   20.8309 C   0  0  0  0  0  0  0  0  0  0  0  0
  -25.3337  -12.0402   21.0436 C   0  0  0  0  0  0  0  0  0  0  0  0
  -27.0359  -27.1169   20.0230 C   0  0  0  0  0  0  0  0  0  0  0  0
  -24.3396   -9.9164   21.1967 C   0  0  0  0  0  0  0  0  0  0  0  0
  -22.0890   -8.2977   20.8855 C   0  0  0  0  0  0  0  0  0  0  0  0
  -24.3778   -8.8292   20.3237 C   0  0  0  0  0  0  0  0  0  0  0  0
  -24.9539  -16.1429   20.0838 C   0  0  0  0  0  0  0  0  0  0  0  0
  -24.2488  -18.2171   19.8950 C   0  0  0  0  0  0  0  0  0  0  0  0
  -30.9123  -23.2218   19.5400 C   0  0  0  0  0  0  0  0  0  0  0  0
  -31.5010  -23.9896   21.5650 C   0  0  0  0  0  0  0  0  0  0  0  0
  -29.4875  -24.4979   20.7142 C   0  0  0  0  0  0  0  0  0  0  0  0
  -22.7157  -16.7377   21.2025 C   0  0  0  0  0  0  0  0  0  0  0  0
  -23.1885  -30.0474   22.4876 C   0  0  0  0  0  0  0  0  0  0  0  0
  -21.1766  -27.5307   22.1129 C   0  0  0  0  0  0  0  0  0  0  0  0
  -20.7041  -24.3403   20.9970 C   0  0  0  0  0  0  0  0  0  0  0  0
  -29.5339  -20.4909   18.4927 C   0  0  0  0  0  0  0  0  0  0  0  0
  -22.7858  -35.0470   23.4360 C   0  0  0  0  0  0  0  0  0  0  0  0
  -23.4750  -29.5347   20.0359 C   0  0  0  0  0  0  0  0  0  0  0  0
  -23.6251  -27.0902   21.6932 C   0  0  0  0  0  0  0  0  0  0  0  0
  -21.9345  -33.8109   23.7146 C   0  0  0  0  0  0  0  0  0  0  0  0
  -26.7021  -20.1105   16.2461 C   0  0  0  0  0  0  0  0  0  0  0  0
  -22.7866  -32.7022   24.3241 C   0  0  0  0  0  0  0  0  0  0  0  0
  -25.8286  -19.1244   17.0247 C   0  0  0  0  0  0  0  0  0  0  0  0
  -31.0507  -23.0755   16.8701 C   0  0  0  0  0  0  0  0  0  0  0  0
  -28.1805  -19.7879   16.4288 C   0  0  0  0  0  0  0  0  0  0  0  0
  -30.3714  -21.8010   16.3723 C   0  0  0  0  0  0  0  0  0  0  0  0
  -27.7740  -18.7653   18.6216 C   0  0  0  0  0  0  0  0  0  0  0  0
  -23.8973  -32.2670   23.3605 C   0  0  1  0  0  0  0  0  0  0  0  0
  -31.2535  -22.3879   18.2346 C   0  0  2  0  0  0  0  0  0  0  0  0
  -22.6150  -29.3560   21.2831 C   0  0  1  0  0  0  0  0  0  0  0  0
  -26.2620  -19.0347   18.5003 C   0  0  2  0  0  0  0  0  0  0  0  0
  -32.4990  -24.0891   22.6681 C   0  0  0  0  0  0  0  0  0  0  0  0
  -18.9638  -22.5372   20.8646 C   0  0  0  0  0  0  0  0  0  0  0  0
  -21.5775  -26.9294   25.0773 C   0  0  0  0  0  0  0  0  0  0  0  0
  -20.6235  -24.6503   24.6727 C   0  0  0  0  0  0  0  0  0  0  0  0
  -19.2240  -26.6758   24.2705 C   0  0  0  0  0  0  0  0  0  0  0  0
  -20.7908  -24.3129   18.0388 C   0  0  0  0  0  0  0  0  0  0  0  0
  -28.1603  -25.1866   20.8390 C   0  0  0  0  0  0  0  0  0  1  0  0
  -21.1025  -26.1292   22.6690 C   0  0  1  0  0  0  0  0  0  0  0  0
  -19.6036  -23.7203   20.1550 C   0  0  2  0  0  0  0  0  0  0  0  0
  -20.6545  -26.1052   24.1577 C   0  0  0  0  0  0  0  0  0  0  0  0
  -25.8990  -16.7534   19.3640 N   0  0  0  0  0  0  0  0  0  0  0  0
  -31.8591  -23.2672   20.4914 N   0  0  0  0  0  0  0  0  0  0  0  0
  -29.7061  -23.8106   19.5816 N   0  0  0  0  0  0  0  0  0  0  0  0
  -30.3357  -24.6315   21.7464 N   0  0  0  0  0  0  0  0  0  0  0  0
  -25.4416  -18.0133   19.2659 N   0  0  0  0  0  0  0  0  0  0  0  0
  -22.4305  -27.9494   21.6458 N   0  0  0  0  0  0  0  0  0  0  0  0
  -28.5301  -19.7608   17.8517 N   0  0  0  0  0  0  0  0  0  0  0  0
  -30.2854  -21.3799   17.7587 N   0  0  0  0  0  0  0  0  0  0  0  0
  -23.6472  -19.4256   19.8951 N   0  0  0  0  0  0  0  0  0  0  0  0
  -22.5148  -15.4394   21.6908 N   0  0  0  0  0  0  0  0  0  0  0  0
  -23.3611  -31.4088   22.3258 N   0  0  0  0  0  0  0  0  0  0  0  0
  -20.2313  -25.3791   21.7708 N   0  0  0  0  0  0  0  0  0  0  0  0
  -20.1522  -23.2468   18.8528 N   0  3  0  0  0  0  0  0  0  0  0  0
  -21.8518  -17.6189   21.4278 O   0  0  0  0  0  0  0  0  0  0  0  0
  -23.4534  -29.3943   23.4901 O   0  0  0  0  0  0  0  0  0  0  0  0
  -20.1578  -28.2257   22.0872 O   0  0  0  0  0  0  0  0  0  0  0  0
  -21.8660  -23.9405   20.9736 O   0  0  0  0  0  0  0  0  0  0  0  0
  -29.7288  -20.3762   19.7110 O   0  0  0  0  0  0  0  0  0  0  0  0
  -25.4562  -10.7204   21.3529 O   0  0  0  0  0  0  0  0  0  0  0  0
  -28.1605  -26.3508   20.0136 O   0  0  0  0  0  0  0  0  0  1  0  0
  -21.0087   -7.5197   20.7373 F   0  0  0  0  0  0  0  0  0  0  0  0
  -25.4931   -8.5567   19.6326 F   0  0  0  0  0  0  0  0  0  0  0  0
  1  2  1  0  0  0  0
  1  5  2  0  0  0  0
  2  6  2  0  0  0  0
  3  8  2  0  0  0  0
  3 15  1  0  0  0  0
  4  9  1  0  0  0  0
  4 15  2  0  0  0  0
  5 17  1  0  0  0  0
  6 19  1  0  0  0  0
  7 10  2  0  0  0  0
  7 18  1  0  0  0  0
  8 21  1  0  0  0  0
  9 21  2  0  0  0  0
 10 22  1  0  0  0  0
 11 12  2  0  0  0  0
 11 23  1  0  0  0  0
 12 24  1  0  0  0  0
 13 20  1  0  0  0  0
 13 22  2  0  0  0  0
 14 24  2  0  0  0  0
 14 25  1  0  0  0  0
 15 26  1  0  0  0  0
 16 26  1  0  0  0  0
 16 27  2  0  0  0  0
 16 31  1  0  0  0  0
 17 19  2  0  0  0  0
 17 36  1  0  0  0  0
 18 20  2  0  0  0  0
 18 37  1  0  0  0  0
 19 47  1  0  0  0  0
 20 38  1  0  0  0  0
 21 79  1  0  0  0  0
 22 80  1  0  0  0  0
 23 25  2  0  0  0  0
 23 79  1  0  0  0  0
 24 81  1  0  0  0  0
 25 82  1  0  0  0  0
 26 61  2  0  0  0  0
 27 65  1  0  0  0  0
 27 69  1  0  0  0  0
 28 48  1  0  0  0  0
 28 62  2  0  0  0  0
 28 63  1  0  0  0  0
 29 51  1  0  0  0  0
 29 62  1  0  0  0  0
 29 64  2  0  0  0  0
 30 57  1  0  0  0  0
 30 63  2  0  0  0  0
 30 64  1  0  0  0  0
 31 70  1  0  0  0  0
 31 74  2  0  0  0  0
 32 49  1  0  0  0  0
 32 71  1  0  0  0  0
 32 75  2  0  0  0  0
 33 58  1  0  0  0  0
 33 66  1  0  0  0  0
 33 76  2  0  0  0  0
 34 59  1  0  0  0  0
 34 72  1  0  0  0  0
 34 77  2  0  0  0  0
 35 67  1  0  0  0  0
 35 68  1  0  0  0  0
 35 78  2  0  0  0  0
 36 39  1  0  0  0  0
 37 49  1  0  0  0  0
 38 66  1  0  0  0  0
 39 41  1  0  0  0  0
 40 42  1  0  0  0  0
 40 44  1  0  0  0  0
 41 47  1  0  0  0  0
 42 50  1  0  0  0  0
 43 45  1  0  0  0  0
 43 48  1  0  0  0  0
 44 67  1  0  0  0  0
 45 68  1  0  0  0  0
 46 50  1  0  0  0  0
 46 67  1  0  0  0  0
 47 71  1  0  0  0  0
 48 68  1  0  0  0  0
 49 66  1  0  0  0  0
 50 65  1  0  0  0  0
 52 59  1  0  0  0  0
 53 60  1  0  0  0  0
 54 60  1  0  0  0  0
 55 60  1  0  0  0  0
 56 73  1  0  0  0  0
 57 80  1  0  0  0  0
 58 60  1  0  0  0  0
 58 72  1  0  0  0  0
 59 73  1  0  0  0  0
 61 65  1  0  0  0  0
M  CHG  1  73   1
M  ISO  4  35 100  57 101  68 100  80 101
M  END
> <Batch ID>
0178

> <Smiles>
CNC(C)C(=O)NC(C(=O)N1Cc2cc([101O:1][101CH2:1]c3nc(C)nc(C4CC[100N:0]4[100C:0](=O)N4CCCC(n5nc(-c6ccc(Oc7ccc(F)cc7F)cc6)c(C(N)=O)c5N)C4)n3)ccc2CC1C(=O)NC1CCCc2ccccc21)C(C)(C)C

> <Shape>
0.226

> <Color>
0.099

> <Negative vol penalty>
0.000

$$$$

  -OEChem-04052322553D

 83 91  0     1  0  0  0  0  0999 V2000
  -16.9025  -30.7046   24.4291 C   0  0  0  0  0  0  0  0  0  0  0  0
  -17.5199  -29.4806   24.6659 C   0  0  0  0  0  0  0  0  0  0  0  0
  -24.1000   -9.4438   21.9509 C   0  0  0  0  0  0  0  0  0  0  0  0
  -24.4744  -11.0288   23.7355 C   0  0  0  0  0  0  0  0  0  0  0  0
  -17.3045  -31.4894   23.3491 C   0  0  0  0  0  0  0  0  0  0  0  0
  -18.5390  -29.0402   23.8221 C   0  0  0  0  0  0  0  0  0  0  0  0
  -24.6148  -25.2465   23.9142 C   0  0  0  0  0  0  0  0  0  0  0  0
  -23.6793   -8.4946   22.8822 C   0  0  0  0  0  0  0  0  0  0  0  0
  -24.0536  -10.0796   24.6668 C   0  0  0  0  0  0  0  0  0  0  0  0
  -25.2263  -24.1761   23.2628 C   0  0  0  0  0  0  0  0  0  0  0  0
  -20.8880   -7.8249   24.6691 C   0  0  0  0  0  0  0  0  0  0  0  0
  -19.7343   -7.0973   24.3771 C   0  0  0  0  0  0  0  0  0  0  0  0
  -25.8918  -25.6522   21.4747 C   0  0  0  0  0  0  0  0  0  0  0  0
  -21.0066   -5.0452   24.4643 C   0  0  0  0  0  0  0  0  0  0  0  0
  -24.4977  -10.7110   22.3775 C   0  0  0  0  0  0  0  0  0  0  0  0
  -24.1343  -12.6368   20.7445 C   0  0  0  0  0  0  0  0  0  0  0  0
  -18.3356  -31.0628   22.4973 C   0  0  0  0  0  0  0  0  0  0  0  0
  -24.6279  -26.5277   23.3444 C   0  0  0  0  0  0  0  0  0  0  0  0
  -18.9542  -29.8194   22.7289 C   0  0  0  0  0  0  0  0  0  0  0  0
  -25.2820  -26.7377   22.1221 C   0  0  0  0  0  0  0  0  0  0  0  0
  -23.6560   -8.8124   24.2402 C   0  0  0  0  0  0  0  0  0  0  0  0
  -25.8624  -24.3783   22.0415 C   0  0  0  0  0  0  0  0  0  0  0  0
  -22.1009   -7.1627   24.8586 C   0  0  0  0  0  0  0  0  0  0  0  0
  -19.7936   -5.7075   24.2747 C   0  0  0  0  0  0  0  0  0  0  0  0
  -22.1602   -5.7729   24.7562 C   0  0  0  0  0  0  0  0  0  0  0  0
  -24.9330  -11.6918   21.4159 C   0  0  0  0  0  0  0  0  0  0  0  0
  -28.9930  -19.7679   20.8869 C   0  0  0  0  0  0  0  0  0  0  0  0
  -26.5871  -20.5569   20.0405 C   0  0  0  0  0  0  0  0  0  0  0  0
  -27.1302  -21.0559   21.2039 C   0  0  0  0  0  0  0  0  0  0  0  0
  -28.4496  -19.2683   19.7239 C   0  0  0  0  0  0  0  0  0  0  0  0
  -25.0152  -13.3268   19.9480 C   0  0  0  0  0  0  0  0  0  0  0  0
  -22.7224  -12.8701   20.8329 C   0  0  0  0  0  0  0  0  0  0  0  0
  -22.3998  -28.5493   22.3187 C   0  0  0  0  0  0  0  0  0  0  0  0
  -24.9322  -30.5424   21.9489 C   0  0  0  0  0  0  0  0  0  0  0  0
  -28.2961  -30.8999   21.4980 C   0  0  0  0  0  0  0  0  0  0  0  0
  -29.9028  -15.9160   19.2041 C   0  0  0  0  0  0  0  0  0  0  0  0
  -18.7034  -31.9238   21.3149 C   0  0  0  0  0  0  0  0  0  0  0  0
  -23.9869  -27.6772   24.0726 C   0  0  0  0  0  0  0  0  0  0  0  0
  -25.3418  -28.0979   21.4780 C   0  0  0  0  0  0  0  0  0  0  0  0
  -20.0463  -31.5570   20.6886 C   0  0  0  0  0  0  0  0  0  0  0  0
  -29.8485  -12.3795   18.7954 C   0  0  0  0  0  0  0  0  0  0  0  0
  -20.1541  -30.0468   20.5030 C   0  0  0  0  0  0  0  0  0  0  0  0
  -28.5024  -11.9631   19.3908 C   0  0  0  0  0  0  0  0  0  0  0  0
  -30.4763  -13.5345   19.5726 C   0  0  0  0  0  0  0  0  0  0  0  0
  -28.2603  -14.2974   20.3349 C   0  0  0  0  0  0  0  0  0  0  0  0
  -20.0803  -29.3187   21.8506 C   0  0  1  0  0  0  0  0  0  0  0  0
  -23.6168  -28.8359   23.1519 C   0  0  1  0  0  0  0  0  0  0  0  0
  -27.5620  -13.1728   19.5514 C   0  0  2  0  0  0  0  0  0  0  0  0
  -30.3351  -19.3332   21.3675 C   0  0  0  0  0  0  0  0  0  0  0  0
  -24.7073  -20.0964   18.4465 C   0  0  0  0  0  0  0  0  0  0  0  0
  -28.8480  -18.3820   17.3963 C   0  0  0  0  0  0  0  0  0  0  0  0
  -30.0677  -32.6509   21.1934 C   0  0  0  0  0  0  0  0  0  0  0  0
  -24.0326  -30.9468   19.0615 C   0  0  0  0  0  0  0  0  0  0  0  0
  -26.2946  -31.8974   18.5633 C   0  0  0  0  0  0  0  0  0  0  0  0
  -24.8049  -33.0273   20.2146 C   0  0  0  0  0  0  0  0  0  0  0  0
  -29.7101  -30.0630   23.9595 C   0  0  0  0  0  0  0  0  0  0  0  0
  -25.2450  -20.9921   19.5600 C   0  0  0  0  0  0  0  0  0  0  0  0
  -26.3959  -22.0607   22.0421 C   0  0  0  0  0  0  0  0  0  1  0  0
  -29.1786  -18.2692   18.8920 C   0  0  2  0  0  0  0  0  0  0  0  0
  -25.9065  -30.8376   20.8342 C   0  0  1  0  0  0  0  0  0  0  0  0
  -29.3171  -31.7834   22.1918 C   0  0  2  0  0  0  0  0  0  0  0  0
  -25.2570  -31.6511   19.6793 C   0  0  0  0  0  0  0  0  0  0  0  0
  -26.2221  -11.7713   21.0756 N   0  0  0  0  0  0  0  0  0  0  0  0
  -28.3430  -20.6706   21.6478 N   0  0  0  0  0  0  0  0  0  0  0  0
  -27.2369  -19.6539   19.2798 N   0  0  0  0  0  0  0  0  0  0  0  0
  -26.2402  -12.7745   20.1814 N   0  0  0  0  0  0  0  0  0  0  0  0
  -24.6949  -29.1886   22.2259 N   0  0  0  0  0  0  0  0  0  0  0  0
  -29.5338  -14.6499   19.6878 N   0  0  0  0  0  0  0  0  0  0  0  0
  -24.8537  -14.3460   19.0776 N   0  0  0  0  0  0  0  0  0  0  0  0
  -21.9662  -12.0705   21.7007 N   0  0  0  0  0  0  0  0  0  0  0  0
  -21.3458  -29.4136   22.5462 N   0  0  0  0  0  0  0  0  0  0  0  0
  -27.0520  -31.4929   21.4562 N   0  0  0  0  0  0  0  0  0  0  0  0
  -28.9486  -16.9160   19.3467 N   0  0  0  0  0  0  0  0  0  0  0  0
  -30.3085  -30.9493   22.9282 N   0  3  0  0  0  0  0  0  0  0  0  0
  -22.1459  -13.7503   20.1499 O   0  0  0  0  0  0  0  0  0  0  0  0
  -22.4162  -27.6143   21.5268 O   0  0  0  0  0  0  0  0  0  0  0  0
  -24.4066  -31.4785   22.5564 O   0  0  0  0  0  0  0  0  0  0  0  0
  -28.5751  -29.7958   21.0358 O   0  0  0  0  0  0  0  0  0  0  0  0
  -30.9991  -16.1374   18.6788 O   0  0  0  0  0  0  0  0  0  0  0  0
  -23.2452   -7.8865   25.1493 O   0  0  0  0  0  0  0  0  0  0  0  0
  -26.4594  -23.3351   21.4033 O   0  0  0  0  0  0  0  0  0  1  0  0
  -18.6854   -5.0087   23.9958 F   0  0  0  0  0  0  0  0  0  0  0  0
  -23.3224   -5.1311   24.9384 F   0  0  0  0  0  0  0  0  0  0  0  0
  1  2  1  0  0  0  0
  1  5  2  0  0  0  0
  2  6  2  0  0  0  0
  3  8  2  0  0  0  0
  3 15  1  0  0  0  0
  4  9  1  0  0  0  0
  4 15  2  0  0  0  0
  5 17  1  0  0  0  0
  6 19  1  0  0  0  0
  7 10  2  0  0  0  0
  7 18  1  0  0  0  0
  8 21  1  0  0  0  0
  9 21  2  0  0  0  0
 10 22  1  0  0  0  0
 11 12  2  0  0  0  0
 11 23  1  0  0  0  0
 12 24  1  0  0  0  0
 13 20  1  0  0  0  0
 13 22  2  0  0  0  0
 14 24  2  0  0  0  0
 14 25  1  0  0  0  0
 15 26  1  0  0  0  0
 16 26  1  0  0  0  0
 16 31  2  0  0  0  0
 16 32  1  0  0  0  0
 17 19  2  0  0  0  0
 17 37  1  0  0  0  0
 18 20  2  0  0  0  0
 18 38  1  0  0  0  0
 19 46  1  0  0  0  0
 20 39  1  0  0  0  0
 21 80  1  0  0  0  0
 22 81  1  0  0  0  0
 23 25  2  0  0  0  0
 23 80  1  0  0  0  0
 24 82  1  0  0  0  0
 25 83  1  0  0  0  0
 26 63  2  0  0  0  0
 27 30  1  0  0  0  0
 27 49  1  0  0  0  0
 27 64  2  0  0  0  0
 28 29  2  0  0  0  0
 28 57  1  0  0  0  0
 28 65  1  0  0  0  0
 29 58  1  0  0  0  0
 29 64  1  0  0  0  0
 30 59  1  0  0  0  0
 30 65  2  0  0  0  0
 31 66  1  0  0  0  0
 31 69  1  0  0  0  0
 32 70  1  0  0  0  0
 32 75  2  0  0  0  0
 33 47  1  0  0  0  0
 33 71  1  0  0  0  0
 33 76  2  0  0  0  0
 34 60  1  0  0  0  0
 34 67  1  0  0  0  0
 34 77  2  0  0  0  0
 35 61  1  0  0  0  0
 35 72  1  0  0  0  0
 35 78  2  0  0  0  0
 36 68  1  0  0  0  0
 36 73  1  0  0  0  0
 36 79  2  0  0  0  0
 37 40  1  0  0  0  0
 38 47  1  0  0  0  0
 39 67  1  0  0  0  0
 40 42  1  0  0  0  0
 41 43  1  0  0  0  0
 41 44  1  0  0  0  0
 42 46  1  0  0  0  0
 43 48  1  0  0  0  0
 44 68  1  0  0  0  0
 45 48  1  0  0  0  0
 45 68  1  0  0  0  0
 46 71  1  0  0  0  0
 47 67  1  0  0  0  0
 48 66  1  0  0  0  0
 50 57  1  0  0  0  0
 51 59  1  0  0  0  0
 52 61  1  0  0  0  0
 53 62  1  0  0  0  0
 54 62  1  0  0  0  0
 55 62  1  0  0  0  0
 56 74  1  0  0  0  0
 58 81  1  0  0  0  0
 59 73  1  0  0  0  0
 60 62  1  0  0  0  0
 60 72  1  0  0  0  0
 61 74  1  0  0  0  0
 63 66  1  0  0  0  0
M  CHG  1  74   1
M  ISO  4  36 100  58 101  73 100  81 101
M  END
> <Batch ID>
0178

> <Smiles>
CCc1nc(C(C)[100NH:0][100C:0](=O)N2CCCC(n3nc(-c4ccc(Oc5ccc(F)cc5F)cc4)c(C(N)=O)c3N)C2)c(C)nc1[101CH2:1][101O:1]c1ccc2c(c1)CN(C(=O)C(NC(=O)C(C)NC)C(C)(C)C)C(C(=O)NC1CCCc3ccccc31)C2

> <Shape>
0.260

> <Color>
0.097

> <Negative vol penalty>
0.000

$$$$

  -OEChem-04052322553D

 85 94  0     1  0  0  0  0  0999 V2000
  -25.5371  -24.0307   15.7401 C   0  0  0  0  0  0  0  0  0  0  0  0
  -24.7167  -24.3400   16.8203 C   0  0  0  0  0  0  0  0  0  0  0  0
  -27.2681  -13.4470   22.5618 C   0  0  0  0  0  0  0  0  0  0  0  0
  -26.8273  -12.9897   20.2308 C   0  0  0  0  0  0  0  0  0  0  0  0
  -26.8920  -24.3570   15.7794 C   0  0  0  0  0  0  0  0  0  0  0  0
  -25.2512  -24.9749   17.9409 C   0  0  0  0  0  0  0  0  0  0  0  0
  -22.3365  -28.7698   19.5986 C   0  0  0  0  0  0  0  0  0  0  0  0
  -26.7409  -12.2023   22.9057 C   0  0  0  0  0  0  0  0  0  0  0  0
  -26.3002  -11.7449   20.5747 C   0  0  0  0  0  0  0  0  0  0  0  0
  -21.2066  -28.4276   20.3403 C   0  0  0  0  0  0  0  0  0  0  0  0
  -24.5086   -8.5965   20.8702 C   0  0  0  0  0  0  0  0  0  0  0  0
  -23.3126   -8.2094   20.2658 C   0  0  0  0  0  0  0  0  0  0  0  0
  -22.3944  -28.9424   22.3759 C   0  0  0  0  0  0  0  0  0  0  0  0
  -22.2081  -10.1358   21.2177 C   0  0  0  0  0  0  0  0  0  0  0  0
  -27.3112  -13.8408   21.2243 C   0  0  0  0  0  0  0  0  0  0  0  0
  -29.1948  -15.4262   20.5562 C   0  0  0  0  0  0  0  0  0  0  0  0
  -27.4414  -25.0048   16.8970 C   0  0  0  0  0  0  0  0  0  0  0  0
  -23.5093  -29.1911   20.2416 C   0  0  0  0  0  0  0  0  0  0  0  0
  -26.6151  -25.3089   17.9957 C   0  0  0  0  0  0  0  0  0  0  0  0
  -23.5369  -29.2918   21.6399 C   0  0  0  0  0  0  0  0  0  0  0  0
  -18.7892  -26.2162   22.7285 C   0  0  0  0  0  0  0  0  0  0  0  0
  -26.2570  -11.3512   21.9122 C   0  0  0  0  0  0  0  0  0  0  0  0
  -21.2363  -28.5111   21.7293 C   0  0  0  0  0  0  0  0  0  0  0  0
  -24.5544   -9.7531   21.6486 C   0  0  0  0  0  0  0  0  0  0  0  0
  -22.1624   -8.9791   20.4395 C   0  0  0  0  0  0  0  0  0  0  0  0
  -23.4041  -10.5228   21.8223 C   0  0  0  0  0  0  0  0  0  0  0  0
  -27.8552  -15.1267   20.8685 C   0  0  0  0  0  0  0  0  0  0  0  0
  -18.7659  -24.9039   23.1545 C   0  0  0  0  0  0  0  0  0  0  0  0
  -19.9988  -26.8664   22.8633 C   0  0  0  0  0  0  0  0  0  1  0  0
  -29.1926  -16.7739   20.2913 C   0  0  0  0  0  0  0  0  0  0  0  0
  -20.9565  -25.0065   23.7526 C   0  0  0  0  0  0  0  0  0  0  0  0
  -30.3389  -14.5633   20.5096 C   0  0  0  0  0  0  0  0  0  0  0  0
  -26.4876  -28.0949   20.4196 C   0  0  0  0  0  0  0  0  0  0  0  0
  -26.9997  -30.8714   22.0167 C   0  0  0  0  0  0  0  0  0  0  0  0
  -25.7087  -33.4225   23.8800 C   0  0  0  0  0  0  0  0  0  0  0  0
  -25.9078  -21.1976   22.0379 C   0  0  0  0  0  0  0  0  0  0  0  0
  -28.9213  -25.2950   16.9131 C   0  0  0  0  0  0  0  0  0  0  0  0
  -24.7109  -29.5822   19.4259 C   0  0  0  0  0  0  0  0  0  0  0  0
  -24.7647  -29.7578   22.3773 C   0  0  0  0  0  0  0  0  0  0  0  0
  -29.3326  -26.3037   17.9825 C   0  0  0  0  0  0  0  0  0  0  0  0
  -26.3692  -20.2768   18.6789 C   0  0  0  0  0  0  0  0  0  0  0  0
  -28.6817  -25.9604   19.3187 C   0  0  0  0  0  0  0  0  0  0  0  0
  -26.9385  -18.8661   18.8267 C   0  0  0  0  0  0  0  0  0  0  0  0
  -25.2442  -20.5489   19.6791 C   0  0  0  0  0  0  0  0  0  0  0  0
  -23.7962  -22.4507   21.4090 C   0  0  0  0  0  0  0  0  0  0  0  0
  -25.5560  -23.5424   22.7505 C   0  0  0  0  0  0  0  0  0  0  0  0
  -26.1845  -18.8710   21.2346 C   0  0  0  0  0  0  0  0  0  0  0  0
  -22.7721  -22.7364   22.5027 C   0  0  0  0  0  0  0  0  0  0  0  0
  -24.5682  -23.8214   23.8715 C   0  0  0  0  0  0  0  0  0  0  0  0
  -27.1527  -26.0196   19.2188 C   0  0  1  0  0  0  0  0  0  0  0  0
  -26.0166  -29.5064   20.2112 C   0  0  1  0  0  0  0  0  0  0  0  0
  -27.3564  -18.5889   20.2818 C   0  0  1  0  0  0  0  0  0  0  0  0
  -17.5917  -26.8906   22.1600 C   0  0  0  0  0  0  0  0  0  0  0  0
  -17.5114  -24.0998   23.0574 C   0  0  0  0  0  0  0  0  0  0  0  0
  -26.3796  -35.5257   25.0732 C   0  0  0  0  0  0  0  0  0  0  0  0
  -28.1935  -29.2054   24.2771 C   0  0  0  0  0  0  0  0  0  0  0  0
  -27.9621  -31.1984   25.7745 C   0  0  0  0  0  0  0  0  0  0  0  0
  -29.4373  -31.3140   23.7662 C   0  0  0  0  0  0  0  0  0  0  0  0
  -23.9492  -35.0867   22.1791 C   0  0  0  0  0  0  0  0  0  0  0  0
  -22.1676  -24.3304   24.3244 C   0  0  0  0  0  0  0  0  0  0  0  0
  -26.9275  -31.3026   23.4616 C   0  0  1  0  0  0  0  0  0  0  0  0
  -25.8663  -34.9285   23.7722 C   0  0  2  0  0  0  0  0  0  0  0  0
  -28.1074  -30.7444   24.3064 C   0  0  0  0  0  0  0  0  0  0  0  0
  -27.0598  -16.1980   20.8081 N   0  0  0  0  0  0  0  0  0  0  0  0
  -19.8351  -24.2652   23.6735 N   0  0  0  0  0  0  0  0  0  0  0  0
  -21.1070  -26.2898   23.3730 N   0  0  0  0  0  0  0  0  0  0  0  0
  -27.9021  -17.1838   20.4550 N   0  0  0  0  0  0  0  0  0  0  0  0
  -25.9162  -30.1229   21.5356 N   0  0  0  0  0  0  0  0  0  0  0  0
  -25.6759  -20.2315   21.0475 N   0  0  0  0  0  0  0  0  0  0  0  0
  -25.1523  -22.3774   21.9661 N   0  0  0  0  0  0  0  0  0  0  0  0
  -30.1687  -17.6364   19.9368 N   0  0  0  0  0  0  0  0  0  0  0  0
  -30.1642  -13.2054   20.8098 N   0  0  0  0  0  0  0  0  0  0  0  0
  -26.6971  -27.3929   19.2479 N   0  0  0  0  0  0  0  0  0  0  0  0
  -26.8378  -32.7587   23.4491 N   0  0  0  0  0  0  0  0  0  0  0  0
  -23.1849  -23.9628   23.2806 N   0  3  0  0  0  0  0  0  0  0  0  0
  -24.5583  -35.5643   23.4471 N   0  3  0  0  0  0  0  0  0  0  0  0
  -31.4851  -14.9870   20.2267 O   0  0  0  0  0  0  0  0  0  0  0  0
  -26.6503  -27.6742   21.5590 O   0  0  0  0  0  0  0  0  0  0  0  0
  -27.9781  -31.1932   21.3378 O   0  0  0  0  0  0  0  0  0  0  0  0
  -24.6876  -32.8885   24.3075 O   0  0  0  0  0  0  0  0  0  0  0  0
  -26.7411  -21.0163   22.9347 O   0  0  0  0  0  0  0  0  0  0  0  0
  -25.7427  -10.1364   22.2474 O   0  0  0  0  0  0  0  0  0  0  0  0
  -20.1192  -28.1723   22.4662 O   0  0  0  0  0  0  0  0  0  1  0  0
  -21.0143   -8.6082   19.8577 F   0  0  0  0  0  0  0  0  0  0  0  0
  -23.4422  -11.6357   22.5678 F   0  0  0  0  0  0  0  0  0  0  0  0
  1  2  1  0  0  0  0
  1  5  2  0  0  0  0
  2  6  2  0  0  0  0
  3  8  2  0  0  0  0
  3 15  1  0  0  0  0
  4  9  1  0  0  0  0
  4 15  2  0  0  0  0
  5 17  1  0  0  0  0
  6 19  1  0  0  0  0
  7 10  2  0  0  0  0
  7 18  1  0  0  0  0
  8 22  1  0  0  0  0
  9 22  2  0  0  0  0
 10 23  1  0  0  0  0
 11 12  2  0  0  0  0
 11 24  1  0  0  0  0
 12 25  1  0  0  0  0
 13 20  1  0  0  0  0
 13 23  2  0  0  0  0
 14 25  2  0  0  0  0
 14 26  1  0  0  0  0
 15 27  1  0  0  0  0
 16 27  1  0  0  0  0
 16 30  2  0  0  0  0
 16 32  1  0  0  0  0
 17 19  2  0  0  0  0
 17 37  1  0  0  0  0
 18 20  2  0  0  0  0
 18 38  1  0  0  0  0
 19 50  1  0  0  0  0
 20 39  1  0  0  0  0
 21 28  1  0  0  0  0
 21 29  2  0  0  0  0
 21 53  1  0  0  0  0
 22 82  1  0  0  0  0
 23 83  1  0  0  0  0
 24 26  2  0  0  0  0
 24 82  1  0  0  0  0
 25 84  1  0  0  0  0
 26 85  1  0  0  0  0
 27 64  2  0  0  0  0
 28 54  1  0  0  0  0
 28 65  2  0  0  0  0
 29 66  1  0  0  0  0
 29 83  1  0  0  0  0
 30 67  1  0  0  0  0
 30 71  1  0  0  0  0
 31 60  1  0  0  0  0
 31 65  1  0  0  0  0
 31 66  2  0  0  0  0
 32 72  1  0  0  0  0
 32 77  2  0  0  0  0
 33 51  1  0  0  0  0
 33 73  1  0  0  0  0
 33 78  2  0  0  0  0
 34 61  1  0  0  0  0
 34 68  1  0  0  0  0
 34 79  2  0  0  0  0
 35 62  1  0  0  0  0
 35 74  1  0  0  0  0
 35 80  2  0  0  0  0
 36 69  1  0  0  0  0
 36 70  1  0  0  0  0
 36 81  2  0  0  0  0
 37 40  1  0  0  0  0
 38 51  1  0  0  0  0
 39 68  1  0  0  0  0
 40 42  1  0  0  0  0
 41 43  1  0  0  0  0
 41 44  1  0  0  0  0
 42 50  1  0  0  0  0
 43 52  1  0  0  0  0
 44 69  1  0  0  0  0
 45 48  1  0  0  0  0
 45 70  1  0  0  0  0
 46 49  1  0  0  0  0
 46 70  1  0  0  0  0
 47 52  1  0  0  0  0
 47 69  1  0  0  0  0
 48 75  1  0  0  0  0
 49 75  1  0  0  0  0
 50 73  1  0  0  0  0
 51 68  1  0  0  0  0
 52 67  1  0  0  0  0
 55 62  1  0  0  0  0
 56 63  1  0  0  0  0
 57 63  1  0  0  0  0
 58 63  1  0  0  0  0
 59 76  1  0  0  0  0
 60 75  1  0  0  0  0
 61 63  1  0  0  0  0
 61 74  1  0  0  0  0
 62 76  1  0  0  0  0
 64 67  1  0  0  0  0
M  CHG  2  75   1  76   1
M  ISO  4  29 101  36 100  70 100  83 101
M  END
> <Batch ID>
0178

> <Smiles>
CNC(C)C(=O)NC(C(=O)N1Cc2cc([101O:1][101c:1]3nc(CN4CC[100N:0]([100C:0](=O)N5CCCC(n6nc(-c7ccc(Oc8ccc(F)cc8F)cc7)c(C(N)=O)c6N)C5)CC4)nc(C)c3C)ccc2CC1C(=O)NC1CCCc2ccccc21)C(C)(C)C

> <Shape>
0.293

> <Color>
0.068

> <Negative vol penalty>
0.000

$$$$

  -OEChem-04052322553D

 86 97  0     1  0  0  0  0  0999 V2000
  -24.9077  -32.4886   27.2606 C   0  0  0  0  0  0  0  0  0  0  0  0
  -25.9288  -31.6251   26.8771 C   0  0  0  0  0  0  0  0  0  0  0  0
  -23.2034   -9.7934   19.9957 C   0  0  0  0  0  0  0  0  0  0  0  0
  -23.4807  -10.1712   22.3658 C   0  0  0  0  0  0  0  0  0  0  0  0
  -23.6113  -32.2862   26.7893 C   0  0  0  0  0  0  0  0  0  0  0  0
  -25.6538  -30.5578   26.0229 C   0  0  0  0  0  0  0  0  0  0  0  0
  -28.6475  -26.6687   20.8048 C   0  0  0  0  0  0  0  0  0  0  0  0
  -22.4099   -8.6786   20.2662 C   0  0  0  0  0  0  0  0  0  0  0  0
  -22.6872   -9.0564   22.6364 C   0  0  0  0  0  0  0  0  0  0  0  0
  -28.8965  -25.3414   20.4583 C   0  0  0  0  0  0  0  0  0  0  0  0
  -21.0313   -6.1003   23.9514 C   0  0  0  0  0  0  0  0  0  0  0  0
  -21.4729   -5.2129   24.9327 C   0  0  0  0  0  0  0  0  0  0  0  0
  -28.3333  -20.9020   17.6108 C   0  0  0  0  0  0  0  0  0  0  0  0
  -26.6352  -25.1361   19.6437 C   0  0  0  0  0  0  0  0  0  0  0  0
  -23.4856   -4.8064   23.6595 C   0  0  0  0  0  0  0  0  0  0  0  0
  -27.3639  -18.9110   19.3393 C   0  0  0  0  0  0  0  0  0  0  0  0
  -28.7076  -19.5661   17.4043 C   0  0  0  0  0  0  0  0  0  0  0  0
  -23.7388  -10.5397   21.0455 C   0  0  0  0  0  0  0  0  0  0  0  0
  -24.1294  -13.0219   20.6050 C   0  0  0  0  0  0  0  0  0  0  0  0
  -23.3221  -31.2216   25.9211 C   0  0  0  0  0  0  0  0  0  0  0  0
  -27.3851  -27.2374   20.5830 C   0  0  0  0  0  0  0  0  0  0  0  0
  -24.3519  -30.3401   25.5406 C   0  0  0  0  0  0  0  0  0  0  0  0
  -26.3735  -26.4716   19.9859 C   0  0  0  0  0  0  0  0  0  0  0  0
  -29.5391  -18.9021   16.4380 C   0  0  0  0  0  0  0  0  0  0  0  0
  -28.2086  -18.5915   18.2851 C   0  0  0  0  0  0  0  0  0  0  0  0
  -22.1518   -8.3101   21.5865 C   0  0  0  0  0  0  0  0  0  0  0  0
  -27.8895  -24.5740   19.8803 C   0  0  0  0  0  0  0  0  0  0  0  0
  -21.8168   -6.3407   22.8240 C   0  0  0  0  0  0  0  0  0  0  0  0
  -22.7001   -4.5660   24.7868 C   0  0  0  0  0  0  0  0  0  0  0  0
  -23.0439   -5.6937   22.6781 C   0  0  0  0  0  0  0  0  0  0  0  0
  -24.5591  -11.6911   20.7667 C   0  0  0  0  0  0  0  0  0  0  0  0
  -29.5175  -17.5713   16.7578 C   0  0  0  0  0  0  0  0  0  0  0  0
  -27.4874  -21.1447   18.6855 C   0  0  0  0  0  0  0  0  0  0  0  0
  -25.2819  -13.7273   20.3586 C   0  0  0  0  0  0  0  0  0  0  0  0
  -22.8068  -13.5714   20.6718 C   0  0  0  0  0  0  0  0  0  0  0  0
  -25.1273  -28.4816   22.4425 C   0  0  0  0  0  0  0  0  0  0  0  0
  -23.7439  -29.2225   19.6036 C   0  0  0  0  0  0  0  0  0  0  0  0
  -23.4248  -28.5495   16.2731 C   0  0  0  0  0  0  0  0  0  0  0  0
  -30.1049  -14.0828   17.4990 C   0  0  0  0  0  0  0  0  0  0  0  0
  -21.8961  -31.0151   25.4755 C   0  0  0  0  0  0  0  0  0  0  0  0
  -27.1405  -28.6784   20.9379 C   0  0  0  0  0  0  0  0  0  0  0  0
  -25.0071  -27.0410   19.7082 C   0  0  0  0  0  0  0  0  0  0  0  0
  -30.0716  -16.2791   16.3097 C   0  0  0  0  0  0  0  0  0  0  0  0
  -21.7622  -30.0815   24.2752 C   0  0  0  0  0  0  0  0  0  0  0  0
  -30.1422  -12.3632   20.7277 C   0  0  0  0  0  0  0  0  0  0  0  0
  -31.7944  -19.3317   15.1728 C   0  0  0  0  0  0  0  0  0  0  0  0
  -31.2713  -20.6735   15.5804 C   0  0  0  0  0  0  0  0  0  0  0  0
  -22.6113  -28.8301   24.4749 C   0  0  0  0  0  0  0  0  0  0  0  0
  -28.6558  -12.1108   20.9919 C   0  0  0  0  0  0  0  0  0  0  0  0
  -30.4681  -12.3632   19.2351 C   0  0  0  0  0  0  0  0  0  0  0  0
  -28.1531  -12.9992   18.6882 C   0  0  0  0  0  0  0  0  0  0  0  0
  -28.6254  -16.0416   18.2575 C   0  0  0  0  0  0  0  0  0  0  0  0
  -30.2946  -19.5470   15.2872 C   0  0  0  0  0  0  0  0  0  0  0  0
  -24.0981  -29.1856   24.5956 C   0  0  1  0  0  0  0  0  0  0  0  0
  -25.6633  -29.0019   21.1388 C   0  0  1  0  0  0  0  0  0  0  0  0
  -27.7714  -13.0708   20.1726 C   0  0  1  0  0  0  0  0  0  0  0  0
  -22.1906  -29.3001   14.2211 C   0  0  0  0  0  0  0  0  0  0  0  0
  -21.2292  -27.8132   20.6035 C   0  0  0  0  0  0  0  0  0  0  0  0
  -20.4057  -27.7558   18.2399 C   0  0  0  0  0  0  0  0  0  0  0  0
  -20.8080  -29.9451   19.3659 C   0  0  0  0  0  0  0  0  0  0  0  0
  -25.9373  -29.2656   14.8825 C   0  0  0  0  0  0  0  0  0  0  0  0
  -27.0544  -22.5491   18.9538 C   0  0  0  0  0  0  0  0  0  1  0  0
  -22.7827  -28.5282   18.6692 C   0  0  1  0  0  0  0  0  0  0  0  0
  -23.4527  -29.4553   15.0552 C   0  0  2  0  0  0  0  0  0  0  0  0
  -21.3314  -28.4990   19.2265 C   0  0  0  0  0  0  0  0  0  0  0  0
  -27.0080  -20.2025   19.5305 N   0  0  0  0  0  0  0  0  0  0  0  0
  -25.8813  -11.5564   20.6340 N   0  0  0  0  0  0  0  0  0  0  0  0
  -28.7247  -17.4193   17.8551 N   0  0  0  0  0  0  0  0  0  0  0  0
  -26.2924  -12.8117   20.3862 N   0  0  0  0  0  0  0  0  0  0  0  0
  -24.8152  -28.4528   20.0789 N   0  0  0  0  0  0  0  0  0  0  0  0
  -29.5288  -15.3415   17.3210 N   0  0  0  0  0  0  0  0  0  0  0  0
  -29.5818  -13.2744   18.5125 N   0  0  0  0  0  0  0  0  0  0  0  0
  -25.5193  -15.0351   20.1231 N   0  0  0  0  0  0  0  0  0  0  0  0
  -21.7361  -12.7058   20.9342 N   0  0  0  0  0  0  0  0  0  0  0  0
  -24.6582  -29.4662   23.2911 N   0  0  0  0  0  0  0  0  0  0  0  0
  -22.9138  -29.1958   17.3787 N   0  0  0  0  0  0  0  0  0  0  0  0
  -24.6266  -29.1319   14.1959 N   0  3  0  0  0  0  0  0  0  0  0  0
  -22.5791  -14.7911   20.4873 O   0  0  0  0  0  0  0  0  0  0  0  0
  -25.1371  -27.2760   22.6618 O   0  0  0  0  0  0  0  0  0  0  0  0
  -23.5554  -30.4062   19.8950 O   0  0  0  0  0  0  0  0  0  0  0  0
  -23.8137  -27.3839   16.2454 O   0  0  0  0  0  0  0  0  0  0  0  0
  -31.0759  -13.7200   16.8225 O   0  0  0  0  0  0  0  0  0  0  0  0
  -21.3773   -7.2225   21.8509 O   0  0  0  0  0  0  0  0  0  0  0  0
  -28.1314  -23.2688   19.5393 O   0  0  0  0  0  0  0  0  0  1  0  0
  -23.1247   -3.7150   25.7301 F   0  0  0  0  0  0  0  0  0  0  0  0
  -23.8034   -5.9215   21.5978 F   0  0  0  0  0  0  0  0  0  0  0  0
  1  2  1  0  0  0  0
  1  5  2  0  0  0  0
  2  6  2  0  0  0  0
  3  8  2  0  0  0  0
  3 18  1  0  0  0  0
  4  9  1  0  0  0  0
  4 18  2  0  0  0  0
  5 20  1  0  0  0  0
  6 22  1  0  0  0  0
  7 10  2  0  0  0  0
  7 21  1  0  0  0  0
  8 26  1  0  0  0  0
  9 26  2  0  0  0  0
 10 27  1  0  0  0  0
 11 12  2  0  0  0  0
 11 28  1  0  0  0  0
 12 29  1  0  0  0  0
 13 17  2  0  0  0  0
 13 33  1  0  0  0  0
 14 23  1  0  0  0  0
 14 27  2  0  0  0  0
 15 29  2  0  0  0  0
 15 30  1  0  0  0  0
 16 25  2  0  0  0  0
 16 66  1  0  0  0  0
 17 24  1  0  0  0  0
 17 25  1  0  0  0  0
 18 31  1  0  0  0  0
 19 31  1  0  0  0  0
 19 34  2  0  0  0  0
 19 35  1  0  0  0  0
 20 22  2  0  0  0  0
 20 40  1  0  0  0  0
 21 23  2  0  0  0  0
 21 41  1  0  0  0  0
 22 54  1  0  0  0  0
 23 42  1  0  0  0  0
 24 32  2  0  0  0  0
 24 53  1  0  0  0  0
 25 68  1  0  0  0  0
 26 83  1  0  0  0  0
 27 84  1  0  0  0  0
 28 30  2  0  0  0  0
 28 83  1  0  0  0  0
 29 85  1  0  0  0  0
 30 86  1  0  0  0  0
 31 67  2  0  0  0  0
 32 43  1  0  0  0  0
 32 68  1  0  0  0  0
 33 62  1  0  0  0  0
 33 66  2  0  0  0  0
 34 69  1  0  0  0  0
 34 73  1  0  0  0  0
 35 74  1  0  0  0  0
 35 78  2  0  0  0  0
 36 55  1  0  0  0  0
 36 75  1  0  0  0  0
 36 79  2  0  0  0  0
 37 63  1  0  0  0  0
 37 70  1  0  0  0  0
 37 80  2  0  0  0  0
 38 64  1  0  0  0  0
 38 76  1  0  0  0  0
 38 81  2  0  0  0  0
 39 71  1  0  0  0  0
 39 72  1  0  0  0  0
 39 82  2  0  0  0  0
 40 44  1  0  0  0  0
 41 55  1  0  0  0  0
 42 70  1  0  0  0  0
 43 71  1  0  0  0  0
 44 48  1  0  0  0  0
 45 49  1  0  0  0  0
 45 50  1  0  0  0  0
 46 47  1  0  0  0  0
 46 53  1  0  0  0  0
 47 53  1  0  0  0  0
 48 54  1  0  0  0  0
 49 56  1  0  0  0  0
 50 72  1  0  0  0  0
 51 56  1  0  0  0  0
 51 72  1  0  0  0  0
 52 68  1  0  0  0  0
 52 71  1  0  0  0  0
 54 75  1  0  0  0  0
 55 70  1  0  0  0  0
 56 69  1  0  0  0  0
 57 64  1  0  0  0  0
 58 65  1  0  0  0  0
 59 65  1  0  0  0  0
 60 65  1  0  0  0  0
 61 77  1  0  0  0  0
 62 84  1  0  0  0  0
 63 65  1  0  0  0  0
 63 76  1  0  0  0  0
 64 77  1  0  0  0  0
 67 69  1  0  0  0  0
M  CHG  1  77   1
M  ISO  4  39 100  62 101  71 100  84 101
M  END
> <Batch ID>
0178

> <Smiles>
CNC(C)C(=O)NC(C(=O)N1Cc2cc([101O:1][101CH2:1]c3cc4c(C5CC5)c5n(c4cn3)C[100N:0]([100C:0](=O)N3CCCC(n4nc(-c6ccc(Oc7ccc(F)cc7F)cc6)c(C(N)=O)c4N)C3)C5)ccc2CC1C(=O)NC1CCCc2ccccc21)C(C)(C)C

> <Shape>
0.282

> <Color>
0.195

> <Negative vol penalty>
0.000

$$$$

  -OEChem-04052322553D

 83 92  0     1  0  0  0  0  0999 V2000
  -19.5780  -29.3304   23.2768 C   0  0  0  0  0  0  0  0  0  0  0  0
  -19.8980  -28.3520   22.3410 C   0  0  0  0  0  0  0  0  0  0  0  0
  -22.5201   -9.9194   20.1207 C   0  0  0  0  0  0  0  0  0  0  0  0
  -24.2977   -9.2768   21.6255 C   0  0  0  0  0  0  0  0  0  0  0  0
  -20.4297  -30.4181   23.4655 C   0  0  0  0  0  0  0  0  0  0  0  0
  -21.0694  -28.4613   21.5925 C   0  0  0  0  0  0  0  0  0  0  0  0
  -24.6572  -23.8812   19.6804 C   0  0  0  0  0  0  0  0  0  0  0  0
  -21.9194   -8.6731   20.2981 C   0  0  0  0  0  0  0  0  0  0  0  0
  -23.6970   -8.0304   21.8029 C   0  0  0  0  0  0  0  0  0  0  0  0
  -24.7572  -23.2149   18.4598 C   0  0  0  0  0  0  0  0  0  0  0  0
  -22.4413   -4.8112   22.9333 C   0  0  0  0  0  0  0  0  0  0  0  0
  -22.3487   -4.3142   24.2333 C   0  0  0  0  0  0  0  0  0  0  0  0
  -26.5781  -24.6642   17.8248 C   0  0  0  0  0  0  0  0  0  0  0  0
  -25.0974  -21.3477   12.3844 C   0  0  0  0  0  0  0  0  0  0  0  0
  -21.0326   -6.2361   24.8744 C   0  0  0  0  0  0  0  0  0  0  0  0
  -23.7093  -10.2212   20.7844 C   0  0  0  0  0  0  0  0  0  0  0  0
  -24.1108  -12.6740   21.3591 C   0  0  0  0  0  0  0  0  0  0  0  0
  -21.6169  -30.5357   22.7258 C   0  0  0  0  0  0  0  0  0  0  0  0
  -25.5111  -24.9529   19.9784 C   0  0  0  0  0  0  0  0  0  0  0  0
  -21.9371  -29.5522   21.7705 C   0  0  0  0  0  0  0  0  0  0  0  0
  -26.4885  -25.3408   19.0509 C   0  0  0  0  0  0  0  0  0  0  0  0
  -25.7573  -20.1242   12.3568 C   0  0  0  0  0  0  0  0  0  0  0  0
  -24.8051  -21.9463   13.6049 C   0  0  0  0  0  0  0  0  0  0  0  0
  -22.5078   -7.7286   21.1392 C   0  0  0  0  0  0  0  0  0  0  0  0
  -25.7158  -23.6082   17.5306 C   0  0  0  0  0  0  0  0  0  0  0  0
  -21.8296   -6.0207   22.6039 C   0  0  0  0  0  0  0  0  0  0  0  0
  -21.6444   -5.0266   25.2039 C   0  0  0  0  0  0  0  0  0  0  0  0
  -21.1252   -6.7332   23.5744 C   0  0  0  0  0  0  0  0  0  0  0  0
  -24.3307  -11.5083   20.6012 C   0  0  0  0  0  0  0  0  0  0  0  0
  -26.1006  -19.5450   13.5678 C   0  0  0  0  0  0  0  0  0  0  0  0
  -25.1908  -21.2854   14.7600 C   0  0  0  0  0  0  0  0  0  0  0  0
  -24.9341  -13.6143   20.7895 C   0  0  0  0  0  0  0  0  0  0  0  0
  -23.2402  -12.8878   22.4781 C   0  0  0  0  0  0  0  0  0  0  0  0
  -25.0999  -28.0430   20.5994 C   0  0  0  0  0  0  0  0  0  0  0  0
  -28.2873  -27.9482   21.1942 C   0  0  0  0  0  0  0  0  0  0  0  0
  -31.2886  -26.4116   20.6667 C   0  0  0  0  0  0  0  0  0  0  0  0
  -26.7809  -16.1174   16.2424 C   0  0  0  0  0  0  0  0  0  0  0  0
  -22.4824  -31.7537   22.9311 C   0  0  0  0  0  0  0  0  0  0  0  0
  -25.4081  -25.6440   21.3104 C   0  0  0  0  0  0  0  0  0  0  0  0
  -27.4427  -26.4720   19.3306 C   0  0  0  0  0  0  0  0  0  0  0  0
  -23.8916  -31.6021   22.3641 C   0  0  0  0  0  0  0  0  0  0  0  0
  -28.6379  -13.1478   17.4025 C   0  0  0  0  0  0  0  0  0  0  0  0
  -23.8404  -31.0212   20.9546 C   0  0  0  0  0  0  0  0  0  0  0  0
  -27.6287  -12.5281   18.3646 C   0  0  0  0  0  0  0  0  0  0  0  0
  -28.3085  -18.2099   13.4437 C   0  0  0  0  0  0  0  0  0  0  0  0
  -27.9558  -13.8361   16.2209 C   0  0  0  0  0  0  0  0  0  0  0  0
  -25.9279  -14.2266   17.5917 C   0  0  0  0  0  0  0  0  0  0  0  0
  -23.2112  -29.6227   20.9569 C   0  0  1  0  0  0  0  0  0  0  0  0
  -26.8119  -18.2308   13.5859 C   0  0  1  0  0  0  0  0  0  0  0  0
  -25.9896  -27.0543   21.2983 C   0  0  1  0  0  0  0  0  0  0  0  0
  -26.5939  -13.5719   18.8117 C   0  0  1  0  0  0  0  0  0  0  0  0
  -27.6846  -17.8917   14.7703 C   0  0  1  0  0  0  0  0  0  0  0  0
  -26.0727  -19.4804   11.0506 C   0  0  0  0  0  0  0  0  0  0  0  0
  -24.0986  -23.2571   13.6405 C   0  0  0  0  0  0  0  0  0  0  0  0
  -33.7215  -26.5861   21.2564 C   0  0  0  0  0  0  0  0  0  0  0  0
  -28.5969  -30.2571   19.2236 C   0  0  0  0  0  0  0  0  0  0  0  0
  -31.0486  -29.7581   19.1315 C   0  0  0  0  0  0  0  0  0  0  0  0
  -29.9985  -30.4506   21.2857 C   0  0  0  0  0  0  0  0  0  0  0  0
  -31.2786  -23.7614   21.9840 C   0  0  0  0  0  0  0  0  0  0  0  0
  -24.9052  -21.8857   16.1052 C   0  0  0  0  0  0  0  0  0  1  0  0
  -29.5354  -28.1411   20.3671 C   0  0  1  0  0  0  0  0  0  0  0  0
  -32.3794  -25.9750   21.6280 C   0  0  2  0  0  0  0  0  0  0  0  0
  -29.7757  -29.6316   19.9956 C   0  0  0  0  0  0  0  0  0  0  0  0
  -25.2236  -11.6891   19.6244 N   0  0  0  0  0  0  0  0  0  0  0  0
  -25.8334  -20.0961   14.7730 N   0  0  0  0  0  0  0  0  0  0  0  0
  -25.5719  -12.9794   19.7647 N   0  0  0  0  0  0  0  0  0  0  0  0
  -27.2981  -27.1206   20.6444 N   0  0  0  0  0  0  0  0  0  0  0  0
  -26.9242  -14.7847   16.6691 N   0  0  0  0  0  0  0  0  0  0  0  0
  -25.1673  -14.9140   21.0702 N   0  0  0  0  0  0  0  0  0  0  0  0
  -22.4640  -11.8142   22.9354 N   0  0  0  0  0  0  0  0  0  0  0  0
  -24.1654  -28.6399   21.4238 N   0  0  0  0  0  0  0  0  0  0  0  0
  -30.6240  -27.5305   21.1224 N   0  0  0  0  0  0  0  0  0  0  0  0
  -27.7085  -16.5562   15.3044 N   0  0  0  0  0  0  0  0  0  0  0  0
  -32.5185  -24.4913   21.6142 N   0  3  0  0  0  0  0  0  0  0  0  0
  -23.1411  -14.0024   23.0450 O   0  0  0  0  0  0  0  0  0  0  0  0
  -25.2512  -28.2501   19.4011 O   0  0  0  0  0  0  0  0  0  0  0  0
  -28.1965  -28.5055   22.2909 O   0  0  0  0  0  0  0  0  0  0  0  0
  -31.0523  -25.8214   19.6149 O   0  0  0  0  0  0  0  0  0  0  0  0
  -25.8881  -16.8625   16.6612 O   0  0  0  0  0  0  0  0  0  0  0  0
  -21.9218   -6.5125   21.3126 O   0  0  0  0  0  0  0  0  0  0  0  0
  -25.8152  -22.9600   16.3382 O   0  0  0  0  0  0  0  0  0  1  0  0
  -21.5543   -4.5484   26.4518 F   0  0  0  0  0  0  0  0  0  0  0  0
  -20.5345   -7.8952   23.2636 F   0  0  0  0  0  0  0  0  0  0  0  0
  1  2  1  0  0  0  0
  1  5  2  0  0  0  0
  2  6  2  0  0  0  0
  3  8  2  0  0  0  0
  3 16  1  0  0  0  0
  4  9  1  0  0  0  0
  4 16  2  0  0  0  0
  5 18  1  0  0  0  0
  6 20  1  0  0  0  0
  7 10  2  0  0  0  0
  7 19  1  0  0  0  0
  8 24  1  0  0  0  0
  9 24  2  0  0  0  0
 10 25  1  0  0  0  0
 11 12  2  0  0  0  0
 11 26  1  0  0  0  0
 12 27  1  0  0  0  0
 13 21  1  0  0  0  0
 13 25  2  0  0  0  0
 14 22  2  0  0  0  0
 14 23  1  0  0  0  0
 15 27  2  0  0  0  0
 15 28  1  0  0  0  0
 16 29  1  0  0  0  0
 17 29  1  0  0  0  0
 17 32  2  0  0  0  0
 17 33  1  0  0  0  0
 18 20  2  0  0  0  0
 18 38  1  0  0  0  0
 19 21  2  0  0  0  0
 19 39  1  0  0  0  0
 20 48  1  0  0  0  0
 21 40  1  0  0  0  0
 22 30  1  0  0  0  0
 22 53  1  0  0  0  0
 23 31  2  0  0  0  0
 23 54  1  0  0  0  0
 24 80  1  0  0  0  0
 25 81  1  0  0  0  0
 26 28  2  0  0  0  0
 26 80  1  0  0  0  0
 27 82  1  0  0  0  0
 28 83  1  0  0  0  0
 29 64  2  0  0  0  0
 30 49  1  0  0  0  0
 30 65  2  0  0  0  0
 31 60  1  0  0  0  0
 31 65  1  0  0  0  0
 32 66  1  0  0  0  0
 32 69  1  0  0  0  0
 33 70  1  0  0  0  0
 33 75  2  0  0  0  0
 34 50  1  0  0  0  0
 34 71  1  0  0  0  0
 34 76  2  0  0  0  0
 35 61  1  0  0  0  0
 35 67  1  0  0  0  0
 35 77  2  0  0  0  0
 36 62  1  0  0  0  0
 36 72  1  0  0  0  0
 36 78  2  0  0  0  0
 37 68  1  0  0  0  0
 37 73  1  0  0  0  0
 37 79  2  0  0  0  0
 38 41  1  0  0  0  0
 39 50  1  0  0  0  0
 40 67  1  0  0  0  0
 41 43  1  0  0  0  0
 42 44  1  0  0  0  0
 42 46  1  0  0  0  0
 43 48  1  0  0  0  0
 44 51  1  0  0  0  0
 45 49  1  0  0  0  0
 45 52  1  0  0  0  0
 46 68  1  0  0  0  0
 47 51  1  0  0  0  0
 47 68  1  0  0  0  0
 48 71  1  0  0  0  0
 49 52  1  0  0  0  0
 50 67  1  0  0  0  0
 51 66  1  0  0  0  0
 52 73  1  0  0  0  0
 55 62  1  0  0  0  0
 56 63  1  0  0  0  0
 57 63  1  0  0  0  0
 58 63  1  0  0  0  0
 59 74  1  0  0  0  0
 60 81  1  0  0  0  0
 61 63  1  0  0  0  0
 61 72  1  0  0  0  0
 62 74  1  0  0  0  0
 64 66  1  0  0  0  0
M  CHG  1  74   1
M  ISO  4  37 100  60 101  73 100  81 101
M  END
> <Batch ID>
0178

> <Smiles>
CNC(C)C(=O)NC(C(=O)N1Cc2cc([101O:1][101CH2:1]c3nc(C4CC4[100NH:0][100C:0](=O)N4CCCC(n5nc(-c6ccc(Oc7ccc(F)cc7F)cc6)c(C(N)=O)c5N)C4)c(C)cc3C)ccc2CC1C(=O)NC1CCCc2ccccc21)C(C)(C)C

> <Shape>
0.246

> <Color>
0.111

> <Negative vol penalty>
0.000

$$$$

  -OEChem-04052322553D

 86 95  0     1  0  0  0  0  0999 V2000
  -16.6426  -29.3859   24.3210 C   0  0  0  0  0  0  0  0  0  0  0  0
  -17.0368  -28.3720   23.4538 C   0  0  0  0  0  0  0  0  0  0  0  0
  -26.1253  -13.9838   21.2634 C   0  0  0  0  0  0  0  0  0  0  0  0
  -26.4599  -12.3208   19.5430 C   0  0  0  0  0  0  0  0  0  0  0  0
  -17.3636  -30.5781   24.3714 C   0  0  0  0  0  0  0  0  0  0  0  0
  -18.1517  -28.5503   22.6355 C   0  0  0  0  0  0  0  0  0  0  0  0
  -23.5428  -24.8830   19.6684 C   0  0  0  0  0  0  0  0  0  0  0  0
  -24.8648  -13.4509   21.5333 C   0  0  0  0  0  0  0  0  0  0  0  0
  -25.1994  -11.7879   19.8130 C   0  0  0  0  0  0  0  0  0  0  0  0
  -24.1429  -24.6640   18.4292 C   0  0  0  0  0  0  0  0  0  0  0  0
  -23.7970   -9.7612   22.1252 C   0  0  0  0  0  0  0  0  0  0  0  0
  -23.6881   -8.3738   22.2188 C   0  0  0  0  0  0  0  0  0  0  0  0
  -25.3587  -26.7348   18.6588 C   0  0  0  0  0  0  0  0  0  0  0  0
  -22.1102   -8.3742   20.3893 C   0  0  0  0  0  0  0  0  0  0  0  0
  -26.9228  -13.4188   20.2681 C   0  0  0  0  0  0  0  0  0  0  0  0
  -29.4479  -13.6022   20.5807 C   0  0  0  0  0  0  0  0  0  0  0  0
  -18.4937  -30.7674   23.5603 C   0  0  0  0  0  0  0  0  0  0  0  0
  -23.8383  -26.0369   20.4084 C   0  0  0  0  0  0  0  0  0  0  0  0
  -18.8878  -29.7467   22.6741 C   0  0  0  0  0  0  0  0  0  0  0  0
  -24.7629  -26.9649   19.9083 C   0  0  0  0  0  0  0  0  0  0  0  0
  -27.0628  -26.0036   14.9056 C   0  0  0  0  0  0  0  0  0  0  0  0
  -24.4019  -12.3529   20.8082 C   0  0  0  0  0  0  0  0  0  0  0  0
  -25.0489  -25.5913   17.9229 C   0  0  0  0  0  0  0  0  0  0  0  0
  -23.0624  -10.4552   21.1637 C   0  0  0  0  0  0  0  0  0  0  0  0
  -22.8448   -7.6802   21.3508 C   0  0  0  0  0  0  0  0  0  0  0  0
  -22.2190   -9.7616   20.2957 C   0  0  0  0  0  0  0  0  0  0  0  0
  -28.2247  -13.9691   19.9884 C   0  0  0  0  0  0  0  0  0  0  0  0
  -26.6253  -26.6440   13.7642 C   0  0  0  0  0  0  0  0  0  0  0  0
  -27.9966  -25.0065   14.7100 C   0  0  0  0  0  0  0  0  0  0  0  0
  -30.3783  -14.4125   19.9772 C   0  0  0  0  0  0  0  0  0  0  0  0
  -27.9694  -25.3522   12.4635 C   0  0  0  0  0  0  0  0  0  0  0  0
  -29.7189  -12.6169   21.5864 C   0  0  0  0  0  0  0  0  0  0  0  0
  -22.1549  -28.5193   21.4607 C   0  0  0  0  0  0  0  0  0  0  0  0
  -24.9349  -29.2757   22.9511 C   0  0  0  0  0  0  0  0  0  0  0  0
  -28.3342  -28.9932   23.0594 C   0  0  0  0  0  0  0  0  0  0  0  0
  -30.1643  -19.6588   17.5646 C   0  0  0  0  0  0  0  0  0  0  0  0
  -19.2133  -32.0916   23.6156 C   0  0  0  0  0  0  0  0  0  0  0  0
  -23.2027  -26.2453   21.7556 C   0  0  0  0  0  0  0  0  0  0  0  0
  -25.1297  -28.2097   20.6727 C   0  0  0  0  0  0  0  0  0  0  0  0
  -20.6038  -32.0559   22.9866 C   0  0  0  0  0  0  0  0  0  0  0  0
  -31.2320  -16.7571   15.9005 C   0  0  0  0  0  0  0  0  0  0  0  0
  -20.5605  -31.3494   21.6354 C   0  0  0  0  0  0  0  0  0  0  0  0
  -30.6973  -15.6633   16.8245 C   0  0  0  0  0  0  0  0  0  0  0  0
  -28.7679  -21.9678   15.3049 C   0  0  0  0  0  0  0  0  0  0  0  0
  -30.1345  -23.0927   17.1034 C   0  0  0  0  0  0  0  0  0  0  0  0
  -30.2353  -17.9059   15.7356 C   0  0  0  0  0  0  0  0  0  0  0  0
  -29.7380  -20.7830   15.3328 C   0  0  0  0  0  0  0  0  0  0  0  0
  -31.0898  -21.9028   17.0758 C   0  0  0  0  0  0  0  0  0  0  0  0
  -29.2372  -17.3928   17.9399 C   0  0  0  0  0  0  0  0  0  0  0  0
  -20.1063  -29.8928   21.7887 C   0  0  1  0  0  0  0  0  0  0  0  0
  -23.1882  -27.7078   22.1896 C   0  0  1  0  0  0  0  0  0  0  0  0
  -30.2406  -16.2523   18.1711 C   0  0  1  0  0  0  0  0  0  0  0  0
  -29.4514  -23.2648   15.7442 C   0  0  0  0  0  0  0  0  0  0  0  0
  -25.6149  -27.7403   13.8510 C   0  0  0  0  0  0  0  0  0  0  0  0
  -28.4728  -24.9906   11.1074 C   0  0  0  0  0  0  0  0  0  0  0  0
  -30.3334  -29.7546   24.3712 C   0  0  0  0  0  0  0  0  0  0  0  0
  -24.7405  -32.0270   21.6461 C   0  0  0  0  0  0  0  0  0  0  0  0
  -27.1569  -32.3820   22.1968 C   0  0  0  0  0  0  0  0  0  0  0  0
  -25.4969  -32.0541   24.0297 C   0  0  0  0  0  0  0  0  0  0  0  0
  -29.0654  -26.2168   23.7775 C   0  0  0  0  0  0  0  0  0  0  0  0
  -26.5543  -26.3720   16.2555 C   0  0  0  0  0  0  0  0  0  1  0  0
  -26.1568  -30.0846   22.5882 C   0  0  1  0  0  0  0  0  0  0  0  0
  -29.2822  -28.6690   24.1998 C   0  0  2  0  0  0  0  0  0  0  0  0
  -25.8796  -31.6145   22.5997 C   0  0  0  0  0  0  0  0  0  0  0  0
  -28.3622  -14.9373   19.0786 N   0  0  0  0  0  0  0  0  0  0  0  0
  -27.0589  -26.3427   12.5226 N   0  0  0  0  0  0  0  0  0  0  0  0
  -28.4735  -24.6533   13.4984 N   0  0  0  0  0  0  0  0  0  0  0  0
  -29.6829  -15.1857   19.0948 N   0  0  0  0  0  0  0  0  0  0  0  0
  -24.4768  -28.3717   21.9823 N   0  0  0  0  0  0  0  0  0  0  0  0
  -29.7984  -18.4078   17.0458 N   0  0  0  0  0  0  0  0  0  0  0  0
  -30.4038  -20.6861   16.6398 N   0  0  0  0  0  0  0  0  0  0  0  0
  -31.7153  -14.5320   20.1207 N   0  0  0  0  0  0  0  0  0  0  0  0
  -28.6474  -11.8727   22.0985 N   0  0  0  0  0  0  0  0  0  0  0  0
  -28.4734  -24.3278   15.8174 N   0  0  0  0  0  0  0  0  0  0  0  0
  -21.1925  -29.0740   22.2827 N   0  0  0  0  0  0  0  0  0  0  0  0
  -27.2125  -29.6618   23.5020 N   0  0  0  0  0  0  0  0  0  0  0  0
  -29.9787  -27.3768   23.9430 N   0  3  0  0  0  0  0  0  0  0  0  0
  -30.8746  -12.4143   22.0300 O   0  0  0  0  0  0  0  0  0  0  0  0
  -22.2262  -28.6349   20.2428 O   0  0  0  0  0  0  0  0  0  0  0  0
  -24.4107  -29.4348   24.0563 O   0  0  0  0  0  0  0  0  0  0  0  0
  -28.5674  -28.6875   21.8920 O   0  0  0  0  0  0  0  0  0  0  0  0
  -30.2709  -19.8472   18.7829 O   0  0  0  0  0  0  0  0  0  0  0  0
  -23.1721  -11.8325   21.0716 O   0  0  0  0  0  0  0  0  0  0  0  0
  -25.6395  -25.3789   16.7053 O   0  0  0  0  0  0  0  0  0  1  0  0
  -22.7415   -6.3477   21.4398 F   0  0  0  0  0  0  0  0  0  0  0  0
  -21.5116  -10.4227   19.3692 F   0  0  0  0  0  0  0  0  0  0  0  0
  1  2  1  0  0  0  0
  1  5  2  0  0  0  0
  2  6  2  0  0  0  0
  3  8  2  0  0  0  0
  3 15  1  0  0  0  0
  4  9  1  0  0  0  0
  4 15  2  0  0  0  0
  5 17  1  0  0  0  0
  6 19  1  0  0  0  0
  7 10  2  0  0  0  0
  7 18  1  0  0  0  0
  8 22  1  0  0  0  0
  9 22  2  0  0  0  0
 10 23  1  0  0  0  0
 11 12  2  0  0  0  0
 11 24  1  0  0  0  0
 12 25  1  0  0  0  0
 13 20  1  0  0  0  0
 13 23  2  0  0  0  0
 14 25  2  0  0  0  0
 14 26  1  0  0  0  0
 15 27  1  0  0  0  0
 16 27  1  0  0  0  0
 16 30  2  0  0  0  0
 16 32  1  0  0  0  0
 17 19  2  0  0  0  0
 17 37  1  0  0  0  0
 18 20  2  0  0  0  0
 18 38  1  0  0  0  0
 19 50  1  0  0  0  0
 20 39  1  0  0  0  0
 21 28  1  0  0  0  0
 21 29  2  0  0  0  0
 21 61  1  0  0  0  0
 22 83  1  0  0  0  0
 23 84  1  0  0  0  0
 24 26  2  0  0  0  0
 24 83  1  0  0  0  0
 25 85  1  0  0  0  0
 26 86  1  0  0  0  0
 27 65  2  0  0  0  0
 28 54  1  0  0  0  0
 28 66  2  0  0  0  0
 29 67  1  0  0  0  0
 29 74  1  0  0  0  0
 30 68  1  0  0  0  0
 30 72  1  0  0  0  0
 31 55  1  0  0  0  0
 31 66  1  0  0  0  0
 31 67  2  0  0  0  0
 32 73  1  0  0  0  0
 32 78  2  0  0  0  0
 33 51  1  0  0  0  0
 33 75  1  0  0  0  0
 33 79  2  0  0  0  0
 34 62  1  0  0  0  0
 34 69  1  0  0  0  0
 34 80  2  0  0  0  0
 35 63  1  0  0  0  0
 35 76  1  0  0  0  0
 35 81  2  0  0  0  0
 36 70  1  0  0  0  0
 36 71  1  0  0  0  0
 36 82  2  0  0  0  0
 37 40  1  0  0  0  0
 38 51  1  0  0  0  0
 39 69  1  0  0  0  0
 40 42  1  0  0  0  0
 41 43  1  0  0  0  0
 41 46  1  0  0  0  0
 42 50  1  0  0  0  0
 43 52  1  0  0  0  0
 44 47  1  0  0  0  0
 44 53  1  0  0  0  0
 45 48  1  0  0  0  0
 45 53  1  0  0  0  0
 46 70  1  0  0  0  0
 47 71  1  0  0  0  0
 48 71  1  0  0  0  0
 49 52  1  0  0  0  0
 49 70  1  0  0  0  0
 50 75  1  0  0  0  0
 51 69  1  0  0  0  0
 52 68  1  0  0  0  0
 53 74  1  0  0  0  0
 56 63  1  0  0  0  0
 57 64  1  0  0  0  0
 58 64  1  0  0  0  0
 59 64  1  0  0  0  0
 60 77  1  0  0  0  0
 61 84  1  0  0  0  0
 62 64  1  0  0  0  0
 62 76  1  0  0  0  0
 63 77  1  0  0  0  0
 65 68  1  0  0  0  0
M  CHG  1  77   1
M  ISO  4  36 100  61 101  71 100  84 101
M  END
> <Batch ID>
0178

> <Smiles>
CNC(C)C(=O)NC(C(=O)N1Cc2cc([101O:1][101CH2:1]c3c(C)nc(C)nc3NC3CC[100N:0]([100C:0](=O)N4CCCC(n5nc(-c6ccc(Oc7ccc(F)cc7F)cc6)c(C(N)=O)c5N)C4)CC3)ccc2CC1C(=O)NC1CCCc2ccccc21)C(C)(C)C

> <Shape>
0.246

> <Color>
0.092

> <Negative vol penalty>
0.000

$$$$

  -OEChem-04052322553D

 84 93  0     1  0  0  0  0  0999 V2000
  -22.6806  -12.6648   27.4653 C   0  0  0  0  0  0  0  0  0  0  0  0
  -23.4071  -13.6147   26.7544 C   0  0  0  0  0  0  0  0  0  0  0  0
  -22.2616  -27.2329   20.3691 C   0  0  0  0  0  0  0  0  0  0  0  0
  -22.6673  -28.8903   22.0796 C   0  0  0  0  0  0  0  0  0  0  0  0
  -22.2456  -11.5026   26.8297 C   0  0  0  0  0  0  0  0  0  0  0  0
  -23.7000  -13.4023   25.4077 C   0  0  0  0  0  0  0  0  0  0  0  0
  -24.0574  -17.6438   21.0046 C   0  0  0  0  0  0  0  0  0  0  0  0
  -21.0087  -26.9688   20.9222 C   0  0  0  0  0  0  0  0  0  0  0  0
  -21.4143  -28.6262   22.6327 C   0  0  0  0  0  0  0  0  0  0  0  0
  -25.1393  -18.3046   20.4243 C   0  0  0  0  0  0  0  0  0  0  0  0
  -18.1932  -29.4242   21.9939 C   0  0  0  0  0  0  0  0  0  0  0  0
  -17.4039  -30.5153   22.3574 C   0  0  0  0  0  0  0  0  0  0  0  0
  -25.1480  -16.6977   18.6252 C   0  0  0  0  0  0  0  0  0  0  0  0
  -17.3844  -29.7390   24.6452 C   0  0  0  0  0  0  0  0  0  0  0  0
  -30.2458  -19.1708   21.1965 C   0  0  0  0  0  0  0  0  0  0  0  0
  -23.0910  -28.1936   20.9478 C   0  0  0  0  0  0  0  0  0  0  0  0
  -24.6942  -29.4158   19.3846 C   0  0  0  0  0  0  0  0  0  0  0  0
  -22.5250  -11.2804   25.4721 C   0  0  0  0  0  0  0  0  0  0  0  0
  -23.5188  -16.4967   20.4042 C   0  0  0  0  0  0  0  0  0  0  0  0
  -23.2695  -12.2354   24.7538 C   0  0  0  0  0  0  0  0  0  0  0  0
  -24.0577  -16.0257   19.1985 C   0  0  0  0  0  0  0  0  0  0  0  0
  -20.5850  -27.6655   22.0539 C   0  0  0  0  0  0  0  0  0  0  0  0
  -25.6866  -17.8299   19.2360 C   0  0  0  0  0  0  0  0  0  0  0  0
  -18.5780  -28.4904   22.9561 C   0  0  0  0  0  0  0  0  0  0  0  0
  -16.9995  -30.6727   23.6831 C   0  0  0  0  0  0  0  0  0  0  0  0
  -18.1737  -28.6479   24.2817 C   0  0  0  0  0  0  0  0  0  0  0  0
  -24.3856  -28.4665   20.3773 C   0  0  0  0  0  0  0  0  0  0  0  0
  -29.6578  -19.5564   20.0167 C   0  0  0  0  0  0  0  0  0  0  0  0
  -30.4839  -17.7925   21.0370 C   0  0  0  0  0  0  0  0  0  0  0  0
  -26.0478  -29.2840   19.1924 C   0  0  0  0  0  0  0  0  0  0  0  0
  -23.8342  -30.3346   18.6977 C   0  0  0  0  0  0  0  0  0  0  0  0
  -23.1978  -13.4541   21.2663 C   0  0  0  0  0  0  0  0  0  0  0  0
  -21.5182  -13.2527   18.4985 C   0  0  0  0  0  0  0  0  0  0  0  0
  -20.9001  -14.5101   15.3866 C   0  0  0  0  0  0  0  0  0  0  0  0
  -29.9082  -24.9250   19.9271 C   0  0  0  0  0  0  0  0  0  0  0  0
  -22.0745   -9.9870   24.8405 C   0  0  0  0  0  0  0  0  0  0  0  0
  -22.3347  -15.8109   21.0287 C   0  0  0  0  0  0  0  0  0  0  0  0
  -23.5031  -14.8101   18.5032 C   0  0  0  0  0  0  0  0  0  0  0  0
  -22.1043  -10.0116   23.3144 C   0  0  0  0  0  0  0  0  0  0  0  0
  -30.0556  -28.0181   21.4631 C   0  0  0  0  0  0  0  0  0  0  0  0
  -23.4192  -10.6023   22.8156 C   0  0  0  0  0  0  0  0  0  0  0  0
  -28.6512  -28.5887   21.2666 C   0  0  0  0  0  0  0  0  0  0  0  0
  -28.6138  -21.7585   20.7115 C   0  0  0  0  0  0  0  0  0  0  0  0
  -30.2359  -21.6854   18.7691 C   0  0  0  0  0  0  0  0  0  0  0  0
  -29.9984  -26.5342   21.8068 C   0  0  0  0  0  0  0  0  0  0  0  0
  -28.1412  -23.1354   20.2364 C   0  0  0  0  0  0  0  0  0  0  0  0
  -29.7085  -23.0471   18.3264 C   0  0  0  0  0  0  0  0  0  0  0  0
  -27.8614  -26.2671   20.5903 C   0  0  0  0  0  0  0  0  0  0  0  0
  -23.5858  -12.0526   23.2852 C   0  0  1  0  0  0  0  0  0  0  0  0
  -29.1580  -20.9100   19.5481 C   0  0  0  0  0  0  0  0  0  0  0  0
  -22.1944  -14.3532   20.6011 C   0  0  1  0  0  0  0  0  0  0  0  0
  -27.8603  -27.7674   20.2329 C   0  0  1  0  0  0  0  0  0  0  0  0
  -31.1033  -16.8710   22.0044 C   0  0  0  0  0  0  0  0  0  0  0  0
  -19.5004  -14.1098   13.3426 C   0  0  0  0  0  0  0  0  0  0  0  0
  -23.3394  -10.9357   17.7080 C   0  0  0  0  0  0  0  0  0  0  0  0
  -22.5458  -11.2080   15.3492 C   0  0  0  0  0  0  0  0  0  0  0  0
  -20.9252  -10.6033   17.1466 C   0  0  0  0  0  0  0  0  0  0  0  0
  -19.5721  -17.1429   15.6385 C   0  0  0  0  0  0  0  0  0  0  0  0
  -29.0378  -18.3204   17.9186 C   0  0  0  0  0  0  0  0  0  0  0  0
  -27.6537  -17.6807   17.9078 C   0  0  0  0  0  0  0  0  0  1  0  0
  -21.8609  -12.9505   17.0596 C   0  0  1  0  0  0  0  0  0  0  0  0
  -19.6014  -14.8395   14.6730 C   0  0  2  0  0  0  0  0  0  0  0  0
  -22.1797  -11.4462   16.8297 C   0  0  0  0  0  0  0  0  0  0  0  0
  -25.4570  -27.7821   20.7871 N   0  0  0  0  0  0  0  0  0  0  0  0
  -30.0801  -17.3335   19.8494 N   0  0  0  0  0  0  0  0  0  0  0  0
  -29.5821  -18.4296   19.2521 N   0  0  0  0  0  0  0  0  0  0  0  0
  -26.4519  -28.3018   20.0481 N   0  0  0  0  0  0  0  0  0  0  0  0
  -22.3491  -14.1706   19.1565 N   0  0  0  0  0  0  0  0  0  0  0  0
  -29.2365  -25.7899   20.8042 N   0  0  0  0  0  0  0  0  0  0  0  0
  -29.1953  -23.8084   19.4650 N   0  0  0  0  0  0  0  0  0  0  0  0
  -26.9198  -29.9136   18.3766 N   0  0  0  0  0  0  0  0  0  0  0  0
  -22.4694  -30.3383   19.0167 N   0  0  0  0  0  0  0  0  0  0  0  0
  -22.7770  -12.9411   22.4784 N   0  0  0  0  0  0  0  0  0  0  0  0
  -20.7490  -13.4545   16.2607 N   0  0  0  0  0  0  0  0  0  0  0  0
  -19.5099  -16.3042   14.4139 N   0  3  0  0  0  0  0  0  0  0  0  0
  -24.2604  -31.1174   17.8150 O   0  0  0  0  0  0  0  0  0  0  0  0
  -24.2735  -13.2403   20.7195 O   0  0  0  0  0  0  0  0  0  0  0  0
  -20.5449  -12.7003   19.0172 O   0  0  0  0  0  0  0  0  0  0  0  0
  -21.9451  -15.1251   15.1857 O   0  0  0  0  0  0  0  0  0  0  0  0
  -31.0757  -25.1376   19.5765 O   0  0  0  0  0  0  0  0  0  0  0  0
  -19.3623  -27.4082   22.5938 O   0  0  0  0  0  0  0  0  0  0  0  0
  -26.7504  -18.4771   18.6638 O   0  0  0  0  0  0  0  0  0  1  0  0
  -16.2429  -31.7214   24.0323 F   0  0  0  0  0  0  0  0  0  0  0  0
  -18.5413  -27.7548   25.2107 F   0  0  0  0  0  0  0  0  0  0  0  0
  1  2  1  0  0  0  0
  1  5  2  0  0  0  0
  2  6  2  0  0  0  0
  3  8  2  0  0  0  0
  3 16  1  0  0  0  0
  4  9  1  0  0  0  0
  4 16  2  0  0  0  0
  5 18  1  0  0  0  0
  6 20  1  0  0  0  0
  7 10  2  0  0  0  0
  7 19  1  0  0  0  0
  8 22  1  0  0  0  0
  9 22  2  0  0  0  0
 10 23  1  0  0  0  0
 11 12  2  0  0  0  0
 11 24  1  0  0  0  0
 12 25  1  0  0  0  0
 13 21  1  0  0  0  0
 13 23  2  0  0  0  0
 14 25  2  0  0  0  0
 14 26  1  0  0  0  0
 15 28  2  0  0  0  0
 15 29  1  0  0  0  0
 16 27  1  0  0  0  0
 17 27  1  0  0  0  0
 17 30  2  0  0  0  0
 17 31  1  0  0  0  0
 18 20  2  0  0  0  0
 18 36  1  0  0  0  0
 19 21  2  0  0  0  0
 19 37  1  0  0  0  0
 20 49  1  0  0  0  0
 21 38  1  0  0  0  0
 22 81  1  0  0  0  0
 23 82  1  0  0  0  0
 24 26  2  0  0  0  0
 24 81  1  0  0  0  0
 25 83  1  0  0  0  0
 26 84  1  0  0  0  0
 27 64  2  0  0  0  0
 28 50  1  0  0  0  0
 28 66  1  0  0  0  0
 29 53  1  0  0  0  0
 29 65  2  0  0  0  0
 30 67  1  0  0  0  0
 30 71  1  0  0  0  0
 31 72  1  0  0  0  0
 31 76  2  0  0  0  0
 32 51  1  0  0  0  0
 32 73  1  0  0  0  0
 32 77  2  0  0  0  0
 33 61  1  0  0  0  0
 33 68  1  0  0  0  0
 33 78  2  0  0  0  0
 34 62  1  0  0  0  0
 34 74  1  0  0  0  0
 34 79  2  0  0  0  0
 35 69  1  0  0  0  0
 35 70  1  0  0  0  0
 35 80  2  0  0  0  0
 36 39  1  0  0  0  0
 37 51  1  0  0  0  0
 38 68  1  0  0  0  0
 39 41  1  0  0  0  0
 40 42  1  0  0  0  0
 40 45  1  0  0  0  0
 41 49  1  0  0  0  0
 42 52  1  0  0  0  0
 43 46  1  0  0  0  0
 43 50  1  0  0  0  0
 44 47  1  0  0  0  0
 44 50  1  0  0  0  0
 45 69  1  0  0  0  0
 46 70  1  0  0  0  0
 47 70  1  0  0  0  0
 48 52  1  0  0  0  0
 48 69  1  0  0  0  0
 49 73  1  0  0  0  0
 51 68  1  0  0  0  0
 52 67  1  0  0  0  0
 54 62  1  0  0  0  0
 55 63  1  0  0  0  0
 56 63  1  0  0  0  0
 57 63  1  0  0  0  0
 58 75  1  0  0  0  0
 59 60  1  0  0  0  0
 59 66  1  0  0  0  0
 60 82  1  0  0  0  0
 61 63  1  0  0  0  0
 61 74  1  0  0  0  0
 62 75  1  0  0  0  0
 64 67  1  0  0  0  0
 65 66  1  0  0  0  0
M  CHG  1  75   1
M  ISO  4  35 100  60 101  70 100  82 101
M  END
> <Batch ID>
0178

> <Smiles>
CNC(C)C(=O)NC(C(=O)N1Cc2cc([101O:1][101CH2:1]Cn3nc(C)cc3C3CC[100N:0]([100C:0](=O)N4CCCC(n5nc(-c6ccc(Oc7ccc(F)cc7F)cc6)c(C(N)=O)c5N)C4)CC3)ccc2CC1C(=O)NC1CCCc2ccccc21)C(C)(C)C

> <Shape>
0.234

> <Color>
0.072

> <Negative vol penalty>
0.000

$$$$

  -OEChem-04052322553D

 85 94  0     1  0  0  0  0  0999 V2000
  -27.3975  -37.7604   21.5025 C   0  0  0  0  0  0  0  0  0  0  0  0
  -27.9065  -36.5277   21.1065 C   0  0  0  0  0  0  0  0  0  0  0  0
  -24.2337  -11.8189   22.3251 C   0  0  0  0  0  0  0  0  0  0  0  0
  -23.7704  -13.2834   20.4603 C   0  0  0  0  0  0  0  0  0  0  0  0
  -26.4430  -37.8260   22.5167 C   0  0  0  0  0  0  0  0  0  0  0  0
  -27.4620  -35.3598   21.7253 C   0  0  0  0  0  0  0  0  0  0  0  0
  -26.7113  -29.8690   19.1190 C   0  0  0  0  0  0  0  0  0  0  0  0
  -22.8675  -11.7226   22.5890 C   0  0  0  0  0  0  0  0  0  0  0  0
  -22.4041  -13.1871   20.7241 C   0  0  0  0  0  0  0  0  0  0  0  0
  -27.5118  -28.7279   19.0884 C   0  0  0  0  0  0  0  0  0  0  0  0
  -20.4801  -13.5972   24.0758 C   0  0  0  0  0  0  0  0  0  0  0  0
  -20.0671  -13.7162   25.4028 C   0  0  0  0  0  0  0  0  0  0  0  0
  -26.2704  -27.8147   20.9443 C   0  0  0  0  0  0  0  0  0  0  0  0
  -31.1852  -22.8727   19.3142 C   0  0  0  0  0  0  0  0  0  0  0  0
  -29.1190  -24.0444   18.9369 C   0  0  0  0  0  0  0  0  0  0  0  0
  -19.1102  -11.5000   25.3037 C   0  0  0  0  0  0  0  0  0  0  0  0
  -24.6852  -12.5994   21.2608 C   0  0  0  0  0  0  0  0  0  0  0  0
  -26.8607  -11.8697   20.1461 C   0  0  0  0  0  0  0  0  0  0  0  0
  -25.9795  -36.6575   23.1416 C   0  0  0  0  0  0  0  0  0  0  0  0
  -25.6897  -29.9965   20.0711 C   0  0  0  0  0  0  0  0  0  0  0  0
  -26.5014  -35.4099   22.7497 C   0  0  0  0  0  0  0  0  0  0  0  0
  -25.4567  -28.9573   20.9832 C   0  0  0  0  0  0  0  0  0  0  0  0
  -29.8205  -22.8491   19.0495 C   0  0  0  0  0  0  0  0  0  0  0  0
  -21.9527  -12.4067   21.7885 C   0  0  0  0  0  0  0  0  0  0  0  0
  -27.2933  -27.7018   20.0030 C   0  0  0  0  0  0  0  0  0  0  0  0
  -20.2080  -12.4296   23.3627 C   0  0  0  0  0  0  0  0  0  0  0  0
  -19.3822  -12.6676   26.0167 C   0  0  0  0  0  0  0  0  0  0  0  0
  -19.5231  -11.3810   23.9767 C   0  0  0  0  0  0  0  0  0  0  0  0
  -26.0965  -12.6997   20.9880 C   0  0  0  0  0  0  0  0  0  0  0  0
  -31.7970  -24.1077   19.4568 C   0  0  0  0  0  0  0  0  0  0  0  0
  -29.8232  -25.2269   19.0965 C   0  0  0  0  0  0  0  0  0  0  0  0
  -28.1343  -12.3776   20.2273 C   0  0  0  0  0  0  0  0  0  0  0  0
  -26.4556  -10.7407   19.3607 C   0  0  0  0  0  0  0  0  0  0  0  0
  -25.0823  -32.0112   22.4534 C   0  0  0  0  0  0  0  0  0  0  0  0
  -22.2984  -30.3552   22.6261 C   0  0  0  0  0  0  0  0  0  0  0  0
  -20.6055  -27.4601   21.9942 C   0  0  0  0  0  0  0  0  0  0  0  0
  -30.2821  -17.8056   21.5594 C   0  0  0  0  0  0  0  0  0  0  0  0
  -24.9816  -36.7823   24.2656 C   0  0  0  0  0  0  0  0  0  0  0  0
  -24.8177  -31.2220   20.0737 C   0  0  0  0  0  0  0  0  0  0  0  0
  -24.3597  -29.0364   22.0122 C   0  0  0  0  0  0  0  0  0  0  0  0
  -24.2877  -35.4677   24.6128 C   0  0  0  0  0  0  0  0  0  0  0  0
  -31.0403  -14.7404   23.2044 C   0  0  0  0  0  0  0  0  0  0  0  0
  -25.3066  -34.3373   24.7164 C   0  0  0  0  0  0  0  0  0  0  0  0
  -29.9282  -13.7949   22.7469 C   0  0  0  0  0  0  0  0  0  0  0  0
  -29.1686  -20.6016   20.1218 C   0  0  0  0  0  0  0  0  0  0  0  0
  -29.6567  -20.6986   17.7068 C   0  0  0  0  0  0  0  0  0  0  0  0
  -30.5255  -16.1648   23.3992 C   0  0  0  0  0  0  0  0  0  0  0  0
  -28.7084  -15.7877   21.7776 C   0  0  0  0  0  0  0  0  0  0  0  0
  -29.1021  -21.5288   18.8835 C   0  0  2  0  0  0  0  0  0  0  0  0
  -26.0260  -34.1188   23.3799 C   0  0  1  0  0  0  0  0  0  0  0  0
  -24.1387  -31.4694   21.4172 C   0  0  1  0  0  0  0  0  0  0  0  0
  -29.1913  -14.3512   21.5138 C   0  0  2  0  0  0  0  0  0  0  0  0
  -29.9210  -19.3542   19.6540 C   0  0  2  0  0  0  0  0  0  0  0  0
  -29.5291  -19.2608   18.1873 C   0  0  2  0  0  0  0  0  0  0  0  0
  -33.2607  -24.1716   19.7398 C   0  0  0  0  0  0  0  0  0  0  0  0
  -18.3533  -26.3918   22.2835 C   0  0  0  0  0  0  0  0  0  0  0  0
  -22.8939  -29.9068   25.5849 C   0  0  0  0  0  0  0  0  0  0  0  0
  -21.1690  -28.0921   25.5854 C   0  0  0  0  0  0  0  0  0  0  0  0
  -20.5054  -30.4410   25.0707 C   0  0  0  0  0  0  0  0  0  0  0  0
  -20.2484  -27.1503   19.0727 C   0  0  0  0  0  0  0  0  0  0  0  0
  -29.0978  -26.5355   18.9835 C   0  0  0  0  0  0  0  0  0  1  0  0
  -21.8301  -29.1254   23.3659 C   0  0  1  0  0  0  0  0  0  0  0  0
  -19.2497  -27.2036   21.3615 C   0  0  2  0  0  0  0  0  0  0  0  0
  -21.6216  -29.3904   24.8837 C   0  0  0  0  0  0  0  0  0  0  0  0
  -26.8238  -13.6617   21.5621 N   0  0  0  0  0  0  0  0  0  0  0  0
  -31.1488  -25.2897   19.3544 N   0  0  0  0  0  0  0  0  0  0  0  0
  -28.0585  -13.4393   21.0801 N   0  0  0  0  0  0  0  0  0  0  0  0
  -23.5382  -30.2576   21.9786 N   0  0  0  0  0  0  0  0  0  0  0  0
  -29.8384  -16.6333   22.1932 N   0  0  0  0  0  0  0  0  0  0  0  0
  -29.3004  -12.0150   19.6519 N   0  0  0  0  0  0  0  0  0  0  0  0
  -25.1089  -10.3535   19.3922 N   0  0  0  0  0  0  0  0  0  0  0  0
  -25.1770  -33.3897   22.4622 N   0  0  0  0  0  0  0  0  0  0  0  0
  -20.6345  -28.6613   22.6706 N   0  0  0  0  0  0  0  0  0  0  0  0
  -29.5796  -18.1757   20.4191 N   0  0  0  0  0  0  0  0  0  0  0  0
  -30.4328  -18.3679   17.4395 N   0  3  0  0  0  0  0  0  0  0  0  0
  -19.4082  -26.4559   20.0821 N   0  3  0  0  0  0  0  0  0  0  0  0
  -27.2670  -10.0843   18.6647 O   0  0  0  0  0  0  0  0  0  0  0  0
  -25.6791  -31.2360   23.1914 O   0  0  0  0  0  0  0  0  0  0  0  0
  -21.5870  -31.3629   22.6169 O   0  0  0  0  0  0  0  0  0  0  0  0
  -21.5438  -26.6718   21.9012 O   0  0  0  0  0  0  0  0  0  0  0  0
  -31.2373  -18.4701   21.9755 O   0  0  0  0  0  0  0  0  0  0  0  0
  -20.6194  -12.3127   22.0456 O   0  0  0  0  0  0  0  0  0  0  0  0
  -28.0735  -26.5872   19.9757 O   0  0  0  0  0  0  0  0  0  1  0  0
  -18.9871  -12.7814   27.2915 F   0  0  0  0  0  0  0  0  0  0  0  0
  -19.2599  -10.2564   23.2971 F   0  0  0  0  0  0  0  0  0  0  0  0
  1  2  1  0  0  0  0
  1  5  2  0  0  0  0
  2  6  2  0  0  0  0
  3  8  2  0  0  0  0
  3 17  1  0  0  0  0
  4  9  1  0  0  0  0
  4 17  2  0  0  0  0
  5 19  1  0  0  0  0
  6 21  1  0  0  0  0
  7 10  2  0  0  0  0
  7 20  1  0  0  0  0
  8 24  1  0  0  0  0
  9 24  2  0  0  0  0
 10 25  1  0  0  0  0
 11 12  2  0  0  0  0
 11 26  1  0  0  0  0
 12 27  1  0  0  0  0
 13 22  1  0  0  0  0
 13 25  2  0  0  0  0
 14 23  1  0  0  0  0
 14 30  2  0  0  0  0
 15 23  2  0  0  0  0
 15 31  1  0  0  0  0
 16 27  2  0  0  0  0
 16 28  1  0  0  0  0
 17 29  1  0  0  0  0
 18 29  1  0  0  0  0
 18 32  2  0  0  0  0
 18 33  1  0  0  0  0
 19 21  2  0  0  0  0
 19 38  1  0  0  0  0
 20 22  2  0  0  0  0
 20 39  1  0  0  0  0
 21 50  1  0  0  0  0
 22 40  1  0  0  0  0
 23 49  1  0  0  0  0
 24 82  1  0  0  0  0
 25 83  1  0  0  0  0
 26 28  2  0  0  0  0
 26 82  1  0  0  0  0
 27 84  1  0  0  0  0
 28 85  1  0  0  0  0
 29 65  2  0  0  0  0
 30 55  1  0  0  0  0
 30 66  1  0  0  0  0
 31 61  1  0  0  0  0
 31 66  2  0  0  0  0
 32 67  1  0  0  0  0
 32 70  1  0  0  0  0
 33 71  1  0  0  0  0
 33 77  2  0  0  0  0
 34 51  1  0  0  0  0
 34 72  1  0  0  0  0
 34 78  2  0  0  0  0
 35 62  1  0  0  0  0
 35 68  1  0  0  0  0
 35 79  2  0  0  0  0
 36 63  1  0  0  0  0
 36 73  1  0  0  0  0
 36 80  2  0  0  0  0
 37 69  1  0  0  0  0
 37 74  1  0  0  0  0
 37 81  2  0  0  0  0
 38 41  1  0  0  0  0
 39 51  1  0  0  0  0
 40 68  1  0  0  0  0
 41 43  1  0  0  0  0
 42 44  1  0  0  0  0
 42 47  1  0  0  0  0
 43 50  1  0  0  0  0
 44 52  1  0  0  0  0
 45 49  1  0  0  0  0
 45 53  1  0  0  0  0
 46 49  1  0  0  0  0
 46 54  1  0  0  0  0
 47 69  1  0  0  0  0
 48 52  1  0  0  0  0
 48 69  1  0  0  0  0
 50 72  1  0  0  0  0
 51 68  1  0  0  0  0
 52 67  1  0  0  0  0
 53 54  1  0  0  0  0
 53 74  1  0  0  0  0
 54 75  1  0  0  0  0
 56 63  1  0  0  0  0
 57 64  1  0  0  0  0
 58 64  1  0  0  0  0
 59 64  1  0  0  0  0
 60 76  1  0  0  0  0
 61 83  1  0  0  0  0
 62 64  1  0  0  0  0
 62 73  1  0  0  0  0
 63 76  1  0  0  0  0
 65 67  1  0  0  0  0
M  CHG  2  75   1  76   1
M  ISO  4  37 100  61 101  74 100  83 101
M  END
> <Batch ID>
0178

> <Smiles>
CNC(C)C(=O)NC(C(=O)N1Cc2cc([101O:1][101CH2:1]c3cc(C4CC(N)C([100NH:0][100C:0](=O)N5CCCC(n6nc(-c7ccc(Oc8ccc(F)cc8F)cc7)c(C(N)=O)c6N)C5)C4)cc(C)n3)ccc2CC1C(=O)NC1CCCc2ccccc21)C(C)(C)C

> <Shape>
0.346

> <Color>
0.068

> <Negative vol penalty>
0.000

$$$$

  -OEChem-04052322553D

 83 92  0     1  0  0  0  0  0999 V2000
  -29.5888  -11.2878   20.1930 C   0  0  0  0  0  0  0  0  0  0  0  0
  -29.6277  -12.6307   19.8315 C   0  0  0  0  0  0  0  0  0  0  0  0
  -25.2903  -28.1127   23.2230 C   0  0  0  0  0  0  0  0  0  0  0  0
  -24.3141  -26.8660   21.3983 C   0  0  0  0  0  0  0  0  0  0  0  0
  -28.3626  -10.6612   20.4118 C   0  0  0  0  0  0  0  0  0  0  0  0
  -28.4403  -13.3475   19.6875 C   0  0  0  0  0  0  0  0  0  0  0  0
  -28.6524  -17.9153   21.8634 C   0  0  0  0  0  0  0  0  0  0  0  0
  -24.1074  -28.8391   23.3596 C   0  0  0  0  0  0  0  0  0  0  0  0
  -23.1312  -27.5924   21.5349 C   0  0  0  0  0  0  0  0  0  0  0  0
  -29.3329  -18.9180   21.1740 C   0  0  0  0  0  0  0  0  0  0  0  0
  -19.7292  -28.8705   21.6388 C   0  0  0  0  0  0  0  0  0  0  0  0
  -18.5266  -28.1646   21.6076 C   0  0  0  0  0  0  0  0  0  0  0  0
  -27.2284  -19.7981   20.3890 C   0  0  0  0  0  0  0  0  0  0  0  0
  -19.2258  -26.8881   23.5360 C   0  0  0  0  0  0  0  0  0  0  0  0
  -25.3937  -27.1262   22.2423 C   0  0  0  0  0  0  0  0  0  0  0  0
  -26.9523  -25.1699   22.7439 C   0  0  0  0  0  0  0  0  0  0  0  0
  -27.1600  -11.3732   20.2798 C   0  0  0  0  0  0  0  0  0  0  0  0
  -27.2531  -17.8399   21.8119 C   0  0  0  0  0  0  0  0  0  0  0  0
  -27.1968  -12.7295   19.9034 C   0  0  0  0  0  0  0  0  0  0  0  0
  -26.5324  -18.7950   21.0808 C   0  0  0  0  0  0  0  0  0  0  0  0
  -23.0279  -28.5789   22.5156 C   0  0  0  0  0  0  0  0  0  0  0  0
  -28.6211  -19.8579   20.4343 C   0  0  0  0  0  0  0  0  0  0  0  0
  -20.6802  -28.5851   22.6186 C   0  0  0  0  0  0  0  0  0  0  0  0
  -18.2748  -27.1734   22.5562 C   0  0  0  0  0  0  0  0  0  0  0  0
  -20.4284  -27.5940   23.5671 C   0  0  0  0  0  0  0  0  0  0  0  0
  -26.6156  -26.3759   22.1004 C   0  0  0  0  0  0  0  0  0  0  0  0
  -28.2083  -24.8700   22.2758 C   0  0  0  0  0  0  0  0  0  0  0  0
  -26.1972  -24.3905   23.6810 C   0  0  0  0  0  0  0  0  0  0  0  0
  -25.1597  -15.6896   20.7640 C   0  0  0  0  0  0  0  0  0  0  0  0
  -23.0024  -17.7195   22.0861 C   0  0  0  0  0  0  0  0  0  0  0  0
  -22.2517  -20.8899   23.1018 C   0  0  0  0  0  0  0  0  0  0  0  0
  -31.1466  -26.3097   17.2984 C   0  0  0  0  0  0  0  0  0  0  0  0
  -25.8570  -10.6407   20.4805 C   0  0  0  0  0  0  0  0  0  0  0  0
  -26.5325  -16.7681   22.5829 C   0  0  0  0  0  0  0  0  0  0  0  0
  -25.0282  -18.7700   21.0099 C   0  0  0  0  0  0  0  0  0  0  0  0
  -24.6600  -11.5685   20.6725 C   0  0  0  0  0  0  0  0  0  0  0  0
  -32.1818  -26.9112   20.6045 C   0  0  0  0  0  0  0  0  0  0  0  0
  -24.6734  -12.6803   19.6283 C   0  0  0  0  0  0  0  0  0  0  0  0
  -30.9066  -26.7562   21.4297 C   0  0  0  0  0  0  0  0  0  0  0  0
  -28.1360  -21.9933   17.8136 C   0  0  0  0  0  0  0  0  0  0  0  0
  -30.2380  -21.7146   17.5672 C   0  0  0  0  0  0  0  0  0  0  0  0
  -29.1774  -25.9899   14.1713 C   0  0  0  0  0  0  0  0  0  0  0  0
  -31.8877  -27.5957   19.2760 C   0  0  0  0  0  0  0  0  0  0  0  0
  -29.5766  -26.7011   19.2582 C   0  0  0  0  0  0  0  0  0  0  0  0
  -29.0293  -27.2179   16.2059 C   0  0  0  0  0  0  0  0  0  0  0  0
  -25.9314  -13.5471   19.7614 C   0  0  1  0  0  0  0  0  0  0  0  0
  -25.1355  -16.4796   22.0419 C   0  0  1  0  0  0  0  0  0  0  0  0
  -29.8215  -26.0250   20.6228 C   0  0  2  0  0  0  0  0  0  0  0  0
  -29.1225  -22.2758   16.6621 C   0  0  0  0  0  0  0  0  0  0  0  0
  -29.1389  -20.9318   18.3253 C   0  0  0  0  0  0  0  0  0  1  0  0
  -30.3113  -25.5106   15.0872 C   0  0  2  0  0  0  0  0  0  0  0  0
  -28.8456  -27.3993   14.6916 C   0  0  0  0  0  0  0  0  0  0  0  0
  -27.4150  -27.8085   14.3386 C   0  0  0  0  0  0  0  0  0  0  0  0
  -29.8275  -28.4452   14.1391 C   0  0  0  0  0  0  0  0  0  0  0  0
  -20.9346  -22.7455   24.1597 C   0  0  0  0  0  0  0  0  0  0  0  0
  -21.5627  -17.7423   19.3960 C   0  0  0  0  0  0  0  0  0  0  0  0
  -20.3303  -19.7864   20.1516 C   0  0  0  0  0  0  0  0  0  0  0  0
  -20.0525  -17.6369   21.3866 C   0  0  0  0  0  0  0  0  0  0  0  0
  -23.4546  -20.3855   25.7585 C   0  0  0  0  0  0  0  0  0  0  0  0
  -30.2673  -24.0033   15.3050 C   0  0  0  0  0  0  0  0  0  0  0  0
  -22.2226  -18.9167   21.5986 C   0  0  1  0  0  0  0  0  0  0  0  0
  -21.6399  -21.4176   24.3870 C   0  0  2  0  0  0  0  0  0  0  0  0
  -21.0705  -18.5202   20.6327 C   0  0  0  0  0  0  0  0  0  0  0  0
  -27.5799  -26.8123   21.2857 N   0  0  0  0  0  0  0  0  0  0  0  0
  -28.5349  -25.8755   21.4142 N   0  0  0  0  0  0  0  0  0  0  0  0
  -24.3696  -17.6989   21.7757 N   0  0  0  0  0  0  0  0  0  0  0  0
  -30.8381  -26.8984   18.5313 N   0  0  0  0  0  0  0  0  0  0  0  0
  -30.1361  -26.2646   16.3341 N   0  0  0  0  0  0  0  0  0  0  0  0
  -29.0541  -23.8469   22.5214 N   0  0  0  0  0  0  0  0  0  0  0  0
  -24.9242  -24.8430   24.0538 N   0  0  0  0  0  0  0  0  0  0  0  0
  -25.7959  -14.4675   20.8700 N   0  0  0  0  0  0  0  0  0  0  0  0
  -21.7826  -19.6308   22.7922 N   0  0  0  0  0  0  0  0  0  0  0  0
  -29.2762  -23.7022   16.3595 N   0  3  0  0  0  0  0  0  0  0  0  0
  -22.6959  -21.6170   25.4196 N   0  3  0  0  0  0  0  0  0  0  0  0
  -26.6451  -23.3330   24.1855 O   0  0  0  0  0  0  0  0  0  0  0  0
  -24.6384  -16.1538   19.7568 O   0  0  0  0  0  0  0  0  0  0  0  0
  -22.4215  -16.8387   22.7251 O   0  0  0  0  0  0  0  0  0  0  0  0
  -23.0617  -21.5321   22.4370 O   0  0  0  0  0  0  0  0  0  0  0  0
  -32.2797  -25.8721   17.0590 O   0  0  0  0  0  0  0  0  0  0  0  0
  -21.8733  -29.2874   22.6487 O   0  0  0  0  0  0  0  0  0  0  0  0
  -29.2904  -20.8485   19.7521 O   0  0  0  0  0  0  0  0  0  1  0  0
  -17.1192  -26.4967   22.5270 F   0  0  0  0  0  0  0  0  0  0  0  0
  -21.3377  -27.3162   24.5115 F   0  0  0  0  0  0  0  0  0  0  0  0
  1  2  1  0  0  0  0
  1  5  2  0  0  0  0
  2  6  2  0  0  0  0
  3  8  2  0  0  0  0
  3 15  1  0  0  0  0
  4  9  1  0  0  0  0
  4 15  2  0  0  0  0
  5 17  1  0  0  0  0
  6 19  1  0  0  0  0
  7 10  2  0  0  0  0
  7 18  1  0  0  0  0
  8 21  1  0  0  0  0
  9 21  2  0  0  0  0
 10 22  1  0  0  0  0
 11 12  2  0  0  0  0
 11 23  1  0  0  0  0
 12 24  1  0  0  0  0
 13 20  1  0  0  0  0
 13 22  2  0  0  0  0
 14 24  2  0  0  0  0
 14 25  1  0  0  0  0
 15 26  1  0  0  0  0
 16 26  1  0  0  0  0
 16 27  2  0  0  0  0
 16 28  1  0  0  0  0
 17 19  2  0  0  0  0
 17 33  1  0  0  0  0
 18 20  2  0  0  0  0
 18 34  1  0  0  0  0
 19 46  1  0  0  0  0
 20 35  1  0  0  0  0
 21 80  1  0  0  0  0
 22 81  1  0  0  0  0
 23 25  2  0  0  0  0
 23 80  1  0  0  0  0
 24 82  1  0  0  0  0
 25 83  1  0  0  0  0
 26 64  2  0  0  0  0
 27 65  1  0  0  0  0
 27 69  1  0  0  0  0
 28 70  1  0  0  0  0
 28 75  2  0  0  0  0
 29 47  1  0  0  0  0
 29 71  1  0  0  0  0
 29 76  2  0  0  0  0
 30 61  1  0  0  0  0
 30 66  1  0  0  0  0
 30 77  2  0  0  0  0
 31 62  1  0  0  0  0
 31 72  1  0  0  0  0
 31 78  2  0  0  0  0
 32 67  1  0  0  0  0
 32 68  1  0  0  0  0
 32 79  2  0  0  0  0
 33 36  1  0  0  0  0
 34 47  1  0  0  0  0
 35 66  1  0  0  0  0
 36 38  1  0  0  0  0
 37 39  1  0  0  0  0
 37 43  1  0  0  0  0
 38 46  1  0  0  0  0
 39 48  1  0  0  0  0
 40 49  1  0  0  0  0
 40 50  1  0  0  0  0
 41 49  1  0  0  0  0
 41 50  1  0  0  0  0
 42 51  1  0  0  0  0
 42 52  1  0  0  0  0
 43 67  1  0  0  0  0
 44 48  1  0  0  0  0
 44 67  1  0  0  0  0
 45 52  1  0  0  0  0
 45 68  1  0  0  0  0
 46 71  1  0  0  0  0
 47 66  1  0  0  0  0
 48 65  1  0  0  0  0
 49 73  1  0  0  0  0
 50 81  1  0  0  0  0
 51 60  1  0  0  0  0
 51 68  1  0  0  0  0
 52 53  1  0  0  0  0
 52 54  1  0  0  0  0
 55 62  1  0  0  0  0
 56 63  1  0  0  0  0
 57 63  1  0  0  0  0
 58 63  1  0  0  0  0
 59 74  1  0  0  0  0
 60 73  1  0  0  0  0
 61 63  1  0  0  0  0
 61 72  1  0  0  0  0
 62 74  1  0  0  0  0
 64 65  1  0  0  0  0
M  CHG  2  73   1  74   1
M  ISO  4  32 100  50 101  68 100  81 101
M  END
> <Batch ID>
0178

> <Smiles>
CNC(C)C(=O)NC(C(=O)N1Cc2cc([101O:1][101CH:1]3CC(NCC4CC(C)(C)C[100N:0]4[100C:0](=O)N4CCCC(n5nc(-c6ccc(Oc7ccc(F)cc7F)cc6)c(C(N)=O)c5N)C4)C3)ccc2CC1C(=O)NC1CCCc2ccccc21)C(C)(C)C

> <Shape>
0.194

> <Color>
0.057

> <Negative vol penalty>
0.000

$$$$

  -OEChem-04052322553D

 85 94  0     1  0  0  0  0  0999 V2000
  -22.7240  -27.4565   19.1432 C   0  0  0  0  0  0  0  0  0  0  0  0
  -23.1310  -26.2176   19.6280 C   0  0  0  0  0  0  0  0  0  0  0  0
  -23.3613   -9.7571   19.9123 C   0  0  0  0  0  0  0  0  0  0  0  0
  -23.8126   -9.9208   22.2801 C   0  0  0  0  0  0  0  0  0  0  0  0
  -23.6150  -28.5288   19.1383 C   0  0  0  0  0  0  0  0  0  0  0  0
  -24.4298  -26.0501   20.1071 C   0  0  0  0  0  0  0  0  0  0  0  0
  -26.2115  -22.4589   24.7369 C   0  0  0  0  0  0  0  0  0  0  0  0
  -28.6170  -16.6500   26.0812 C   0  0  0  0  0  0  0  0  0  0  0  0
  -22.6854   -8.5555   20.1242 C   0  0  0  0  0  0  0  0  0  0  0  0
  -23.1366   -8.7192   22.4920 C   0  0  0  0  0  0  0  0  0  0  0  0
  -26.7715  -21.1826   24.7721 C   0  0  0  0  0  0  0  0  0  0  0  0
  -19.6459   -7.5685   21.2288 C   0  0  0  0  0  0  0  0  0  0  0  0
  -18.4213   -7.3913   20.5849 C   0  0  0  0  0  0  0  0  0  0  0  0
  -29.3568  -15.4735   26.1254 C   0  0  0  0  0  0  0  0  0  0  0  0
  -28.9722  -22.1590   24.9222 C   0  0  0  0  0  0  0  0  0  0  0  0
  -19.3016   -5.4518   19.4445 C   0  0  0  0  0  0  0  0  0  0  0  0
  -29.3200  -16.9463   23.8285 C   0  0  0  0  0  0  0  0  0  0  0  0
  -23.9249  -10.4397   20.9902 C   0  0  0  0  0  0  0  0  0  0  0  0
  -24.0773  -12.9780   20.7866 C   0  0  0  0  0  0  0  0  0  0  0  0
  -24.9224  -28.3769   19.6265 C   0  0  0  0  0  0  0  0  0  0  0  0
  -27.0298  -23.5967   24.7831 C   0  0  0  0  0  0  0  0  0  0  0  0
  -25.3396  -27.1211   20.1074 C   0  0  0  0  0  0  0  0  0  0  0  0
  -28.4200  -23.4486   24.8899 C   0  0  0  0  0  0  0  0  0  0  0  0
  -28.5929  -17.4062   24.9147 C   0  0  0  0  0  0  0  0  0  0  0  0
  -22.5730   -8.0366   21.4140 C   0  0  0  0  0  0  0  0  0  0  0  0
  -28.1522  -21.0325   24.8619 C   0  0  0  0  0  0  0  0  0  0  0  0
  -20.6984   -6.6874   20.9805 C   0  0  0  0  0  0  0  0  0  0  0  0
  -18.2492   -6.3330   19.6928 C   0  0  0  0  0  0  0  0  0  0  0  0
  -20.5262   -5.6291   20.0884 C   0  0  0  0  0  0  0  0  0  0  0  0
  -24.6238  -11.6807   20.7719 C   0  0  0  0  0  0  0  0  0  0  0  0
  -30.0495  -15.1000   24.9850 C   0  0  0  0  0  0  0  0  0  0  0  0
  -25.1444  -13.8030   20.5270 C   0  0  0  0  0  0  0  0  0  0  0  0
  -30.8390  -13.8806   24.9748 C   0  0  0  0  0  0  0  0  0  0  0  0
  -32.2165  -12.2143   24.3193 C   0  0  0  0  0  0  0  0  0  0  0  0
  -31.7967  -12.0746   25.5858 C   0  0  0  0  0  0  0  0  0  0  0  0
  -22.7261  -13.3997   21.0145 C   0  0  0  0  0  0  0  0  0  0  0  0
  -27.5989  -26.0316   22.8206 C   0  0  0  0  0  0  0  0  0  0  0  0
  -29.3418  -27.1351   25.3240 C   0  0  0  0  0  0  0  0  0  0  0  0
  -31.0812  -26.4352   28.1756 C   0  0  0  0  0  0  0  0  0  0  0  0
  -31.0479  -13.2086   21.3307 C   0  0  0  0  0  0  0  0  0  0  0  0
  -25.8644  -29.5527   19.5570 C   0  0  0  0  0  0  0  0  0  0  0  0
  -26.4084  -24.9665   24.7710 C   0  0  0  0  0  0  0  0  0  0  0  0
  -29.3410  -24.6381   24.9629 C   0  0  0  0  0  0  0  0  0  0  0  0
  -27.1068  -29.3901   20.4290 C   0  0  0  0  0  0  0  0  0  0  0  0
  -29.3606  -13.8726   18.2666 C   0  0  0  0  0  0  0  0  0  0  0  0
  -27.7161  -28.0049   20.2371 C   0  0  0  0  0  0  0  0  0  0  0  0
  -27.9060  -13.5032   18.5626 C   0  0  0  0  0  0  0  0  0  0  0  0
  -30.3362  -12.9345   18.9739 C   0  0  0  0  0  0  0  0  0  0  0  0
  -28.6741  -12.4379   20.7245 C   0  0  0  0  0  0  0  0  0  0  0  0
  -26.7326  -26.9064   20.6584 C   0  0  1  0  0  0  0  0  0  0  0  0
  -31.6072  -13.4501   23.7366 C   0  0  1  0  0  0  0  0  0  0  0  0
  -27.3706  -26.0550   24.3055 C   0  0  1  0  0  0  0  0  0  0  0  0
  -27.6534  -13.3900   20.0780 C   0  0  2  0  0  0  0  0  0  0  0  0
  -33.1477  -11.3704   23.5227 C   0  0  0  0  0  0  0  0  0  0  0  0
  -32.1352  -11.0023   26.5626 C   0  0  0  0  0  0  0  0  0  0  0  0
  -32.4257  -27.5394   29.9840 C   0  0  0  0  0  0  0  0  0  0  0  0
  -31.6955  -27.4113   23.4021 C   0  0  0  0  0  0  0  0  0  0  0  0
  -33.2076  -27.5889   25.3897 C   0  0  0  0  0  0  0  0  0  0  0  0
  -31.4372  -29.3057   25.0142 C   0  0  0  0  0  0  0  0  0  0  0  0
  -29.1993  -25.5446   30.2789 C   0  0  0  0  0  0  0  0  0  0  0  0
  -27.8040  -18.6800   24.8357 C   0  0  0  0  0  0  0  0  0  1  0  0
  -30.7744  -26.9881   25.7767 C   0  0  1  0  0  0  0  0  0  0  0  0
  -31.0459  -27.0637   29.5569 C   0  0  2  0  0  0  0  0  0  0  0  0
  -31.7617  -27.8009   24.8923 C   0  0  0  0  0  0  0  0  0  0  0  0
  -30.0503  -15.8086   23.8336 N   0  0  0  0  0  0  0  0  0  0  0  0
  -25.9360  -11.6767   20.5226 N   0  0  0  0  0  0  0  0  0  0  0  0
  -30.9514  -13.0777   25.9951 N   0  0  0  0  0  0  0  0  0  0  0  0
  -26.2230  -12.9816   20.3781 N   0  0  0  0  0  0  0  0  0  0  0  0
  -28.6859  -25.9564   24.9414 N   0  0  0  0  0  0  0  0  0  0  0  0
  -30.0434  -12.8732   20.4079 N   0  0  0  0  0  0  0  0  0  0  0  0
  -25.2558  -15.1436   20.4138 N   0  0  0  0  0  0  0  0  0  0  0  0
  -21.7544  -12.4215   21.2665 N   0  0  0  0  0  0  0  0  0  0  0  0
  -26.6943  -26.7881   22.1003 N   0  0  0  0  0  0  0  0  0  0  0  0
  -30.7961  -27.3549   27.1886 N   0  0  0  0  0  0  0  0  0  0  0  0
  -30.6851  -13.1300   22.6698 N   0  0  0  0  0  0  0  0  0  0  0  0
  -30.5566  -26.0782   30.5621 N   0  3  0  0  0  0  0  0  0  0  0  0
  -22.3871  -14.6069   20.9789 O   0  0  0  0  0  0  0  0  0  0  0  0
  -28.5279  -25.3769   22.3624 O   0  0  0  0  0  0  0  0  0  0  0  0
  -28.8215  -28.2535   25.3172 O   0  0  0  0  0  0  0  0  0  0  0  0
  -31.3399  -25.2481   27.9903 O   0  0  0  0  0  0  0  0  0  0  0  0
  -32.1822  -13.5577   20.9867 O   0  0  0  0  0  0  0  0  0  0  0  0
  -21.9133   -6.8642   21.6212 O   0  0  0  0  0  0  0  0  0  0  0  0
  -28.7015  -19.7879   24.8958 O   0  0  0  0  0  0  0  0  0  1  0  0
  -17.0727   -6.1620   19.0757 F   0  0  0  0  0  0  0  0  0  0  0  0
  -21.5333   -4.7786   19.8467 F   0  0  0  0  0  0  0  0  0  0  0  0
  1  2  1  0  0  0  0
  1  5  2  0  0  0  0
  2  6  2  0  0  0  0
  3  9  2  0  0  0  0
  3 18  1  0  0  0  0
  4 10  1  0  0  0  0
  4 18  2  0  0  0  0
  5 20  1  0  0  0  0
  6 22  1  0  0  0  0
  7 11  2  0  0  0  0
  7 21  1  0  0  0  0
  8 14  2  0  0  0  0
  8 24  1  0  0  0  0
  9 25  1  0  0  0  0
 10 25  2  0  0  0  0
 11 26  1  0  0  0  0
 12 13  2  0  0  0  0
 12 27  1  0  0  0  0
 13 28  1  0  0  0  0
 14 31  1  0  0  0  0
 15 23  1  0  0  0  0
 15 26  2  0  0  0  0
 16 28  2  0  0  0  0
 16 29  1  0  0  0  0
 17 24  2  0  0  0  0
 17 65  1  0  0  0  0
 18 30  1  0  0  0  0
 19 30  1  0  0  0  0
 19 32  2  0  0  0  0
 19 36  1  0  0  0  0
 20 22  2  0  0  0  0
 20 41  1  0  0  0  0
 21 23  2  0  0  0  0
 21 42  1  0  0  0  0
 22 50  1  0  0  0  0
 23 43  1  0  0  0  0
 24 61  1  0  0  0  0
 25 82  1  0  0  0  0
 26 83  1  0  0  0  0
 27 29  2  0  0  0  0
 27 82  1  0  0  0  0
 28 84  1  0  0  0  0
 29 85  1  0  0  0  0
 30 66  2  0  0  0  0
 31 33  1  0  0  0  0
 31 65  2  0  0  0  0
 32 68  1  0  0  0  0
 32 71  1  0  0  0  0
 33 51  1  0  0  0  0
 33 67  2  0  0  0  0
 34 35  2  0  0  0  0
 34 51  1  0  0  0  0
 34 54  1  0  0  0  0
 35 55  1  0  0  0  0
 35 67  1  0  0  0  0
 36 72  1  0  0  0  0
 36 77  2  0  0  0  0
 37 52  1  0  0  0  0
 37 73  1  0  0  0  0
 37 78  2  0  0  0  0
 38 62  1  0  0  0  0
 38 69  1  0  0  0  0
 38 79  2  0  0  0  0
 39 63  1  0  0  0  0
 39 74  1  0  0  0  0
 39 80  2  0  0  0  0
 40 70  1  0  0  0  0
 40 75  1  0  0  0  0
 40 81  2  0  0  0  0
 41 44  1  0  0  0  0
 42 52  1  0  0  0  0
 43 69  1  0  0  0  0
 44 46  1  0  0  0  0
 45 47  1  0  0  0  0
 45 48  1  0  0  0  0
 46 50  1  0  0  0  0
 47 53  1  0  0  0  0
 48 70  1  0  0  0  0
 49 53  1  0  0  0  0
 49 70  1  0  0  0  0
 50 73  1  0  0  0  0
 51 75  1  0  0  0  0
 52 69  1  0  0  0  0
 53 68  1  0  0  0  0
 56 63  1  0  0  0  0
 57 64  1  0  0  0  0
 58 64  1  0  0  0  0
 59 64  1  0  0  0  0
 60 76  1  0  0  0  0
 61 83  1  0  0  0  0
 62 64  1  0  0  0  0
 62 74  1  0  0  0  0
 63 76  1  0  0  0  0
 66 68  1  0  0  0  0
M  CHG  1  76   1
M  ISO  4  40 100  61 101  75 100  83 101
M  END
> <Batch ID>
0178

> <Smiles>
C=C1NC(c2ccc([101CH2:1][101O:1]c3ccc4c(c3)CN(C(=O)C(NC(=O)C(C)NC)C(C)(C)C)C(C(=O)NC3CCCc5ccccc53)C4)cn2)C([100NH:0][100C:0](=O)N2CCCC(n3nc(-c4ccc(Oc5ccc(F)cc5F)cc4)c(C(N)=O)c3N)C2)C1=C

> <Shape>
0.165

> <Color>
0.190

> <Negative vol penalty>
0.000

$$$$

  -OEChem-04052322553D

 85 94  0     1  0  0  0  0  0999 V2000
  -25.5551  -38.3311   22.7927 C   0  0  0  0  0  0  0  0  0  0  0  0
  -26.2368  -37.4854   21.9234 C   0  0  0  0  0  0  0  0  0  0  0  0
  -23.0992  -10.4932   21.8248 C   0  0  0  0  0  0  0  0  0  0  0  0
  -24.7539   -8.7531   22.0912 C   0  0  0  0  0  0  0  0  0  0  0  0
  -24.9750  -37.8170   23.9517 C   0  0  0  0  0  0  0  0  0  0  0  0
  -26.3397  -36.1253   22.2132 C   0  0  0  0  0  0  0  0  0  0  0  0
  -26.6463  -29.7373   18.9860 C   0  0  0  0  0  0  0  0  0  0  0  0
  -22.1419   -9.5328   21.4980 C   0  0  0  0  0  0  0  0  0  0  0  0
  -23.7966   -7.7927   21.7644 C   0  0  0  0  0  0  0  0  0  0  0  0
  -27.4252  -28.5813   18.9574 C   0  0  0  0  0  0  0  0  0  0  0  0
  -21.2345   -6.2097   23.2974 C   0  0  0  0  0  0  0  0  0  0  0  0
  -21.1748   -5.0614   24.0869 C   0  0  0  0  0  0  0  0  0  0  0  0
  -26.3154  -27.7916   20.9483 C   0  0  0  0  0  0  0  0  0  0  0  0
  -21.6404   -3.7019   22.1447 C   0  0  0  0  0  0  0  0  0  0  0  0
  -28.9500  -23.8749   18.9088 C   0  0  0  0  0  0  0  0  0  0  0  0
  -24.4053  -10.1033   22.1214 C   0  0  0  0  0  0  0  0  0  0  0  0
  -25.7042  -11.5853   23.7414 C   0  0  0  0  0  0  0  0  0  0  0  0
  -25.0625  -36.4483   24.2509 C   0  0  0  0  0  0  0  0  0  0  0  0
  -25.7022  -29.9344   20.0039 C   0  0  0  0  0  0  0  0  0  0  0  0
  -25.7613  -35.5927   23.3779 C   0  0  0  0  0  0  0  0  0  0  0  0
  -25.5240  -28.9497   20.9862 C   0  0  0  0  0  0  0  0  0  0  0  0
  -22.4906   -8.1826   21.4678 C   0  0  0  0  0  0  0  0  0  0  0  0
  -27.2619  -27.6095   19.9403 C   0  0  0  0  0  0  0  0  0  0  0  0
  -21.4970   -6.1041   21.9315 C   0  0  0  0  0  0  0  0  0  0  0  0
  -21.3778   -3.8075   23.5106 C   0  0  0  0  0  0  0  0  0  0  0  0
  -21.6999   -4.8502   21.3552 C   0  0  0  0  0  0  0  0  0  0  0  0
  -25.3948  -11.0949   22.4586 C   0  0  0  0  0  0  0  0  0  0  0  0
  -29.6749  -25.0479   18.9620 C   0  0  0  0  0  0  0  0  0  0  0  0
  -29.6861  -22.7127   19.0165 C   0  0  0  0  0  0  0  0  0  0  0  0
  -26.7041  -12.5021   23.5266 C   0  0  0  0  0  0  0  0  0  0  0  0
  -31.6188  -23.8946   19.2032 C   0  0  0  0  0  0  0  0  0  0  0  0
  -25.1384  -11.2426   25.0135 C   0  0  0  0  0  0  0  0  0  0  0  0
  -25.3078  -32.0840   22.3120 C   0  0  0  0  0  0  0  0  0  0  0  0
  -22.5210  -30.4923   22.7836 C   0  0  0  0  0  0  0  0  0  0  0  0
  -20.7424  -27.6001   22.4395 C   0  0  0  0  0  0  0  0  0  0  0  0
  -28.9308  -16.6173   20.8974 C   0  0  0  0  0  0  0  0  0  0  0  0
  -24.4600  -35.9470   25.5394 C   0  0  0  0  0  0  0  0  0  0  0  0
  -24.8511  -31.1746   20.0054 C   0  0  0  0  0  0  0  0  0  0  0  0
  -24.5099  -29.1041   22.0890 C   0  0  0  0  0  0  0  0  0  0  0  0
  -24.2927  -34.4303   25.5840 C   0  0  0  0  0  0  0  0  0  0  0  0
  -29.4597  -13.4820   19.4077 C   0  0  0  0  0  0  0  0  0  0  0  0
  -25.5636  -33.7386   25.1010 C   0  0  0  0  0  0  0  0  0  0  0  0
  -28.4667  -12.6099   20.1755 C   0  0  0  0  0  0  0  0  0  0  0  0
  -28.7179  -19.1509   18.4636 C   0  0  0  0  0  0  0  0  0  0  0  0
  -29.9526  -19.9076   20.5301 C   0  0  0  0  0  0  0  0  0  0  0  0
  -28.8771  -14.8568   19.0750 C   0  0  0  0  0  0  0  0  0  0  0  0
  -29.2930  -17.7445   18.6558 C   0  0  0  0  0  0  0  0  0  0  0  0
  -30.5237  -18.4987   20.6648 C   0  0  0  0  0  0  0  0  0  0  0  0
  -27.3531  -14.7116   21.0179 C   0  0  0  0  0  0  0  0  0  0  0  0
  -25.8731  -34.1074   23.6451 C   0  0  1  0  0  0  0  0  0  0  0  0
  -24.2801  -31.5058   21.3808 C   0  0  1  0  0  0  0  0  0  0  0  0
  -27.9310  -13.3450   21.4171 C   0  0  1  0  0  0  0  0  0  0  0  0
  -29.6328  -20.2198   19.0659 C   0  0  0  0  0  0  0  0  0  0  0  0
  -33.1008  -23.9056   19.3668 C   0  0  0  0  0  0  0  0  0  0  0  0
  -18.5033  -26.5913   22.9553 C   0  0  0  0  0  0  0  0  0  0  0  0
  -23.3335  -30.1907   25.7092 C   0  0  0  0  0  0  0  0  0  0  0  0
  -21.5872  -28.4114   25.9383 C   0  0  0  0  0  0  0  0  0  0  0  0
  -20.9210  -30.7417   25.3480 C   0  0  0  0  0  0  0  0  0  0  0  0
  -20.1592  -27.1421   19.5744 C   0  0  0  0  0  0  0  0  0  0  0  0
  -28.9660  -26.3561   18.8536 C   0  0  0  0  0  0  0  0  0  1  0  0
  -22.0924  -29.3126   23.6224 C   0  0  1  0  0  0  0  0  0  0  0  0
  -19.3387  -27.3359   21.9255 C   0  0  2  0  0  0  0  0  0  0  0  0
  -22.0041  -29.6617   25.1349 C   0  0  0  0  0  0  0  0  0  0  0  0
  -26.1378  -11.6541   21.4998 N   0  0  0  0  0  0  0  0  0  0  0  0
  -31.0152  -25.0947   19.1090 N   0  0  0  0  0  0  0  0  0  0  0  0
  -31.0268  -22.6856   19.1651 N   0  0  0  0  0  0  0  0  0  0  0  0
  -26.9240  -12.5053   22.1806 N   0  0  0  0  0  0  0  0  0  0  0  0
  -23.7063  -30.3370   22.0509 N   0  0  0  0  0  0  0  0  0  0  0  0
  -28.3429  -15.5016   20.2826 N   0  0  0  0  0  0  0  0  0  0  0  0
  -29.6281  -17.5076   20.0673 N   0  0  0  0  0  0  0  0  0  0  0  0
  -27.4078  -13.2978   24.3597 N   0  0  0  0  0  0  0  0  0  0  0  0
  -24.1195  -10.2810   25.0543 N   0  0  0  0  0  0  0  0  0  0  0  0
  -28.9958  -21.5146   18.9678 N   0  0  0  0  0  0  0  0  0  0  0  0
  -25.0191  -33.3647   22.7432 N   0  0  0  0  0  0  0  0  0  0  0  0
  -20.8405  -28.8348   23.0454 N   0  0  0  0  0  0  0  0  0  0  0  0
  -19.3882  -26.5184   20.6805 N   0  3  0  0  0  0  0  0  0  0  0  0
  -25.5135  -11.7853   26.0804 O   0  0  0  0  0  0  0  0  0  0  0  0
  -26.2893  -31.4170   22.6179 O   0  0  0  0  0  0  0  0  0  0  0  0
  -21.8259  -31.5113   22.7732 O   0  0  0  0  0  0  0  0  0  0  0  0
  -21.6592  -26.7904   22.3191 O   0  0  0  0  0  0  0  0  0  0  0  0
  -28.8381  -16.8071   22.1166 O   0  0  0  0  0  0  0  0  0  0  0  0
  -21.5566   -7.2452   21.1491 O   0  0  0  0  0  0  0  0  0  0  0  0
  -28.0265  -26.4727   19.9149 O   0  0  0  0  0  0  0  0  0  1  0  0
  -21.3221   -2.7050   24.2692 F   0  0  0  0  0  0  0  0  0  0  0  0
  -21.9537   -4.7426   20.0438 F   0  0  0  0  0  0  0  0  0  0  0  0
  1  2  1  0  0  0  0
  1  5  2  0  0  0  0
  2  6  2  0  0  0  0
  3  8  2  0  0  0  0
  3 16  1  0  0  0  0
  4  9  1  0  0  0  0
  4 16  2  0  0  0  0
  5 18  1  0  0  0  0
  6 20  1  0  0  0  0
  7 10  2  0  0  0  0
  7 19  1  0  0  0  0
  8 22  1  0  0  0  0
  9 22  2  0  0  0  0
 10 23  1  0  0  0  0
 11 12  2  0  0  0  0
 11 24  1  0  0  0  0
 12 25  1  0  0  0  0
 13 21  1  0  0  0  0
 13 23  2  0  0  0  0
 14 25  2  0  0  0  0
 14 26  1  0  0  0  0
 15 28  1  0  0  0  0
 15 29  2  0  0  0  0
 16 27  1  0  0  0  0
 17 27  1  0  0  0  0
 17 30  2  0  0  0  0
 17 32  1  0  0  0  0
 18 20  2  0  0  0  0
 18 37  1  0  0  0  0
 19 21  2  0  0  0  0
 19 38  1  0  0  0  0
 20 50  1  0  0  0  0
 21 39  1  0  0  0  0
 22 82  1  0  0  0  0
 23 83  1  0  0  0  0
 24 26  2  0  0  0  0
 24 82  1  0  0  0  0
 25 84  1  0  0  0  0
 26 85  1  0  0  0  0
 27 64  2  0  0  0  0
 28 60  1  0  0  0  0
 28 65  2  0  0  0  0
 29 66  1  0  0  0  0
 29 73  1  0  0  0  0
 30 67  1  0  0  0  0
 30 71  1  0  0  0  0
 31 54  1  0  0  0  0
 31 65  1  0  0  0  0
 31 66  2  0  0  0  0
 32 72  1  0  0  0  0
 32 77  2  0  0  0  0
 33 51  1  0  0  0  0
 33 74  1  0  0  0  0
 33 78  2  0  0  0  0
 34 61  1  0  0  0  0
 34 68  1  0  0  0  0
 34 79  2  0  0  0  0
 35 62  1  0  0  0  0
 35 75  1  0  0  0  0
 35 80  2  0  0  0  0
 36 69  1  0  0  0  0
 36 70  1  0  0  0  0
 36 81  2  0  0  0  0
 37 40  1  0  0  0  0
 38 51  1  0  0  0  0
 39 68  1  0  0  0  0
 40 42  1  0  0  0  0
 41 43  1  0  0  0  0
 41 46  1  0  0  0  0
 42 50  1  0  0  0  0
 43 52  1  0  0  0  0
 44 47  1  0  0  0  0
 44 53  1  0  0  0  0
 45 48  1  0  0  0  0
 45 53  1  0  0  0  0
 46 69  1  0  0  0  0
 47 70  1  0  0  0  0
 48 70  1  0  0  0  0
 49 52  1  0  0  0  0
 49 69  1  0  0  0  0
 50 74  1  0  0  0  0
 51 68  1  0  0  0  0
 52 67  1  0  0  0  0
 53 73  1  0  0  0  0
 55 62  1  0  0  0  0
 56 63  1  0  0  0  0
 57 63  1  0  0  0  0
 58 63  1  0  0  0  0
 59 76  1  0  0  0  0
 60 83  1  0  0  0  0
 61 63  1  0  0  0  0
 61 75  1  0  0  0  0
 62 76  1  0  0  0  0
 64 67  1  0  0  0  0
M  CHG  1  76   1
M  ISO  4  36 100  60 101  70 100  83 101
M  END
> <Batch ID>
0178

> <Smiles>
CNC(C)C(=O)NC(C(=O)N1Cc2cc([101O:1][101CH2:1]c3cc(NC4CC[100N:0]([100C:0](=O)N5CCCC(n6nc(-c7ccc(Oc8ccc(F)cc8F)cc7)c(C(N)=O)c6N)C5)CC4)nc(C)n3)ccc2CC1C(=O)NC1CCCc2ccccc21)C(C)(C)C

> <Shape>
0.376

> <Color>
0.118

> <Negative vol penalty>
0.000

$$$$

  -OEChem-04052322553D

 85 94  0     1  0  0  0  0  0999 V2000
  -28.6895  -31.8921   26.9476 C   0  0  0  0  0  0  0  0  0  0  0  0
  -28.6079  -30.6228   26.3841 C   0  0  0  0  0  0  0  0  0  0  0  0
  -23.3731   -9.9019   21.9116 C   0  0  0  0  0  0  0  0  0  0  0  0
  -24.0091  -11.2761   23.7942 C   0  0  0  0  0  0  0  0  0  0  0  0
  -27.5791  -32.7350   26.9280 C   0  0  0  0  0  0  0  0  0  0  0  0
  -27.4153  -30.1952   25.8016 C   0  0  0  0  0  0  0  0  0  0  0  0
  -28.1420  -27.9092   21.3416 C   0  0  0  0  0  0  0  0  0  0  0  0
  -22.7228   -9.0202   22.7749 C   0  0  0  0  0  0  0  0  0  0  0  0
  -23.3588  -10.3945   24.6575 C   0  0  0  0  0  0  0  0  0  0  0  0
  -28.5935  -26.5904   21.3681 C   0  0  0  0  0  0  0  0  0  0  0  0
  -23.5721   -6.5207   24.8857 C   0  0  0  0  0  0  0  0  0  0  0  0
  -23.7789   -5.1549   24.6925 C   0  0  0  0  0  0  0  0  0  0  0  0
  -26.3416  -25.8180   20.9788 C   0  0  0  0  0  0  0  0  0  0  0  0
  -27.6611  -21.1124   22.2552 C   0  0  0  0  0  0  0  0  0  0  0  0
  -21.4106   -4.8480   24.3264 C   0  0  0  0  0  0  0  0  0  0  0  0
  -24.0163  -11.0298   22.4212 C   0  0  0  0  0  0  0  0  0  0  0  0
  -24.1380  -13.0687   20.8929 C   0  0  0  0  0  0  0  0  0  0  0  0
  -26.3752  -32.3211   26.3363 C   0  0  0  0  0  0  0  0  0  0  0  0
  -26.7829  -28.1924   21.1440 C   0  0  0  0  0  0  0  0  0  0  0  0
  -26.2873  -31.0328   25.7752 C   0  0  0  0  0  0  0  0  0  0  0  0
  -25.8758  -27.1413   20.9476 C   0  0  0  0  0  0  0  0  0  0  0  0
  -28.2826  -19.8711   22.3332 C   0  0  0  0  0  0  0  0  0  0  0  0
  -27.8225  -21.8942   21.1167 C   0  0  0  0  0  0  0  0  0  0  0  0
  -22.7155   -9.2665   24.1478 C   0  0  0  0  0  0  0  0  0  0  0  0
  -27.6928  -25.5445   21.1896 C   0  0  0  0  0  0  0  0  0  0  0  0
  -22.2845   -7.0502   24.7993 C   0  0  0  0  0  0  0  0  0  0  0  0
  -22.6982   -4.3185   24.4129 C   0  0  0  0  0  0  0  0  0  0  0  0
  -21.2038   -6.2138   24.5196 C   0  0  0  0  0  0  0  0  0  0  0  0
  -24.6888  -11.9407   21.5300 C   0  0  0  0  0  0  0  0  0  0  0  0
  -29.0488  -19.4604   21.2543 C   0  0  0  0  0  0  0  0  0  0  0  0
  -28.6094  -21.3930   20.0923 C   0  0  0  0  0  0  0  0  0  0  0  0
  -25.1766  -13.5913   20.1616 C   0  0  0  0  0  0  0  0  0  0  0  0
  -22.8066  -13.5970   20.9565 C   0  0  0  0  0  0  0  0  0  0  0  0
  -24.5165  -29.6182   22.8570 C   0  0  0  0  0  0  0  0  0  0  0  0
  -22.7700  -29.2267   20.1517 C   0  0  0  0  0  0  0  0  0  0  0  0
  -22.2758  -27.5069   17.2457 C   0  0  0  0  0  0  0  0  0  0  0  0
  -30.6138  -15.0867   19.9191 C   0  0  0  0  0  0  0  0  0  0  0  0
  -25.1875  -33.2495   26.3813 C   0  0  0  0  0  0  0  0  0  0  0  0
  -26.3160  -29.6213   21.0913 C   0  0  0  0  0  0  0  0  0  0  0  0
  -24.4097  -27.3928   20.7116 C   0  0  0  0  0  0  0  0  0  0  0  0
  -24.0740  -32.8615   25.4118 C   0  0  0  0  0  0  0  0  0  0  0  0
  -29.7160  -11.7148   19.0492 C   0  0  0  0  0  0  0  0  0  0  0  0
  -23.7854  -31.3663   25.5012 C   0  0  0  0  0  0  0  0  0  0  0  0
  -28.3083  -11.5426   19.6099 C   0  0  0  0  0  0  0  0  0  0  0  0
  -30.5512  -12.6203   19.9445 C   0  0  0  0  0  0  0  0  0  0  0  0
  -28.9910  -16.7638   21.1082 C   0  0  0  0  0  0  0  0  0  0  0  0
  -30.4756  -17.6354   19.8713 C   0  0  0  0  0  0  0  0  0  0  0  0
  -28.5225  -13.8386   20.6887 C   0  0  0  0  0  0  0  0  0  0  0  0
  -25.0186  -30.5422   25.1120 C   0  0  1  0  0  0  0  0  0  0  0  0
  -29.8128  -18.0726   21.1979 C   0  0  0  0  0  0  0  0  0  0  0  0
  -24.8292  -29.7757   21.3958 C   0  0  1  0  0  0  0  0  0  0  0  0
  -27.6450  -12.9105   19.8254 C   0  0  2  0  0  0  0  0  0  0  0  0
  -28.8194  -22.1886   18.8456 C   0  0  0  0  0  0  0  0  0  0  0  0
  -26.6564  -18.6067   23.7860 C   0  0  0  0  0  0  0  0  0  0  0  0
  -28.6881  -19.6882   24.8144 C   0  0  0  0  0  0  0  0  0  0  0  0
  -20.7451  -27.3923   15.2604 C   0  0  0  0  0  0  0  0  0  0  0  0
  -20.6518  -27.8553   21.8670 C   0  0  0  0  0  0  0  0  0  0  0  0
  -19.6406  -26.9435   19.7660 C   0  0  0  0  0  0  0  0  0  0  0  0
  -19.7427  -29.4091   20.1311 C   0  0  0  0  0  0  0  0  0  0  0  0
  -24.4811  -28.1050   15.3647 C   0  0  0  0  0  0  0  0  0  0  0  0
  -27.1533  -23.2341   21.0257 C   0  0  0  0  0  0  0  0  0  1  0  0
  -28.1213  -19.0219   23.5450 C   0  0  0  0  0  0  0  0  0  0  0  0
  -21.8686  -28.1445   19.6083 C   0  0  1  0  0  0  0  0  0  0  0  0
  -22.0292  -27.9802   15.8246 C   0  0  2  0  0  0  0  0  0  0  0  0
  -20.5032  -28.0830   20.3495 C   0  0  0  0  0  0  0  0  0  0  0  0
  -25.9772  -11.7567   21.2297 N   0  0  0  0  0  0  0  0  0  0  0  0
  -29.2288  -20.1920   20.1318 N   0  0  0  0  0  0  0  0  0  0  0  0
  -26.2446  -12.7761   20.3958 N   0  0  0  0  0  0  0  0  0  0  0  0
  -24.0010  -28.8067   20.6751 N   0  0  0  0  0  0  0  0  0  0  0  0
  -29.9006  -13.9121   20.1837 N   0  0  0  0  0  0  0  0  0  0  0  0
  -30.0036  -16.2910   20.1796 N   0  0  0  0  0  0  0  0  0  0  0  0
  -25.2712  -14.6640   19.3475 N   0  0  0  0  0  0  0  0  0  0  0  0
  -21.8634  -12.9371   21.7560 N   0  0  0  0  0  0  0  0  0  0  0  0
  -25.1762  -30.5168   23.6736 N   0  0  0  0  0  0  0  0  0  0  0  0
  -21.7594  -28.3863   18.1737 N   0  0  0  0  0  0  0  0  0  0  0  0
  -23.1590  -27.5764   14.9407 N   0  3  0  0  0  0  0  0  0  0  0  0
  -22.4592  -14.6144   20.3103 O   0  0  0  0  0  0  0  0  0  0  0  0
  -23.7335  -28.7469   23.2168 O   0  0  0  0  0  0  0  0  0  0  0  0
  -22.3986  -30.4022   20.1067 O   0  0  0  0  0  0  0  0  0  0  0  0
  -22.8641  -26.4598   17.5064 O   0  0  0  0  0  0  0  0  0  0  0  0
  -31.7750  -15.0631   19.4902 O   0  0  0  0  0  0  0  0  0  0  0  0
  -22.0808   -8.4065   24.9905 O   0  0  0  0  0  0  0  0  0  0  0  0
  -28.1307  -24.2563   21.2157 O   0  0  0  0  0  0  0  0  0  1  0  0
  -22.8972   -3.0072   24.2259 F   0  0  0  0  0  0  0  0  0  0  0  0
  -19.9646   -6.7169   24.4341 F   0  0  0  0  0  0  0  0  0  0  0  0
  1  2  1  0  0  0  0
  1  5  2  0  0  0  0
  2  6  2  0  0  0  0
  3  8  2  0  0  0  0
  3 16  1  0  0  0  0
  4  9  1  0  0  0  0
  4 16  2  0  0  0  0
  5 18  1  0  0  0  0
  6 20  1  0  0  0  0
  7 10  2  0  0  0  0
  7 19  1  0  0  0  0
  8 24  1  0  0  0  0
  9 24  2  0  0  0  0
 10 25  1  0  0  0  0
 11 12  2  0  0  0  0
 11 26  1  0  0  0  0
 12 27  1  0  0  0  0
 13 21  1  0  0  0  0
 13 25  2  0  0  0  0
 14 22  2  0  0  0  0
 14 23  1  0  0  0  0
 15 27  2  0  0  0  0
 15 28  1  0  0  0  0
 16 29  1  0  0  0  0
 17 29  1  0  0  0  0
 17 32  2  0  0  0  0
 17 33  1  0  0  0  0
 18 20  2  0  0  0  0
 18 38  1  0  0  0  0
 19 21  2  0  0  0  0
 19 39  1  0  0  0  0
 20 49  1  0  0  0  0
 21 40  1  0  0  0  0
 22 30  1  0  0  0  0
 22 62  1  0  0  0  0
 23 31  2  0  0  0  0
 23 61  1  0  0  0  0
 24 82  1  0  0  0  0
 25 83  1  0  0  0  0
 26 28  2  0  0  0  0
 26 82  1  0  0  0  0
 27 84  1  0  0  0  0
 28 85  1  0  0  0  0
 29 66  2  0  0  0  0
 30 50  1  0  0  0  0
 30 67  2  0  0  0  0
 31 53  1  0  0  0  0
 31 67  1  0  0  0  0
 32 68  1  0  0  0  0
 32 72  1  0  0  0  0
 33 73  1  0  0  0  0
 33 77  2  0  0  0  0
 34 51  1  0  0  0  0
 34 74  1  0  0  0  0
 34 78  2  0  0  0  0
 35 63  1  0  0  0  0
 35 69  1  0  0  0  0
 35 79  2  0  0  0  0
 36 64  1  0  0  0  0
 36 75  1  0  0  0  0
 36 80  2  0  0  0  0
 37 70  1  0  0  0  0
 37 71  1  0  0  0  0
 37 81  2  0  0  0  0
 38 41  1  0  0  0  0
 39 51  1  0  0  0  0
 40 69  1  0  0  0  0
 41 43  1  0  0  0  0
 42 44  1  0  0  0  0
 42 45  1  0  0  0  0
 43 49  1  0  0  0  0
 44 52  1  0  0  0  0
 45 70  1  0  0  0  0
 46 50  1  0  0  0  0
 46 71  1  0  0  0  0
 47 50  1  0  0  0  0
 47 71  1  0  0  0  0
 48 52  1  0  0  0  0
 48 70  1  0  0  0  0
 49 74  1  0  0  0  0
 51 69  1  0  0  0  0
 52 68  1  0  0  0  0
 54 62  1  0  0  0  0
 55 62  1  0  0  0  0
 56 64  1  0  0  0  0
 57 65  1  0  0  0  0
 58 65  1  0  0  0  0
 59 65  1  0  0  0  0
 60 76  1  0  0  0  0
 61 83  1  0  0  0  0
 63 65  1  0  0  0  0
 63 75  1  0  0  0  0
 64 76  1  0  0  0  0
 66 68  1  0  0  0  0
M  CHG  1  76   1
M  ISO  4  37 100  61 101  71 100  83 101
M  END
> <Batch ID>
0178

> <Smiles>
CNC(C)C(=O)NC(C(=O)N1Cc2cc([101O:1][101CH2:1]c3cc(C(C)C)c(C4C[100N:0]([100C:0](=O)N5CCCC(n6nc(-c7ccc(Oc8ccc(F)cc8F)cc7)c(C(N)=O)c6N)C5)C4)nc3C)ccc2CC1C(=O)NC1CCCc2ccccc21)C(C)(C)C

> <Shape>
0.317

> <Color>
0.159

> <Negative vol penalty>
0.000

$$$$

  -OEChem-04052322553D

 78 86  0     1  0  0  0  0  0999 V2000
  -28.9137  -24.7547   16.8132 C   0  0  0  0  0  0  0  0  0  0  0  0
  -27.7395  -24.8022   17.5579 C   0  0  0  0  0  0  0  0  0  0  0  0
  -25.1545  -13.5685   21.8349 C   0  0  0  0  0  0  0  0  0  0  0  0
  -25.7182  -13.9013   19.5093 C   0  0  0  0  0  0  0  0  0  0  0  0
  -30.0426  -25.4473   17.2488 C   0  0  0  0  0  0  0  0  0  0  0  0
  -27.6940  -25.5415   18.7394 C   0  0  0  0  0  0  0  0  0  0  0  0
  -23.4881  -28.3360   19.1216 C   0  0  0  0  0  0  0  0  0  0  0  0
  -25.0841  -12.1920   21.6209 C   0  0  0  0  0  0  0  0  0  0  0  0
  -25.6478  -12.5247   19.2953 C   0  0  0  0  0  0  0  0  0  0  0  0
  -22.3180  -27.6774   19.4971 C   0  0  0  0  0  0  0  0  0  0  0  0
  -22.8861   -9.9850   20.3085 C   0  0  0  0  0  0  0  0  0  0  0  0
  -21.8006   -9.2998   20.8542 C   0  0  0  0  0  0  0  0  0  0  0  0
  -22.6055  -28.4685   21.7578 C   0  0  0  0  0  0  0  0  0  0  0  0
  -23.3145   -7.9348   22.1513 C   0  0  0  0  0  0  0  0  0  0  0  0
  -25.4715  -14.4232   20.7791 C   0  0  0  0  0  0  0  0  0  0  0  0
  -26.6762  -16.5900   21.3802 C   0  0  0  0  0  0  0  0  0  0  0  0
  -30.0080  -26.2033   18.4311 C   0  0  0  0  0  0  0  0  0  0  0  0
  -24.2327  -29.0579   20.0653 C   0  0  0  0  0  0  0  0  0  0  0  0
  -28.8240  -26.2438   19.1919 C   0  0  0  0  0  0  0  0  0  0  0  0
  -23.7833  -29.1375   21.3911 C   0  0  0  0  0  0  0  0  0  0  0  0
  -25.3307  -11.6701   20.3511 C   0  0  0  0  0  0  0  0  0  0  0  0
  -21.8781  -27.7412   20.8160 C   0  0  0  0  0  0  0  0  0  0  0  0
  -24.1858   -9.6451   20.6841 C   0  0  0  0  0  0  0  0  0  0  0  0
  -22.0148   -8.2747   21.7757 C   0  0  0  0  0  0  0  0  0  0  0  0
  -24.3999   -8.6201   21.6055 C   0  0  0  0  0  0  0  0  0  0  0  0
  -25.5439  -15.8453   20.9994 C   0  0  0  0  0  0  0  0  0  0  0  0
  -26.2258  -17.8853   21.4554 C   0  0  0  0  0  0  0  0  0  0  0  0
  -20.3358  -22.4926   23.8901 C   0  0  0  0  0  0  0  0  0  0  0  0
  -21.4575  -22.5456   23.1731 C   0  0  0  0  0  0  0  0  0  0  0  0
  -19.6161  -23.7304   23.5566 C   0  0  0  0  0  0  0  0  0  0  0  0
  -28.0154  -16.1502   21.6423 C   0  0  0  0  0  0  0  0  0  0  0  0
  -22.4581  -21.4615   23.2389 C   0  0  0  0  0  0  0  0  0  0  0  0
  -27.1769  -28.8385   21.2432 C   0  0  0  0  0  0  0  0  0  0  0  0
  -26.3776  -31.6184   22.7114 C   0  0  0  0  0  0  0  0  0  0  0  0
  -23.9174  -33.6712   23.8862 C   0  0  0  0  0  0  0  0  0  0  0  0
  -31.2676  -26.8968   18.8864 C   0  0  0  0  0  0  0  0  0  0  0  0
  -25.4784  -29.7849   19.6384 C   0  0  0  0  0  0  0  0  0  0  0  0
  -24.5355  -29.9162   22.4382 C   0  0  0  0  0  0  0  0  0  0  0  0
  -21.6362  -23.7433   22.3039 C   0  0  0  0  0  0  0  0  0  0  0  0
  -31.0252  -27.9612   19.9535 C   0  0  0  0  0  0  0  0  0  0  0  0
  -21.8929  -19.9721   19.9383 C   0  0  0  0  0  0  0  0  0  0  0  0
  -30.1000  -27.4254   21.0415 C   0  0  0  0  0  0  0  0  0  0  0  0
  -22.8607  -18.7925   19.9788 C   0  0  0  0  0  0  0  0  0  0  0  0
  -21.2893  -20.2638   21.3113 C   0  0  0  0  0  0  0  0  0  0  0  0
  -23.2779  -19.2864   22.4205 C   0  0  0  0  0  0  0  0  0  0  0  0
  -28.7279  -27.0549   20.4658 C   0  0  1  0  0  0  0  0  0  0  0  0
  -20.4136  -24.6108   22.6216 C   0  0  1  0  0  0  0  0  0  0  0  0
  -26.4330  -30.0647   20.7950 C   0  0  1  0  0  0  0  0  0  0  0  0
  -23.9329  -19.0050   21.0592 C   0  0  1  0  0  0  0  0  0  0  0  0
  -23.5741  -35.8566   25.0709 C   0  0  0  0  0  0  0  0  0  0  0  0
  -27.1903  -30.3143   25.3475 C   0  0  0  0  0  0  0  0  0  0  0  0
  -25.9605  -32.1354   26.5472 C   0  0  0  0  0  0  0  0  0  0  0  0
  -27.9106  -32.6960   25.0961 C   0  0  0  0  0  0  0  0  0  0  0  0
  -22.4126  -34.8048   21.6038 C   0  0  0  0  0  0  0  0  0  0  0  0
  -19.6146  -24.9885   21.3872 C   0  0  0  0  0  0  0  0  0  0  0  0
  -20.3974  -25.9131   20.4675 C   0  0  0  0  0  0  0  0  0  1  0  0
  -25.7328  -31.9862   24.0259 C   0  0  1  0  0  0  0  0  0  0  0  0
  -23.6863  -35.1626   23.7224 C   0  0  2  0  0  0  0  0  0  0  0  0
  -26.6852  -31.7666   25.2351 C   0  0  0  0  0  0  0  0  0  0  0  0
  -24.4559  -16.6043   20.8437 N   0  0  0  0  0  0  0  0  0  0  0  0
  -24.9026  -17.8395   21.1283 N   0  0  0  0  0  0  0  0  0  0  0  0
  -22.3320  -20.4050   22.3387 N   0  0  0  0  0  0  0  0  0  0  0  0
  -25.7509  -30.6045   21.9730 N   0  0  0  0  0  0  0  0  0  0  0  0
  -26.8365  -19.0477   21.7690 N   0  0  0  0  0  0  0  0  0  0  0  0
  -28.3066  -14.7848   21.5183 N   0  0  0  0  0  0  0  0  0  0  0  0
  -27.9324  -28.2445   20.2502 N   0  0  0  0  0  0  0  0  0  0  0  0
  -25.2603  -33.3586   23.8789 N   0  0  0  0  0  0  0  0  0  0  0  0
  -22.4303  -35.4114   22.9597 N   0  3  0  0  0  0  0  0  0  0  0  0
  -18.5111  -23.9962   24.0063 O   0  0  0  0  0  0  0  0  0  0  0  0
  -28.9230  -16.9421   21.9925 O   0  0  0  0  0  0  0  0  0  0  0  0
  -23.3430  -21.5554   24.0914 O   0  0  0  0  0  0  0  0  0  0  0  0
  -27.0744  -28.4602   22.4042 O   0  0  0  0  0  0  0  0  0  0  0  0
  -27.3956  -32.2137   22.3497 O   0  0  0  0  0  0  0  0  0  0  0  0
  -22.9986  -32.8646   24.0121 O   0  0  0  0  0  0  0  0  0  0  0  0
  -25.2623  -10.3269   20.1420 O   0  0  0  0  0  0  0  0  0  0  0  0
  -20.7367  -27.0988   21.1854 O   0  0  0  0  0  0  0  0  0  1  0  0
  -20.9723   -7.6178   22.3008 F   0  0  0  0  0  0  0  0  0  0  0  0
  -25.6462   -8.2898   21.9711 F   0  0  0  0  0  0  0  0  0  0  0  0
  1  2  1  0  0  0  0
  1  5  2  0  0  0  0
  2  6  2  0  0  0  0
  3  8  2  0  0  0  0
  3 15  1  0  0  0  0
  4  9  1  0  0  0  0
  4 15  2  0  0  0  0
  5 17  1  0  0  0  0
  6 19  1  0  0  0  0
  7 10  2  0  0  0  0
  7 18  1  0  0  0  0
  8 21  1  0  0  0  0
  9 21  2  0  0  0  0
 10 22  1  0  0  0  0
 11 12  2  0  0  0  0
 11 23  1  0  0  0  0
 12 24  1  0  0  0  0
 13 20  1  0  0  0  0
 13 22  2  0  0  0  0
 14 24  2  0  0  0  0
 14 25  1  0  0  0  0
 15 26  1  0  0  0  0
 16 26  1  0  0  0  0
 16 27  2  0  0  0  0
 16 31  1  0  0  0  0
 17 19  2  0  0  0  0
 17 36  1  0  0  0  0
 18 20  2  0  0  0  0
 18 37  1  0  0  0  0
 19 46  1  0  0  0  0
 20 38  1  0  0  0  0
 21 75  1  0  0  0  0
 22 76  1  0  0  0  0
 23 25  2  0  0  0  0
 23 75  1  0  0  0  0
 24 77  1  0  0  0  0
 25 78  1  0  0  0  0
 26 60  2  0  0  0  0
 27 61  1  0  0  0  0
 27 64  1  0  0  0  0
 28 29  2  0  0  0  0
 28 30  1  0  0  0  0
 29 32  1  0  0  0  0
 29 39  1  0  0  0  0
 30 47  1  0  0  0  0
 30 69  2  0  0  0  0
 31 65  1  0  0  0  0
 31 70  2  0  0  0  0
 32 62  1  0  0  0  0
 32 71  2  0  0  0  0
 33 48  1  0  0  0  0
 33 66  1  0  0  0  0
 33 72  2  0  0  0  0
 34 57  1  0  0  0  0
 34 63  1  0  0  0  0
 34 73  2  0  0  0  0
 35 58  1  0  0  0  0
 35 67  1  0  0  0  0
 35 74  2  0  0  0  0
 36 40  1  0  0  0  0
 37 48  1  0  0  0  0
 38 63  1  0  0  0  0
 39 47  1  0  0  0  0
 40 42  1  0  0  0  0
 41 43  1  0  0  0  0
 41 44  1  0  0  0  0
 42 46  1  0  0  0  0
 43 49  1  0  0  0  0
 44 62  1  0  0  0  0
 45 49  1  0  0  0  0
 45 62  1  0  0  0  0
 46 66  1  0  0  0  0
 47 55  1  0  0  0  0
 48 63  1  0  0  0  0
 49 61  1  0  0  0  0
 50 58  1  0  0  0  0
 51 59  1  0  0  0  0
 52 59  1  0  0  0  0
 53 59  1  0  0  0  0
 54 68  1  0  0  0  0
 55 56  1  0  0  0  0
 56 76  1  0  0  0  0
 57 59  1  0  0  0  0
 57 67  1  0  0  0  0
 58 68  1  0  0  0  0
 60 61  1  0  0  0  0
M  CHG  1  68   1
M  ISO  4  29 100  32 100  56 101  76 101
M  END
> <Batch ID>
0178

> <Smiles>
CNC(C)C(=O)NC(C(=O)N1Cc2cc([101O:1][101CH2:1]C=C3C[100CH:0]([100C:0](=O)N4CCCC(n5nc(-c6ccc(Oc7ccc(F)cc7F)cc6)c(C(N)=O)c5N)C4)CC3=O)ccc2CC1C(=O)NC1CCCc2ccccc21)C(C)(C)C

> <Shape>
0.275

> <Color>
0.092

> <Negative vol penalty>
0.000

$$$$

  -OEChem-04052322553D

 83 92  0     1  0  0  0  0  0999 V2000
  -22.4920  -33.1276   16.1195 C   0  0  0  0  0  0  0  0  0  0  0  0
  -22.4065  -31.7408   16.0499 C   0  0  0  0  0  0  0  0  0  0  0  0
  -23.0539   -9.9641   19.8923 C   0  0  0  0  0  0  0  0  0  0  0  0
  -23.8605   -9.8569   22.1672 C   0  0  0  0  0  0  0  0  0  0  0  0
  -23.7053  -33.7348   16.4404 C   0  0  0  0  0  0  0  0  0  0  0  0
  -23.5347  -30.9604   16.3001 C   0  0  0  0  0  0  0  0  0  0  0  0
  -25.4460  -24.6348   19.0661 C   0  0  0  0  0  0  0  0  0  0  0  0
  -22.3072   -8.8049   20.1024 C   0  0  0  0  0  0  0  0  0  0  0  0
  -23.1137   -8.6976   22.3773 C   0  0  0  0  0  0  0  0  0  0  0  0
  -26.1890  -23.4995   18.7456 C   0  0  0  0  0  0  0  0  0  0  0  0
  -19.8930   -7.8915   23.0079 C   0  0  0  0  0  0  0  0  0  0  0  0
  -19.1598   -7.8002   24.1910 C   0  0  0  0  0  0  0  0  0  0  0  0
  -29.2235  -19.7326   20.2609 C   0  0  0  0  0  0  0  0  0  0  0  0
  -28.2127  -24.6553   19.3683 C   0  0  0  0  0  0  0  0  0  0  0  0
  -20.4024   -5.8223   24.8084 C   0  0  0  0  0  0  0  0  0  0  0  0
  -23.8306  -10.4901   20.9247 C   0  0  0  0  0  0  0  0  0  0  0  0
  -24.1877  -13.0160   20.9181 C   0  0  0  0  0  0  0  0  0  0  0  0
  -24.8466  -32.9612   16.7041 C   0  0  0  0  0  0  0  0  0  0  0  0
  -26.0830  -25.7946   19.5305 C   0  0  0  0  0  0  0  0  0  0  0  0
  -24.7648  -31.5579   16.6235 C   0  0  0  0  0  0  0  0  0  0  0  0
  -30.2630  -20.0869   19.4227 C   0  0  0  0  0  0  0  0  0  0  0  0
  -27.4753  -25.8032   19.6964 C   0  0  0  0  0  0  0  0  0  0  0  0
  -29.4170  -18.6621   21.1314 C   0  0  0  0  0  0  0  0  0  0  0  0
  -22.3371   -8.1716   21.3449 C   0  0  0  0  0  0  0  0  0  0  0  0
  -27.5728  -23.5105   18.8940 C   0  0  0  0  0  0  0  0  0  0  0  0
  -20.8808   -6.9481   22.7250 C   0  0  0  0  0  0  0  0  0  0  0  0
  -19.4145   -6.7657   25.0912 C   0  0  0  0  0  0  0  0  0  0  0  0
  -21.1355   -5.9136   23.6252 C   0  0  0  0  0  0  0  0  0  0  0  0
  -24.6026  -11.6873   20.7082 C   0  0  0  0  0  0  0  0  0  0  0  0
  -31.4452  -19.3526   19.4748 C   0  0  0  0  0  0  0  0  0  0  0  0
  -30.6406  -17.9939   21.1083 C   0  0  0  0  0  0  0  0  0  0  0  0
  -25.2774  -13.7753   20.5684 C   0  0  0  0  0  0  0  0  0  0  0  0
  -22.9297  -13.5189   21.3874 C   0  0  0  0  0  0  0  0  0  0  0  0
  -26.3483  -28.7824   18.4786 C   0  0  0  0  0  0  0  0  0  0  0  0
  -27.8204  -29.2432   21.3322 C   0  0  0  0  0  0  0  0  0  0  0  0
  -29.5467  -27.9003   23.9520 C   0  0  0  0  0  0  0  0  0  0  0  0
  -30.7709  -14.7510   20.6915 C   0  0  0  0  0  0  0  0  0  0  0  0
  -26.1476  -33.6642   17.0005 C   0  0  0  0  0  0  0  0  0  0  0  0
  -25.2647  -27.0022   19.8972 C   0  0  0  0  0  0  0  0  0  0  0  0
  -28.2051  -27.0163   20.2106 C   0  0  0  0  0  0  0  0  0  0  0  0
  -32.4333  -19.8567   18.4619 C   0  0  0  0  0  0  0  0  0  0  0  0
  -27.2051  -32.7533   17.6188 C   0  0  0  0  0  0  0  0  0  0  0  0
  -31.8679  -21.2561   18.1800 C   0  0  0  0  0  0  0  0  0  0  0  0
  -29.5681  -12.4902   18.2179 C   0  0  0  0  0  0  0  0  0  0  0  0
  -27.2904  -31.4373   16.8521 C   0  0  0  0  0  0  0  0  0  0  0  0
  -28.1377  -12.1849   18.6660 C   0  0  0  0  0  0  0  0  0  0  0  0
  -30.5111  -12.6478   19.4087 C   0  0  0  0  0  0  0  0  0  0  0  0
  -28.6432  -13.3233   20.8676 C   0  0  0  0  0  0  0  0  0  0  0  0
  -30.3386  -21.1533   18.3716 C   0  0  2  0  0  0  0  0  0  0  0  0
  -25.9604  -30.6764   16.9125 C   0  0  1  0  0  0  0  0  0  0  0  0
  -26.0686  -28.2985   19.8734 C   0  0  1  0  0  0  0  0  0  0  0  0
  -27.6440  -13.2111   19.7034 C   0  0  2  0  0  0  0  0  0  0  0  0
  -28.3197  -18.2548   22.0550 C   0  0  0  0  0  0  0  0  0  0  0  0
  -30.6487  -28.5325   26.1161 C   0  0  0  0  0  0  0  0  0  0  0  0
  -30.1705  -30.4264   19.7872 C   0  0  0  0  0  0  0  0  0  0  0  0
  -31.5704  -30.1538   21.8449 C   0  0  0  0  0  0  0  0  0  0  0  0
  -29.5771  -31.6531   21.8842 C   0  0  0  0  0  0  0  0  0  0  0  0
  -27.7485  -26.1443   25.5146 C   0  0  0  0  0  0  0  0  0  0  0  0
  -30.8771  -16.8396   22.0278 C   0  0  0  0  0  0  0  0  0  0  0  0
  -29.7142  -22.4850   18.7574 C   0  0  0  0  0  0  0  0  0  1  0  0
  -29.2426  -29.1477   21.8293 C   0  0  1  0  0  0  0  0  0  0  0  0
  -29.3708  -28.0425   25.4531 C   0  0  2  0  0  0  0  0  0  0  0  0
  -30.1269  -30.3229   21.3248 C   0  0  0  0  0  0  0  0  0  0  0  0
  -25.8580  -11.6039   20.2597 N   0  0  0  0  0  0  0  0  0  0  0  0
  -31.6727  -18.3093   20.2903 N   0  0  0  0  0  0  0  0  0  0  0  0
  -26.2412  -12.8898   20.1849 N   0  0  0  0  0  0  0  0  0  0  0  0
  -27.3615  -28.1743   20.5496 N   0  0  0  0  0  0  0  0  0  0  0  0
  -29.9860  -13.6362   20.3539 N   0  0  0  0  0  0  0  0  0  0  0  0
  -25.4957  -15.1075   20.5546 N   0  0  0  0  0  0  0  0  0  0  0  0
  -21.9185  -12.6008   21.7018 N   0  0  0  0  0  0  0  0  0  0  0  0
  -25.8098  -30.0229   18.1949 N   0  0  0  0  0  0  0  0  0  0  0  0
  -29.1611  -29.0421   23.2821 N   0  0  0  0  0  0  0  0  0  0  0  0
  -30.1956  -15.6421   21.5891 N   0  0  0  0  0  0  0  0  0  0  0  0
  -29.0003  -26.7317   26.0577 N   0  3  0  0  0  0  0  0  0  0  0  0
  -22.7033  -14.7468   21.5082 O   0  0  0  0  0  0  0  0  0  0  0  0
  -27.0054  -28.0827   17.7168 O   0  0  0  0  0  0  0  0  0  0  0  0
  -27.1393  -30.2266   21.6335 O   0  0  0  0  0  0  0  0  0  0  0  0
  -29.9861  -26.8798   23.4265 O   0  0  0  0  0  0  0  0  0  0  0  0
  -31.8986  -14.9411   20.2233 O   0  0  0  0  0  0  0  0  0  0  0  0
  -21.6084   -7.0405   21.5503 O   0  0  0  0  0  0  0  0  0  0  0  0
  -28.3004  -22.4039   18.5813 O   0  0  0  0  0  0  0  0  0  1  0  0
  -18.7114   -6.6791   26.2281 F   0  0  0  0  0  0  0  0  0  0  0  0
  -22.0840   -5.0050   23.3595 F   0  0  0  0  0  0  0  0  0  0  0  0
  1  2  1  0  0  0  0
  1  5  2  0  0  0  0
  2  6  2  0  0  0  0
  3  8  2  0  0  0  0
  3 16  1  0  0  0  0
  4  9  1  0  0  0  0
  4 16  2  0  0  0  0
  5 18  1  0  0  0  0
  6 20  1  0  0  0  0
  7 10  2  0  0  0  0
  7 19  1  0  0  0  0
  8 24  1  0  0  0  0
  9 24  2  0  0  0  0
 10 25  1  0  0  0  0
 11 12  2  0  0  0  0
 11 26  1  0  0  0  0
 12 27  1  0  0  0  0
 13 21  1  0  0  0  0
 13 23  2  0  0  0  0
 14 22  1  0  0  0  0
 14 25  2  0  0  0  0
 15 27  2  0  0  0  0
 15 28  1  0  0  0  0
 16 29  1  0  0  0  0
 17 29  1  0  0  0  0
 17 32  2  0  0  0  0
 17 33  1  0  0  0  0
 18 20  2  0  0  0  0
 18 38  1  0  0  0  0
 19 22  2  0  0  0  0
 19 39  1  0  0  0  0
 20 50  1  0  0  0  0
 21 30  2  0  0  0  0
 21 49  1  0  0  0  0
 22 40  1  0  0  0  0
 23 31  1  0  0  0  0
 23 53  1  0  0  0  0
 24 80  1  0  0  0  0
 25 81  1  0  0  0  0
 26 28  2  0  0  0  0
 26 80  1  0  0  0  0
 27 82  1  0  0  0  0
 28 83  1  0  0  0  0
 29 64  2  0  0  0  0
 30 41  1  0  0  0  0
 30 65  1  0  0  0  0
 31 59  1  0  0  0  0
 31 65  2  0  0  0  0
 32 66  1  0  0  0  0
 32 69  1  0  0  0  0
 33 70  1  0  0  0  0
 33 75  2  0  0  0  0
 34 51  1  0  0  0  0
 34 71  1  0  0  0  0
 34 76  2  0  0  0  0
 35 61  1  0  0  0  0
 35 67  1  0  0  0  0
 35 77  2  0  0  0  0
 36 62  1  0  0  0  0
 36 72  1  0  0  0  0
 36 78  2  0  0  0  0
 37 68  1  0  0  0  0
 37 73  1  0  0  0  0
 37 79  2  0  0  0  0
 38 42  1  0  0  0  0
 39 51  1  0  0  0  0
 40 67  1  0  0  0  0
 41 43  1  0  0  0  0
 42 45  1  0  0  0  0
 43 49  1  0  0  0  0
 44 46  1  0  0  0  0
 44 47  1  0  0  0  0
 45 50  1  0  0  0  0
 46 52  1  0  0  0  0
 47 68  1  0  0  0  0
 48 52  1  0  0  0  0
 48 68  1  0  0  0  0
 49 60  1  0  0  0  0
 50 71  1  0  0  0  0
 51 67  1  0  0  0  0
 52 66  1  0  0  0  0
 54 62  1  0  0  0  0
 55 63  1  0  0  0  0
 56 63  1  0  0  0  0
 57 63  1  0  0  0  0
 58 74  1  0  0  0  0
 59 73  1  0  0  0  0
 60 81  1  0  0  0  0
 61 63  1  0  0  0  0
 61 72  1  0  0  0  0
 62 74  1  0  0  0  0
 64 66  1  0  0  0  0
M  CHG  1  74   1
M  ISO  4  37 100  60 101  73 100  81 101
M  END
> <Batch ID>
0178

> <Smiles>
CNC(C)C(=O)NC(C(=O)N1Cc2cc([101O:1][101CH2:1]C3CCc4nc(C[100NH:0][100C:0](=O)N5CCCC(n6nc(-c7ccc(Oc8ccc(F)cc8F)cc7)c(C(N)=O)c6N)C5)c(C)cc43)ccc2CC1C(=O)NC1CCCc2ccccc21)C(C)(C)C

> <Shape>
0.265

> <Color>
0.206

> <Negative vol penalty>
0.000

$$$$

  -OEChem-04052322553D

 85 94  0     1  0  0  0  0  0999 V2000
  -31.0478  -35.1431   20.8600 C   0  0  0  0  0  0  0  0  0  0  0  0
  -30.8190  -33.8468   20.4098 C   0  0  0  0  0  0  0  0  0  0  0  0
  -24.5124   -9.1400   21.4250 C   0  0  0  0  0  0  0  0  0  0  0  0
  -23.1741  -11.1487   21.5320 C   0  0  0  0  0  0  0  0  0  0  0  0
  -30.4930  -35.5690   22.0661 C   0  0  0  0  0  0  0  0  0  0  0  0
  -30.0360  -32.9753   21.1660 C   0  0  0  0  0  0  0  0  0  0  0  0
  -26.2439  -28.6564   19.0510 C   0  0  0  0  0  0  0  0  0  0  0  0
  -25.3733  -20.8412   19.1531 C   0  0  0  0  0  0  0  0  0  0  0  0
  -23.7338   -8.5677   22.4309 C   0  0  0  0  0  0  0  0  0  0  0  0
  -22.3955  -10.5763   22.5378 C   0  0  0  0  0  0  0  0  0  0  0  0
  -26.3902  -27.2801   18.8831 C   0  0  0  0  0  0  0  0  0  0  0  0
  -20.7102   -7.0779   22.6969 C   0  0  0  0  0  0  0  0  0  0  0  0
  -20.2909   -5.7592   22.5209 C   0  0  0  0  0  0  0  0  0  0  0  0
  -25.0864  -22.1688   19.4506 C   0  0  0  0  0  0  0  0  0  0  0  0
  -25.3260  -26.9129   21.0166 C   0  0  0  0  0  0  0  0  0  0  0  0
  -21.4518   -5.1205   24.5411 C   0  0  0  0  0  0  0  0  0  0  0  0
  -24.2326  -10.4306   20.9756 C   0  0  0  0  0  0  0  0  0  0  0  0
  -24.8187  -10.9513   18.5480 C   0  0  0  0  0  0  0  0  0  0  0  0
  -29.6949  -34.7054   22.8328 C   0  0  0  0  0  0  0  0  0  0  0  0
  -25.6464  -29.1726   20.2098 C   0  0  0  0  0  0  0  0  0  0  0  0
  -29.4711  -33.3897   22.3842 C   0  0  0  0  0  0  0  0  0  0  0  0
  -26.4249  -20.1717   19.7949 C   0  0  0  0  0  0  0  0  0  0  0  0
  -25.1710  -28.2960   21.1956 C   0  0  0  0  0  0  0  0  0  0  0  0
  -22.6753   -9.2858   22.9873 C   0  0  0  0  0  0  0  0  0  0  0  0
  -25.9338  -26.4083   19.8673 C   0  0  0  0  0  0  0  0  0  0  0  0
  -21.5004   -7.4178   23.7949 C   0  0  0  0  0  0  0  0  0  0  0  0
  -20.6616   -4.7805   23.4430 C   0  0  0  0  0  0  0  0  0  0  0  0
  -21.8711   -6.4391   24.7171 C   0  0  0  0  0  0  0  0  0  0  0  0
  -25.0369  -11.0226   19.9370 C   0  0  0  0  0  0  0  0  0  0  0  0
  -27.1233  -20.8914   20.7728 C   0  0  0  0  0  0  0  0  0  0  0  0
  -25.8591  -22.7956   20.4063 C   0  0  0  0  0  0  0  0  0  0  0  0
  -25.8529  -11.6705   18.0006 C   0  0  0  0  0  0  0  0  0  0  0  0
  -23.7744  -10.2939   17.8180 C   0  0  0  0  0  0  0  0  0  0  0  0
  -26.6075  -31.0626   22.5780 C   0  0  0  0  0  0  0  0  0  0  0  0
  -23.4950  -30.8728   23.4716 C   0  0  0  0  0  0  0  0  0  0  0  0
  -20.5554  -29.1415   23.3818 C   0  0  0  0  0  0  0  0  0  0  0  0
  -29.3085  -16.0865   20.1005 C   0  0  0  0  0  0  0  0  0  0  0  0
  -29.1556  -35.1958   24.1531 C   0  0  0  0  0  0  0  0  0  0  0  0
  -25.4719  -30.6587   20.3636 C   0  0  0  0  0  0  0  0  0  0  0  0
  -24.5040  -28.7987   22.4490 C   0  0  0  0  0  0  0  0  0  0  0  0
  -28.2493  -20.2687   21.5500 C   0  0  0  0  0  0  0  0  0  0  0  0
  -28.0291  -34.3295   24.7105 C   0  0  0  0  0  0  0  0  0  0  0  0
  -28.1652  -18.7482   21.5845 C   0  0  0  0  0  0  0  0  0  0  0  0
  -30.3896  -12.9369   18.8405 C   0  0  0  0  0  0  0  0  0  0  0  0
  -28.3977  -32.8520   24.6213 C   0  0  0  0  0  0  0  0  0  0  0  0
  -29.1207  -12.0827   18.8533 C   0  0  0  0  0  0  0  0  0  0  0  0
  -30.4434  -13.8855   20.0359 C   0  0  0  0  0  0  0  0  0  0  0  0
  -27.9853  -13.8881   20.2135 C   0  0  0  0  0  0  0  0  0  0  0  0
  -26.7195  -18.7079   19.4983 C   0  0  2  0  0  0  0  0  0  0  0  0
  -28.6069  -32.4227   23.1640 C   0  0  1  0  0  0  0  0  0  0  0  0
  -25.3123  -31.0943   21.8169 C   0  0  1  0  0  0  0  0  0  0  0  0
  -27.8590  -12.9549   18.9971 C   0  0  2  0  0  0  0  0  0  0  0  0
  -28.0287  -18.2119   20.1617 C   0  0  2  0  0  0  0  0  0  0  0  0
  -18.1978  -29.2170   24.2382 C   0  0  0  0  0  0  0  0  0  0  0  0
  -27.7838  -19.2790   17.2894 C   0  0  0  0  0  0  0  0  0  0  0  0
  -24.4692  -29.9882   26.2245 C   0  0  0  0  0  0  0  0  0  0  0  0
  -22.1494  -29.1811   26.7092 C   0  0  0  0  0  0  0  0  0  0  0  0
  -22.5583  -31.6011   26.2627 C   0  0  0  0  0  0  0  0  0  0  0  0
  -19.4404  -29.2430   20.6422 C   0  0  0  0  0  0  0  0  0  0  0  0
  -25.5857  -24.2293   20.7544 C   0  0  0  0  0  0  0  0  0  1  0  0
  -22.6904  -29.9488   24.3536 C   0  0  1  0  0  0  0  0  0  0  0  0
  -19.1324  -29.5868   23.0969 C   0  0  2  0  0  0  0  0  0  0  0  0
  -26.7675  -18.4120   17.9896 C   0  0  2  0  0  0  0  0  0  0  0  0
  -22.9811  -30.1701   25.8649 C   0  0  0  0  0  0  0  0  0  0  0  0
  -26.1244  -11.7310   20.2524 N   0  0  0  0  0  0  0  0  0  0  0  0
  -26.8647  -22.1916   21.0720 N   0  0  0  0  0  0  0  0  0  0  0  0
  -26.5989  -12.1114   19.0539 N   0  0  0  0  0  0  0  0  0  0  0  0
  -24.3624  -30.2602   22.5559 N   0  0  0  0  0  0  0  0  0  0  0  0
  -29.2183  -14.6848   20.1144 N   0  0  0  0  0  0  0  0  0  0  0  0
  -26.1879  -11.9624   16.7259 N   0  0  0  0  0  0  0  0  0  0  0  0
  -22.7915   -9.5998   18.5367 N   0  0  0  0  0  0  0  0  0  0  0  0
  -27.3324  -32.2367   22.5041 N   0  0  0  0  0  0  0  0  0  0  0  0
  -21.2935  -30.1412   23.9794 N   0  0  0  0  0  0  0  0  0  0  0  0
  -28.0995  -16.7678   20.1720 N   0  0  0  0  0  0  0  0  0  0  0  0
  -18.6285  -28.9448   21.8500 N   0  3  0  0  0  0  0  0  0  0  0  0
  -23.7239  -10.3073   16.5646 O   0  0  0  0  0  0  0  0  0  0  0  0
  -26.9250  -30.0484   23.1882 O   0  0  0  0  0  0  0  0  0  0  0  0
  -23.3537  -32.0929   23.5857 O   0  0  0  0  0  0  0  0  0  0  0  0
  -20.9696  -28.0178   23.1055 O   0  0  0  0  0  0  0  0  0  0  0  0
  -30.3861  -16.6863   20.0242 O   0  0  0  0  0  0  0  0  0  0  0  0
  -21.9152   -8.7276   23.9687 O   0  0  0  0  0  0  0  0  0  0  0  0
  -26.0759  -25.0645   19.7063 O   0  0  0  0  0  0  0  0  0  1  0  0
  -20.2576   -3.5146   23.2748 F   0  0  0  0  0  0  0  0  0  0  0  0
  -22.6291   -6.7599   25.7746 F   0  0  0  0  0  0  0  0  0  0  0  0
  -25.5374  -18.6769   17.4861 F   0  0  0  0  0  0  0  0  0  0  0  0
  1  2  1  0  0  0  0
  1  5  2  0  0  0  0
  2  6  2  0  0  0  0
  3  9  2  0  0  0  0
  3 17  1  0  0  0  0
  4 10  1  0  0  0  0
  4 17  2  0  0  0  0
  5 19  1  0  0  0  0
  6 21  1  0  0  0  0
  7 11  2  0  0  0  0
  7 20  1  0  0  0  0
  8 14  2  0  0  0  0
  8 22  1  0  0  0  0
  9 24  1  0  0  0  0
 10 24  2  0  0  0  0
 11 25  1  0  0  0  0
 12 13  2  0  0  0  0
 12 26  1  0  0  0  0
 13 27  1  0  0  0  0
 14 31  1  0  0  0  0
 15 23  1  0  0  0  0
 15 25  2  0  0  0  0
 16 27  2  0  0  0  0
 16 28  1  0  0  0  0
 17 29  1  0  0  0  0
 18 29  1  0  0  0  0
 18 32  2  0  0  0  0
 18 33  1  0  0  0  0
 19 21  2  0  0  0  0
 19 38  1  0  0  0  0
 20 23  2  0  0  0  0
 20 39  1  0  0  0  0
 21 50  1  0  0  0  0
 22 30  2  0  0  0  0
 22 49  1  0  0  0  0
 23 40  1  0  0  0  0
 24 81  1  0  0  0  0
 25 82  1  0  0  0  0
 26 28  2  0  0  0  0
 26 81  1  0  0  0  0
 27 83  1  0  0  0  0
 28 84  1  0  0  0  0
 29 65  2  0  0  0  0
 30 41  1  0  0  0  0
 30 66  1  0  0  0  0
 31 60  1  0  0  0  0
 31 66  2  0  0  0  0
 32 67  1  0  0  0  0
 32 70  1  0  0  0  0
 33 71  1  0  0  0  0
 33 76  2  0  0  0  0
 34 51  1  0  0  0  0
 34 72  1  0  0  0  0
 34 77  2  0  0  0  0
 35 61  1  0  0  0  0
 35 68  1  0  0  0  0
 35 78  2  0  0  0  0
 36 62  1  0  0  0  0
 36 73  1  0  0  0  0
 36 79  2  0  0  0  0
 37 69  1  0  0  0  0
 37 74  1  0  0  0  0
 37 80  2  0  0  0  0
 38 42  1  0  0  0  0
 39 51  1  0  0  0  0
 40 68  1  0  0  0  0
 41 43  1  0  0  0  0
 42 45  1  0  0  0  0
 43 53  1  0  0  0  0
 44 46  1  0  0  0  0
 44 47  1  0  0  0  0
 45 50  1  0  0  0  0
 46 52  1  0  0  0  0
 47 69  1  0  0  0  0
 48 52  1  0  0  0  0
 48 69  1  0  0  0  0
 49 53  1  0  0  0  0
 49 63  1  0  0  0  0
 50 72  1  0  0  0  0
 51 68  1  0  0  0  0
 52 67  1  0  0  0  0
 53 74  1  0  0  0  0
 54 62  1  0  0  0  0
 55 63  1  0  0  0  0
 56 64  1  0  0  0  0
 57 64  1  0  0  0  0
 58 64  1  0  0  0  0
 59 75  1  0  0  0  0
 60 82  1  0  0  0  0
 61 64  1  0  0  0  0
 61 73  1  0  0  0  0
 62 75  1  0  0  0  0
 63 85  1  0  0  0  0
 65 67  1  0  0  0  0
M  CHG  1  75   1
M  ISO  4  37 100  60 101  74 100  82 101
M  END
> <Batch ID>
0178

> <Smiles>
CNC(C)C(=O)NC(C(=O)N1Cc2cc([101O:1][101CH2:1]c3ccc4c(n3)CCC([100NH:0][100C:0](=O)N3CCCC(n5nc(-c6ccc(Oc7ccc(F)cc7F)cc6)c(C(N)=O)c5N)C3)C4C(C)F)ccc2CC1C(=O)NC1CCCc2ccccc21)C(C)(C)C

> <Shape>
0.264

> <Color>
0.096

> <Negative vol penalty>
0.000

$$$$

  -OEChem-04052322553D

 80 89  0     1  0  0  0  0  0999 V2000
  -17.1487  -26.0513   21.9665 C   0  0  0  0  0  0  0  0  0  0  0  0
  -18.3448  -26.0377   21.2562 C   0  0  0  0  0  0  0  0  0  0  0  0
  -29.7506  -17.9677   19.4327 C   0  0  0  0  0  0  0  0  0  0  0  0
  -30.9090  -18.1480   21.5452 C   0  0  0  0  0  0  0  0  0  0  0  0
  -17.0065  -26.8862   23.0741 C   0  0  0  0  0  0  0  0  0  0  0  0
  -19.3991  -26.8598   21.6524 C   0  0  0  0  0  0  0  0  0  0  0  0
  -23.8505  -24.4454   21.6548 C   0  0  0  0  0  0  0  0  0  0  0  0
  -30.1140  -16.6237   19.3481 C   0  0  0  0  0  0  0  0  0  0  0  0
  -31.2724  -16.8039   21.4606 C   0  0  0  0  0  0  0  0  0  0  0  0
  -24.4722  -24.2548   20.4215 C   0  0  0  0  0  0  0  0  0  0  0  0
  -29.0990  -13.6809   20.6682 C   0  0  0  0  0  0  0  0  0  0  0  0
  -28.1168  -12.7666   20.2878 C   0  0  0  0  0  0  0  0  0  0  0  0
  -25.9981  -23.0328   15.6870 C   0  0  0  0  0  0  0  0  0  0  0  0
  -25.9128  -26.1385   20.8634 C   0  0  0  0  0  0  0  0  0  0  0  0
  -29.4465  -12.1353   18.3719 C   0  0  0  0  0  0  0  0  0  0  0  0
  -26.8024  -23.0418   14.5656 C   0  0  0  0  0  0  0  0  0  0  0  0
  -30.1481  -18.7299   20.5313 C   0  0  0  0  0  0  0  0  0  0  0  0
  -28.6120  -20.6498   21.2108 C   0  0  0  0  0  0  0  0  0  0  0  0
  -18.0629  -27.7119   23.4898 C   0  0  0  0  0  0  0  0  0  0  0  0
  -24.2487  -25.4925   22.4983 C   0  0  0  0  0  0  0  0  0  0  0  0
  -19.2704  -27.7075   22.7658 C   0  0  0  0  0  0  0  0  0  0  0  0
  -25.2964  -26.3387   22.1079 C   0  0  0  0  0  0  0  0  0  0  0  0
  -30.8749  -16.0418   20.3620 C   0  0  0  0  0  0  0  0  0  0  0  0
  -25.5015  -25.1032   20.0243 C   0  0  0  0  0  0  0  0  0  0  0  0
  -30.2549  -13.8226   19.9004 C   0  0  0  0  0  0  0  0  0  0  0  0
  -28.2905  -11.9937   19.1397 C   0  0  0  0  0  0  0  0  0  0  0  0
  -30.4287  -13.0498   18.7523 C   0  0  0  0  0  0  0  0  0  0  0  0
  -29.7735  -20.1184   20.6190 C   0  0  0  0  0  0  0  0  0  0  0  0
  -26.4507  -23.7842   16.7523 C   0  0  0  0  0  0  0  0  0  0  0  0
  -28.7262  -22.0070   21.0333 C   0  0  0  0  0  0  0  0  0  0  0  0
  -28.2937  -24.4220   15.5845 C   0  0  0  0  0  0  0  0  0  0  0  0
  -27.5268  -19.9768   21.8629 C   0  0  0  0  0  0  0  0  0  0  0  0
  -22.8268  -28.0684   23.7009 C   0  0  0  0  0  0  0  0  0  0  0  0
  -25.6117  -28.3621   25.3382 C   0  0  0  0  0  0  0  0  0  0  0  0
  -28.9464  -27.6630   25.5315 C   0  0  0  0  0  0  0  0  0  0  0  0
  -31.5634  -25.3346   17.0157 C   0  0  0  0  0  0  0  0  0  0  0  0
  -17.8458  -28.6322   24.6648 C   0  0  0  0  0  0  0  0  0  0  0  0
  -23.5861  -25.6682   23.8371 C   0  0  0  0  0  0  0  0  0  0  0  0
  -25.7749  -27.4652   22.9857 C   0  0  0  0  0  0  0  0  0  0  0  0
  -19.1406  -29.1968   25.2437 C   0  0  0  0  0  0  0  0  0  0  0  0
  -31.9855  -25.4787   20.5469 C   0  0  0  0  0  0  0  0  0  0  0  0
  -20.0477  -29.7045   24.1273 C   0  0  0  0  0  0  0  0  0  0  0  0
  -31.3755  -24.1597   21.0267 C   0  0  0  0  0  0  0  0  0  0  0  0
  -32.7213  -25.3085   19.2200 C   0  0  0  0  0  0  0  0  0  0  0  0
  -30.7535  -24.7110   14.7549 C   0  0  0  0  0  0  0  0  0  0  0  0
  -31.2993  -23.3745   18.6224 C   0  0  0  0  0  0  0  0  0  0  0  0
  -20.4455  -28.5667   23.1794 C   0  0  1  0  0  0  0  0  0  0  0  0
  -29.5807  -25.2021   15.5263 C   0  0  2  0  0  0  0  0  0  0  0  0
  -23.7258  -27.0825   24.3919 C   0  0  1  0  0  0  0  0  0  0  0  0
  -30.5034  -23.5197   19.9304 C   0  0  1  0  0  0  0  0  0  0  0  0
  -30.9646  -28.0702   26.9664 C   0  0  0  0  0  0  0  0  0  0  0  0
  -25.7977  -31.2118   24.2636 C   0  0  0  0  0  0  0  0  0  0  0  0
  -28.2139  -31.2271   24.9196 C   0  0  0  0  0  0  0  0  0  0  0  0
  -26.4514  -30.9574   26.6641 C   0  0  0  0  0  0  0  0  0  0  0  0
  -29.3146  -24.7703   26.0368 C   0  0  0  0  0  0  0  0  0  0  0  0
  -25.6425  -23.8384   18.0153 C   0  0  0  0  0  0  0  0  0  1  0  0
  -26.9345  -29.0437   25.0841 C   0  0  1  0  0  0  0  0  0  0  0  0
  -29.8009  -27.1368   26.6706 C   0  0  2  0  0  0  0  0  0  0  0  0
  -26.8393  -30.5900   25.2152 C   0  0  0  0  0  0  0  0  0  0  0  0
  -27.9609  -23.7278   14.4796 N   0  0  0  0  0  0  0  0  0  0  0  0
  -30.5672  -21.0611   20.1039 N   0  0  0  0  0  0  0  0  0  0  0  0
  -27.5983  -24.4936   16.7355 N   0  0  0  0  0  0  0  0  0  0  0  0
  -29.9032  -22.1985   20.3714 N   0  0  0  0  0  0  0  0  0  0  0  0
  -25.0912  -27.6002   24.2826 N   0  0  0  0  0  0  0  0  0  0  0  0
  -31.8550  -24.6759   18.2257 N   0  0  0  0  0  0  0  0  0  0  0  0
  -30.7191  -24.6083   16.1778 N   0  0  0  0  0  0  0  0  0  0  0  0
  -27.9337  -23.0432   21.3804 N   0  0  0  0  0  0  0  0  0  0  0  0
  -27.5683  -18.5791   21.9585 N   0  0  0  0  0  0  0  0  0  0  0  0
  -21.4836  -27.7526   23.7745 N   0  0  0  0  0  0  0  0  0  0  0  0
  -27.8937  -28.4249   25.9926 N   0  0  0  0  0  0  0  0  0  0  0  0
  -30.3504  -25.7944   26.3285 N   0  3  0  0  0  0  0  0  0  0  0  0
  -26.5413  -20.5952   22.3318 O   0  0  0  0  0  0  0  0  0  0  0  0
  -23.3156  -29.0443   23.1437 O   0  0  0  0  0  0  0  0  0  0  0  0
  -25.0639  -28.4949   26.4355 O   0  0  0  0  0  0  0  0  0  0  0  0
  -29.1907  -27.4253   24.3507 O   0  0  0  0  0  0  0  0  0  0  0  0
  -32.0050  -26.4499   16.7267 O   0  0  0  0  0  0  0  0  0  0  0  0
  -31.2295  -14.7303   20.2799 O   0  0  0  0  0  0  0  0  0  0  0  0
  -26.1095  -24.9198   18.8208 O   0  0  0  0  0  0  0  0  0  1  0  0
  -27.3479  -11.1145   18.7753 F   0  0  0  0  0  0  0  0  0  0  0  0
  -31.5376  -13.1806   18.0114 F   0  0  0  0  0  0  0  0  0  0  0  0
  1  2  1  0  0  0  0
  1  5  2  0  0  0  0
  2  6  2  0  0  0  0
  3  8  2  0  0  0  0
  3 17  1  0  0  0  0
  4  9  1  0  0  0  0
  4 17  2  0  0  0  0
  5 19  1  0  0  0  0
  6 21  1  0  0  0  0
  7 10  2  0  0  0  0
  7 20  1  0  0  0  0
  8 23  1  0  0  0  0
  9 23  2  0  0  0  0
 10 24  1  0  0  0  0
 11 12  2  0  0  0  0
 11 25  1  0  0  0  0
 12 26  1  0  0  0  0
 13 16  2  0  0  0  0
 13 29  1  0  0  0  0
 14 22  1  0  0  0  0
 14 24  2  0  0  0  0
 15 26  2  0  0  0  0
 15 27  1  0  0  0  0
 16 60  1  0  0  0  0
 17 28  1  0  0  0  0
 18 28  1  0  0  0  0
 18 30  2  0  0  0  0
 18 32  1  0  0  0  0
 19 21  2  0  0  0  0
 19 37  1  0  0  0  0
 20 22  2  0  0  0  0
 20 38  1  0  0  0  0
 21 47  1  0  0  0  0
 22 39  1  0  0  0  0
 23 77  1  0  0  0  0
 24 78  1  0  0  0  0
 25 27  2  0  0  0  0
 25 77  1  0  0  0  0
 26 79  1  0  0  0  0
 27 80  1  0  0  0  0
 28 61  2  0  0  0  0
 29 56  1  0  0  0  0
 29 62  2  0  0  0  0
 30 63  1  0  0  0  0
 30 67  1  0  0  0  0
 31 48  1  0  0  0  0
 31 60  2  0  0  0  0
 31 62  1  0  0  0  0
 32 68  1  0  0  0  0
 32 72  2  0  0  0  0
 33 49  1  0  0  0  0
 33 69  1  0  0  0  0
 33 73  2  0  0  0  0
 34 57  1  0  0  0  0
 34 64  1  0  0  0  0
 34 74  2  0  0  0  0
 35 58  1  0  0  0  0
 35 70  1  0  0  0  0
 35 75  2  0  0  0  0
 36 65  1  0  0  0  0
 36 66  1  0  0  0  0
 36 76  2  0  0  0  0
 37 40  1  0  0  0  0
 38 49  1  0  0  0  0
 39 64  1  0  0  0  0
 40 42  1  0  0  0  0
 41 43  1  0  0  0  0
 41 44  1  0  0  0  0
 42 47  1  0  0  0  0
 43 50  1  0  0  0  0
 44 65  1  0  0  0  0
 45 48  1  0  0  0  0
 45 66  1  0  0  0  0
 46 50  1  0  0  0  0
 46 65  1  0  0  0  0
 47 69  1  0  0  0  0
 48 66  1  0  0  0  0
 49 64  1  0  0  0  0
 50 63  1  0  0  0  0
 51 58  1  0  0  0  0
 52 59  1  0  0  0  0
 53 59  1  0  0  0  0
 54 59  1  0  0  0  0
 55 71  1  0  0  0  0
 56 78  1  0  0  0  0
 57 59  1  0  0  0  0
 57 70  1  0  0  0  0
 58 71  1  0  0  0  0
 61 63  1  0  0  0  0
M  CHG  1  71   1
M  ISO  4  36 100  56 101  66 100  78 101
M  END
> <Batch ID>
0178

> <Smiles>
CNC(C)C(=O)NC(C(=O)N1Cc2cc([101O:1][101CH2:1]c3ccnc(C4C[100N:0]4[100C:0](=O)N4CCCC(n5nc(-c6ccc(Oc7ccc(F)cc7F)cc6)c(C(N)=O)c5N)C4)n3)ccc2CC1C(=O)NC1CCCc2ccccc21)C(C)(C)C

> <Shape>
0.235

> <Color>
0.074

> <Negative vol penalty>
0.000

$$$$

  -OEChem-04052322553D

 84 93  0     1  0  0  0  0  0999 V2000
  -25.7776  -32.1457   17.6104 C   0  0  0  0  0  0  0  0  0  0  0  0
  -25.9796  -30.8982   17.0287 C   0  0  0  0  0  0  0  0  0  0  0  0
  -23.5890   -9.7078   19.9578 C   0  0  0  0  0  0  0  0  0  0  0  0
  -23.2086  -10.1491   22.3025 C   0  0  0  0  0  0  0  0  0  0  0  0
  -26.1488  -32.3636   18.9365 C   0  0  0  0  0  0  0  0  0  0  0  0
  -26.5540  -29.8681   17.7726 C   0  0  0  0  0  0  0  0  0  0  0  0
  -25.2703  -23.8922   17.3896 C   0  0  0  0  0  0  0  0  0  0  0  0
  -22.8141   -8.5517   20.0496 C   0  0  0  0  0  0  0  0  0  0  0  0
  -22.4337   -8.9930   22.3943 C   0  0  0  0  0  0  0  0  0  0  0  0
  -25.9008  -22.8378   16.7305 C   0  0  0  0  0  0  0  0  0  0  0  0
  -22.9499   -5.6610   22.6443 C   0  0  0  0  0  0  0  0  0  0  0  0
  -23.1666   -4.8206   23.7363 C   0  0  0  0  0  0  0  0  0  0  0  0
  -27.0669  -22.2713   18.7648 C   0  0  0  0  0  0  0  0  0  0  0  0
  -20.8707   -5.1237   24.4251 C   0  0  0  0  0  0  0  0  0  0  0  0
  -23.7863  -10.5065   21.0842 C   0  0  0  0  0  0  0  0  0  0  0  0
  -24.1439  -12.9988   20.6741 C   0  0  0  0  0  0  0  0  0  0  0  0
  -26.7192  -31.3329   19.7000 C   0  0  0  0  0  0  0  0  0  0  0  0
  -25.5421  -24.1512   18.7407 C   0  0  0  0  0  0  0  0  0  0  0  0
  -26.9344  -30.0728   19.1098 C   0  0  0  0  0  0  0  0  0  0  0  0
  -26.4367  -23.3280   19.4395 C   0  0  0  0  0  0  0  0  0  0  0  0
  -22.2364   -8.1943   21.2679 C   0  0  0  0  0  0  0  0  0  0  0  0
  -26.8014  -22.0289   17.4173 C   0  0  0  0  0  0  0  0  0  0  0  0
  -21.6936   -6.2328   22.4428 C   0  0  0  0  0  0  0  0  0  0  0  0
  -22.1270   -4.5519   24.6267 C   0  0  0  0  0  0  0  0  0  0  0  0
  -20.6541   -5.9642   23.3332 C   0  0  0  0  0  0  0  0  0  0  0  0
  -24.5872  -11.7006   20.9902 C   0  0  0  0  0  0  0  0  0  0  0  0
  -25.2804  -13.7690   20.7144 C   0  0  0  0  0  0  0  0  0  0  0  0
  -29.8087  -16.4568   18.5747 C   0  0  0  0  0  0  0  0  0  0  0  0
  -28.9978  -17.2978   17.6294 C   0  0  0  0  0  0  0  0  0  0  0  0
  -22.8229  -13.4667   20.3713 C   0  0  0  0  0  0  0  0  0  0  0  0
  -26.7810  -26.5959   20.3509 C   0  0  0  0  0  0  0  0  0  0  0  0
  -25.9502  -24.8130   22.9304 C   0  0  0  0  0  0  0  0  0  0  0  0
  -25.2638  -21.7294   24.2214 C   0  0  0  0  0  0  0  0  0  0  0  0
  -30.6578  -14.4725   19.3487 C   0  0  0  0  0  0  0  0  0  0  0  0
  -27.1478  -31.6297   21.1152 C   0  0  0  0  0  0  0  0  0  0  0  0
  -24.8336  -25.2761   19.4444 C   0  0  0  0  0  0  0  0  0  0  0  0
  -26.7476  -23.5515   20.8961 C   0  0  0  0  0  0  0  0  0  0  0  0
  -27.4059  -30.3772   21.9488 C   0  0  0  0  0  0  0  0  0  0  0  0
  -29.9169  -12.7286   22.4240 C   0  0  0  0  0  0  0  0  0  0  0  0
  -28.2535  -29.3798   21.1654 C   0  0  0  0  0  0  0  0  0  0  0  0
  -28.4358  -12.3811   22.2785 C   0  0  0  0  0  0  0  0  0  0  0  0
  -31.2115  -18.5599   19.0924 C   0  0  0  0  0  0  0  0  0  0  0  0
  -30.6380  -12.6779   21.0807 C   0  0  0  0  0  0  0  0  0  0  0  0
  -28.5299  -13.1960   19.8808 C   0  0  0  0  0  0  0  0  0  0  0  0
  -27.5319  -28.9232   19.8918 C   0  0  1  0  0  0  0  0  0  0  0  0
  -30.5036  -17.2983   19.6895 C   0  0  1  0  0  0  0  0  0  0  0  0
  -28.9342  -18.7977   17.9141 C   0  0  1  0  0  0  0  0  0  0  0  0
  -25.5742  -25.7654   20.6851 C   0  0  1  0  0  0  0  0  0  0  0  0
  -29.7865  -19.2024   19.1428 C   0  0  1  0  0  0  0  0  0  0  0  0
  -27.7632  -13.2644   21.2128 C   0  0  1  0  0  0  0  0  0  0  0  0
  -29.5580  -18.3242   20.4477 C   0  0  0  0  0  0  0  0  0  0  0  0
  -28.1312  -17.8497   20.7433 C   0  0  0  0  0  0  0  0  0  0  0  0
  -30.1344  -18.9214   21.7449 C   0  0  0  0  0  0  0  0  0  0  0  0
  -24.6545  -20.5842   26.3696 C   0  0  0  0  0  0  0  0  0  0  0  0
  -29.2686  -21.7970   15.4721 C   0  0  0  0  0  0  0  0  0  0  0  0
  -28.8336  -25.0854   23.8905 C   0  0  0  0  0  0  0  0  0  0  0  0
  -28.4125  -23.1906   25.4719 C   0  0  0  0  0  0  0  0  0  0  0  0
  -27.1099  -25.3069   25.6889 C   0  0  0  0  0  0  0  0  0  0  0  0
  -22.7043  -20.7469   23.1068 C   0  0  0  0  0  0  0  0  0  0  0  0
  -29.3780  -19.5977   16.6963 C   0  0  0  0  0  0  0  0  0  0  0  0
  -26.6291  -23.7481   23.7574 C   0  0  1  0  0  0  0  0  0  0  0  0
  -24.1286  -21.2350   25.0997 C   0  0  2  0  0  0  0  0  0  0  0  0
  -28.8441  -21.0316   16.7183 C   0  0  2  0  0  0  0  0  0  1  0  0
  -27.7421  -24.3295   24.6742 C   0  0  0  0  0  0  0  0  0  0  0  0
  -25.9028  -11.6453   21.2145 N   0  0  0  0  0  0  0  0  0  0  0  0
  -28.3674  -16.7188   16.6632 N   0  0  0  0  0  0  0  0  0  0  0  0
  -29.8924  -15.1781   18.4392 N   0  0  0  0  0  0  0  0  0  0  0  0
  -26.2959  -12.9184   21.0391 N   0  0  0  0  0  0  0  0  0  0  0  0
  -26.0342  -24.6679   21.5384 N   0  0  0  0  0  0  0  0  0  0  0  0
  -29.9528  -13.5004   20.0825 N   0  0  0  0  0  0  0  0  0  0  0  0
  -25.5002  -15.0842   20.5033 N   0  0  0  0  0  0  0  0  0  0  0  0
  -21.7697  -12.5420   20.3737 N   0  0  0  0  0  0  0  0  0  0  0  0
  -26.5145  -27.9445   20.2106 N   0  0  0  0  0  0  0  0  0  0  0  0
  -25.5678  -23.0502   24.4750 N   0  0  0  0  0  0  0  0  0  0  0  0
  -23.3038  -20.2341   24.3655 N   0  3  0  0  0  0  0  0  0  0  0  0
  -22.5862  -14.6661   20.0904 O   0  0  0  0  0  0  0  0  0  0  0  0
  -27.8732  -26.0535   20.2308 O   0  0  0  0  0  0  0  0  0  0  0  0
  -25.3608  -25.7358   23.4986 O   0  0  0  0  0  0  0  0  0  0  0  0
  -25.8272  -21.0143   23.3957 O   0  0  0  0  0  0  0  0  0  0  0  0
  -31.8646  -14.6597   19.5225 O   0  0  0  0  0  0  0  0  0  0  0  0
  -21.4799   -7.0663   21.3578 O   0  0  0  0  0  0  0  0  0  0  0  0
  -27.4187  -20.9994   16.7761 O   0  0  0  0  0  0  0  0  0  1  0  0
  -22.3348   -3.7437   25.6744 F   0  0  0  0  0  0  0  0  0  0  0  0
  -19.4447   -6.5096   23.1441 F   0  0  0  0  0  0  0  0  0  0  0  0
  1  2  1  0  0  0  0
  1  5  2  0  0  0  0
  2  6  2  0  0  0  0
  3  8  2  0  0  0  0
  3 15  1  0  0  0  0
  4  9  1  0  0  0  0
  4 15  2  0  0  0  0
  5 17  1  0  0  0  0
  6 19  1  0  0  0  0
  7 10  2  0  0  0  0
  7 18  1  0  0  0  0
  8 21  1  0  0  0  0
  9 21  2  0  0  0  0
 10 22  1  0  0  0  0
 11 12  2  0  0  0  0
 11 23  1  0  0  0  0
 12 24  1  0  0  0  0
 13 20  1  0  0  0  0
 13 22  2  0  0  0  0
 14 24  2  0  0  0  0
 14 25  1  0  0  0  0
 15 26  1  0  0  0  0
 16 26  1  0  0  0  0
 16 27  2  0  0  0  0
 16 30  1  0  0  0  0
 17 19  2  0  0  0  0
 17 35  1  0  0  0  0
 18 20  2  0  0  0  0
 18 36  1  0  0  0  0
 19 45  1  0  0  0  0
 20 37  1  0  0  0  0
 21 81  1  0  0  0  0
 22 82  1  0  0  0  0
 23 25  2  0  0  0  0
 23 81  1  0  0  0  0
 24 83  1  0  0  0  0
 25 84  1  0  0  0  0
 26 65  2  0  0  0  0
 27 68  1  0  0  0  0
 27 71  1  0  0  0  0
 28 29  1  0  0  0  0
 28 46  1  0  0  0  0
 28 67  2  0  0  0  0
 29 47  1  0  0  0  0
 29 66  2  0  0  0  0
 30 72  1  0  0  0  0
 30 76  2  0  0  0  0
 31 48  1  0  0  0  0
 31 73  1  0  0  0  0
 31 77  2  0  0  0  0
 32 61  1  0  0  0  0
 32 69  1  0  0  0  0
 32 78  2  0  0  0  0
 33 62  1  0  0  0  0
 33 74  1  0  0  0  0
 33 79  2  0  0  0  0
 34 67  1  0  0  0  0
 34 70  1  0  0  0  0
 34 80  2  0  0  0  0
 35 38  1  0  0  0  0
 36 48  1  0  0  0  0
 37 69  1  0  0  0  0
 38 40  1  0  0  0  0
 39 41  1  0  0  0  0
 39 43  1  0  0  0  0
 40 45  1  0  0  0  0
 41 50  1  0  0  0  0
 42 46  1  0  0  0  0
 42 49  1  0  0  0  0
 43 70  1  0  0  0  0
 44 50  1  0  0  0  0
 44 70  1  0  0  0  0
 45 73  1  0  0  0  0
 46 51  1  0  0  0  0
 47 49  1  0  0  0  0
 47 60  1  0  0  0  0
 48 69  1  0  0  0  0
 49 51  1  0  0  0  0
 50 68  1  0  0  0  0
 51 52  1  0  0  0  0
 51 53  1  0  0  0  0
 54 62  1  0  0  0  0
 55 63  1  0  0  0  0
 56 64  1  0  0  0  0
 57 64  1  0  0  0  0
 58 64  1  0  0  0  0
 59 75  1  0  0  0  0
 60 63  1  0  0  0  0
 61 64  1  0  0  0  0
 61 74  1  0  0  0  0
 62 75  1  0  0  0  0
 63 82  1  0  0  0  0
 65 68  1  0  0  0  0
M  CHG  1  75   1
M  ISO  4  34 100  63 101  67 100  82 101
M  END
> <Batch ID>
0178

> <Smiles>
CNC(C)C(=O)NC(C(=O)N1Cc2cc([101O:1][101CH:1](C)C=C3C(=N)C([100NH:0][100C:0](=O)N4CCCC(n5nc(-c6ccc(Oc7ccc(F)cc7F)cc6)c(C(N)=O)c5N)C4)C4CC3C4(C)C)ccc2CC1C(=O)NC1CCCc2ccccc21)C(C)(C)C

> <Shape>
0.216

> <Color>
0.153

> <Negative vol penalty>
0.000

$$$$

  -OEChem-04052322553D

 83 92  0     1  0  0  0  0  0999 V2000
  -27.6297  -37.9522   21.8898 C   0  0  0  0  0  0  0  0  0  0  0  0
  -28.1382  -36.8856   21.1555 C   0  0  0  0  0  0  0  0  0  0  0  0
  -23.5348  -10.0606   22.0643 C   0  0  0  0  0  0  0  0  0  0  0  0
  -24.3177   -8.7809   20.1706 C   0  0  0  0  0  0  0  0  0  0  0  0
  -26.8926  -37.7109   23.0483 C   0  0  0  0  0  0  0  0  0  0  0  0
  -27.9108  -35.5770   21.5801 C   0  0  0  0  0  0  0  0  0  0  0  0
  -26.8878  -28.9706   19.0059 C   0  0  0  0  0  0  0  0  0  0  0  0
  -22.2503   -9.5494   21.8787 C   0  0  0  0  0  0  0  0  0  0  0  0
  -23.0333   -8.2696   19.9850 C   0  0  0  0  0  0  0  0  0  0  0  0
  -27.3795  -27.6732   19.1428 C   0  0  0  0  0  0  0  0  0  0  0  0
  -20.0394   -6.3488   19.2331 C   0  0  0  0  0  0  0  0  0  0  0  0
  -19.9138   -4.9809   18.9908 C   0  0  0  0  0  0  0  0  0  0  0  0
  -29.9352  -22.1314   20.9518 C   0  0  0  0  0  0  0  0  0  0  0  0
  -26.0247  -27.3746   21.1163 C   0  0  0  0  0  0  0  0  0  0  0  0
  -20.9552   -4.5082   21.1190 C   0  0  0  0  0  0  0  0  0  0  0  0
  -24.5685   -9.6764   21.2102 C   0  0  0  0  0  0  0  0  0  0  0  0
  -26.9219   -9.6580   22.1945 C   0  0  0  0  0  0  0  0  0  0  0  0
  -26.6477  -36.3985   23.4820 C   0  0  0  0  0  0  0  0  0  0  0  0
  -25.9676  -29.4844   19.9309 C   0  0  0  0  0  0  0  0  0  0  0  0
  -27.1708  -35.3180   22.7463 C   0  0  0  0  0  0  0  0  0  0  0  0
  -29.3952  -21.1358   20.1453 C   0  0  0  0  0  0  0  0  0  0  0  0
  -25.5209  -28.6779   20.9874 C   0  0  0  0  0  0  0  0  0  0  0  0
  -29.6125  -23.4627   20.7134 C   0  0  0  0  0  0  0  0  0  0  0  0
  -21.9996   -8.6539   20.8391 C   0  0  0  0  0  0  0  0  0  0  0  0
  -26.9502  -26.8760   20.1998 C   0  0  0  0  0  0  0  0  0  0  0  0
  -20.6231   -6.7964   20.4184 C   0  0  0  0  0  0  0  0  0  0  0  0
  -20.3717   -4.0606   19.9337 C   0  0  0  0  0  0  0  0  0  0  0  0
  -21.0809   -5.8761   21.3613 C   0  0  0  0  0  0  0  0  0  0  0  0
  -25.8954  -10.2045   21.4011 C   0  0  0  0  0  0  0  0  0  0  0  0
  -28.5445  -21.5207   19.1216 C   0  0  0  0  0  0  0  0  0  0  0  0
  -28.7522  -23.7434   19.6641 C   0  0  0  0  0  0  0  0  0  0  0  0
  -27.9742  -10.5273   22.0411 C   0  0  0  0  0  0  0  0  0  0  0  0
  -26.9240   -8.4707   22.9983 C   0  0  0  0  0  0  0  0  0  0  0  0
  -25.9711  -31.9060   21.9900 C   0  0  0  0  0  0  0  0  0  0  0  0
  -22.8732  -31.0417   22.4123 C   0  0  0  0  0  0  0  0  0  0  0  0
  -20.4937  -28.6029   22.2201 C   0  0  0  0  0  0  0  0  0  0  0  0
  -28.0022  -16.3187   20.6415 C   0  0  0  0  0  0  0  0  0  0  0  0
  -25.8856  -36.1886   24.7665 C   0  0  0  0  0  0  0  0  0  0  0  0
  -25.4265  -30.8766   19.7540 C   0  0  0  0  0  0  0  0  0  0  0  0
  -24.5188  -29.1752   21.9958 C   0  0  0  0  0  0  0  0  0  0  0  0
  -25.3711  -34.7624   24.9434 C   0  0  0  0  0  0  0  0  0  0  0  0
  -29.8669  -13.6227   18.9481 C   0  0  0  0  0  0  0  0  0  0  0  0
  -26.4696  -33.7546   24.6198 C   0  0  0  0  0  0  0  0  0  0  0  0
  -29.1037  -12.3918   19.4282 C   0  0  0  0  0  0  0  0  0  0  0  0
  -29.5084  -19.1266   21.7650 C   0  0  0  0  0  0  0  0  0  0  0  0
  -28.9514  -14.8341   18.7760 C   0  0  0  0  0  0  0  0  0  0  0  0
  -27.3942  -13.9256   20.4772 C   0  0  0  0  0  0  0  0  0  0  0  0
  -29.7361  -19.7070   20.3943 C   0  0  1  0  0  0  0  0  0  0  0  0
  -26.9242  -33.8836   23.1610 C   0  0  1  0  0  0  0  0  0  0  0  0
  -24.8829  -31.4753   21.0476 C   0  0  1  0  0  0  0  0  0  0  0  0
  -28.3070  -12.7104   20.7026 C   0  0  1  0  0  0  0  0  0  0  0  0
  -28.6177  -18.7172   20.6295 C   0  0  1  0  0  0  0  0  0  0  0  0
  -30.1876  -24.5340   21.5738 C   0  0  0  0  0  0  0  0  0  0  0  0
  -27.9342  -20.4954   18.2227 C   0  0  0  0  0  0  0  0  0  0  0  0
  -18.0605  -28.1849   22.6695 C   0  0  0  0  0  0  0  0  0  0  0  0
  -23.4550  -30.8859   25.4035 C   0  0  0  0  0  0  0  0  0  0  0  0
  -21.3365  -29.5800   25.6768 C   0  0  0  0  0  0  0  0  0  0  0  0
  -21.2545  -31.9218   24.8214 C   0  0  0  0  0  0  0  0  0  0  0  0
  -19.9567  -27.9783   19.3775 C   0  0  0  0  0  0  0  0  0  0  0  0
  -28.3689  -25.1619   19.3602 C   0  0  0  0  0  0  0  0  0  1  0  0
  -22.1449  -30.0870   23.3272 C   0  0  1  0  0  0  0  0  0  0  0  0
  -19.0928  -28.6063   21.6354 C   0  0  2  0  0  0  0  0  0  0  0  0
  -22.0681  -30.6097   24.7895 C   0  0  0  0  0  0  0  0  0  0  0  0
  -26.2624  -11.3336   20.7892 N   0  0  0  0  0  0  0  0  0  0  0  0
  -28.2079  -22.8034   18.8593 N   0  0  0  0  0  0  0  0  0  0  0  0
  -27.5312  -11.5038   21.1982 N   0  0  0  0  0  0  0  0  0  0  0  0
  -24.0240  -30.5454   21.7836 N   0  0  0  0  0  0  0  0  0  0  0  0
  -28.1508  -15.0835   19.9851 N   0  0  0  0  0  0  0  0  0  0  0  0
  -29.2259  -10.5441   22.5464 N   0  0  0  0  0  0  0  0  0  0  0  0
  -25.7593   -7.6925   23.0436 N   0  0  0  0  0  0  0  0  0  0  0  0
  -25.9656  -33.2579   22.2756 N   0  0  0  0  0  0  0  0  0  0  0  0
  -20.8453  -29.8425   22.7110 N   0  0  0  0  0  0  0  0  0  0  0  0
  -28.6796  -17.3918   20.0737 N   0  0  0  0  0  0  0  0  0  0  0  0
  -19.0113  -27.6678   20.4805 N   0  3  0  0  0  0  0  0  0  0  0  0
  -27.9236   -8.1194   23.6698 O   0  0  0  0  0  0  0  0  0  0  0  0
  -26.7567  -31.0730   22.4268 O   0  0  0  0  0  0  0  0  0  0  0  0
  -22.4332  -32.1834   22.2556 O   0  0  0  0  0  0  0  0  0  0  0  0
  -21.2037  -27.5999   22.2427 O   0  0  0  0  0  0  0  0  0  0  0  0
  -27.3118  -16.4587   21.6571 O   0  0  0  0  0  0  0  0  0  0  0  0
  -20.7464   -8.1547   20.6578 O   0  0  0  0  0  0  0  0  0  0  0  0
  -27.4290  -25.6095   20.3361 O   0  0  0  0  0  0  0  0  0  1  0  0
  -20.2495   -2.7471   19.7015 F   0  0  0  0  0  0  0  0  0  0  0  0
  -21.6414   -6.3001   22.5023 F   0  0  0  0  0  0  0  0  0  0  0  0
  1  2  1  0  0  0  0
  1  5  2  0  0  0  0
  2  6  2  0  0  0  0
  3  8  2  0  0  0  0
  3 16  1  0  0  0  0
  4  9  1  0  0  0  0
  4 16  2  0  0  0  0
  5 18  1  0  0  0  0
  6 20  1  0  0  0  0
  7 10  2  0  0  0  0
  7 19  1  0  0  0  0
  8 24  1  0  0  0  0
  9 24  2  0  0  0  0
 10 25  1  0  0  0  0
 11 12  2  0  0  0  0
 11 26  1  0  0  0  0
 12 27  1  0  0  0  0
 13 21  2  0  0  0  0
 13 23  1  0  0  0  0
 14 22  1  0  0  0  0
 14 25  2  0  0  0  0
 15 27  2  0  0  0  0
 15 28  1  0  0  0  0
 16 29  1  0  0  0  0
 17 29  1  0  0  0  0
 17 32  2  0  0  0  0
 17 33  1  0  0  0  0
 18 20  2  0  0  0  0
 18 38  1  0  0  0  0
 19 22  2  0  0  0  0
 19 39  1  0  0  0  0
 20 49  1  0  0  0  0
 21 30  1  0  0  0  0
 21 48  1  0  0  0  0
 22 40  1  0  0  0  0
 23 31  2  0  0  0  0
 23 53  1  0  0  0  0
 24 80  1  0  0  0  0
 25 81  1  0  0  0  0
 26 28  2  0  0  0  0
 26 80  1  0  0  0  0
 27 82  1  0  0  0  0
 28 83  1  0  0  0  0
 29 64  2  0  0  0  0
 30 54  1  0  0  0  0
 30 65  2  0  0  0  0
 31 60  1  0  0  0  0
 31 65  1  0  0  0  0
 32 66  1  0  0  0  0
 32 69  1  0  0  0  0
 33 70  1  0  0  0  0
 33 75  2  0  0  0  0
 34 50  1  0  0  0  0
 34 71  1  0  0  0  0
 34 76  2  0  0  0  0
 35 61  1  0  0  0  0
 35 67  1  0  0  0  0
 35 77  2  0  0  0  0
 36 62  1  0  0  0  0
 36 72  1  0  0  0  0
 36 78  2  0  0  0  0
 37 68  1  0  0  0  0
 37 73  1  0  0  0  0
 37 79  2  0  0  0  0
 38 41  1  0  0  0  0
 39 50  1  0  0  0  0
 40 67  1  0  0  0  0
 41 43  1  0  0  0  0
 42 44  1  0  0  0  0
 42 46  1  0  0  0  0
 43 49  1  0  0  0  0
 44 51  1  0  0  0  0
 45 48  1  0  0  0  0
 45 52  1  0  0  0  0
 46 68  1  0  0  0  0
 47 51  1  0  0  0  0
 47 68  1  0  0  0  0
 48 52  1  0  0  0  0
 49 71  1  0  0  0  0
 50 67  1  0  0  0  0
 51 66  1  0  0  0  0
 52 73  1  0  0  0  0
 55 62  1  0  0  0  0
 56 63  1  0  0  0  0
 57 63  1  0  0  0  0
 58 63  1  0  0  0  0
 59 74  1  0  0  0  0
 60 81  1  0  0  0  0
 61 63  1  0  0  0  0
 61 72  1  0  0  0  0
 62 74  1  0  0  0  0
 64 66  1  0  0  0  0
M  CHG  1  74   1
M  ISO  4  37 100  60 101  73 100  81 101
M  END
> <Batch ID>
0178

> <Smiles>
CNC(C)C(=O)NC(C(=O)N1Cc2cc([101O:1][101CH2:1]c3nc(C)c(C4CC4[100NH:0][100C:0](=O)N4CCCC(n5nc(-c6ccc(Oc7ccc(F)cc7F)cc6)c(C(N)=O)c5N)C4)cc3C)ccc2CC1C(=O)NC1CCCc2ccccc21)C(C)(C)C

> <Shape>
0.309

> <Color>
0.100

> <Negative vol penalty>
0.000

$$$$

  -OEChem-04052322553D

 81 90  0     1  0  0  0  0  0999 V2000
  -36.6204  -29.9341   27.5050 C   0  0  0  0  0  0  0  0  0  0  0  0
  -36.4069  -28.5624   27.5949 C   0  0  0  0  0  0  0  0  0  0  0  0
  -23.0752   -9.8687   19.9403 C   0  0  0  0  0  0  0  0  0  0  0  0
  -23.8349   -9.8746   22.2338 C   0  0  0  0  0  0  0  0  0  0  0  0
  -36.5689  -30.5666   26.2635 C   0  0  0  0  0  0  0  0  0  0  0  0
  -36.1405  -27.8224   26.4434 C   0  0  0  0  0  0  0  0  0  0  0  0
  -37.8814  -22.0671   25.2811 C   0  0  0  0  0  0  0  0  0  0  0  0
  -22.3309   -8.7157   20.1898 C   0  0  0  0  0  0  0  0  0  0  0  0
  -23.0905   -8.7216   22.4833 C   0  0  0  0  0  0  0  0  0  0  0  0
  -37.2164  -20.8463   25.3874 C   0  0  0  0  0  0  0  0  0  0  0  0
  -19.8620   -7.9248   23.0852 C   0  0  0  0  0  0  0  0  0  0  0  0
  -19.1049   -7.8847   24.2560 C   0  0  0  0  0  0  0  0  0  0  0  0
  -32.0576  -16.6247   22.5692 C   0  0  0  0  0  0  0  0  0  0  0  0
  -36.6526  -20.9562   23.0445 C   0  0  0  0  0  0  0  0  0  0  0  0
  -20.3456   -5.9465   24.9919 C   0  0  0  0  0  0  0  0  0  0  0  0
  -29.9064  -17.4590   23.1464 C   0  0  0  0  0  0  0  0  0  0  0  0
  -23.8273  -10.4481   20.9623 C   0  0  0  0  0  0  0  0  0  0  0  0
  -24.1700  -12.9732   20.8432 C   0  0  0  0  0  0  0  0  0  0  0  0
  -36.3114  -29.8324   25.0951 C   0  0  0  0  0  0  0  0  0  0  0  0
  -37.9278  -22.7480   24.0561 C   0  0  0  0  0  0  0  0  0  0  0  0
  -36.0842  -28.4458   25.1853 C   0  0  0  0  0  0  0  0  0  0  0  0
  -32.6142  -17.5173   23.4785 C   0  0  0  0  0  0  0  0  0  0  0  0
  -37.3210  -22.1842   22.9247 C   0  0  0  0  0  0  0  0  0  0  0  0
  -30.6787  -16.5887   22.3941 C   0  0  0  0  0  0  0  0  0  0  0  0
  -22.3385   -8.1422   21.4613 C   0  0  0  0  0  0  0  0  0  0  0  0
  -36.5994  -20.2921   24.2698 C   0  0  0  0  0  0  0  0  0  0  0  0
  -20.8609   -6.9757   22.8677 C   0  0  0  0  0  0  0  0  0  0  0  0
  -19.3467   -6.8956   25.2094 C   0  0  0  0  0  0  0  0  0  0  0  0
  -21.1026   -5.9866   23.8211 C   0  0  0  0  0  0  0  0  0  0  0  0
  -24.5968  -11.6388   20.7050 C   0  0  0  0  0  0  0  0  0  0  0  0
  -31.7553  -18.3462   24.1821 C   0  0  0  0  0  0  0  0  0  0  0  0
  -25.2624  -13.7224   20.4803 C   0  0  0  0  0  0  0  0  0  0  0  0
  -22.8997  -13.4893   21.2621 C   0  0  0  0  0  0  0  0  0  0  0  0
  -36.8873  -25.5653   23.0150 C   0  0  0  0  0  0  0  0  0  0  0  0
  -38.5046  -24.7321   20.3294 C   0  0  0  0  0  0  0  0  0  0  0  0
  -39.7944  -22.2474   18.3776 C   0  0  0  0  0  0  0  0  0  0  0  0
  -30.7290  -14.7660   20.6559 C   0  0  0  0  0  0  0  0  0  0  0  0
  -36.2187  -30.5676   23.7814 C   0  0  0  0  0  0  0  0  0  0  0  0
  -38.6720  -24.0509   23.9517 C   0  0  0  0  0  0  0  0  0  0  0  0
  -37.3593  -22.8653   21.5819 C   0  0  0  0  0  0  0  0  0  0  0  0
  -36.3016  -29.6512   22.5634 C   0  0  0  0  0  0  0  0  0  0  0  0
  -29.6140  -12.3534   18.2867 C   0  0  0  0  0  0  0  0  0  0  0  0
  -35.3908  -28.4408   22.7430 C   0  0  0  0  0  0  0  0  0  0  0  0
  -28.1742  -12.0621   18.7160 C   0  0  0  0  0  0  0  0  0  0  0  0
  -34.9821  -17.7738   22.4770 C   0  0  0  0  0  0  0  0  0  0  0  0
  -30.5290  -12.5814   19.4885 C   0  0  0  0  0  0  0  0  0  0  0  0
  -28.6222  -13.3061   20.8698 C   0  0  0  0  0  0  0  0  0  0  0  0
  -34.0832  -17.5606   23.6725 C   0  0  1  0  0  0  0  0  0  0  0  0
  -35.8170  -27.6049   23.9559 C   0  0  1  0  0  0  0  0  0  0  0  0
  -38.2162  -24.9067   22.7739 C   0  0  1  0  0  0  0  0  0  0  0  0
  -27.6494  -13.1336   19.6918 C   0  0  2  0  0  0  0  0  0  0  0  0
  -34.8160  -18.8708   23.4838 C   0  0  1  0  0  0  0  0  0  1  0  0
  -32.2949  -19.3254   25.1730 C   0  0  0  0  0  0  0  0  0  0  0  0
  -41.0277  -21.8734   16.2243 C   0  0  0  0  0  0  0  0  0  0  0  0
  -35.9361  -25.2600   18.7693 C   0  0  0  0  0  0  0  0  0  0  0  0
  -36.9228  -23.9899   16.8506 C   0  0  0  0  0  0  0  0  0  0  0  0
  -38.0199  -26.0804   17.6563 C   0  0  0  0  0  0  0  0  0  0  0  0
  -42.0838  -20.9931   19.7720 C   0  0  0  0  0  0  0  0  0  0  0  0
  -38.1616  -23.9847   19.0634 C   0  0  1  0  0  0  0  0  0  0  0  0
  -41.1552  -22.0827   17.7252 C   0  0  2  0  0  0  0  0  0  0  0  0
  -37.2576  -24.8166   18.1105 C   0  0  0  0  0  0  0  0  0  0  0  0
  -30.4110  -18.3400   24.0391 N   0  0  0  0  0  0  0  0  0  0  0  0
  -25.8616  -11.5426   20.2869 N   0  0  0  0  0  0  0  0  0  0  0  0
  -26.2390  -12.8261   20.1590 N   0  0  0  0  0  0  0  0  0  0  0  0
  -38.0939  -24.1403   21.5322 N   0  0  0  0  0  0  0  0  0  0  0  0
  -29.9703  -13.6122   20.3661 N   0  0  0  0  0  0  0  0  0  0  0  0
  -25.4733  -15.0538   20.4077 N   0  0  0  0  0  0  0  0  0  0  0  0
  -21.8874  -12.5804   21.5990 N   0  0  0  0  0  0  0  0  0  0  0  0
  -30.0819  -15.6910   21.4745 N   0  0  0  0  0  0  0  0  0  0  0  0
  -36.9743  -26.7985   23.6324 N   0  0  0  0  0  0  0  0  0  0  0  0
  -39.4319  -23.5742   18.4748 N   0  0  0  0  0  0  0  0  0  0  0  0
  -41.8687  -20.9095   18.3044 N   0  3  0  0  0  0  0  0  0  0  0  0
  -22.6638  -14.7200   21.3199 O   0  0  0  0  0  0  0  0  0  0  0  0
  -35.8593  -24.9974   22.6653 O   0  0  0  0  0  0  0  0  0  0  0  0
  -39.1208  -25.7981   20.2542 O   0  0  0  0  0  0  0  0  0  0  0  0
  -39.1188  -21.2942   18.7590 O   0  0  0  0  0  0  0  0  0  0  0  0
  -31.8582  -14.9345   20.1884 O   0  0  0  0  0  0  0  0  0  0  0  0
  -21.6121   -7.0173   21.7052 O   0  0  0  0  0  0  0  0  0  0  0  0
  -35.9490  -19.1010   24.3710 O   0  0  0  0  0  0  0  0  0  1  0  0
  -18.6207   -6.8582   26.3344 F   0  0  0  0  0  0  0  0  0  0  0  0
  -22.0617   -5.0728   23.6182 F   0  0  0  0  0  0  0  0  0  0  0  0
  1  2  1  0  0  0  0
  1  5  2  0  0  0  0
  2  6  2  0  0  0  0
  3  8  2  0  0  0  0
  3 17  1  0  0  0  0
  4  9  1  0  0  0  0
  4 17  2  0  0  0  0
  5 19  1  0  0  0  0
  6 21  1  0  0  0  0
  7 10  2  0  0  0  0
  7 20  1  0  0  0  0
  8 25  1  0  0  0  0
  9 25  2  0  0  0  0
 10 26  1  0  0  0  0
 11 12  2  0  0  0  0
 11 27  1  0  0  0  0
 12 28  1  0  0  0  0
 13 22  1  0  0  0  0
 13 24  2  0  0  0  0
 14 23  1  0  0  0  0
 14 26  2  0  0  0  0
 15 28  2  0  0  0  0
 15 29  1  0  0  0  0
 16 24  1  0  0  0  0
 16 62  2  0  0  0  0
 17 30  1  0  0  0  0
 18 30  1  0  0  0  0
 18 32  2  0  0  0  0
 18 33  1  0  0  0  0
 19 21  2  0  0  0  0
 19 38  1  0  0  0  0
 20 23  2  0  0  0  0
 20 39  1  0  0  0  0
 21 49  1  0  0  0  0
 22 31  2  0  0  0  0
 22 48  1  0  0  0  0
 23 40  1  0  0  0  0
 24 69  1  0  0  0  0
 25 78  1  0  0  0  0
 26 79  1  0  0  0  0
 27 29  2  0  0  0  0
 27 78  1  0  0  0  0
 28 80  1  0  0  0  0
 29 81  1  0  0  0  0
 30 63  2  0  0  0  0
 31 53  1  0  0  0  0
 31 62  1  0  0  0  0
 32 64  1  0  0  0  0
 32 67  1  0  0  0  0
 33 68  1  0  0  0  0
 33 73  2  0  0  0  0
 34 50  1  0  0  0  0
 34 70  1  0  0  0  0
 34 74  2  0  0  0  0
 35 59  1  0  0  0  0
 35 65  1  0  0  0  0
 35 75  2  0  0  0  0
 36 60  1  0  0  0  0
 36 71  1  0  0  0  0
 36 76  2  0  0  0  0
 37 66  1  0  0  0  0
 37 69  1  0  0  0  0
 37 77  2  0  0  0  0
 38 41  1  0  0  0  0
 39 50  1  0  0  0  0
 40 65  1  0  0  0  0
 41 43  1  0  0  0  0
 42 44  1  0  0  0  0
 42 46  1  0  0  0  0
 43 49  1  0  0  0  0
 44 51  1  0  0  0  0
 45 48  1  0  0  0  0
 45 52  1  0  0  0  0
 46 66  1  0  0  0  0
 47 51  1  0  0  0  0
 47 66  1  0  0  0  0
 48 52  1  0  0  0  0
 49 70  1  0  0  0  0
 50 65  1  0  0  0  0
 51 64  1  0  0  0  0
 52 79  1  0  0  0  0
 54 60  1  0  0  0  0
 55 61  1  0  0  0  0
 56 61  1  0  0  0  0
 57 61  1  0  0  0  0
 58 72  1  0  0  0  0
 59 61  1  0  0  0  0
 59 71  1  0  0  0  0
 60 72  1  0  0  0  0
 63 64  1  0  0  0  0
M  CHG  1  72   1
M  ISO  4  37 100  52 101  69 100  79 101
M  END
> <Batch ID>
0178

> <Smiles>
CNC(C)C(=O)NC(C(=O)N1Cc2cc([101O:1][101CH:1]3CC3c3cc([100NH:0][100C:0](=O)N4CCCC(n5nc(-c6ccc(Oc7ccc(F)cc7F)cc6)c(C(N)=O)c5N)C4)cnc3C)ccc2CC1C(=O)NC1CCCc2ccccc21)C(C)(C)C

> <Shape>
0.167

> <Color>
0.196

> <Negative vol penalty>
0.000

$$$$

  -OEChem-04052322553D

 83 92  0     1  0  0  0  0  0999 V2000
  -20.9400  -18.3625   20.4495 C   0  0  0  0  0  0  0  0  0  0  0  0
  -22.1385  -17.9694   21.0366 C   0  0  0  0  0  0  0  0  0  0  0  0
  -23.2886   -9.8002   19.9133 C   0  0  0  0  0  0  0  0  0  0  0  0
  -23.7425   -9.9400   22.2822 C   0  0  0  0  0  0  0  0  0  0  0  0
  -20.0179  -19.1087   21.1822 C   0  0  0  0  0  0  0  0  0  0  0  0
  -22.4159  -18.3233   22.3566 C   0  0  0  0  0  0  0  0  0  0  0  0
  -24.3035  -14.4693   25.0453 C   0  0  0  0  0  0  0  0  0  0  0  0
  -22.5632   -8.6272   20.1215 C   0  0  0  0  0  0  0  0  0  0  0  0
  -23.0170   -8.7670   22.4904 C   0  0  0  0  0  0  0  0  0  0  0  0
  -25.6488  -14.1578   24.8536 C   0  0  0  0  0  0  0  0  0  0  0  0
  -20.9811   -6.0051   23.6927 C   0  0  0  0  0  0  0  0  0  0  0  0
  -20.0809   -5.9788   24.7579 C   0  0  0  0  0  0  0  0  0  0  0  0
  -26.2074  -15.3553   26.8718 C   0  0  0  0  0  0  0  0  0  0  0  0
  -18.8690   -7.8257   23.7793 C   0  0  0  0  0  0  0  0  0  0  0  0
  -32.1973  -14.6025   23.5666 C   0  0  0  0  0  0  0  0  0  0  0  0
  -23.8783  -10.4566   20.9937 C   0  0  0  0  0  0  0  0  0  0  0  0
  -24.1360  -12.9868   20.7959 C   0  0  0  0  0  0  0  0  0  0  0  0
  -20.2800  -19.4636   22.5148 C   0  0  0  0  0  0  0  0  0  0  0  0
  -23.9006  -15.2366   26.1477 C   0  0  0  0  0  0  0  0  0  0  0  0
  -21.4970  -19.0760   23.1073 C   0  0  0  0  0  0  0  0  0  0  0  0
  -24.8560  -15.6730   27.0766 C   0  0  0  0  0  0  0  0  0  0  0  0
  -31.2063  -14.3298   26.0943 C   0  0  0  0  0  0  0  0  0  0  0  0
  -30.6828  -13.5505   25.0686 C   0  0  0  0  0  0  0  0  0  0  0  0
  -31.1822  -13.6833   23.7778 C   0  0  0  0  0  0  0  0  0  0  0  0
  -22.4274   -8.1105   21.4101 C   0  0  0  0  0  0  0  0  0  0  0  0
  -26.6014  -14.6033   25.7653 C   0  0  0  0  0  0  0  0  0  0  0  0
  -20.8253   -6.9418   22.6708 C   0  0  0  0  0  0  0  0  0  0  0  0
  -19.0249   -6.8891   24.8012 C   0  0  0  0  0  0  0  0  0  0  0  0
  -19.7693   -7.8520   22.7141 C   0  0  0  0  0  0  0  0  0  0  0  0
  -24.6283  -11.6681   20.7792 C   0  0  0  0  0  0  0  0  0  0  0  0
  -32.2204  -15.2199   25.7794 C   0  0  0  0  0  0  0  0  0  0  0  0
  -25.2367  -13.7675   20.5398 C   0  0  0  0  0  0  0  0  0  0  0  0
  -22.8030  -13.4636   21.0227 C   0  0  0  0  0  0  0  0  0  0  0  0
  -22.4821  -18.0568   26.5196 C   0  0  0  0  0  0  0  0  0  0  0  0
  -22.4745  -17.2026   29.6489 C   0  0  0  0  0  0  0  0  0  0  0  0
  -23.8599  -15.3328   32.1451 C   0  0  0  0  0  0  0  0  0  0  0  0
  -31.0986  -12.9561   21.3673 C   0  0  0  0  0  0  0  0  0  0  0  0
  -19.2734  -20.3113   23.2517 C   0  0  0  0  0  0  0  0  0  0  0  0
  -22.4423  -15.5414   26.3546 C   0  0  0  0  0  0  0  0  0  0  0  0
  -24.4728  -16.4826   28.2875 C   0  0  0  0  0  0  0  0  0  0  0  0
  -19.4798  -20.3253   24.7641 C   0  0  0  0  0  0  0  0  0  0  0  0
  -29.4606  -13.6610   18.2855 C   0  0  0  0  0  0  0  0  0  0  0  0
  -31.6599  -13.9119   28.6030 C   0  0  0  0  0  0  0  0  0  0  0  0
  -30.6908  -12.8618   28.1576 C   0  0  0  0  0  0  0  0  0  0  0  0
  -20.9505  -20.5511   25.1002 C   0  0  0  0  0  0  0  0  0  0  0  0
  -27.9898  -13.3557   18.5786 C   0  0  0  0  0  0  0  0  0  0  0  0
  -30.3953  -12.6860   18.9993 C   0  0  0  0  0  0  0  0  0  0  0  0
  -28.7047  -12.2562   20.7389 C   0  0  0  0  0  0  0  0  0  0  0  0
  -30.6909  -14.2113   27.4904 C   0  0  0  0  0  0  0  0  0  0  0  0
  -21.8233  -19.4193   24.5446 C   0  0  1  0  0  0  0  0  0  0  0  0
  -22.2066  -16.7647   27.2353 C   0  0  1  0  0  0  0  0  0  0  0  0
  -27.7269  -13.2519   20.0937 C   0  0  2  0  0  0  0  0  0  0  0  0
  -32.8238  -16.0839   26.8384 C   0  0  0  0  0  0  0  0  0  0  0  0
  -23.6642  -14.8762   34.6049 C   0  0  0  0  0  0  0  0  0  0  0  0
  -23.8432  -19.8628   30.2492 C   0  0  0  0  0  0  0  0  0  0  0  0
  -24.4664  -18.9552   32.4977 C   0  0  0  0  0  0  0  0  0  0  0  0
  -22.0631  -19.2138   31.8815 C   0  0  0  0  0  0  0  0  0  0  0  0
  -23.2491  -12.4740   31.6838 C   0  0  0  0  0  0  0  0  0  0  0  0
  -29.5774  -12.5637   25.3560 C   0  0  0  0  0  0  0  0  0  0  0  0
  -28.2121  -13.0764   24.9109 C   0  0  0  0  0  0  0  0  0  1  0  0
  -23.4273  -17.3764   30.8069 C   0  0  1  0  0  0  0  0  0  0  0  0
  -23.2328  -14.4512   33.2100 C   0  0  2  0  0  0  0  0  0  0  0  0
  -23.4578  -18.8384   31.3351 C   0  0  0  0  0  0  0  0  0  0  0  0
  -32.7311  -15.3769   24.5375 N   0  0  0  0  0  0  0  0  0  0  0  0
  -25.9396  -11.6103   20.5319 N   0  0  0  0  0  0  0  0  0  0  0  0
  -26.2806  -12.9025   20.3907 N   0  0  0  0  0  0  0  0  0  0  0  0
  -23.0353  -16.7601   28.4425 N   0  0  0  0  0  0  0  0  0  0  0  0
  -30.0904  -12.6433   20.4311 N   0  0  0  0  0  0  0  0  0  0  0  0
  -25.4037  -15.1025   20.4297 N   0  0  0  0  0  0  0  0  0  0  0  0
  -21.7913  -12.5260   21.2711 N   0  0  0  0  0  0  0  0  0  0  0  0
  -30.6831  -12.9138   22.6978 N   0  0  0  0  0  0  0  0  0  0  0  0
  -21.7199  -18.2436   25.3822 N   0  0  0  0  0  0  0  0  0  0  0  0
  -23.0390  -16.3878   31.8070 N   0  0  0  0  0  0  0  0  0  0  0  0
  -23.6325  -13.0299   33.0070 N   0  3  0  0  0  0  0  0  0  0  0  0
  -22.5143  -14.6839   20.9893 O   0  0  0  0  0  0  0  0  0  0  0  0
  -23.3228  -18.8279   26.9671 O   0  0  0  0  0  0  0  0  0  0  0  0
  -21.2756  -17.4436   29.8109 O   0  0  0  0  0  0  0  0  0  0  0  0
  -24.9689  -15.1101   31.6643 O   0  0  0  0  0  0  0  0  0  0  0  0
  -32.2388  -13.2672   21.0135 O   0  0  0  0  0  0  0  0  0  0  0  0
  -21.7194   -6.9661   21.6136 O   0  0  0  0  0  0  0  0  0  0  0  0
  -27.9153  -14.3013   25.5803 O   0  0  0  0  0  0  0  0  0  1  0  0
  -18.1597   -6.8627   25.8234 F   0  0  0  0  0  0  0  0  0  0  0  0
  -19.6137   -8.7533   21.7347 F   0  0  0  0  0  0  0  0  0  0  0  0
  1  2  1  0  0  0  0
  1  5  2  0  0  0  0
  2  6  2  0  0  0  0
  3  8  2  0  0  0  0
  3 16  1  0  0  0  0
  4  9  1  0  0  0  0
  4 16  2  0  0  0  0
  5 18  1  0  0  0  0
  6 20  1  0  0  0  0
  7 10  2  0  0  0  0
  7 19  1  0  0  0  0
  8 25  1  0  0  0  0
  9 25  2  0  0  0  0
 10 26  1  0  0  0  0
 11 12  2  0  0  0  0
 11 27  1  0  0  0  0
 12 28  1  0  0  0  0
 13 21  1  0  0  0  0
 13 26  2  0  0  0  0
 14 28  2  0  0  0  0
 14 29  1  0  0  0  0
 15 24  2  0  0  0  0
 15 64  1  0  0  0  0
 16 30  1  0  0  0  0
 17 30  1  0  0  0  0
 17 32  2  0  0  0  0
 17 33  1  0  0  0  0
 18 20  2  0  0  0  0
 18 38  1  0  0  0  0
 19 21  2  0  0  0  0
 19 39  1  0  0  0  0
 20 50  1  0  0  0  0
 21 40  1  0  0  0  0
 22 23  2  0  0  0  0
 22 31  1  0  0  0  0
 22 49  1  0  0  0  0
 23 24  1  0  0  0  0
 23 59  1  0  0  0  0
 24 71  1  0  0  0  0
 25 80  1  0  0  0  0
 26 81  1  0  0  0  0
 27 29  2  0  0  0  0
 27 80  1  0  0  0  0
 28 82  1  0  0  0  0
 29 83  1  0  0  0  0
 30 65  2  0  0  0  0
 31 53  1  0  0  0  0
 31 64  2  0  0  0  0
 32 66  1  0  0  0  0
 32 69  1  0  0  0  0
 33 70  1  0  0  0  0
 33 75  2  0  0  0  0
 34 51  1  0  0  0  0
 34 72  1  0  0  0  0
 34 76  2  0  0  0  0
 35 61  1  0  0  0  0
 35 67  1  0  0  0  0
 35 77  2  0  0  0  0
 36 62  1  0  0  0  0
 36 73  1  0  0  0  0
 36 78  2  0  0  0  0
 37 68  1  0  0  0  0
 37 71  1  0  0  0  0
 37 79  2  0  0  0  0
 38 41  1  0  0  0  0
 39 51  1  0  0  0  0
 40 67  1  0  0  0  0
 41 45  1  0  0  0  0
 42 46  1  0  0  0  0
 42 47  1  0  0  0  0
 43 44  1  0  0  0  0
 43 49  1  0  0  0  0
 44 49  1  0  0  0  0
 45 50  1  0  0  0  0
 46 52  1  0  0  0  0
 47 68  1  0  0  0  0
 48 52  1  0  0  0  0
 48 68  1  0  0  0  0
 50 72  1  0  0  0  0
 51 67  1  0  0  0  0
 52 66  1  0  0  0  0
 54 62  1  0  0  0  0
 55 63  1  0  0  0  0
 56 63  1  0  0  0  0
 57 63  1  0  0  0  0
 58 74  1  0  0  0  0
 59 60  1  0  0  0  0
 60 81  1  0  0  0  0
 61 63  1  0  0  0  0
 61 73  1  0  0  0  0
 62 74  1  0  0  0  0
 65 66  1  0  0  0  0
M  CHG  1  74   1
M  ISO  4  37 100  60 101  71 100  81 101
M  END
> <Batch ID>
0178

> <Smiles>
CNC(C)C(=O)NC(C(=O)N1Cc2cc([101O:1][101CH2:1]Cc3c([100NH:0][100C:0](=O)N4CCCC(n5nc(-c6ccc(Oc7ccc(F)cc7F)cc6)c(C(N)=O)c5N)C4)cnc(C)c3C3CC3)ccc2CC1C(=O)NC1CCCc2ccccc21)C(C)(C)C

> <Shape>
0.129

> <Color>
0.178

> <Negative vol penalty>
0.000

$$$$

  -OEChem-04052322553D

 84 93  0     1  0  0  0  0  0999 V2000
  -30.0470  -22.1789   18.2500 C   0  0  0  0  0  0  0  0  0  0  0  0
  -28.9468  -22.4082   19.0701 C   0  0  0  0  0  0  0  0  0  0  0  0
  -24.3729  -14.7363   18.7857 C   0  0  0  0  0  0  0  0  0  0  0  0
  -23.9251  -14.5507   21.1525 C   0  0  0  0  0  0  0  0  0  0  0  0
  -31.0661  -23.1272   18.1714 C   0  0  0  0  0  0  0  0  0  0  0  0
  -28.8656  -23.5855   19.8128 C   0  0  0  0  0  0  0  0  0  0  0  0
  -24.2743  -25.7103   19.5898 C   0  0  0  0  0  0  0  0  0  0  0  0
  -23.7471  -13.5084   18.5710 C   0  0  0  0  0  0  0  0  0  0  0  0
  -23.2992  -13.3228   20.9378 C   0  0  0  0  0  0  0  0  0  0  0  0
  -23.2740  -25.1496   20.3827 C   0  0  0  0  0  0  0  0  0  0  0  0
  -21.9016   -9.9700   21.0615 C   0  0  0  0  0  0  0  0  0  0  0  0
  -22.2109   -8.9239   21.9307 C   0  0  0  0  0  0  0  0  0  0  0  0
  -23.5968  -26.8965   22.0147 C   0  0  0  0  0  0  0  0  0  0  0  0
  -24.5324   -9.0670   21.2771 C   0  0  0  0  0  0  0  0  0  0  0  0
  -24.5219  -22.9847   23.3831 C   0  0  0  0  0  0  0  0  0  0  0  0
  -24.4620  -15.2575   20.0765 C   0  0  0  0  0  0  0  0  0  0  0  0
  -24.5097  -17.7995   20.2857 C   0  0  0  0  0  0  0  0  0  0  0  0
  -30.9927  -24.3211   18.9061 C   0  0  0  0  0  0  0  0  0  0  0  0
  -24.9520  -26.8641   20.0092 C   0  0  0  0  0  0  0  0  0  0  0  0
  -29.8853  -24.5501   19.7449 C   0  0  0  0  0  0  0  0  0  0  0  0
  -24.6035  -27.4714   21.2240 C   0  0  0  0  0  0  0  0  0  0  0  0
  -23.3922  -23.7178   23.6530 C   0  0  0  0  0  0  0  0  0  0  0  0
  -23.2102  -12.8016   19.6470 C   0  0  0  0  0  0  0  0  0  0  0  0
  -22.9371  -25.7410   21.5967 C   0  0  0  0  0  0  0  0  0  0  0  0
  -22.9077  -10.5645   20.2999 C   0  0  0  0  0  0  0  0  0  0  0  0
  -23.5262   -8.4724   22.0386 C   0  0  0  0  0  0  0  0  0  0  0  0
  -24.2231  -10.1131   20.4077 C   0  0  0  0  0  0  0  0  0  0  0  0
  -25.1088  -16.5256   20.2990 C   0  0  0  0  0  0  0  0  0  0  0  0
  -23.6507  -24.3159   24.9010 C   0  0  0  0  0  0  0  0  0  0  0  0
  -25.5413  -18.6669   20.5497 C   0  0  0  0  0  0  0  0  0  0  0  0
  -23.1428  -18.1658   20.0554 C   0  0  0  0  0  0  0  0  0  0  0  0
  -27.9732  -27.5613   20.7091 C   0  0  0  0  0  0  0  0  0  0  0  0
  -26.8128  -30.5811   20.9468 C   0  0  0  0  0  0  0  0  0  0  0  0
  -23.8709  -32.1728   22.2992 C   0  0  0  0  0  0  0  0  0  0  0  0
  -30.0404  -20.1777   23.2677 C   0  0  0  0  0  0  0  0  0  0  0  0
  -32.1412  -25.2952   18.8250 C   0  0  0  0  0  0  0  0  0  0  0  0
  -26.0102  -27.4719   19.1298 C   0  0  0  0  0  0  0  0  0  0  0  0
  -25.2869  -28.7225   21.7100 C   0  0  0  0  0  0  0  0  0  0  0  0
  -31.7999  -26.6850   19.3562 C   0  0  0  0  0  0  0  0  0  0  0  0
  -30.5356  -17.9225   20.6936 C   0  0  0  0  0  0  0  0  0  0  0  0
  -31.0753  -26.5819   20.6945 C   0  0  0  0  0  0  0  0  0  0  0  0
  -29.1229  -17.4515   20.3482 C   0  0  0  0  0  0  0  0  0  0  0  0
  -27.7150  -23.0436   23.5308 C   0  0  0  0  0  0  0  0  0  0  0  0
  -26.6947  -21.0450   24.6993 C   0  0  0  0  0  0  0  0  0  0  0  0
  -30.7166  -18.0465   22.2023 C   0  0  0  0  0  0  0  0  0  0  0  0
  -29.0947  -22.4146   23.7090 C   0  0  0  0  0  0  0  0  0  0  0  0
  -28.0967  -20.4625   24.8530 C   0  0  0  0  0  0  0  0  0  0  0  0
  -28.3046  -18.4889   22.5204 C   0  0  0  0  0  0  0  0  0  0  0  0
  -29.7491  -25.8262   20.5470 C   0  0  1  0  0  0  0  0  0  0  0  0
  -26.9896  -28.3551   19.8966 C   0  0  1  0  0  0  0  0  0  0  0  0
  -28.0642  -18.3562   21.0033 C   0  0  2  0  0  0  0  0  0  0  0  0
  -26.7379  -22.5815   24.6258 C   0  0  0  0  0  0  0  0  0  0  0  0
  -22.7724  -25.2136   25.6714 C   0  0  0  0  0  0  0  0  0  0  0  0
  -20.9000  -23.3795   23.5209 C   0  0  0  0  0  0  0  0  0  0  0  0
  -22.7346  -34.3162   21.6572 C   0  0  0  0  0  0  0  0  0  0  0  0
  -28.5248  -31.8115   23.1525 C   0  0  0  0  0  0  0  0  0  0  0  0
  -26.5735  -33.2555   23.7655 C   0  0  0  0  0  0  0  0  0  0  0  0
  -27.6083  -33.4542   21.5044 C   0  0  0  0  0  0  0  0  0  0  0  0
  -21.2770  -30.8091   21.8857 C   0  0  0  0  0  0  0  0  0  0  0  0
  -22.1870  -23.8419   22.8160 C   0  0  1  0  0  0  0  0  0  1  0  0
  -26.2206  -31.4145   22.0575 C   0  0  1  0  0  0  0  0  0  0  0  0
  -22.7353  -32.8023   21.5126 C   0  0  2  0  0  0  0  0  0  0  0  0
  -27.2293  -32.4556   22.6197 C   0  0  0  0  0  0  0  0  0  0  0  0
  -26.4195  -16.5749   20.5513 N   0  0  0  0  0  0  0  0  0  0  0  0
  -24.8503  -23.9907   25.3901 N   0  0  0  0  0  0  0  0  0  0  0  0
  -25.3556  -23.1802   24.4446 N   0  0  0  0  0  0  0  0  0  0  0  0
  -26.6525  -17.8902   20.6989 N   0  0  0  0  0  0  0  0  0  0  0  0
  -26.3192  -29.2752   20.8176 N   0  0  0  0  0  0  0  0  0  0  0  0
  -29.6888  -18.9070   22.7878 N   0  0  0  0  0  0  0  0  0  0  0  0
  -29.0074  -20.9584   23.8122 N   0  0  0  0  0  0  0  0  0  0  0  0
  -25.5974  -20.0106   20.6664 N   0  0  0  0  0  0  0  0  0  0  0  0
  -22.2127  -17.1493   19.7990 N   0  0  0  0  0  0  0  0  0  0  0  0
  -28.7400  -26.6850   19.9651 N   0  0  0  0  0  0  0  0  0  0  0  0
  -24.9959  -31.9984   21.5212 N   0  0  0  0  0  0  0  0  0  0  0  0
  -21.4231  -32.2837   21.9922 N   0  3  0  0  0  0  0  0  0  0  0  0
  -22.7607  -19.3606   20.0601 O   0  0  0  0  0  0  0  0  0  0  0  0
  -28.0332  -27.7324   21.9210 O   0  0  0  0  0  0  0  0  0  0  0  0
  -27.6763  -31.0732   20.2161 O   0  0  0  0  0  0  0  0  0  0  0  0
  -23.7712  -31.8699   23.4861 O   0  0  0  0  0  0  0  0  0  0  0  0
  -31.2041  -20.5941   23.2092 O   0  0  0  0  0  0  0  0  0  0  0  0
  -22.5992  -11.6035   19.4379 O   0  0  0  0  0  0  0  0  0  0  0  0
  -21.9610  -25.1951   22.3734 O   0  0  0  0  0  0  0  0  0  1  0  0
  -23.8233   -7.4689   22.8746 F   0  0  0  0  0  0  0  0  0  0  0  0
  -25.1941  -10.6811   19.6795 F   0  0  0  0  0  0  0  0  0  0  0  0
  1  2  1  0  0  0  0
  1  5  2  0  0  0  0
  2  6  2  0  0  0  0
  3  8  2  0  0  0  0
  3 16  1  0  0  0  0
  4  9  1  0  0  0  0
  4 16  2  0  0  0  0
  5 18  1  0  0  0  0
  6 20  1  0  0  0  0
  7 10  2  0  0  0  0
  7 19  1  0  0  0  0
  8 23  1  0  0  0  0
  9 23  2  0  0  0  0
 10 24  1  0  0  0  0
 11 12  2  0  0  0  0
 11 25  1  0  0  0  0
 12 26  1  0  0  0  0
 13 21  1  0  0  0  0
 13 24  2  0  0  0  0
 14 26  2  0  0  0  0
 14 27  1  0  0  0  0
 15 22  2  0  0  0  0
 15 66  1  0  0  0  0
 16 28  1  0  0  0  0
 17 28  1  0  0  0  0
 17 30  2  0  0  0  0
 17 31  1  0  0  0  0
 18 20  2  0  0  0  0
 18 36  1  0  0  0  0
 19 21  2  0  0  0  0
 19 37  1  0  0  0  0
 20 49  1  0  0  0  0
 21 38  1  0  0  0  0
 22 29  1  0  0  0  0
 22 60  1  0  0  0  0
 23 81  1  0  0  0  0
 24 82  1  0  0  0  0
 25 27  2  0  0  0  0
 25 81  1  0  0  0  0
 26 83  1  0  0  0  0
 27 84  1  0  0  0  0
 28 64  2  0  0  0  0
 29 53  1  0  0  0  0
 29 65  2  0  0  0  0
 30 67  1  0  0  0  0
 30 71  1  0  0  0  0
 31 72  1  0  0  0  0
 31 76  2  0  0  0  0
 32 50  1  0  0  0  0
 32 73  1  0  0  0  0
 32 77  2  0  0  0  0
 33 61  1  0  0  0  0
 33 68  1  0  0  0  0
 33 78  2  0  0  0  0
 34 62  1  0  0  0  0
 34 74  1  0  0  0  0
 34 79  2  0  0  0  0
 35 69  1  0  0  0  0
 35 70  1  0  0  0  0
 35 80  2  0  0  0  0
 36 39  1  0  0  0  0
 37 50  1  0  0  0  0
 38 68  1  0  0  0  0
 39 41  1  0  0  0  0
 40 42  1  0  0  0  0
 40 45  1  0  0  0  0
 41 49  1  0  0  0  0
 42 51  1  0  0  0  0
 43 46  1  0  0  0  0
 43 52  1  0  0  0  0
 44 47  1  0  0  0  0
 44 52  1  0  0  0  0
 45 69  1  0  0  0  0
 46 70  1  0  0  0  0
 47 70  1  0  0  0  0
 48 51  1  0  0  0  0
 48 69  1  0  0  0  0
 49 73  1  0  0  0  0
 50 68  1  0  0  0  0
 51 67  1  0  0  0  0
 52 66  1  0  0  0  0
 54 60  1  0  0  0  0
 55 62  1  0  0  0  0
 56 63  1  0  0  0  0
 57 63  1  0  0  0  0
 58 63  1  0  0  0  0
 59 75  1  0  0  0  0
 60 82  1  0  0  0  0
 61 63  1  0  0  0  0
 61 74  1  0  0  0  0
 62 75  1  0  0  0  0
 64 67  1  0  0  0  0
 65 66  1  0  0  0  0
M  CHG  1  75   1
M  ISO  4  35 100  60 101  70 100  82 101
M  END
> <Batch ID>
0178

> <Smiles>
CNC(C)C(=O)NC(C(=O)N1Cc2cc([101O:1][101CH:1](C)c3cn(C4CC[100N:0]([100C:0](=O)N5CCCC(n6nc(-c7ccc(Oc8ccc(F)cc8F)cc7)c(C(N)=O)c6N)C5)CC4)nc3C)ccc2CC1C(=O)NC1CCCc2ccccc21)C(C)(C)C

> <Shape>
0.229

> <Color>
0.049

> <Negative vol penalty>
0.000

$$$$

  -OEChem-04052322553D

 85 94  0     1  0  0  0  0  0999 V2000
  -28.4954  -35.6342   21.4696 C   0  0  0  0  0  0  0  0  0  0  0  0
  -29.1194  -34.6201   20.7500 C   0  0  0  0  0  0  0  0  0  0  0  0
  -22.9041  -11.1571   20.5245 C   0  0  0  0  0  0  0  0  0  0  0  0
  -23.8584   -9.2578   21.6729 C   0  0  0  0  0  0  0  0  0  0  0  0
  -27.6339  -35.3147   22.5182 C   0  0  0  0  0  0  0  0  0  0  0  0
  -28.8830  -33.2859   21.0794 C   0  0  0  0  0  0  0  0  0  0  0  0
  -28.3726  -26.8008   18.0796 C   0  0  0  0  0  0  0  0  0  0  0  0
  -21.7790  -10.3978   20.2034 C   0  0  0  0  0  0  0  0  0  0  0  0
  -22.7332   -8.4984   21.3519 C   0  0  0  0  0  0  0  0  0  0  0  0
  -28.8836  -25.5103   18.2105 C   0  0  0  0  0  0  0  0  0  0  0  0
  -18.4954   -9.0661   19.3911 C   0  0  0  0  0  0  0  0  0  0  0  0
  -17.2435   -9.6555   19.5668 C   0  0  0  0  0  0  0  0  0  0  0  0
  -30.9104  -19.9069   20.5992 C   0  0  0  0  0  0  0  0  0  0  0  0
  -27.3144  -25.0759   19.9904 C   0  0  0  0  0  0  0  0  0  0  0  0
  -17.7063   -9.9365   21.9214 C   0  0  0  0  0  0  0  0  0  0  0  0
  -23.9438  -10.5871   21.2592 C   0  0  0  0  0  0  0  0  0  0  0  0
  -25.2995  -12.1619   22.7390 C   0  0  0  0  0  0  0  0  0  0  0  0
  -27.3793  -33.9758   22.8544 C   0  0  0  0  0  0  0  0  0  0  0  0
  -27.3341  -27.2429   18.9119 C   0  0  0  0  0  0  0  0  0  0  0  0
  -28.0183  -32.9483   22.1344 C   0  0  0  0  0  0  0  0  0  0  0  0
  -30.1447  -18.7619   20.3531 C   0  0  0  0  0  0  0  0  0  0  0  0
  -26.7902  -26.3716   19.8663 C   0  0  0  0  0  0  0  0  0  0  0  0
  -30.3171  -21.1638   20.5854 C   0  0  0  0  0  0  0  0  0  0  0  0
  -21.6935   -9.0684   20.6172 C   0  0  0  0  0  0  0  0  0  0  0  0
  -28.3566  -24.6486   19.1679 C   0  0  0  0  0  0  0  0  0  0  0  0
  -19.3528   -8.9118   20.4805 C   0  0  0  0  0  0  0  0  0  0  0  0
  -16.8489  -10.0907   20.8320 C   0  0  0  0  0  0  0  0  0  0  0  0
  -18.9582   -9.3471   21.7457 C   0  0  0  0  0  0  0  0  0  0  0  0
  -25.1066  -11.3709   21.5906 C   0  0  0  0  0  0  0  0  0  0  0  0
  -28.7880  -18.9475   20.0805 C   0  0  0  0  0  0  0  0  0  0  0  0
  -28.9616  -21.2357   20.3222 C   0  0  0  0  0  0  0  0  0  0  0  0
  -26.5549  -12.6961   22.5811 C   0  0  0  0  0  0  0  0  0  0  0  0
  -24.4223  -12.3931   23.8493 C   0  0  0  0  0  0  0  0  0  0  0  0
  -27.0205  -29.5526   21.0731 C   0  0  0  0  0  0  0  0  0  0  0  0
  -23.9220  -28.5926   21.0783 C   0  0  0  0  0  0  0  0  0  0  0  0
  -21.6570  -26.1103   20.4828 C   0  0  0  0  0  0  0  0  0  0  0  0
  -30.5061  -15.0305   19.6230 C   0  0  0  0  0  0  0  0  0  0  0  0
  -26.4772  -33.6805   24.0265 C   0  0  0  0  0  0  0  0  0  0  0  0
  -26.7759  -28.6290   18.7400 C   0  0  0  0  0  0  0  0  0  0  0  0
  -25.6611  -26.7909   20.7707 C   0  0  0  0  0  0  0  0  0  0  0  0
  -27.9312  -17.7555   19.7680 C   0  0  0  0  0  0  0  0  0  0  0  0
  -25.9888  -32.2349   24.0702 C   0  0  0  0  0  0  0  0  0  0  0  0
  -30.2177  -11.6100   19.2732 C   0  0  0  0  0  0  0  0  0  0  0  0
  -27.1479  -31.2724   23.8313 C   0  0  0  0  0  0  0  0  0  0  0  0
  -28.8796  -11.2917   19.9411 C   0  0  0  0  0  0  0  0  0  0  0  0
  -28.7560  -16.7150   19.0280 C   0  0  0  0  0  0  0  0  0  0  0  0
  -30.1252  -12.8853   18.4426 C   0  0  0  0  0  0  0  0  0  0  0  0
  -28.3214  -13.7711   19.8831 C   0  0  0  0  0  0  0  0  0  0  0  0
  -27.7680  -31.4886   22.4456 C   0  0  1  0  0  0  0  0  0  0  0  0
  -30.7733  -17.3819   20.3930 C   0  0  1  0  0  0  0  0  0  0  0  0
  -26.0651  -29.1457   19.9871 C   0  0  1  0  0  0  0  0  0  0  0  0
  -28.3633  -12.4962   20.7490 C   0  0  1  0  0  0  0  0  0  0  0  0
  -31.1388  -22.3780   20.8490 C   0  0  0  0  0  0  0  0  0  0  0  0
  -19.2014  -25.6106   20.6164 C   0  0  0  0  0  0  0  0  0  0  0  0
  -32.4465  -17.6746   22.2436 C   0  0  0  0  0  0  0  0  0  0  0  0
  -30.0029  -17.4691   22.7822 C   0  0  0  0  0  0  0  0  0  0  0  0
  -24.1500  -28.2944   24.1063 C   0  0  0  0  0  0  0  0  0  0  0  0
  -22.0546  -26.9250   24.0593 C   0  0  0  0  0  0  0  0  0  0  0  0
  -22.0035  -29.3058   23.3164 C   0  0  0  0  0  0  0  0  0  0  0  0
  -21.4795  -25.6228   17.5690 C   0  0  0  0  0  0  0  0  0  0  0  0
  -28.2683  -22.5582   20.2987 C   0  0  0  0  0  0  0  0  0  1  0  0
  -23.1197  -27.5739   21.8513 C   0  0  1  0  0  0  0  0  0  0  0  0
  -20.3357  -26.1104   19.7353 C   0  0  2  0  0  0  0  0  0  0  0  0
  -31.1237  -17.0295   21.8479 C   0  0  0  0  0  0  0  0  0  0  0  0
  -22.8546  -28.0172   23.3178 C   0  0  0  0  0  0  0  0  0  0  0  0
  -26.1554  -11.3975   20.7640 N   0  0  0  0  0  0  0  0  0  0  0  0
  -28.1834  -20.1612   20.0702 N   0  0  0  0  0  0  0  0  0  0  0  0
  -27.0194  -12.2118   21.3937 N   0  0  0  0  0  0  0  0  0  0  0  0
  -25.1536  -28.1580   20.5683 N   0  0  0  0  0  0  0  0  0  0  0  0
  -29.6282  -14.0003   19.2479 N   0  0  0  0  0  0  0  0  0  0  0  0
  -29.9324  -16.3061   19.8108 N   0  0  0  0  0  0  0  0  0  0  0  0
  -27.2957  -13.5283   23.3433 N   0  0  0  0  0  0  0  0  0  0  0  0
  -23.1688  -11.7660   23.8523 N   0  0  0  0  0  0  0  0  0  0  0  0
  -26.9402  -30.8872   21.4221 N   0  0  0  0  0  0  0  0  0  0  0  0
  -21.9102  -27.3307   21.0726 N   0  0  0  0  0  0  0  0  0  0  0  0
  -20.4199  -25.2321   18.5343 N   0  3  0  0  0  0  0  0  0  0  0  0
  -24.7340  -13.1467   24.8024 O   0  0  0  0  0  0  0  0  0  0  0  0
  -27.7737  -28.7172   21.5594 O   0  0  0  0  0  0  0  0  0  0  0  0
  -23.4693  -29.7300   20.9263 O   0  0  0  0  0  0  0  0  0  0  0  0
  -22.3893  -25.1250   20.5409 O   0  0  0  0  0  0  0  0  0  0  0  0
  -31.7137  -14.8282   19.7976 O   0  0  0  0  0  0  0  0  0  0  0  0
  -20.5957   -8.3272   20.3043 O   0  0  0  0  0  0  0  0  0  0  0  0
  -28.8576  -23.3797   19.2992 O   0  0  0  0  0  0  0  0  0  1  0  0
  -15.6473  -10.6581   21.0003 F   0  0  0  0  0  0  0  0  0  0  0  0
  -19.7781   -9.2026   22.7958 F   0  0  0  0  0  0  0  0  0  0  0  0
  1  2  1  0  0  0  0
  1  5  2  0  0  0  0
  2  6  2  0  0  0  0
  3  8  2  0  0  0  0
  3 16  1  0  0  0  0
  4  9  1  0  0  0  0
  4 16  2  0  0  0  0
  5 18  1  0  0  0  0
  6 20  1  0  0  0  0
  7 10  2  0  0  0  0
  7 19  1  0  0  0  0
  8 24  1  0  0  0  0
  9 24  2  0  0  0  0
 10 25  1  0  0  0  0
 11 12  2  0  0  0  0
 11 26  1  0  0  0  0
 12 27  1  0  0  0  0
 13 21  2  0  0  0  0
 13 23  1  0  0  0  0
 14 22  1  0  0  0  0
 14 25  2  0  0  0  0
 15 27  2  0  0  0  0
 15 28  1  0  0  0  0
 16 29  1  0  0  0  0
 17 29  1  0  0  0  0
 17 32  2  0  0  0  0
 17 33  1  0  0  0  0
 18 20  2  0  0  0  0
 18 38  1  0  0  0  0
 19 22  2  0  0  0  0
 19 39  1  0  0  0  0
 20 49  1  0  0  0  0
 21 30  1  0  0  0  0
 21 50  1  0  0  0  0
 22 40  1  0  0  0  0
 23 31  2  0  0  0  0
 23 53  1  0  0  0  0
 24 82  1  0  0  0  0
 25 83  1  0  0  0  0
 26 28  2  0  0  0  0
 26 82  1  0  0  0  0
 27 84  1  0  0  0  0
 28 85  1  0  0  0  0
 29 66  2  0  0  0  0
 30 41  1  0  0  0  0
 30 67  2  0  0  0  0
 31 61  1  0  0  0  0
 31 67  1  0  0  0  0
 32 68  1  0  0  0  0
 32 72  1  0  0  0  0
 33 73  1  0  0  0  0
 33 77  2  0  0  0  0
 34 51  1  0  0  0  0
 34 74  1  0  0  0  0
 34 78  2  0  0  0  0
 35 62  1  0  0  0  0
 35 69  1  0  0  0  0
 35 79  2  0  0  0  0
 36 63  1  0  0  0  0
 36 75  1  0  0  0  0
 36 80  2  0  0  0  0
 37 70  1  0  0  0  0
 37 71  1  0  0  0  0
 37 81  2  0  0  0  0
 38 42  1  0  0  0  0
 39 51  1  0  0  0  0
 40 69  1  0  0  0  0
 41 46  1  0  0  0  0
 42 44  1  0  0  0  0
 43 45  1  0  0  0  0
 43 47  1  0  0  0  0
 44 49  1  0  0  0  0
 45 52  1  0  0  0  0
 46 71  1  0  0  0  0
 47 70  1  0  0  0  0
 48 52  1  0  0  0  0
 48 70  1  0  0  0  0
 49 74  1  0  0  0  0
 50 64  1  0  0  0  0
 50 71  1  0  0  0  0
 51 69  1  0  0  0  0
 52 68  1  0  0  0  0
 54 63  1  0  0  0  0
 55 64  1  0  0  0  0
 56 64  1  0  0  0  0
 57 65  1  0  0  0  0
 58 65  1  0  0  0  0
 59 65  1  0  0  0  0
 60 76  1  0  0  0  0
 61 83  1  0  0  0  0
 62 65  1  0  0  0  0
 62 75  1  0  0  0  0
 63 76  1  0  0  0  0
 66 68  1  0  0  0  0
M  CHG  1  76   1
M  ISO  4  37 100  61 101  71 100  83 101
M  END
> <Batch ID>
0178

> <Smiles>
CNC(C)C(=O)NC(C(=O)N1Cc2cc([101O:1][101CH2:1]c3nc4c(cc3C)C(C(C)C)[100N:0]([100C:0](=O)N3CCCC(n5nc(-c6ccc(Oc7ccc(F)cc7F)cc6)c(C(N)=O)c5N)C3)CC4)ccc2CC1C(=O)NC1CCCc2ccccc21)C(C)(C)C

> <Shape>
0.292

> <Color>
0.097

> <Negative vol penalty>
0.000

$$$$

  -OEChem-04052322553D

 80 88  0     1  0  0  0  0  0999 V2000
  -32.2712  -14.0577   21.3267 C   0  0  0  0  0  0  0  0  0  0  0  0
  -31.4677  -15.1664   21.5732 C   0  0  0  0  0  0  0  0  0  0  0  0
  -27.1494  -25.0417   21.1259 C   0  0  0  0  0  0  0  0  0  0  0  0
  -24.8289  -24.7979   20.4991 C   0  0  0  0  0  0  0  0  0  0  0  0
  -31.7553  -12.9650   20.6312 C   0  0  0  0  0  0  0  0  0  0  0  0
  -30.1480  -15.1834   21.1233 C   0  0  0  0  0  0  0  0  0  0  0  0
  -25.3449  -17.7765   23.9002 C   0  0  0  0  0  0  0  0  0  0  0  0
  -27.2387  -23.6649   21.3310 C   0  0  0  0  0  0  0  0  0  0  0  0
  -24.9182  -23.4210   20.7041 C   0  0  0  0  0  0  0  0  0  0  0  0
  -24.6991  -18.9976   23.7115 C   0  0  0  0  0  0  0  0  0  0  0  0
  -27.5754  -20.8817   19.4407 C   0  0  0  0  0  0  0  0  0  0  0  0
  -28.6912  -20.2209   18.9271 C   0  0  0  0  0  0  0  0  0  0  0  0
  -23.0682  -17.9109   22.3050 C   0  0  0  0  0  0  0  0  0  0  0  0
  -29.2937  -19.5067   21.1551 C   0  0  0  0  0  0  0  0  0  0  0  0
  -25.9445  -25.6082   20.7100 C   0  0  0  0  0  0  0  0  0  0  0  0
  -26.5988  -27.8058   19.5920 C   0  0  0  0  0  0  0  0  0  0  0  0
  -30.4256  -12.9647   20.1810 C   0  0  0  0  0  0  0  0  0  0  0  0
  -24.8627  -16.6135   23.2829 C   0  0  0  0  0  0  0  0  0  0  0  0
  -29.6142  -14.0902   20.4199 C   0  0  0  0  0  0  0  0  0  0  0  0
  -23.7082  -16.6758   22.4895 C   0  0  0  0  0  0  0  0  0  0  0  0
  -26.1232  -22.8546   21.1200 C   0  0  0  0  0  0  0  0  0  0  0  0
  -23.5623  -19.0655   22.9115 C   0  0  0  0  0  0  0  0  0  0  0  0
  -27.3187  -20.8551   20.8115 C   0  0  0  0  0  0  0  0  0  0  0  0
  -29.5504  -19.5334   19.7843 C   0  0  0  0  0  0  0  0  0  0  0  0
  -28.1779  -20.1676   21.6687 C   0  0  0  0  0  0  0  0  0  0  0  0
  -25.8514  -27.0304   20.4986 C   0  0  0  0  0  0  0  0  0  0  0  0
  -26.1384  -29.0868   19.7748 C   0  0  0  0  0  0  0  0  0  0  0  0
  -27.6180  -27.4040   18.6671 C   0  0  0  0  0  0  0  0  0  0  0  0
  -26.0232  -14.5577   21.1542 C   0  0  0  0  0  0  0  0  0  0  0  0
  -23.2934  -12.9342   21.8138 C   0  0  0  0  0  0  0  0  0  0  0  0
  -20.0738  -13.0174   22.9425 C   0  0  0  0  0  0  0  0  0  0  0  0
  -22.1433  -28.0277   23.4323 C   0  0  0  0  0  0  0  0  0  0  0  0
  -29.9266  -11.7800   19.3922 C   0  0  0  0  0  0  0  0  0  0  0  0
  -25.5553  -15.2991   23.5180 C   0  0  0  0  0  0  0  0  0  0  0  0
  -23.1385  -15.4524   21.8209 C   0  0  0  0  0  0  0  0  0  0  0  0
  -28.4056  -11.7225   19.2762 C   0  0  0  0  0  0  0  0  0  0  0  0
  -24.9802  -30.1708   23.7877 C   0  0  0  0  0  0  0  0  0  0  0  0
  -18.7055  -28.0152   22.2785 C   0  0  0  0  0  0  0  0  0  0  0  0
  -27.8472  -13.0900   18.8957 C   0  0  0  0  0  0  0  0  0  0  0  0
  -25.1084  -30.8757   22.4419 C   0  0  0  0  0  0  0  0  0  0  0  0
  -18.9976  -26.5251   22.1724 C   0  0  0  0  0  0  0  0  0  0  0  0
  -23.5172  -29.9524   24.1411 C   0  0  0  0  0  0  0  0  0  0  0  0
  -20.0780  -28.6382   22.0755 C   0  0  0  0  0  0  0  0  0  0  0  0
  -22.9124  -29.7665   21.7357 C   0  0  0  0  0  0  0  0  0  0  0  0
  -28.1701  -14.1360   19.9695 C   0  0  1  0  0  0  0  0  0  0  0  0
  -25.2747  -14.2720   22.4254 C   0  0  1  0  0  0  0  0  0  0  0  0
  -24.3525  -30.1460   21.3200 C   0  0  2  0  0  0  0  0  0  0  0  0
  -20.3550  -26.3827   22.8665 C   0  0  1  0  0  0  0  0  0  0  0  0
  -18.0833  -11.5392   23.3296 C   0  0  0  0  0  0  0  0  0  0  0  0
  -22.7319  -12.9091   18.8147 C   0  0  0  0  0  0  0  0  0  0  0  0
  -20.3598  -12.3000   19.3346 C   0  0  0  0  0  0  0  0  0  0  0  0
  -22.2126  -10.7642   19.9913 C   0  0  0  0  0  0  0  0  0  0  0  0
  -20.0668  -13.5909   25.8460 C   0  0  0  0  0  0  0  0  0  0  0  0
  -21.1790  -25.2452   22.2770 C   0  0  0  0  0  0  0  0  0  0  0  0
  -20.8998  -21.5041   23.0274 C   0  0  0  0  0  0  0  0  0  0  0  0
  -21.4180  -22.7598   22.3426 C   0  0  0  0  0  0  0  0  0  0  0  0
  -21.5224  -20.2170   22.5006 C   0  0  0  0  0  0  0  0  0  1  0  0
  -21.8908  -12.9298   21.2556 C   0  0  1  0  0  0  0  0  0  0  0  0
  -19.3345  -12.1478   23.9434 C   0  0  2  0  0  0  0  0  0  0  0  0
  -21.8104  -12.2494   19.8600 C   0  0  0  0  0  0  0  0  0  0  0  0
  -24.9823  -27.7581   21.2051 N   0  0  0  0  0  0  0  0  0  0  0  0
  -25.1808  -29.0042   20.7425 N   0  0  0  0  0  0  0  0  0  0  0  0
  -23.8549  -14.1918   22.0761 N   0  0  0  0  0  0  0  0  0  0  0  0
  -22.8054  -29.2176   23.0952 N   0  0  0  0  0  0  0  0  0  0  0  0
  -21.0006  -27.6909   22.7031 N   0  0  0  0  0  0  0  0  0  0  0  0
  -26.4633  -30.2646   19.2008 N   0  0  0  0  0  0  0  0  0  0  0  0
  -27.2353  -27.0320   17.3711 N   0  0  0  0  0  0  0  0  0  0  0  0
  -27.2813  -13.9887   21.1021 N   0  0  0  0  0  0  0  0  0  0  0  0
  -21.0488  -12.3090   22.2725 N   0  0  0  0  0  0  0  0  0  0  0  0
  -18.9316  -12.9529   25.1309 N   0  3  0  0  0  0  0  0  0  0  0  0
  -20.7299  -23.9701   22.8751 N   0  3  0  0  0  0  0  0  0  0  0  0
  -28.8305  -27.3599   18.9856 O   0  0  0  0  0  0  0  0  0  0  0  0
  -25.4975  -15.2425   20.2845 O   0  0  0  0  0  0  0  0  0  0  0  0
  -23.8670  -11.8611   22.0163 O   0  0  0  0  0  0  0  0  0  0  0  0
  -19.8102  -14.2053   22.7696 O   0  0  0  0  0  0  0  0  0  0  0  0
  -22.5488  -27.3032   24.3508 O   0  0  0  0  0  0  0  0  0  0  0  0
  -26.2100  -21.5110   21.3197 O   0  0  0  0  0  0  0  0  0  0  0  0
  -22.9259  -20.2646   22.7238 O   0  0  0  0  0  0  0  0  0  1  0  0
  -30.6211  -18.8975   19.2908 F   0  0  0  0  0  0  0  0  0  0  0  0
  -27.9358  -20.1375   22.9864 F   0  0  0  0  0  0  0  0  0  0  0  0
  1  2  1  0  0  0  0
  1  5  2  0  0  0  0
  2  6  2  0  0  0  0
  3  8  2  0  0  0  0
  3 15  1  0  0  0  0
  4  9  1  0  0  0  0
  4 15  2  0  0  0  0
  5 17  1  0  0  0  0
  6 19  1  0  0  0  0
  7 10  2  0  0  0  0
  7 18  1  0  0  0  0
  8 21  1  0  0  0  0
  9 21  2  0  0  0  0
 10 22  1  0  0  0  0
 11 12  2  0  0  0  0
 11 23  1  0  0  0  0
 12 24  1  0  0  0  0
 13 20  1  0  0  0  0
 13 22  2  0  0  0  0
 14 24  2  0  0  0  0
 14 25  1  0  0  0  0
 15 26  1  0  0  0  0
 16 26  1  0  0  0  0
 16 27  2  0  0  0  0
 16 28  1  0  0  0  0
 17 19  2  0  0  0  0
 17 33  1  0  0  0  0
 18 20  2  0  0  0  0
 18 34  1  0  0  0  0
 19 45  1  0  0  0  0
 20 35  1  0  0  0  0
 21 77  1  0  0  0  0
 22 78  1  0  0  0  0
 23 25  2  0  0  0  0
 23 77  1  0  0  0  0
 24 79  1  0  0  0  0
 25 80  1  0  0  0  0
 26 61  2  0  0  0  0
 27 62  1  0  0  0  0
 27 66  1  0  0  0  0
 28 67  1  0  0  0  0
 28 72  2  0  0  0  0
 29 46  1  0  0  0  0
 29 68  1  0  0  0  0
 29 73  2  0  0  0  0
 30 58  1  0  0  0  0
 30 63  1  0  0  0  0
 30 74  2  0  0  0  0
 31 59  1  0  0  0  0
 31 69  1  0  0  0  0
 31 75  2  0  0  0  0
 32 64  1  0  0  0  0
 32 65  1  0  0  0  0
 32 76  2  0  0  0  0
 33 36  1  0  0  0  0
 34 46  1  0  0  0  0
 35 63  1  0  0  0  0
 36 39  1  0  0  0  0
 37 40  1  0  0  0  0
 37 42  1  0  0  0  0
 38 41  1  0  0  0  0
 38 43  1  0  0  0  0
 39 45  1  0  0  0  0
 40 47  1  0  0  0  0
 41 48  1  0  0  0  0
 42 64  1  0  0  0  0
 43 65  1  0  0  0  0
 44 47  1  0  0  0  0
 44 64  1  0  0  0  0
 45 68  1  0  0  0  0
 46 63  1  0  0  0  0
 47 62  1  0  0  0  0
 48 54  1  0  0  0  0
 48 65  1  0  0  0  0
 49 59  1  0  0  0  0
 50 60  1  0  0  0  0
 51 60  1  0  0  0  0
 52 60  1  0  0  0  0
 53 70  1  0  0  0  0
 54 71  1  0  0  0  0
 55 56  1  0  0  0  0
 55 57  1  0  0  0  0
 56 71  1  0  0  0  0
 57 78  1  0  0  0  0
 58 60  1  0  0  0  0
 58 69  1  0  0  0  0
 59 70  1  0  0  0  0
 61 62  1  0  0  0  0
M  CHG  2  70   1  71   1
M  ISO  4  32 100  57 101  65 100  78 101
M  END
> <Batch ID>
0178

> <Smiles>
CNC(C)C(=O)NC(C(=O)N1Cc2cc([101O:1][101CH2:1]CCNCC3CCC[100N:0]3[100C:0](=O)N3CCCC(n4nc(-c5ccc(Oc6ccc(F)cc6F)cc5)c(C(N)=O)c4N)C3)ccc2CC1C(=O)NC1CCCc2ccccc21)C(C)(C)C

> <Shape>
0.244

> <Color>
0.079

> <Negative vol penalty>
0.000

$$$$

  -OEChem-04052322553D

 80 88  0     1  0  0  0  0  0999 V2000
  -26.9681  -32.9395   17.6702 C   0  0  0  0  0  0  0  0  0  0  0  0
  -27.5152  -31.7935   18.2382 C   0  0  0  0  0  0  0  0  0  0  0  0
  -23.0361   -9.9008   19.9650 C   0  0  0  0  0  0  0  0  0  0  0  0
  -23.7758   -9.9399   22.2646 C   0  0  0  0  0  0  0  0  0  0  0  0
  -26.1366  -32.8350   16.5558 C   0  0  0  0  0  0  0  0  0  0  0  0
  -27.2303  -30.5421   17.6929 C   0  0  0  0  0  0  0  0  0  0  0  0
  -30.9867  -25.7144   17.3948 C   0  0  0  0  0  0  0  0  0  0  0  0
  -22.2905   -8.7508   20.2243 C   0  0  0  0  0  0  0  0  0  0  0  0
  -23.0302   -8.7899   22.5240 C   0  0  0  0  0  0  0  0  0  0  0  0
  -31.1138  -24.5745   18.1874 C   0  0  0  0  0  0  0  0  0  0  0  0
  -23.3274   -5.4607   22.0153 C   0  0  0  0  0  0  0  0  0  0  0  0
  -23.9370   -4.4457   22.7527 C   0  0  0  0  0  0  0  0  0  0  0  0
  -29.7177  -23.3536   16.6449 C   0  0  0  0  0  0  0  0  0  0  0  0
  -22.2206   -4.6420   24.4417 C   0  0  0  0  0  0  0  0  0  0  0  0
  -29.3397  -18.7091   20.8371 C   0  0  0  0  0  0  0  0  0  0  0  0
  -23.7788  -10.4953   20.9851 C   0  0  0  0  0  0  0  0  0  0  0  0
  -24.1206  -13.0187   20.8331 C   0  0  0  0  0  0  0  0  0  0  0  0
  -25.8492  -31.5826   15.9907 C   0  0  0  0  0  0  0  0  0  0  0  0
  -30.2139  -25.6854   16.2251 C   0  0  0  0  0  0  0  0  0  0  0  0
  -26.3932  -30.4207   16.5708 C   0  0  0  0  0  0  0  0  0  0  0  0
  -29.5844  -24.4938   15.8379 C   0  0  0  0  0  0  0  0  0  0  0  0
  -22.2876   -8.1954   21.5038 C   0  0  0  0  0  0  0  0  0  0  0  0
  -30.4769  -23.3947   17.8141 C   0  0  0  0  0  0  0  0  0  0  0  0
  -22.1644   -6.0664   22.4911 C   0  0  0  0  0  0  0  0  0  0  0  0
  -23.3836   -4.0364   23.9659 C   0  0  0  0  0  0  0  0  0  0  0  0
  -21.6110   -5.6571   23.7043 C   0  0  0  0  0  0  0  0  0  0  0  0
  -24.5496  -11.6829   20.7176 C   0  0  0  0  0  0  0  0  0  0  0  0
  -30.5452  -18.0463   20.9070 C   0  0  0  0  0  0  0  0  0  0  0  0
  -31.3562  -19.3424   19.2062 C   0  0  0  0  0  0  0  0  0  0  0  0
  -30.1503  -20.0045   19.1359 C   0  0  0  0  0  0  0  0  0  0  0  0
  -25.2156  -13.7637   20.4691 C   0  0  0  0  0  0  0  0  0  0  0  0
  -22.8463  -13.5396   21.2337 C   0  0  0  0  0  0  0  0  0  0  0  0
  -27.6082  -27.2032   15.2199 C   0  0  0  0  0  0  0  0  0  0  0  0
  -28.2455  -25.6473   12.4459 C   0  0  0  0  0  0  0  0  0  0  0  0
  -29.7278  -22.9999   10.8835 C   0  0  0  0  0  0  0  0  0  0  0  0
  -30.6971  -14.7882   20.6914 C   0  0  0  0  0  0  0  0  0  0  0  0
  -24.9071  -31.5157   14.8148 C   0  0  0  0  0  0  0  0  0  0  0  0
  -30.1086  -26.9162   15.3669 C   0  0  0  0  0  0  0  0  0  0  0  0
  -28.7599  -24.4048   14.5806 C   0  0  0  0  0  0  0  0  0  0  0  0
  -24.9559  -30.1840   14.0702 C   0  0  0  0  0  0  0  0  0  0  0  0
  -29.5814  -12.3702   18.3280 C   0  0  0  0  0  0  0  0  0  0  0  0
  -24.9147  -29.0199   15.0550 C   0  0  0  0  0  0  0  0  0  0  0  0
  -28.1404  -12.0818   18.7523 C   0  0  0  0  0  0  0  0  0  0  0  0
  -30.4879  -12.6082   19.5337 C   0  0  0  0  0  0  0  0  0  0  0  0
  -28.5738  -13.3573   20.8933 C   0  0  0  0  0  0  0  0  0  0  0  0
  -26.1276  -29.0475   15.9929 C   0  0  1  0  0  0  0  0  0  0  0  0
  -28.8762  -26.9140   14.4676 C   0  0  1  0  0  0  0  0  0  0  0  0
  -27.6101  -13.1659   19.7097 C   0  0  2  0  0  0  0  0  0  0  0  0
  -32.4875  -19.6898   18.3001 C   0  0  0  0  0  0  0  0  0  0  0  0
  -30.0439  -21.9770    8.6139 C   0  0  0  0  0  0  0  0  0  0  0  0
  -25.3827  -24.5948   12.5242 C   0  0  0  0  0  0  0  0  0  0  0  0
  -26.0406  -22.8799   10.8229 C   0  0  0  0  0  0  0  0  0  0  0  0
  -26.1709  -25.3066   10.2600 C   0  0  0  0  0  0  0  0  0  0  0  0
  -32.6689  -23.2940   11.0328 C   0  0  0  0  0  0  0  0  0  0  0  0
  -30.7512  -16.9557   21.8989 C   0  0  0  0  0  0  0  0  0  0  0  0
  -29.9194  -21.1064   18.1440 C   0  0  0  0  0  0  0  0  0  1  0  0
  -27.8605  -24.3120   11.8563 C   0  0  1  0  0  0  0  0  0  0  0  0
  -30.6179  -22.9241    9.6561 C   0  0  2  0  0  0  0  0  0  0  0  0
  -26.3776  -24.2752   11.3906 C   0  0  0  0  0  0  0  0  0  0  0  0
  -29.1205  -19.7001   19.9503 N   0  0  0  0  0  0  0  0  0  0  0  0
  -25.8181  -11.5820   20.3118 N   0  0  0  0  0  0  0  0  0  0  0  0
  -31.5752  -18.3511   20.0928 N   0  0  0  0  0  0  0  0  0  0  0  0
  -26.1956  -12.8638   20.1690 N   0  0  0  0  0  0  0  0  0  0  0  0
  -28.6819  -25.6367   13.7783 N   0  0  0  0  0  0  0  0  0  0  0  0
  -29.9292  -13.6485   20.4005 N   0  0  0  0  0  0  0  0  0  0  0  0
  -25.4261  -15.0941   20.3795 N   0  0  0  0  0  0  0  0  0  0  0  0
  -21.8319  -12.6347   21.5747 N   0  0  0  0  0  0  0  0  0  0  0  0
  -27.3035  -28.5478   15.3132 N   0  0  0  0  0  0  0  0  0  0  0  0
  -28.8263  -24.0397   10.7972 N   0  0  0  0  0  0  0  0  0  0  0  0
  -30.0902  -15.7282   21.5152 N   0  0  0  0  0  0  0  0  0  0  0  0
  -31.9774  -22.4423   10.0311 N   0  3  0  0  0  0  0  0  0  0  0  0
  -22.6091  -14.7708   21.2719 O   0  0  0  0  0  0  0  0  0  0  0  0
  -26.9537  -26.2751   15.6804 O   0  0  0  0  0  0  0  0  0  0  0  0
  -28.1690  -26.6614   11.7477 O   0  0  0  0  0  0  0  0  0  0  0  0
  -29.8203  -22.2130   11.8230 O   0  0  0  0  0  0  0  0  0  0  0  0
  -31.8369  -14.9579   20.2453 O   0  0  0  0  0  0  0  0  0  0  0  0
  -21.5600   -7.0734   21.7574 O   0  0  0  0  0  0  0  0  0  0  0  0
  -30.5988  -22.2808   18.5862 O   0  0  0  0  0  0  0  0  0  1  0  0
  -23.9683   -3.0607   24.6732 F   0  0  0  0  0  0  0  0  0  0  0  0
  -20.4933   -6.2344   24.1659 F   0  0  0  0  0  0  0  0  0  0  0  0
  1  2  1  0  0  0  0
  1  5  2  0  0  0  0
  2  6  2  0  0  0  0
  3  8  2  0  0  0  0
  3 16  1  0  0  0  0
  4  9  1  0  0  0  0
  4 16  2  0  0  0  0
  5 18  1  0  0  0  0
  6 20  1  0  0  0  0
  7 10  2  0  0  0  0
  7 19  1  0  0  0  0
  8 22  1  0  0  0  0
  9 22  2  0  0  0  0
 10 23  1  0  0  0  0
 11 12  2  0  0  0  0
 11 24  1  0  0  0  0
 12 25  1  0  0  0  0
 13 21  1  0  0  0  0
 13 23  2  0  0  0  0
 14 25  2  0  0  0  0
 14 26  1  0  0  0  0
 15 28  1  0  0  0  0
 15 60  2  0  0  0  0
 16 27  1  0  0  0  0
 17 27  1  0  0  0  0
 17 31  2  0  0  0  0
 17 32  1  0  0  0  0
 18 20  2  0  0  0  0
 18 37  1  0  0  0  0
 19 21  2  0  0  0  0
 19 38  1  0  0  0  0
 20 46  1  0  0  0  0
 21 39  1  0  0  0  0
 22 77  1  0  0  0  0
 23 78  1  0  0  0  0
 24 26  2  0  0  0  0
 24 77  1  0  0  0  0
 25 79  1  0  0  0  0
 26 80  1  0  0  0  0
 27 61  2  0  0  0  0
 28 55  1  0  0  0  0
 28 62  2  0  0  0  0
 29 30  2  0  0  0  0
 29 49  1  0  0  0  0
 29 62  1  0  0  0  0
 30 56  1  0  0  0  0
 30 60  1  0  0  0  0
 31 63  1  0  0  0  0
 31 66  1  0  0  0  0
 32 67  1  0  0  0  0
 32 72  2  0  0  0  0
 33 47  1  0  0  0  0
 33 68  1  0  0  0  0
 33 73  2  0  0  0  0
 34 57  1  0  0  0  0
 34 64  1  0  0  0  0
 34 74  2  0  0  0  0
 35 58  1  0  0  0  0
 35 69  1  0  0  0  0
 35 75  2  0  0  0  0
 36 65  1  0  0  0  0
 36 70  1  0  0  0  0
 36 76  2  0  0  0  0
 37 40  1  0  0  0  0
 38 47  1  0  0  0  0
 39 64  1  0  0  0  0
 40 42  1  0  0  0  0
 41 43  1  0  0  0  0
 41 44  1  0  0  0  0
 42 46  1  0  0  0  0
 43 48  1  0  0  0  0
 44 65  1  0  0  0  0
 45 48  1  0  0  0  0
 45 65  1  0  0  0  0
 46 68  1  0  0  0  0
 47 64  1  0  0  0  0
 48 63  1  0  0  0  0
 50 58  1  0  0  0  0
 51 59  1  0  0  0  0
 52 59  1  0  0  0  0
 53 59  1  0  0  0  0
 54 71  1  0  0  0  0
 55 70  1  0  0  0  0
 56 78  1  0  0  0  0
 57 59  1  0  0  0  0
 57 69  1  0  0  0  0
 58 71  1  0  0  0  0
 61 63  1  0  0  0  0
M  CHG  1  71   1
M  ISO  4  36 100  56 101  70 100  78 101
M  END
> <Batch ID>
0178

> <Smiles>
CNC(C)C(=O)NC(C(=O)N1Cc2cc([101O:1][101CH2:1]c3ncc(C[100NH:0][100C:0](=O)N4CCCC(n5nc(-c6ccc(Oc7ccc(F)cc7F)cc6)c(C(N)=O)c5N)C4)nc3C)ccc2CC1C(=O)NC1CCCc2ccccc21)C(C)(C)C

> <Shape>
0.226

> <Color>
0.216

> <Negative vol penalty>
0.000

$$$$

  -OEChem-04052322552D

  0  0  0     0  0  0  0  0  0999 V2000
M  END
$$$$

  -OEChem-04052322553D

 86 95  0     1  0  0  0  0  0999 V2000
  -24.8420  -38.8426   20.2817 C   0  0  0  0  0  0  0  0  0  0  0  0
  -25.2057  -37.8285   19.4015 C   0  0  0  0  0  0  0  0  0  0  0  0
  -22.8644   -9.9646   21.7886 C   0  0  0  0  0  0  0  0  0  0  0  0
  -24.7367   -8.4618   21.5173 C   0  0  0  0  0  0  0  0  0  0  0  0
  -25.0513  -38.6838   21.6510 C   0  0  0  0  0  0  0  0  0  0  0  0
  -25.7800  -36.6555   19.8899 C   0  0  0  0  0  0  0  0  0  0  0  0
  -26.1015  -29.6234   18.5622 C   0  0  0  0  0  0  0  0  0  0  0  0
  -21.9833   -8.9097   21.5514 C   0  0  0  0  0  0  0  0  0  0  0  0
  -23.8555   -7.4069   21.2802 C   0  0  0  0  0  0  0  0  0  0  0  0
  -27.0342  -28.6031   18.3810 C   0  0  0  0  0  0  0  0  0  0  0  0
  -22.0917   -4.2439   20.9599 C   0  0  0  0  0  0  0  0  0  0  0  0
  -22.3405   -3.0325   21.6051 C   0  0  0  0  0  0  0  0  0  0  0  0
  -27.2755  -28.4072   20.7732 C   0  0  0  0  0  0  0  0  0  0  0  0
  -22.1396   -4.1322   23.7470 C   0  0  0  0  0  0  0  0  0  0  0  0
  -26.3074  -24.2589   19.3191 C   0  0  0  0  0  0  0  0  0  0  0  0
  -24.2412   -9.7407   21.7715 C   0  0  0  0  0  0  0  0  0  0  0  0
  -25.6660  -11.2459   23.2587 C   0  0  0  0  0  0  0  0  0  0  0  0
  -25.6197  -37.5043   22.1574 C   0  0  0  0  0  0  0  0  0  0  0  0
  -25.7564  -30.0515   19.8522 C   0  0  0  0  0  0  0  0  0  0  0  0
  -25.9984  -36.4814   21.2671 C   0  0  0  0  0  0  0  0  0  0  0  0
  -26.3363  -29.4314   20.9681 C   0  0  0  0  0  0  0  0  0  0  0  0
  -22.4788   -7.6308   21.2972 C   0  0  0  0  0  0  0  0  0  0  0  0
  -27.6234  -27.9967   19.4866 C   0  0  0  0  0  0  0  0  0  0  0  0
  -21.8669   -5.3994   21.7081 C   0  0  0  0  0  0  0  0  0  0  0  0
  -22.3644   -2.9767   22.9987 C   0  0  0  0  0  0  0  0  0  0  0  0
  -21.8908   -5.3436   23.1016 C   0  0  0  0  0  0  0  0  0  0  0  0
  -25.1519  -10.8302   22.0159 C   0  0  0  0  0  0  0  0  0  0  0  0
  -28.9388  -24.6407   19.0800 C   0  0  0  0  0  0  0  0  0  0  0  0
  -27.1669  -23.1966   19.1442 C   0  0  0  0  0  0  0  0  0  0  0  0
  -28.0793  -25.7031   19.2545 C   0  0  0  0  0  0  0  0  0  1  0  0
  -26.4781  -12.3112   22.9553 C   0  0  0  0  0  0  0  0  0  0  0  0
  -25.4305  -10.7165   24.5702 C   0  0  0  0  0  0  0  0  0  0  0  0
  -25.9984  -32.7908   21.4464 C   0  0  0  0  0  0  0  0  0  0  0  0
  -24.3048  -31.1806   23.6961 C   0  0  0  0  0  0  0  0  0  0  0  0
  -23.3902  -28.1781   25.0360 C   0  0  0  0  0  0  0  0  0  0  0  0
  -27.5761  -16.9153   20.4249 C   0  0  0  0  0  0  0  0  0  0  0  0
  -25.8700  -37.3979   23.6409 C   0  0  0  0  0  0  0  0  0  0  0  0
  -24.7287  -31.1351   20.0312 C   0  0  0  0  0  0  0  0  0  0  0  0
  -25.9848  -29.8403   22.3744 C   0  0  0  0  0  0  0  0  0  0  0  0
  -26.1395  -35.9712   24.1122 C   0  0  0  0  0  0  0  0  0  0  0  0
  -28.1517  -14.0294   18.5093 C   0  0  0  0  0  0  0  0  0  0  0  0
  -27.1441  -35.2856   23.1915 C   0  0  0  0  0  0  0  0  0  0  0  0
  -27.4588  -12.9610   19.3547 C   0  0  0  0  0  0  0  0  0  0  0  0
  -26.5428  -19.5950   18.3903 C   0  0  0  0  0  0  0  0  0  0  0  0
  -28.0888  -20.3371   20.2415 C   0  0  0  0  0  0  0  0  0  0  0  0
  -27.3490  -15.3308   18.4600 C   0  0  0  0  0  0  0  0  0  0  0  0
  -27.3121  -18.2737   18.3009 C   0  0  0  0  0  0  0  0  0  0  0  0
  -28.8422  -19.0178   20.0966 C   0  0  0  0  0  0  0  0  0  0  0  0
  -26.3038  -14.8008   20.6384 C   0  0  0  0  0  0  0  0  0  0  0  0
  -26.6013  -35.1842   21.7609 C   0  0  1  0  0  0  0  0  0  0  0  0
  -24.8349  -31.8425   21.3787 C   0  0  1  0  0  0  0  0  0  0  0  0
  -27.1151  -13.5011   20.7543 C   0  0  1  0  0  0  0  0  0  0  0  0
  -27.4284  -20.7269   18.9165 C   0  0  0  0  0  0  0  0  0  0  0  0
  -30.9509  -24.3810   17.5842 C   0  0  0  0  0  0  0  0  0  0  0  0
  -31.2036  -24.1750   20.0840 C   0  0  0  0  0  0  0  0  0  0  0  0
  -22.0268  -27.1831   26.8930 C   0  0  0  0  0  0  0  0  0  0  0  0
  -26.4821  -31.9358   25.6959 C   0  0  0  0  0  0  0  0  0  0  0  0
  -25.5884  -30.1703   27.2297 C   0  0  0  0  0  0  0  0  0  0  0  0
  -24.1492  -32.1019   26.5815 C   0  0  0  0  0  0  0  0  0  0  0  0
  -21.6280  -26.7512   23.1339 C   0  0  0  0  0  0  0  0  0  0  0  0
  -30.4086  -24.8484   18.9487 C   0  0  0  0  0  0  0  0  0  0  0  0
  -24.6555  -30.3059   24.8755 C   0  0  1  0  0  0  0  0  0  0  0  0
  -22.0346  -27.6255   25.4380 C   0  0  2  0  0  0  0  0  0  0  0  0
  -25.2271  -31.1218   26.0693 C   0  0  0  0  0  0  0  0  0  0  0  0
  -26.7482  -25.5313   19.3774 N   0  0  0  0  0  0  0  0  0  0  0  0
  -25.5998  -11.5710   20.9987 N   0  0  0  0  0  0  0  0  0  0  0  0
  -28.4980  -23.3684   19.0217 N   0  0  0  0  0  0  0  0  0  0  0  0
  -26.4038  -12.4631   21.6019 N   0  0  0  0  0  0  0  0  0  0  0  0
  -24.9794  -30.9088   22.4974 N   0  0  0  0  0  0  0  0  0  0  0  0
  -27.0105  -15.7851   19.8159 N   0  0  0  0  0  0  0  0  0  0  0  0
  -27.9668  -17.9650   19.5802 N   0  0  0  0  0  0  0  0  0  0  0  0
  -27.2414  -13.1235   23.7168 N   0  0  0  0  0  0  0  0  0  0  0  0
  -24.5683   -9.6195   24.7029 N   0  0  0  0  0  0  0  0  0  0  0  0
  -26.6328  -21.9212   19.0971 N   0  0  0  0  0  0  0  0  0  0  0  0
  -25.6392  -34.1078   21.6605 N   0  0  0  0  0  0  0  0  0  0  0  0
  -23.4509  -29.5466   25.1930 N   0  0  0  0  0  0  0  0  0  0  0  0
  -21.6803  -26.4535   24.5885 N   0  3  0  0  0  0  0  0  0  0  0  0
  -25.9559  -11.2121   25.5958 O   0  0  0  0  0  0  0  0  0  0  0  0
  -27.1379  -32.3593   21.3156 O   0  0  0  0  0  0  0  0  0  0  0  0
  -23.4583  -32.0675   23.8315 O   0  0  0  0  0  0  0  0  0  0  0  0
  -24.3050  -27.4664   24.6272 O   0  0  0  0  0  0  0  0  0  0  0  0
  -27.7233  -16.9830   21.6517 O   0  0  0  0  0  0  0  0  0  0  0  0
  -21.6193   -6.6011   21.0660 O   0  0  0  0  0  0  0  0  0  0  0  0
  -28.5489  -26.9854   19.3098 O   0  0  0  0  0  0  0  0  0  1  0  0
  -22.6018   -1.8131   23.6182 F   0  0  0  0  0  0  0  0  0  0  0  0
  -21.6743   -6.4501   23.8259 F   0  0  0  0  0  0  0  0  0  0  0  0
  1  2  1  0  0  0  0
  1  5  2  0  0  0  0
  2  6  2  0  0  0  0
  3  8  2  0  0  0  0
  3 16  1  0  0  0  0
  4  9  1  0  0  0  0
  4 16  2  0  0  0  0
  5 18  1  0  0  0  0
  6 20  1  0  0  0  0
  7 10  2  0  0  0  0
  7 19  1  0  0  0  0
  8 22  1  0  0  0  0
  9 22  2  0  0  0  0
 10 23  1  0  0  0  0
 11 12  2  0  0  0  0
 11 24  1  0  0  0  0
 12 25  1  0  0  0  0
 13 21  1  0  0  0  0
 13 23  2  0  0  0  0
 14 25  2  0  0  0  0
 14 26  1  0  0  0  0
 15 29  1  0  0  0  0
 15 65  2  0  0  0  0
 16 27  1  0  0  0  0
 17 27  1  0  0  0  0
 17 31  2  0  0  0  0
 17 32  1  0  0  0  0
 18 20  2  0  0  0  0
 18 37  1  0  0  0  0
 19 21  2  0  0  0  0
 19 38  1  0  0  0  0
 20 50  1  0  0  0  0
 21 39  1  0  0  0  0
 22 83  1  0  0  0  0
 23 84  1  0  0  0  0
 24 26  2  0  0  0  0
 24 83  1  0  0  0  0
 25 85  1  0  0  0  0
 26 86  1  0  0  0  0
 27 66  2  0  0  0  0
 28 30  2  0  0  0  0
 28 61  1  0  0  0  0
 28 67  1  0  0  0  0
 29 67  2  0  0  0  0
 29 74  1  0  0  0  0
 30 65  1  0  0  0  0
 30 84  1  0  0  0  0
 31 68  1  0  0  0  0
 31 72  1  0  0  0  0
 32 73  1  0  0  0  0
 32 78  2  0  0  0  0
 33 51  1  0  0  0  0
 33 75  1  0  0  0  0
 33 79  2  0  0  0  0
 34 62  1  0  0  0  0
 34 69  1  0  0  0  0
 34 80  2  0  0  0  0
 35 63  1  0  0  0  0
 35 76  1  0  0  0  0
 35 81  2  0  0  0  0
 36 70  1  0  0  0  0
 36 71  1  0  0  0  0
 36 82  2  0  0  0  0
 37 40  1  0  0  0  0
 38 51  1  0  0  0  0
 39 69  1  0  0  0  0
 40 42  1  0  0  0  0
 41 43  1  0  0  0  0
 41 46  1  0  0  0  0
 42 50  1  0  0  0  0
 43 52  1  0  0  0  0
 44 47  1  0  0  0  0
 44 53  1  0  0  0  0
 45 48  1  0  0  0  0
 45 53  1  0  0  0  0
 46 70  1  0  0  0  0
 47 71  1  0  0  0  0
 48 71  1  0  0  0  0
 49 52  1  0  0  0  0
 49 70  1  0  0  0  0
 50 75  1  0  0  0  0
 51 69  1  0  0  0  0
 52 68  1  0  0  0  0
 53 74  1  0  0  0  0
 54 61  1  0  0  0  0
 55 61  1  0  0  0  0
 56 63  1  0  0  0  0
 57 64  1  0  0  0  0
 58 64  1  0  0  0  0
 59 64  1  0  0  0  0
 60 77  1  0  0  0  0
 62 64  1  0  0  0  0
 62 76  1  0  0  0  0
 63 77  1  0  0  0  0
 66 68  1  0  0  0  0
M  CHG  1  77   1
M  ISO  4  30 101  36 100  71 100  84 101
M  END
> <Batch ID>
0178

> <Smiles>
CNC(C)C(=O)NC(C(=O)N1Cc2cc([101O:1][101c:1]3ncc(NC4CC[100N:0]([100C:0](=O)N5CCCC(n6nc(-c7ccc(Oc8ccc(F)cc8F)cc7)c(C(N)=O)c6N)C5)CC4)nc3C(C)C)ccc2CC1C(=O)NC1CCCc2ccccc21)C(C)(C)C

> <Shape>
0.298

> <Color>
0.102

> <Negative vol penalty>
0.000

$$$$

  -OEChem-04052322553D

 82 91  0     1  0  0  0  0  0999 V2000
  -22.6287  -19.9455   24.8181 C   0  0  0  0  0  0  0  0  0  0  0  0
  -23.5396  -20.3643   23.8536 C   0  0  0  0  0  0  0  0  0  0  0  0
  -23.5600   -9.6307   21.6669 C   0  0  0  0  0  0  0  0  0  0  0  0
  -24.1408  -10.8403   23.6760 C   0  0  0  0  0  0  0  0  0  0  0  0
  -21.5572  -20.7666   25.1665 C   0  0  0  0  0  0  0  0  0  0  0  0
  -23.3787  -21.6042   23.2360 C   0  0  0  0  0  0  0  0  0  0  0  0
  -27.7213  -24.1885   22.9065 C   0  0  0  0  0  0  0  0  0  0  0  0
  -22.9680   -8.6316   22.4394 C   0  0  0  0  0  0  0  0  0  0  0  0
  -23.5487   -9.8412   24.4486 C   0  0  0  0  0  0  0  0  0  0  0  0
  -28.6117  -23.8118   21.9021 C   0  0  0  0  0  0  0  0  0  0  0  0
  -24.3404   -6.7433   25.5472 C   0  0  0  0  0  0  0  0  0  0  0  0
  -25.0385   -6.2906   26.6667 C   0  0  0  0  0  0  0  0  0  0  0  0
  -27.8444  -25.6496   20.5410 C   0  0  0  0  0  0  0  0  0  0  0  0
  -23.2086   -6.9792   28.0861 C   0  0  0  0  0  0  0  0  0  0  0  0
  -24.1465  -10.7350   22.2851 C   0  0  0  0  0  0  0  0  0  0  0  0
  -24.1406  -12.9217   20.9714 C   0  0  0  0  0  0  0  0  0  0  0  0
  -21.3885  -22.0213   24.5599 C   0  0  0  0  0  0  0  0  0  0  0  0
  -26.8765  -25.2939   22.7310 C   0  0  0  0  0  0  0  0  0  0  0  0
  -22.3031  -22.4423   23.5757 C   0  0  0  0  0  0  0  0  0  0  0  0
  -26.9459  -26.0398   21.5457 C   0  0  0  0  0  0  0  0  0  0  0  0
  -22.9623   -8.7369   23.8303 C   0  0  0  0  0  0  0  0  0  0  0  0
  -28.6714  -24.5406   20.7179 C   0  0  0  0  0  0  0  0  0  0  0  0
  -23.0765   -7.3140   25.6971 C   0  0  0  0  0  0  0  0  0  0  0  0
  -24.4725   -6.4085   27.9362 C   0  0  0  0  0  0  0  0  0  0  0  0
  -22.5106   -7.4320   26.9665 C   0  0  0  0  0  0  0  0  0  0  0  0
  -24.7588  -11.7671   21.4876 C   0  0  0  0  0  0  0  0  0  0  0  0
  -30.2922  -20.4821   19.6000 C   0  0  0  0  0  0  0  0  0  0  0  0
  -31.2344  -19.5352   19.2637 C   0  0  0  0  0  0  0  0  0  0  0  0
  -28.8895  -18.8285   20.3262 C   0  0  0  0  0  0  0  0  0  0  0  0
  -29.8313  -17.8814   19.9893 C   0  0  0  0  0  0  0  0  0  0  0  0
  -25.1412  -13.5722   20.2916 C   0  0  0  0  0  0  0  0  0  0  0  0
  -22.7832  -13.3666   21.0954 C   0  0  0  0  0  0  0  0  0  0  0  0
  -23.7279  -25.7167   22.6265 C   0  0  0  0  0  0  0  0  0  0  0  0
  -24.5448  -28.8541   22.5167 C   0  0  0  0  0  0  0  0  0  0  0  0
  -26.8908  -31.2120   21.7531 C   0  0  0  0  0  0  0  0  0  0  0  0
  -30.3802  -15.4234   19.9332 C   0  0  0  0  0  0  0  0  0  0  0  0
  -20.1881  -22.8536   24.9352 C   0  0  0  0  0  0  0  0  0  0  0  0
  -25.9405  -25.7033   23.8350 C   0  0  0  0  0  0  0  0  0  0  0  0
  -26.0748  -27.2469   21.3162 C   0  0  0  0  0  0  0  0  0  0  0  0
  -20.3001  -24.3136   24.5036 C   0  0  0  0  0  0  0  0  0  0  0  0
  -29.7908  -12.0356   19.0101 C   0  0  0  0  0  0  0  0  0  0  0  0
  -20.7814  -24.4078   23.0592 C   0  0  0  0  0  0  0  0  0  0  0  0
  -28.3782  -11.7587   19.5299 C   0  0  0  0  0  0  0  0  0  0  0  0
  -30.2721  -22.5318   18.0270 C   0  0  0  0  0  0  0  0  0  0  0  0
  -30.5741  -12.9461   19.9540 C   0  0  0  0  0  0  0  0  0  0  0  0
  -28.4883  -13.9263   20.8247 C   0  0  0  0  0  0  0  0  0  0  0  0
  -22.1764  -23.7910   22.9012 C   0  0  1  0  0  0  0  0  0  0  0  0
  -30.5530  -21.9249   19.3818 C   0  0  1  0  0  0  0  0  0  0  0  0
  -24.7632  -26.5384   23.3411 C   0  0  1  0  0  0  0  0  0  0  0  0
  -27.6385  -13.0660   19.8753 C   0  0  2  0  0  0  0  0  0  0  0  0
  -29.3849  -22.8665   19.1868 C   0  0  1  0  0  0  0  0  0  1  0  0
  -32.5470  -19.9173   18.6689 C   0  0  0  0  0  0  0  0  0  0  0  0
  -27.5745  -18.4525   20.9210 C   0  0  0  0  0  0  0  0  0  0  0  0
  -27.2550  -33.6948   21.7349 C   0  0  0  0  0  0  0  0  0  0  0  0
  -22.8222  -29.0859   20.0089 C   0  0  0  0  0  0  0  0  0  0  0  0
  -23.9588  -31.2610   19.5138 C   0  0  0  0  0  0  0  0  0  0  0  0
  -22.6136  -31.0050   21.5989 C   0  0  0  0  0  0  0  0  0  0  0  0
  -29.1404  -31.0129   23.6658 C   0  0  0  0  0  0  0  0  0  0  0  0
  -24.8507  -29.8413   21.4163 C   0  0  1  0  0  0  0  0  0  0  0  0
  -27.4069  -32.4085   22.5318 C   0  0  2  0  0  0  0  0  0  0  0  0
  -23.5765  -30.2745   20.6377 C   0  0  0  0  0  0  0  0  0  0  0  0
  -26.0519  -11.6858   21.1634 N   0  0  0  0  0  0  0  0  0  0  0  0
  -29.1028  -20.1458   20.1374 N   0  0  0  0  0  0  0  0  0  0  0  0
  -31.0208  -18.2178   19.4522 N   0  0  0  0  0  0  0  0  0  0  0  0
  -26.2545  -12.7976   20.4360 N   0  0  0  0  0  0  0  0  0  0  0  0
  -25.1715  -27.6034   22.4227 N   0  0  0  0  0  0  0  0  0  0  0  0
  -29.8138  -14.1664   20.2328 N   0  0  0  0  0  0  0  0  0  0  0  0
  -25.1686  -14.7254   19.5903 N   0  0  0  0  0  0  0  0  0  0  0  0
  -21.8860  -12.5781   21.8285 N   0  0  0  0  0  0  0  0  0  0  0  0
  -29.5517  -16.5101   20.2110 N   0  0  0  0  0  0  0  0  0  0  0  0
  -23.1896  -24.7002   23.3923 N   0  0  0  0  0  0  0  0  0  0  0  0
  -25.5702  -30.9436   22.0453 N   0  0  0  0  0  0  0  0  0  0  0  0
  -28.8487  -32.2283   22.8629 N   0  3  0  0  0  0  0  0  0  0  0  0
  -22.3740  -14.4235   20.5577 O   0  0  0  0  0  0  0  0  0  0  0  0
  -23.4377  -25.9860   21.4668 O   0  0  0  0  0  0  0  0  0  0  0  0
  -23.7835  -29.1831   23.4299 O   0  0  0  0  0  0  0  0  0  0  0  0
  -27.5881  -30.5811   20.9618 O   0  0  0  0  0  0  0  0  0  0  0  0
  -31.5061  -15.5268   19.4394 O   0  0  0  0  0  0  0  0  0  0  0  0
  -22.3844   -7.7623   24.5845 O   0  0  0  0  0  0  0  0  0  0  0  0
  -29.5392  -24.1747   19.7356 O   0  0  0  0  0  0  0  0  0  1  0  0
  -25.1423   -5.9723   29.0110 F   0  0  0  0  0  0  0  0  0  0  0  0
  -21.2962   -7.9783   27.1167 F   0  0  0  0  0  0  0  0  0  0  0  0
  1  2  1  0  0  0  0
  1  5  2  0  0  0  0
  2  6  2  0  0  0  0
  3  8  2  0  0  0  0
  3 15  1  0  0  0  0
  4  9  1  0  0  0  0
  4 15  2  0  0  0  0
  5 17  1  0  0  0  0
  6 19  1  0  0  0  0
  7 10  2  0  0  0  0
  7 18  1  0  0  0  0
  8 21  1  0  0  0  0
  9 21  2  0  0  0  0
 10 22  1  0  0  0  0
 11 12  2  0  0  0  0
 11 23  1  0  0  0  0
 12 24  1  0  0  0  0
 13 20  1  0  0  0  0
 13 22  2  0  0  0  0
 14 24  2  0  0  0  0
 14 25  1  0  0  0  0
 15 26  1  0  0  0  0
 16 26  1  0  0  0  0
 16 31  2  0  0  0  0
 16 32  1  0  0  0  0
 17 19  2  0  0  0  0
 17 37  1  0  0  0  0
 18 20  2  0  0  0  0
 18 38  1  0  0  0  0
 19 47  1  0  0  0  0
 20 39  1  0  0  0  0
 21 79  1  0  0  0  0
 22 80  1  0  0  0  0
 23 25  2  0  0  0  0
 23 79  1  0  0  0  0
 24 81  1  0  0  0  0
 25 82  1  0  0  0  0
 26 62  2  0  0  0  0
 27 28  2  0  0  0  0
 27 48  1  0  0  0  0
 27 63  1  0  0  0  0
 28 52  1  0  0  0  0
 28 64  1  0  0  0  0
 29 30  1  0  0  0  0
 29 53  1  0  0  0  0
 29 63  2  0  0  0  0
 30 64  2  0  0  0  0
 30 70  1  0  0  0  0
 31 65  1  0  0  0  0
 31 68  1  0  0  0  0
 32 69  1  0  0  0  0
 32 74  2  0  0  0  0
 33 49  1  0  0  0  0
 33 71  1  0  0  0  0
 33 75  2  0  0  0  0
 34 59  1  0  0  0  0
 34 66  1  0  0  0  0
 34 76  2  0  0  0  0
 35 60  1  0  0  0  0
 35 72  1  0  0  0  0
 35 77  2  0  0  0  0
 36 67  1  0  0  0  0
 36 70  1  0  0  0  0
 36 78  2  0  0  0  0
 37 40  1  0  0  0  0
 38 49  1  0  0  0  0
 39 66  1  0  0  0  0
 40 42  1  0  0  0  0
 41 43  1  0  0  0  0
 41 45  1  0  0  0  0
 42 47  1  0  0  0  0
 43 50  1  0  0  0  0
 44 48  1  0  0  0  0
 44 51  1  0  0  0  0
 45 67  1  0  0  0  0
 46 50  1  0  0  0  0
 46 67  1  0  0  0  0
 47 71  1  0  0  0  0
 48 51  1  0  0  0  0
 49 66  1  0  0  0  0
 50 65  1  0  0  0  0
 51 80  1  0  0  0  0
 54 60  1  0  0  0  0
 55 61  1  0  0  0  0
 56 61  1  0  0  0  0
 57 61  1  0  0  0  0
 58 73  1  0  0  0  0
 59 61  1  0  0  0  0
 59 72  1  0  0  0  0
 60 73  1  0  0  0  0
 62 65  1  0  0  0  0
M  CHG  1  73   1
M  ISO  4  36 100  51 101  70 100  80 101
M  END
> <Batch ID>
0178

> <Smiles>
CNC(C)C(=O)NC(C(=O)N1Cc2cc([101O:1][101CH:1]3CC3c3nc(C)c([100NH:0][100C:0](=O)N4CCCC(n5nc(-c6ccc(Oc7ccc(F)cc7F)cc6)c(C(N)=O)c5N)C4)nc3C)ccc2CC1C(=O)NC1CCCc2ccccc21)C(C)(C)C

> <Shape>
0.236

> <Color>
0.157

> <Negative vol penalty>
0.000

$$$$

  -OEChem-04052322553D

 86 96  0     1  0  0  0  0  0999 V2000
  -31.5581  -34.3727   23.3920 C   0  0  0  0  0  0  0  0  0  0  0  0
  -31.3548  -33.1757   22.7128 C   0  0  0  0  0  0  0  0  0  0  0  0
  -23.9189   -9.1375   19.6436 C   0  0  0  0  0  0  0  0  0  0  0  0
  -23.7451   -9.9859   21.8991 C   0  0  0  0  0  0  0  0  0  0  0  0
  -30.7235  -34.7212   24.4531 C   0  0  0  0  0  0  0  0  0  0  0  0
  -30.3173  -32.3260   23.0950 C   0  0  0  0  0  0  0  0  0  0  0  0
  -26.9203  -28.7843   19.4313 C   0  0  0  0  0  0  0  0  0  0  0  0
  -22.9827   -8.1481   19.9436 C   0  0  0  0  0  0  0  0  0  0  0  0
  -22.8088   -8.9964   22.1991 C   0  0  0  0  0  0  0  0  0  0  0  0
  -26.9884  -27.4293   19.1102 C   0  0  0  0  0  0  0  0  0  0  0  0
  -22.8224   -5.7023   22.9602 C   0  0  0  0  0  0  0  0  0  0  0  0
  -22.9700   -5.0143   24.1646 C   0  0  0  0  0  0  0  0  0  0  0  0
  -25.3358  -26.9516   20.8014 C   0  0  0  0  0  0  0  0  0  0  0  0
  -20.7907   -5.7824   24.8703 C   0  0  0  0  0  0  0  0  0  0  0  0
  -24.3002  -10.0564   20.6214 C   0  0  0  0  0  0  0  0  0  0  0  0
  -25.5099  -18.7589   22.1871 C   0  0  0  0  0  0  0  0  0  0  0  0
  -26.5958  -10.8904   19.8849 C   0  0  0  0  0  0  0  0  0  0  0  0
  -29.6693  -33.8799   24.8422 C   0  0  0  0  0  0  0  0  0  0  0  0
  -26.0661  -29.2325   20.4491 C   0  0  0  0  0  0  0  0  0  0  0  0
  -29.4686  -32.6630   24.1631 C   0  0  0  0  0  0  0  0  0  0  0  0
  -25.2569  -28.3131   21.1318 C   0  0  0  0  0  0  0  0  0  0  0  0
  -24.4208  -19.6248   22.4546 C   0  0  0  0  0  0  0  0  0  0  0  0
  -22.4276   -8.0775   21.2213 C   0  0  0  0  0  0  0  0  0  0  0  0
  -26.1982  -26.5124   19.7972 C   0  0  0  0  0  0  0  0  0  0  0  0
  -21.6591   -6.4304   22.7109 C   0  0  0  0  0  0  0  0  0  0  0  0
  -21.9541   -5.0543   25.1196 C   0  0  0  0  0  0  0  0  0  0  0  0
  -20.6432   -6.4704   23.6659 C   0  0  0  0  0  0  0  0  0  0  0  0
  -25.2677  -11.0784   20.3122 C   0  0  0  0  0  0  0  0  0  0  0  0
  -24.8630  -20.9146   22.2586 C   0  0  0  0  0  0  0  0  0  0  0  0
  -26.5844  -19.5459   21.8356 C   0  0  0  0  0  0  0  0  0  0  0  0
  -27.0895  -12.1625   19.7284 C   0  0  0  0  0  0  0  0  0  0  0  0
  -25.5354  -17.2928   22.2574 C   0  0  0  0  0  0  0  0  0  0  0  0
  -27.3185   -9.6745   19.6503 C   0  0  0  0  0  0  0  0  0  0  0  0
  -26.4771  -30.7015   23.2378 C   0  0  0  0  0  0  0  0  0  0  0  0
  -23.2347  -30.7960   23.2234 C   0  0  0  0  0  0  0  0  0  0  0  0
  -20.3024  -29.4640   22.0945 C   0  0  0  0  0  0  0  0  0  0  0  0
  -28.8227  -34.2769   26.0256 C   0  0  0  0  0  0  0  0  0  0  0  0
  -25.9846  -30.7008   20.7652 C   0  0  0  0  0  0  0  0  0  0  0  0
  -24.3084  -28.7457   22.2189 C   0  0  0  0  0  0  0  0  0  0  0  0
  -27.5138  -33.4979   26.1269 C   0  0  0  0  0  0  0  0  0  0  0  0
  -25.7072  -16.6219   18.6954 C   0  0  0  0  0  0  0  0  0  0  0  0
  -27.7633  -32.0066   25.9256 C   0  0  0  0  0  0  0  0  0  0  0  0
  -24.5290  -23.2671   23.3659 C   0  0  0  0  0  0  0  0  0  0  0  0
  -23.3408  -22.4419   23.7500 C   0  0  0  0  0  0  0  0  0  0  0  0
  -25.7185  -15.0929   18.6745 C   0  0  0  0  0  0  0  0  0  0  0  0
  -28.5218  -21.9146   20.9763 C   0  0  0  0  0  0  0  0  0  0  0  0
  -28.3288  -23.2160   20.1773 C   0  0  0  0  0  0  0  0  0  0  0  0
  -24.8201  -17.1559   19.8159 C   0  0  0  0  0  0  0  0  0  0  0  0
  -25.1853  -15.1086   21.1533 C   0  0  0  0  0  0  0  0  0  0  0  0
  -28.3385  -31.7266   24.5320 C   0  0  1  0  0  0  0  0  0  0  0  0
  -24.0314  -22.1888   22.4262 C   0  0  0  0  0  0  0  0  0  0  0  0
  -25.4583  -30.9813   22.1694 C   0  0  1  0  0  0  0  0  0  0  0  0
  -26.0877  -14.5196   20.0551 C   0  0  1  0  0  0  0  0  0  0  0  0
  -27.0904  -22.1153   21.5533 C   0  0  1  0  0  0  0  0  0  0  0  0
  -26.7914  -22.9808   20.2651 C   0  0  2  0  0  0  0  0  0  0  0  0
  -23.0609  -19.2171   22.8663 C   0  0  0  0  0  0  0  0  0  0  0  0
  -27.9640  -19.1675   21.4596 C   0  0  0  0  0  0  0  0  0  0  0  0
  -26.2278  -22.2390   19.0497 C   0  0  0  0  0  0  0  0  0  0  0  0
  -17.8146  -29.7309   22.2865 C   0  0  0  0  0  0  0  0  0  0  0  0
  -23.3089  -29.4844   25.9773 C   0  0  0  0  0  0  0  0  0  0  0  0
  -20.8859  -28.9199   25.6969 C   0  0  0  0  0  0  0  0  0  0  0  0
  -21.6126  -31.3060   25.7347 C   0  0  0  0  0  0  0  0  0  0  0  0
  -20.0222  -30.0198   19.2011 C   0  0  0  0  0  0  0  0  0  0  0  0
  -26.0049  -24.2611   20.5390 C   0  0  0  0  0  0  0  0  0  1  0  0
  -22.1364  -29.8827   23.7118 C   0  0  1  0  0  0  0  0  0  0  0  0
  -19.0625  -30.1120   21.5053 C   0  0  2  0  0  0  0  0  0  0  0  0
  -22.0051  -29.8895   25.2611 C   0  0  0  0  0  0  0  0  0  0  0  0
  -24.9386  -12.3684   20.4205 N   0  0  0  0  0  0  0  0  0  0  0  0
  -26.1796  -20.8545   21.8825 N   0  0  0  0  0  0  0  0  0  0  0  0
  -26.0670  -13.0024   20.0590 N   0  0  0  0  0  0  0  0  0  0  0  0
  -25.2067  -16.5720   21.1066 N   0  0  0  0  0  0  0  0  0  0  0  0
  -24.2694  -30.1912   22.4957 N   0  0  0  0  0  0  0  0  0  0  0  0
  -28.2942  -12.6333   19.3418 N   0  0  0  0  0  0  0  0  0  0  0  0
  -28.0324   -9.1058   20.7139 N   0  0  0  0  0  0  0  0  0  0  0  0
  -27.2920  -31.7775   23.5337 N   0  0  0  0  0  0  0  0  0  0  0  0
  -20.9247  -30.2886   23.0077 N   0  0  0  0  0  0  0  0  0  0  0  0
  -18.8788  -29.6862   20.0890 N   0  3  0  0  0  0  0  0  0  0  0  0
  -25.8596  -16.8071   23.3400 O   0  0  0  0  0  0  0  0  0  0  0  0
  -27.3443   -9.1180   18.5264 O   0  0  0  0  0  0  0  0  0  0  0  0
  -26.5197  -29.5920   23.7563 O   0  0  0  0  0  0  0  0  0  0  0  0
  -23.1731  -32.0027   23.4719 O   0  0  0  0  0  0  0  0  0  0  0  0
  -20.6790  -28.3374   21.7791 O   0  0  0  0  0  0  0  0  0  0  0  0
  -21.5138   -7.1123   21.5144 O   0  0  0  0  0  0  0  0  0  0  0  0
  -26.2632  -25.1891   19.4862 O   0  0  0  0  0  0  0  0  0  1  0  0
  -22.0952   -4.3923   26.2755 F   0  0  0  0  0  0  0  0  0  0  0  0
  -19.5228   -7.1673   23.4315 F   0  0  0  0  0  0  0  0  0  0  0  0
  1  2  1  0  0  0  0
  1  5  2  0  0  0  0
  2  6  2  0  0  0  0
  3  8  2  0  0  0  0
  3 15  1  0  0  0  0
  4  9  1  0  0  0  0
  4 15  2  0  0  0  0
  5 18  1  0  0  0  0
  6 20  1  0  0  0  0
  7 10  2  0  0  0  0
  7 19  1  0  0  0  0
  8 23  1  0  0  0  0
  9 23  2  0  0  0  0
 10 24  1  0  0  0  0
 11 12  2  0  0  0  0
 11 25  1  0  0  0  0
 12 26  1  0  0  0  0
 13 21  1  0  0  0  0
 13 24  2  0  0  0  0
 14 26  2  0  0  0  0
 14 27  1  0  0  0  0
 15 28  1  0  0  0  0
 16 22  1  0  0  0  0
 16 30  2  0  0  0  0
 16 32  1  0  0  0  0
 17 28  1  0  0  0  0
 17 31  2  0  0  0  0
 17 33  1  0  0  0  0
 18 20  2  0  0  0  0
 18 37  1  0  0  0  0
 19 21  2  0  0  0  0
 19 38  1  0  0  0  0
 20 50  1  0  0  0  0
 21 39  1  0  0  0  0
 22 29  2  0  0  0  0
 22 56  1  0  0  0  0
 23 83  1  0  0  0  0
 24 84  1  0  0  0  0
 25 27  2  0  0  0  0
 25 83  1  0  0  0  0
 26 85  1  0  0  0  0
 27 86  1  0  0  0  0
 28 68  2  0  0  0  0
 29 51  1  0  0  0  0
 29 69  1  0  0  0  0
 30 57  1  0  0  0  0
 30 69  1  0  0  0  0
 31 70  1  0  0  0  0
 31 73  1  0  0  0  0
 32 71  1  0  0  0  0
 32 78  2  0  0  0  0
 33 74  1  0  0  0  0
 33 79  2  0  0  0  0
 34 52  1  0  0  0  0
 34 75  1  0  0  0  0
 34 80  2  0  0  0  0
 35 65  1  0  0  0  0
 35 72  1  0  0  0  0
 35 81  2  0  0  0  0
 36 66  1  0  0  0  0
 36 76  1  0  0  0  0
 36 82  2  0  0  0  0
 37 40  1  0  0  0  0
 38 52  1  0  0  0  0
 39 72  1  0  0  0  0
 40 42  1  0  0  0  0
 41 45  1  0  0  0  0
 41 48  1  0  0  0  0
 42 50  1  0  0  0  0
 43 44  1  0  0  0  0
 43 51  1  0  0  0  0
 44 51  1  0  0  0  0
 45 53  1  0  0  0  0
 46 47  1  0  0  0  0
 46 54  1  0  0  0  0
 47 55  1  0  0  0  0
 48 71  1  0  0  0  0
 49 53  1  0  0  0  0
 49 71  1  0  0  0  0
 50 75  1  0  0  0  0
 52 72  1  0  0  0  0
 53 70  1  0  0  0  0
 54 55  1  0  0  0  0
 54 69  1  0  0  0  0
 55 58  1  0  0  0  0
 55 64  1  0  0  0  0
 59 66  1  0  0  0  0
 60 67  1  0  0  0  0
 61 67  1  0  0  0  0
 62 67  1  0  0  0  0
 63 77  1  0  0  0  0
 64 84  1  0  0  0  0
 65 67  1  0  0  0  0
 65 76  1  0  0  0  0
 66 77  1  0  0  0  0
 68 70  1  0  0  0  0
M  CHG  1  77   1
M  ISO  4  16 100  32 100  64 101  84 101
M  END
> <Batch ID>
0178

> <Smiles>
CNC(C)C(=O)NC(C(=O)N1Cc2cc([101O:1][101CH2:1]C3(C)CCC3n3c(C4CC4)c(C)[100c:0]([100C:0](=O)N4CCCC(n5nc(-c6ccc(Oc7ccc(F)cc7F)cc6)c(C(N)=O)c5N)C4)c3C)ccc2CC1C(=O)NC1CCCc2ccccc21)C(C)(C)C

> <Shape>
0.249

> <Color>
0.109

> <Negative vol penalty>
0.000

$$$$

  -OEChem-04052322553D

 89 99  0     1  0  0  0  0  0999 V2000
  -18.9067  -23.5100   23.2429 C   0  0  0  0  0  0  0  0  0  0  0  0
  -20.2702  -23.5775   22.9752 C   0  0  0  0  0  0  0  0  0  0  0  0
  -24.4929  -13.6322   22.0404 C   0  0  0  0  0  0  0  0  0  0  0  0
  -26.4377  -13.5990   20.6072 C   0  0  0  0  0  0  0  0  0  0  0  0
  -18.1563  -24.6816   23.3331 C   0  0  0  0  0  0  0  0  0  0  0  0
  -20.8839  -24.8168   22.7963 C   0  0  0  0  0  0  0  0  0  0  0  0
  -25.2814  -25.1834   25.2808 C   0  0  0  0  0  0  0  0  0  0  0  0
  -24.4370  -12.2392   21.9969 C   0  0  0  0  0  0  0  0  0  0  0  0
  -26.3818  -12.2059   20.5638 C   0  0  0  0  0  0  0  0  0  0  0  0
  -26.3897  -24.5602   24.7089 C   0  0  0  0  0  0  0  0  0  0  0  0
  -23.3700   -9.8554   19.8514 C   0  0  0  0  0  0  0  0  0  0  0  0
  -22.1238   -9.2636   19.6457 C   0  0  0  0  0  0  0  0  0  0  0  0
  -27.1284  -26.6854   23.8388 C   0  0  0  0  0  0  0  0  0  0  0  0
  -28.5911  -23.0263   20.6494 C   0  0  0  0  0  0  0  0  0  0  0  0
  -22.3187   -8.1168   21.7632 C   0  0  0  0  0  0  0  0  0  0  0  0
  -30.9316  -23.4950   19.3322 C   0  0  0  0  0  0  0  0  0  0  0  0
  -25.4932  -14.3122   21.3455 C   0  0  0  0  0  0  0  0  0  0  0  0
  -30.9753  -23.2899   20.7088 C   0  0  0  0  0  0  0  0  0  0  0  0
  -26.2494  -16.5458   22.3184 C   0  0  0  0  0  0  0  0  0  0  0  0
  -18.7630  -25.9363   23.1649 C   0  0  0  0  0  0  0  0  0  0  0  0
  -25.0822  -26.5629   25.1265 C   0  0  0  0  0  0  0  0  0  0  0  0
  -20.1407  -26.0062   22.8830 C   0  0  0  0  0  0  0  0  0  0  0  0
  -26.0181  -27.3242   24.4119 C   0  0  0  0  0  0  0  0  0  0  0  0
  -29.7747  -23.0581   21.3967 C   0  0  0  0  0  0  0  0  0  0  0  0
  -25.3815  -11.5260   21.2587 C   0  0  0  0  0  0  0  0  0  0  0  0
  -27.3119  -25.3106   23.9853 C   0  0  0  0  0  0  0  0  0  0  0  0
  -24.0907   -9.5778   21.0130 C   0  0  0  0  0  0  0  0  0  0  0  0
  -21.5981   -8.3943   20.6015 C   0  0  0  0  0  0  0  0  0  0  0  0
  -23.5650   -8.7085   21.9689 C   0  0  0  0  0  0  0  0  0  0  0  0
  -25.5511  -15.7512   21.3895 C   0  0  0  0  0  0  0  0  0  0  0  0
  -28.6543  -23.2468   19.2809 C   0  0  0  0  0  0  0  0  0  0  0  0
  -25.9872  -17.8372   21.9311 C   0  0  0  0  0  0  0  0  0  0  0  0
  -32.2848  -23.2820   21.4065 C   0  0  0  0  0  0  0  0  0  0  0  0
  -27.0625  -16.1519   23.4316 C   0  0  0  0  0  0  0  0  0  0  0  0
  -22.8315  -28.3690   23.7938 C   0  0  0  0  0  0  0  0  0  0  0  0
  -24.5539  -30.7911   25.0937 C   0  0  0  0  0  0  0  0  0  0  0  0
  -27.5599  -31.9061   26.2630 C   0  0  0  0  0  0  0  0  0  0  0  0
  -25.4903  -21.7193   17.9526 C   0  0  0  0  0  0  0  0  0  0  0  0
  -17.9017  -27.1730   23.2246 C   0  0  0  0  0  0  0  0  0  0  0  0
  -23.8958  -27.2246   25.7721 C   0  0  0  0  0  0  0  0  0  0  0  0
  -25.8608  -28.8115   24.2343 C   0  0  0  0  0  0  0  0  0  0  0  0
  -18.6996  -28.4633   23.3937 C   0  0  0  0  0  0  0  0  0  0  0  0
  -22.6563  -19.6601   18.5890 C   0  0  0  0  0  0  0  0  0  0  0  0
  -19.8811  -28.4907   22.4292 C   0  0  0  0  0  0  0  0  0  0  0  0
  -35.3373  -25.0247   24.2240 C   0  0  0  0  0  0  0  0  0  0  0  0
  -34.8313  -25.4332   22.8687 C   0  0  0  0  0  0  0  0  0  0  0  0
  -23.2156  -18.5225   19.4452 C   0  0  0  0  0  0  0  0  0  0  0  0
  -23.6559  -20.1102   17.5258 C   0  0  0  0  0  0  0  0  0  0  0  0
  -25.5489  -19.3323   18.8987 C   0  0  0  0  0  0  0  0  0  0  0  0
  -30.9877  -23.5719   23.5046 C   0  0  0  0  0  0  0  0  0  0  0  0
  -20.8473  -27.3329   22.7075 C   0  0  1  0  0  0  0  0  0  0  0  0
  -23.5208  -28.5502   25.1166 C   0  0  1  0  0  0  0  0  0  0  0  0
  -33.9113  -24.7444   23.8382 C   0  0  0  0  0  0  0  0  0  0  0  0
  -24.5985  -18.8820   20.0213 C   0  0  2  0  0  0  0  0  0  0  0  0
  -29.7956  -22.8043   22.8988 C   0  0  2  0  0  0  0  0  0  0  0  0
  -29.9469  -21.2910   23.1509 C   0  0  0  0  0  0  0  0  0  0  0  0
  -28.6668  -33.9425   27.2249 C   0  0  0  0  0  0  0  0  0  0  0  0
  -24.6406  -32.0527   22.3168 C   0  0  0  0  0  0  0  0  0  0  0  0
  -26.5030  -33.5214   23.1185 C   0  0  0  0  0  0  0  0  0  0  0  0
  -24.2529  -33.6691   24.1853 C   0  0  0  0  0  0  0  0  0  0  0  0
  -28.2133  -30.5021   28.7850 C   0  0  0  0  0  0  0  0  0  0  0  0
  -27.3957  -23.2199   18.4787 C   0  0  0  0  0  0  0  0  0  0  0  0
  -33.4632  -23.3456   23.5828 C   0  0  0  0  0  0  0  0  0  0  0  0
  -28.5226  -23.2967   23.6192 C   0  0  0  0  0  0  0  0  0  1  0  0
  -25.7070  -31.6499   24.6334 C   0  0  1  0  0  0  0  0  0  0  0  0
  -27.9344  -32.6461   27.5344 C   0  0  2  0  0  0  0  0  0  0  0  0
  -25.2781  -32.6949   23.5650 C   0  0  0  0  0  0  0  0  0  0  0  0
  -29.7954  -23.4849   18.6030 N   0  0  0  0  0  0  0  0  0  0  0  0
  -24.8944  -16.4770   20.4807 N   0  0  0  0  0  0  0  0  0  0  0  0
  -25.1789  -17.7413   20.8367 N   0  0  0  0  0  0  0  0  0  0  0  0
  -32.2382  -23.3218   22.7987 N   0  0  0  0  0  0  0  0  0  0  0  0
  -24.6810  -29.4114   24.8791 N   0  0  0  0  0  0  0  0  0  0  0  0
  -24.9458  -20.4378   18.1379 N   0  0  0  0  0  0  0  0  0  0  0  0
  -26.3713  -19.0341   22.4234 N   0  0  0  0  0  0  0  0  0  0  0  0
  -27.2270  -14.7838   23.6878 N   0  0  0  0  0  0  0  0  0  0  0  0
  -21.6683  -27.6263   23.8626 N   0  0  0  0  0  0  0  0  0  0  0  0
  -26.2891  -32.2314   25.8382 N   0  0  0  0  0  0  0  0  0  0  0  0
  -26.7128  -21.9488   18.5719 N   0  0  0  0  0  0  0  0  0  0  0  0
  -28.8171  -31.7994   28.3857 N   0  3  0  0  0  0  0  0  0  0  0  0
  -33.3158  -23.2299   20.7404 O   0  0  0  0  0  0  0  0  0  0  0  0
  -27.6131  -16.9885   24.1869 O   0  0  0  0  0  0  0  0  0  0  0  0
  -23.3181  -28.8676   22.7857 O   0  0  0  0  0  0  0  0  0  0  0  0
  -23.5794  -31.3240   25.6304 O   0  0  0  0  0  0  0  0  0  0  0  0
  -28.3202  -31.1210   25.7007 O   0  0  0  0  0  0  0  0  0  0  0  0
  -24.9259  -22.5959   17.2892 O   0  0  0  0  0  0  0  0  0  0  0  0
  -25.3274  -10.1667   21.2162 O   0  0  0  0  0  0  0  0  0  0  0  0
  -28.3941  -24.7047   23.4256 O   0  0  0  0  0  0  0  0  0  1  0  0
  -20.4007   -7.8273   20.4045 F   0  0  0  0  0  0  0  0  0  0  0  0
  -24.2521   -8.4389   23.0874 F   0  0  0  0  0  0  0  0  0  0  0  0
  1  2  1  0  0  0  0
  1  5  2  0  0  0  0
  2  6  2  0  0  0  0
  3  8  2  0  0  0  0
  3 17  1  0  0  0  0
  4  9  1  0  0  0  0
  4 17  2  0  0  0  0
  5 20  1  0  0  0  0
  6 22  1  0  0  0  0
  7 10  2  0  0  0  0
  7 21  1  0  0  0  0
  8 25  1  0  0  0  0
  9 25  2  0  0  0  0
 10 26  1  0  0  0  0
 11 12  2  0  0  0  0
 11 27  1  0  0  0  0
 12 28  1  0  0  0  0
 13 23  1  0  0  0  0
 13 26  2  0  0  0  0
 14 24  1  0  0  0  0
 14 31  2  0  0  0  0
 15 28  2  0  0  0  0
 15 29  1  0  0  0  0
 16 18  1  0  0  0  0
 16 68  2  0  0  0  0
 17 30  1  0  0  0  0
 18 24  2  0  0  0  0
 18 33  1  0  0  0  0
 19 30  1  0  0  0  0
 19 32  2  0  0  0  0
 19 34  1  0  0  0  0
 20 22  2  0  0  0  0
 20 39  1  0  0  0  0
 21 23  2  0  0  0  0
 21 40  1  0  0  0  0
 22 51  1  0  0  0  0
 23 41  1  0  0  0  0
 24 55  1  0  0  0  0
 25 86  1  0  0  0  0
 26 87  1  0  0  0  0
 27 29  2  0  0  0  0
 27 86  1  0  0  0  0
 28 88  1  0  0  0  0
 29 89  1  0  0  0  0
 30 69  2  0  0  0  0
 31 62  1  0  0  0  0
 31 68  1  0  0  0  0
 32 70  1  0  0  0  0
 32 74  1  0  0  0  0
 33 71  1  0  0  0  0
 33 80  2  0  0  0  0
 34 75  1  0  0  0  0
 34 81  2  0  0  0  0
 35 52  1  0  0  0  0
 35 76  1  0  0  0  0
 35 82  2  0  0  0  0
 36 65  1  0  0  0  0
 36 72  1  0  0  0  0
 36 83  2  0  0  0  0
 37 66  1  0  0  0  0
 37 77  1  0  0  0  0
 37 84  2  0  0  0  0
 38 73  1  0  0  0  0
 38 78  1  0  0  0  0
 38 85  2  0  0  0  0
 39 42  1  0  0  0  0
 40 52  1  0  0  0  0
 41 72  1  0  0  0  0
 42 44  1  0  0  0  0
 43 47  1  0  0  0  0
 43 48  1  0  0  0  0
 44 51  1  0  0  0  0
 45 46  1  0  0  0  0
 45 53  1  0  0  0  0
 46 53  1  0  0  0  0
 47 54  1  0  0  0  0
 48 73  1  0  0  0  0
 49 54  1  0  0  0  0
 49 73  1  0  0  0  0
 50 55  1  0  0  0  0
 50 71  1  0  0  0  0
 51 76  1  0  0  0  0
 52 72  1  0  0  0  0
 53 63  1  0  0  0  0
 54 70  1  0  0  0  0
 55 56  1  0  0  0  0
 55 64  1  0  0  0  0
 57 66  1  0  0  0  0
 58 67  1  0  0  0  0
 59 67  1  0  0  0  0
 60 67  1  0  0  0  0
 61 79  1  0  0  0  0
 62 78  1  0  0  0  0
 63 71  1  0  0  0  0
 64 87  1  0  0  0  0
 65 67  1  0  0  0  0
 65 77  1  0  0  0  0
 66 79  1  0  0  0  0
 69 70  1  0  0  0  0
M  CHG  1  79   1
M  ISO  4  38 100  64 101  78 100  87 101
M  END
> <Batch ID>
0178

> <Smiles>
CNC(C)C(=O)NC(C(=O)N1Cc2cc([101O:1][101CH2:1]C3(C)CN(CC4CC4)C(=O)c4cnc(C[100NH:0][100C:0](=O)N5CCCC(n6nc(-c7ccc(Oc8ccc(F)cc8F)cc7)c(C(N)=O)c6N)C5)cc43)ccc2CC1C(=O)NC1CCCc2ccccc21)C(C)(C)C

> <Shape>
0.214

> <Color>
0.064

> <Negative vol penalty>
0.000

$$$$

  -OEChem-04052322553D

 84 93  0     1  0  0  0  0  0999 V2000
  -29.8179  -30.7795   26.2348 C   0  0  0  0  0  0  0  0  0  0  0  0
  -29.4199  -29.7536   25.3837 C   0  0  0  0  0  0  0  0  0  0  0  0
  -23.0012  -10.5784   21.7013 C   0  0  0  0  0  0  0  0  0  0  0  0
  -24.7795   -8.9440   21.6434 C   0  0  0  0  0  0  0  0  0  0  0  0
  -28.8649  -31.6326   26.7897 C   0  0  0  0  0  0  0  0  0  0  0  0
  -28.0684  -29.5795   25.0878 C   0  0  0  0  0  0  0  0  0  0  0  0
  -27.2482  -28.7685   20.1568 C   0  0  0  0  0  0  0  0  0  0  0  0
  -22.0621   -9.5630   21.5206 C   0  0  0  0  0  0  0  0  0  0  0  0
  -23.8404   -7.9286   21.4628 C   0  0  0  0  0  0  0  0  0  0  0  0
  -27.5123  -27.4893   19.6693 C   0  0  0  0  0  0  0  0  0  0  0  0
  -21.6792   -6.1682   23.3734 C   0  0  0  0  0  0  0  0  0  0  0  0
  -21.8253   -5.0093   24.1357 C   0  0  0  0  0  0  0  0  0  0  0  0
  -25.1581  -26.9723   19.7676 C   0  0  0  0  0  0  0  0  0  0  0  0
  -28.3898  -23.4465   16.8201 C   0  0  0  0  0  0  0  0  0  0  0  0
  -22.0332   -3.7048   22.1128 C   0  0  0  0  0  0  0  0  0  0  0  0
  -28.0969  -21.3673   18.5628 C   0  0  0  0  0  0  0  0  0  0  0  0
  -24.3599  -10.2689   21.7626 C   0  0  0  0  0  0  0  0  0  0  0  0
  -25.8246  -11.8114   23.1708 C   0  0  0  0  0  0  0  0  0  0  0  0
  -27.5019  -31.4749   26.4928 C   0  0  0  0  0  0  0  0  0  0  0  0
  -25.9360  -29.1562   20.4641 C   0  0  0  0  0  0  0  0  0  0  0  0
  -27.0961  -30.4304   25.6402 C   0  0  0  0  0  0  0  0  0  0  0  0
  -24.8797  -28.2579   20.2564 C   0  0  0  0  0  0  0  0  0  0  0  0
  -28.3154  -21.0771   17.2257 C   0  0  0  0  0  0  0  0  0  0  0  0
  -28.4636  -22.1422   16.3443 C   0  0  0  0  0  0  0  0  0  0  0  0
  -22.4817   -8.2381   21.4014 C   0  0  0  0  0  0  0  0  0  0  0  0
  -26.4675  -26.5900   19.4774 C   0  0  0  0  0  0  0  0  0  0  0  0
  -21.7100   -6.0954   21.9807 C   0  0  0  0  0  0  0  0  0  0  0  0
  -22.0024   -3.7776   23.5055 C   0  0  0  0  0  0  0  0  0  0  0  0
  -21.8870   -4.8637   21.3505 C   0  0  0  0  0  0  0  0  0  0  0  0
  -25.3305  -11.3174   21.9487 C   0  0  0  0  0  0  0  0  0  0  0  0
  -28.1677  -23.6308   18.1753 C   0  0  0  0  0  0  0  0  0  0  0  0
  -26.7155  -12.7924   22.8097 C   0  0  0  0  0  0  0  0  0  0  0  0
  -25.5067  -11.4187   24.5126 C   0  0  0  0  0  0  0  0  0  0  0  0
  -24.4287  -30.0715   23.1087 C   0  0  0  0  0  0  0  0  0  0  0  0
  -21.9769  -30.6165   21.0559 C   0  0  0  0  0  0  0  0  0  0  0  0
  -20.4896  -29.9102   18.0666 C   0  0  0  0  0  0  0  0  0  0  0  0
  -26.8905  -15.9098   17.5963 C   0  0  0  0  0  0  0  0  0  0  0  0
  -26.5040  -32.3923   27.1540 C   0  0  0  0  0  0  0  0  0  0  0  0
  -25.6647  -30.5487   20.9638 C   0  0  0  0  0  0  0  0  0  0  0  0
  -23.4509  -28.6319   20.5517 C   0  0  0  0  0  0  0  0  0  0  0  0
  -25.1280  -32.3729   26.4934 C   0  0  0  0  0  0  0  0  0  0  0  0
  -29.6764  -14.0676   19.2862 C   0  0  0  0  0  0  0  0  0  0  0  0
  -24.6804  -30.9379   26.2341 C   0  0  0  0  0  0  0  0  0  0  0  0
  -28.8915  -13.1436   20.2158 C   0  0  0  0  0  0  0  0  0  0  0  0
  -28.9865  -18.7117   17.8376 C   0  0  0  0  0  0  0  0  0  0  0  0
  -27.0176  -19.1080   16.2963 C   0  0  0  0  0  0  0  0  0  0  0  0
  -28.8720  -14.4101   18.0377 C   0  0  0  0  0  0  0  0  0  0  0  0
  -29.0266  -17.2527   17.3748 C   0  0  0  0  0  0  0  0  0  0  0  0
  -27.1209  -17.6517   15.8519 C   0  0  0  0  0  0  0  0  0  0  0  0
  -26.7425  -14.0880   19.2565 C   0  0  0  0  0  0  0  0  0  0  0  0
  -28.3874  -19.6347   16.7612 C   0  0  0  0  0  0  0  0  0  0  0  0
  -25.6419  -30.2248   25.2756 C   0  0  1  0  0  0  0  0  0  0  0  0
  -24.3503  -30.6631   21.7298 C   0  0  1  0  0  0  0  0  0  0  0  0
  -27.5101  -13.7363   20.5414 C   0  0  1  0  0  0  0  0  0  0  0  0
  -28.7015  -21.9097   14.8890 C   0  0  0  0  0  0  0  0  0  0  0  0
  -18.4757  -30.4845   16.6839 C   0  0  0  0  0  0  0  0  0  0  0  0
  -20.2434  -28.8694   22.8595 C   0  0  0  0  0  0  0  0  0  0  0  0
  -18.5883  -28.7012   20.9885 C   0  0  0  0  0  0  0  0  0  0  0  0
  -19.1093  -30.9237   21.9945 C   0  0  0  0  0  0  0  0  0  0  0  0
  -22.1593  -30.9710   15.8653 C   0  0  0  0  0  0  0  0  0  0  0  0
  -28.0830  -25.0170   18.7213 C   0  0  0  0  0  0  0  0  0  1  0  0
  -20.8275  -29.7964   20.5217 C   0  0  1  0  0  0  0  0  0  0  0  0
  -19.9305  -30.8127   16.9816 C   0  0  2  0  0  0  0  0  0  0  0  0
  -19.7191  -29.5647   21.5872 C   0  0  0  0  0  0  0  0  0  0  0  0
  -28.0189  -22.6212   19.0621 N   0  0  0  0  0  0  0  0  0  0  0  0
  -25.8633  -11.9338   20.8902 N   0  0  0  0  0  0  0  0  0  0  0  0
  -26.7012  -12.8253   21.4463 N   0  0  0  0  0  0  0  0  0  0  0  0
  -23.2374  -30.0028   21.0444 N   0  0  0  0  0  0  0  0  0  0  0  0
  -27.5436  -14.9397   18.3749 N   0  0  0  0  0  0  0  0  0  0  0  0
  -27.7036  -16.8206   16.9051 N   0  0  0  0  0  0  0  0  0  0  0  0
  -27.5018  -13.6215   23.5285 N   0  0  0  0  0  0  0  0  0  0  0  0
  -24.5700  -10.3938   24.7046 N   0  0  0  0  0  0  0  0  0  0  0  0
  -25.3977  -30.6423   23.9116 N   0  0  0  0  0  0  0  0  0  0  0  0
  -20.3653  -30.4775   19.3171 N   0  0  0  0  0  0  0  0  0  0  0  0
  -20.7142  -30.6571   15.7236 N   0  3  0  0  0  0  0  0  0  0  0  0
  -26.0252  -11.9716   25.5120 O   0  0  0  0  0  0  0  0  0  0  0  0
  -23.6654  -29.1653   23.4216 O   0  0  0  0  0  0  0  0  0  0  0  0
  -21.7653  -31.7620   21.4617 O   0  0  0  0  0  0  0  0  0  0  0  0
  -20.9836  -28.8101   17.8290 O   0  0  0  0  0  0  0  0  0  0  0  0
  -25.6562  -15.9603   17.5270 O   0  0  0  0  0  0  0  0  0  0  0  0
  -21.5656   -7.2470   21.2253 O   0  0  0  0  0  0  0  0  0  0  0  0
  -26.7244  -25.3318   18.9990 O   0  0  0  0  0  0  0  0  0  1  0  0
  -22.1442   -2.6650   24.2377 F   0  0  0  0  0  0  0  0  0  0  0  0
  -21.9187   -4.7877   20.0129 F   0  0  0  0  0  0  0  0  0  0  0  0
  1  2  1  0  0  0  0
  1  5  2  0  0  0  0
  2  6  2  0  0  0  0
  3  8  2  0  0  0  0
  3 17  1  0  0  0  0
  4  9  1  0  0  0  0
  4 17  2  0  0  0  0
  5 19  1  0  0  0  0
  6 21  1  0  0  0  0
  7 10  2  0  0  0  0
  7 20  1  0  0  0  0
  8 25  1  0  0  0  0
  9 25  2  0  0  0  0
 10 26  1  0  0  0  0
 11 12  2  0  0  0  0
 11 27  1  0  0  0  0
 12 28  1  0  0  0  0
 13 22  1  0  0  0  0
 13 26  2  0  0  0  0
 14 24  2  0  0  0  0
 14 31  1  0  0  0  0
 15 28  2  0  0  0  0
 15 29  1  0  0  0  0
 16 23  2  0  0  0  0
 16 65  1  0  0  0  0
 17 30  1  0  0  0  0
 18 30  1  0  0  0  0
 18 32  2  0  0  0  0
 18 33  1  0  0  0  0
 19 21  2  0  0  0  0
 19 38  1  0  0  0  0
 20 22  2  0  0  0  0
 20 39  1  0  0  0  0
 21 52  1  0  0  0  0
 22 40  1  0  0  0  0
 23 24  1  0  0  0  0
 23 51  1  0  0  0  0
 24 55  1  0  0  0  0
 25 81  1  0  0  0  0
 26 82  1  0  0  0  0
 27 29  2  0  0  0  0
 27 81  1  0  0  0  0
 28 83  1  0  0  0  0
 29 84  1  0  0  0  0
 30 66  2  0  0  0  0
 31 61  1  0  0  0  0
 31 65  2  0  0  0  0
 32 67  1  0  0  0  0
 32 71  1  0  0  0  0
 33 72  1  0  0  0  0
 33 76  2  0  0  0  0
 34 53  1  0  0  0  0
 34 73  1  0  0  0  0
 34 77  2  0  0  0  0
 35 62  1  0  0  0  0
 35 68  1  0  0  0  0
 35 78  2  0  0  0  0
 36 63  1  0  0  0  0
 36 74  1  0  0  0  0
 36 79  2  0  0  0  0
 37 69  1  0  0  0  0
 37 70  1  0  0  0  0
 37 80  2  0  0  0  0
 38 41  1  0  0  0  0
 39 53  1  0  0  0  0
 40 68  1  0  0  0  0
 41 43  1  0  0  0  0
 42 44  1  0  0  0  0
 42 47  1  0  0  0  0
 43 52  1  0  0  0  0
 44 54  1  0  0  0  0
 45 48  1  0  0  0  0
 45 51  1  0  0  0  0
 46 49  1  0  0  0  0
 46 51  1  0  0  0  0
 47 69  1  0  0  0  0
 48 70  1  0  0  0  0
 49 70  1  0  0  0  0
 50 54  1  0  0  0  0
 50 69  1  0  0  0  0
 52 73  1  0  0  0  0
 53 68  1  0  0  0  0
 54 67  1  0  0  0  0
 56 63  1  0  0  0  0
 57 64  1  0  0  0  0
 58 64  1  0  0  0  0
 59 64  1  0  0  0  0
 60 75  1  0  0  0  0
 61 82  1  0  0  0  0
 62 64  1  0  0  0  0
 62 74  1  0  0  0  0
 63 75  1  0  0  0  0
 66 67  1  0  0  0  0
M  CHG  1  75   1
M  ISO  4  37 100  61 101  70 100  82 101
M  END
> <Batch ID>
0178

> <Smiles>
CNC(C)C(=O)NC(C(=O)N1Cc2cc([101O:1][101CH2:1]c3cc(C)c(C4CC[100N:0]([100C:0](=O)N5CCCC(n6nc(-c7ccc(Oc8ccc(F)cc8F)cc7)c(C(N)=O)c6N)C5)CC4)cn3)ccc2CC1C(=O)NC1CCCc2ccccc21)C(C)(C)C

> <Shape>
0.274

> <Color>
0.116

> <Negative vol penalty>
0.000

$$$$

  -OEChem-04052322553D

 85 94  0     1  0  0  0  0  0999 V2000
  -17.7996  -24.7368   24.6136 C   0  0  0  0  0  0  0  0  0  0  0  0
  -19.1669  -24.5383   24.7762 C   0  0  0  0  0  0  0  0  0  0  0  0
  -23.8940   -9.9077   22.4326 C   0  0  0  0  0  0  0  0  0  0  0  0
  -22.9928  -10.2139   20.2120 C   0  0  0  0  0  0  0  0  0  0  0  0
  -17.3378  -25.8097   23.8524 C   0  0  0  0  0  0  0  0  0  0  0  0
  -20.0733  -25.4121   24.1768 C   0  0  0  0  0  0  0  0  0  0  0  0
  -23.8160  -26.7752   27.3039 C   0  0  0  0  0  0  0  0  0  0  0  0
  -22.9424   -8.9189   22.6825 C   0  0  0  0  0  0  0  0  0  0  0  0
  -22.0412   -9.2251   20.4618 C   0  0  0  0  0  0  0  0  0  0  0  0
  -24.8453  -25.8562   27.5038 C   0  0  0  0  0  0  0  0  0  0  0  0
  -22.4857   -5.6542   21.9301 C   0  0  0  0  0  0  0  0  0  0  0  0
  -22.9188   -4.4772   22.5405 C   0  0  0  0  0  0  0  0  0  0  0  0
  -26.2195  -27.0620   25.9301 C   0  0  0  0  0  0  0  0  0  0  0  0
  -21.4141   -4.8812   24.3871 C   0  0  0  0  0  0  0  0  0  0  0  0
  -30.2170  -21.6483   28.2538 C   0  0  0  0  0  0  0  0  0  0  0  0
  -23.9191  -10.5552   21.1974 C   0  0  0  0  0  0  0  0  0  0  0  0
  -26.1871  -11.4016   20.3927 C   0  0  0  0  0  0  0  0  0  0  0  0
  -18.2389  -26.7027   23.2513 C   0  0  0  0  0  0  0  0  0  0  0  0
  -23.9771  -27.8401   26.4059 C   0  0  0  0  0  0  0  0  0  0  0  0
  -19.6232  -26.4972   23.4057 C   0  0  0  0  0  0  0  0  0  0  0  0
  -25.1917  -27.9947   25.7225 C   0  0  0  0  0  0  0  0  0  0  0  0
  -22.0160   -8.5777   21.6971 C   0  0  0  0  0  0  0  0  0  0  0  0
  -26.0461  -25.9979   26.8146 C   0  0  0  0  0  0  0  0  0  0  0  0
  -21.5169   -6.4448   22.5482 C   0  0  0  0  0  0  0  0  0  0  0  0
  -22.3830   -4.0907   23.7690 C   0  0  0  0  0  0  0  0  0  0  0  0
  -20.9810   -6.0583   23.7766 C   0  0  0  0  0  0  0  0  0  0  0  0
  -24.9015  -11.5771   20.9389 C   0  0  0  0  0  0  0  0  0  0  0  0
  -29.8506  -22.5427   29.2388 C   0  0  0  0  0  0  0  0  0  0  0  0
  -29.3839  -21.5960   27.1550 C   0  0  0  0  0  0  0  0  0  0  0  0
  -26.7181  -12.6676   20.3509 C   0  0  0  0  0  0  0  0  0  0  0  0
  -28.0261  -23.1866   28.0456 C   0  0  0  0  0  0  0  0  0  0  0  0
  -26.8427  -10.2016   19.9617 C   0  0  0  0  0  0  0  0  0  0  0  0
  -22.5341  -28.7507   23.7241 C   0  0  0  0  0  0  0  0  0  0  0  0
  -24.4569  -31.3451   24.0306 C   0  0  0  0  0  0  0  0  0  0  0  0
  -27.3254  -32.6919   25.2972 C   0  0  0  0  0  0  0  0  0  0  0  0
  -27.7593  -17.4859   22.4737 C   0  0  0  0  0  0  0  0  0  0  0  0
  -17.6931  -27.8206   22.3985 C   0  0  0  0  0  0  0  0  0  0  0  0
  -22.8670  -28.8381   26.2216 C   0  0  0  0  0  0  0  0  0  0  0  0
  -25.4224  -29.1322   24.7627 C   0  0  0  0  0  0  0  0  0  0  0  0
  -18.7134  -28.9179   22.1067 C   0  0  0  0  0  0  0  0  0  0  0  0
  -24.5609  -17.1806   21.0574 C   0  0  0  0  0  0  0  0  0  0  0  0
  -20.0444  -28.3088   21.6776 C   0  0  0  0  0  0  0  0  0  0  0  0
  -24.4625  -15.6690   20.8532 C   0  0  0  0  0  0  0  0  0  0  0  0
  -27.7152  -19.6749   25.2295 C   0  0  0  0  0  0  0  0  0  0  0  0
  -29.8068  -19.9243   23.8400 C   0  0  0  0  0  0  0  0  0  0  0  0
  -25.2268  -17.5371   22.3876 C   0  0  0  0  0  0  0  0  0  0  0  0
  -26.9252  -19.3673   23.9540 C   0  0  0  0  0  0  0  0  0  0  0  0
  -28.9731  -19.6408   22.5936 C   0  0  0  0  0  0  0  0  0  0  0  0
  -26.4484  -15.3862   22.3840 C   0  0  0  0  0  0  0  0  0  0  0  0
  -20.6373  -27.4378   22.7917 C   0  0  1  0  0  0  0  0  0  0  0  0
  -22.9537  -29.5905   24.8973 C   0  0  1  0  0  0  0  0  0  0  0  0
  -25.8360  -14.9973   21.0295 C   0  0  1  0  0  0  0  0  0  0  0  0
  -28.9387  -20.5466   24.9368 C   0  0  0  0  0  0  0  0  0  0  0  0
  -30.6898  -22.6700   30.4657 C   0  0  0  0  0  0  0  0  0  0  0  0
  -28.6452  -34.8257   25.3471 C   0  0  0  0  0  0  0  0  0  0  0  0
  -25.4120  -30.8181   21.1810 C   0  0  0  0  0  0  0  0  0  0  0  0
  -27.3523  -32.3368   21.6248 C   0  0  0  0  0  0  0  0  0  0  0  0
  -25.0248  -33.2288   21.7224 C   0  0  0  0  0  0  0  0  0  0  0  0
  -27.0942  -32.9022   28.2403 C   0  0  0  0  0  0  0  0  0  0  0  0
  -26.8096  -24.0410   27.9299 C   0  0  0  0  0  0  0  0  0  1  0  0
  -25.8470  -31.7064   23.5659 C   0  0  1  0  0  0  0  0  0  0  0  0
  -27.5856  -33.9872   26.0448 C   0  0  2  0  0  0  0  0  0  0  0  0
  -25.9043  -31.9999   22.0401 C   0  0  0  0  0  0  0  0  0  0  0  0
  -24.6322  -12.8539   21.2237 N   0  0  0  0  0  0  0  0  0  0  0  0
  -28.7575  -23.3304   29.1671 N   0  0  0  0  0  0  0  0  0  0  0  0
  -28.2760  -22.3535   27.0175 N   0  0  0  0  0  0  0  0  0  0  0  0
  -25.7559  -13.4923   20.8553 N   0  0  0  0  0  0  0  0  0  0  0  0
  -24.3045  -30.0783   24.6117 N   0  0  0  0  0  0  0  0  0  0  0  0
  -26.5140  -16.8421   22.5279 N   0  0  0  0  0  0  0  0  0  0  0  0
  -27.8076  -18.8166   22.9153 N   0  0  0  0  0  0  0  0  0  0  0  0
  -27.9096  -13.1448   19.9324 N   0  0  0  0  0  0  0  0  0  0  0  0
  -26.1536   -8.9864   20.0745 N   0  0  0  0  0  0  0  0  0  0  0  0
  -29.7170  -20.7113   26.1447 N   0  0  0  0  0  0  0  0  0  0  0  0
  -21.2431  -28.2659   23.8124 N   0  0  0  0  0  0  0  0  0  0  0  0
  -26.2819  -32.8179   24.4049 N   0  0  0  0  0  0  0  0  0  0  0  0
  -28.0508  -33.7007   27.4313 N   0  3  0  0  0  0  0  0  0  0  0  0
  -28.0113  -10.2047   19.5056 O   0  0  0  0  0  0  0  0  0  0  0  0
  -23.3226  -28.5581   22.8061 O   0  0  0  0  0  0  0  0  0  0  0  0
  -23.5414  -32.1598   23.8898 O   0  0  0  0  0  0  0  0  0  0  0  0
  -27.9847  -31.6715   25.4834 O   0  0  0  0  0  0  0  0  0  0  0  0
  -28.7691  -16.9059   22.0555 O   0  0  0  0  0  0  0  0  0  0  0  0
  -21.0874   -7.6127   21.9405 O   0  0  0  0  0  0  0  0  0  0  0  0
  -27.0590  -25.0958   27.0087 O   0  0  0  0  0  0  0  0  0  1  0  0
  -22.7978   -2.9596   24.3543 F   0  0  0  0  0  0  0  0  0  0  0  0
  -20.0491   -6.8131   24.3747 F   0  0  0  0  0  0  0  0  0  0  0  0
  1  2  1  0  0  0  0
  1  5  2  0  0  0  0
  2  6  2  0  0  0  0
  3  8  2  0  0  0  0
  3 16  1  0  0  0  0
  4  9  1  0  0  0  0
  4 16  2  0  0  0  0
  5 18  1  0  0  0  0
  6 20  1  0  0  0  0
  7 10  2  0  0  0  0
  7 19  1  0  0  0  0
  8 22  1  0  0  0  0
  9 22  2  0  0  0  0
 10 23  1  0  0  0  0
 11 12  2  0  0  0  0
 11 24  1  0  0  0  0
 12 25  1  0  0  0  0
 13 21  1  0  0  0  0
 13 23  2  0  0  0  0
 14 25  2  0  0  0  0
 14 26  1  0  0  0  0
 15 28  1  0  0  0  0
 15 29  2  0  0  0  0
 16 27  1  0  0  0  0
 17 27  1  0  0  0  0
 17 30  2  0  0  0  0
 17 32  1  0  0  0  0
 18 20  2  0  0  0  0
 18 37  1  0  0  0  0
 19 21  2  0  0  0  0
 19 38  1  0  0  0  0
 20 50  1  0  0  0  0
 21 39  1  0  0  0  0
 22 82  1  0  0  0  0
 23 83  1  0  0  0  0
 24 26  2  0  0  0  0
 24 82  1  0  0  0  0
 25 84  1  0  0  0  0
 26 85  1  0  0  0  0
 27 64  2  0  0  0  0
 28 54  1  0  0  0  0
 28 65  2  0  0  0  0
 29 66  1  0  0  0  0
 29 73  1  0  0  0  0
 30 67  1  0  0  0  0
 30 71  1  0  0  0  0
 31 60  1  0  0  0  0
 31 65  1  0  0  0  0
 31 66  2  0  0  0  0
 32 72  1  0  0  0  0
 32 77  2  0  0  0  0
 33 51  1  0  0  0  0
 33 74  1  0  0  0  0
 33 78  2  0  0  0  0
 34 61  1  0  0  0  0
 34 68  1  0  0  0  0
 34 79  2  0  0  0  0
 35 62  1  0  0  0  0
 35 75  1  0  0  0  0
 35 80  2  0  0  0  0
 36 69  1  0  0  0  0
 36 70  1  0  0  0  0
 36 81  2  0  0  0  0
 37 40  1  0  0  0  0
 38 51  1  0  0  0  0
 39 68  1  0  0  0  0
 40 42  1  0  0  0  0
 41 43  1  0  0  0  0
 41 46  1  0  0  0  0
 42 50  1  0  0  0  0
 43 52  1  0  0  0  0
 44 47  1  0  0  0  0
 44 53  1  0  0  0  0
 45 48  1  0  0  0  0
 45 53  1  0  0  0  0
 46 69  1  0  0  0  0
 47 70  1  0  0  0  0
 48 70  1  0  0  0  0
 49 52  1  0  0  0  0
 49 69  1  0  0  0  0
 50 74  1  0  0  0  0
 51 68  1  0  0  0  0
 52 67  1  0  0  0  0
 53 73  1  0  0  0  0
 55 62  1  0  0  0  0
 56 63  1  0  0  0  0
 57 63  1  0  0  0  0
 58 63  1  0  0  0  0
 59 76  1  0  0  0  0
 60 83  1  0  0  0  0
 61 63  1  0  0  0  0
 61 75  1  0  0  0  0
 62 76  1  0  0  0  0
 64 67  1  0  0  0  0
M  CHG  1  76   1
M  ISO  4  36 100  60 101  70 100  83 101
M  END
> <Batch ID>
0178

> <Smiles>
CNC(C)C(=O)NC(C(=O)N1Cc2cc([101O:1][101CH2:1]c3nc(C)cc(NC4CC[100N:0]([100C:0](=O)N5CCCC(n6nc(-c7ccc(Oc8ccc(F)cc8F)cc7)c(C(N)=O)c6N)C5)CC4)n3)ccc2CC1C(=O)NC1CCCc2ccccc21)C(C)(C)C

> <Shape>
0.241

> <Color>
0.109

> <Negative vol penalty>
0.000

$$$$

  -OEChem-04052322553D

 83 92  0     1  0  0  0  0  0999 V2000
  -29.1519  -21.2864   19.4019 C   0  0  0  0  0  0  0  0  0  0  0  0
  -27.8940  -21.8801   19.4280 C   0  0  0  0  0  0  0  0  0  0  0  0
  -26.2552  -15.1549   21.3301 C   0  0  0  0  0  0  0  0  0  0  0  0
  -24.0400  -14.8859   20.4041 C   0  0  0  0  0  0  0  0  0  0  0  0
  -30.1515  -21.7356   20.2638 C   0  0  0  0  0  0  0  0  0  0  0  0
  -27.6347  -22.9228   20.3168 C   0  0  0  0  0  0  0  0  0  0  0  0
  -25.1412  -26.7558   18.1406 C   0  0  0  0  0  0  0  0  0  0  0  0
  -26.4787  -13.7849   21.1937 C   0  0  0  0  0  0  0  0  0  0  0  0
  -24.2635  -13.5158   20.2676 C   0  0  0  0  0  0  0  0  0  0  0  0
  -23.7707  -26.5931   17.9429 C   0  0  0  0  0  0  0  0  0  0  0  0
  -24.1162   -9.8934   20.0089 C   0  0  0  0  0  0  0  0  0  0  0  0
  -23.0993   -9.0275   20.4110 C   0  0  0  0  0  0  0  0  0  0  0  0
  -23.3357  -27.9155   19.9131 C   0  0  0  0  0  0  0  0  0  0  0  0
  -20.3186  -23.9850   20.5413 C   0  0  0  0  0  0  0  0  0  0  0  0
  -23.2333   -9.9122   22.6552 C   0  0  0  0  0  0  0  0  0  0  0  0
  -19.3240  -25.8344   22.2838 C   0  0  0  0  0  0  0  0  0  0  0  0
  -25.0358  -15.7054   20.9353 C   0  0  0  0  0  0  0  0  0  0  0  0
  -25.0779  -18.1254   20.1293 C   0  0  0  0  0  0  0  0  0  0  0  0
  -29.9073  -22.7908   21.1568 C   0  0  0  0  0  0  0  0  0  0  0  0
  -25.6202  -27.4916   19.2341 C   0  0  0  0  0  0  0  0  0  0  0  0
  -28.6316  -23.3857   21.1923 C   0  0  0  0  0  0  0  0  0  0  0  0
  -24.7126  -28.0881   20.1210 C   0  0  0  0  0  0  0  0  0  0  0  0
  -19.2631  -26.1113   20.9275 C   0  0  0  0  0  0  0  0  0  0  0  0
  -19.7720  -25.1638   20.0464 C   0  0  0  0  0  0  0  0  0  0  0  0
  -25.4828  -12.9653   20.6625 C   0  0  0  0  0  0  0  0  0  0  0  0
  -22.8677  -27.1706   18.8308 C   0  0  0  0  0  0  0  0  0  0  0  0
  -24.6917  -10.7687   20.9300 C   0  0  0  0  0  0  0  0  0  0  0  0
  -22.6579   -9.0369   21.7341 C   0  0  0  0  0  0  0  0  0  0  0  0
  -24.2503  -10.7781   22.2531 C   0  0  0  0  0  0  0  0  0  0  0  0
  -24.8042  -17.1205   21.0765 C   0  0  0  0  0  0  0  0  0  0  0  0
  -20.3325  -23.8034   21.9149 C   0  0  0  0  0  0  0  0  0  0  0  0
  -24.6804  -19.2899   20.7396 C   0  0  0  0  0  0  0  0  0  0  0  0
  -25.6410  -18.0159   18.8153 C   0  0  0  0  0  0  0  0  0  0  0  0
  -27.4186  -26.8278   21.7696 C   0  0  0  0  0  0  0  0  0  0  0  0
  -27.2189  -30.0278   22.2621 C   0  0  0  0  0  0  0  0  0  0  0  0
  -25.5123  -32.9377   21.7457 C   0  0  0  0  0  0  0  0  0  0  0  0
  -21.0111  -22.2085   23.7430 C   0  0  0  0  0  0  0  0  0  0  0  0
  -31.0049  -23.2105   22.1022 C   0  0  0  0  0  0  0  0  0  0  0  0
  -27.1010  -27.6801   19.4183 C   0  0  0  0  0  0  0  0  0  0  0  0
  -25.1753  -28.9046   21.2990 C   0  0  0  0  0  0  0  0  0  0  0  0
  -30.7619  -24.5700   22.7525 C   0  0  0  0  0  0  0  0  0  0  0  0
  -23.3466  -20.2063   25.5357 C   0  0  0  0  0  0  0  0  0  0  0  0
  -29.3304  -24.6658   23.2705 C   0  0  0  0  0  0  0  0  0  0  0  0
  -23.9565  -19.3077   24.4575 C   0  0  0  0  0  0  0  0  0  0  0  0
  -17.6639  -28.1038   21.3245 C   0  0  0  0  0  0  0  0  0  0  0  0
  -21.8602  -20.4586   25.2896 C   0  0  0  0  0  0  0  0  0  0  0  0
  -22.1396  -20.0671   22.8734 C   0  0  0  0  0  0  0  0  0  0  0  0
  -18.6677  -27.3903   20.4504 C   0  0  2  0  0  0  0  0  0  0  0  0
  -28.3193  -24.5358   22.1250 C   0  0  1  0  0  0  0  0  0  0  0  0
  -27.4861  -28.0182   20.8552 C   0  0  1  0  0  0  0  0  0  0  0  0
  -17.2051  -27.4207   20.0708 C   0  0  2  0  0  0  0  0  0  0  0  0
  -23.6503  -19.8375   23.0429 C   0  0  2  0  0  0  0  0  0  0  0  0
  -16.7560  -28.2267   18.9008 C   0  0  0  0  0  0  0  0  0  0  0  0
  -25.5739  -35.3833   22.3046 C   0  0  0  0  0  0  0  0  0  0  0  0
  -26.2309  -29.4059   25.0812 C   0  0  0  0  0  0  0  0  0  0  0  0
  -25.4232  -31.7701   25.2446 C   0  0  0  0  0  0  0  0  0  0  0  0
  -27.8546  -31.3027   24.9396 C   0  0  0  0  0  0  0  0  0  0  0  0
  -25.7183  -33.7029   18.8942 C   0  0  0  0  0  0  0  0  0  0  0  0
  -19.7421  -25.3912   18.5545 C   0  0  0  0  0  0  0  0  0  0  0  0
  -21.1014  -25.8094   18.0044 C   0  0  0  0  0  0  0  0  0  1  0  0
  -26.2700  -30.9382   23.0036 C   0  0  1  0  0  0  0  0  0  0  0  0
  -25.9773  -34.3131   21.3023 C   0  0  2  0  0  0  0  0  0  0  0  0
  -26.4357  -30.8373   24.5462 C   0  0  0  0  0  0  0  0  0  0  0  0
  -19.8474  -24.7009   22.8020 N   0  0  0  0  0  0  0  0  0  0  0  0
  -24.2740  -17.6043   22.2029 N   0  0  0  0  0  0  0  0  0  0  0  0
  -24.2114  -18.9260   21.9675 N   0  0  0  0  0  0  0  0  0  0  0  0
  -26.6331  -29.0548   21.4400 N   0  0  0  0  0  0  0  0  0  0  0  0
  -21.6468  -20.9631   23.9313 N   0  0  0  0  0  0  0  0  0  0  0  0
  -24.6899  -20.5794   20.3403 N   0  0  0  0  0  0  0  0  0  0  0  0
  -25.9936  -16.7443   18.3433 N   0  0  0  0  0  0  0  0  0  0  0  0
  -20.8928  -22.5997   22.4098 N   0  0  0  0  0  0  0  0  0  0  0  0
  -28.2301  -25.7772   21.3863 N   0  0  0  0  0  0  0  0  0  0  0  0
  -26.4851  -32.2772   22.4658 N   0  0  0  0  0  0  0  0  0  0  0  0
  -25.3832  -34.6595   19.9802 N   0  3  0  0  0  0  0  0  0  0  0  0
  -25.8412  -19.0181   18.0878 O   0  0  0  0  0  0  0  0  0  0  0  0
  -26.6856  -26.8608   22.7511 O   0  0  0  0  0  0  0  0  0  0  0  0
  -28.4351  -30.1792   22.4016 O   0  0  0  0  0  0  0  0  0  0  0  0
  -24.3962  -32.4951   21.4828 O   0  0  0  0  0  0  0  0  0  0  0  0
  -20.6262  -22.8913   24.6957 O   0  0  0  0  0  0  0  0  0  0  0  0
  -25.7006  -11.6284   20.5290 O   0  0  0  0  0  0  0  0  0  0  0  0
  -21.5295  -27.0129   18.6405 O   0  0  0  0  0  0  0  0  0  1  0  0
  -21.6803   -8.2063   22.1198 F   0  0  0  0  0  0  0  0  0  0  0  0
  -24.7985  -11.6176   23.1422 F   0  0  0  0  0  0  0  0  0  0  0  0
  1  2  1  0  0  0  0
  1  5  2  0  0  0  0
  2  6  2  0  0  0  0
  3  8  2  0  0  0  0
  3 17  1  0  0  0  0
  4  9  1  0  0  0  0
  4 17  2  0  0  0  0
  5 19  1  0  0  0  0
  6 21  1  0  0  0  0
  7 10  2  0  0  0  0
  7 20  1  0  0  0  0
  8 25  1  0  0  0  0
  9 25  2  0  0  0  0
 10 26  1  0  0  0  0
 11 12  2  0  0  0  0
 11 27  1  0  0  0  0
 12 28  1  0  0  0  0
 13 22  1  0  0  0  0
 13 26  2  0  0  0  0
 14 24  1  0  0  0  0
 14 31  2  0  0  0  0
 15 28  2  0  0  0  0
 15 29  1  0  0  0  0
 16 23  1  0  0  0  0
 16 64  2  0  0  0  0
 17 30  1  0  0  0  0
 18 30  1  0  0  0  0
 18 32  2  0  0  0  0
 18 33  1  0  0  0  0
 19 21  2  0  0  0  0
 19 38  1  0  0  0  0
 20 22  2  0  0  0  0
 20 39  1  0  0  0  0
 21 49  1  0  0  0  0
 22 40  1  0  0  0  0
 23 24  2  0  0  0  0
 23 48  1  0  0  0  0
 24 59  1  0  0  0  0
 25 80  1  0  0  0  0
 26 81  1  0  0  0  0
 27 29  2  0  0  0  0
 27 80  1  0  0  0  0
 28 82  1  0  0  0  0
 29 83  1  0  0  0  0
 30 65  2  0  0  0  0
 31 64  1  0  0  0  0
 31 71  1  0  0  0  0
 32 66  1  0  0  0  0
 32 69  1  0  0  0  0
 33 70  1  0  0  0  0
 33 75  2  0  0  0  0
 34 50  1  0  0  0  0
 34 72  1  0  0  0  0
 34 76  2  0  0  0  0
 35 61  1  0  0  0  0
 35 67  1  0  0  0  0
 35 77  2  0  0  0  0
 36 62  1  0  0  0  0
 36 73  1  0  0  0  0
 36 78  2  0  0  0  0
 37 68  1  0  0  0  0
 37 71  1  0  0  0  0
 37 79  2  0  0  0  0
 38 41  1  0  0  0  0
 39 50  1  0  0  0  0
 40 67  1  0  0  0  0
 41 43  1  0  0  0  0
 42 44  1  0  0  0  0
 42 46  1  0  0  0  0
 43 49  1  0  0  0  0
 44 52  1  0  0  0  0
 45 48  1  0  0  0  0
 45 51  1  0  0  0  0
 46 68  1  0  0  0  0
 47 52  1  0  0  0  0
 47 68  1  0  0  0  0
 48 51  1  0  0  0  0
 49 72  1  0  0  0  0
 50 67  1  0  0  0  0
 51 53  1  0  0  0  0
 52 66  1  0  0  0  0
 54 62  1  0  0  0  0
 55 63  1  0  0  0  0
 56 63  1  0  0  0  0
 57 63  1  0  0  0  0
 58 74  1  0  0  0  0
 59 60  1  0  0  0  0
 60 81  1  0  0  0  0
 61 63  1  0  0  0  0
 61 73  1  0  0  0  0
 62 74  1  0  0  0  0
 65 66  1  0  0  0  0
M  CHG  1  74   1
M  ISO  4  37 100  60 101  71 100  81 101
M  END
> <Batch ID>
0178

> <Smiles>
CNC(C)C(=O)NC(C(=O)N1Cc2cc([101O:1][101CH2:1]Cc3cc([100NH:0][100C:0](=O)N4CCCC(n5nc(-c6ccc(Oc7ccc(F)cc7F)cc6)c(C(N)=O)c5N)C4)ncc3C3CC3C)ccc2CC1C(=O)NC1CCCc2ccccc21)C(C)(C)C

> <Shape>
0.216

> <Color>
0.057

> <Negative vol penalty>
0.000

$$$$

  -OEChem-04052322553D

 84 93  0     1  0  0  0  0  0999 V2000
  -29.4520  -33.7708   25.6080 C   0  0  0  0  0  0  0  0  0  0  0  0
  -29.1221  -32.4705   25.2395 C   0  0  0  0  0  0  0  0  0  0  0  0
  -24.2471   -9.5849   21.3077 C   0  0  0  0  0  0  0  0  0  0  0  0
  -24.8545  -10.5676   23.4297 C   0  0  0  0  0  0  0  0  0  0  0  0
  -28.4606  -34.7490   25.6713 C   0  0  0  0  0  0  0  0  0  0  0  0
  -27.8002  -32.1475   24.9350 C   0  0  0  0  0  0  0  0  0  0  0  0
  -27.4059  -29.3128   20.7572 C   0  0  0  0  0  0  0  0  0  0  0  0
  -23.8802   -8.4069   21.9583 C   0  0  0  0  0  0  0  0  0  0  0  0
  -24.4875   -9.3895   24.0802 C   0  0  0  0  0  0  0  0  0  0  0  0
  -27.7021  -27.9559   20.8781 C   0  0  0  0  0  0  0  0  0  0  0  0
  -21.2491   -7.2663   23.7497 C   0  0  0  0  0  0  0  0  0  0  0  0
  -20.0445   -6.6690   23.3785 C   0  0  0  0  0  0  0  0  0  0  0  0
  -25.3445  -27.4576   20.9921 C   0  0  0  0  0  0  0  0  0  0  0  0
  -28.7709  -23.0971   20.1029 C   0  0  0  0  0  0  0  0  0  0  0  0
  -21.2361   -4.6705   22.7279 C   0  0  0  0  0  0  0  0  0  0  0  0
  -28.3079  -21.9589   22.5281 C   0  0  0  0  0  0  0  0  0  0  0  0
  -24.7343  -10.6653   22.0434 C   0  0  0  0  0  0  0  0  0  0  0  0
  -24.2930  -12.9913   21.0936 C   0  0  0  0  0  0  0  0  0  0  0  0
  -27.1275  -34.4401   25.3580 C   0  0  0  0  0  0  0  0  0  0  0  0
  -26.0749  -29.7542   20.7637 C   0  0  0  0  0  0  0  0  0  0  0  0
  -26.7898  -33.1222   24.9954 C   0  0  0  0  0  0  0  0  0  0  0  0
  -25.0340  -28.8205   20.8685 C   0  0  0  0  0  0  0  0  0  0  0  0
  -28.8608  -21.7056   20.2259 C   0  0  0  0  0  0  0  0  0  0  0  0
  -28.6584  -21.1055   21.4798 C   0  0  0  0  0  0  0  0  0  0  0  0
  -24.0004   -8.3092   23.3445 C   0  0  0  0  0  0  0  0  0  0  0  0
  -26.6714  -27.0283   20.9985 C   0  0  0  0  0  0  0  0  0  0  0  0
  -22.4472   -6.5658   23.6099 C   0  0  0  0  0  0  0  0  0  0  0  0
  -20.0380   -5.3710   22.8676 C   0  0  0  0  0  0  0  0  0  0  0  0
  -22.4407   -5.2679   23.0990 C   0  0  0  0  0  0  0  0  0  0  0  0
  -25.1141  -11.8822   21.3719 C   0  0  0  0  0  0  0  0  0  0  0  0
  -28.4428  -23.8410   21.2222 C   0  0  0  0  0  0  0  0  0  0  0  0
  -25.1201  -13.8773   20.4475 C   0  0  0  0  0  0  0  0  0  0  0  0
  -22.9066  -13.2019   21.3924 C   0  0  0  0  0  0  0  0  0  0  0  0
  -24.3500  -31.6514   22.6423 C   0  0  0  0  0  0  0  0  0  0  0  0
  -22.0900  -31.2081   20.3580 C   0  0  0  0  0  0  0  0  0  0  0  0
  -20.8632  -29.2652   17.8347 C   0  0  0  0  0  0  0  0  0  0  0  0
  -30.0131  -16.5224   19.9927 C   0  0  0  0  0  0  0  0  0  0  0  0
  -26.0826  -35.5201   25.4864 C   0  0  0  0  0  0  0  0  0  0  0  0
  -25.7713  -31.2189   20.6055 C   0  0  0  0  0  0  0  0  0  0  0  0
  -29.2154  -20.8955   19.0073 C   0  0  0  0  0  0  0  0  0  0  0  0
  -23.5878  -29.2409   20.8604 C   0  0  0  0  0  0  0  0  0  0  0  0
  -24.7691  -35.1832   24.7854 C   0  0  0  0  0  0  0  0  0  0  0  0
  -28.8205  -19.4295   19.1460 C   0  0  0  0  0  0  0  0  0  0  0  0
  -29.7784  -13.2656   18.5733 C   0  0  0  0  0  0  0  0  0  0  0  0
  -24.3354  -33.7595   25.1198 C   0  0  0  0  0  0  0  0  0  0  0  0
  -28.4801  -12.7051   19.1566 C   0  0  0  0  0  0  0  0  0  0  0  0
  -30.5237  -14.1329   19.5854 C   0  0  0  0  0  0  0  0  0  0  0  0
  -28.4236  -14.6580   20.7633 C   0  0  0  0  0  0  0  0  0  0  0  0
  -28.7300  -19.5984   21.6758 C   0  0  1  0  0  0  0  0  0  0  0  0
  -25.3713  -32.7386   24.6337 C   0  0  1  0  0  0  0  0  0  0  0  0
  -24.3961  -31.6053   21.1412 C   0  0  1  0  0  0  0  0  0  0  0  0
  -27.6088  -13.8223   19.7613 C   0  0  2  0  0  0  0  0  0  0  0  0
  -29.3571  -18.8696   20.4610 C   0  0  1  0  0  0  0  0  0  0  0  0
  -30.9131  -19.6337   22.8929 C   0  0  0  0  0  0  0  0  0  0  0  0
  -18.9813  -29.1436   16.1790 C   0  0  0  0  0  0  0  0  0  0  0  0
  -20.1936  -30.3307   22.5815 C   0  0  0  0  0  0  0  0  0  0  0  0
  -18.7063  -29.3412   20.8273 C   0  0  0  0  0  0  0  0  0  0  0  0
  -19.1540  -31.7952   20.8411 C   0  0  0  0  0  0  0  0  0  0  0  0
  -22.7257  -29.3511   15.5363 C   0  0  0  0  0  0  0  0  0  0  0  0
  -28.3360  -25.3335   21.1113 C   0  0  0  0  0  0  0  0  0  1  0  0
  -29.4877  -19.2061   22.9558 C   0  0  0  0  0  0  0  0  0  0  0  0
  -20.9855  -30.2052   20.1273 C   0  0  1  0  0  0  0  0  0  0  0  0
  -20.4071  -29.6102   16.4285 C   0  0  2  0  0  0  0  0  0  0  0  0
  -19.7870  -30.4100   21.0964 C   0  0  0  0  0  0  0  0  0  0  0  0
  -28.2007  -23.3049   22.4338 N   0  0  0  0  0  0  0  0  0  0  0  0
  -26.3666  -12.0461   20.9381 N   0  0  0  0  0  0  0  0  0  0  0  0
  -26.3388  -13.2686   20.3804 N   0  0  0  0  0  0  0  0  0  0  0  0
  -23.3423  -30.6847   20.7097 N   0  0  0  0  0  0  0  0  0  0  0  0
  -29.6420  -15.1736   20.1196 N   0  0  0  0  0  0  0  0  0  0  0  0
  -24.9165  -15.1098   19.9358 N   0  0  0  0  0  0  0  0  0  0  0  0
  -22.2059  -12.1890   22.0611 N   0  0  0  0  0  0  0  0  0  0  0  0
  -25.2497  -32.5359   23.2060 N   0  0  0  0  0  0  0  0  0  0  0  0
  -20.6347  -30.3021   18.7145 N   0  0  0  0  0  0  0  0  0  0  0  0
  -29.1179  -17.4448   20.5204 N   0  0  0  0  0  0  0  0  0  0  0  0
  -21.2961  -28.9634   15.4223 N   0  3  0  0  0  0  0  0  0  0  0  0
  -22.3028  -14.2504   21.0611 O   0  0  0  0  0  0  0  0  0  0  0  0
  -23.5558  -30.9384   23.2446 O   0  0  0  0  0  0  0  0  0  0  0  0
  -21.8523  -32.4110   20.2239 O   0  0  0  0  0  0  0  0  0  0  0  0
  -21.3679  -28.1827   18.1245 O   0  0  0  0  0  0  0  0  0  0  0  0
  -31.0619  -16.8785   19.4448 O   0  0  0  0  0  0  0  0  0  0  0  0
  -23.6422   -7.1599   23.9796 O   0  0  0  0  0  0  0  0  0  0  0  0
  -26.9577  -25.7032   21.1174 O   0  0  0  0  0  0  0  0  0  1  0  0
  -18.8811   -4.7970   22.5126 F   0  0  0  0  0  0  0  0  0  0  0  0
  -23.5884   -4.5894   22.9636 F   0  0  0  0  0  0  0  0  0  0  0  0
  1  2  1  0  0  0  0
  1  5  2  0  0  0  0
  2  6  2  0  0  0  0
  3  8  2  0  0  0  0
  3 17  1  0  0  0  0
  4  9  1  0  0  0  0
  4 17  2  0  0  0  0
  5 19  1  0  0  0  0
  6 21  1  0  0  0  0
  7 10  2  0  0  0  0
  7 20  1  0  0  0  0
  8 25  1  0  0  0  0
  9 25  2  0  0  0  0
 10 26  1  0  0  0  0
 11 12  2  0  0  0  0
 11 27  1  0  0  0  0
 12 28  1  0  0  0  0
 13 22  1  0  0  0  0
 13 26  2  0  0  0  0
 14 23  1  0  0  0  0
 14 31  2  0  0  0  0
 15 28  2  0  0  0  0
 15 29  1  0  0  0  0
 16 24  1  0  0  0  0
 16 65  2  0  0  0  0
 17 30  1  0  0  0  0
 18 30  1  0  0  0  0
 18 32  2  0  0  0  0
 18 33  1  0  0  0  0
 19 21  2  0  0  0  0
 19 38  1  0  0  0  0
 20 22  2  0  0  0  0
 20 39  1  0  0  0  0
 21 50  1  0  0  0  0
 22 41  1  0  0  0  0
 23 24  2  0  0  0  0
 23 40  1  0  0  0  0
 24 49  1  0  0  0  0
 25 81  1  0  0  0  0
 26 82  1  0  0  0  0
 27 29  2  0  0  0  0
 27 81  1  0  0  0  0
 28 83  1  0  0  0  0
 29 84  1  0  0  0  0
 30 66  2  0  0  0  0
 31 60  1  0  0  0  0
 31 65  1  0  0  0  0
 32 67  1  0  0  0  0
 32 70  1  0  0  0  0
 33 71  1  0  0  0  0
 33 76  2  0  0  0  0
 34 51  1  0  0  0  0
 34 72  1  0  0  0  0
 34 77  2  0  0  0  0
 35 62  1  0  0  0  0
 35 68  1  0  0  0  0
 35 78  2  0  0  0  0
 36 63  1  0  0  0  0
 36 73  1  0  0  0  0
 36 79  2  0  0  0  0
 37 69  1  0  0  0  0
 37 74  1  0  0  0  0
 37 80  2  0  0  0  0
 38 42  1  0  0  0  0
 39 51  1  0  0  0  0
 40 43  1  0  0  0  0
 41 68  1  0  0  0  0
 42 45  1  0  0  0  0
 43 53  1  0  0  0  0
 44 46  1  0  0  0  0
 44 47  1  0  0  0  0
 45 50  1  0  0  0  0
 46 52  1  0  0  0  0
 47 69  1  0  0  0  0
 48 52  1  0  0  0  0
 48 69  1  0  0  0  0
 49 53  1  0  0  0  0
 49 61  1  0  0  0  0
 50 72  1  0  0  0  0
 51 68  1  0  0  0  0
 52 67  1  0  0  0  0
 53 74  1  0  0  0  0
 54 61  1  0  0  0  0
 55 63  1  0  0  0  0
 56 64  1  0  0  0  0
 57 64  1  0  0  0  0
 58 64  1  0  0  0  0
 59 75  1  0  0  0  0
 60 82  1  0  0  0  0
 62 64  1  0  0  0  0
 62 73  1  0  0  0  0
 63 75  1  0  0  0  0
 66 67  1  0  0  0  0
M  CHG  1  75   1
M  ISO  4  37 100  60 101  74 100  82 101
M  END
> <Batch ID>
0178

> <Smiles>
CCC1c2cnc([101CH2:1][101O:1]c3ccc4c(c3)CN(C(=O)C(NC(=O)C(C)NC)C(C)(C)C)C(C(=O)NC3CCCc5ccccc53)C4)cc2CCC1[100NH:0][100C:0](=O)N1CCCC(n2nc(-c3ccc(Oc4ccc(F)cc4F)cc3)c(C(N)=O)c2N)C1

> <Shape>
0.335

> <Color>
0.137

> <Negative vol penalty>
0.000

$$$$

  -OEChem-04052322553D

 84 93  0     1  0  0  0  0  0999 V2000
  -27.9533  -35.4232   23.5481 C   0  0  0  0  0  0  0  0  0  0  0  0
  -28.1491  -34.0602   23.3498 C   0  0  0  0  0  0  0  0  0  0  0  0
  -26.8924  -11.8880   21.0567 C   0  0  0  0  0  0  0  0  0  0  0  0
  -25.9458  -13.6996   19.7687 C   0  0  0  0  0  0  0  0  0  0  0  0
  -26.6898  -35.9021   23.8918 C   0  0  0  0  0  0  0  0  0  0  0  0
  -27.0815  -33.1751   23.4962 C   0  0  0  0  0  0  0  0  0  0  0  0
  -26.8656  -29.7577   19.7653 C   0  0  0  0  0  0  0  0  0  0  0  0
  -25.6137  -11.5124   21.4682 C   0  0  0  0  0  0  0  0  0  0  0  0
  -24.6670  -13.3240   20.1801 C   0  0  0  0  0  0  0  0  0  0  0  0
  -27.7543  -28.6855   19.8317 C   0  0  0  0  0  0  0  0  0  0  0  0
  -22.9805   -9.8225   20.1862 C   0  0  0  0  0  0  0  0  0  0  0  0
  -22.6599   -8.4655   20.1485 C   0  0  0  0  0  0  0  0  0  0  0  0
  -25.9948  -27.2896   20.7121 C   0  0  0  0  0  0  0  0  0  0  0  0
  -22.2487   -8.4965   22.5290 C   0  0  0  0  0  0  0  0  0  0  0  0
  -30.7658  -22.3032   21.0615 C   0  0  0  0  0  0  0  0  0  0  0  0
  -27.0585  -12.9817   20.2070 C   0  0  0  0  0  0  0  0  0  0  0  0
  -29.3035  -12.5922   19.0598 C   0  0  0  0  0  0  0  0  0  0  0  0
  -25.6041  -35.0235   24.0331 C   0  0  0  0  0  0  0  0  0  0  0  0
  -25.5354  -29.6066   20.1827 C   0  0  0  0  0  0  0  0  0  0  0  0
  -25.8026  -33.6425   23.8435 C   0  0  0  0  0  0  0  0  0  0  0  0
  -25.0906  -28.3607   20.6475 C   0  0  0  0  0  0  0  0  0  0  0  0
  -30.2417  -22.6034   19.8145 C   0  0  0  0  0  0  0  0  0  0  0  0
  -29.2223  -23.5465   19.7469 C   0  0  0  0  0  0  0  0  0  0  0  0
  -28.7646  -24.1521   20.9118 C   0  0  0  0  0  0  0  0  0  0  0  0
  -24.5010  -12.2303   21.0299 C   0  0  0  0  0  0  0  0  0  0  0  0
  -27.3197  -27.4520   20.3079 C   0  0  0  0  0  0  0  0  0  0  0  0
  -22.9353  -10.5165   21.3953 C   0  0  0  0  0  0  0  0  0  0  0  0
  -22.2940   -7.8025   21.3199 C   0  0  0  0  0  0  0  0  0  0  0  0
  -22.5693   -9.8535   22.5667 C   0  0  0  0  0  0  0  0  0  0  0  0
  -28.3792  -13.3706   19.7820 C   0  0  0  0  0  0  0  0  0  0  0  0
  -29.3547  -23.7824   22.1097 C   0  0  0  0  0  0  0  0  0  0  0  0
  -30.3967  -13.4098   18.9084 C   0  0  0  0  0  0  0  0  0  0  0  0
  -29.1845  -11.2501   18.5697 C   0  0  0  0  0  0  0  0  0  0  0  0
  -23.7326  -30.9183   22.4483 C   0  0  0  0  0  0  0  0  0  0  0  0
  -21.3782  -29.1996   21.0251 C   0  0  0  0  0  0  0  0  0  0  0  0
  -20.5066  -26.5224   19.0964 C   0  0  0  0  0  0  0  0  0  0  0  0
  -30.4012  -19.5194   19.1931 C   0  0  0  0  0  0  0  0  0  0  0  0
  -24.2676  -35.5826   24.4521 C   0  0  0  0  0  0  0  0  0  0  0  0
  -24.5824  -30.7657   20.0796 C   0  0  0  0  0  0  0  0  0  0  0  0
  -23.6674  -28.1409   21.0887 C   0  0  0  0  0  0  0  0  0  0  0  0
  -23.1052  -34.6205   24.2209 C   0  0  0  0  0  0  0  0  0  0  0  0
  -32.7821  -21.5492   17.3163 C   0  0  0  0  0  0  0  0  0  0  0  0
  -32.2199  -17.1305   21.4317 C   0  0  0  0  0  0  0  0  0  0  0  0
  -31.9732  -22.6588   17.9730 C   0  0  0  0  0  0  0  0  0  0  0  0
  -23.4588  -33.2251   24.7255 C   0  0  0  0  0  0  0  0  0  0  0  0
  -31.8667  -15.7526   20.8722 C   0  0  0  0  0  0  0  0  0  0  0  0
  -32.2440  -18.2071   20.3522 C   0  0  0  0  0  0  0  0  0  0  0  0
  -32.6211  -20.3880   18.2852 C   0  0  0  0  0  0  0  0  0  0  0  0
  -30.1097  -17.1171   19.6419 C   0  0  0  0  0  0  0  0  0  0  0  0
  -30.7793  -21.9124   18.5814 C   0  0  1  0  0  0  0  0  0  0  0  0
  -24.6639  -32.6537   23.9688 C   0  0  1  0  0  0  0  0  0  0  0  0
  -23.3832  -30.6382   21.0140 C   0  0  1  0  0  0  0  0  0  0  0  0
  -30.9370  -15.8243   19.6468 C   0  0  2  0  0  0  0  0  0  0  0  0
  -28.6222  -23.9064   18.4255 C   0  0  0  0  0  0  0  0  0  0  0  0
  -28.9044  -24.3979   23.3942 C   0  0  0  0  0  0  0  0  0  0  0  0
  -19.0246  -24.9927   17.7694 C   0  0  0  0  0  0  0  0  0  0  0  0
  -20.7558  -28.0164   23.7678 C   0  0  0  0  0  0  0  0  0  0  0  0
  -19.4481  -26.2176   22.6178 C   0  0  0  0  0  0  0  0  0  0  0  0
  -18.7435  -28.6009   22.4028 C   0  0  0  0  0  0  0  0  0  0  0  0
  -20.8910  -28.1045   16.6249 C   0  0  0  0  0  0  0  0  0  0  0  0
  -27.6736  -25.1689   20.8721 C   0  0  0  0  0  0  0  0  0  1  0  0
  -20.8183  -27.8080   21.1951 C   0  0  1  0  0  0  0  0  0  0  0  0
  -19.5808  -26.4021   17.8994 C   0  0  2  0  0  0  0  0  0  0  0  0
  -19.9688  -27.6651   22.4895 C   0  0  0  0  0  0  0  0  0  0  0  0
  -30.3471  -22.8704   22.2150 N   0  0  0  0  0  0  0  0  0  0  0  0
  -28.8447  -14.5891   20.0696 N   0  0  0  0  0  0  0  0  0  0  0  0
  -30.0735  -14.5824   19.5253 N   0  0  0  0  0  0  0  0  0  0  0  0
  -22.7753  -29.3066   20.9749 N   0  0  0  0  0  0  0  0  0  0  0  0
  -30.9599  -18.3134   19.6446 N   0  0  0  0  0  0  0  0  0  0  0  0
  -31.2735  -20.5486   18.8311 N   0  0  0  0  0  0  0  0  0  0  0  0
  -31.5933  -13.2328   18.3090 N   0  0  0  0  0  0  0  0  0  0  0  0
  -28.6629  -11.0522   17.2839 N   0  0  0  0  0  0  0  0  0  0  0  0
  -24.2611  -32.1769   22.6631 N   0  0  0  0  0  0  0  0  0  0  0  0
  -20.0908  -27.5078   19.9667 N   0  0  0  0  0  0  0  0  0  0  0  0
  -20.3110  -26.7369   16.6441 N   0  3  0  0  0  0  0  0  0  0  0  0
  -29.5151  -10.2549   19.2580 O   0  0  0  0  0  0  0  0  0  0  0  0
  -23.5358  -30.0569   23.2974 O   0  0  0  0  0  0  0  0  0  0  0  0
  -20.6043  -30.1558   20.9329 O   0  0  0  0  0  0  0  0  0  0  0  0
  -21.4974  -25.8108   19.2465 O   0  0  0  0  0  0  0  0  0  0  0  0
  -29.1738  -19.6672   19.1173 O   0  0  0  0  0  0  0  0  0  0  0  0
  -23.2531  -11.8638   21.4310 O   0  0  0  0  0  0  0  0  0  0  0  0
  -28.1912  -26.3967   20.3748 O   0  0  0  0  0  0  0  0  0  1  0  0
  -21.9847   -6.4998   21.2833 F   0  0  0  0  0  0  0  0  0  0  0  0
  -22.5229  -10.5152   23.7311 F   0  0  0  0  0  0  0  0  0  0  0  0
  1  2  1  0  0  0  0
  1  5  2  0  0  0  0
  2  6  2  0  0  0  0
  3  8  2  0  0  0  0
  3 16  1  0  0  0  0
  4  9  1  0  0  0  0
  4 16  2  0  0  0  0
  5 18  1  0  0  0  0
  6 20  1  0  0  0  0
  7 10  2  0  0  0  0
  7 19  1  0  0  0  0
  8 25  1  0  0  0  0
  9 25  2  0  0  0  0
 10 26  1  0  0  0  0
 11 12  2  0  0  0  0
 11 27  1  0  0  0  0
 12 28  1  0  0  0  0
 13 21  1  0  0  0  0
 13 26  2  0  0  0  0
 14 28  2  0  0  0  0
 14 29  1  0  0  0  0
 15 22  2  0  0  0  0
 15 65  1  0  0  0  0
 16 30  1  0  0  0  0
 17 30  1  0  0  0  0
 17 32  2  0  0  0  0
 17 33  1  0  0  0  0
 18 20  2  0  0  0  0
 18 38  1  0  0  0  0
 19 21  2  0  0  0  0
 19 39  1  0  0  0  0
 20 51  1  0  0  0  0
 21 40  1  0  0  0  0
 22 23  1  0  0  0  0
 22 50  1  0  0  0  0
 23 24  2  0  0  0  0
 23 54  1  0  0  0  0
 24 31  1  0  0  0  0
 24 61  1  0  0  0  0
 25 81  1  0  0  0  0
 26 82  1  0  0  0  0
 27 29  2  0  0  0  0
 27 81  1  0  0  0  0
 28 83  1  0  0  0  0
 29 84  1  0  0  0  0
 30 66  2  0  0  0  0
 31 55  1  0  0  0  0
 31 65  2  0  0  0  0
 32 67  1  0  0  0  0
 32 71  1  0  0  0  0
 33 72  1  0  0  0  0
 33 76  2  0  0  0  0
 34 52  1  0  0  0  0
 34 73  1  0  0  0  0
 34 77  2  0  0  0  0
 35 62  1  0  0  0  0
 35 68  1  0  0  0  0
 35 78  2  0  0  0  0
 36 63  1  0  0  0  0
 36 74  1  0  0  0  0
 36 79  2  0  0  0  0
 37 69  1  0  0  0  0
 37 70  1  0  0  0  0
 37 80  2  0  0  0  0
 38 41  1  0  0  0  0
 39 52  1  0  0  0  0
 40 68  1  0  0  0  0
 41 45  1  0  0  0  0
 42 44  1  0  0  0  0
 42 48  1  0  0  0  0
 43 46  1  0  0  0  0
 43 47  1  0  0  0  0
 44 50  1  0  0  0  0
 45 51  1  0  0  0  0
 46 53  1  0  0  0  0
 47 69  1  0  0  0  0
 48 70  1  0  0  0  0
 49 53  1  0  0  0  0
 49 69  1  0  0  0  0
 50 70  1  0  0  0  0
 51 73  1  0  0  0  0
 52 68  1  0  0  0  0
 53 67  1  0  0  0  0
 56 63  1  0  0  0  0
 57 64  1  0  0  0  0
 58 64  1  0  0  0  0
 59 64  1  0  0  0  0
 60 75  1  0  0  0  0
 61 82  1  0  0  0  0
 62 64  1  0  0  0  0
 62 74  1  0  0  0  0
 63 75  1  0  0  0  0
 66 67  1  0  0  0  0
M  CHG  1  75   1
M  ISO  4  37 100  61 101  70 100  82 101
M  END
> <Batch ID>
0178

> <Smiles>
CNC(C)C(=O)NC(C(=O)N1Cc2cc([101O:1][101CH2:1]c3c(C)ncc(C4CCC[100N:0]4[100C:0](=O)N4CCCC(n5nc(-c6ccc(Oc7ccc(F)cc7F)cc6)c(C(N)=O)c5N)C4)c3C)ccc2CC1C(=O)NC1CCCc2ccccc21)C(C)(C)C

> <Shape>
0.343

> <Color>
0.085

> <Negative vol penalty>
0.000

$$$$

  -OEChem-04052322553D

 81 90  0     1  0  0  0  0  0999 V2000
  -30.3901  -34.3694   17.2194 C   0  0  0  0  0  0  0  0  0  0  0  0
  -30.6133  -33.0574   17.6247 C   0  0  0  0  0  0  0  0  0  0  0  0
  -24.4954  -10.1438   22.2859 C   0  0  0  0  0  0  0  0  0  0  0  0
  -24.6857  -11.6469   24.1678 C   0  0  0  0  0  0  0  0  0  0  0  0
  -29.4462  -35.1519   17.8832 C   0  0  0  0  0  0  0  0  0  0  0  0
  -29.8933  -32.5275   18.6949 C   0  0  0  0  0  0  0  0  0  0  0  0
  -27.9774  -26.7466   19.3402 C   0  0  0  0  0  0  0  0  0  0  0  0
  -24.1486   -9.1055   23.1503 C   0  0  0  0  0  0  0  0  0  0  0  0
  -24.3389  -10.6085   25.0322 C   0  0  0  0  0  0  0  0  0  0  0  0
  -28.4941  -25.6604   20.0451 C   0  0  0  0  0  0  0  0  0  0  0  0
  -21.4000   -8.0736   24.8276 C   0  0  0  0  0  0  0  0  0  0  0  0
  -20.3256   -7.2609   24.4663 C   0  0  0  0  0  0  0  0  0  0  0  0
  -27.0203  -26.1626   21.8876 C   0  0  0  0  0  0  0  0  0  0  0  0
  -21.7834   -5.3343   24.4650 C   0  0  0  0  0  0  0  0  0  0  0  0
  -24.7640  -11.4145   22.7947 C   0  0  0  0  0  0  0  0  0  0  0  0
  -24.2514  -13.3927   21.2677 C   0  0  0  0  0  0  0  0  0  0  0  0
  -28.7074  -34.6283   18.9558 C   0  0  0  0  0  0  0  0  0  0  0  0
  -26.9843  -27.5569   19.9091 C   0  0  0  0  0  0  0  0  0  0  0  0
  -28.9396  -33.3042   19.3745 C   0  0  0  0  0  0  0  0  0  0  0  0
  -26.4908  -27.2570   21.1869 C   0  0  0  0  0  0  0  0  0  0  0  0
  -24.0703   -9.3378   24.5234 C   0  0  0  0  0  0  0  0  0  0  0  0
  -28.0176  -25.3699   21.3201 C   0  0  0  0  0  0  0  0  0  0  0  0
  -22.6662   -7.5168   25.0076 C   0  0  0  0  0  0  0  0  0  0  0  0
  -20.5173   -5.8912   24.2850 C   0  0  0  0  0  0  0  0  0  0  0  0
  -22.8579   -6.1471   24.8263 C   0  0  0  0  0  0  0  0  0  0  0  0
  -25.1229  -12.4874   21.9024 C   0  0  0  0  0  0  0  0  0  0  0  0
  -25.0781  -14.2080   20.5340 C   0  0  0  0  0  0  0  0  0  0  0  0
  -22.8224  -13.4882   21.3354 C   0  0  0  0  0  0  0  0  0  0  0  0
  -26.7856  -30.6227   20.7247 C   0  0  0  0  0  0  0  0  0  0  0  0
  -23.6912  -29.8591   21.3281 C   0  0  0  0  0  0  0  0  0  0  0  0
  -21.3970  -27.4498   22.0888 C   0  0  0  0  0  0  0  0  0  0  0  0
  -29.7269  -17.3221   20.2344 C   0  0  0  0  0  0  0  0  0  0  0  0
  -27.7317  -35.5274   19.6728 C   0  0  0  0  0  0  0  0  0  0  0  0
  -26.4183  -28.7090   19.1250 C   0  0  0  0  0  0  0  0  0  0  0  0
  -25.4110  -28.0838   21.8341 C   0  0  0  0  0  0  0  0  0  0  0  0
  -26.7435  -34.7714   20.5573 C   0  0  0  0  0  0  0  0  0  0  0  0
  -30.0007  -13.8056   19.4438 C   0  0  0  0  0  0  0  0  0  0  0  0
  -27.4711  -33.7299   21.4013 C   0  0  0  0  0  0  0  0  0  0  0  0
  -28.6959  -13.2179   19.9842 C   0  0  0  0  0  0  0  0  0  0  0  0
  -26.4035  -20.7139   19.9833 C   0  0  0  0  0  0  0  0  0  0  0  0
  -30.4956  -14.9750   20.2932 C   0  0  0  0  0  0  0  0  0  0  0  0
  -27.2574  -18.2021   20.2242 C   0  0  0  0  0  0  0  0  0  0  0  0
  -28.2043  -15.4470   21.0582 C   0  0  0  0  0  0  0  0  0  0  0  0
  -26.4986  -21.1302   21.4444 C   0  0  0  0  0  0  0  0  0  0  0  0
  -28.8466  -20.3155   21.6762 C   0  0  0  0  0  0  0  0  0  0  0  0
  -28.1608  -32.6856   20.5152 C   0  0  1  0  0  0  0  0  0  0  0  0
  -25.7743  -29.7735   20.0079 C   0  0  1  0  0  0  0  0  0  0  0  0
  -27.3904  -19.6142   19.6198 C   0  0  2  0  0  0  0  0  0  0  0  0
  -27.6345  -14.3149   20.1908 C   0  0  2  0  0  0  0  0  0  0  0  0
  -28.7782  -19.6990   20.2908 C   0  0  2  0  0  0  0  0  0  0  0  0
  -18.9516  -27.1358   22.5567 C   0  0  0  0  0  0  0  0  0  0  0  0
  -27.1248  -21.4707   24.0807 C   0  0  0  0  0  0  0  0  0  0  0  0
  -24.0778  -31.0280   24.1199 C   0  0  0  0  0  0  0  0  0  0  0  0
  -21.9822  -29.8539   24.8258 C   0  0  0  0  0  0  0  0  0  0  0  0
  -21.8932  -31.5973   23.0439 C   0  0  0  0  0  0  0  0  0  0  0  0
  -21.0665  -25.6425   19.7686 C   0  0  0  0  0  0  0  0  0  0  0  0
  -27.6450  -23.6591   22.9295 C   0  0  0  0  0  0  0  0  0  1  0  0
  -22.9302  -29.3499   22.5283 C   0  0  1  0  0  0  0  0  0  0  0  0
  -20.0383  -27.1286   21.4928 C   0  0  2  0  0  0  0  0  0  0  0  0
  -28.0349  -22.1955   23.1024 C   0  0  2  0  0  0  0  0  0  0  0  0
  -22.7426  -30.4427   23.6184 C   0  0  0  0  0  0  0  0  0  0  0  0
  -26.4049  -12.7065   21.5983 N   0  0  0  0  0  0  0  0  0  0  0  0
  -26.3451  -13.7588   20.7645 N   0  0  0  0  0  0  0  0  0  0  0  0
  -24.8942  -29.2034   21.0299 N   0  0  0  0  0  0  0  0  0  0  0  0
  -29.4392  -15.9749   20.4669 N   0  0  0  0  0  0  0  0  0  0  0  0
  -28.7086  -18.2360   20.3729 N   0  0  0  0  0  0  0  0  0  0  0  0
  -24.8375  -15.2582   19.7205 N   0  0  0  0  0  0  0  0  0  0  0  0
  -22.1288  -12.5713   22.1370 N   0  0  0  0  0  0  0  0  0  0  0  0
  -27.1949  -31.7331   20.0112 N   0  0  0  0  0  0  0  0  0  0  0  0
  -21.6814  -28.7970   22.0154 N   0  0  0  0  0  0  0  0  0  0  0  0
  -27.9273  -21.5121   21.7676 N   0  3  2  0  0  0  0  0  0  0  0  0
  -20.0589  -25.7837   20.8511 N   0  3  0  0  0  0  0  0  0  0  0  0
  -22.1784  -14.3504   20.6910 O   0  0  0  0  0  0  0  0  0  0  0  0
  -27.1653  -30.2956   21.8430 O   0  0  0  0  0  0  0  0  0  0  0  0
  -23.2316  -30.7991   20.6748 O   0  0  0  0  0  0  0  0  0  0  0  0
  -22.1309  -26.5919   22.5745 O   0  0  0  0  0  0  0  0  0  0  0  0
  -30.8532  -17.6986   19.8843 O   0  0  0  0  0  0  0  0  0  0  0  0
  -23.7317   -8.3249   25.3672 O   0  0  0  0  0  0  0  0  0  0  0  0
  -28.5241  -24.3035   22.0152 O   0  0  0  0  0  0  0  0  0  1  0  0
  -19.4851   -5.1106   23.9394 F   0  0  0  0  0  0  0  0  0  0  0  0
  -24.0717   -5.6062   24.9990 F   0  0  0  0  0  0  0  0  0  0  0  0
  1  2  1  0  0  0  0
  1  5  2  0  0  0  0
  2  6  2  0  0  0  0
  3  8  2  0  0  0  0
  3 15  1  0  0  0  0
  4  9  1  0  0  0  0
  4 15  2  0  0  0  0
  5 17  1  0  0  0  0
  6 19  1  0  0  0  0
  7 10  2  0  0  0  0
  7 18  1  0  0  0  0
  8 21  1  0  0  0  0
  9 21  2  0  0  0  0
 10 22  1  0  0  0  0
 11 12  2  0  0  0  0
 11 23  1  0  0  0  0
 12 24  1  0  0  0  0
 13 20  1  0  0  0  0
 13 22  2  0  0  0  0
 14 24  2  0  0  0  0
 14 25  1  0  0  0  0
 15 26  1  0  0  0  0
 16 26  1  0  0  0  0
 16 27  2  0  0  0  0
 16 28  1  0  0  0  0
 17 19  2  0  0  0  0
 17 33  1  0  0  0  0
 18 20  2  0  0  0  0
 18 34  1  0  0  0  0
 19 46  1  0  0  0  0
 20 35  1  0  0  0  0
 21 78  1  0  0  0  0
 22 79  1  0  0  0  0
 23 25  2  0  0  0  0
 23 78  1  0  0  0  0
 24 80  1  0  0  0  0
 25 81  1  0  0  0  0
 26 62  2  0  0  0  0
 27 63  1  0  0  0  0
 27 67  1  0  0  0  0
 28 68  1  0  0  0  0
 28 73  2  0  0  0  0
 29 47  1  0  0  0  0
 29 69  1  0  0  0  0
 29 74  2  0  0  0  0
 30 58  1  0  0  0  0
 30 64  1  0  0  0  0
 30 75  2  0  0  0  0
 31 59  1  0  0  0  0
 31 70  1  0  0  0  0
 31 76  2  0  0  0  0
 32 65  1  0  0  0  0
 32 66  1  0  0  0  0
 32 77  2  0  0  0  0
 33 36  1  0  0  0  0
 34 47  1  0  0  0  0
 35 64  1  0  0  0  0
 36 38  1  0  0  0  0
 37 39  1  0  0  0  0
 37 41  1  0  0  0  0
 38 46  1  0  0  0  0
 39 49  1  0  0  0  0
 40 44  1  0  0  0  0
 40 48  1  0  0  0  0
 41 65  1  0  0  0  0
 42 48  1  0  0  0  0
 42 66  1  0  0  0  0
 43 49  1  0  0  0  0
 43 65  1  0  0  0  0
 44 71  1  0  0  0  0
 45 50  1  0  0  0  0
 45 71  1  0  0  0  0
 46 69  1  0  0  0  0
 47 64  1  0  0  0  0
 48 50  1  0  0  0  0
 49 63  1  0  0  0  0
 50 66  1  0  0  0  0
 51 59  1  0  0  0  0
 52 60  1  0  0  0  0
 53 61  1  0  0  0  0
 54 61  1  0  0  0  0
 55 61  1  0  0  0  0
 56 72  1  0  0  0  0
 57 60  1  0  0  0  0
 57 79  1  0  0  0  0
 58 61  1  0  0  0  0
 58 70  1  0  0  0  0
 59 72  1  0  0  0  0
 60 71  1  0  0  0  0
 62 63  1  0  0  0  0
M  CHG  2  71   1  72   1
M  ISO  4  32 100  57 101  66 100  79 101
M  END
> <Batch ID>
0178

> <Smiles>
CNC(C)C(=O)NC(C(=O)N1Cc2cc([101O:1][101CH2:1]C(C)N3CCC4C[100N:0]([100C:0](=O)N5CCCC(n6nc(-c7ccc(Oc8ccc(F)cc8F)cc7)c(C(N)=O)c6N)C5)C4C3)ccc2CC1C(=O)NC1CCCc2ccccc21)C(C)(C)C

> <Shape>
0.266

> <Color>
0.110

> <Negative vol penalty>
0.000

$$$$

  -OEChem-04052322553D

 83 92  0     1  0  0  0  0  0999 V2000
  -32.5836  -27.0400   18.9418 C   0  0  0  0  0  0  0  0  0  0  0  0
  -31.3070  -26.7645   18.4649 C   0  0  0  0  0  0  0  0  0  0  0  0
  -25.4603  -14.0834   20.3238 C   0  0  0  0  0  0  0  0  0  0  0  0
  -25.8106  -14.6390   22.6488 C   0  0  0  0  0  0  0  0  0  0  0  0
  -32.7656  -27.3750   20.2819 C   0  0  0  0  0  0  0  0  0  0  0  0
  -30.2107  -26.8355   19.3251 C   0  0  0  0  0  0  0  0  0  0  0  0
  -25.7513  -26.3375   17.3078 C   0  0  0  0  0  0  0  0  0  0  0  0
  -24.4888  -13.1529   20.6925 C   0  0  0  0  0  0  0  0  0  0  0  0
  -24.8391  -13.7085   23.0176 C   0  0  0  0  0  0  0  0  0  0  0  0
  -25.2719  -25.1185   16.8303 C   0  0  0  0  0  0  0  0  0  0  0  0
  -22.1711  -10.3731   21.0461 C   0  0  0  0  0  0  0  0  0  0  0  0
  -22.2045   -9.1209   20.4327 C   0  0  0  0  0  0  0  0  0  0  0  0
  -23.8929  -24.8973   18.7972 C   0  0  0  0  0  0  0  0  0  0  0  0
  -24.4257   -8.7511   21.3084 C   0  0  0  0  0  0  0  0  0  0  0  0
  -26.1212  -14.8265   21.3020 C   0  0  0  0  0  0  0  0  0  0  0  0
  -28.3192  -15.5367   20.2194 C   0  0  0  0  0  0  0  0  0  0  0  0
  -31.6720  -27.4377   21.1611 C   0  0  0  0  0  0  0  0  0  0  0  0
  -25.3126  -26.8412   18.5408 C   0  0  0  0  0  0  0  0  0  0  0  0
  -30.3709  -27.1951   20.6755 C   0  0  0  0  0  0  0  0  0  0  0  0
  -24.3663  -26.1242   19.2869 C   0  0  0  0  0  0  0  0  0  0  0  0
  -24.1782  -12.9655   22.0394 C   0  0  0  0  0  0  0  0  0  0  0  0
  -24.3447  -24.3968   17.5764 C   0  0  0  0  0  0  0  0  0  0  0  0
  -23.2651  -10.8145   21.7905 C   0  0  0  0  0  0  0  0  0  0  0  0
  -23.3317   -8.3098   20.5639 C   0  0  0  0  0  0  0  0  0  0  0  0
  -24.3923  -10.0035   21.9217 C   0  0  0  0  0  0  0  0  0  0  0  0
  -27.1252  -15.7874   20.9218 C   0  0  0  0  0  0  0  0  0  0  0  0
  -27.5732  -19.9863   16.3495 C   0  0  0  0  0  0  0  0  0  0  0  0
  -27.2624  -21.0616   17.1625 C   0  0  0  0  0  0  0  0  0  0  0  0
  -25.3827  -19.4397   16.2223 C   0  0  0  0  0  0  0  0  0  0  0  0
  -25.0680  -20.5181   17.0360 C   0  0  0  0  0  0  0  0  0  0  0  0
  -28.9184  -16.7678   20.1103 C   0  0  0  0  0  0  0  0  0  0  0  0
  -28.8400  -14.3014   19.7109 C   0  0  0  0  0  0  0  0  0  0  0  0
  -28.5347  -22.2345   18.9892 C   0  0  0  0  0  0  0  0  0  0  0  0
  -26.7180  -27.5515   21.3019 C   0  0  0  0  0  0  0  0  0  0  0  0
  -23.7777  -28.6941   22.0577 C   0  0  0  0  0  0  0  0  0  0  0  0
  -20.4108  -28.6203   21.5052 C   0  0  0  0  0  0  0  0  0  0  0  0
  -31.9251  -27.8128   22.6000 C   0  0  0  0  0  0  0  0  0  0  0  0
  -25.8192  -28.1705   19.0292 C   0  0  0  0  0  0  0  0  0  0  0  0
  -23.8481  -26.6310   20.6071 C   0  0  0  0  0  0  0  0  0  0  0  0
  -29.0406  -19.9248   16.0566 C   0  0  0  0  0  0  0  0  0  0  0  0
  -30.7745  -27.4304   23.5253 C   0  0  0  0  0  0  0  0  0  0  0  0
  -29.6031  -20.8216   17.1755 C   0  0  0  0  0  0  0  0  0  0  0  0
  -27.8458  -21.1704   22.3408 C   0  0  0  0  0  0  0  0  0  0  0  0
  -29.4558  -27.9172   22.9435 C   0  0  0  0  0  0  0  0  0  0  0  0
  -27.6651  -19.6588   22.2075 C   0  0  0  0  0  0  0  0  0  0  0  0
  -27.3146  -21.9064   21.1148 C   0  0  0  0  0  0  0  0  0  0  0  0
  -27.7229  -19.9270   19.6876 C   0  0  0  0  0  0  0  0  0  0  0  0
  -29.1673  -27.2362   21.5996 C   0  0  1  0  0  0  0  0  0  0  0  0
  -25.6910  -28.3404   20.5399 C   0  0  1  0  0  0  0  0  0  0  0  0
  -28.2744  -19.1432   20.8917 C   0  0  2  0  0  0  0  0  0  0  0  0
  -28.4957  -21.8461   17.5326 C   0  0  1  0  0  0  0  0  0  0  0  0
  -24.3199  -18.5278   15.7091 C   0  0  0  0  0  0  0  0  0  0  0  0
  -28.6396  -23.0707   16.6723 C   0  0  0  0  0  0  0  0  0  0  0  0
  -18.2608  -29.6396   22.3029 C   0  0  0  0  0  0  0  0  0  0  0  0
  -23.8757  -26.9415   24.5534 C   0  0  0  0  0  0  0  0  0  0  0  0
  -21.4029  -27.2565   24.7868 C   0  0  0  0  0  0  0  0  0  0  0  0
  -22.9274  -29.2265   24.9198 C   0  0  0  0  0  0  0  0  0  0  0  0
  -19.8290  -29.7648   18.8386 C   0  0  0  0  0  0  0  0  0  0  0  0
  -23.6394  -20.8075   17.4278 C   0  0  0  0  0  0  0  0  0  0  0  0
  -23.4793  -22.1862   18.0592 C   0  0  0  0  0  0  0  0  0  1  0  0
  -22.5335  -28.1128   22.6845 C   0  0  1  0  0  0  0  0  0  0  0  0
  -19.3993  -29.7333   21.2989 C   0  0  2  0  0  0  0  0  0  0  0  0
  -22.6959  -27.8736   24.2122 C   0  0  0  0  0  0  0  0  0  0  0  0
  -26.9734  -17.0765   21.2369 N   0  0  0  0  0  0  0  0  0  0  0  0
  -26.6502  -19.1514   15.8538 N   0  0  0  0  0  0  0  0  0  0  0  0
  -26.0058  -21.3607   17.5226 N   0  0  0  0  0  0  0  0  0  0  0  0
  -28.0798  -17.6468   20.7302 N   0  0  0  0  0  0  0  0  0  0  0  0
  -27.9004  -21.3725   19.8839 N   0  0  0  0  0  0  0  0  0  0  0  0
  -24.3784  -27.9327   21.0451 N   0  0  0  0  0  0  0  0  0  0  0  0
  -30.0757  -17.1733   19.5458 N   0  0  0  0  0  0  0  0  0  0  0  0
  -29.6697  -13.5344   20.5401 N   0  0  0  0  0  0  0  0  0  0  0  0
  -28.0238  -27.8727   20.9837 N   0  0  0  0  0  0  0  0  0  0  0  0
  -21.4406  -29.0133   22.3336 N   0  0  0  0  0  0  0  0  0  0  0  0
  -18.8227  -29.6614   19.9265 N   0  3  0  0  0  0  0  0  0  0  0  0
  -28.5907  -13.8981   18.5496 O   0  0  0  0  0  0  0  0  0  0  0  0
  -29.1146  -23.2719   19.3203 O   0  0  0  0  0  0  0  0  0  0  0  0
  -26.3528  -26.7146   22.1191 O   0  0  0  0  0  0  0  0  0  0  0  0
  -24.1969  -29.7870   22.4470 O   0  0  0  0  0  0  0  0  0  0  0  0
  -20.2967  -27.5120   20.9865 O   0  0  0  0  0  0  0  0  0  0  0  0
  -23.2301  -12.0577   22.3995 O   0  0  0  0  0  0  0  0  0  0  0  0
  -23.8757  -23.2064   17.1130 O   0  0  0  0  0  0  0  0  0  1  0  0
  -23.3630   -7.1066   19.9761 F   0  0  0  0  0  0  0  0  0  0  0  0
  -25.4458  -10.4216   22.6366 F   0  0  0  0  0  0  0  0  0  0  0  0
  1  2  1  0  0  0  0
  1  5  2  0  0  0  0
  2  6  2  0  0  0  0
  3  8  2  0  0  0  0
  3 15  1  0  0  0  0
  4  9  1  0  0  0  0
  4 15  2  0  0  0  0
  5 17  1  0  0  0  0
  6 19  1  0  0  0  0
  7 10  2  0  0  0  0
  7 18  1  0  0  0  0
  8 21  1  0  0  0  0
  9 21  2  0  0  0  0
 10 22  1  0  0  0  0
 11 12  2  0  0  0  0
 11 23  1  0  0  0  0
 12 24  1  0  0  0  0
 13 20  1  0  0  0  0
 13 22  2  0  0  0  0
 14 24  2  0  0  0  0
 14 25  1  0  0  0  0
 15 26  1  0  0  0  0
 16 26  1  0  0  0  0
 16 31  2  0  0  0  0
 16 32  1  0  0  0  0
 17 19  2  0  0  0  0
 17 37  1  0  0  0  0
 18 20  2  0  0  0  0
 18 38  1  0  0  0  0
 19 48  1  0  0  0  0
 20 39  1  0  0  0  0
 21 80  1  0  0  0  0
 22 81  1  0  0  0  0
 23 25  2  0  0  0  0
 23 80  1  0  0  0  0
 24 82  1  0  0  0  0
 25 83  1  0  0  0  0
 26 64  2  0  0  0  0
 27 28  1  0  0  0  0
 27 40  1  0  0  0  0
 27 65  2  0  0  0  0
 28 51  1  0  0  0  0
 28 66  2  0  0  0  0
 29 30  2  0  0  0  0
 29 52  1  0  0  0  0
 29 65  1  0  0  0  0
 30 59  1  0  0  0  0
 30 66  1  0  0  0  0
 31 67  1  0  0  0  0
 31 70  1  0  0  0  0
 32 71  1  0  0  0  0
 32 75  2  0  0  0  0
 33 51  1  0  0  0  0
 33 68  1  0  0  0  0
 33 76  2  0  0  0  0
 34 49  1  0  0  0  0
 34 72  1  0  0  0  0
 34 77  2  0  0  0  0
 35 61  1  0  0  0  0
 35 69  1  0  0  0  0
 35 78  2  0  0  0  0
 36 62  1  0  0  0  0
 36 73  1  0  0  0  0
 36 79  2  0  0  0  0
 37 41  1  0  0  0  0
 38 49  1  0  0  0  0
 39 69  1  0  0  0  0
 40 42  1  0  0  0  0
 41 44  1  0  0  0  0
 42 51  1  0  0  0  0
 43 45  1  0  0  0  0
 43 46  1  0  0  0  0
 44 48  1  0  0  0  0
 45 50  1  0  0  0  0
 46 68  1  0  0  0  0
 47 50  1  0  0  0  0
 47 68  1  0  0  0  0
 48 72  1  0  0  0  0
 49 69  1  0  0  0  0
 50 67  1  0  0  0  0
 51 53  1  0  0  0  0
 54 62  1  0  0  0  0
 55 63  1  0  0  0  0
 56 63  1  0  0  0  0
 57 63  1  0  0  0  0
 58 74  1  0  0  0  0
 59 60  1  0  0  0  0
 60 81  1  0  0  0  0
 61 63  1  0  0  0  0
 61 73  1  0  0  0  0
 62 74  1  0  0  0  0
 64 67  1  0  0  0  0
M  CHG  1  74   1
M  ISO  4  33 100  51 100  60 101  81 101
M  END
> <Batch ID>
0178

> <Smiles>
CNC(C)C(=O)NC(C(=O)N1Cc2cc([101O:1][101CH2:1]Cc3nc4c(nc3C)CC[100C:0]4(C)[100C:0](=O)N3CCCC(n4nc(-c5ccc(Oc6ccc(F)cc6F)cc5)c(C(N)=O)c4N)C3)ccc2CC1C(=O)NC1CCCc2ccccc21)C(C)(C)C

> <Shape>
0.233

> <Color>
0.065

> <Negative vol penalty>
0.000

$$$$

  -OEChem-04052322553D

 85 94  0     1  0  0  0  0  0999 V2000
  -17.0047  -25.6252   24.5484 C   0  0  0  0  0  0  0  0  0  0  0  0
  -18.0207  -24.8333   24.0230 C   0  0  0  0  0  0  0  0  0  0  0  0
  -22.6510  -10.3187   20.6099 C   0  0  0  0  0  0  0  0  0  0  0  0
  -24.4586   -9.1431   21.6995 C   0  0  0  0  0  0  0  0  0  0  0  0
  -16.9379  -26.9789   24.2215 C   0  0  0  0  0  0  0  0  0  0  0  0
  -18.9698  -25.3944   23.1694 C   0  0  0  0  0  0  0  0  0  0  0  0
  -23.6902  -23.9435   24.2908 C   0  0  0  0  0  0  0  0  0  0  0  0
  -21.8893   -9.1502   20.6127 C   0  0  0  0  0  0  0  0  0  0  0  0
  -23.6969   -7.9745   21.7024 C   0  0  0  0  0  0  0  0  0  0  0  0
  -24.0806  -22.6709   23.8765 C   0  0  0  0  0  0  0  0  0  0  0  0
  -21.1594   -6.6616   23.5073 C   0  0  0  0  0  0  0  0  0  0  0  0
  -21.1301   -5.9118   24.6830 C   0  0  0  0  0  0  0  0  0  0  0  0
  -25.2234  -23.6430   21.9875 C   0  0  0  0  0  0  0  0  0  0  0  0
  -28.0984  -17.3868   19.1191 C   0  0  0  0  0  0  0  0  0  0  0  0
  -22.0623   -4.0221   23.5010 C   0  0  0  0  0  0  0  0  0  0  0  0
  -23.9357  -10.3151   21.1533 C   0  0  0  0  0  0  0  0  0  0  0  0
  -24.4021  -12.7480   21.7625 C   0  0  0  0  0  0  0  0  0  0  0  0
  -17.8923  -27.5591   23.3711 C   0  0  0  0  0  0  0  0  0  0  0  0
  -24.0549  -25.0765   23.5494 C   0  0  0  0  0  0  0  0  0  0  0  0
  -18.9149  -26.7569   22.8297 C   0  0  0  0  0  0  0  0  0  0  0  0
  -24.8386  -24.9291   22.3960 C   0  0  0  0  0  0  0  0  0  0  0  0
  -27.1340  -18.3854   19.1981 C   0  0  0  0  0  0  0  0  0  0  0  0
  -26.2747  -18.6007   18.1263 C   0  0  0  0  0  0  0  0  0  0  0  0
  -22.4122   -7.9781   21.1589 C   0  0  0  0  0  0  0  0  0  0  0  0
  -24.8448  -22.5202   22.7231 C   0  0  0  0  0  0  0  0  0  0  0  0
  -21.6400   -6.0917   22.3283 C   0  0  0  0  0  0  0  0  0  0  0  0
  -21.5816   -4.5920   24.6799 C   0  0  0  0  0  0  0  0  0  0  0  0
  -22.0915   -4.7720   22.3252 C   0  0  0  0  0  0  0  0  0  0  0  0
  -24.7232  -11.5217   21.1502 C   0  0  0  0  0  0  0  0  0  0  0  0
  -28.1617  -16.6370   17.9557 C   0  0  0  0  0  0  0  0  0  0  0  0
  -26.4196  -17.7966   17.0073 C   0  0  0  0  0  0  0  0  0  0  0  0
  -25.4655  -13.5666   21.4702 C   0  0  0  0  0  0  0  0  0  0  0  0
  -23.2459  -13.1144   22.5272 C   0  0  0  0  0  0  0  0  0  0  0  0
  -29.1603  -15.5692   17.8166 C   0  0  0  0  0  0  0  0  0  0  0  0
  -22.4647  -27.3429   21.9879 C   0  0  0  0  0  0  0  0  0  0  0  0
  -25.4206  -28.6330   21.6404 C   0  0  0  0  0  0  0  0  0  0  0  0
  -28.7440  -27.4400   20.8995 C   0  0  0  0  0  0  0  0  0  0  0  0
  -17.7514  -29.0164   23.0088 C   0  0  0  0  0  0  0  0  0  0  0  0
  -23.6485  -26.4446   24.0245 C   0  0  0  0  0  0  0  0  0  0  0  0
  -25.2735  -26.1152   21.5759 C   0  0  0  0  0  0  0  0  0  0  0  0
  -19.0140  -29.6164   22.3956 C   0  0  0  0  0  0  0  0  0  0  0  0
  -29.9931  -12.5197   19.4747 C   0  0  0  0  0  0  0  0  0  0  0  0
  -28.3220  -19.4080   21.2725 C   0  0  0  0  0  0  0  0  0  0  0  0
  -19.5791  -28.6899   21.3236 C   0  0  0  0  0  0  0  0  0  0  0  0
  -28.6665  -12.0759   20.0937 C   0  0  0  0  0  0  0  0  0  0  0  0
  -27.8165  -20.0125   22.5751 C   0  0  0  0  0  0  0  0  0  0  0  0
  -26.0756  -18.6469   21.5090 C   0  0  0  0  0  0  0  0  0  0  0  0
  -29.7853  -13.1973   18.1226 C   0  0  0  0  0  0  0  0  0  0  0  0
  -27.4992  -13.8827   18.7621 C   0  0  0  0  0  0  0  0  0  0  0  0
  -27.0403  -19.2212   20.4560 C   0  0  2  0  0  0  0  0  0  0  0  0
  -19.9775  -27.3345   21.9201 C   0  0  1  0  0  0  0  0  0  0  0  0
  -23.6421  -27.4866   22.9102 C   0  0  1  0  0  0  0  0  0  0  0  0
  -27.6598  -13.2403   20.1497 C   0  0  1  0  0  0  0  0  0  0  0  0
  -26.4812  -19.2924   22.8574 C   0  0  1  0  0  0  0  0  0  0  0  0
  -25.2309  -19.6648   18.1829 C   0  0  0  0  0  0  0  0  0  0  0  0
  -25.5254  -17.9810   15.8249 C   0  0  0  0  0  0  0  0  0  0  0  0
  -26.6643  -18.2112   23.9318 C   0  0  0  0  0  0  0  0  0  0  0  0
  -30.9889  -28.3814   21.5088 C   0  0  0  0  0  0  0  0  0  0  0  0
  -25.2702  -29.9889   18.9112 C   0  0  0  0  0  0  0  0  0  0  0  0
  -27.7197  -29.5505   18.6360 C   0  0  0  0  0  0  0  0  0  0  0  0
  -26.9165  -31.0090   20.4935 C   0  0  0  0  0  0  0  0  0  0  0  0
  -29.5917  -24.9046   22.1691 C   0  0  0  0  0  0  0  0  0  0  0  0
  -25.4203  -20.2939   23.3301 C   0  0  0  0  0  0  0  0  0  1  0  0
  -26.5255  -28.5143   20.6187 C   0  0  1  0  0  0  0  0  0  0  0  0
  -29.9167  -27.3618   21.8602 C   0  0  2  0  0  0  0  0  0  0  0  0
  -26.5899  -29.7443   19.6698 C   0  0  0  0  0  0  0  0  0  0  0  0
  -25.8986  -11.5539   20.5166 N   0  0  0  0  0  0  0  0  0  0  0  0
  -27.3442  -16.8168   16.8940 N   0  0  0  0  0  0  0  0  0  0  0  0
  -26.3253  -12.8105   20.7291 N   0  0  0  0  0  0  0  0  0  0  0  0
  -28.8105  -14.2820   18.2318 N   0  0  0  0  0  0  0  0  0  0  0  0
  -24.8457  -27.4314   22.0779 N   0  0  0  0  0  0  0  0  0  0  0  0
  -25.7396  -14.8523   21.7772 N   0  0  0  0  0  0  0  0  0  0  0  0
  -22.2481  -12.1518   22.7324 N   0  0  0  0  0  0  0  0  0  0  0  0
  -21.2398  -27.4416   22.6198 N   0  0  0  0  0  0  0  0  0  0  0  0
  -27.7526  -28.2747   21.3705 N   0  0  0  0  0  0  0  0  0  0  0  0
  -30.5287  -26.0036   21.8210 N   0  3  0  0  0  0  0  0  0  0  0  0
  -23.0943  -14.2663   23.0002 O   0  0  0  0  0  0  0  0  0  0  0  0
  -30.2487  -15.9005   17.3488 O   0  0  0  0  0  0  0  0  0  0  0  0
  -22.6535  -27.1578   20.7914 O   0  0  0  0  0  0  0  0  0  0  0  0
  -25.0849  -29.7504   22.0411 O   0  0  0  0  0  0  0  0  0  0  0  0
  -28.7123  -26.8253   19.8357 O   0  0  0  0  0  0  0  0  0  0  0  0
  -21.6692   -6.8377   21.1620 O   0  0  0  0  0  0  0  0  0  0  0  0
  -25.2266  -21.2791   22.3160 O   0  0  0  0  0  0  0  0  0  1  0  0
  -21.5549   -3.8725   25.8094 F   0  0  0  0  0  0  0  0  0  0  0  0
  -22.5555   -4.2194   21.1960 F   0  0  0  0  0  0  0  0  0  0  0  0
  1  2  1  0  0  0  0
  1  5  2  0  0  0  0
  2  6  2  0  0  0  0
  3  8  2  0  0  0  0
  3 16  1  0  0  0  0
  4  9  1  0  0  0  0
  4 16  2  0  0  0  0
  5 18  1  0  0  0  0
  6 20  1  0  0  0  0
  7 10  2  0  0  0  0
  7 19  1  0  0  0  0
  8 24  1  0  0  0  0
  9 24  2  0  0  0  0
 10 25  1  0  0  0  0
 11 12  2  0  0  0  0
 11 26  1  0  0  0  0
 12 27  1  0  0  0  0
 13 21  1  0  0  0  0
 13 25  2  0  0  0  0
 14 22  1  0  0  0  0
 14 30  2  0  0  0  0
 15 27  2  0  0  0  0
 15 28  1  0  0  0  0
 16 29  1  0  0  0  0
 17 29  1  0  0  0  0
 17 32  2  0  0  0  0
 17 33  1  0  0  0  0
 18 20  2  0  0  0  0
 18 38  1  0  0  0  0
 19 21  2  0  0  0  0
 19 39  1  0  0  0  0
 20 51  1  0  0  0  0
 21 40  1  0  0  0  0
 22 23  2  0  0  0  0
 22 50  1  0  0  0  0
 23 31  1  0  0  0  0
 23 55  1  0  0  0  0
 24 82  1  0  0  0  0
 25 83  1  0  0  0  0
 26 28  2  0  0  0  0
 26 82  1  0  0  0  0
 27 84  1  0  0  0  0
 28 85  1  0  0  0  0
 29 67  2  0  0  0  0
 30 34  1  0  0  0  0
 30 68  1  0  0  0  0
 31 56  1  0  0  0  0
 31 68  2  0  0  0  0
 32 69  1  0  0  0  0
 32 72  1  0  0  0  0
 33 73  1  0  0  0  0
 33 77  2  0  0  0  0
 34 70  1  0  0  0  0
 34 78  2  0  0  0  0
 35 52  1  0  0  0  0
 35 74  1  0  0  0  0
 35 79  2  0  0  0  0
 36 64  1  0  0  0  0
 36 71  1  0  0  0  0
 36 80  2  0  0  0  0
 37 65  1  0  0  0  0
 37 75  1  0  0  0  0
 37 81  2  0  0  0  0
 38 41  1  0  0  0  0
 39 52  1  0  0  0  0
 40 71  1  0  0  0  0
 41 44  1  0  0  0  0
 42 45  1  0  0  0  0
 42 48  1  0  0  0  0
 43 46  1  0  0  0  0
 43 50  1  0  0  0  0
 44 51  1  0  0  0  0
 45 53  1  0  0  0  0
 46 54  1  0  0  0  0
 47 50  1  0  0  0  0
 47 54  1  0  0  0  0
 48 70  1  0  0  0  0
 49 53  1  0  0  0  0
 49 70  1  0  0  0  0
 51 74  1  0  0  0  0
 52 71  1  0  0  0  0
 53 69  1  0  0  0  0
 54 57  1  0  0  0  0
 54 63  1  0  0  0  0
 58 65  1  0  0  0  0
 59 66  1  0  0  0  0
 60 66  1  0  0  0  0
 61 66  1  0  0  0  0
 62 76  1  0  0  0  0
 63 83  1  0  0  0  0
 64 66  1  0  0  0  0
 64 75  1  0  0  0  0
 65 76  1  0  0  0  0
 67 69  1  0  0  0  0
M  CHG  1  76   1
M  ISO  4  30 100  34 100  63 101  83 101
M  END
> <Batch ID>
0178

> <Smiles>
CNC(C)C(=O)NC(C(=O)N1Cc2cc([101O:1][101CH2:1]C3(C)CCC(c4c[100c:0]([100C:0](=O)N5CCCC(n6nc(-c7ccc(Oc8ccc(F)cc8F)cc7)c(C(N)=O)c6N)C5)nc(C)c4C)C3)ccc2CC1C(=O)NC1CCCc2ccccc21)C(C)(C)C

> <Shape>
0.279

> <Color>
0.155

> <Negative vol penalty>
0.000

$$$$

  -OEChem-04052322553D

 83 92  0     1  0  0  0  0  0999 V2000
  -29.8636  -11.7436   19.6384 C   0  0  0  0  0  0  0  0  0  0  0  0
  -30.1917  -13.0443   19.2698 C   0  0  0  0  0  0  0  0  0  0  0  0
  -19.9936  -27.5146   23.9708 C   0  0  0  0  0  0  0  0  0  0  0  0
  -20.0397  -28.0032   21.6052 C   0  0  0  0  0  0  0  0  0  0  0  0
  -28.5572  -11.4358   20.0160 C   0  0  0  0  0  0  0  0  0  0  0  0
  -29.2133  -14.0378   19.2774 C   0  0  0  0  0  0  0  0  0  0  0  0
  -29.9788  -19.9480   20.6881 C   0  0  0  0  0  0  0  0  0  0  0  0
  -18.6385  -27.8425   24.0122 C   0  0  0  0  0  0  0  0  0  0  0  0
  -18.6845  -28.3311   21.6465 C   0  0  0  0  0  0  0  0  0  0  0  0
  -30.1489  -21.0858   19.9007 C   0  0  0  0  0  0  0  0  0  0  0  0
  -15.2515  -28.8968   24.8126 C   0  0  0  0  0  0  0  0  0  0  0  0
  -14.8093  -29.7018   25.8623 C   0  0  0  0  0  0  0  0  0  0  0  0
  -27.7854  -21.5418   20.0595 C   0  0  0  0  0  0  0  0  0  0  0  0
  -29.3778  -26.3386   19.0486 C   0  0  0  0  0  0  0  0  0  0  0  0
  -16.3119  -31.4548   25.1509 C   0  0  0  0  0  0  0  0  0  0  0  0
  -20.6943  -27.5951   22.7673 C   0  0  0  0  0  0  0  0  0  0  0  0
  -22.6557  -25.9907   22.4733 C   0  0  0  0  0  0  0  0  0  0  0  0
  -27.5645  -12.4281   20.0376 C   0  0  0  0  0  0  0  0  0  0  0  0
  -28.7068  -19.5918   21.1589 C   0  0  0  0  0  0  0  0  0  0  0  0
  -27.8921  -13.7427   19.6544 C   0  0  0  0  0  0  0  0  0  0  0  0
  -27.6022  -20.4003   20.8549 C   0  0  0  0  0  0  0  0  0  0  0  0
  -30.4578  -25.7831   18.3874 C   0  0  0  0  0  0  0  0  0  0  0  0
  -31.7271  -26.3530   18.5108 C   0  0  0  0  0  0  0  0  0  0  0  0
  -17.9839  -28.2507   22.8500 C   0  0  0  0  0  0  0  0  0  0  0  0
  -29.0517  -21.8813   19.5839 C   0  0  0  0  0  0  0  0  0  0  0  0
  -16.2241  -29.3707   23.9321 C   0  0  0  0  0  0  0  0  0  0  0  0
  -15.3394  -30.9809   26.0314 C   0  0  0  0  0  0  0  0  0  0  0  0
  -16.7542  -30.6497   24.1012 C   0  0  0  0  0  0  0  0  0  0  0  0
  -22.0942  -27.2570   22.7241 C   0  0  0  0  0  0  0  0  0  0  0  0
  -31.8889  -27.4656   19.3038 C   0  0  0  0  0  0  0  0  0  0  0  0
  -29.6345  -27.4666   19.8152 C   0  0  0  0  0  0  0  0  0  0  0  0
  -24.0119  -26.1967   22.5414 C   0  0  0  0  0  0  0  0  0  0  0  0
  -22.0090  -24.7399   22.2028 C   0  0  0  0  0  0  0  0  0  0  0  0
  -26.7863  -17.0907   20.7594 C   0  0  0  0  0  0  0  0  0  0  0  0
  -24.9912  -18.6051   22.9969 C   0  0  0  0  0  0  0  0  0  0  0  0
  -24.1474  -21.5293   24.5410 C   0  0  0  0  0  0  0  0  0  0  0  0
  -28.5535  -29.1762   21.3169 C   0  0  0  0  0  0  0  0  0  0  0  0
  -26.1555  -12.0374   20.4076 C   0  0  0  0  0  0  0  0  0  0  0  0
  -28.5443  -18.3761   22.0295 C   0  0  0  0  0  0  0  0  0  0  0  0
  -32.7550  -25.5814   17.7551 C   0  0  0  0  0  0  0  0  0  0  0  0
  -26.2189  -20.0728   21.3525 C   0  0  0  0  0  0  0  0  0  0  0  0
  -25.2631  -13.2279   20.7490 C   0  0  0  0  0  0  0  0  0  0  0  0
  -31.8651  -24.7817   16.7897 C   0  0  0  0  0  0  0  0  0  0  0  0
  -26.6587  -30.1994   24.1524 C   0  0  0  0  0  0  0  0  0  0  0  0
  -25.4229  -14.3309   19.7075 C   0  0  0  0  0  0  0  0  0  0  0  0
  -25.3484  -29.4209   24.0129 C   0  0  0  0  0  0  0  0  0  0  0  0
  -27.2006  -30.6453   22.7955 C   0  0  0  0  0  0  0  0  0  0  0  0
  -26.0333  -28.7955   21.6620 C   0  0  0  0  0  0  0  0  0  0  0  0
  -26.8642  -14.8532   19.6738 C   0  0  1  0  0  0  0  0  0  0  0  0
  -27.1218  -17.8250   22.0266 C   0  0  1  0  0  0  0  0  0  0  0  0
  -25.4825  -28.2692   22.9974 C   0  0  2  0  0  0  0  0  0  0  0  0
  -30.5067  -24.5551   17.5090 C   0  0  2  0  0  0  0  0  0  0  0  0
  -33.2304  -28.0895   19.4809 C   0  0  0  0  0  0  0  0  0  0  0  0
  -29.3592  -24.4843   16.4986 C   0  0  0  0  0  0  0  0  0  0  0  0
  -22.6220  -22.4569   26.3045 C   0  0  0  0  0  0  0  0  0  0  0  0
  -22.6393  -18.4075   21.0630 C   0  0  0  0  0  0  0  0  0  0  0  0
  -21.4577  -20.1385   22.4327 C   0  0  0  0  0  0  0  0  0  0  0  0
  -22.0663  -17.9451   23.4531 C   0  0  0  0  0  0  0  0  0  0  0  0
  -26.4248  -22.4637   26.1839 C   0  0  0  0  0  0  0  0  0  0  0  0
  -30.5380  -23.2833   18.3667 C   0  0  0  0  0  0  0  0  0  1  0  0
  -23.8850  -19.6320   22.9643 C   0  0  1  0  0  0  0  0  0  0  0  0
  -24.0008  -21.8874   26.0089 C   0  0  2  0  0  0  0  0  0  0  0  0
  -22.5377  -19.0362   22.4671 C   0  0  0  0  0  0  0  0  0  0  0  0
  -23.0183  -28.1979   22.9359 N   0  0  0  0  0  0  0  0  0  0  0  0
  -30.8575  -28.0432   19.9602 N   0  0  0  0  0  0  0  0  0  0  0  0
  -24.1741  -27.5223   22.8184 N   0  0  0  0  0  0  0  0  0  0  0  0
  -26.1103  -18.8703   22.1950 N   0  0  0  0  0  0  0  0  0  0  0  0
  -27.3045  -29.5013   21.8871 N   0  0  0  0  0  0  0  0  0  0  0  0
  -25.0696  -25.3715   22.3908 N   0  0  0  0  0  0  0  0  0  0  0  0
  -20.6083  -24.7054   22.1692 N   0  0  0  0  0  0  0  0  0  0  0  0
  -28.5367  -28.0493   20.4957 N   0  0  0  0  0  0  0  0  0  0  0  0
  -27.1043  -15.7463   20.7871 N   0  0  0  0  0  0  0  0  0  0  0  0
  -23.8251  -20.2100   24.3025 N   0  0  0  0  0  0  0  0  0  0  0  0
  -25.0214  -22.9008   26.3993 N   0  3  0  0  0  0  0  0  0  0  0  0
  -22.6539  -23.6808   22.0133 O   0  0  0  0  0  0  0  0  0  0  0  0
  -26.2753  -17.6986   19.8261 O   0  0  0  0  0  0  0  0  0  0  0  0
  -24.8699  -17.6081   23.7130 O   0  0  0  0  0  0  0  0  0  0  0  0
  -24.5079  -22.3398   23.6904 O   0  0  0  0  0  0  0  0  0  0  0  0
  -29.5693  -29.8319   21.5623 O   0  0  0  0  0  0  0  0  0  0  0  0
  -16.6616  -28.5705   22.8899 O   0  0  0  0  0  0  0  0  0  0  0  0
  -29.2149  -22.9922   18.8149 O   0  0  0  0  0  0  0  0  0  1  0  0
  -14.9135  -31.7544   27.0385 F   0  0  0  0  0  0  0  0  0  0  0  0
  -17.6879  -31.1110   23.2578 F   0  0  0  0  0  0  0  0  0  0  0  0
  1  2  1  0  0  0  0
  1  5  2  0  0  0  0
  2  6  2  0  0  0  0
  3  8  2  0  0  0  0
  3 16  1  0  0  0  0
  4  9  1  0  0  0  0
  4 16  2  0  0  0  0
  5 18  1  0  0  0  0
  6 20  1  0  0  0  0
  7 10  2  0  0  0  0
  7 19  1  0  0  0  0
  8 24  1  0  0  0  0
  9 24  2  0  0  0  0
 10 25  1  0  0  0  0
 11 12  2  0  0  0  0
 11 26  1  0  0  0  0
 12 27  1  0  0  0  0
 13 21  1  0  0  0  0
 13 25  2  0  0  0  0
 14 22  2  0  0  0  0
 14 31  1  0  0  0  0
 15 27  2  0  0  0  0
 15 28  1  0  0  0  0
 16 29  1  0  0  0  0
 17 29  1  0  0  0  0
 17 32  2  0  0  0  0
 17 33  1  0  0  0  0
 18 20  2  0  0  0  0
 18 38  1  0  0  0  0
 19 21  2  0  0  0  0
 19 39  1  0  0  0  0
 20 49  1  0  0  0  0
 21 41  1  0  0  0  0
 22 23  1  0  0  0  0
 22 52  1  0  0  0  0
 23 30  2  0  0  0  0
 23 40  1  0  0  0  0
 24 80  1  0  0  0  0
 25 81  1  0  0  0  0
 26 28  2  0  0  0  0
 26 80  1  0  0  0  0
 27 82  1  0  0  0  0
 28 83  1  0  0  0  0
 29 64  2  0  0  0  0
 30 53  1  0  0  0  0
 30 65  1  0  0  0  0
 31 65  2  0  0  0  0
 31 71  1  0  0  0  0
 32 66  1  0  0  0  0
 32 69  1  0  0  0  0
 33 70  1  0  0  0  0
 33 75  2  0  0  0  0
 34 50  1  0  0  0  0
 34 72  1  0  0  0  0
 34 76  2  0  0  0  0
 35 61  1  0  0  0  0
 35 67  1  0  0  0  0
 35 77  2  0  0  0  0
 36 62  1  0  0  0  0
 36 73  1  0  0  0  0
 36 78  2  0  0  0  0
 37 68  1  0  0  0  0
 37 71  1  0  0  0  0
 37 79  2  0  0  0  0
 38 42  1  0  0  0  0
 39 50  1  0  0  0  0
 40 43  1  0  0  0  0
 41 67  1  0  0  0  0
 42 45  1  0  0  0  0
 43 52  1  0  0  0  0
 44 46  1  0  0  0  0
 44 47  1  0  0  0  0
 45 49  1  0  0  0  0
 46 51  1  0  0  0  0
 47 68  1  0  0  0  0
 48 51  1  0  0  0  0
 48 68  1  0  0  0  0
 49 72  1  0  0  0  0
 50 67  1  0  0  0  0
 51 66  1  0  0  0  0
 52 54  1  0  0  0  0
 52 60  1  0  0  0  0
 55 62  1  0  0  0  0
 56 63  1  0  0  0  0
 57 63  1  0  0  0  0
 58 63  1  0  0  0  0
 59 74  1  0  0  0  0
 60 81  1  0  0  0  0
 61 63  1  0  0  0  0
 61 73  1  0  0  0  0
 62 74  1  0  0  0  0
 64 66  1  0  0  0  0
M  CHG  1  74   1
M  ISO  4  37 100  60 101  71 100  81 101
M  END
> <Batch ID>
0178

> <Smiles>
CNC(C)C(=O)NC(C(=O)N1Cc2cc([101O:1][101CH2:1]C3(C)CCc4c3cc([100NH:0][100C:0](=O)N3CCCC(n5nc(-c6ccc(Oc7ccc(F)cc7F)cc6)c(C(N)=O)c5N)C3)nc4C)ccc2CC1C(=O)NC1CCCc2ccccc21)C(C)(C)C

> <Shape>
0.251

> <Color>
0.065

> <Negative vol penalty>
0.000

$$$$

  -OEChem-04052322553D

 84 93  0     1  0  0  0  0  0999 V2000
  -29.2358  -31.1263   26.5986 C   0  0  0  0  0  0  0  0  0  0  0  0
  -28.9897  -30.1058   25.6856 C   0  0  0  0  0  0  0  0  0  0  0  0
  -23.1891  -10.5402   21.5296 C   0  0  0  0  0  0  0  0  0  0  0  0
  -24.8127   -8.7776   21.8362 C   0  0  0  0  0  0  0  0  0  0  0  0
  -28.1718  -31.8421   27.1458 C   0  0  0  0  0  0  0  0  0  0  0  0
  -27.6792  -29.7999   25.3202 C   0  0  0  0  0  0  0  0  0  0  0  0
  -27.1576  -29.1460   20.3256 C   0  0  0  0  0  0  0  0  0  0  0  0
  -22.1752   -9.5881   21.4248 C   0  0  0  0  0  0  0  0  0  0  0  0
  -23.7988   -7.8254   21.7314 C   0  0  0  0  0  0  0  0  0  0  0  0
  -27.5821  -27.9285   19.7951 C   0  0  0  0  0  0  0  0  0  0  0  0
  -21.3729   -6.5450   23.7053 C   0  0  0  0  0  0  0  0  0  0  0  0
  -21.3661   -5.5031   24.6326 C   0  0  0  0  0  0  0  0  0  0  0  0
  -25.2980  -27.1535   19.7616 C   0  0  0  0  0  0  0  0  0  0  0  0
  -21.5806   -3.9024   22.8356 C   0  0  0  0  0  0  0  0  0  0  0  0
  -26.8115  -22.4184   19.0384 C   0  0  0  0  0  0  0  0  0  0  0  0
  -24.5079  -10.1350   21.7352 C   0  0  0  0  0  0  0  0  0  0  0  0
  -26.0155  -11.7453   23.0164 C   0  0  0  0  0  0  0  0  0  0  0  0
  -26.8483  -31.5512   26.7796 C   0  0  0  0  0  0  0  0  0  0  0  0
  -25.7990  -29.3727   20.5887 C   0  0  0  0  0  0  0  0  0  0  0  0
  -26.5965  -30.5116   25.8640 C   0  0  0  0  0  0  0  0  0  0  0  0
  -24.8585  -28.3756   20.2931 C   0  0  0  0  0  0  0  0  0  0  0  0
  -22.4800   -8.2307   21.5258 C   0  0  0  0  0  0  0  0  0  0  0  0
  -26.6526  -26.9310   19.5157 C   0  0  0  0  0  0  0  0  0  0  0  0
  -21.4835   -6.2657   22.3431 C   0  0  0  0  0  0  0  0  0  0  0  0
  -21.4700   -4.1818   24.1978 C   0  0  0  0  0  0  0  0  0  0  0  0
  -21.5874   -4.9444   21.9083 C   0  0  0  0  0  0  0  0  0  0  0  0
  -25.5558  -11.1180   21.8430 C   0  0  0  0  0  0  0  0  0  0  0  0
  -27.4084  -21.3099   18.4733 C   0  0  0  0  0  0  0  0  0  0  0  0
  -26.6936  -23.5185   18.2137 C   0  0  0  0  0  0  0  0  0  0  0  0
  -27.0121  -12.5876   22.5876 C   0  0  0  0  0  0  0  0  0  0  0  0
  -27.6862  -22.4030   16.4997 C   0  0  0  0  0  0  0  0  0  0  0  0
  -25.5806  -11.5813   24.3728 C   0  0  0  0  0  0  0  0  0  0  0  0
  -24.0918  -29.9877   23.1985 C   0  0  0  0  0  0  0  0  0  0  0  0
  -21.6810  -30.3614   21.0605 C   0  0  0  0  0  0  0  0  0  0  0  0
  -20.4057  -29.6438   17.9774 C   0  0  0  0  0  0  0  0  0  0  0  0
  -29.1146  -16.2511   19.0978 C   0  0  0  0  0  0  0  0  0  0  0  0
  -25.7282  -32.3209   27.4336 C   0  0  0  0  0  0  0  0  0  0  0  0
  -25.3542  -30.7012   21.1362 C   0  0  0  0  0  0  0  0  0  0  0  0
  -23.3861  -28.5766   20.5382 C   0  0  0  0  0  0  0  0  0  0  0  0
  -24.3912  -32.1837   26.7099 C   0  0  0  0  0  0  0  0  0  0  0  0
  -29.3395  -12.9436   18.1191 C   0  0  0  0  0  0  0  0  0  0  0  0
  -24.1170  -30.7228   26.3673 C   0  0  0  0  0  0  0  0  0  0  0  0
  -28.4157  -12.2128   19.0932 C   0  0  0  0  0  0  0  0  0  0  0  0
  -26.8004  -18.8617   18.7146 C   0  0  0  0  0  0  0  0  0  0  0  0
  -29.0655  -19.6843   19.4905 C   0  0  0  0  0  0  0  0  0  0  0  0
  -28.7252  -14.2649   17.6716 C   0  0  0  0  0  0  0  0  0  0  0  0
  -27.0063  -17.5864   19.5370 C   0  0  0  0  0  0  0  0  0  0  0  0
  -29.2062  -18.4064   20.3123 C   0  0  0  0  0  0  0  0  0  0  0  0
  -27.4515  -14.4635   19.7826 C   0  0  0  0  0  0  0  0  0  0  0  0
  -25.1903  -30.1666   25.4238 C   0  0  1  0  0  0  0  0  0  0  0  0
  -27.5823  -20.0507   19.3014 C   0  0  0  0  0  0  0  0  0  0  0  0
  -24.0049  -30.6339   21.8448 C   0  0  1  0  0  0  0  0  0  0  0  0
  -28.0282  -13.1203   20.2742 C   0  0  1  0  0  0  0  0  0  0  0  0
  -28.1685  -22.3940   15.0886 C   0  0  0  0  0  0  0  0  0  0  0  0
  -18.3990  -30.0617   16.5298 C   0  0  0  0  0  0  0  0  0  0  0  0
  -20.0799  -28.3496   22.7034 C   0  0  0  0  0  0  0  0  0  0  0  0
  -18.5321  -28.0933   20.7523 C   0  0  0  0  0  0  0  0  0  0  0  0
  -18.7609  -30.3076   21.8781 C   0  0  0  0  0  0  0  0  0  0  0  0
  -22.0362  -30.9867   15.9046 C   0  0  0  0  0  0  0  0  0  0  0  0
  -26.0594  -24.7640   18.7360 C   0  0  0  0  0  0  0  0  0  1  0  0
  -20.6529  -29.4479   20.4381 C   0  0  1  0  0  0  0  0  0  0  0  0
  -19.7948  -30.5318   16.9085 C   0  0  2  0  0  0  0  0  0  0  0  0
  -19.5344  -29.0448   21.4400 C   0  0  0  0  0  0  0  0  0  0  0  0
  -26.2067  -11.5270   20.7507 N   0  0  0  0  0  0  0  0  0  0  0  0
  -27.8590  -21.2673   17.2023 N   0  0  0  0  0  0  0  0  0  0  0  0
  -27.1218  -23.5458   16.9345 N   0  0  0  0  0  0  0  0  0  0  0  0
  -27.0856  -12.4204   21.2360 N   0  0  0  0  0  0  0  0  0  0  0  0
  -23.0015  -29.8903   21.0803 N   0  0  0  0  0  0  0  0  0  0  0  0
  -28.3678  -15.0960   18.8210 N   0  0  0  0  0  0  0  0  0  0  0  0
  -28.4384  -17.3118   19.7192 N   0  0  0  0  0  0  0  0  0  0  0  0
  -27.8239  -13.4476   23.2386 N   0  0  0  0  0  0  0  0  0  0  0  0
  -24.5452  -10.6745   24.6374 N   0  0  0  0  0  0  0  0  0  0  0  0
  -24.9576  -30.6210   24.0697 N   0  0  0  0  0  0  0  0  0  0  0  0
  -20.1677  -30.1325   19.2447 N   0  0  0  0  0  0  0  0  0  0  0  0
  -20.6420  -30.5242   15.6825 N   0  3  0  0  0  0  0  0  0  0  0  0
  -26.0839  -12.2319   25.3198 O   0  0  0  0  0  0  0  0  0  0  0  0
  -23.4218  -28.9894   23.4356 O   0  0  0  0  0  0  0  0  0  0  0  0
  -21.3269  -31.4558   21.5060 O   0  0  0  0  0  0  0  0  0  0  0  0
  -21.0283  -28.6172   17.7148 O   0  0  0  0  0  0  0  0  0  0  0  0
  -30.3149  -16.3305   18.8078 O   0  0  0  0  0  0  0  0  0  0  0  0
  -21.4908   -7.3013   21.4238 O   0  0  0  0  0  0  0  0  0  0  0  0
  -27.0672  -25.7333   18.9948 O   0  0  0  0  0  0  0  0  0  1  0  0
  -21.4650   -3.1814   25.0885 F   0  0  0  0  0  0  0  0  0  0  0  0
  -21.6951   -4.6699   20.6011 F   0  0  0  0  0  0  0  0  0  0  0  0
  1  2  1  0  0  0  0
  1  5  2  0  0  0  0
  2  6  2  0  0  0  0
  3  8  2  0  0  0  0
  3 16  1  0  0  0  0
  4  9  1  0  0  0  0
  4 16  2  0  0  0  0
  5 18  1  0  0  0  0
  6 20  1  0  0  0  0
  7 10  2  0  0  0  0
  7 19  1  0  0  0  0
  8 22  1  0  0  0  0
  9 22  2  0  0  0  0
 10 23  1  0  0  0  0
 11 12  2  0  0  0  0
 11 24  1  0  0  0  0
 12 25  1  0  0  0  0
 13 21  1  0  0  0  0
 13 23  2  0  0  0  0
 14 25  2  0  0  0  0
 14 26  1  0  0  0  0
 15 28  2  0  0  0  0
 15 29  1  0  0  0  0
 16 27  1  0  0  0  0
 17 27  1  0  0  0  0
 17 30  2  0  0  0  0
 17 32  1  0  0  0  0
 18 20  2  0  0  0  0
 18 37  1  0  0  0  0
 19 21  2  0  0  0  0
 19 38  1  0  0  0  0
 20 50  1  0  0  0  0
 21 39  1  0  0  0  0
 22 81  1  0  0  0  0
 23 82  1  0  0  0  0
 24 26  2  0  0  0  0
 24 81  1  0  0  0  0
 25 83  1  0  0  0  0
 26 84  1  0  0  0  0
 27 64  2  0  0  0  0
 28 51  1  0  0  0  0
 28 65  1  0  0  0  0
 29 60  1  0  0  0  0
 29 66  2  0  0  0  0
 30 67  1  0  0  0  0
 30 71  1  0  0  0  0
 31 54  1  0  0  0  0
 31 65  2  0  0  0  0
 31 66  1  0  0  0  0
 32 72  1  0  0  0  0
 32 76  2  0  0  0  0
 33 52  1  0  0  0  0
 33 73  1  0  0  0  0
 33 77  2  0  0  0  0
 34 61  1  0  0  0  0
 34 68  1  0  0  0  0
 34 78  2  0  0  0  0
 35 62  1  0  0  0  0
 35 74  1  0  0  0  0
 35 79  2  0  0  0  0
 36 69  1  0  0  0  0
 36 70  1  0  0  0  0
 36 80  2  0  0  0  0
 37 40  1  0  0  0  0
 38 52  1  0  0  0  0
 39 68  1  0  0  0  0
 40 42  1  0  0  0  0
 41 43  1  0  0  0  0
 41 46  1  0  0  0  0
 42 50  1  0  0  0  0
 43 53  1  0  0  0  0
 44 47  1  0  0  0  0
 44 51  1  0  0  0  0
 45 48  1  0  0  0  0
 45 51  1  0  0  0  0
 46 69  1  0  0  0  0
 47 70  1  0  0  0  0
 48 70  1  0  0  0  0
 49 53  1  0  0  0  0
 49 69  1  0  0  0  0
 50 73  1  0  0  0  0
 52 68  1  0  0  0  0
 53 67  1  0  0  0  0
 55 62  1  0  0  0  0
 56 63  1  0  0  0  0
 57 63  1  0  0  0  0
 58 63  1  0  0  0  0
 59 75  1  0  0  0  0
 60 82  1  0  0  0  0
 61 63  1  0  0  0  0
 61 74  1  0  0  0  0
 62 75  1  0  0  0  0
 64 67  1  0  0  0  0
M  CHG  1  75   1
M  ISO  4  36 100  60 101  70 100  82 101
M  END
> <Batch ID>
0178

> <Smiles>
CNC(C)C(=O)NC(C(=O)N1Cc2cc([101O:1][101CH2:1]c3cc(C4CC[100N:0]([100C:0](=O)N5CCCC(n6nc(-c7ccc(Oc8ccc(F)cc8F)cc7)c(C(N)=O)c6N)C5)CC4)nc(C)n3)ccc2CC1C(=O)NC1CCCc2ccccc21)C(C)(C)C

> <Shape>
0.305

> <Color>
0.124

> <Negative vol penalty>
0.000

$$$$

  -OEChem-04052322553D

 86 95  0     1  0  0  0  0  0999 V2000
  -24.3771  -30.0259   21.1929 C   0  0  0  0  0  0  0  0  0  0  0  0
  -24.1792  -28.8596   21.9251 C   0  0  0  0  0  0  0  0  0  0  0  0
  -19.9794  -22.8521   22.9877 C   0  0  0  0  0  0  0  0  0  0  0  0
  -21.0336  -22.4873   20.8447 C   0  0  0  0  0  0  0  0  0  0  0  0
  -24.9632  -29.9634   19.9294 C   0  0  0  0  0  0  0  0  0  0  0  0
  -24.5665  -27.6300   21.3936 C   0  0  0  0  0  0  0  0  0  0  0  0
  -27.1058  -21.2360   23.3900 C   0  0  0  0  0  0  0  0  0  0  0  0
  -20.4008  -24.1817   22.9687 C   0  0  0  0  0  0  0  0  0  0  0  0
  -21.4549  -23.8169   20.8256 C   0  0  0  0  0  0  0  0  0  0  0  0
  -26.8344  -19.8762   23.2449 C   0  0  0  0  0  0  0  0  0  0  0  0
  -19.4485  -27.0758   21.5025 C   0  0  0  0  0  0  0  0  0  0  0  0
  -18.5224  -28.0546   21.8632 C   0  0  0  0  0  0  0  0  0  0  0  0
  -27.9096  -19.8982   21.0856 C   0  0  0  0  0  0  0  0  0  0  0  0
  -19.9614  -28.7480   23.6759 C   0  0  0  0  0  0  0  0  0  0  0  0
  -20.2958  -22.0049   21.9257 C   0  0  0  0  0  0  0  0  0  0  0  0
  -18.6537  -20.1145   21.4388 C   0  0  0  0  0  0  0  0  0  0  0  0
  -25.3666  -28.7334   19.3862 C   0  0  0  0  0  0  0  0  0  0  0  0
  -27.7727  -21.9407   22.3775 C   0  0  0  0  0  0  0  0  0  0  0  0
  -25.1573  -27.5508   20.1211 C   0  0  0  0  0  0  0  0  0  0  0  0
  -28.1905  -21.2663   21.2214 C   0  0  0  0  0  0  0  0  0  0  0  0
  -27.6760  -14.8892   21.5439 C   0  0  0  0  0  0  0  0  0  0  0  0
  -27.2759  -13.5576   21.5397 C   0  0  0  0  0  0  0  0  0  0  0  0
  -27.0000  -15.8149   20.7568 C   0  0  0  0  0  0  0  0  0  0  0  0
  -21.1385  -24.6641   21.8877 C   0  0  0  0  0  0  0  0  0  0  0  0
  -27.2337  -19.2077   22.0913 C   0  0  0  0  0  0  0  0  0  0  0  0
  -20.6309  -26.9331   22.2285 C   0  0  0  0  0  0  0  0  0  0  0  0
  -18.7789  -28.8907   22.9499 C   0  0  0  0  0  0  0  0  0  0  0  0
  -20.8874  -27.7692   23.3152 C   0  0  0  0  0  0  0  0  0  0  0  0
  -19.8613  -20.6313   21.9451 C   0  0  0  0  0  0  0  0  0  0  0  0
  -26.2026  -13.2054   20.7374 C   0  0  0  0  0  0  0  0  0  0  0  0
  -25.9391  -15.3616   19.9894 C   0  0  0  0  0  0  0  0  0  0  0  0
  -18.7203  -18.7677   21.6999 C   0  0  0  0  0  0  0  0  0  0  0  0
  -17.5687  -20.7913   20.7904 C   0  0  0  0  0  0  0  0  0  0  0  0
  -27.0363  -24.3908   20.4911 C   0  0  0  0  0  0  0  0  0  0  0  0
  -30.1390  -24.1213   19.5841 C   0  0  0  0  0  0  0  0  0  0  0  0
  -32.9108  -22.1523   19.2897 C   0  0  0  0  0  0  0  0  0  0  0  0
  -22.5161  -14.5353   21.7395 C   0  0  0  0  0  0  0  0  0  0  0  0
  -25.9527  -28.7107   17.9967 C   0  0  0  0  0  0  0  0  0  0  0  0
  -28.0815  -23.4013   22.5609 C   0  0  0  0  0  0  0  0  0  0  0  0
  -28.9274  -21.9726   20.1139 C   0  0  0  0  0  0  0  0  0  0  0  0
  -26.6770  -27.4092   17.6623 C   0  0  0  0  0  0  0  0  0  0  0  0
  -21.2992  -15.9496   24.8393 C   0  0  0  0  0  0  0  0  0  0  0  0
  -25.8333  -26.2075   18.0756 C   0  0  0  0  0  0  0  0  0  0  0  0
  -23.9511  -10.1339   21.6350 C   0  0  0  0  0  0  0  0  0  0  0  0
  -20.6808  -17.2607   24.3511 C   0  0  0  0  0  0  0  0  0  0  0  0
  -22.6598  -10.8538   22.0763 C   0  0  0  0  0  0  0  0  0  0  0  0
  -22.5748  -15.6184   24.0698 C   0  0  0  0  0  0  0  0  0  0  0  0
  -21.7884  -16.8741   22.1018 C   0  0  0  0  0  0  0  0  0  0  0  0
  -25.5867  -26.2008   19.5891 C   0  0  1  0  0  0  0  0  0  0  0  0
  -28.3117  -24.1335   21.2425 C   0  0  1  0  0  0  0  0  0  0  0  0
  -24.6649  -11.5069   21.7349 C   0  0  2  0  0  0  0  0  0  0  0  0
  -20.4823  -17.2515   22.8240 C   0  0  2  0  0  0  0  0  0  0  0  0
  -23.2700  -12.1519   21.4989 C   0  0  2  0  0  0  0  0  0  0  0  0
  -28.8302  -15.3241   22.3896 C   0  0  0  0  0  0  0  0  0  0  0  0
  -27.9807  -12.5414   22.3744 C   0  0  0  0  0  0  0  0  0  0  0  0
  -25.1758  -16.3082   19.1217 C   0  0  0  0  0  0  0  0  0  0  0  0
  -35.2845  -22.2010   18.4768 C   0  0  0  0  0  0  0  0  0  0  0  0
  -29.1523  -23.9656   16.7010 C   0  0  0  0  0  0  0  0  0  0  0  0
  -31.4019  -23.0783   16.0525 C   0  0  0  0  0  0  0  0  0  0  0  0
  -31.1991  -25.3648   17.0290 C   0  0  0  0  0  0  0  0  0  0  0  0
  -33.9686  -21.5381   21.9846 C   0  0  0  0  0  0  0  0  0  0  0  0
  -27.4072  -17.2589   20.7393 C   0  0  0  0  0  0  0  0  0  1  0  0
  -25.7267  -11.7903   20.6914 C   0  0  0  0  0  0  0  0  0  0  0  0
  -30.8782  -23.3477   18.5191 C   0  0  1  0  0  0  0  0  0  0  0  0
  -34.3609  -22.3909   19.6700 C   0  0  2  0  0  0  0  0  0  0  0  0
  -30.6423  -23.9259   17.0952 C   0  0  0  0  0  0  0  0  0  0  0  0
  -20.6382  -19.6896   22.4870 N   0  0  0  0  0  0  0  0  0  0  0  0
  -25.5214  -14.0762   19.9594 N   0  0  0  0  0  0  0  0  0  0  0  0
  -19.9170  -18.5675   22.3227 N   0  0  0  0  0  0  0  0  0  0  0  0
  -29.2004  -23.4020   20.3374 N   0  0  0  0  0  0  0  0  0  0  0  0
  -22.3128  -15.6070   22.6234 N   0  0  0  0  0  0  0  0  0  0  0  0
  -17.8714  -17.7470   21.4552 N   0  0  0  0  0  0  0  0  0  0  0  0
  -17.6629  -22.1769   20.6017 N   0  0  0  0  0  0  0  0  0  0  0  0
  -26.7618  -25.7302   20.2905 N   0  0  0  0  0  0  0  0  0  0  0  0
  -32.2779  -23.3232   18.9298 N   0  0  0  0  0  0  0  0  0  0  0  0
  -23.0121  -13.3644   22.3030 N   0  0  0  0  0  0  0  0  0  0  0  0
  -34.7778  -21.4437   20.7424 N   0  3  0  0  0  0  0  0  0  0  0  0
  -16.5388  -20.1878   20.4049 O   0  0  0  0  0  0  0  0  0  0  0  0
  -26.3525  -23.4442   20.1195 O   0  0  0  0  0  0  0  0  0  0  0  0
  -30.3904  -25.3180   19.7465 O   0  0  0  0  0  0  0  0  0  0  0  0
  -32.3925  -21.0380   19.3063 O   0  0  0  0  0  0  0  0  0  0  0  0
  -22.2693  -14.6073   20.5306 O   0  0  0  0  0  0  0  0  0  0  0  0
  -21.5497  -25.9614   21.8687 O   0  0  0  0  0  0  0  0  0  0  0  0
  -26.9695  -17.8806   21.9469 O   0  0  0  0  0  0  0  0  0  1  0  0
  -17.8903  -29.8315   23.2952 F   0  0  0  0  0  0  0  0  0  0  0  0
  -22.0222  -27.6376   24.0157 F   0  0  0  0  0  0  0  0  0  0  0  0
  1  2  1  0  0  0  0
  1  5  2  0  0  0  0
  2  6  2  0  0  0  0
  3  8  2  0  0  0  0
  3 15  1  0  0  0  0
  4  9  1  0  0  0  0
  4 15  2  0  0  0  0
  5 17  1  0  0  0  0
  6 19  1  0  0  0  0
  7 10  2  0  0  0  0
  7 18  1  0  0  0  0
  8 24  1  0  0  0  0
  9 24  2  0  0  0  0
 10 25  1  0  0  0  0
 11 12  2  0  0  0  0
 11 26  1  0  0  0  0
 12 27  1  0  0  0  0
 13 20  1  0  0  0  0
 13 25  2  0  0  0  0
 14 27  2  0  0  0  0
 14 28  1  0  0  0  0
 15 29  1  0  0  0  0
 16 29  1  0  0  0  0
 16 32  2  0  0  0  0
 16 33  1  0  0  0  0
 17 19  2  0  0  0  0
 17 38  1  0  0  0  0
 18 20  2  0  0  0  0
 18 39  1  0  0  0  0
 19 49  1  0  0  0  0
 20 40  1  0  0  0  0
 21 22  1  0  0  0  0
 21 23  2  0  0  0  0
 21 54  1  0  0  0  0
 22 30  2  0  0  0  0
 22 55  1  0  0  0  0
 23 31  1  0  0  0  0
 23 62  1  0  0  0  0
 24 83  1  0  0  0  0
 25 84  1  0  0  0  0
 26 28  2  0  0  0  0
 26 83  1  0  0  0  0
 27 85  1  0  0  0  0
 28 86  1  0  0  0  0
 29 67  2  0  0  0  0
 30 63  1  0  0  0  0
 30 68  1  0  0  0  0
 31 56  1  0  0  0  0
 31 68  2  0  0  0  0
 32 69  1  0  0  0  0
 32 72  1  0  0  0  0
 33 73  1  0  0  0  0
 33 78  2  0  0  0  0
 34 50  1  0  0  0  0
 34 74  1  0  0  0  0
 34 79  2  0  0  0  0
 35 64  1  0  0  0  0
 35 70  1  0  0  0  0
 35 80  2  0  0  0  0
 36 65  1  0  0  0  0
 36 75  1  0  0  0  0
 36 81  2  0  0  0  0
 37 71  1  0  0  0  0
 37 76  1  0  0  0  0
 37 82  2  0  0  0  0
 38 41  1  0  0  0  0
 39 50  1  0  0  0  0
 40 70  1  0  0  0  0
 41 43  1  0  0  0  0
 42 45  1  0  0  0  0
 42 47  1  0  0  0  0
 43 49  1  0  0  0  0
 44 46  1  0  0  0  0
 44 51  1  0  0  0  0
 45 52  1  0  0  0  0
 46 53  1  0  0  0  0
 47 71  1  0  0  0  0
 48 52  1  0  0  0  0
 48 71  1  0  0  0  0
 49 74  1  0  0  0  0
 50 70  1  0  0  0  0
 51 53  1  0  0  0  0
 51 63  1  0  0  0  0
 52 69  1  0  0  0  0
 53 76  1  0  0  0  0
 57 65  1  0  0  0  0
 58 66  1  0  0  0  0
 59 66  1  0  0  0  0
 60 66  1  0  0  0  0
 61 77  1  0  0  0  0
 62 84  1  0  0  0  0
 64 66  1  0  0  0  0
 64 75  1  0  0  0  0
 65 77  1  0  0  0  0
 67 69  1  0  0  0  0
M  CHG  1  77   1
M  ISO  4  37 100  62 101  76 100  84 101
M  END
> <Batch ID>
0178

> <Smiles>
CNC(C)C(=O)NC(C(=O)N1Cc2cc([101O:1][101CH2:1]c3c(C)nc(CC4CCC4[100NH:0][100C:0](=O)N4CCCC(n5nc(-c6ccc(Oc7ccc(F)cc7F)cc6)c(C(N)=O)c5N)C4)c(C)c3C)ccc2CC1C(=O)NC1CCCc2ccccc21)C(C)(C)C

> <Shape>
0.218

> <Color>
0.066

> <Negative vol penalty>
0.000

$$$$

  -OEChem-04052322553D

 81 90  0     1  0  0  0  0  0999 V2000
  -34.1686  -33.8112   25.1984 C   0  0  0  0  0  0  0  0  0  0  0  0
  -34.1296  -32.4414   24.9584 C   0  0  0  0  0  0  0  0  0  0  0  0
  -23.0807   -9.8584   19.9480 C   0  0  0  0  0  0  0  0  0  0  0  0
  -23.8369   -9.8814   22.2425 C   0  0  0  0  0  0  0  0  0  0  0  0
  -32.9925  -34.5002   25.4914 C   0  0  0  0  0  0  0  0  0  0  0  0
  -32.9145  -31.7596   25.0125 C   0  0  0  0  0  0  0  0  0  0  0  0
  -31.2088  -26.9968   21.5611 C   0  0  0  0  0  0  0  0  0  0  0  0
  -22.3400   -8.7045   20.2037 C   0  0  0  0  0  0  0  0  0  0  0  0
  -23.0961   -8.7275   22.4982 C   0  0  0  0  0  0  0  0  0  0  0  0
  -31.2020  -25.6226   21.7964 C   0  0  0  0  0  0  0  0  0  0  0  0
  -19.8694   -7.9235   23.1004 C   0  0  0  0  0  0  0  0  0  0  0  0
  -19.1107   -7.8883   24.2703 C   0  0  0  0  0  0  0  0  0  0  0  0
  -30.9076  -20.5785   21.4762 C   0  0  0  0  0  0  0  0  0  0  0  0
  -28.8818  -25.7512   22.4442 C   0  0  0  0  0  0  0  0  0  0  0  0
  -20.3568   -5.9591   25.0203 C   0  0  0  0  0  0  0  0  0  0  0  0
  -30.9350  -21.0290   23.8314 C   0  0  0  0  0  0  0  0  0  0  0  0
  -23.8293  -10.4468   20.9674 C   0  0  0  0  0  0  0  0  0  0  0  0
  -24.1637  -12.9723   20.8328 C   0  0  0  0  0  0  0  0  0  0  0  0
  -31.7609  -33.8282   25.5395 C   0  0  0  0  0  0  0  0  0  0  0  0
  -30.0532  -27.7615   21.7764 C   0  0  0  0  0  0  0  0  0  0  0  0
  -31.7209  -32.4400   25.3078 C   0  0  0  0  0  0  0  0  0  0  0  0
  -30.7139  -19.2511   21.8000 C   0  0  0  0  0  0  0  0  0  0  0  0
  -28.8759  -27.1344   22.2085 C   0  0  0  0  0  0  0  0  0  0  0  0
  -31.0273  -21.4939   22.5193 C   0  0  0  0  0  0  0  0  0  0  0  0
  -22.3476   -8.1391   21.4788 C   0  0  0  0  0  0  0  0  0  0  0  0
  -30.0392  -25.0001   22.2408 C   0  0  0  0  0  0  0  0  0  0  0  0
  -20.8718   -6.9765   22.8903 C   0  0  0  0  0  0  0  0  0  0  0  0
  -19.3544   -6.9061   25.2303 C   0  0  0  0  0  0  0  0  0  0  0  0
  -21.1155   -5.9943   23.8503 C   0  0  0  0  0  0  0  0  0  0  0  0
  -24.5952  -11.6385   20.7038 C   0  0  0  0  0  0  0  0  0  0  0  0
  -30.6325  -18.8865   23.1400 C   0  0  0  0  0  0  0  0  0  0  0  0
  -25.2541  -13.7229   20.4668 C   0  0  0  0  0  0  0  0  0  0  0  0
  -22.8910  -13.4867   21.2466 C   0  0  0  0  0  0  0  0  0  0  0  0
  -29.2860  -30.1742   23.6983 C   0  0  0  0  0  0  0  0  0  0  0  0
  -26.5281  -30.1459   21.9907 C   0  0  0  0  0  0  0  0  0  0  0  0
  -24.3463  -28.3907   20.0399 C   0  0  0  0  0  0  0  0  0  0  0  0
  -30.7345  -14.7596   20.6577 C   0  0  0  0  0  0  0  0  0  0  0  0
  -30.5228  -34.6071   25.9068 C   0  0  0  0  0  0  0  0  0  0  0  0
  -30.0695  -29.2385   21.4923 C   0  0  0  0  0  0  0  0  0  0  0  0
  -30.5216  -18.0746   20.9007 C   0  0  0  0  0  0  0  0  0  0  0  0
  -27.6031  -27.9072   22.4354 C   0  0  0  0  0  0  0  0  0  0  0  0
  -30.3665  -17.4129   23.2764 C   0  0  0  0  0  0  0  0  0  0  0  0
  -29.2235  -33.8773   25.5760 C   0  0  0  0  0  0  0  0  0  0  0  0
  -29.6079  -12.3575   18.2834 C   0  0  0  0  0  0  0  0  0  0  0  0
  -29.2914  -32.4273   26.0448 C   0  0  0  0  0  0  0  0  0  0  0  0
  -28.1706  -12.0620   18.7158 C   0  0  0  0  0  0  0  0  0  0  0  0
  -30.5224  -12.5882   19.4844 C   0  0  0  0  0  0  0  0  0  0  0  0
  -28.6163  -13.3218   20.8636 C   0  0  0  0  0  0  0  0  0  0  0  0
  -30.4186  -31.6695   25.3329 C   0  0  1  0  0  0  0  0  0  0  0  0
  -28.9792  -30.0023   22.2375 C   0  0  1  0  0  0  0  0  0  0  0  0
  -27.6445  -13.1372   19.6855 C   0  0  2  0  0  0  0  0  0  0  0  0
  -30.7919  -16.9177   21.8818 C   0  0  1  0  0  0  0  0  0  0  0  0
  -22.1630  -28.6248   18.8250 C   0  0  0  0  0  0  0  0  0  0  0  0
  -25.0338  -29.9543   24.6441 C   0  0  0  0  0  0  0  0  0  0  0  0
  -23.0005  -29.2437   23.3678 C   0  0  0  0  0  0  0  0  0  0  0  0
  -23.9957  -31.4964   22.9712 C   0  0  0  0  0  0  0  0  0  0  0  0
  -25.6082  -27.8223   17.4239 C   0  0  0  0  0  0  0  0  0  0  0  0
  -31.2469  -22.9513   22.2382 C   0  0  0  0  0  0  0  0  0  1  0  0
  -25.1985  -29.4425   22.1188 C   0  0  1  0  0  0  0  0  0  0  0  0
  -23.6765  -28.7309   18.7208 C   0  0  2  0  0  0  0  0  0  0  0  0
  -24.3315  -30.0197   23.2732 C   0  0  0  0  0  0  0  0  0  0  0  0
  -30.7328  -19.7346   24.1766 N   0  0  0  0  0  0  0  0  0  0  0  0
  -25.8610  -11.5440   20.2880 N   0  0  0  0  0  0  0  0  0  0  0  0
  -26.2342  -12.8279   20.1526 N   0  0  0  0  0  0  0  0  0  0  0  0
  -27.6713  -29.3498   22.1497 N   0  0  0  0  0  0  0  0  0  0  0  0
  -29.9674  -13.6204   20.3634 N   0  0  0  0  0  0  0  0  0  0  0  0
  -25.4606  -15.0545   20.3861 N   0  0  0  0  0  0  0  0  0  0  0  0
  -21.8813  -12.5765   21.5877 N   0  0  0  0  0  0  0  0  0  0  0  0
  -30.0166  -31.3103   23.9899 N   0  0  0  0  0  0  0  0  0  0  0  0
  -24.5694  -29.5162   20.8046 N   0  0  0  0  0  0  0  0  0  0  0  0
  -30.1312  -15.6916   21.4932 N   0  0  0  0  0  0  0  0  0  0  0  0
  -24.1400  -27.8035   17.6502 N   0  3  0  0  0  0  0  0  0  0  0  0
  -22.6509  -14.7169   21.2962 O   0  0  0  0  0  0  0  0  0  0  0  0
  -28.8879  -29.3388   24.5016 O   0  0  0  0  0  0  0  0  0  0  0  0
  -26.5516  -31.3558   21.7511 O   0  0  0  0  0  0  0  0  0  0  0  0
  -24.6386  -27.2411   20.3616 O   0  0  0  0  0  0  0  0  0  0  0  0
  -31.8706  -14.9358   20.2048 O   0  0  0  0  0  0  0  0  0  0  0  0
  -21.6247   -7.0133   21.7287 O   0  0  0  0  0  0  0  0  0  0  0  0
  -30.0300  -23.6590   22.4718 O   0  0  0  0  0  0  0  0  0  1  0  0
  -18.6268   -6.8734   26.3544 F   0  0  0  0  0  0  0  0  0  0  0  0
  -22.0779   -5.0825   23.6547 F   0  0  0  0  0  0  0  0  0  0  0  0
  1  2  1  0  0  0  0
  1  5  2  0  0  0  0
  2  6  2  0  0  0  0
  3  8  2  0  0  0  0
  3 17  1  0  0  0  0
  4  9  1  0  0  0  0
  4 17  2  0  0  0  0
  5 19  1  0  0  0  0
  6 21  1  0  0  0  0
  7 10  2  0  0  0  0
  7 20  1  0  0  0  0
  8 25  1  0  0  0  0
  9 25  2  0  0  0  0
 10 26  1  0  0  0  0
 11 12  2  0  0  0  0
 11 27  1  0  0  0  0
 12 28  1  0  0  0  0
 13 22  1  0  0  0  0
 13 24  2  0  0  0  0
 14 23  1  0  0  0  0
 14 26  2  0  0  0  0
 15 28  2  0  0  0  0
 15 29  1  0  0  0  0
 16 24  1  0  0  0  0
 16 62  2  0  0  0  0
 17 30  1  0  0  0  0
 18 30  1  0  0  0  0
 18 32  2  0  0  0  0
 18 33  1  0  0  0  0
 19 21  2  0  0  0  0
 19 38  1  0  0  0  0
 20 23  2  0  0  0  0
 20 39  1  0  0  0  0
 21 49  1  0  0  0  0
 22 31  2  0  0  0  0
 22 40  1  0  0  0  0
 23 41  1  0  0  0  0
 24 58  1  0  0  0  0
 25 78  1  0  0  0  0
 26 79  1  0  0  0  0
 27 29  2  0  0  0  0
 27 78  1  0  0  0  0
 28 80  1  0  0  0  0
 29 81  1  0  0  0  0
 30 63  2  0  0  0  0
 31 42  1  0  0  0  0
 31 62  1  0  0  0  0
 32 64  1  0  0  0  0
 32 67  1  0  0  0  0
 33 68  1  0  0  0  0
 33 73  2  0  0  0  0
 34 50  1  0  0  0  0
 34 69  1  0  0  0  0
 34 74  2  0  0  0  0
 35 59  1  0  0  0  0
 35 65  1  0  0  0  0
 35 75  2  0  0  0  0
 36 60  1  0  0  0  0
 36 70  1  0  0  0  0
 36 76  2  0  0  0  0
 37 66  1  0  0  0  0
 37 71  1  0  0  0  0
 37 77  2  0  0  0  0
 38 43  1  0  0  0  0
 39 50  1  0  0  0  0
 40 52  1  0  0  0  0
 41 65  1  0  0  0  0
 42 52  1  0  0  0  0
 43 45  1  0  0  0  0
 44 46  1  0  0  0  0
 44 47  1  0  0  0  0
 45 49  1  0  0  0  0
 46 51  1  0  0  0  0
 47 66  1  0  0  0  0
 48 51  1  0  0  0  0
 48 66  1  0  0  0  0
 49 69  1  0  0  0  0
 50 65  1  0  0  0  0
 51 64  1  0  0  0  0
 52 71  1  0  0  0  0
 53 60  1  0  0  0  0
 54 61  1  0  0  0  0
 55 61  1  0  0  0  0
 56 61  1  0  0  0  0
 57 72  1  0  0  0  0
 58 79  1  0  0  0  0
 59 61  1  0  0  0  0
 59 70  1  0  0  0  0
 60 72  1  0  0  0  0
 63 64  1  0  0  0  0
M  CHG  1  72   1
M  ISO  4  37 100  58 101  71 100  79 101
M  END
> <Batch ID>
0178

> <Smiles>
CNC(C)C(=O)NC(C(=O)N1Cc2cc([101O:1][101CH2:1]c3cnc4c(c3)CC([100NH:0][100C:0](=O)N3CCCC(n5nc(-c6ccc(Oc7ccc(F)cc7F)cc6)c(C(N)=O)c5N)C3)C4)ccc2CC1C(=O)NC1CCCc2ccccc21)C(C)(C)C

> <Shape>
0.282

> <Color>
0.191

> <Negative vol penalty>
0.000

$$$$

  -OEChem-04052322553D

 83 92  0     1  0  0  0  0  0999 V2000
  -23.7413   -8.0125   21.6280 C   0  0  0  0  0  0  0  0  0  0  0  0
  -24.2000   -8.9769   20.7364 C   0  0  0  0  0  0  0  0  0  0  0  0
  -24.0504  -27.8513   21.4547 C   0  0  0  0  0  0  0  0  0  0  0  0
  -24.8538  -28.1991   23.7065 C   0  0  0  0  0  0  0  0  0  0  0  0
  -22.6003   -8.2568   22.3911 C   0  0  0  0  0  0  0  0  0  0  0  0
  -23.5173  -10.1858   20.6067 C   0  0  0  0  0  0  0  0  0  0  0  0
  -26.6332  -14.1769   20.5202 C   0  0  0  0  0  0  0  0  0  0  0  0
  -22.7728  -28.2481   21.8492 C   0  0  0  0  0  0  0  0  0  0  0  0
  -23.5762  -28.5960   24.1011 C   0  0  0  0  0  0  0  0  0  0  0  0
  -27.3036  -14.4355   19.3254 C   0  0  0  0  0  0  0  0  0  0  0  0
  -19.2172  -28.8257   22.3472 C   0  0  0  0  0  0  0  0  0  0  0  0
  -18.1357  -28.0586   21.9144 C   0  0  0  0  0  0  0  0  0  0  0  0
  -25.6910  -16.1506   18.7988 C   0  0  0  0  0  0  0  0  0  0  0  0
  -19.0522  -26.1295   23.0439 C   0  0  0  0  0  0  0  0  0  0  0  0
  -25.0910  -27.8267   22.3834 C   0  0  0  0  0  0  0  0  0  0  0  0
  -27.4418  -28.2376   21.4821 C   0  0  0  0  0  0  0  0  0  0  0  0
  -21.9088   -9.4732   22.2776 C   0  0  0  0  0  0  0  0  0  0  0  0
  -25.4785  -14.8969   20.8587 C   0  0  0  0  0  0  0  0  0  0  0  0
  -22.3652  -10.4461   21.3680 C   0  0  0  0  0  0  0  0  0  0  0  0
  -25.0092  -15.9009   19.9997 C   0  0  0  0  0  0  0  0  0  0  0  0
  -22.5356  -28.6205   23.1724 C   0  0  0  0  0  0  0  0  0  0  0  0
  -26.8309  -15.4205   18.4632 C   0  0  0  0  0  0  0  0  0  0  0  0
  -20.2163  -28.2448   23.1282 C   0  0  0  0  0  0  0  0  0  0  0  0
  -18.0531  -26.7104   22.2628 C   0  0  0  0  0  0  0  0  0  0  0  0
  -20.1338  -26.8967   23.4766 C   0  0  0  0  0  0  0  0  0  0  0  0
  -26.4109  -27.4164   21.9766 C   0  0  0  0  0  0  0  0  0  0  0  0
  -28.4839  -27.3750   21.2444 C   0  0  0  0  0  0  0  0  0  0  0  0
  -28.1655  -18.2875   15.7250 C   0  0  0  0  0  0  0  0  0  0  0  0
  -27.4562  -29.6537   21.2577 C   0  0  0  0  0  0  0  0  0  0  0  0
  -22.4354  -14.1404   21.3796 C   0  0  0  0  0  0  0  0  0  0  0  0
  -22.2071  -17.2661   22.2161 C   0  0  0  0  0  0  0  0  0  0  0  0
  -23.4476  -20.4343   21.9509 C   0  0  0  0  0  0  0  0  0  0  0  0
  -29.6178  -22.2531   19.3650 C   0  0  0  0  0  0  0  0  0  0  0  0
  -20.6531   -9.6728   23.0890 C   0  0  0  0  0  0  0  0  0  0  0  0
  -24.7821  -14.6242   22.1637 C   0  0  0  0  0  0  0  0  0  0  0  0
  -23.7856  -16.7160   20.3263 C   0  0  0  0  0  0  0  0  0  0  0  0
  -27.7985  -17.1762   14.7724 C   0  0  0  0  0  0  0  0  0  0  0  0
  -20.2024  -11.1293   23.1653 C   0  0  0  0  0  0  0  0  0  0  0  0
  -28.9879  -16.2244   14.8610 C   0  0  0  0  0  0  0  0  0  0  0  0
  -29.7149  -22.8607   22.8227 C   0  0  0  0  0  0  0  0  0  0  0  0
  -20.2410  -11.7731   21.7830 C   0  0  0  0  0  0  0  0  0  0  0  0
  -28.9678  -24.1906   22.9185 C   0  0  0  0  0  0  0  0  0  0  0  0
  -28.7422  -18.9124   18.6958 C   0  0  0  0  0  0  0  0  0  0  0  0
  -30.4958  -19.7827   17.1024 C   0  0  0  0  0  0  0  0  0  0  0  0
  -29.0662  -21.9104   21.8147 C   0  0  0  0  0  0  0  0  0  0  0  0
  -29.3518  -19.7713   19.8073 C   0  0  0  0  0  0  0  0  0  0  0  0
  -31.0842  -20.5991   18.2494 C   0  0  0  0  0  0  0  0  0  0  0  0
  -28.1317  -23.8299   20.5651 C   0  0  0  0  0  0  0  0  0  0  0  0
  -21.6662  -11.7797   21.2170 C   0  0  1  0  0  0  0  0  0  0  0  0
  -23.3216  -15.0651   22.1652 C   0  0  1  0  0  0  0  0  0  0  0  0
  -28.7935  -24.8275   21.5282 C   0  0  1  0  0  0  0  0  0  0  0  0
  -29.7811  -18.5376   17.6356 C   0  0  0  0  0  0  0  0  0  0  0  0
  -29.5228  -16.4192   16.2764 C   0  0  2  0  0  0  0  0  0  0  0  0
  -23.6873  -22.8879   22.4198 C   0  0  0  0  0  0  0  0  0  0  0  0
  -19.9070  -17.5016   20.2250 C   0  0  0  0  0  0  0  0  0  0  0  0
  -20.1631  -19.9899   20.3297 C   0  0  0  0  0  0  0  0  0  0  0  0
  -19.5471  -18.7137   22.3827 C   0  0  0  0  0  0  0  0  0  0  0  0
  -25.3365  -19.9429   24.1757 C   0  0  0  0  0  0  0  0  0  0  0  0
  -28.8864  -15.4501   17.2675 C   0  0  0  0  0  0  0  0  0  1  0  0
  -21.9038  -18.5499   21.4819 C   0  0  1  0  0  0  0  0  0  0  0  0
  -23.7609  -21.4846   23.0013 C   0  0  2  0  0  0  0  0  0  0  0  0
  -20.4022  -18.6722   21.0975 C   0  0  0  0  0  0  0  0  0  0  0  0
  -26.7658  -26.1307   22.0491 N   0  0  0  0  0  0  0  0  0  0  0  0
  -28.0313  -26.1377   21.5970 N   0  0  0  0  0  0  0  0  0  0  0  0
  -29.1671  -17.7979   16.5606 N   0  0  0  0  0  0  0  0  0  0  0  0
  -23.1359  -16.4077   21.6110 N   0  0  0  0  0  0  0  0  0  0  0  0
  -28.8836  -22.5743   20.5165 N   0  0  0  0  0  0  0  0  0  0  0  0
  -30.0608  -20.9277   19.2417 N   0  0  0  0  0  0  0  0  0  0  0  0
  -29.7340  -27.5618   20.7703 N   0  0  0  0  0  0  0  0  0  0  0  0
  -26.3009  -30.3891   21.5555 N   0  0  0  0  0  0  0  0  0  0  0  0
  -22.4477  -12.8334   21.8280 N   0  0  0  0  0  0  0  0  0  0  0  0
  -22.3933  -19.6309   22.3306 N   0  0  0  0  0  0  0  0  0  0  0  0
  -25.1300  -21.2750   23.5512 N   0  3  0  0  0  0  0  0  0  0  0  0
  -27.6312  -19.3863   15.7480 O   0  0  0  0  0  0  0  0  0  0  0  0
  -28.4583  -30.2467   20.7911 O   0  0  0  0  0  0  0  0  0  0  0  0
  -21.7873  -14.5804   20.4373 O   0  0  0  0  0  0  0  0  0  0  0  0
  -21.6460  -17.0369   23.2904 O   0  0  0  0  0  0  0  0  0  0  0  0
  -24.0730  -20.3388   20.8972 O   0  0  0  0  0  0  0  0  0  0  0  0
  -29.8629  -23.1007   18.4973 O   0  0  0  0  0  0  0  0  0  0  0  0
  -21.2890  -29.0080   23.5577 O   0  0  0  0  0  0  0  0  0  0  0  0
  -27.4888  -15.6768   17.2856 O   0  0  0  0  0  0  0  0  0  1  0  0
  -17.0136  -25.9742   21.8485 F   0  0  0  0  0  0  0  0  0  0  0  0
  -21.0899  -26.3333   24.2277 F   0  0  0  0  0  0  0  0  0  0  0  0
  1  2  1  0  0  0  0
  1  5  2  0  0  0  0
  2  6  2  0  0  0  0
  3  8  2  0  0  0  0
  3 15  1  0  0  0  0
  4  9  1  0  0  0  0
  4 15  2  0  0  0  0
  5 17  1  0  0  0  0
  6 19  1  0  0  0  0
  7 10  2  0  0  0  0
  7 18  1  0  0  0  0
  8 21  1  0  0  0  0
  9 21  2  0  0  0  0
 10 22  1  0  0  0  0
 11 12  2  0  0  0  0
 11 23  1  0  0  0  0
 12 24  1  0  0  0  0
 13 20  1  0  0  0  0
 13 22  2  0  0  0  0
 14 24  2  0  0  0  0
 14 25  1  0  0  0  0
 15 26  1  0  0  0  0
 16 26  1  0  0  0  0
 16 27  2  0  0  0  0
 16 29  1  0  0  0  0
 17 19  2  0  0  0  0
 17 34  1  0  0  0  0
 18 20  2  0  0  0  0
 18 35  1  0  0  0  0
 19 49  1  0  0  0  0
 20 36  1  0  0  0  0
 21 80  1  0  0  0  0
 22 81  1  0  0  0  0
 23 25  2  0  0  0  0
 23 80  1  0  0  0  0
 24 82  1  0  0  0  0
 25 83  1  0  0  0  0
 26 63  2  0  0  0  0
 27 64  1  0  0  0  0
 27 69  1  0  0  0  0
 28 37  1  0  0  0  0
 28 65  1  0  0  0  0
 28 74  2  0  0  0  0
 29 70  1  0  0  0  0
 29 75  2  0  0  0  0
 30 50  1  0  0  0  0
 30 71  1  0  0  0  0
 30 76  2  0  0  0  0
 31 60  1  0  0  0  0
 31 66  1  0  0  0  0
 31 77  2  0  0  0  0
 32 61  1  0  0  0  0
 32 72  1  0  0  0  0
 32 78  2  0  0  0  0
 33 67  1  0  0  0  0
 33 68  1  0  0  0  0
 33 79  2  0  0  0  0
 34 38  1  0  0  0  0
 35 50  1  0  0  0  0
 36 66  1  0  0  0  0
 37 39  1  0  0  0  0
 38 41  1  0  0  0  0
 39 53  1  0  0  0  0
 40 42  1  0  0  0  0
 40 45  1  0  0  0  0
 41 49  1  0  0  0  0
 42 51  1  0  0  0  0
 43 46  1  0  0  0  0
 43 52  1  0  0  0  0
 44 47  1  0  0  0  0
 44 52  1  0  0  0  0
 45 67  1  0  0  0  0
 46 68  1  0  0  0  0
 47 68  1  0  0  0  0
 48 51  1  0  0  0  0
 48 67  1  0  0  0  0
 49 71  1  0  0  0  0
 50 66  1  0  0  0  0
 51 64  1  0  0  0  0
 52 65  1  0  0  0  0
 53 59  1  0  0  0  0
 53 65  1  0  0  0  0
 54 61  1  0  0  0  0
 55 62  1  0  0  0  0
 56 62  1  0  0  0  0
 57 62  1  0  0  0  0
 58 73  1  0  0  0  0
 59 81  1  0  0  0  0
 60 62  1  0  0  0  0
 60 72  1  0  0  0  0
 61 73  1  0  0  0  0
 63 64  1  0  0  0  0
M  CHG  1  73   1
M  ISO  4  33 100  59 101  68 100  81 101
M  END
> <Batch ID>
0178

> <Smiles>
CNC(C)C(=O)NC(C(=O)N1Cc2cc([101O:1][101CH2:1]C3CCC(=O)N3C3CC[100N:0]([100C:0](=O)N4CCCC(n5nc(-c6ccc(Oc7ccc(F)cc7F)cc6)c(C(N)=O)c5N)C4)CC3)ccc2CC1C(=O)NC1CCCc2ccccc21)C(C)(C)C

> <Shape>
0.216

> <Color>
0.074

> <Negative vol penalty>
0.000

$$$$

  -OEChem-04052322553D

 83 92  0     1  0  0  0  0  0999 V2000
  -27.0291  -19.4499   25.5695 C   0  0  0  0  0  0  0  0  0  0  0  0
  -27.3265  -20.3073   24.5151 C   0  0  0  0  0  0  0  0  0  0  0  0
  -27.6603  -15.0419   19.4148 C   0  0  0  0  0  0  0  0  0  0  0  0
  -25.7185  -15.5309   20.7666 C   0  0  0  0  0  0  0  0  0  0  0  0
  -25.7157  -19.3338   26.0229 C   0  0  0  0  0  0  0  0  0  0  0  0
  -26.3105  -21.0485   23.9128 C   0  0  0  0  0  0  0  0  0  0  0  0
  -27.6288  -25.8750   23.1304 C   0  0  0  0  0  0  0  0  0  0  0  0
  -27.4334  -13.6760   19.5828 C   0  0  0  0  0  0  0  0  0  0  0  0
  -25.4915  -14.1649   20.9346 C   0  0  0  0  0  0  0  0  0  0  0  0
  -28.4579  -26.1400   22.0413 C   0  0  0  0  0  0  0  0  0  0  0  0
  -24.1617  -11.6241   19.1468 C   0  0  0  0  0  0  0  0  0  0  0  0
  -22.8540  -11.1626   18.9961 C   0  0  0  0  0  0  0  0  0  0  0  0
  -26.5391  -26.8429   20.7593 C   0  0  0  0  0  0  0  0  0  0  0  0
  -29.4821  -25.5980   17.0323 C   0  0  0  0  0  0  0  0  0  0  0  0
  -22.8813  -10.3434   21.2688 C   0  0  0  0  0  0  0  0  0  0  0  0
  -31.5741  -23.9535   16.4553 C   0  0  0  0  0  0  0  0  0  0  0  0
  -26.8029  -15.9694   20.0067 C   0  0  0  0  0  0  0  0  0  0  0  0
  -28.1823  -18.1052   20.2152 C   0  0  0  0  0  0  0  0  0  0  0  0
  -24.6846  -20.0812   25.4322 C   0  0  0  0  0  0  0  0  0  0  0  0
  -26.2449  -26.0819   23.0384 C   0  0  0  0  0  0  0  0  0  0  0  0
  -24.9819  -20.9413   24.3579 C   0  0  0  0  0  0  0  0  0  0  0  0
  -25.6949  -26.5821   21.8495 C   0  0  0  0  0  0  0  0  0  0  0  0
  -30.7116  -25.8307   17.6604 C   0  0  0  0  0  0  0  0  0  0  0  0
  -31.7905  -24.9821   17.3703 C   0  0  0  0  0  0  0  0  0  0  0  0
  -26.3490  -13.2374   20.3427 C   0  0  0  0  0  0  0  0  0  0  0  0
  -27.9127  -26.6213   20.8546 C   0  0  0  0  0  0  0  0  0  0  0  0
  -24.8292  -11.4452   20.3584 C   0  0  0  0  0  0  0  0  0  0  0  0
  -22.2138  -10.5223   20.0571 C   0  0  0  0  0  0  0  0  0  0  0  0
  -24.1890  -10.8049   21.4195 C   0  0  0  0  0  0  0  0  0  0  0  0
  -27.0371  -17.3806   19.8340 C   0  0  0  0  0  0  0  0  0  0  0  0
  -29.3785  -24.5383   16.1458 C   0  0  0  0  0  0  0  0  0  0  0  0
  -27.9133  -19.3973   19.8352 C   0  0  0  0  0  0  0  0  0  0  0  0
  -29.3820  -17.6508   20.8555 C   0  0  0  0  0  0  0  0  0  0  0  0
  -23.6789  -24.2186   23.2557 C   0  0  0  0  0  0  0  0  0  0  0  0
  -22.0930  -27.0409   23.0513 C   0  0  0  0  0  0  0  0  0  0  0  0
  -22.0992  -30.3012   22.0426 C   0  0  0  0  0  0  0  0  0  0  0  0
  -25.9962  -23.0722   16.0982 C   0  0  0  0  0  0  0  0  0  0  0  0
  -23.2727  -19.8868   25.9255 C   0  0  0  0  0  0  0  0  0  0  0  0
  -25.3675  -25.8165   24.2310 C   0  0  0  0  0  0  0  0  0  0  0  0
  -33.1616  -25.1908   17.9502 C   0  0  0  0  0  0  0  0  0  0  0  0
  -24.2181  -26.8405   21.7061 C   0  0  0  0  0  0  0  0  0  0  0  0
  -22.3145  -20.9882   25.4794 C   0  0  0  0  0  0  0  0  0  0  0  0
  -33.1711  -26.1120   19.1673 C   0  0  0  0  0  0  0  0  0  0  0  0
  -23.6119  -21.5350   18.2496 C   0  0  0  0  0  0  0  0  0  0  0  0
  -32.3123  -27.3460   18.9115 C   0  0  0  0  0  0  0  0  0  0  0  0
  -22.4924  -21.2807   23.9930 C   0  0  0  0  0  0  0  0  0  0  0  0
  -24.3829  -20.3738   18.8798 C   0  0  0  0  0  0  0  0  0  0  0  0
  -24.0159  -21.7566   16.7937 C   0  0  0  0  0  0  0  0  0  0  0  0
  -26.2350  -20.7655   17.2020 C   0  0  0  0  0  0  0  0  0  0  0  0
  -30.8428  -26.9724   18.6503 C   0  0  2  0  0  0  0  0  0  0  0  0
  -23.9112  -21.7806   23.6950 C   0  0  1  0  0  0  0  0  0  0  0  0
  -23.9080  -25.5762   23.8574 C   0  0  1  0  0  0  0  0  0  0  0  0
  -25.9023  -20.5393   18.6867 C   0  0  2  0  0  0  0  0  0  0  0  0
  -20.6460  -32.3460   21.9781 C   0  0  0  0  0  0  0  0  0  0  0  0
  -20.5132  -25.8421   20.7325 C   0  0  0  0  0  0  0  0  0  0  0  0
  -19.7942  -28.1595   20.1155 C   0  0  0  0  0  0  0  0  0  0  0  0
  -19.1521  -27.2039   22.3284 C   0  0  0  0  0  0  0  0  0  0  0  0
  -23.9932  -31.8419   23.7153 C   0  0  0  0  0  0  0  0  0  0  0  0
  -28.0740  -24.2753   15.4699 C   0  0  0  0  0  0  0  0  0  0  0  0
  -30.1155  -26.6361   19.9582 C   0  0  0  0  0  0  0  0  0  1  0  0
  -21.5528  -27.8843   21.9217 C   0  0  1  0  0  0  0  0  0  0  0  0
  -21.7005  -31.5783   22.7599 C   0  0  2  0  0  0  0  0  0  0  0  0
  -20.2807  -27.2658   21.2762 C   0  0  0  0  0  0  0  0  0  0  0  0
  -30.3959  -23.7072   15.8408 N   0  0  0  0  0  0  0  0  0  0  0  0
  -26.1096  -18.1487   19.2563 N   0  0  0  0  0  0  0  0  0  0  0  0
  -26.6716  -19.3693   19.2717 N   0  0  0  0  0  0  0  0  0  0  0  0
  -23.4009  -26.5595   22.8981 N   0  0  0  0  0  0  0  0  0  0  0  0
  -25.4685  -21.9076   16.6798 N   0  0  0  0  0  0  0  0  0  0  0  0
  -28.6202  -20.5434   19.9315 N   0  0  0  0  0  0  0  0  0  0  0  0
  -29.4357  -17.6579   22.2560 N   0  0  0  0  0  0  0  0  0  0  0  0
  -24.0481  -23.1699   24.0763 N   0  0  0  0  0  0  0  0  0  0  0  0
  -21.3549  -29.2219   22.4696 N   0  0  0  0  0  0  0  0  0  0  0  0
  -27.3827  -23.1379   16.0349 N   0  0  0  0  0  0  0  0  0  0  0  0
  -22.8866  -32.4620   22.9420 N   0  3  0  0  0  0  0  0  0  0  0  0
  -30.3829  -17.2658   20.2046 O   0  0  0  0  0  0  0  0  0  0  0  0
  -23.2010  -24.1291   22.1309 O   0  0  0  0  0  0  0  0  0  0  0  0
  -21.3833  -26.8234   24.0365 O   0  0  0  0  0  0  0  0  0  0  0  0
  -22.9801  -30.2654   21.1863 O   0  0  0  0  0  0  0  0  0  0  0  0
  -25.2846  -23.9882   15.6721 O   0  0  0  0  0  0  0  0  0  0  0  0
  -26.1271  -11.9046   20.5067 O   0  0  0  0  0  0  0  0  0  0  0  0
  -28.7196  -26.8802   19.7899 O   0  0  0  0  0  0  0  0  0  1  0  0
  -20.9576  -10.0806   19.9128 F   0  0  0  0  0  0  0  0  0  0  0  0
  -24.8247  -10.6311   22.5863 F   0  0  0  0  0  0  0  0  0  0  0  0
  1  2  1  0  0  0  0
  1  5  2  0  0  0  0
  2  6  2  0  0  0  0
  3  8  2  0  0  0  0
  3 17  1  0  0  0  0
  4  9  1  0  0  0  0
  4 17  2  0  0  0  0
  5 19  1  0  0  0  0
  6 21  1  0  0  0  0
  7 10  2  0  0  0  0
  7 20  1  0  0  0  0
  8 25  1  0  0  0  0
  9 25  2  0  0  0  0
 10 26  1  0  0  0  0
 11 12  2  0  0  0  0
 11 27  1  0  0  0  0
 12 28  1  0  0  0  0
 13 22  1  0  0  0  0
 13 26  2  0  0  0  0
 14 23  1  0  0  0  0
 14 31  2  0  0  0  0
 15 28  2  0  0  0  0
 15 29  1  0  0  0  0
 16 24  1  0  0  0  0
 16 64  2  0  0  0  0
 17 30  1  0  0  0  0
 18 30  1  0  0  0  0
 18 32  2  0  0  0  0
 18 33  1  0  0  0  0
 19 21  2  0  0  0  0
 19 38  1  0  0  0  0
 20 22  2  0  0  0  0
 20 39  1  0  0  0  0
 21 51  1  0  0  0  0
 22 41  1  0  0  0  0
 23 24  2  0  0  0  0
 23 50  1  0  0  0  0
 24 40  1  0  0  0  0
 25 80  1  0  0  0  0
 26 81  1  0  0  0  0
 27 29  2  0  0  0  0
 27 80  1  0  0  0  0
 28 82  1  0  0  0  0
 29 83  1  0  0  0  0
 30 65  2  0  0  0  0
 31 59  1  0  0  0  0
 31 64  1  0  0  0  0
 32 66  1  0  0  0  0
 32 69  1  0  0  0  0
 33 70  1  0  0  0  0
 33 75  2  0  0  0  0
 34 52  1  0  0  0  0
 34 71  1  0  0  0  0
 34 76  2  0  0  0  0
 35 61  1  0  0  0  0
 35 67  1  0  0  0  0
 35 77  2  0  0  0  0
 36 62  1  0  0  0  0
 36 72  1  0  0  0  0
 36 78  2  0  0  0  0
 37 68  1  0  0  0  0
 37 73  1  0  0  0  0
 37 79  2  0  0  0  0
 38 42  1  0  0  0  0
 39 52  1  0  0  0  0
 40 43  1  0  0  0  0
 41 67  1  0  0  0  0
 42 46  1  0  0  0  0
 43 45  1  0  0  0  0
 44 47  1  0  0  0  0
 44 48  1  0  0  0  0
 45 50  1  0  0  0  0
 46 51  1  0  0  0  0
 47 53  1  0  0  0  0
 48 68  1  0  0  0  0
 49 53  1  0  0  0  0
 49 68  1  0  0  0  0
 50 60  1  0  0  0  0
 51 71  1  0  0  0  0
 52 67  1  0  0  0  0
 53 66  1  0  0  0  0
 54 62  1  0  0  0  0
 55 63  1  0  0  0  0
 56 63  1  0  0  0  0
 57 63  1  0  0  0  0
 58 74  1  0  0  0  0
 59 73  1  0  0  0  0
 60 81  1  0  0  0  0
 61 63  1  0  0  0  0
 61 72  1  0  0  0  0
 62 74  1  0  0  0  0
 65 66  1  0  0  0  0
M  CHG  1  74   1
M  ISO  4  37 100  60 101  73 100  81 101
M  END
> <Batch ID>
0178

> <Smiles>
CNC(C)C(=O)NC(C(=O)N1Cc2cc([101O:1][101CH2:1]C3CCCc4cnc(C[100NH:0][100C:0](=O)N5CCCC(n6nc(-c7ccc(Oc8ccc(F)cc8F)cc7)c(C(N)=O)c6N)C5)cc43)ccc2CC1C(=O)NC1CCCc2ccccc21)C(C)(C)C

> <Shape>
0.210

> <Color>
0.079

> <Negative vol penalty>
0.000

$$$$

  -OEChem-04052322553D

 79 87  0     1  0  0  0  0  0999 V2000
  -34.1329  -24.1630   32.9130 C   0  0  0  0  0  0  0  0  0  0  0  0
  -33.7013  -23.5162   31.7593 C   0  0  0  0  0  0  0  0  0  0  0  0
  -22.9994   -9.8918   19.9819 C   0  0  0  0  0  0  0  0  0  0  0  0
  -23.7244   -9.9456   22.2859 C   0  0  0  0  0  0  0  0  0  0  0  0
  -34.1120  -25.5555   32.9793 C   0  0  0  0  0  0  0  0  0  0  0  0
  -33.2476  -24.2616   30.6717 C   0  0  0  0  0  0  0  0  0  0  0  0
  -35.1087  -22.5992   26.2652 C   0  0  0  0  0  0  0  0  0  0  0  0
  -30.2468  -18.9345   23.0719 C   0  0  0  0  0  0  0  0  0  0  0  0
  -22.2333   -8.7573   20.2494 C   0  0  0  0  0  0  0  0  0  0  0  0
  -22.9583   -8.8111   22.5535 C   0  0  0  0  0  0  0  0  0  0  0  0
  -34.5248  -21.4579   25.7174 C   0  0  0  0  0  0  0  0  0  0  0  0
  -21.4779   -5.7188   23.7601 C   0  0  0  0  0  0  0  0  0  0  0  0
  -22.0643   -4.7040   24.5165 C   0  0  0  0  0  0  0  0  0  0  0  0
  -29.7590  -17.6973   22.6660 C   0  0  0  0  0  0  0  0  0  0  0  0
  -33.2314  -22.8433   24.2250 C   0  0  0  0  0  0  0  0  0  0  0  0
  -23.7908   -4.4557   22.8448 C   0  0  0  0  0  0  0  0  0  0  0  0
  -23.7450  -10.4860   21.0001 C   0  0  0  0  0  0  0  0  0  0  0  0
  -24.1293  -13.0015   20.8214 C   0  0  0  0  0  0  0  0  0  0  0  0
  -33.6668  -26.3186   31.8884 C   0  0  0  0  0  0  0  0  0  0  0  0
  -34.7498  -23.8738   25.8038 C   0  0  0  0  0  0  0  0  0  0  0  0
  -33.2194  -25.6656   30.7240 C   0  0  0  0  0  0  0  0  0  0  0  0
  -33.8142  -23.9991   24.7669 C   0  0  0  0  0  0  0  0  0  0  0  0
  -31.5222  -19.3330   22.6873 C   0  0  0  0  0  0  0  0  0  0  0  0
  -22.2127   -8.2170   21.5352 C   0  0  0  0  0  0  0  0  0  0  0  0
  -33.5838  -21.5799   24.6992 C   0  0  0  0  0  0  0  0  0  0  0  0
  -22.0479   -6.1019   22.5460 C   0  0  0  0  0  0  0  0  0  0  0  0
  -23.2208   -4.0725   24.0588 C   0  0  0  0  0  0  0  0  0  0  0  0
  -23.2044   -5.4704   22.0884 C   0  0  0  0  0  0  0  0  0  0  0  0
  -24.5370  -11.6576   20.7243 C   0  0  0  0  0  0  0  0  0  0  0  0
  -32.2639  -18.4645   21.9028 C   0  0  0  0  0  0  0  0  0  0  0  0
  -30.5796  -16.9022   21.8823 C   0  0  0  0  0  0  0  0  0  0  0  0
  -25.2388  -13.7241   20.4563 C   0  0  0  0  0  0  0  0  0  0  0  0
  -22.8611  -13.5478   21.2073 C   0  0  0  0  0  0  0  0  0  0  0  0
  -33.4035  -26.4373   27.1152 C   0  0  0  0  0  0  0  0  0  0  0  0
  -34.0708  -27.7783   24.2380 C   0  0  0  0  0  0  0  0  0  0  0  0
  -34.6804  -27.3402   20.9088 C   0  0  0  0  0  0  0  0  0  0  0  0
  -30.7179  -14.6876   20.6895 C   0  0  0  0  0  0  0  0  0  0  0  0
  -33.6180  -27.8199   32.0244 C   0  0  0  0  0  0  0  0  0  0  0  0
  -35.4086  -25.0939   26.3867 C   0  0  0  0  0  0  0  0  0  0  0  0
  -33.4095  -25.3437   24.2221 C   0  0  0  0  0  0  0  0  0  0  0  0
  -33.4750  -28.5480   30.6904 C   0  0  0  0  0  0  0  0  0  0  0  0
  -29.6007  -12.2317   18.3662 C   0  0  0  0  0  0  0  0  0  0  0  0
  -32.3892  -27.8961   29.8401 C   0  0  0  0  0  0  0  0  0  0  0  0
  -28.1502  -11.9740   18.7806 C   0  0  0  0  0  0  0  0  0  0  0  0
  -30.5011  -12.4768   19.5758 C   0  0  0  0  0  0  0  0  0  0  0  0
  -28.5853  -13.2664   20.9083 C   0  0  0  0  0  0  0  0  0  0  0  0
  -32.7435  -26.4402   29.5142 C   0  0  1  0  0  0  0  0  0  0  0  0
  -34.5883  -26.3656   26.1940 C   0  0  1  0  0  0  0  0  0  0  0  0
  -27.6278  -13.0784   19.7203 C   0  0  2  0  0  0  0  0  0  0  0  0
  -33.6407  -18.8402   21.4614 C   0  0  0  0  0  0  0  0  0  0  0  0
  -35.1529  -28.6266   18.8067 C   0  0  0  0  0  0  0  0  0  0  0  0
  -31.1309  -28.5771   24.0689 C   0  0  0  0  0  0  0  0  0  0  0  0
  -31.4539  -28.9828   21.6196 C   0  0  0  0  0  0  0  0  0  0  0  0
  -32.7345  -30.3285   23.2845 C   0  0  0  0  0  0  0  0  0  0  0  0
  -37.3090  -26.0263   20.5575 C   0  0  0  0  0  0  0  0  0  0  0  0
  -32.0553  -20.6661   23.1229 C   0  0  0  0  0  0  0  0  0  1  0  0
  -33.3428  -27.9016   22.9213 C   0  0  1  0  0  0  0  0  0  0  0  0
  -35.7579  -27.9029   19.9995 C   0  0  2  0  0  0  0  0  0  0  0  0
  -32.1715  -28.9221   22.9850 C   0  0  0  0  0  0  0  0  0  0  0  0
  -25.8064  -11.5311   20.3283 N   0  0  0  0  0  0  0  0  0  0  0  0
  -31.8240  -17.2551   21.4889 N   0  0  0  0  0  0  0  0  0  0  0  0
  -26.2059  -12.8049   20.1733 N   0  0  0  0  0  0  0  0  0  0  0  0
  -34.0771  -26.5070   24.8291 N   0  0  0  0  0  0  0  0  0  0  0  0
  -29.9456  -13.5385   20.4179 N   0  0  0  0  0  0  0  0  0  0  0  0
  -25.4718  -15.0498   20.3528 N   0  0  0  0  0  0  0  0  0  0  0  0
  -21.8297  -12.6637   21.5517 N   0  0  0  0  0  0  0  0  0  0  0  0
  -30.0732  -15.6434   21.4740 N   0  0  0  0  0  0  0  0  0  0  0  0
  -33.7301  -26.3846   28.4569 N   0  0  0  0  0  0  0  0  0  0  0  0
  -34.3574  -28.2180   21.9219 N   0  0  0  0  0  0  0  0  0  0  0  0
  -36.6308  -26.8072   19.4911 N   0  3  0  0  0  0  0  0  0  0  0  0
  -22.6439  -14.7831   21.2297 O   0  0  0  0  0  0  0  0  0  0  0  0
  -32.2766  -26.5348   26.6438 O   0  0  0  0  0  0  0  0  0  0  0  0
  -34.6200  -28.7719   24.7206 O   0  0  0  0  0  0  0  0  0  0  0  0
  -34.1733  -26.2342   20.7355 O   0  0  0  0  0  0  0  0  0  0  0  0
  -31.8566  -14.8265   20.2354 O   0  0  0  0  0  0  0  0  0  0  0  0
  -21.4650   -7.1101   21.7967 O   0  0  0  0  0  0  0  0  0  0  0  0
  -33.0118  -20.4676   24.1631 O   0  0  0  0  0  0  0  0  0  1  0  0
  -23.7846   -3.0992   24.7860 F   0  0  0  0  0  0  0  0  0  0  0  0
  -23.7573   -5.8351   20.9234 F   0  0  0  0  0  0  0  0  0  0  0  0
  1  2  1  0  0  0  0
  1  5  2  0  0  0  0
  2  6  2  0  0  0  0
  3  9  2  0  0  0  0
  3 17  1  0  0  0  0
  4 10  1  0  0  0  0
  4 17  2  0  0  0  0
  5 19  1  0  0  0  0
  6 21  1  0  0  0  0
  7 11  2  0  0  0  0
  7 20  1  0  0  0  0
  8 14  2  0  0  0  0
  8 23  1  0  0  0  0
  9 24  1  0  0  0  0
 10 24  2  0  0  0  0
 11 25  1  0  0  0  0
 12 13  2  0  0  0  0
 12 26  1  0  0  0  0
 13 27  1  0  0  0  0
 14 31  1  0  0  0  0
 15 22  1  0  0  0  0
 15 25  2  0  0  0  0
 16 27  2  0  0  0  0
 16 28  1  0  0  0  0
 17 29  1  0  0  0  0
 18 29  1  0  0  0  0
 18 32  2  0  0  0  0
 18 33  1  0  0  0  0
 19 21  2  0  0  0  0
 19 38  1  0  0  0  0
 20 22  2  0  0  0  0
 20 39  1  0  0  0  0
 21 47  1  0  0  0  0
 22 40  1  0  0  0  0
 23 30  2  0  0  0  0
 23 56  1  0  0  0  0
 24 76  1  0  0  0  0
 25 77  1  0  0  0  0
 26 28  2  0  0  0  0
 26 76  1  0  0  0  0
 27 78  1  0  0  0  0
 28 79  1  0  0  0  0
 29 60  2  0  0  0  0
 30 50  1  0  0  0  0
 30 61  1  0  0  0  0
 31 61  2  0  0  0  0
 31 67  1  0  0  0  0
 32 62  1  0  0  0  0
 32 65  1  0  0  0  0
 33 66  1  0  0  0  0
 33 71  2  0  0  0  0
 34 48  1  0  0  0  0
 34 68  1  0  0  0  0
 34 72  2  0  0  0  0
 35 57  1  0  0  0  0
 35 63  1  0  0  0  0
 35 73  2  0  0  0  0
 36 58  1  0  0  0  0
 36 69  1  0  0  0  0
 36 74  2  0  0  0  0
 37 64  1  0  0  0  0
 37 67  1  0  0  0  0
 37 75  2  0  0  0  0
 38 41  1  0  0  0  0
 39 48  1  0  0  0  0
 40 63  1  0  0  0  0
 41 43  1  0  0  0  0
 42 44  1  0  0  0  0
 42 45  1  0  0  0  0
 43 47  1  0  0  0  0
 44 49  1  0  0  0  0
 45 64  1  0  0  0  0
 46 49  1  0  0  0  0
 46 64  1  0  0  0  0
 47 68  1  0  0  0  0
 48 63  1  0  0  0  0
 49 62  1  0  0  0  0
 51 58  1  0  0  0  0
 52 59  1  0  0  0  0
 53 59  1  0  0  0  0
 54 59  1  0  0  0  0
 55 70  1  0  0  0  0
 56 77  1  0  0  0  0
 57 59  1  0  0  0  0
 57 69  1  0  0  0  0
 58 70  1  0  0  0  0
 60 62  1  0  0  0  0
M  CHG  1  70   1
M  ISO  4  37 100  56 101  67 100  77 101
M  END
> <Batch ID>
0178

> <Smiles>
CNC(C)C(=O)NC(C(=O)N1Cc2cc([101O:1][101CH2:1]c3ccc([100NH:0][100C:0](=O)N4CCCC(n5nc(-c6ccc(Oc7ccc(F)cc7F)cc6)c(C(N)=O)c5N)C4)nc3C)ccc2CC1C(=O)NC1CCCc2ccccc21)C(C)(C)C

> <Shape>
0.177

> <Color>
0.202

> <Negative vol penalty>
0.000

$$$$

  -OEChem-04052322553D

 84 93  0     1  0  0  0  0  0999 V2000
  -31.1032  -25.4893   17.6686 C   0  0  0  0  0  0  0  0  0  0  0  0
  -30.4411  -24.6444   18.5536 C   0  0  0  0  0  0  0  0  0  0  0  0
  -24.3616  -13.5815   21.4183 C   0  0  0  0  0  0  0  0  0  0  0  0
  -26.0051  -13.5242   19.6483 C   0  0  0  0  0  0  0  0  0  0  0  0
  -30.9908  -26.8717   17.8103 C   0  0  0  0  0  0  0  0  0  0  0  0
  -29.6670  -25.1815   19.5815 C   0  0  0  0  0  0  0  0  0  0  0  0
  -24.4814  -22.8705   21.8781 C   0  0  0  0  0  0  0  0  0  0  0  0
  -24.5025  -12.2049   21.5937 C   0  0  0  0  0  0  0  0  0  0  0  0
  -26.1460  -12.1476   19.8238 C   0  0  0  0  0  0  0  0  0  0  0  0
  -24.2177  -22.1036   23.0122 C   0  0  0  0  0  0  0  0  0  0  0  0
  -23.4307   -9.3790   20.0805 C   0  0  0  0  0  0  0  0  0  0  0  0
  -22.2675   -8.6213   20.2165 C   0  0  0  0  0  0  0  0  0  0  0  0
  -23.6489  -24.1080   24.2279 C   0  0  0  0  0  0  0  0  0  0  0  0
  -23.0001   -7.8886   22.3991 C   0  0  0  0  0  0  0  0  0  0  0  0
  -25.1129  -14.2411   20.4456 C   0  0  0  0  0  0  0  0  0  0  0  0
  -23.7944  -16.3600   19.9169 C   0  0  0  0  0  0  0  0  0  0  0  0
  -30.2072  -27.4261   18.8347 C   0  0  0  0  0  0  0  0  0  0  0  0
  -24.3411  -24.2653   21.9137 C   0  0  0  0  0  0  0  0  0  0  0  0
  -29.5451  -26.5727   19.7379 C   0  0  0  0  0  0  0  0  0  0  0  0
  -23.9090  -24.8900   23.0922 C   0  0  0  0  0  0  0  0  0  0  0  0
  -25.3947  -11.4879   20.7965 C   0  0  0  0  0  0  0  0  0  0  0  0
  -23.8041  -22.7226   24.1882 C   0  0  0  0  0  0  0  0  0  0  0  0
  -24.3787   -9.3914   21.1038 C   0  0  0  0  0  0  0  0  0  0  0  0
  -22.0522   -7.8762   21.3758 C   0  0  0  0  0  0  0  0  0  0  0  0
  -24.1633   -8.6462   22.2631 C   0  0  0  0  0  0  0  0  0  0  0  0
  -24.9674  -15.6630   20.2635 C   0  0  0  0  0  0  0  0  0  0  0  0
  -27.5554  -19.3900   26.6460 C   0  0  0  0  0  0  0  0  0  0  0  0
  -27.2278  -20.5511   25.9813 C   0  0  0  0  0  0  0  0  0  0  0  0
  -25.6720  -19.5918   27.9272 C   0  0  0  0  0  0  0  0  0  0  0  0
  -25.3446  -20.7534   27.2631 C   0  0  0  0  0  0  0  0  0  0  0  0
  -24.1792  -17.6777   19.8698 C   0  0  0  0  0  0  0  0  0  0  0  0
  -22.4749  -15.8611   19.6606 C   0  0  0  0  0  0  0  0  0  0  0  0
  -26.3105  -26.7286   21.5173 C   0  0  0  0  0  0  0  0  0  0  0  0
  -23.5724  -28.4531   21.7432 C   0  0  0  0  0  0  0  0  0  0  0  0
  -20.3531  -28.6449   22.8595 C   0  0  0  0  0  0  0  0  0  0  0  0
  -28.6129  -20.7269   22.4957 C   0  0  0  0  0  0  0  0  0  0  0  0
  -30.1540  -28.9266   18.9768 C   0  0  0  0  0  0  0  0  0  0  0  0
  -24.6037  -25.0758   20.6741 C   0  0  0  0  0  0  0  0  0  0  0  0
  -23.7234  -26.3823   23.1766 C   0  0  0  0  0  0  0  0  0  0  0  0
  -29.0119  -29.4143   19.8645 C   0  0  0  0  0  0  0  0  0  0  0  0
  -27.9906  -20.4366   19.0021 C   0  0  0  0  0  0  0  0  0  0  0  0
  -28.9486  -28.5962   21.1505 C   0  0  0  0  0  0  0  0  0  0  0  0
  -28.7451  -17.6365   25.1682 C   0  0  0  0  0  0  0  0  0  0  0  0
  -28.8495  -17.1540   26.5812 C   0  0  0  0  0  0  0  0  0  0  0  0
  -27.0394  -19.2432   18.8980 C   0  0  0  0  0  0  0  0  0  0  0  0
  -29.0291  -20.2361   20.1035 C   0  0  0  0  0  0  0  0  0  0  0  0
  -27.5196  -18.7190   21.3256 C   0  0  0  0  0  0  0  0  0  0  0  0
  -28.6760  -27.1173   20.8506 C   0  0  1  0  0  0  0  0  0  0  0  0
  -28.7919  -18.6320   26.2974 C   0  0  0  0  0  0  0  0  0  0  0  0
  -24.9233  -26.5373   20.9724 C   0  0  1  0  0  0  0  0  0  0  0  0
  -26.4194  -18.8992   20.2657 C   0  0  2  0  0  0  0  0  0  0  0  0
  -24.8095  -19.0487   29.0149 C   0  0  0  0  0  0  0  0  0  0  0  0
  -18.0477  -29.5872   23.1678 C   0  0  0  0  0  0  0  0  0  0  0  0
  -24.9235  -30.0753   23.9462 C   0  0  0  0  0  0  0  0  0  0  0  0
  -22.6646  -30.9292   24.6067 C   0  0  0  0  0  0  0  0  0  0  0  0
  -23.5693  -31.4275   22.3361 C   0  0  0  0  0  0  0  0  0  0  0  0
  -19.3611  -27.3303   20.4005 C   0  0  0  0  0  0  0  0  0  0  0  0
  -24.0970  -21.5309   27.6055 C   0  0  0  0  0  0  0  0  0  0  0  0
  -28.0876  -21.0964   24.8929 C   0  0  0  0  0  0  0  0  0  0  0  0
  -23.7724  -22.5950   26.5627 C   0  0  0  0  0  0  0  0  0  1  0  0
  -22.7951  -29.0817   22.8745 C   0  0  1  0  0  0  0  0  0  0  0  0
  -19.0708  -29.0713   22.1678 C   0  0  2  0  0  0  0  0  0  0  0  0
  -23.4934  -30.3504   23.4402 C   0  0  0  0  0  0  0  0  0  0  0  0
  -26.0186  -16.4710   20.4250 N   0  0  0  0  0  0  0  0  0  0  0  0
  -26.7834  -18.8894   27.6309 N   0  0  0  0  0  0  0  0  0  0  0  0
  -26.1165  -21.2537   26.2779 N   0  0  0  0  0  0  0  0  0  0  0  0
  -25.5077  -17.6893   20.1786 N   0  0  0  0  0  0  0  0  0  0  0  0
  -23.9989  -27.1320   21.9398 N   0  0  0  0  0  0  0  0  0  0  0  0
  -28.3759  -19.9144   21.3747 N   0  0  0  0  0  0  0  0  0  0  0  0
  -23.5076  -18.8159   19.5946 N   0  0  0  0  0  0  0  0  0  0  0  0
  -22.1389  -15.5043   18.3475 N   0  0  0  0  0  0  0  0  0  0  0  0
  -27.2760  -26.9131   20.5460 N   0  0  0  0  0  0  0  0  0  0  0  0
  -21.4493  -29.3181   22.3632 N   0  0  0  0  0  0  0  0  0  0  0  0
  -27.9497  -20.3555   23.6588 N   0  0  0  0  0  0  0  0  0  0  0  0
  -18.4715  -27.9215   21.4331 N   0  3  0  0  0  0  0  0  0  0  0  0
  -21.6140  -15.7508   20.5662 O   0  0  0  0  0  0  0  0  0  0  0  0
  -26.4913  -26.7117   22.7292 O   0  0  0  0  0  0  0  0  0  0  0  0
  -23.7869  -29.1076   20.7199 O   0  0  0  0  0  0  0  0  0  0  0  0
  -20.3790  -27.8019   23.7535 O   0  0  0  0  0  0  0  0  0  0  0  0
  -29.3561  -21.7136   22.4610 O   0  0  0  0  0  0  0  0  0  0  0  0
  -25.5326  -10.1447   20.9675 O   0  0  0  0  0  0  0  0  0  0  0  0
  -23.5467  -21.9764   25.2967 O   0  0  0  0  0  0  0  0  0  1  0  0
  -20.9344   -7.1499   21.5070 F   0  0  0  0  0  0  0  0  0  0  0  0
  -25.0698   -8.6552   23.2500 F   0  0  0  0  0  0  0  0  0  0  0  0
  1  2  1  0  0  0  0
  1  5  2  0  0  0  0
  2  6  2  0  0  0  0
  3  8  2  0  0  0  0
  3 15  1  0  0  0  0
  4  9  1  0  0  0  0
  4 15  2  0  0  0  0
  5 17  1  0  0  0  0
  6 19  1  0  0  0  0
  7 10  2  0  0  0  0
  7 18  1  0  0  0  0
  8 21  1  0  0  0  0
  9 21  2  0  0  0  0
 10 22  1  0  0  0  0
 11 12  2  0  0  0  0
 11 23  1  0  0  0  0
 12 24  1  0  0  0  0
 13 20  1  0  0  0  0
 13 22  2  0  0  0  0
 14 24  2  0  0  0  0
 14 25  1  0  0  0  0
 15 26  1  0  0  0  0
 16 26  1  0  0  0  0
 16 31  2  0  0  0  0
 16 32  1  0  0  0  0
 17 19  2  0  0  0  0
 17 37  1  0  0  0  0
 18 20  2  0  0  0  0
 18 38  1  0  0  0  0
 19 48  1  0  0  0  0
 20 39  1  0  0  0  0
 21 81  1  0  0  0  0
 22 82  1  0  0  0  0
 23 25  2  0  0  0  0
 23 81  1  0  0  0  0
 24 83  1  0  0  0  0
 25 84  1  0  0  0  0
 26 64  2  0  0  0  0
 27 28  1  0  0  0  0
 27 49  1  0  0  0  0
 27 65  2  0  0  0  0
 28 59  1  0  0  0  0
 28 66  2  0  0  0  0
 29 30  2  0  0  0  0
 29 52  1  0  0  0  0
 29 65  1  0  0  0  0
 30 58  1  0  0  0  0
 30 66  1  0  0  0  0
 31 67  1  0  0  0  0
 31 70  1  0  0  0  0
 32 71  1  0  0  0  0
 32 76  2  0  0  0  0
 33 50  1  0  0  0  0
 33 72  1  0  0  0  0
 33 77  2  0  0  0  0
 34 61  1  0  0  0  0
 34 68  1  0  0  0  0
 34 78  2  0  0  0  0
 35 62  1  0  0  0  0
 35 73  1  0  0  0  0
 35 79  2  0  0  0  0
 36 69  1  0  0  0  0
 36 74  1  0  0  0  0
 36 80  2  0  0  0  0
 37 40  1  0  0  0  0
 38 50  1  0  0  0  0
 39 68  1  0  0  0  0
 40 42  1  0  0  0  0
 41 45  1  0  0  0  0
 41 46  1  0  0  0  0
 42 48  1  0  0  0  0
 43 44  1  0  0  0  0
 43 49  1  0  0  0  0
 44 49  1  0  0  0  0
 45 51  1  0  0  0  0
 46 69  1  0  0  0  0
 47 51  1  0  0  0  0
 47 69  1  0  0  0  0
 48 72  1  0  0  0  0
 50 68  1  0  0  0  0
 51 67  1  0  0  0  0
 53 62  1  0  0  0  0
 54 63  1  0  0  0  0
 55 63  1  0  0  0  0
 56 63  1  0  0  0  0
 57 75  1  0  0  0  0
 58 60  1  0  0  0  0
 59 74  1  0  0  0  0
 60 82  1  0  0  0  0
 61 63  1  0  0  0  0
 61 73  1  0  0  0  0
 62 75  1  0  0  0  0
 64 67  1  0  0  0  0
M  CHG  1  75   1
M  ISO  4  36 100  60 101  74 100  82 101
M  END
> <Batch ID>
0178

> <Smiles>
CNC(C)C(=O)NC(C(=O)N1Cc2cc([101O:1][101CH2:1]Cc3nc(C[100NH:0][100C:0](=O)N4CCCC(n5nc(-c6ccc(Oc7ccc(F)cc7F)cc6)c(C(N)=O)c5N)C4)c(C4CC4)nc3C)ccc2CC1C(=O)NC1CCCc2ccccc21)C(C)(C)C

> <Shape>
0.228

> <Color>
0.056

> <Negative vol penalty>
0.000

$$$$

  -OEChem-04052322553D

 87 97  0     1  0  0  0  0  0999 V2000
  -17.4056  -31.1057   24.8154 C   0  0  0  0  0  0  0  0  0  0  0  0
  -18.7167  -31.1076   25.2807 C   0  0  0  0  0  0  0  0  0  0  0  0
  -24.9042  -13.2051   21.5220 C   0  0  0  0  0  0  0  0  0  0  0  0
  -26.3157  -12.9826   19.5738 C   0  0  0  0  0  0  0  0  0  0  0  0
  -17.0507  -30.2950   23.7380 C   0  0  0  0  0  0  0  0  0  0  0  0
  -19.6734  -30.2980   24.6695 C   0  0  0  0  0  0  0  0  0  0  0  0
  -25.6110  -31.5719   23.8773 C   0  0  0  0  0  0  0  0  0  0  0  0
  -24.2659  -12.0085   21.1962 C   0  0  0  0  0  0  0  0  0  0  0  0
  -25.6773  -11.7859   19.2480 C   0  0  0  0  0  0  0  0  0  0  0  0
  -26.7526  -31.2019   24.5870 C   0  0  0  0  0  0  0  0  0  0  0  0
  -22.5090   -8.8282   21.0755 C   0  0  0  0  0  0  0  0  0  0  0  0
  -22.2859   -7.9116   22.1029 C   0  0  0  0  0  0  0  0  0  0  0  0
  -27.1213  -29.3903   23.0374 C   0  0  0  0  0  0  0  0  0  0  0  0
  -31.6394  -26.0895   23.5989 C   0  0  0  0  0  0  0  0  0  0  0  0
  -24.6652   -7.7790   22.5011 C   0  0  0  0  0  0  0  0  0  0  0  0
  -25.9291  -13.6922   20.7107 C   0  0  0  0  0  0  0  0  0  0  0  0
  -31.1645  -24.9756   21.5208 C   0  0  0  0  0  0  0  0  0  0  0  0
  -27.7298  -15.0911   21.8545 C   0  0  0  0  0  0  0  0  0  0  0  0
  -18.0057  -29.4823   23.1071 C   0  0  0  0  0  0  0  0  0  0  0  0
  -25.2093  -30.8461   22.7467 C   0  0  0  0  0  0  0  0  0  0  0  0
  -19.3306  -29.4747   23.5835 C   0  0  0  0  0  0  0  0  0  0  0  0
  -25.9757  -29.7547   22.3136 C   0  0  0  0  0  0  0  0  0  0  0  0
  -32.0089  -25.1908   22.6043 C   0  0  0  0  0  0  0  0  0  0  0  0
  -24.6524  -11.2989   20.0592 C   0  0  0  0  0  0  0  0  0  0  0  0
  -27.5063  -30.1092   24.1688 C   0  0  0  0  0  0  0  0  0  0  0  0
  -23.8101   -9.2203   20.7608 C   0  0  0  0  0  0  0  0  0  0  0  0
  -23.3641   -7.3869   22.8157 C   0  0  0  0  0  0  0  0  0  0  0  0
  -24.8882   -8.6957   21.4737 C   0  0  0  0  0  0  0  0  0  0  0  0
  -26.5886  -14.9285   21.0465 C   0  0  0  0  0  0  0  0  0  0  0  0
  -30.4248  -26.7424   23.4643 C   0  0  0  0  0  0  0  0  0  0  0  0
  -29.9710  -25.6782   21.4794 C   0  0  0  0  0  0  0  0  0  0  0  0
  -27.9551  -16.4460   21.8619 C   0  0  0  0  0  0  0  0  0  0  0  0
  -31.5269  -24.0402   20.4635 C   0  0  0  0  0  0  0  0  0  0  0  0
  -28.5161  -14.1055   22.5372 C   0  0  0  0  0  0  0  0  0  0  0  0
  -22.6381  -29.1466   21.9692 C   0  0  0  0  0  0  0  0  0  0  0  0
  -24.0904  -29.0009   19.0723 C   0  0  0  0  0  0  0  0  0  0  0  0
  -26.9850  -29.1585   17.2714 C   0  0  0  0  0  0  0  0  0  0  0  0
  -28.3080  -21.3356   19.1950 C   0  0  0  0  0  0  0  0  0  0  0  0
  -17.5642  -28.5875   21.9761 C   0  0  0  0  0  0  0  0  0  0  0  0
  -23.9904  -31.2744   21.9766 C   0  0  0  0  0  0  0  0  0  0  0  0
  -25.5986  -28.9548   21.0944 C   0  0  0  0  0  0  0  0  0  0  0  0
  -18.7217  -28.0403   21.1449 C   0  0  0  0  0  0  0  0  0  0  0  0
  -25.0733  -20.2715   20.2348 C   0  0  0  0  0  0  0  0  0  0  0  0
  -19.8274  -27.5111   22.0527 C   0  0  0  0  0  0  0  0  0  0  0  0
  -25.2721  -18.7992   20.5991 C   0  0  0  0  0  0  0  0  0  0  0  0
  -30.9326  -28.8451   24.8773 C   0  0  0  0  0  0  0  0  0  0  0  0
  -32.0052  -21.5420   20.1347 C   0  0  0  0  0  0  0  0  0  0  0  0
  -25.9257  -20.6758   19.0340 C   0  0  0  0  0  0  0  0  0  0  0  0
  -27.5621  -18.9007   19.5291 C   0  0  0  0  0  0  0  0  0  0  0  0
  -20.4025  -28.6289   22.9309 C   0  0  1  0  0  0  0  0  0  0  0  0
  -30.0105  -27.7053   24.5125 C   0  0  1  0  0  0  0  0  0  0  0  0
  -31.0969  -22.6129   20.6273 C   0  0  2  0  0  0  0  0  0  0  0  0
  -23.3871  -30.1507   21.1394 C   0  0  1  0  0  0  0  0  0  0  0  0
  -26.7653  -18.4603   20.7691 C   0  0  2  0  0  0  0  0  0  0  0  0
  -30.7285  -21.8431   19.4013 C   0  0  2  0  0  0  0  0  0  0  0  0
  -29.6714  -29.1264   24.1191 C   0  0  1  0  0  0  0  0  0  1  0  0
  -33.3133  -24.4734   22.7255 C   0  0  0  0  0  0  0  0  0  0  0  0
  -29.0209  -25.4920   20.3412 C   0  0  0  0  0  0  0  0  0  0  0  0
  -27.8599  -28.9633   14.9275 C   0  0  0  0  0  0  0  0  0  0  0  0
  -23.8017  -25.9669   19.2198 C   0  0  0  0  0  0  0  0  0  0  0  0
  -25.4911  -25.7866   17.3809 C   0  0  0  0  0  0  0  0  0  0  0  0
  -23.3240  -26.9522   16.9714 C   0  0  0  0  0  0  0  0  0  0  0  0
  -28.0067  -31.9360   17.2976 C   0  0  0  0  0  0  0  0  0  0  0  0
  -25.0757  -28.0639   18.4163 C   0  0  1  0  0  0  0  0  0  0  0  0
  -27.3409  -29.9081   16.0002 C   0  0  2  0  0  0  0  0  0  0  0  0
  -24.4294  -26.7061   18.0212 C   0  0  0  0  0  0  0  0  0  0  0  0
  -26.1213  -16.0875   20.5749 N   0  0  0  0  0  0  0  0  0  0  0  0
  -29.5780  -26.5593   22.4265 N   0  0  0  0  0  0  0  0  0  0  0  0
  -26.9731  -16.9914   21.0883 N   0  0  0  0  0  0  0  0  0  0  0  0
  -24.3949  -29.4091   20.3787 N   0  0  0  0  0  0  0  0  0  0  0  0
  -27.3308  -20.3286   19.2598 N   0  0  0  0  0  0  0  0  0  0  0  0
  -28.8953  -17.2121   22.4547 N   0  0  0  0  0  0  0  0  0  0  0  0
  -28.1452  -12.7588   22.4232 N   0  0  0  0  0  0  0  0  0  0  0  0
  -21.3064  -29.4595   22.1643 N   0  0  0  0  0  0  0  0  0  0  0  0
  -25.6542  -28.7986   17.2965 N   0  0  0  0  0  0  0  0  0  0  0  0
  -29.6141  -20.9222   19.4276 N   0  0  0  0  0  0  0  0  0  0  0  0
  -28.3921  -30.9275   16.2772 N   0  3  0  0  0  0  0  0  0  0  0  0
  -32.1626  -24.3348   19.4513 O   0  0  0  0  0  0  0  0  0  0  0  0
  -29.5082  -14.4117   23.2412 O   0  0  0  0  0  0  0  0  0  0  0  0
  -23.2246  -28.1604   22.3993 O   0  0  0  0  0  0  0  0  0  0  0  0
  -23.0913  -29.3631   18.4461 O   0  0  0  0  0  0  0  0  0  0  0  0
  -27.8064  -28.9132   18.1522 O   0  0  0  0  0  0  0  0  0  0  0  0
  -28.0360  -22.5165   18.9533 O   0  0  0  0  0  0  0  0  0  0  0  0
  -24.0299  -10.1310   19.7411 O   0  0  0  0  0  0  0  0  0  0  0  0
  -28.6206  -29.7454   24.8601 O   0  0  0  0  0  0  0  0  0  1  0  0
  -23.1496   -6.5078   23.8033 F   0  0  0  0  0  0  0  0  0  0  0  0
  -26.1404   -9.0694   21.1767 F   0  0  0  0  0  0  0  0  0  0  0  0
  1  2  1  0  0  0  0
  1  5  2  0  0  0  0
  2  6  2  0  0  0  0
  3  8  2  0  0  0  0
  3 16  1  0  0  0  0
  4  9  1  0  0  0  0
  4 16  2  0  0  0  0
  5 19  1  0  0  0  0
  6 21  1  0  0  0  0
  7 10  2  0  0  0  0
  7 20  1  0  0  0  0
  8 24  1  0  0  0  0
  9 24  2  0  0  0  0
 10 25  1  0  0  0  0
 11 12  2  0  0  0  0
 11 26  1  0  0  0  0
 12 27  1  0  0  0  0
 13 22  1  0  0  0  0
 13 25  2  0  0  0  0
 14 23  2  0  0  0  0
 14 30  1  0  0  0  0
 15 27  2  0  0  0  0
 15 28  1  0  0  0  0
 16 29  1  0  0  0  0
 17 23  1  0  0  0  0
 17 31  2  0  0  0  0
 17 33  1  0  0  0  0
 18 29  1  0  0  0  0
 18 32  2  0  0  0  0
 18 34  1  0  0  0  0
 19 21  2  0  0  0  0
 19 39  1  0  0  0  0
 20 22  2  0  0  0  0
 20 40  1  0  0  0  0
 21 50  1  0  0  0  0
 22 41  1  0  0  0  0
 23 57  1  0  0  0  0
 24 84  1  0  0  0  0
 25 85  1  0  0  0  0
 26 28  2  0  0  0  0
 26 84  1  0  0  0  0
 27 86  1  0  0  0  0
 28 87  1  0  0  0  0
 29 67  2  0  0  0  0
 30 51  1  0  0  0  0
 30 68  2  0  0  0  0
 31 58  1  0  0  0  0
 31 68  1  0  0  0  0
 32 69  1  0  0  0  0
 32 72  1  0  0  0  0
 33 52  1  0  0  0  0
 33 78  2  0  0  0  0
 34 73  1  0  0  0  0
 34 79  2  0  0  0  0
 35 53  1  0  0  0  0
 35 74  1  0  0  0  0
 35 80  2  0  0  0  0
 36 64  1  0  0  0  0
 36 70  1  0  0  0  0
 36 81  2  0  0  0  0
 37 65  1  0  0  0  0
 37 75  1  0  0  0  0
 37 82  2  0  0  0  0
 38 71  1  0  0  0  0
 38 76  1  0  0  0  0
 38 83  2  0  0  0  0
 39 42  1  0  0  0  0
 40 53  1  0  0  0  0
 41 70  1  0  0  0  0
 42 44  1  0  0  0  0
 43 45  1  0  0  0  0
 43 48  1  0  0  0  0
 44 50  1  0  0  0  0
 45 54  1  0  0  0  0
 46 51  1  0  0  0  0
 46 56  1  0  0  0  0
 47 52  1  0  0  0  0
 47 55  1  0  0  0  0
 48 71  1  0  0  0  0
 49 54  1  0  0  0  0
 49 71  1  0  0  0  0
 50 74  1  0  0  0  0
 51 56  1  0  0  0  0
 52 55  1  0  0  0  0
 53 70  1  0  0  0  0
 54 69  1  0  0  0  0
 55 76  1  0  0  0  0
 56 85  1  0  0  0  0
 59 65  1  0  0  0  0
 60 66  1  0  0  0  0
 61 66  1  0  0  0  0
 62 66  1  0  0  0  0
 63 77  1  0  0  0  0
 64 66  1  0  0  0  0
 64 75  1  0  0  0  0
 65 77  1  0  0  0  0
 67 69  1  0  0  0  0
M  CHG  1  77   1
M  ISO  4  38 100  56 101  76 100  85 101
M  END
> <Batch ID>
0178

> <Smiles>
CNC(C)C(=O)NC(C(=O)N1Cc2cc([101O:1][101CH:1]3CC3c3cc(C)c(C(=O)C4CC4[100NH:0][100C:0](=O)N4CCCC(n5nc(-c6ccc(Oc7ccc(F)cc7F)cc6)c(C(N)=O)c5N)C4)c(C)n3)ccc2CC1C(=O)NC1CCCc2ccccc21)C(C)(C)C

> <Shape>
0.280

> <Color>
0.083

> <Negative vol penalty>
0.000

$$$$

  -OEChem-04052322553D

 82 91  0     1  0  0  0  0  0999 V2000
  -29.2952  -35.9446   24.5897 C   0  0  0  0  0  0  0  0  0  0  0  0
  -29.4793  -34.6673   24.0700 C   0  0  0  0  0  0  0  0  0  0  0  0
  -24.4026   -9.4745   21.2167 C   0  0  0  0  0  0  0  0  0  0  0  0
  -24.9497  -10.3777   23.3897 C   0  0  0  0  0  0  0  0  0  0  0  0
  -28.0632  -36.3031   25.1351 C   0  0  0  0  0  0  0  0  0  0  0  0
  -28.4317  -33.7474   24.0964 C   0  0  0  0  0  0  0  0  0  0  0  0
  -28.1679  -21.8864   18.4655 C   0  0  0  0  0  0  0  0  0  0  0  0
  -27.1831  -29.4680   19.8972 C   0  0  0  0  0  0  0  0  0  0  0  0
  -28.0719  -23.2775   18.4773 C   0  0  0  0  0  0  0  0  0  0  0  0
  -24.0960   -8.2471   21.8041 C   0  0  0  0  0  0  0  0  0  0  0  0
  -24.6430   -9.1503   23.9771 C   0  0  0  0  0  0  0  0  0  0  0  0
  -27.4648  -28.1040   19.8355 C   0  0  0  0  0  0  0  0  0  0  0  0
  -21.5222   -6.8797   23.5184 C   0  0  0  0  0  0  0  0  0  0  0  0
  -20.3522   -6.2398   23.1097 C   0  0  0  0  0  0  0  0  0  0  0  0
  -28.3463  -23.2722   20.8740 C   0  0  0  0  0  0  0  0  0  0  0  0
  -25.2734  -27.6175   20.7187 C   0  0  0  0  0  0  0  0  0  0  0  0
  -21.6499   -4.3425   22.3656 C   0  0  0  0  0  0  0  0  0  0  0  0
  -24.8295  -10.5398   22.0096 C   0  0  0  0  0  0  0  0  0  0  0  0
  -24.2696  -12.8851   21.1767 C   0  0  0  0  0  0  0  0  0  0  0  0
  -26.9970  -35.3903   25.1596 C   0  0  0  0  0  0  0  0  0  0  0  0
  -28.3624  -21.1728   19.6581 C   0  0  0  0  0  0  0  0  0  0  0  0
  -25.9463  -29.9182   20.3811 C   0  0  0  0  0  0  0  0  0  0  0  0
  -27.1847  -34.0936   24.6440 C   0  0  0  0  0  0  0  0  0  0  0  0
  -28.4340  -21.8717   20.8770 C   0  0  0  0  0  0  0  0  0  0  0  0
  -24.9774  -28.9877   20.7831 C   0  0  0  0  0  0  0  0  0  0  0  0
  -28.1636  -23.9703   19.6808 C   0  0  0  0  0  0  0  0  0  0  0  0
  -24.2161   -8.0849   23.1843 C   0  0  0  0  0  0  0  0  0  0  0  0
  -26.5110  -27.1786   20.2490 C   0  0  0  0  0  0  0  0  0  0  0  0
  -22.7561   -6.2511   23.3507 C   0  0  0  0  0  0  0  0  0  0  0  0
  -20.4160   -4.9712   22.5333 C   0  0  0  0  0  0  0  0  0  0  0  0
  -22.8199   -4.9825   22.7743 C   0  0  0  0  0  0  0  0  0  0  0  0
  -25.1470  -11.8078   21.4034 C   0  0  0  0  0  0  0  0  0  0  0  0
  -25.0511  -13.8452   20.5818 C   0  0  0  0  0  0  0  0  0  0  0  0
  -22.8729  -13.0071   21.4771 C   0  0  0  0  0  0  0  0  0  0  0  0
  -25.0158  -31.7103   22.8360 C   0  0  0  0  0  0  0  0  0  0  0  0
  -22.1027  -31.4240   21.4381 C   0  0  0  0  0  0  0  0  0  0  0  0
  -20.0380  -29.6478   19.3817 C   0  0  0  0  0  0  0  0  0  0  0  0
  -29.7995  -16.7632   20.2932 C   0  0  0  0  0  0  0  0  0  0  0  0
  -25.6982  -35.8082   25.8024 C   0  0  0  0  0  0  0  0  0  0  0  0
  -25.6479  -31.3920   20.4162 C   0  0  0  0  0  0  0  0  0  0  0  0
  -28.4269  -19.6652   19.6067 C   0  0  0  0  0  0  0  0  0  0  0  0
  -28.6655  -21.1564   22.1842 C   0  0  0  0  0  0  0  0  0  0  0  0
  -23.6268  -29.4187   21.2915 C   0  0  0  0  0  0  0  0  0  0  0  0
  -24.5246  -34.8968   25.4525 C   0  0  0  0  0  0  0  0  0  0  0  0
  -28.3692  -19.6581   22.1161 C   0  0  0  0  0  0  0  0  0  0  0  0
  -29.7419  -13.5756   18.7082 C   0  0  0  0  0  0  0  0  0  0  0  0
  -24.9254  -33.4319   25.5946 C   0  0  0  0  0  0  0  0  0  0  0  0
  -28.4730  -12.9185   19.2541 C   0  0  0  0  0  0  0  0  0  0  0  0
  -30.4368  -14.4278   19.7679 C   0  0  0  0  0  0  0  0  0  0  0  0
  -28.3077  -14.7810   20.9578 C   0  0  0  0  0  0  0  0  0  0  0  0
  -26.0648  -33.0758   24.6320 C   0  0  1  0  0  0  0  0  0  0  0  0
  -24.5479  -31.7554   21.4089 C   0  0  1  0  0  0  0  0  0  0  0  0
  -27.5417  -13.9561   19.9094 C   0  0  2  0  0  0  0  0  0  0  0  0
  -29.0189  -19.0457   20.8764 C   0  0  1  0  0  0  0  0  0  0  0  0
  -17.7030  -29.6415   18.4625 C   0  0  0  0  0  0  0  0  0  0  0  0
  -21.0510  -30.4271   24.1232 C   0  0  0  0  0  0  0  0  0  0  0  0
  -19.0292  -29.5576   22.9296 C   0  0  0  0  0  0  0  0  0  0  0  0
  -19.5231  -32.0027   22.9243 C   0  0  0  0  0  0  0  0  0  0  0  0
  -21.0104  -29.8596   16.5945 C   0  0  0  0  0  0  0  0  0  0  0  0
  -28.0670  -25.4676   19.6948 C   0  0  0  0  0  0  0  0  0  1  0  0
  -20.9580  -30.4454   21.5431 C   0  0  1  0  0  0  0  0  0  0  0  0
  -19.1411  -30.0812   18.2362 C   0  0  2  0  0  0  0  0  0  0  0  0
  -20.1664  -30.5998   22.8723 C   0  0  0  0  0  0  0  0  0  0  0  0
  -26.3907  -12.0592   20.9863 N   0  0  0  0  0  0  0  0  0  0  0  0
  -26.3004  -13.3055   20.4915 N   0  0  0  0  0  0  0  0  0  0  0  0
  -23.3849  -30.8708   21.3127 N   0  0  0  0  0  0  0  0  0  0  0  0
  -29.4995  -15.3921   20.3489 N   0  0  0  0  0  0  0  0  0  0  0  0
  -24.7847  -15.0899   20.1323 N   0  0  0  0  0  0  0  0  0  0  0  0
  -22.2242  -11.9259   22.0890 N   0  0  0  0  0  0  0  0  0  0  0  0
  -25.5552  -32.8991   23.2891 N   0  0  0  0  0  0  0  0  0  0  0  0
  -20.1510  -30.6308   20.3420 N   0  0  0  0  0  0  0  0  0  0  0  0
  -28.8550  -17.6092   20.8615 N   0  0  0  0  0  0  0  0  0  0  0  0
  -19.6170  -29.4903   16.9535 N   0  3  0  0  0  0  0  0  0  0  0  0
  -22.2159  -14.0380   21.1959 O   0  0  0  0  0  0  0  0  0  0  0  0
  -24.8951  -30.6741   23.4790 O   0  0  0  0  0  0  0  0  0  0  0  0
  -21.8672  -32.6347   21.4591 O   0  0  0  0  0  0  0  0  0  0  0  0
  -20.5808  -28.5459   19.4224 O   0  0  0  0  0  0  0  0  0  0  0  0
  -30.8300  -17.2014   19.7707 O   0  0  0  0  0  0  0  0  0  0  0  0
  -23.9168   -6.8874   23.7578 O   0  0  0  0  0  0  0  0  0  0  0  0
  -26.7837  -25.8466   20.1905 O   0  0  0  0  0  0  0  0  0  1  0  0
  -19.2922   -4.3561   22.1422 F   0  0  0  0  0  0  0  0  0  0  0  0
  -24.0023   -4.3731   22.6117 F   0  0  0  0  0  0  0  0  0  0  0  0
  1  2  1  0  0  0  0
  1  5  2  0  0  0  0
  2  6  2  0  0  0  0
  3 10  2  0  0  0  0
  3 18  1  0  0  0  0
  4 11  1  0  0  0  0
  4 18  2  0  0  0  0
  5 20  1  0  0  0  0
  6 23  1  0  0  0  0
  7  9  2  0  0  0  0
  7 21  1  0  0  0  0
  8 12  2  0  0  0  0
  8 22  1  0  0  0  0
  9 26  1  0  0  0  0
 10 27  1  0  0  0  0
 11 27  2  0  0  0  0
 12 28  1  0  0  0  0
 13 14  2  0  0  0  0
 13 29  1  0  0  0  0
 14 30  1  0  0  0  0
 15 24  1  0  0  0  0
 15 26  2  0  0  0  0
 16 25  1  0  0  0  0
 16 28  2  0  0  0  0
 17 30  2  0  0  0  0
 17 31  1  0  0  0  0
 18 32  1  0  0  0  0
 19 32  1  0  0  0  0
 19 33  2  0  0  0  0
 19 34  1  0  0  0  0
 20 23  2  0  0  0  0
 20 39  1  0  0  0  0
 21 24  2  0  0  0  0
 21 41  1  0  0  0  0
 22 25  2  0  0  0  0
 22 40  1  0  0  0  0
 23 51  1  0  0  0  0
 24 42  1  0  0  0  0
 25 43  1  0  0  0  0
 26 60  1  0  0  0  0
 27 79  1  0  0  0  0
 28 80  1  0  0  0  0
 29 31  2  0  0  0  0
 29 79  1  0  0  0  0
 30 81  1  0  0  0  0
 31 82  1  0  0  0  0
 32 64  2  0  0  0  0
 33 65  1  0  0  0  0
 33 68  1  0  0  0  0
 34 69  1  0  0  0  0
 34 74  2  0  0  0  0
 35 52  1  0  0  0  0
 35 70  1  0  0  0  0
 35 75  2  0  0  0  0
 36 61  1  0  0  0  0
 36 66  1  0  0  0  0
 36 76  2  0  0  0  0
 37 62  1  0  0  0  0
 37 71  1  0  0  0  0
 37 77  2  0  0  0  0
 38 67  1  0  0  0  0
 38 72  1  0  0  0  0
 38 78  2  0  0  0  0
 39 44  1  0  0  0  0
 40 52  1  0  0  0  0
 41 54  1  0  0  0  0
 42 45  1  0  0  0  0
 43 66  1  0  0  0  0
 44 47  1  0  0  0  0
 45 54  1  0  0  0  0
 46 48  1  0  0  0  0
 46 49  1  0  0  0  0
 47 51  1  0  0  0  0
 48 53  1  0  0  0  0
 49 67  1  0  0  0  0
 50 53  1  0  0  0  0
 50 67  1  0  0  0  0
 51 70  1  0  0  0  0
 52 66  1  0  0  0  0
 53 65  1  0  0  0  0
 54 72  1  0  0  0  0
 55 62  1  0  0  0  0
 56 63  1  0  0  0  0
 57 63  1  0  0  0  0
 58 63  1  0  0  0  0
 59 73  1  0  0  0  0
 60 80  1  0  0  0  0
 61 63  1  0  0  0  0
 61 71  1  0  0  0  0
 62 73  1  0  0  0  0
 64 65  1  0  0  0  0
M  CHG  1  73   1
M  ISO  4  38 100  60 101  72 100  80 101
M  END
> <Batch ID>
0178

> <Smiles>
CNC(C)C(=O)NC(C(=O)N1Cc2cc([101O:1][101CH2:1]c3ccc4c(c3)CCC([100NH:0][100C:0](=O)N3CCCC(n5nc(-c6ccc(Oc7ccc(F)cc7F)cc6)c(C(N)=O)c5N)C3)C4)ccc2CC1C(=O)NC1CCCc2ccccc21)C(C)(C)C

> <Shape>
0.342

> <Color>
0.146

> <Negative vol penalty>
0.000

$$$$

  -OEChem-04052322553D

 81 90  0     1  0  0  0  0  0999 V2000
  -29.5271  -28.2965   11.5917 C   0  0  0  0  0  0  0  0  0  0  0  0
  -28.9208  -27.1355   12.0606 C   0  0  0  0  0  0  0  0  0  0  0  0
  -23.3186   -9.7762   19.9904 C   0  0  0  0  0  0  0  0  0  0  0  0
  -23.7918  -10.0111   22.3480 C   0  0  0  0  0  0  0  0  0  0  0  0
  -30.7100  -28.7484   12.1752 C   0  0  0  0  0  0  0  0  0  0  0  0
  -29.4977  -26.4251   13.1127 C   0  0  0  0  0  0  0  0  0  0  0  0
  -27.7245  -22.3795   18.7523 C   0  0  0  0  0  0  0  0  0  0  0  0
  -22.6108   -8.6025   20.2494 C   0  0  0  0  0  0  0  0  0  0  0  0
  -23.0841   -8.8373   22.6070 C   0  0  0  0  0  0  0  0  0  0  0  0
  -28.0106  -21.1388   19.3203 C   0  0  0  0  0  0  0  0  0  0  0  0
  -21.0963   -6.0964   23.9314 C   0  0  0  0  0  0  0  0  0  0  0  0
  -20.2062   -6.0985   25.0053 C   0  0  0  0  0  0  0  0  0  0  0  0
  -30.0128  -22.0572   20.3036 C   0  0  0  0  0  0  0  0  0  0  0  0
  -18.9609   -7.8912   23.9696 C   0  0  0  0  0  0  0  0  0  0  0  0
  -28.3792  -17.0202   22.2681 C   0  0  0  0  0  0  0  0  0  0  0  0
  -30.0444  -16.7165   20.6584 C   0  0  0  0  0  0  0  0  0  0  0  0
  -23.9091  -10.4805   21.0397 C   0  0  0  0  0  0  0  0  0  0  0  0
  -24.1310  -13.0047   20.7446 C   0  0  0  0  0  0  0  0  0  0  0  0
  -31.2965  -28.0483   13.2414 C   0  0  0  0  0  0  0  0  0  0  0  0
  -28.5876  -23.4674   18.9470 C   0  0  0  0  0  0  0  0  0  0  0  0
  -30.6902  -26.8672   13.7101 C   0  0  0  0  0  0  0  0  0  0  0  0
  -29.7341  -23.3113   19.7390 C   0  0  0  0  0  0  0  0  0  0  0  0
  -28.9833  -17.4727   21.1128 C   0  0  0  0  0  0  0  0  0  0  0  0
  -22.4936   -8.1331   21.5576 C   0  0  0  0  0  0  0  0  0  0  0  0
  -29.1563  -20.9767   20.0937 C   0  0  0  0  0  0  0  0  0  0  0  0
  -20.9187   -6.9918   22.8766 C   0  0  0  0  0  0  0  0  0  0  0  0
  -19.1385   -6.9959   25.0244 C   0  0  0  0  0  0  0  0  0  0  0  0
  -19.8510   -7.8891   22.8957 C   0  0  0  0  0  0  0  0  0  0  0  0
  -24.6408  -11.6927   20.7728 C   0  0  0  0  0  0  0  0  0  0  0  0
  -25.2188  -13.7894   20.4489 C   0  0  0  0  0  0  0  0  0  0  0  0
  -29.8179  -15.2647   22.3928 C   0  0  0  0  0  0  0  0  0  0  0  0
  -22.7938  -13.4722   20.9660 C   0  0  0  0  0  0  0  0  0  0  0  0
  -30.3473  -25.3038   17.0405 C   0  0  0  0  0  0  0  0  0  0  0  0
  -30.8853  -26.9585   19.7781 C   0  0  0  0  0  0  0  0  0  0  0  0
  -30.9943  -26.9592   23.1891 C   0  0  0  0  0  0  0  0  0  0  0  0
  -31.1928  -12.4499   21.1695 C   0  0  0  0  0  0  0  0  0  0  0  0
  -32.6008  -28.5497   13.8089 C   0  0  0  0  0  0  0  0  0  0  0  0
  -28.2510  -24.8061   18.3495 C   0  0  0  0  0  0  0  0  0  0  0  0
  -30.6825  -24.4531   19.9952 C   0  0  0  0  0  0  0  0  0  0  0  0
  -32.9472  -27.9440   15.1666 C   0  0  0  0  0  0  0  0  0  0  0  0
  -29.4001  -13.7065   18.1801 C   0  0  0  0  0  0  0  0  0  0  0  0
  -32.7385  -26.4331   15.1460 C   0  0  0  0  0  0  0  0  0  0  0  0
  -27.9473  -13.3520   18.4821 C   0  0  0  0  0  0  0  0  0  0  0  0
  -31.5124  -14.1390   24.1044 C   0  0  0  0  0  0  0  0  0  0  0  0
  -30.3672  -12.7560   18.8768 C   0  0  0  0  0  0  0  0  0  0  0  0
  -32.1628  -12.9134   23.4734 C   0  0  0  0  0  0  0  0  0  0  0  0
  -28.7140  -12.3333   20.6660 C   0  0  0  0  0  0  0  0  0  0  0  0
  -31.2722  -26.0825   14.8658 C   0  0  1  0  0  0  0  0  0  0  0  0
  -30.3111  -13.9606   23.1490 C   0  0  2  0  0  0  0  0  0  0  0  0
  -29.4681  -25.7117   18.1886 C   0  0  1  0  0  0  0  0  0  0  0  0
  -27.7121  -13.2901   19.9988 C   0  0  2  0  0  0  0  0  0  0  0  0
  -31.5031  -28.4488   25.1435 C   0  0  0  0  0  0  0  0  0  0  0  0
  -33.8708  -26.6674   19.2197 C   0  0  0  0  0  0  0  0  0  0  0  0
  -34.3074  -27.3024   21.6018 C   0  0  0  0  0  0  0  0  0  0  0  0
  -33.1827  -28.9170   20.0685 C   0  0  0  0  0  0  0  0  0  0  0  0
  -28.2480  -26.6890   24.2584 C   0  0  0  0  0  0  0  0  0  0  0  0
  -28.5166  -18.7064   20.3978 C   0  0  0  0  0  0  0  0  0  1  0  0
  -31.9101  -26.8906   20.8845 C   0  0  1  0  0  0  0  0  0  0  0  0
  -30.4209  -27.9199   24.2151 C   0  0  2  0  0  0  0  0  0  0  0  0
  -33.3011  -27.4221   20.4374 C   0  0  0  0  0  0  0  0  0  0  0  0
  -28.7721  -15.9160   22.9364 N   0  0  0  0  0  0  0  0  0  0  0  0
  -30.4901  -15.6028   21.2759 N   0  0  0  0  0  0  0  0  0  0  0  0
  -25.9505  -11.6428   20.5153 N   0  0  0  0  0  0  0  0  0  0  0  0
  -26.2728  -12.9331   20.3225 N   0  0  0  0  0  0  0  0  0  0  0  0
  -30.3131  -25.7406   19.3842 N   0  0  0  0  0  0  0  0  0  0  0  0
  -30.1032  -12.6573   20.3148 N   0  0  0  0  0  0  0  0  0  0  0  0
  -31.1393  -12.9807   22.4377 N   0  0  0  0  0  0  0  0  0  0  0  0
  -25.3669  -15.1214   20.2872 N   0  0  0  0  0  0  0  0  0  0  0  0
  -21.7971  -12.5314   21.2590 N   0  0  0  0  0  0  0  0  0  0  0  0
  -30.4719  -26.2669   16.0574 N   0  0  0  0  0  0  0  0  0  0  0  0
  -31.3340  -27.6045   22.0189 N   0  0  0  0  0  0  0  0  0  0  0  0
  -29.3850  -27.2378   25.0413 N   0  3  0  0  0  0  0  0  0  0  0  0
  -22.4886  -14.6864   20.8896 O   0  0  0  0  0  0  0  0  0  0  0  0
  -30.8749  -24.1978   17.0467 O   0  0  0  0  0  0  0  0  0  0  0  0
  -30.5977  -28.0527   19.2866 O   0  0  0  0  0  0  0  0  0  0  0  0
  -31.1310  -25.7571   23.4056 O   0  0  0  0  0  0  0  0  0  0  0  0
  -32.1996  -11.8301   20.8004 O   0  0  0  0  0  0  0  0  0  0  0  0
  -21.8028   -6.9879   21.8108 O   0  0  0  0  0  0  0  0  0  0  0  0
  -29.4382  -19.7666   20.6487 O   0  0  0  0  0  0  0  0  0  1  0  0
  -18.2829   -6.9967   26.0550 F   0  0  0  0  0  0  0  0  0  0  0  0
  -19.6746   -8.7508   21.8847 F   0  0  0  0  0  0  0  0  0  0  0  0
  1  2  1  0  0  0  0
  1  5  2  0  0  0  0
  2  6  2  0  0  0  0
  3  8  2  0  0  0  0
  3 17  1  0  0  0  0
  4  9  1  0  0  0  0
  4 17  2  0  0  0  0
  5 19  1  0  0  0  0
  6 21  1  0  0  0  0
  7 10  2  0  0  0  0
  7 20  1  0  0  0  0
  8 24  1  0  0  0  0
  9 24  2  0  0  0  0
 10 25  1  0  0  0  0
 11 12  2  0  0  0  0
 11 26  1  0  0  0  0
 12 27  1  0  0  0  0
 13 22  1  0  0  0  0
 13 25  2  0  0  0  0
 14 27  2  0  0  0  0
 14 28  1  0  0  0  0
 15 23  1  0  0  0  0
 15 61  2  0  0  0  0
 16 23  2  0  0  0  0
 16 62  1  0  0  0  0
 17 29  1  0  0  0  0
 18 29  1  0  0  0  0
 18 30  2  0  0  0  0
 18 32  1  0  0  0  0
 19 21  2  0  0  0  0
 19 37  1  0  0  0  0
 20 22  2  0  0  0  0
 20 38  1  0  0  0  0
 21 48  1  0  0  0  0
 22 39  1  0  0  0  0
 23 57  1  0  0  0  0
 24 78  1  0  0  0  0
 25 79  1  0  0  0  0
 26 28  2  0  0  0  0
 26 78  1  0  0  0  0
 27 80  1  0  0  0  0
 28 81  1  0  0  0  0
 29 63  2  0  0  0  0
 30 64  1  0  0  0  0
 30 68  1  0  0  0  0
 31 49  1  0  0  0  0
 31 61  1  0  0  0  0
 31 62  2  0  0  0  0
 32 69  1  0  0  0  0
 32 73  2  0  0  0  0
 33 50  1  0  0  0  0
 33 70  1  0  0  0  0
 33 74  2  0  0  0  0
 34 58  1  0  0  0  0
 34 65  1  0  0  0  0
 34 75  2  0  0  0  0
 35 59  1  0  0  0  0
 35 71  1  0  0  0  0
 35 76  2  0  0  0  0
 36 66  1  0  0  0  0
 36 67  1  0  0  0  0
 36 77  2  0  0  0  0
 37 40  1  0  0  0  0
 38 50  1  0  0  0  0
 39 65  1  0  0  0  0
 40 42  1  0  0  0  0
 41 43  1  0  0  0  0
 41 45  1  0  0  0  0
 42 48  1  0  0  0  0
 43 51  1  0  0  0  0
 44 46  1  0  0  0  0
 44 49  1  0  0  0  0
 45 66  1  0  0  0  0
 46 67  1  0  0  0  0
 47 51  1  0  0  0  0
 47 66  1  0  0  0  0
 48 70  1  0  0  0  0
 49 67  1  0  0  0  0
 50 65  1  0  0  0  0
 51 64  1  0  0  0  0
 52 59  1  0  0  0  0
 53 60  1  0  0  0  0
 54 60  1  0  0  0  0
 55 60  1  0  0  0  0
 56 72  1  0  0  0  0
 57 79  1  0  0  0  0
 58 60  1  0  0  0  0
 58 71  1  0  0  0  0
 59 72  1  0  0  0  0
 63 64  1  0  0  0  0
M  CHG  1  72   1
M  ISO  4  36 100  57 101  67 100  79 101
M  END
> <Batch ID>
0178

> <Smiles>
CNC(C)C(=O)NC(C(=O)N1Cc2cc([101O:1][101CH2:1]c3cnc(C4CC[100N:0]4[100C:0](=O)N4CCCC(n5nc(-c6ccc(Oc7ccc(F)cc7F)cc6)c(C(N)=O)c5N)C4)nc3)ccc2CC1C(=O)NC1CCCc2ccccc21)C(C)(C)C

> <Shape>
0.260

> <Color>
0.180

> <Negative vol penalty>
0.000

$$$$

  -OEChem-04052322553D

 86 95  0     1  0  0  0  0  0999 V2000
  -29.4279  -33.5300   26.1140 C   0  0  0  0  0  0  0  0  0  0  0  0
  -29.0619  -32.2797   25.6259 C   0  0  0  0  0  0  0  0  0  0  0  0
  -24.3306  -10.3568   22.9324 C   0  0  0  0  0  0  0  0  0  0  0  0
  -24.2707   -8.7503   21.1289 C   0  0  0  0  0  0  0  0  0  0  0  0
  -28.4723  -34.5385   26.2309 C   0  0  0  0  0  0  0  0  0  0  0  0
  -27.7398  -32.0369   25.2553 C   0  0  0  0  0  0  0  0  0  0  0  0
  -27.3792  -29.5826   20.8404 C   0  0  0  0  0  0  0  0  0  0  0  0
  -23.2361   -9.7296   23.5274 C   0  0  0  0  0  0  0  0  0  0  0  0
  -23.1762   -8.1230   21.7240 C   0  0  0  0  0  0  0  0  0  0  0  0
  -27.6200  -28.2094   20.8537 C   0  0  0  0  0  0  0  0  0  0  0  0
  -22.6224   -5.9632   24.2634 C   0  0  0  0  0  0  0  0  0  0  0  0
  -22.6351   -4.5702   24.3340 C   0  0  0  0  0  0  0  0  0  0  0  0
  -25.2430  -27.7985   20.8537 C   0  0  0  0  0  0  0  0  0  0  0  0
  -25.9696  -22.9830   22.1323 C   0  0  0  0  0  0  0  0  0  0  0  0
  -20.6063   -4.4854   23.0248 C   0  0  0  0  0  0  0  0  0  0  0  0
  -24.8480   -9.8671   21.7330 C   0  0  0  0  0  0  0  0  0  0  0  0
  -27.3405  -10.2283   21.3274 C   0  0  0  0  0  0  0  0  0  0  0  0
  -27.1398  -34.3109   25.8524 C   0  0  0  0  0  0  0  0  0  0  0  0
  -26.0661  -30.0750   20.8447 C   0  0  0  0  0  0  0  0  0  0  0  0
  -26.7651  -33.0429   25.3684 C   0  0  0  0  0  0  0  0  0  0  0  0
  -24.9881  -29.1784   20.8378 C   0  0  0  0  0  0  0  0  0  0  0  0
  -26.3808  -21.6556   22.1804 C   0  0  0  0  0  0  0  0  0  0  0  0
  -26.0815  -23.6970   20.9444 C   0  0  0  0  0  0  0  0  0  0  0  0
  -22.6588   -8.6127   22.9233 C   0  0  0  0  0  0  0  0  0  0  0  0
  -26.5519  -27.3172   20.8633 C   0  0  0  0  0  0  0  0  0  0  0  0
  -21.6016   -6.6173   23.5736 C   0  0  0  0  0  0  0  0  0  0  0  0
  -21.6270   -3.8313   23.7147 C   0  0  0  0  0  0  0  0  0  0  0  0
  -20.5936   -5.8784   22.9543 C   0  0  0  0  0  0  0  0  0  0  0  0
  -25.9783  -10.5149   21.1175 C   0  0  0  0  0  0  0  0  0  0  0  0
  -26.8928  -21.0929   21.0225 C   0  0  0  0  0  0  0  0  0  0  0  0
  -26.6072  -23.0429   19.8418 C   0  0  0  0  0  0  0  0  0  0  0  0
  -28.0067  -11.1135   20.5156 C   0  0  0  0  0  0  0  0  0  0  0  0
  -27.9492   -9.2493   22.1798 C   0  0  0  0  0  0  0  0  0  0  0  0
  -24.3518  -31.8748   22.8259 C   0  0  0  0  0  0  0  0  0  0  0  0
  -22.1543  -31.7168   20.4451 C   0  0  0  0  0  0  0  0  0  0  0  0
  -20.9404  -30.0444   17.7291 C   0  0  0  0  0  0  0  0  0  0  0  0
  -27.7927  -16.4214   18.5206 C   0  0  0  0  0  0  0  0  0  0  0  0
  -26.1324  -35.4173   26.0412 C   0  0  0  0  0  0  0  0  0  0  0  0
  -25.8231  -31.5587   20.8032 C   0  0  0  0  0  0  0  0  0  0  0  0
  -23.5597  -29.6557   20.8223 C   0  0  0  0  0  0  0  0  0  0  0  0
  -24.8313  -35.1937   25.2747 C   0  0  0  0  0  0  0  0  0  0  0  0
  -26.8230  -13.7692   16.5271 C   0  0  0  0  0  0  0  0  0  0  0  0
  -24.3336  -33.7655   25.4730 C   0  0  0  0  0  0  0  0  0  0  0  0
  -26.6380  -12.6193   17.5169 C   0  0  0  0  0  0  0  0  0  0  0  0
  -26.2103  -18.6742   20.6974 C   0  0  0  0  0  0  0  0  0  0  0  0
  -28.5390  -19.4286   20.0513 C   0  0  0  0  0  0  0  0  0  0  0  0
  -26.2791  -15.0735   17.0982 C   0  0  0  0  0  0  0  0  0  0  0  0
  -26.6940  -17.2217   20.6591 C   0  0  0  0  0  0  0  0  0  0  0  0
  -28.9729  -17.9656   20.0539 C   0  0  0  0  0  0  0  0  0  0  0  0
  -26.7023  -14.3132   19.4135 C   0  0  0  0  0  0  0  0  0  0  0  0
  -25.3461  -32.7484   24.9328 C   0  0  1  0  0  0  0  0  0  0  0  0
  -27.3586  -19.6491   21.0145 C   0  0  0  0  0  0  0  0  0  0  0  0
  -24.4463  -31.9536   21.3284 C   0  0  1  0  0  0  0  0  0  0  0  0
  -27.2428  -12.9676   18.8885 C   0  0  1  0  0  0  0  0  0  0  0  0
  -26.7493  -23.7606   18.5395 C   0  0  0  0  0  0  0  0  0  0  0  0
  -27.3582  -21.2441   24.4524 C   0  0  0  0  0  0  0  0  0  0  0  0
  -19.1117  -30.1385   16.0133 C   0  0  0  0  0  0  0  0  0  0  0  0
  -20.1532  -30.7321   22.5274 C   0  0  0  0  0  0  0  0  0  0  0  0
  -18.6892  -29.9545   20.6511 C   0  0  0  0  0  0  0  0  0  0  0  0
  -19.2279  -32.3786   20.8881 C   0  0  0  0  0  0  0  0  0  0  0  0
  -22.8805  -30.2488   15.5036 C   0  0  0  0  0  0  0  0  0  0  0  0
  -26.2634  -20.8852   23.4500 C   0  0  0  0  0  0  0  0  0  0  0  0
  -25.6431  -25.1196   20.8862 C   0  0  0  0  0  0  0  0  0  1  0  0
  -21.0213  -30.7821   20.0963 C   0  0  1  0  0  0  0  0  0  0  0  0
  -20.5448  -30.5247   16.3445 C   0  0  2  0  0  0  0  0  0  0  0  0
  -19.7997  -30.9526   21.0430 C   0  0  0  0  0  0  0  0  0  0  0  0
  -25.7887  -11.5050   20.2412 N   0  0  0  0  0  0  0  0  0  0  0  0
  -27.0171  -21.7547   19.8502 N   0  0  0  0  0  0  0  0  0  0  0  0
  -27.0406  -11.8482   19.8933 N   0  0  0  0  0  0  0  0  0  0  0  0
  -23.3737  -31.1158   20.7882 N   0  0  0  0  0  0  0  0  0  0  0  0
  -26.8745  -15.3672   18.4016 N   0  0  0  0  0  0  0  0  0  0  0  0
  -27.8458  -17.0818   19.7573 N   0  0  0  0  0  0  0  0  0  0  0  0
  -29.3187  -11.3274   20.2805 N   0  0  0  0  0  0  0  0  0  0  0  0
  -27.1178   -8.4211   22.9462 N   0  0  0  0  0  0  0  0  0  0  0  0
  -25.2648  -32.6718   23.4899 N   0  0  0  0  0  0  0  0  0  0  0  0
  -20.7218  -31.0117   18.6871 N   0  0  0  0  0  0  0  0  0  0  0  0
  -21.4420  -29.9298   15.3139 N   0  3  0  0  0  0  0  0  0  0  0  0
  -29.1939   -9.1240   22.2720 O   0  0  0  0  0  0  0  0  0  0  0  0
  -23.5118  -31.1461   23.3408 O   0  0  0  0  0  0  0  0  0  0  0  0
  -21.9664  -32.9354   20.4073 O   0  0  0  0  0  0  0  0  0  0  0  0
  -21.3943  -28.9219   17.9404 O   0  0  0  0  0  0  0  0  0  0  0  0
  -28.5227  -16.7531   17.5782 O   0  0  0  0  0  0  0  0  0  0  0  0
  -21.5909   -8.0003   23.5038 O   0  0  0  0  0  0  0  0  0  0  0  0
  -26.7858  -25.9674   20.8771 O   0  0  0  0  0  0  0  0  0  1  0  0
  -21.6402   -2.4935   23.7812 F   0  0  0  0  0  0  0  0  0  0  0  0
  -19.6110   -6.5012   22.2892 F   0  0  0  0  0  0  0  0  0  0  0  0
  1  2  1  0  0  0  0
  1  5  2  0  0  0  0
  2  6  2  0  0  0  0
  3  8  2  0  0  0  0
  3 16  1  0  0  0  0
  4  9  1  0  0  0  0
  4 16  2  0  0  0  0
  5 18  1  0  0  0  0
  6 20  1  0  0  0  0
  7 10  2  0  0  0  0
  7 19  1  0  0  0  0
  8 24  1  0  0  0  0
  9 24  2  0  0  0  0
 10 25  1  0  0  0  0
 11 12  2  0  0  0  0
 11 26  1  0  0  0  0
 12 27  1  0  0  0  0
 13 21  1  0  0  0  0
 13 25  2  0  0  0  0
 14 22  1  0  0  0  0
 14 23  2  0  0  0  0
 15 27  2  0  0  0  0
 15 28  1  0  0  0  0
 16 29  1  0  0  0  0
 17 29  1  0  0  0  0
 17 32  2  0  0  0  0
 17 33  1  0  0  0  0
 18 20  2  0  0  0  0
 18 38  1  0  0  0  0
 19 21  2  0  0  0  0
 19 39  1  0  0  0  0
 20 51  1  0  0  0  0
 21 40  1  0  0  0  0
 22 30  2  0  0  0  0
 22 62  1  0  0  0  0
 23 31  1  0  0  0  0
 23 63  1  0  0  0  0
 24 83  1  0  0  0  0
 25 84  1  0  0  0  0
 26 28  2  0  0  0  0
 26 83  1  0  0  0  0
 27 85  1  0  0  0  0
 28 86  1  0  0  0  0
 29 67  2  0  0  0  0
 30 52  1  0  0  0  0
 30 68  1  0  0  0  0
 31 55  1  0  0  0  0
 31 68  2  0  0  0  0
 32 69  1  0  0  0  0
 32 73  1  0  0  0  0
 33 74  1  0  0  0  0
 33 78  2  0  0  0  0
 34 53  1  0  0  0  0
 34 75  1  0  0  0  0
 34 79  2  0  0  0  0
 35 64  1  0  0  0  0
 35 70  1  0  0  0  0
 35 80  2  0  0  0  0
 36 65  1  0  0  0  0
 36 76  1  0  0  0  0
 36 81  2  0  0  0  0
 37 71  1  0  0  0  0
 37 72  1  0  0  0  0
 37 82  2  0  0  0  0
 38 41  1  0  0  0  0
 39 53  1  0  0  0  0
 40 70  1  0  0  0  0
 41 43  1  0  0  0  0
 42 44  1  0  0  0  0
 42 47  1  0  0  0  0
 43 51  1  0  0  0  0
 44 54  1  0  0  0  0
 45 48  1  0  0  0  0
 45 52  1  0  0  0  0
 46 49  1  0  0  0  0
 46 52  1  0  0  0  0
 47 71  1  0  0  0  0
 48 72  1  0  0  0  0
 49 72  1  0  0  0  0
 50 54  1  0  0  0  0
 50 71  1  0  0  0  0
 51 75  1  0  0  0  0
 53 70  1  0  0  0  0
 54 69  1  0  0  0  0
 56 62  1  0  0  0  0
 57 65  1  0  0  0  0
 58 66  1  0  0  0  0
 59 66  1  0  0  0  0
 60 66  1  0  0  0  0
 61 77  1  0  0  0  0
 63 84  1  0  0  0  0
 64 66  1  0  0  0  0
 64 76  1  0  0  0  0
 65 77  1  0  0  0  0
 67 69  1  0  0  0  0
M  CHG  1  77   1
M  ISO  4  37 100  63 101  72 100  84 101
M  END
> <Batch ID>
0178

> <Smiles>
CCc1cc([101CH2:1][101O:1]c2ccc3c(c2)CN(C(=O)C(NC(=O)C(C)NC)C(C)(C)C)C(C(=O)NC2CCCc4ccccc42)C3)c(C)nc1C1CC[100N:0]([100C:0](=O)N2CCCC(n3nc(-c4ccc(Oc5ccc(F)cc5F)cc4)c(C(N)=O)c3N)C2)CC1

> <Shape>
0.243

> <Color>
0.072

> <Negative vol penalty>
0.000

$$$$

  -OEChem-04052322553D

 85 94  0     1  0  0  0  0  0999 V2000
  -19.8318  -31.4426   20.7468 C   0  0  0  0  0  0  0  0  0  0  0  0
  -20.9487  -31.3746   21.5719 C   0  0  0  0  0  0  0  0  0  0  0  0
  -27.7784  -16.9629   18.9941 C   0  0  0  0  0  0  0  0  0  0  0  0
  -27.6568  -17.1948   21.3959 C   0  0  0  0  0  0  0  0  0  0  0  0
  -18.8321  -30.4779   20.8527 C   0  0  0  0  0  0  0  0  0  0  0  0
  -21.0720  -30.3354   22.4948 C   0  0  0  0  0  0  0  0  0  0  0  0
  -22.8987  -22.8638   22.8019 C   0  0  0  0  0  0  0  0  0  0  0  0
  -28.4337  -18.1913   18.9087 C   0  0  0  0  0  0  0  0  0  0  0  0
  -28.3122  -18.4231   21.3105 C   0  0  0  0  0  0  0  0  0  0  0  0
  -22.6722  -21.8687   21.8520 C   0  0  0  0  0  0  0  0  0  0  0  0
  -29.6322  -21.7877   21.6939 C   0  0  0  0  0  0  0  0  0  0  0  0
  -29.1244  -22.8471   22.4458 C   0  0  0  0  0  0  0  0  0  0  0  0
  -23.3564  -23.3871   20.1069 C   0  0  0  0  0  0  0  0  0  0  0  0
  -27.0219  -22.6753   21.2679 C   0  0  0  0  0  0  0  0  0  0  0  0
  -27.3899  -16.4647   20.2377 C   0  0  0  0  0  0  0  0  0  0  0  0
  -27.3014  -13.9267   20.4791 C   0  0  0  0  0  0  0  0  0  0  0  0
  -18.9381  -29.4337   21.7862 C   0  0  0  0  0  0  0  0  0  0  0  0
  -23.3461  -24.1336   22.4096 C   0  0  0  0  0  0  0  0  0  0  0  0
  -20.0851  -29.3386   22.6002 C   0  0  0  0  0  0  0  0  0  0  0  0
  -23.5903  -24.3958   21.0540 C   0  0  0  0  0  0  0  0  0  0  0  0
  -28.7006  -18.9214   20.0668 C   0  0  0  0  0  0  0  0  0  0  0  0
  -22.8983  -22.1312   20.5040 C   0  0  0  0  0  0  0  0  0  0  0  0
  -28.8349  -21.1721   20.7290 C   0  0  0  0  0  0  0  0  0  0  0  0
  -27.8193  -23.2909   22.2328 C   0  0  0  0  0  0  0  0  0  0  0  0
  -27.5298  -21.6159   20.5160 C   0  0  0  0  0  0  0  0  0  0  0  0
  -26.7124  -15.1961   20.3266 C   0  0  0  0  0  0  0  0  0  0  0  0
  -21.1236  -19.2730   15.8858 C   0  0  0  0  0  0  0  0  0  0  0  0
  -23.3918  -19.1663   17.2898 C   0  0  0  0  0  0  0  0  0  0  0  0
  -21.9434  -18.1675   15.8290 C   0  0  0  0  0  0  0  0  0  0  0  0
  -22.5724  -20.2722   17.3462 C   0  0  0  0  0  0  0  0  0  0  0  0
  -26.2391  -13.0567   20.5102 C   0  0  0  0  0  0  0  0  0  0  0  0
  -28.6852  -13.5661   20.5835 C   0  0  0  0  0  0  0  0  0  0  0  0
  -22.1781  -27.0832   22.6069 C   0  0  0  0  0  0  0  0  0  0  0  0
  -25.0871  -27.8959   21.4241 C   0  0  0  0  0  0  0  0  0  0  0  0
  -27.7887  -26.7999   20.2364 C   0  0  0  0  0  0  0  0  0  0  0  0
  -20.6651  -13.3920   18.3627 C   0  0  0  0  0  0  0  0  0  0  0  0
  -17.8303  -28.4121   21.8530 C   0  0  0  0  0  0  0  0  0  0  0  0
  -23.6112  -25.1878   23.4492 C   0  0  0  0  0  0  0  0  0  0  0  0
  -24.0902  -25.7363   20.5831 C   0  0  0  0  0  0  0  0  0  0  0  0
  -17.8364  -27.6128   23.1520 C   0  0  0  0  0  0  0  0  0  0  0  0
  -21.6323  -12.7913   21.7065 C   0  0  0  0  0  0  0  0  0  0  0  0
  -19.2349  -27.0819   23.4291 C   0  0  0  0  0  0  0  0  0  0  0  0
  -23.0869  -13.2496   21.7660 C   0  0  0  0  0  0  0  0  0  0  0  0
  -20.4400  -14.7089   14.9112 C   0  0  0  0  0  0  0  0  0  0  0  0
  -20.8131  -13.7076   20.8077 C   0  0  0  0  0  0  0  0  0  0  0  0
  -20.0704  -13.6899   15.9778 C   0  0  0  0  0  0  0  0  0  0  0  0
  -21.4964  -15.3617   16.9429 C   0  0  0  0  0  0  0  0  0  0  0  0
  -22.8084  -14.2408   19.4351 C   0  0  0  0  0  0  0  0  0  0  0  0
  -20.2263  -28.2346   23.6325 C   0  0  1  0  0  0  0  0  0  0  0  0
  -23.5749  -26.6051   22.8858 C   0  0  1  0  0  0  0  0  0  0  0  0
  -20.7694  -15.9539   15.7357 C   0  0  1  0  0  0  0  0  0  0  0  0
  -23.6790  -13.3571   20.3522 C   0  0  1  0  0  0  0  0  0  0  0  0
  -19.8552  -19.3412   15.1061 C   0  0  0  0  0  0  0  0  0  0  0  0
  -24.6601  -19.0976   18.0696 C   0  0  0  0  0  0  0  0  0  0  0  0
  -30.0556  -26.3326   19.2668 C   0  0  0  0  0  0  0  0  0  0  0  0
  -23.6266  -29.4255   19.2248 C   0  0  0  0  0  0  0  0  0  0  0  0
  -25.7707  -29.4770   17.9330 C   0  0  0  0  0  0  0  0  0  0  0  0
  -25.6294  -30.5976   20.1572 C   0  0  0  0  0  0  0  0  0  0  0  0
  -29.0899  -26.9899   22.8878 C   0  0  0  0  0  0  0  0  0  0  0  0
  -21.5964  -16.9749   14.9750 C   0  0  0  0  0  0  0  0  0  0  0  0
  -22.9164  -21.4520   18.1896 C   0  0  0  0  0  0  0  0  0  1  0  0
  -25.6680  -28.0723   20.0419 C   0  0  1  0  0  0  0  0  0  0  0  0
  -29.2853  -26.9963   20.3977 C   0  0  2  0  0  0  0  0  0  0  0  0
  -25.1624  -29.3684   19.3476 C   0  0  0  0  0  0  0  0  0  0  0  0
  -25.3793  -15.1419   20.2648 N   0  0  0  0  0  0  0  0  0  0  0  0
  -23.0920  -18.0941   16.5301 N   0  0  0  0  0  0  0  0  0  0  0  0
  -21.4236  -20.3453   16.6452 N   0  0  0  0  0  0  0  0  0  0  0  0
  -25.1218  -13.8279   20.3791 N   0  0  0  0  0  0  0  0  0  0  0  0
  -24.3284  -26.7363   21.6370 N   0  0  0  0  0  0  0  0  0  0  0  0
  -21.4001  -13.8257   19.4716 N   0  0  0  0  0  0  0  0  0  0  0  0
  -20.8456  -14.0665   17.1558 N   0  0  0  0  0  0  0  0  0  0  0  0
  -26.1609  -11.7149   20.6365 N   0  0  0  0  0  0  0  0  0  0  0  0
  -29.6467  -14.5846   20.5332 N   0  0  0  0  0  0  0  0  0  0  0  0
  -21.5689  -27.6992   23.6835 N   0  0  0  0  0  0  0  0  0  0  0  0
  -27.1171  -28.0034   20.1962 N   0  0  0  0  0  0  0  0  0  0  0  0
  -29.7483  -26.4119   21.6881 N   0  3  0  0  0  0  0  0  0  0  0  0
  -29.0588  -12.3744   20.7011 O   0  0  0  0  0  0  0  0  0  0  0  0
  -21.6897  -26.9077   21.4968 O   0  0  0  0  0  0  0  0  0  0  0  0
  -25.3048  -28.7519   22.2853 O   0  0  0  0  0  0  0  0  0  0  0  0
  -27.2679  -25.6899   20.1507 O   0  0  0  0  0  0  0  0  0  0  0  0
  -19.8478  -12.4661   18.4554 O   0  0  0  0  0  0  0  0  0  0  0  0
  -29.3403  -20.1199   19.9839 O   0  0  0  0  0  0  0  0  0  0  0  0
  -22.6731  -21.1431   19.5567 O   0  0  0  0  0  0  0  0  0  1  0  0
  -27.3312  -24.3073   22.9560 F   0  0  0  0  0  0  0  0  0  0  0  0
  -26.7587  -21.0276   19.5912 F   0  0  0  0  0  0  0  0  0  0  0  0
  1  2  1  0  0  0  0
  1  5  2  0  0  0  0
  2  6  2  0  0  0  0
  3  8  2  0  0  0  0
  3 15  1  0  0  0  0
  4  9  1  0  0  0  0
  4 15  2  0  0  0  0
  5 17  1  0  0  0  0
  6 19  1  0  0  0  0
  7 10  2  0  0  0  0
  7 18  1  0  0  0  0
  8 21  1  0  0  0  0
  9 21  2  0  0  0  0
 10 22  1  0  0  0  0
 11 12  2  0  0  0  0
 11 23  1  0  0  0  0
 12 24  1  0  0  0  0
 13 20  1  0  0  0  0
 13 22  2  0  0  0  0
 14 24  2  0  0  0  0
 14 25  1  0  0  0  0
 15 26  1  0  0  0  0
 16 26  1  0  0  0  0
 16 31  2  0  0  0  0
 16 32  1  0  0  0  0
 17 19  2  0  0  0  0
 17 37  1  0  0  0  0
 18 20  2  0  0  0  0
 18 38  1  0  0  0  0
 19 49  1  0  0  0  0
 20 39  1  0  0  0  0
 21 82  1  0  0  0  0
 22 83  1  0  0  0  0
 23 25  2  0  0  0  0
 23 82  1  0  0  0  0
 24 84  1  0  0  0  0
 25 85  1  0  0  0  0
 26 65  2  0  0  0  0
 27 29  1  0  0  0  0
 27 53  1  0  0  0  0
 27 67  2  0  0  0  0
 28 30  2  0  0  0  0
 28 54  1  0  0  0  0
 28 66  1  0  0  0  0
 29 60  1  0  0  0  0
 29 66  2  0  0  0  0
 30 61  1  0  0  0  0
 30 67  1  0  0  0  0
 31 68  1  0  0  0  0
 31 72  1  0  0  0  0
 32 73  1  0  0  0  0
 32 77  2  0  0  0  0
 33 50  1  0  0  0  0
 33 74  1  0  0  0  0
 33 78  2  0  0  0  0
 34 62  1  0  0  0  0
 34 69  1  0  0  0  0
 34 79  2  0  0  0  0
 35 63  1  0  0  0  0
 35 75  1  0  0  0  0
 35 80  2  0  0  0  0
 36 70  1  0  0  0  0
 36 71  1  0  0  0  0
 36 81  2  0  0  0  0
 37 40  1  0  0  0  0
 38 50  1  0  0  0  0
 39 69  1  0  0  0  0
 40 42  1  0  0  0  0
 41 43  1  0  0  0  0
 41 45  1  0  0  0  0
 42 49  1  0  0  0  0
 43 52  1  0  0  0  0
 44 46  1  0  0  0  0
 44 51  1  0  0  0  0
 45 70  1  0  0  0  0
 46 71  1  0  0  0  0
 47 51  1  0  0  0  0
 47 71  1  0  0  0  0
 48 52  1  0  0  0  0
 48 70  1  0  0  0  0
 49 74  1  0  0  0  0
 50 69  1  0  0  0  0
 51 60  1  0  0  0  0
 52 68  1  0  0  0  0
 55 63  1  0  0  0  0
 56 64  1  0  0  0  0
 57 64  1  0  0  0  0
 58 64  1  0  0  0  0
 59 76  1  0  0  0  0
 61 83  1  0  0  0  0
 62 64  1  0  0  0  0
 62 75  1  0  0  0  0
 63 76  1  0  0  0  0
 65 68  1  0  0  0  0
M  CHG  1  76   1
M  ISO  4  36 100  61 101  71 100  83 101
M  END
> <Batch ID>
0178

> <Smiles>
CNC(C)C(=O)NC(C(=O)N1Cc2cc([101O:1][101CH2:1]c3nc(C)c(CC4CC[100N:0]([100C:0](=O)N5CCCC(n6nc(-c7ccc(Oc8ccc(F)cc8F)cc7)c(C(N)=O)c6N)C5)C4)nc3C)ccc2CC1C(=O)NC1CCCc2ccccc21)C(C)(C)C

> <Shape>
0.228

> <Color>
0.068

> <Negative vol penalty>
0.000

$$$$

  -OEChem-04052322553D

 85 95  0     1  0  0  0  0  0999 V2000
  -28.7037  -11.1366   19.1695 C   0  0  0  0  0  0  0  0  0  0  0  0
  -28.7461  -12.5164   18.9969 C   0  0  0  0  0  0  0  0  0  0  0  0
  -22.3582  -25.4884   24.0614 C   0  0  0  0  0  0  0  0  0  0  0  0
  -22.3612  -27.0258   22.1977 C   0  0  0  0  0  0  0  0  0  0  0  0
  -27.5670  -10.5375   19.7107 C   0  0  0  0  0  0  0  0  0  0  0  0
  -27.6512  -13.2978   19.3644 C   0  0  0  0  0  0  0  0  0  0  0  0
  -29.0025  -17.4571   21.9177 C   0  0  0  0  0  0  0  0  0  0  0  0
  -20.9847  -25.6766   24.2146 C   0  0  0  0  0  0  0  0  0  0  0  0
  -20.9876  -27.2140   22.3508 C   0  0  0  0  0  0  0  0  0  0  0  0
  -29.5060  -18.5245   21.1754 C   0  0  0  0  0  0  0  0  0  0  0  0
  -18.9235  -28.9681   24.3741 C   0  0  0  0  0  0  0  0  0  0  0  0
  -18.4385  -30.2748   24.3206 C   0  0  0  0  0  0  0  0  0  0  0  0
  -27.3528  -19.6068   21.2826 C   0  0  0  0  0  0  0  0  0  0  0  0
  -17.0604  -29.6857   22.4257 C   0  0  0  0  0  0  0  0  0  0  0  0
  -29.2565  -24.7323   18.9725 C   0  0  0  0  0  0  0  0  0  0  0  0
  -31.5820  -24.5583   18.8395 C   0  0  0  0  0  0  0  0  0  0  0  0
  -23.0465  -26.1631   23.0531 C   0  0  0  0  0  0  0  0  0  0  0  0
  -25.1080  -25.0029   22.0981 C   0  0  0  0  0  0  0  0  0  0  0  0
  -26.4614  -11.3130   20.0940 C   0  0  0  0  0  0  0  0  0  0  0  0
  -27.6652  -17.4515   22.3395 C   0  0  0  0  0  0  0  0  0  0  0  0
  -26.4981  -12.7084   19.9100 C   0  0  0  0  0  0  0  0  0  0  0  0
  -26.8355  -18.5394   22.0324 C   0  0  0  0  0  0  0  0  0  0  0  0
  -30.4828  -25.3544   19.0884 C   0  0  0  0  0  0  0  0  0  0  0  0
  -20.2993  -26.5394   23.3592 C   0  0  0  0  0  0  0  0  0  0  0  0
  -28.6803  -19.5982   20.8553 C   0  0  0  0  0  0  0  0  0  0  0  0
  -18.4770  -28.0202   23.4533 C   0  0  0  0  0  0  0  0  0  0  0  0
  -17.5069  -30.6336   23.3464 C   0  0  0  0  0  0  0  0  0  0  0  0
  -17.5454  -28.3790   22.4791 C   0  0  0  0  0  0  0  0  0  0  0  0
  -24.4655  -25.9695   22.8948 C   0  0  0  0  0  0  0  0  0  0  0  0
  -26.4480  -25.2349   22.2906 C   0  0  0  0  0  0  0  0  0  0  0  0
  -30.2508  -22.7638   18.4217 C   0  0  0  0  0  0  0  0  0  0  0  0
  -24.5440  -23.9862   21.2592 C   0  0  0  0  0  0  0  0  0  0  0  0
  -25.1505  -15.5840   21.7989 C   0  0  0  0  0  0  0  0  0  0  0  0
  -23.7562  -17.4749   24.0356 C   0  0  0  0  0  0  0  0  0  0  0  0
  -23.6870  -20.4778   25.6556 C   0  0  0  0  0  0  0  0  0  0  0  0
  -30.5970  -29.0128   22.5075 C   0  0  0  0  0  0  0  0  0  0  0  0
  -25.2365  -10.6155   20.6307 C   0  0  0  0  0  0  0  0  0  0  0  0
  -27.1447  -16.3050   23.1624 C   0  0  0  0  0  0  0  0  0  0  0  0
  -25.3979  -18.5911   22.4787 C   0  0  0  0  0  0  0  0  0  0  0  0
  -24.2643  -11.5532   21.3419 C   0  0  0  0  0  0  0  0  0  0  0  0
  -28.8608  -28.1702   25.6335 C   0  0  0  0  0  0  0  0  0  0  0  0
  -24.0340  -12.8125   20.5126 C   0  0  0  0  0  0  0  0  0  0  0  0
  -27.5891  -27.4847   25.1270 C   0  0  0  0  0  0  0  0  0  0  0  0
  -30.6870  -20.8844   16.7128 C   0  0  0  0  0  0  0  0  0  0  0  0
  -29.2040  -20.9700   16.8958 C   0  0  0  0  0  0  0  0  0  0  0  0
  -32.0353  -27.3732   19.6003 C   0  0  0  0  0  0  0  0  0  0  0  0
  -29.3810  -29.2159   24.6488 C   0  0  0  0  0  0  0  0  0  0  0  0
  -31.8328  -28.6606   20.3832 C   0  0  0  0  0  0  0  0  0  0  0  0
  -30.0006  -27.1789   20.8268 C   0  0  0  0  0  0  0  0  0  0  0  0
  -28.2821  -28.0566   22.7736 C   0  0  0  0  0  0  0  0  0  0  0  0
  -30.6120  -26.8147   19.4635 C   0  0  2  0  0  0  0  0  0  0  0  0
  -25.3401  -13.5924   20.3195 C   0  0  1  0  0  0  0  0  0  0  0  0
  -25.6268  -16.1654   23.0999 C   0  0  1  0  0  0  0  0  0  0  0  0
  -27.7802  -26.9396   23.6980 C   0  0  2  0  0  0  0  0  0  0  0  0
  -30.1222  -21.3241   18.0504 C   0  0  0  0  0  0  0  0  0  0  0  0
  -22.4091  -21.7428   27.4061 C   0  0  0  0  0  0  0  0  0  0  0  0
  -21.5128  -17.9792   22.0299 C   0  0  0  0  0  0  0  0  0  0  0  0
  -20.7994  -19.9322   23.4246 C   0  0  0  0  0  0  0  0  0  0  0  0
  -20.7475  -17.6307   24.3852 C   0  0  0  0  0  0  0  0  0  0  0  0
  -26.0709  -20.7096   27.3941 C   0  0  0  0  0  0  0  0  0  0  0  0
  -30.2091  -20.3624   19.2016 C   0  0  0  0  0  0  0  0  0  1  0  0
  -22.9746  -18.7661   24.0072 C   0  0  1  0  0  0  0  0  0  0  0  0
  -23.5898  -20.8248   27.1302 C   0  0  2  0  0  0  0  0  0  0  0  0
  -21.5351  -18.5755   23.4515 C   0  0  0  0  0  0  0  0  0  0  0  0
  -29.1032  -23.4338   18.6397 N   0  0  0  0  0  0  0  0  0  0  0  0
  -31.5024  -23.2542   18.5027 N   0  0  0  0  0  0  0  0  0  0  0  0
  -25.3265  -26.7569   23.5450 N   0  0  0  0  0  0  0  0  0  0  0  0
  -26.5238  -26.2853   23.1573 N   0  0  0  0  0  0  0  0  0  0  0  0
  -24.9340  -17.4434   23.2756 N   0  0  0  0  0  0  0  0  0  0  0  0
  -29.5124  -28.6453   23.3097 N   0  0  0  0  0  0  0  0  0  0  0  0
  -30.7034  -28.3888   21.2620 N   0  0  0  0  0  0  0  0  0  0  0  0
  -27.5571  -24.6408   21.8013 N   0  0  0  0  0  0  0  0  0  0  0  0
  -23.1484  -23.8868   21.1760 N   0  0  0  0  0  0  0  0  0  0  0  0
  -25.6680  -14.3338   21.5184 N   0  0  0  0  0  0  0  0  0  0  0  0
  -23.0256  -19.3040   25.3624 N   0  0  0  0  0  0  0  0  0  0  0  0
  -24.8333  -21.5091   27.5844 N   0  3  0  0  0  0  0  0  0  0  0  0
  -25.2564  -23.1789   20.6155 O   0  0  0  0  0  0  0  0  0  0  0  0
  -24.3699  -16.2217   21.1019 O   0  0  0  0  0  0  0  0  0  0  0  0
  -23.3408  -16.5313   24.7130 O   0  0  0  0  0  0  0  0  0  0  0  0
  -24.2864  -21.1799   24.8442 O   0  0  0  0  0  0  0  0  0  0  0  0
  -31.4507  -29.8135   22.9088 O   0  0  0  0  0  0  0  0  0  0  0  0
  -18.9589  -26.7231   23.5082 O   0  0  0  0  0  0  0  0  0  0  0  0
  -29.1733  -20.6502   20.1238 O   0  0  0  0  0  0  0  0  0  1  0  0
  -17.0400  -31.8880   23.2962 F   0  0  0  0  0  0  0  0  0  0  0  0
  -17.1119  -27.4724   21.5925 F   0  0  0  0  0  0  0  0  0  0  0  0
  1  2  1  0  0  0  0
  1  5  2  0  0  0  0
  2  6  2  0  0  0  0
  3  8  2  0  0  0  0
  3 17  1  0  0  0  0
  4  9  1  0  0  0  0
  4 17  2  0  0  0  0
  5 19  1  0  0  0  0
  6 21  1  0  0  0  0
  7 10  2  0  0  0  0
  7 20  1  0  0  0  0
  8 24  1  0  0  0  0
  9 24  2  0  0  0  0
 10 25  1  0  0  0  0
 11 12  2  0  0  0  0
 11 26  1  0  0  0  0
 12 27  1  0  0  0  0
 13 22  1  0  0  0  0
 13 25  2  0  0  0  0
 14 27  2  0  0  0  0
 14 28  1  0  0  0  0
 15 23  1  0  0  0  0
 15 65  2  0  0  0  0
 16 23  2  0  0  0  0
 16 66  1  0  0  0  0
 17 29  1  0  0  0  0
 18 29  1  0  0  0  0
 18 30  2  0  0  0  0
 18 32  1  0  0  0  0
 19 21  2  0  0  0  0
 19 37  1  0  0  0  0
 20 22  2  0  0  0  0
 20 38  1  0  0  0  0
 21 52  1  0  0  0  0
 22 39  1  0  0  0  0
 23 51  1  0  0  0  0
 24 82  1  0  0  0  0
 25 83  1  0  0  0  0
 26 28  2  0  0  0  0
 26 82  1  0  0  0  0
 27 84  1  0  0  0  0
 28 85  1  0  0  0  0
 29 67  2  0  0  0  0
 30 68  1  0  0  0  0
 30 72  1  0  0  0  0
 31 55  1  0  0  0  0
 31 65  1  0  0  0  0
 31 66  2  0  0  0  0
 32 73  1  0  0  0  0
 32 77  2  0  0  0  0
 33 53  1  0  0  0  0
 33 74  1  0  0  0  0
 33 78  2  0  0  0  0
 34 62  1  0  0  0  0
 34 69  1  0  0  0  0
 34 79  2  0  0  0  0
 35 63  1  0  0  0  0
 35 75  1  0  0  0  0
 35 80  2  0  0  0  0
 36 70  1  0  0  0  0
 36 71  1  0  0  0  0
 36 81  2  0  0  0  0
 37 40  1  0  0  0  0
 38 53  1  0  0  0  0
 39 69  1  0  0  0  0
 40 42  1  0  0  0  0
 41 43  1  0  0  0  0
 41 47  1  0  0  0  0
 42 52  1  0  0  0  0
 43 54  1  0  0  0  0
 44 45  1  0  0  0  0
 44 55  1  0  0  0  0
 45 55  1  0  0  0  0
 46 48  1  0  0  0  0
 46 51  1  0  0  0  0
 47 70  1  0  0  0  0
 48 71  1  0  0  0  0
 49 51  1  0  0  0  0
 49 71  1  0  0  0  0
 50 54  1  0  0  0  0
 50 70  1  0  0  0  0
 52 74  1  0  0  0  0
 53 69  1  0  0  0  0
 54 68  1  0  0  0  0
 55 61  1  0  0  0  0
 56 63  1  0  0  0  0
 57 64  1  0  0  0  0
 58 64  1  0  0  0  0
 59 64  1  0  0  0  0
 60 76  1  0  0  0  0
 61 83  1  0  0  0  0
 62 64  1  0  0  0  0
 62 75  1  0  0  0  0
 63 76  1  0  0  0  0
 67 68  1  0  0  0  0
M  CHG  1  76   1
M  ISO  4  36 100  61 101  71 100  83 101
M  END
> <Batch ID>
0178

> <Smiles>
CNC(C)C(=O)NC(C(=O)N1Cc2cc([101O:1][101CH2:1]C3(c4ncc(C5CC[100N:0]([100C:0](=O)N6CCCC(n7nc(-c8ccc(Oc9ccc(F)cc9F)cc8)c(C(N)=O)c7N)C6)C5)cn4)CC3)ccc2CC1C(=O)NC1CCCc2ccccc21)C(C)(C)C

> <Shape>
0.202

> <Color>
0.069

> <Negative vol penalty>
0.000

$$$$

  -OEChem-04052322553D

 82 91  0     1  0  0  0  0  0999 V2000
  -28.2955  -23.7136   18.4477 C   0  0  0  0  0  0  0  0  0  0  0  0
  -27.0919  -24.0393   19.0647 C   0  0  0  0  0  0  0  0  0  0  0  0
  -27.4383  -14.6659   20.9142 C   0  0  0  0  0  0  0  0  0  0  0  0
  -25.1533  -14.9757   20.1931 C   0  0  0  0  0  0  0  0  0  0  0  0
  -29.4806  -24.3112   18.8748 C   0  0  0  0  0  0  0  0  0  0  0  0
  -27.0729  -24.9621   20.1100 C   0  0  0  0  0  0  0  0  0  0  0  0
  -23.3061  -28.3181   19.6706 C   0  0  0  0  0  0  0  0  0  0  0  0
  -27.2672  -13.2826   20.8620 C   0  0  0  0  0  0  0  0  0  0  0  0
  -24.9823  -13.5924   20.1408 C   0  0  0  0  0  0  0  0  0  0  0  0
  -22.0287  -27.8926   20.0326 C   0  0  0  0  0  0  0  0  0  0  0  0
  -25.7729  -11.0640   18.0425 C   0  0  0  0  0  0  0  0  0  0  0  0
  -25.1308  -10.5337   16.9236 C   0  0  0  0  0  0  0  0  0  0  0  0
  -22.2704  -28.9987   22.1627 C   0  0  0  0  0  0  0  0  0  0  0  0
  -21.7999  -23.3406   21.0098 C   0  0  0  0  0  0  0  0  0  0  0  0
  -23.4104   -9.6121   18.3476 C   0  0  0  0  0  0  0  0  0  0  0  0
  -21.3726  -25.4531   22.6832 C   0  0  0  0  0  0  0  0  0  0  0  0
  -26.3813  -15.5125   20.5798 C   0  0  0  0  0  0  0  0  0  0  0  0
  -26.9988  -17.7838   19.5961 C   0  0  0  0  0  0  0  0  0  0  0  0
  -29.4747  -25.2489   19.9194 C   0  0  0  0  0  0  0  0  0  0  0  0
  -24.0808  -29.0792   20.5577 C   0  0  0  0  0  0  0  0  0  0  0  0
  -28.2592  -25.5717   20.5524 C   0  0  0  0  0  0  0  0  0  0  0  0
  -23.5563  -29.4348   21.8085 C   0  0  0  0  0  0  0  0  0  0  0  0
  -20.9461  -24.3636   20.6125 C   0  0  0  0  0  0  0  0  0  0  0  0
  -20.7230  -25.4436   21.4593 C   0  0  0  0  0  0  0  0  0  0  0  0
  -26.0393  -12.7458   20.4752 C   0  0  0  0  0  0  0  0  0  0  0  0
  -21.5118  -28.2304   21.2799 C   0  0  0  0  0  0  0  0  0  0  0  0
  -25.2338  -10.8683   19.3141 C   0  0  0  0  0  0  0  0  0  0  0  0
  -23.9495   -9.8078   17.0761 C   0  0  0  0  0  0  0  0  0  0  0  0
  -24.0525  -10.1424   19.4666 C   0  0  0  0  0  0  0  0  0  0  0  0
  -26.5572  -16.9416   20.6341 C   0  0  0  0  0  0  0  0  0  0  0  0
  -22.4014  -23.4443   22.2536 C   0  0  0  0  0  0  0  0  0  0  0  0
  -26.9940  -19.0412   20.1487 C   0  0  0  0  0  0  0  0  0  0  0  0
  -27.3792  -17.4586   18.2525 C   0  0  0  0  0  0  0  0  0  0  0  0
  -26.8714  -28.6647   22.0222 C   0  0  0  0  0  0  0  0  0  0  0  0
  -26.3878  -31.7296   22.9683 C   0  0  0  0  0  0  0  0  0  0  0  0
  -24.1794  -34.2577   23.5833 C   0  0  0  0  0  0  0  0  0  0  0  0
  -23.9764  -22.2929   23.8474 C   0  0  0  0  0  0  0  0  0  0  0  0
  -30.7875  -25.8331   20.3779 C   0  0  0  0  0  0  0  0  0  0  0  0
  -25.4464  -29.5531   20.1417 C   0  0  0  0  0  0  0  0  0  0  0  0
  -24.3396  -30.2673   22.7893 C   0  0  0  0  0  0  0  0  0  0  0  0
  -30.6299  -27.0811   21.2427 C   0  0  0  0  0  0  0  0  0  0  0  0
  -27.0850  -20.8194   24.7653 C   0  0  0  0  0  0  0  0  0  0  0  0
  -18.8968  -23.7034   19.1849 C   0  0  0  0  0  0  0  0  0  0  0  0
  -20.0634  -22.9337   18.6492 C   0  0  0  0  0  0  0  0  0  0  0  0
  -29.5624  -26.8598   22.3097 C   0  0  0  0  0  0  0  0  0  0  0  0
  -27.3105  -19.7512   23.6928 C   0  0  0  0  0  0  0  0  0  0  0  0
  -25.6098  -20.9410   25.1432 C   0  0  0  0  0  0  0  0  0  0  0  0
  -24.9200  -20.0784   22.9411 C   0  0  0  0  0  0  0  0  0  0  0  0
  -20.2828  -24.2842   19.2780 C   0  0  0  0  0  0  0  0  0  0  0  0
  -28.1944  -26.5866   21.6731 C   0  0  1  0  0  0  0  0  0  0  0  0
  -26.3485  -29.8889   21.3252 C   0  0  1  0  0  0  0  0  0  0  0  0
  -26.3825  -19.9645   22.4809 C   0  0  2  0  0  0  0  0  0  0  0  0
  -18.3742  -26.3489   21.5404 C   0  0  0  0  0  0  0  0  0  0  0  0
  -24.0784  -36.6340   24.3834 C   0  0  0  0  0  0  0  0  0  0  0  0
  -26.8142  -30.7795   25.8363 C   0  0  0  0  0  0  0  0  0  0  0  0
  -25.7841  -32.9209   26.6249 C   0  0  0  0  0  0  0  0  0  0  0  0
  -27.8919  -32.9696   25.2917 C   0  0  0  0  0  0  0  0  0  0  0  0
  -23.0204  -35.1917   21.0254 C   0  0  0  0  0  0  0  0  0  0  0  0
  -19.8070  -26.5844   21.0795 C   0  0  1  0  0  0  0  0  0  1  0  0
  -25.7137  -32.3912   24.1459 C   0  0  1  0  0  0  0  0  0  0  0  0
  -24.1816  -35.7192   23.1729 C   0  0  2  0  0  0  0  0  0  0  0  0
  -26.5368  -32.2480   25.4572 C   0  0  0  0  0  0  0  0  0  0  0  0
  -22.2090  -24.4778   23.1037 N   0  0  0  0  0  0  0  0  0  0  0  0
  -26.2914  -17.6077   21.7609 N   0  0  0  0  0  0  0  0  0  0  0  0
  -26.5668  -18.8819   21.4341 N   0  0  0  0  0  0  0  0  0  0  0  0
  -25.6724  -30.7012   22.3387 N   0  0  0  0  0  0  0  0  0  0  0  0
  -24.7920  -21.1458   23.9457 N   0  0  0  0  0  0  0  0  0  0  0  0
  -27.3137  -20.2566   19.6556 N   0  0  0  0  0  0  0  0  0  0  0  0
  -27.3255  -16.1175   17.8490 N   0  0  0  0  0  0  0  0  0  0  0  0
  -23.2696  -22.3969   22.6498 N   0  0  0  0  0  0  0  0  0  0  0  0
  -27.5990  -27.8201   21.2057 N   0  0  0  0  0  0  0  0  0  0  0  0
  -25.4591  -33.7715   23.7480 N   0  0  0  0  0  0  0  0  0  0  0  0
  -23.0321  -36.0050   22.2685 N   0  3  0  0  0  0  0  0  0  0  0  0
  -27.7713  -18.3292   17.4391 O   0  0  0  0  0  0  0  0  0  0  0  0
  -26.6335  -28.4995   23.2129 O   0  0  0  0  0  0  0  0  0  0  0  0
  -27.5049  -32.1159   22.6155 O   0  0  0  0  0  0  0  0  0  0  0  0
  -23.1457  -33.6129   23.7455 O   0  0  0  0  0  0  0  0  0  0  0  0
  -23.9307  -23.1358   24.7471 O   0  0  0  0  0  0  0  0  0  0  0  0
  -25.8721  -11.3960   20.4239 O   0  0  0  0  0  0  0  0  0  0  0  0
  -20.2656  -27.8158   21.6360 O   0  0  0  0  0  0  0  0  0  1  0  0
  -23.3322   -9.3000   16.0013 F   0  0  0  0  0  0  0  0  0  0  0  0
  -23.5292   -9.9520   20.6855 F   0  0  0  0  0  0  0  0  0  0  0  0
  1  2  1  0  0  0  0
  1  5  2  0  0  0  0
  2  6  2  0  0  0  0
  3  8  2  0  0  0  0
  3 17  1  0  0  0  0
  4  9  1  0  0  0  0
  4 17  2  0  0  0  0
  5 19  1  0  0  0  0
  6 21  1  0  0  0  0
  7 10  2  0  0  0  0
  7 20  1  0  0  0  0
  8 25  1  0  0  0  0
  9 25  2  0  0  0  0
 10 26  1  0  0  0  0
 11 12  2  0  0  0  0
 11 27  1  0  0  0  0
 12 28  1  0  0  0  0
 13 22  1  0  0  0  0
 13 26  2  0  0  0  0
 14 23  1  0  0  0  0
 14 31  2  0  0  0  0
 15 28  2  0  0  0  0
 15 29  1  0  0  0  0
 16 24  1  0  0  0  0
 16 63  2  0  0  0  0
 17 30  1  0  0  0  0
 18 30  1  0  0  0  0
 18 32  2  0  0  0  0
 18 33  1  0  0  0  0
 19 21  2  0  0  0  0
 19 38  1  0  0  0  0
 20 22  2  0  0  0  0
 20 39  1  0  0  0  0
 21 50  1  0  0  0  0
 22 40  1  0  0  0  0
 23 24  2  0  0  0  0
 23 49  1  0  0  0  0
 24 59  1  0  0  0  0
 25 79  1  0  0  0  0
 26 80  1  0  0  0  0
 27 29  2  0  0  0  0
 27 79  1  0  0  0  0
 28 81  1  0  0  0  0
 29 82  1  0  0  0  0
 30 64  2  0  0  0  0
 31 63  1  0  0  0  0
 31 70  1  0  0  0  0
 32 65  1  0  0  0  0
 32 68  1  0  0  0  0
 33 69  1  0  0  0  0
 33 74  2  0  0  0  0
 34 51  1  0  0  0  0
 34 71  1  0  0  0  0
 34 75  2  0  0  0  0
 35 60  1  0  0  0  0
 35 66  1  0  0  0  0
 35 76  2  0  0  0  0
 36 61  1  0  0  0  0
 36 72  1  0  0  0  0
 36 77  2  0  0  0  0
 37 67  1  0  0  0  0
 37 70  1  0  0  0  0
 37 78  2  0  0  0  0
 38 41  1  0  0  0  0
 39 51  1  0  0  0  0
 40 66  1  0  0  0  0
 41 45  1  0  0  0  0
 42 46  1  0  0  0  0
 42 47  1  0  0  0  0
 43 44  1  0  0  0  0
 43 49  1  0  0  0  0
 44 49  1  0  0  0  0
 45 50  1  0  0  0  0
 46 52  1  0  0  0  0
 47 67  1  0  0  0  0
 48 52  1  0  0  0  0
 48 67  1  0  0  0  0
 50 71  1  0  0  0  0
 51 66  1  0  0  0  0
 52 65  1  0  0  0  0
 53 59  1  0  0  0  0
 54 61  1  0  0  0  0
 55 62  1  0  0  0  0
 56 62  1  0  0  0  0
 57 62  1  0  0  0  0
 58 73  1  0  0  0  0
 59 80  1  0  0  0  0
 60 62  1  0  0  0  0
 60 72  1  0  0  0  0
 61 73  1  0  0  0  0
 64 65  1  0  0  0  0
M  CHG  1  73   1
M  ISO  4  37 100  59 101  70 100  80 101
M  END
> <Batch ID>
0178

> <Smiles>
CNC(C)C(=O)NC(C(=O)N1Cc2cc([101O:1][101CH:1](C)c3cnc([100NH:0][100C:0](=O)N4CCCC(n5nc(-c6ccc(Oc7ccc(F)cc7F)cc6)c(C(N)=O)c5N)C4)cc3C3CC3)ccc2CC1C(=O)NC1CCCc2ccccc21)C(C)(C)C

> <Shape>
0.255

> <Color>
0.057

> <Negative vol penalty>
0.000

$$$$

  -OEChem-04052322553D

 83 92  0     1  0  0  0  0  0999 V2000
  -24.5737  -11.1699   20.0707 C   0  0  0  0  0  0  0  0  0  0  0  0
  -24.0565  -12.4415   20.2964 C   0  0  0  0  0  0  0  0  0  0  0  0
  -25.2838  -28.2740   19.7105 C   0  0  0  0  0  0  0  0  0  0  0  0
  -24.9456  -25.8850   19.8351 C   0  0  0  0  0  0  0  0  0  0  0  0
  -25.9203  -10.9114   20.3231 C   0  0  0  0  0  0  0  0  0  0  0  0
  -24.8855  -13.4551   20.7757 C   0  0  0  0  0  0  0  0  0  0  0  0
  -24.2215  -17.8329   18.3183 C   0  0  0  0  0  0  0  0  0  0  0  0
  -26.6633  -28.0827   19.7873 C   0  0  0  0  0  0  0  0  0  0  0  0
  -26.3252  -25.6937   19.9118 C   0  0  0  0  0  0  0  0  0  0  0  0
  -23.1048  -18.5933   18.6625 C   0  0  0  0  0  0  0  0  0  0  0  0
  -28.9577  -27.4312   22.1822 C   0  0  0  0  0  0  0  0  0  0  0  0
  -29.6787  -28.2569   23.0447 C   0  0  0  0  0  0  0  0  0  0  0  0
  -24.4965  -20.0032   20.0389 C   0  0  0  0  0  0  0  0  0  0  0  0
  -30.9790  -29.0711   21.1782 C   0  0  0  0  0  0  0  0  0  0  0  0
  -18.7572  -21.2255   18.9198 C   0  0  0  0  0  0  0  0  0  0  0  0
  -24.4249  -27.1751   19.7345 C   0  0  0  0  0  0  0  0  0  0  0  0
  -22.2116  -27.4227   18.4904 C   0  0  0  0  0  0  0  0  0  0  0  0
  -26.7684  -11.9249   20.7967 C   0  0  0  0  0  0  0  0  0  0  0  0
  -25.4844  -18.1459   18.8413 C   0  0  0  0  0  0  0  0  0  0  0  0
  -26.2444  -13.2096   21.0361 C   0  0  0  0  0  0  0  0  0  0  0  0
  -25.6281  -19.2468   19.6977 C   0  0  0  0  0  0  0  0  0  0  0  0
  -27.1840  -26.7926   19.8879 C   0  0  0  0  0  0  0  0  0  0  0  0
  -23.2416  -19.6769   19.5252 C   0  0  0  0  0  0  0  0  0  0  0  0
  -29.2474  -27.4253   20.8177 C   0  0  0  0  0  0  0  0  0  0  0  0
  -30.6893  -29.0769   22.5427 C   0  0  0  0  0  0  0  0  0  0  0  0
  -30.2580  -28.2453   20.3157 C   0  0  0  0  0  0  0  0  0  0  0  0
  -22.9997  -27.3721   19.6558 C   0  0  0  0  0  0  0  0  0  0  0  0
  -17.8193  -22.1103   19.4118 C   0  0  0  0  0  0  0  0  0  0  0  0
  -19.8361  -20.9796   19.7442 C   0  0  0  0  0  0  0  0  0  0  0  0
  -20.9332  -27.6267   18.9491 C   0  0  0  0  0  0  0  0  0  0  0  0
  -19.0149  -22.3922   21.3245 C   0  0  0  0  0  0  0  0  0  0  0  0
  -22.6004  -27.2964   17.1162 C   0  0  0  0  0  0  0  0  0  0  0  0
  -27.5845  -16.6354   20.6883 C   0  0  0  0  0  0  0  0  0  0  0  0
  -29.4393  -19.2106   20.0173 C   0  0  0  0  0  0  0  0  0  0  0  0
  -29.6178  -22.4864   19.0770 C   0  0  0  0  0  0  0  0  0  0  0  0
  -18.5349  -26.3451   24.3626 C   0  0  0  0  0  0  0  0  0  0  0  0
  -28.2063  -11.5855   21.0999 C   0  0  0  0  0  0  0  0  0  0  0  0
  -26.6837  -17.3320   18.4391 C   0  0  0  0  0  0  0  0  0  0  0  0
  -26.9655  -19.6368   20.2703 C   0  0  0  0  0  0  0  0  0  0  0  0
  -29.1027  -12.8118   21.2510 C   0  0  0  0  0  0  0  0  0  0  0  0
  -18.5135  -29.5694   22.6021 C   0  0  0  0  0  0  0  0  0  0  0  0
  -28.4362  -13.8536   22.1438 C   0  0  0  0  0  0  0  0  0  0  0  0
  -19.6315  -29.3874   21.5723 C   0  0  0  0  0  0  0  0  0  0  0  0
  -18.0263  -22.8099   23.6900 C   0  0  0  0  0  0  0  0  0  0  0  0
  -18.7628  -28.7557   23.8707 C   0  0  0  0  0  0  0  0  0  0  0  0
  -18.2410  -23.9061   24.7214 C   0  0  0  0  0  0  0  0  0  0  0  0
  -19.2290  -24.5822   22.6439 C   0  0  0  0  0  0  0  0  0  0  0  0
  -20.1622  -27.1595   22.6212 C   0  0  0  0  0  0  0  0  0  0  0  0
  -27.1174  -14.3418   21.5321 C   0  0  1  0  0  0  0  0  0  0  0  0
  -19.1589  -23.0464   22.6813 C   0  0  2  0  0  0  0  0  0  0  0  0
  -27.8335  -17.4290   19.4370 C   0  0  1  0  0  0  0  0  0  0  0  0
  -19.9018  -27.8947   21.2999 C   0  0  2  0  0  0  0  0  0  0  0  0
  -16.6168  -22.4383   18.5918 C   0  0  0  0  0  0  0  0  0  0  0  0
  -31.2702  -24.3265   18.6515 C   0  0  0  0  0  0  0  0  0  0  0  0
  -29.8081  -19.5716   23.0246 C   0  0  0  0  0  0  0  0  0  0  0  0
  -30.6318  -21.8926   22.5746 C   0  0  0  0  0  0  0  0  0  0  0  0
  -31.8788  -19.9311   21.6691 C   0  0  0  0  0  0  0  0  0  0  0  0
  -28.7802  -22.7425   16.2500 C   0  0  0  0  0  0  0  0  0  0  0  0
  -20.9015  -20.0349   19.2983 C   0  0  0  0  0  0  0  0  0  1  0  0
  -29.6553  -20.5657   20.6467 C   0  0  1  0  0  0  0  0  0  0  0  0
  -30.4686  -23.1905   18.0354 C   0  0  2  0  0  0  0  0  0  0  0  0
  -30.4678  -20.4820   21.9696 C   0  0  0  0  0  0  0  0  0  0  0  0
  -22.2820  -27.5313   20.7710 N   0  0  0  0  0  0  0  0  0  0  0  0
  -17.9169  -22.7141   20.6144 N   0  0  0  0  0  0  0  0  0  0  0  0
  -19.9976  -21.5478   20.9572 N   0  0  0  0  0  0  0  0  0  0  0  0
  -21.0295  -27.6841   20.3084 N   0  0  0  0  0  0  0  0  0  0  0  0
  -28.1070  -18.8063   19.8522 N   0  0  0  0  0  0  0  0  0  0  0  0
  -19.0406  -27.3588   23.5431 N   0  0  0  0  0  0  0  0  0  0  0  0
  -18.7808  -25.0283   23.9658 N   0  0  0  0  0  0  0  0  0  0  0  0
  -19.7472  -27.7610   18.3183 N   0  0  0  0  0  0  0  0  0  0  0  0
  -23.9549  -27.0900   16.8213 N   0  0  0  0  0  0  0  0  0  0  0  0
  -27.3738  -15.2877   20.4673 N   0  0  0  0  0  0  0  0  0  0  0  0
  -30.2702  -21.3995   19.6195 N   0  0  0  0  0  0  0  0  0  0  0  0
  -29.6071  -23.7537   16.9576 N   0  3  0  0  0  0  0  0  0  0  0  0
  -21.7735  -27.3810   16.1767 O   0  0  0  0  0  0  0  0  0  0  0  0
  -27.5850  -17.2034   21.7742 O   0  0  0  0  0  0  0  0  0  0  0  0
  -30.4166  -18.5388   19.6780 O   0  0  0  0  0  0  0  0  0  0  0  0
  -28.4890  -22.8651   19.3818 O   0  0  0  0  0  0  0  0  0  0  0  0
  -17.8549  -26.6067   25.3626 O   0  0  0  0  0  0  0  0  0  0  0  0
  -28.5301  -26.6056   19.9626 O   0  0  0  0  0  0  0  0  0  0  0  0
  -22.1456  -20.4255   19.8657 O   0  0  0  0  0  0  0  0  0  1  0  0
  -31.3806  -29.8709   23.3709 F   0  0  0  0  0  0  0  0  0  0  0  0
  -30.5400  -28.2449   19.0057 F   0  0  0  0  0  0  0  0  0  0  0  0
  1  2  1  0  0  0  0
  1  5  2  0  0  0  0
  2  6  2  0  0  0  0
  3  8  2  0  0  0  0
  3 16  1  0  0  0  0
  4  9  1  0  0  0  0
  4 16  2  0  0  0  0
  5 18  1  0  0  0  0
  6 20  1  0  0  0  0
  7 10  2  0  0  0  0
  7 19  1  0  0  0  0
  8 22  1  0  0  0  0
  9 22  2  0  0  0  0
 10 23  1  0  0  0  0
 11 12  2  0  0  0  0
 11 24  1  0  0  0  0
 12 25  1  0  0  0  0
 13 21  1  0  0  0  0
 13 23  2  0  0  0  0
 14 25  2  0  0  0  0
 14 26  1  0  0  0  0
 15 28  2  0  0  0  0
 15 29  1  0  0  0  0
 16 27  1  0  0  0  0
 17 27  1  0  0  0  0
 17 30  2  0  0  0  0
 17 32  1  0  0  0  0
 18 20  2  0  0  0  0
 18 37  1  0  0  0  0
 19 21  2  0  0  0  0
 19 38  1  0  0  0  0
 20 49  1  0  0  0  0
 21 39  1  0  0  0  0
 22 80  1  0  0  0  0
 23 81  1  0  0  0  0
 24 26  2  0  0  0  0
 24 80  1  0  0  0  0
 25 82  1  0  0  0  0
 26 83  1  0  0  0  0
 27 63  2  0  0  0  0
 28 53  1  0  0  0  0
 28 64  1  0  0  0  0
 29 59  1  0  0  0  0
 29 65  2  0  0  0  0
 30 66  1  0  0  0  0
 30 70  1  0  0  0  0
 31 50  1  0  0  0  0
 31 64  2  0  0  0  0
 31 65  1  0  0  0  0
 32 71  1  0  0  0  0
 32 75  2  0  0  0  0
 33 51  1  0  0  0  0
 33 72  1  0  0  0  0
 33 76  2  0  0  0  0
 34 60  1  0  0  0  0
 34 67  1  0  0  0  0
 34 77  2  0  0  0  0
 35 61  1  0  0  0  0
 35 73  1  0  0  0  0
 35 78  2  0  0  0  0
 36 68  1  0  0  0  0
 36 69  1  0  0  0  0
 36 79  2  0  0  0  0
 37 40  1  0  0  0  0
 38 51  1  0  0  0  0
 39 67  1  0  0  0  0
 40 42  1  0  0  0  0
 41 43  1  0  0  0  0
 41 45  1  0  0  0  0
 42 49  1  0  0  0  0
 43 52  1  0  0  0  0
 44 46  1  0  0  0  0
 44 50  1  0  0  0  0
 45 68  1  0  0  0  0
 46 69  1  0  0  0  0
 47 50  1  0  0  0  0
 47 69  1  0  0  0  0
 48 52  1  0  0  0  0
 48 68  1  0  0  0  0
 49 72  1  0  0  0  0
 51 67  1  0  0  0  0
 52 66  1  0  0  0  0
 54 61  1  0  0  0  0
 55 62  1  0  0  0  0
 56 62  1  0  0  0  0
 57 62  1  0  0  0  0
 58 74  1  0  0  0  0
 59 81  1  0  0  0  0
 60 62  1  0  0  0  0
 60 73  1  0  0  0  0
 61 74  1  0  0  0  0
 63 66  1  0  0  0  0
M  CHG  1  74   1
M  ISO  4  36 100  59 101  69 100  81 101
M  END
> <Batch ID>
0178

> <Smiles>
CNC(C)C(=O)NC(C(=O)N1Cc2cc([101O:1][101CH2:1]c3cc(C)nc(C4CC[100N:0]([100C:0](=O)N5CCCC(n6nc(-c7ccc(Oc8ccc(F)cc8F)cc7)c(C(N)=O)c6N)C5)C4)n3)ccc2CC1C(=O)NC1CCCc2ccccc21)C(C)(C)C

> <Shape>
0.207

> <Color>
0.069

> <Negative vol penalty>
0.000

$$$$

  -OEChem-04052322553D

 82 91  0     1  0  0  0  0  0999 V2000
  -32.0162  -24.1270   12.7853 C   0  0  0  0  0  0  0  0  0  0  0  0
  -31.8916  -23.3597   13.9391 C   0  0  0  0  0  0  0  0  0  0  0  0
  -23.2415   -9.7284   20.0444 C   0  0  0  0  0  0  0  0  0  0  0  0
  -23.7378   -9.9891   22.3944 C   0  0  0  0  0  0  0  0  0  0  0  0
  -32.0902  -25.5162   12.8781 C   0  0  0  0  0  0  0  0  0  0  0  0
  -31.8421  -23.9811   15.1864 C   0  0  0  0  0  0  0  0  0  0  0  0
  -28.2210  -22.0702   18.1665 C   0  0  0  0  0  0  0  0  0  0  0  0
  -22.5029   -8.5796   20.3277 C   0  0  0  0  0  0  0  0  0  0  0  0
  -22.9992   -8.8403   22.6778 C   0  0  0  0  0  0  0  0  0  0  0  0
  -28.4875  -20.8528   18.7916 C   0  0  0  0  0  0  0  0  0  0  0  0
  -19.7444   -7.9904   23.0013 C   0  0  0  0  0  0  0  0  0  0  0  0
  -18.8617   -8.0390   24.0802 C   0  0  0  0  0  0  0  0  0  0  0  0
  -29.0305  -22.0247   20.8290 C   0  0  0  0  0  0  0  0  0  0  0  0
  -28.5680  -17.0035   21.9630 C   0  0  0  0  0  0  0  0  0  0  0  0
  -20.0597   -6.2296   25.1422 C   0  0  0  0  0  0  0  0  0  0  0  0
  -30.3141  -16.3857   20.4710 C   0  0  0  0  0  0  0  0  0  0  0  0
  -23.8590  -10.4332   21.0777 C   0  0  0  0  0  0  0  0  0  0  0  0
  -24.1496  -12.9448   20.7386 C   0  0  0  0  0  0  0  0  0  0  0  0
  -32.0319  -26.1555   14.1265 C   0  0  0  0  0  0  0  0  0  0  0  0
  -28.3681  -23.2767   18.8659 C   0  0  0  0  0  0  0  0  0  0  0  0
  -31.9168  -25.3800   15.2960 C   0  0  0  0  0  0  0  0  0  0  0  0
  -28.7629  -23.2559   20.2113 C   0  0  0  0  0  0  0  0  0  0  0  0
  -29.2972  -17.2643   20.8082 C   0  0  0  0  0  0  0  0  0  0  0  0
  -28.8736  -15.8878   22.7344 C   0  0  0  0  0  0  0  0  0  0  0  0
  -22.3817   -8.1355   21.6445 C   0  0  0  0  0  0  0  0  0  0  0  0
  -28.8951  -20.8301   20.1222 C   0  0  0  0  0  0  0  0  0  0  0  0
  -20.7849   -7.0612   22.9928 C   0  0  0  0  0  0  0  0  0  0  0  0
  -19.0193   -7.1587   25.1506 C   0  0  0  0  0  0  0  0  0  0  0  0
  -20.9425   -6.1809   24.0633 C   0  0  0  0  0  0  0  0  0  0  0  0
  -24.6225  -11.6196   20.7855 C   0  0  0  0  0  0  0  0  0  0  0  0
  -29.9093  -15.0707   22.3109 C   0  0  0  0  0  0  0  0  0  0  0  0
  -25.2569  -13.6935   20.4226 C   0  0  0  0  0  0  0  0  0  0  0  0
  -22.8277  -13.4534   20.9610 C   0  0  0  0  0  0  0  0  0  0  0  0
  -30.1986  -25.8539   18.5327 C   0  0  0  0  0  0  0  0  0  0  0  0
  -28.3737  -26.9856   20.9640 C   0  0  0  0  0  0  0  0  0  0  0  0
  -26.3708  -26.3061   23.6423 C   0  0  0  0  0  0  0  0  0  0  0  0
  -31.1959  -12.1982   21.1261 C   0  0  0  0  0  0  0  0  0  0  0  0
  -32.1633  -27.6570   14.1800 C   0  0  0  0  0  0  0  0  0  0  0  0
  -28.0510  -24.5799   18.1852 C   0  0  0  0  0  0  0  0  0  0  0  0
  -28.9163  -24.5221   21.0123 C   0  0  0  0  0  0  0  0  0  0  0  0
  -31.7267  -28.2596   15.5129 C   0  0  0  0  0  0  0  0  0  0  0  0
  -29.4181  -13.4549   18.1278 C   0  0  0  0  0  0  0  0  0  0  0  0
  -32.3230  -27.4724   16.6755 C   0  0  0  0  0  0  0  0  0  0  0  0
  -27.9581  -13.1466   18.4455 C   0  0  0  0  0  0  0  0  0  0  0  0
  -31.5836  -13.9262   24.0300 C   0  0  0  0  0  0  0  0  0  0  0  0
  -30.3630  -12.4892   18.8341 C   0  0  0  0  0  0  0  0  0  0  0  0
  -32.1948  -12.6724   23.4154 C   0  0  0  0  0  0  0  0  0  0  0  0
  -28.7113  -12.1432   20.6410 C   0  0  0  0  0  0  0  0  0  0  0  0
  -31.8348  -26.0188   16.6655 C   0  0  1  0  0  0  0  0  0  0  0  0
  -30.3709  -13.7659   23.0856 C   0  0  2  0  0  0  0  0  0  0  0  0
  -28.7302  -25.7778   18.8418 C   0  0  1  0  0  0  0  0  0  0  0  0
  -27.7319  -13.1166   19.9645 C   0  0  2  0  0  0  0  0  0  0  0  0
  -28.1030  -15.5937   23.9736 C   0  0  0  0  0  0  0  0  0  0  0  0
  -25.0568  -27.4370   25.4567 C   0  0  0  0  0  0  0  0  0  0  0  0
  -30.9632  -27.5843   22.4627 C   0  0  0  0  0  0  0  0  0  0  0  0
  -29.6163  -27.8007   24.5621 C   0  0  0  0  0  0  0  0  0  0  0  0
  -29.2115  -29.3588   22.6565 C   0  0  0  0  0  0  0  0  0  0  0  0
  -23.8260  -25.1318   22.6913 C   0  0  0  0  0  0  0  0  0  0  0  0
  -28.9924  -18.4598   19.9543 C   0  0  0  0  0  0  0  0  0  1  0  0
  -28.4600  -26.9519   22.4708 C   0  0  1  0  0  0  0  0  0  0  0  0
  -25.0162  -26.8553   24.0522 C   0  0  2  0  0  0  0  0  0  0  0  0
  -29.5618  -27.9000   23.0226 C   0  0  0  0  0  0  0  0  0  0  0  0
  -30.6401  -15.2917   21.1952 N   0  0  0  0  0  0  0  0  0  0  0  0
  -25.9284  -11.5285   20.5203 N   0  0  0  0  0  0  0  0  0  0  0  0
  -26.2856  -12.8058   20.3037 N   0  0  0  0  0  0  0  0  0  0  0  0
  -28.6006  -25.7715   20.3004 N   0  0  0  0  0  0  0  0  0  0  0  0
  -30.1065  -12.4220   20.2752 N   0  0  0  0  0  0  0  0  0  0  0  0
  -31.1663  -12.7514   22.3856 N   0  0  0  0  0  0  0  0  0  0  0  0
  -25.4412  -15.0179   20.2375 N   0  0  0  0  0  0  0  0  0  0  0  0
  -21.8070  -12.5462   21.2764 N   0  0  0  0  0  0  0  0  0  0  0  0
  -30.4861  -25.9350   17.1836 N   0  0  0  0  0  0  0  0  0  0  0  0
  -27.1182  -27.2448   22.9631 N   0  0  0  0  0  0  0  0  0  0  0  0
  -23.9885  -25.7765   24.0199 N   0  3  0  0  0  0  0  0  0  0  0  0
  -22.5562  -14.6744   20.8661 O   0  0  0  0  0  0  0  0  0  0  0  0
  -31.0106  -25.8415   19.4504 O   0  0  0  0  0  0  0  0  0  0  0  0
  -28.1074  -28.0483   20.3971 O   0  0  0  0  0  0  0  0  0  0  0  0
  -26.7313  -25.1602   23.9022 O   0  0  0  0  0  0  0  0  0  0  0  0
  -32.1822  -11.5442   20.7609 O   0  0  0  0  0  0  0  0  0  0  0  0
  -21.6609   -7.0147   21.9214 O   0  0  0  0  0  0  0  0  0  0  0  0
  -29.1564  -19.6433   20.7346 O   0  0  0  0  0  0  0  0  0  1  0  0
  -18.1724   -7.2066   26.1872 F   0  0  0  0  0  0  0  0  0  0  0  0
  -21.9408   -5.2870   24.0613 F   0  0  0  0  0  0  0  0  0  0  0  0
  1  2  1  0  0  0  0
  1  5  2  0  0  0  0
  2  6  2  0  0  0  0
  3  8  2  0  0  0  0
  3 17  1  0  0  0  0
  4  9  1  0  0  0  0
  4 17  2  0  0  0  0
  5 19  1  0  0  0  0
  6 21  1  0  0  0  0
  7 10  2  0  0  0  0
  7 20  1  0  0  0  0
  8 25  1  0  0  0  0
  9 25  2  0  0  0  0
 10 26  1  0  0  0  0
 11 12  2  0  0  0  0
 11 27  1  0  0  0  0
 12 28  1  0  0  0  0
 13 22  1  0  0  0  0
 13 26  2  0  0  0  0
 14 23  2  0  0  0  0
 14 24  1  0  0  0  0
 15 28  2  0  0  0  0
 15 29  1  0  0  0  0
 16 23  1  0  0  0  0
 16 63  2  0  0  0  0
 17 30  1  0  0  0  0
 18 30  1  0  0  0  0
 18 32  2  0  0  0  0
 18 33  1  0  0  0  0
 19 21  2  0  0  0  0
 19 38  1  0  0  0  0
 20 22  2  0  0  0  0
 20 39  1  0  0  0  0
 21 49  1  0  0  0  0
 22 40  1  0  0  0  0
 23 59  1  0  0  0  0
 24 31  2  0  0  0  0
 24 53  1  0  0  0  0
 25 79  1  0  0  0  0
 26 80  1  0  0  0  0
 27 29  2  0  0  0  0
 27 79  1  0  0  0  0
 28 81  1  0  0  0  0
 29 82  1  0  0  0  0
 30 64  2  0  0  0  0
 31 50  1  0  0  0  0
 31 63  1  0  0  0  0
 32 65  1  0  0  0  0
 32 69  1  0  0  0  0
 33 70  1  0  0  0  0
 33 74  2  0  0  0  0
 34 51  1  0  0  0  0
 34 71  1  0  0  0  0
 34 75  2  0  0  0  0
 35 60  1  0  0  0  0
 35 66  1  0  0  0  0
 35 76  2  0  0  0  0
 36 61  1  0  0  0  0
 36 72  1  0  0  0  0
 36 77  2  0  0  0  0
 37 67  1  0  0  0  0
 37 68  1  0  0  0  0
 37 78  2  0  0  0  0
 38 41  1  0  0  0  0
 39 51  1  0  0  0  0
 40 66  1  0  0  0  0
 41 43  1  0  0  0  0
 42 44  1  0  0  0  0
 42 46  1  0  0  0  0
 43 49  1  0  0  0  0
 44 52  1  0  0  0  0
 45 47  1  0  0  0  0
 45 50  1  0  0  0  0
 46 67  1  0  0  0  0
 47 68  1  0  0  0  0
 48 52  1  0  0  0  0
 48 67  1  0  0  0  0
 49 71  1  0  0  0  0
 50 68  1  0  0  0  0
 51 66  1  0  0  0  0
 52 65  1  0  0  0  0
 54 61  1  0  0  0  0
 55 62  1  0  0  0  0
 56 62  1  0  0  0  0
 57 62  1  0  0  0  0
 58 73  1  0  0  0  0
 59 80  1  0  0  0  0
 60 62  1  0  0  0  0
 60 72  1  0  0  0  0
 61 73  1  0  0  0  0
 64 65  1  0  0  0  0
M  CHG  1  73   1
M  ISO  4  37 100  59 101  68 100  80 101
M  END
> <Batch ID>
0178

> <Smiles>
CNC(C)C(=O)NC(C(=O)N1Cc2cc([101O:1][101CH2:1]c3cnc(C4CC[100N:0]4[100C:0](=O)N4CCCC(n5nc(-c6ccc(Oc7ccc(F)cc7F)cc6)c(C(N)=O)c5N)C4)c(C)c3)ccc2CC1C(=O)NC1CCCc2ccccc21)C(C)(C)C

> <Shape>
0.268

> <Color>
0.200

> <Negative vol penalty>
0.000

$$$$

  -OEChem-04052322553D

 80 88  0     1  0  0  0  0  0999 V2000
  -29.5336  -30.9982   31.1088 C   0  0  0  0  0  0  0  0  0  0  0  0
  -28.9025  -29.9561   30.4372 C   0  0  0  0  0  0  0  0  0  0  0  0
  -23.0815   -9.8935   19.9714 C   0  0  0  0  0  0  0  0  0  0  0  0
  -23.9705   -9.8885   22.2179 C   0  0  0  0  0  0  0  0  0  0  0  0
  -30.8883  -31.2467   30.8919 C   0  0  0  0  0  0  0  0  0  0  0  0
  -29.6255  -29.1624   29.5474 C   0  0  0  0  0  0  0  0  0  0  0  0
  -29.9968  -22.4423   27.0941 C   0  0  0  0  0  0  0  0  0  0  0  0
  -22.3767   -8.7220   20.2476 C   0  0  0  0  0  0  0  0  0  0  0  0
  -23.2657   -8.7169   22.4942 C   0  0  0  0  0  0  0  0  0  0  0  0
  -30.0152  -21.7334   25.8938 C   0  0  0  0  0  0  0  0  0  0  0  0
  -20.0940   -7.8439   23.2680 C   0  0  0  0  0  0  0  0  0  0  0  0
  -19.4059   -7.7737   24.4792 C   0  0  0  0  0  0  0  0  0  0  0  0
  -32.3690  -22.2057   25.6579 C   0  0  0  0  0  0  0  0  0  0  0  0
  -20.7265   -5.8540   25.1181 C   0  0  0  0  0  0  0  0  0  0  0  0
  -23.8785  -10.4768   20.9565 C   0  0  0  0  0  0  0  0  0  0  0  0
  -24.1614  -13.0098   20.8511 C   0  0  0  0  0  0  0  0  0  0  0  0
  -31.6305  -30.4496   30.0062 C   0  0  0  0  0  0  0  0  0  0  0  0
  -31.1640  -23.0485   27.5807 C   0  0  0  0  0  0  0  0  0  0  0  0
  -30.9910  -29.4013   29.3173 C   0  0  0  0  0  0  0  0  0  0  0  0
  -32.3634  -22.9196   26.8659 C   0  0  0  0  0  0  0  0  0  0  0  0
  -22.4688   -8.1337   21.5090 C   0  0  0  0  0  0  0  0  0  0  0  0
  -31.2007  -21.6174   25.1740 C   0  0  0  0  0  0  0  0  0  0  0  0
  -21.0983   -6.9191   22.9817 C   0  0  0  0  0  0  0  0  0  0  0  0
  -19.7222   -6.7788   25.4043 C   0  0  0  0  0  0  0  0  0  0  0  0
  -21.4145   -5.9242   23.9068 C   0  0  0  0  0  0  0  0  0  0  0  0
  -24.6072  -11.6867   20.6715 C   0  0  0  0  0  0  0  0  0  0  0  0
  -25.2156  -13.7866   20.4366 C   0  0  0  0  0  0  0  0  0  0  0  0
  -22.9066  -13.4936   21.3482 C   0  0  0  0  0  0  0  0  0  0  0  0
  -32.0444  -26.0372   28.2101 C   0  0  0  0  0  0  0  0  0  0  0  0
  -34.6990  -24.5938   29.3898 C   0  0  0  0  0  0  0  0  0  0  0  0
  -36.7621  -21.8753   29.3875 C   0  0  0  0  0  0  0  0  0  0  0  0
  -30.7820  -14.7114   20.6590 C   0  0  0  0  0  0  0  0  0  0  0  0
  -33.0813  -30.7863   29.7684 C   0  0  0  0  0  0  0  0  0  0  0  0
  -31.1335  -23.7871   28.8906 C   0  0  0  0  0  0  0  0  0  0  0  0
  -33.6482  -23.5345   27.3554 C   0  0  0  0  0  0  0  0  0  0  0  0
  -33.8642  -29.6637   29.0923 C   0  0  0  0  0  0  0  0  0  0  0  0
  -29.4649  -12.5639   17.9855 C   0  0  0  0  0  0  0  0  0  0  0  0
  -33.0818  -29.1055   27.9078 C   0  0  0  0  0  0  0  0  0  0  0  0
  -28.0646  -12.2142   18.4908 C   0  0  0  0  0  0  0  0  0  0  0  0
  -29.4855  -18.0792   20.2517 C   0  0  0  0  0  0  0  0  0  0  0  0
  -30.4442  -12.7975   19.1334 C   0  0  0  0  0  0  0  0  0  0  0  0
  -29.1184  -16.6007   20.2913 C   0  0  0  0  0  0  0  0  0  0  0  0
  -28.5927  -13.4378   20.6326 C   0  0  0  0  0  0  0  0  0  0  0  0
  -31.7472  -28.5028   28.3629 C   0  0  1  0  0  0  0  0  0  0  0  0
  -32.2660  -24.7993   29.0324 C   0  0  1  0  0  0  0  0  0  0  0  0
  -27.5652  -13.2585   19.5063 C   0  0  2  0  0  0  0  0  0  0  0  0
  -30.2089  -18.2482   21.5782 C   0  0  1  0  0  0  0  0  0  0  0  0
  -31.0419  -16.9706   21.7000 C   0  0  1  0  0  0  0  0  0  0  0  0
  -31.2973  -16.5882   23.1531 C   0  0  0  0  0  0  0  0  0  0  0  0
  -38.8720  -21.0026   30.4289 C   0  0  0  0  0  0  0  0  0  0  0  0
  -31.1916  -21.8609   21.2080 C   0  0  0  0  0  0  0  0  0  0  0  0
  -36.3437  -26.4244   27.5859 C   0  0  0  0  0  0  0  0  0  0  0  0
  -38.2989  -24.9014   27.9404 C   0  0  0  0  0  0  0  0  0  0  0  0
  -37.2858  -26.0995   29.8797 C   0  0  0  0  0  0  0  0  0  0  0  0
  -35.3505  -19.5716   30.5956 C   0  0  0  0  0  0  0  0  0  0  0  0
  -30.0181  -20.9123   23.2348 C   0  0  0  0  0  0  0  0  0  1  0  0
  -36.0328  -24.1771   28.8184 C   0  0  1  0  0  0  0  0  0  0  0  0
  -37.3551  -21.0599   30.5224 C   0  0  2  0  0  0  0  0  0  0  0  0
  -30.3246  -20.7370   21.7518 C   0  0  2  0  0  0  0  0  0  0  0  0
  -36.9658  -25.3906   28.5456 C   0  0  0  0  0  0  0  0  0  0  0  0
  -25.8479  -11.6227   20.1810 N   0  0  0  0  0  0  0  0  0  0  0  0
  -26.1906  -12.9154   20.0487 N   0  0  0  0  0  0  0  0  0  0  0  0
  -33.5658  -24.2520   28.6383 N   0  0  0  0  0  0  0  0  0  0  0  0
  -29.9139  -13.7716   20.0874 N   0  0  0  0  0  0  0  0  0  0  0  0
  -30.2484  -15.9638   20.9775 N   0  0  0  0  0  0  0  0  0  0  0  0
  -25.3943  -15.1230   20.3696 N   0  0  0  0  0  0  0  0  0  0  0  0
  -21.9342  -12.5592   21.7301 N   0  0  0  0  0  0  0  0  0  0  0  0
  -31.9570  -27.1985   28.9539 N   0  0  0  0  0  0  0  0  0  0  0  0
  -36.5851  -23.1951   29.7452 N   0  0  0  0  0  0  0  0  0  0  0  0
  -31.0604  -19.4519   21.5690 N   0  3  0  0  0  0  0  0  0  0  0  0
  -36.8293  -19.6659   30.4885 N   0  3  0  0  0  0  0  0  0  0  0  0
  -22.6489  -14.7181   21.4354 O   0  0  0  0  0  0  0  0  0  0  0  0
  -31.9604  -25.9457   26.9910 O   0  0  0  0  0  0  0  0  0  0  0  0
  -34.6636  -25.1940   30.4669 O   0  0  0  0  0  0  0  0  0  0  0  0
  -36.4872  -21.3907   28.2920 O   0  0  0  0  0  0  0  0  0  0  0  0
  -31.9786  -14.4560   20.8443 O   0  0  0  0  0  0  0  0  0  0  0  0
  -21.7810   -6.9906   21.7790 O   0  0  0  0  0  0  0  0  0  0  0  0
  -31.2214  -20.9219   23.9938 O   0  0  0  0  0  0  0  0  0  1  0  0
  -19.0624   -6.7125   26.5682 F   0  0  0  0  0  0  0  0  0  0  0  0
  -22.3792   -5.0337   23.6379 F   0  0  0  0  0  0  0  0  0  0  0  0
  1  2  1  0  0  0  0
  1  5  2  0  0  0  0
  2  6  2  0  0  0  0
  3  8  2  0  0  0  0
  3 15  1  0  0  0  0
  4  9  1  0  0  0  0
  4 15  2  0  0  0  0
  5 17  1  0  0  0  0
  6 19  1  0  0  0  0
  7 10  2  0  0  0  0
  7 18  1  0  0  0  0
  8 21  1  0  0  0  0
  9 21  2  0  0  0  0
 10 22  1  0  0  0  0
 11 12  2  0  0  0  0
 11 23  1  0  0  0  0
 12 24  1  0  0  0  0
 13 20  1  0  0  0  0
 13 22  2  0  0  0  0
 14 24  2  0  0  0  0
 14 25  1  0  0  0  0
 15 26  1  0  0  0  0
 16 26  1  0  0  0  0
 16 27  2  0  0  0  0
 16 28  1  0  0  0  0
 17 19  2  0  0  0  0
 17 33  1  0  0  0  0
 18 20  2  0  0  0  0
 18 34  1  0  0  0  0
 19 44  1  0  0  0  0
 20 35  1  0  0  0  0
 21 77  1  0  0  0  0
 22 78  1  0  0  0  0
 23 25  2  0  0  0  0
 23 77  1  0  0  0  0
 24 79  1  0  0  0  0
 25 80  1  0  0  0  0
 26 61  2  0  0  0  0
 27 62  1  0  0  0  0
 27 66  1  0  0  0  0
 28 67  1  0  0  0  0
 28 72  2  0  0  0  0
 29 45  1  0  0  0  0
 29 68  1  0  0  0  0
 29 73  2  0  0  0  0
 30 57  1  0  0  0  0
 30 63  1  0  0  0  0
 30 74  2  0  0  0  0
 31 58  1  0  0  0  0
 31 69  1  0  0  0  0
 31 75  2  0  0  0  0
 32 64  1  0  0  0  0
 32 65  1  0  0  0  0
 32 76  2  0  0  0  0
 33 36  1  0  0  0  0
 34 45  1  0  0  0  0
 35 63  1  0  0  0  0
 36 38  1  0  0  0  0
 37 39  1  0  0  0  0
 37 41  1  0  0  0  0
 38 44  1  0  0  0  0
 39 46  1  0  0  0  0
 40 42  1  0  0  0  0
 40 47  1  0  0  0  0
 41 64  1  0  0  0  0
 42 65  1  0  0  0  0
 43 46  1  0  0  0  0
 43 64  1  0  0  0  0
 44 68  1  0  0  0  0
 45 63  1  0  0  0  0
 46 62  1  0  0  0  0
 47 48  1  0  0  0  0
 47 70  1  0  0  0  0
 48 49  1  0  0  0  0
 48 65  1  0  0  0  0
 50 58  1  0  0  0  0
 51 59  1  0  0  0  0
 52 60  1  0  0  0  0
 53 60  1  0  0  0  0
 54 60  1  0  0  0  0
 55 71  1  0  0  0  0
 56 59  1  0  0  0  0
 56 78  1  0  0  0  0
 57 60  1  0  0  0  0
 57 69  1  0  0  0  0
 58 71  1  0  0  0  0
 59 70  1  0  0  0  0
 61 62  1  0  0  0  0
M  CHG  2  70   1  71   1
M  ISO  4  32 100  56 101  65 100  78 101
M  END
> <Batch ID>
0178

> <Smiles>
CNC(C)C(=O)NC(C(=O)N1Cc2cc([101O:1][101CH2:1]C(C)NC3CC[100N:0]([100C:0](=O)N4CCCC(n5nc(-c6ccc(Oc7ccc(F)cc7F)cc6)c(C(N)=O)c5N)C4)C3C)ccc2CC1C(=O)NC1CCCc2ccccc21)C(C)(C)C

> <Shape>
0.191

> <Color>
0.180

> <Negative vol penalty>
0.000

$$$$

  -OEChem-04052322553D

 83 92  0     1  0  0  0  0  0999 V2000
  -18.4427  -28.3002   23.2020 C   0  0  0  0  0  0  0  0  0  0  0  0
  -19.7585  -28.3965   23.6433 C   0  0  0  0  0  0  0  0  0  0  0  0
  -27.0345  -13.8149   22.3778 C   0  0  0  0  0  0  0  0  0  0  0  0
  -26.8779  -12.9420   20.1305 C   0  0  0  0  0  0  0  0  0  0  0  0
  -18.1114  -27.3969   22.1929 C   0  0  0  0  0  0  0  0  0  0  0  0
  -20.7437  -27.5886   23.0766 C   0  0  0  0  0  0  0  0  0  0  0  0
  -27.7046  -27.6278   21.3851 C   0  0  0  0  0  0  0  0  0  0  0  0
  -26.4256  -12.6601   22.8689 C   0  0  0  0  0  0  0  0  0  0  0  0
  -26.2690  -11.7871   20.6215 C   0  0  0  0  0  0  0  0  0  0  0  0
  -28.8625  -26.8740   21.5715 C   0  0  0  0  0  0  0  0  0  0  0  0
  -23.1991  -10.8472   21.6813 C   0  0  0  0  0  0  0  0  0  0  0  0
  -22.0749  -10.3705   21.0071 C   0  0  0  0  0  0  0  0  0  0  0  0
  -28.1882  -25.4061   19.7800 C   0  0  0  0  0  0  0  0  0  0  0  0
  -23.2200   -8.2887   20.5693 C   0  0  0  0  0  0  0  0  0  0  0  0
  -27.9342  -21.1781   24.5906 C   0  0  0  0  0  0  0  0  0  0  0  0
  -27.2606  -13.9559   21.0086 C   0  0  0  0  0  0  0  0  0  0  0  0
  -29.2669  -15.3720   20.3178 C   0  0  0  0  0  0  0  0  0  0  0  0
  -19.0948  -26.5844   21.6068 C   0  0  0  0  0  0  0  0  0  0  0  0
  -26.7729  -27.2694   20.4003 C   0  0  0  0  0  0  0  0  0  0  0  0
  -20.4250  -26.6726   22.0597 C   0  0  0  0  0  0  0  0  0  0  0  0
  -27.0205  -26.1585   19.5814 C   0  0  0  0  0  0  0  0  0  0  0  0
  -26.0429  -11.6461   21.9908 C   0  0  0  0  0  0  0  0  0  0  0  0
  -29.1031  -25.7613   20.7709 C   0  0  0  0  0  0  0  0  0  0  0  0
  -24.3339  -10.0446   21.7993 C   0  0  0  0  0  0  0  0  0  0  0  0
  -22.0853   -9.0913   20.4512 C   0  0  0  0  0  0  0  0  0  0  0  0
  -24.3443   -8.7654   21.2434 C   0  0  0  0  0  0  0  0  0  0  0  0
  -27.8890  -15.1489   20.5007 C   0  0  0  0  0  0  0  0  0  0  0  0
  -27.9901  -21.3614   23.2306 C   0  0  0  0  0  0  0  0  0  0  0  0
  -29.1277  -20.5004   24.9038 C   0  0  0  0  0  0  0  0  0  0  0  0
  -29.3445  -16.6481   19.8158 C   0  0  0  0  0  0  0  0  0  0  0  0
  -30.3774  -14.5033   20.5784 C   0  0  0  0  0  0  0  0  0  0  0  0
  -23.7218  -26.3781   20.4172 C   0  0  0  0  0  0  0  0  0  0  0  0
  -24.0573  -26.5531   17.1956 C   0  0  0  0  0  0  0  0  0  0  0  0
  -26.1358  -26.4664   14.4902 C   0  0  0  0  0  0  0  0  0  0  0  0
  -25.8021  -21.3928   20.2669 C   0  0  0  0  0  0  0  0  0  0  0  0
  -18.6802  -25.5893   20.5520 C   0  0  0  0  0  0  0  0  0  0  0  0
  -25.5417  -28.1085   20.1940 C   0  0  0  0  0  0  0  0  0  0  0  0
  -26.0616  -25.7435   18.4965 C   0  0  0  0  0  0  0  0  0  0  0  0
  -19.8507  -25.0358   19.7433 C   0  0  0  0  0  0  0  0  0  0  0  0
  -26.8691  -19.8399   17.2472 C   0  0  0  0  0  0  0  0  0  0  0  0
  -20.9923  -24.6262   20.6683 C   0  0  0  0  0  0  0  0  0  0  0  0
  -27.3647  -18.4694   17.7142 C   0  0  0  0  0  0  0  0  0  0  0  0
  -25.6446  -20.2948   18.0376 C   0  0  0  0  0  0  0  0  0  0  0  0
  -25.5044  -21.9349   22.6697 C   0  0  0  0  0  0  0  0  0  0  0  0
  -26.3215  -18.9151   19.9762 C   0  0  0  0  0  0  0  0  0  0  0  0
  -21.5264  -25.8309   21.4524 C   0  0  1  0  0  0  0  0  0  0  0  0
  -26.9571  -22.0380   22.3684 C   0  0  2  0  0  0  0  0  0  0  0  0
  -24.4114  -27.3514   19.5036 C   0  0  1  0  0  0  0  0  0  0  0  0
  -27.5877  -18.4490   19.2381 C   0  0  1  0  0  0  0  0  0  0  0  0
  -29.5815  -20.0512   26.2308 C   0  0  0  0  0  0  0  0  0  0  0  0
  -26.1141  -26.5996   11.9843 C   0  0  0  0  0  0  0  0  0  0  0  0
  -22.9954  -23.6961   17.0553 C   0  0  0  0  0  0  0  0  0  0  0  0
  -23.8776  -23.5572   14.7163 C   0  0  0  0  0  0  0  0  0  0  0  0
  -22.1121  -25.2254   15.2846 C   0  0  0  0  0  0  0  0  0  0  0  0
  -27.8446  -28.8827   14.4881 C   0  0  0  0  0  0  0  0  0  0  0  0
  -31.0908  -21.3710   21.2550 C   0  0  0  0  0  0  0  0  0  0  0  0
  -31.1119  -22.8719   21.5486 C   0  0  0  0  0  0  0  0  0  0  0  0
  -29.7001  -20.7472   21.4177 C   0  0  0  0  0  0  0  0  0  0  0  0
  -30.1561  -23.6330   20.6396 C   0  0  0  0  0  0  0  0  0  1  0  0
  -24.4738  -25.5901   16.1102 C   0  0  1  0  0  0  0  0  0  0  0  0
  -26.2561  -27.3785   13.2827 C   0  0  2  0  0  0  0  0  0  0  0  0
  -23.3820  -24.5236   15.8132 C   0  0  0  0  0  0  0  0  0  0  0  0
  -27.1448  -16.1992   20.1441 N   0  0  0  0  0  0  0  0  0  0  0  0
  -29.8863  -20.2687   23.8292 N   0  0  0  0  0  0  0  0  0  0  0  0
  -29.1677  -20.8037   22.8274 N   0  0  0  0  0  0  0  0  0  0  0  0
  -28.0584  -17.0946   19.7322 N   0  0  0  0  0  0  0  0  0  0  0  0
  -24.8691  -26.5922   18.3381 N   0  0  0  0  0  0  0  0  0  0  0  0
  -25.9047  -20.2325   19.4755 N   0  0  0  0  0  0  0  0  0  0  0  0
  -26.0880  -21.1735   21.6132 N   0  0  0  0  0  0  0  0  0  0  0  0
  -30.3866  -17.4207   19.4424 N   0  0  0  0  0  0  0  0  0  0  0  0
  -30.1197  -13.2256   21.0934 N   0  0  0  0  0  0  0  0  0  0  0  0
  -22.3796  -26.6432   20.6118 N   0  0  0  0  0  0  0  0  0  0  0  0
  -24.8401  -26.4069   14.9582 N   0  0  0  0  0  0  0  0  0  0  0  0
  -27.5811  -28.0608   13.2790 N   0  3  0  0  0  0  0  0  0  0  0  0
  -31.5641  -14.8559   20.3762 O   0  0  0  0  0  0  0  0  0  0  0  0
  -24.3598  -25.4541   20.9081 O   0  0  0  0  0  0  0  0  0  0  0  0
  -23.0528  -27.2504   17.0326 O   0  0  0  0  0  0  0  0  0  0  0  0
  -27.0944  -25.8637   14.9679 O   0  0  0  0  0  0  0  0  0  0  0  0
  -25.4965  -22.4987   19.8131 O   0  0  0  0  0  0  0  0  0  0  0  0
  -25.4490  -10.5189   22.4696 O   0  0  0  0  0  0  0  0  0  0  0  0
  -30.2322  -25.0235   20.9512 O   0  0  0  0  0  0  0  0  0  1  0  0
  -21.0050   -8.6332   19.8052 F   0  0  0  0  0  0  0  0  0  0  0  0
  -25.4311   -7.9893   21.3546 F   0  0  0  0  0  0  0  0  0  0  0  0
  1  2  1  0  0  0  0
  1  5  2  0  0  0  0
  2  6  2  0  0  0  0
  3  8  2  0  0  0  0
  3 16  1  0  0  0  0
  4  9  1  0  0  0  0
  4 16  2  0  0  0  0
  5 18  1  0  0  0  0
  6 20  1  0  0  0  0
  7 10  2  0  0  0  0
  7 19  1  0  0  0  0
  8 22  1  0  0  0  0
  9 22  2  0  0  0  0
 10 23  1  0  0  0  0
 11 12  2  0  0  0  0
 11 24  1  0  0  0  0
 12 25  1  0  0  0  0
 13 21  1  0  0  0  0
 13 23  2  0  0  0  0
 14 25  2  0  0  0  0
 14 26  1  0  0  0  0
 15 28  2  0  0  0  0
 15 29  1  0  0  0  0
 16 27  1  0  0  0  0
 17 27  1  0  0  0  0
 17 30  2  0  0  0  0
 17 31  1  0  0  0  0
 18 20  2  0  0  0  0
 18 36  1  0  0  0  0
 19 21  2  0  0  0  0
 19 37  1  0  0  0  0
 20 46  1  0  0  0  0
 21 38  1  0  0  0  0
 22 80  1  0  0  0  0
 23 81  1  0  0  0  0
 24 26  2  0  0  0  0
 24 80  1  0  0  0  0
 25 82  1  0  0  0  0
 26 83  1  0  0  0  0
 27 63  2  0  0  0  0
 28 47  1  0  0  0  0
 28 65  1  0  0  0  0
 29 50  1  0  0  0  0
 29 64  2  0  0  0  0
 30 66  1  0  0  0  0
 30 70  1  0  0  0  0
 31 71  1  0  0  0  0
 31 75  2  0  0  0  0
 32 48  1  0  0  0  0
 32 72  1  0  0  0  0
 32 76  2  0  0  0  0
 33 60  1  0  0  0  0
 33 67  1  0  0  0  0
 33 77  2  0  0  0  0
 34 61  1  0  0  0  0
 34 73  1  0  0  0  0
 34 78  2  0  0  0  0
 35 68  1  0  0  0  0
 35 69  1  0  0  0  0
 35 79  2  0  0  0  0
 36 39  1  0  0  0  0
 37 48  1  0  0  0  0
 38 67  1  0  0  0  0
 39 41  1  0  0  0  0
 40 42  1  0  0  0  0
 40 43  1  0  0  0  0
 41 46  1  0  0  0  0
 42 49  1  0  0  0  0
 43 68  1  0  0  0  0
 44 47  1  0  0  0  0
 44 69  1  0  0  0  0
 45 49  1  0  0  0  0
 45 68  1  0  0  0  0
 46 72  1  0  0  0  0
 47 69  1  0  0  0  0
 48 67  1  0  0  0  0
 49 66  1  0  0  0  0
 51 61  1  0  0  0  0
 52 62  1  0  0  0  0
 53 62  1  0  0  0  0
 54 62  1  0  0  0  0
 55 74  1  0  0  0  0
 56 57  1  0  0  0  0
 56 58  1  0  0  0  0
 57 59  1  0  0  0  0
 58 65  1  0  0  0  0
 59 81  1  0  0  0  0
 60 62  1  0  0  0  0
 60 73  1  0  0  0  0
 61 74  1  0  0  0  0
 63 66  1  0  0  0  0
 64 65  1  0  0  0  0
M  CHG  1  74   1
M  ISO  4  35 100  59 101  69 100  81 101
M  END
> <Batch ID>
0178

> <Smiles>
CNC(C)C(=O)NC(C(=O)N1Cc2cc([101O:1][101CH2:1]CCCn3nc(C)cc3C3C[100N:0]3[100C:0](=O)N3CCCC(n4nc(-c5ccc(Oc6ccc(F)cc6F)cc5)c(C(N)=O)c4N)C3)ccc2CC1C(=O)NC1CCCc2ccccc21)C(C)(C)C

> <Shape>
0.210

> <Color>
0.073

> <Negative vol penalty>
0.000

$$$$

  -OEChem-04052322553D

 85 94  0     1  0  0  0  0  0999 V2000
  -25.7156  -38.6035   20.3442 C   0  0  0  0  0  0  0  0  0  0  0  0
  -26.0710  -37.5318   19.5315 C   0  0  0  0  0  0  0  0  0  0  0  0
  -22.2800  -13.0274   18.6914 C   0  0  0  0  0  0  0  0  0  0  0  0
  -23.1839  -10.8893   19.3610 C   0  0  0  0  0  0  0  0  0  0  0  0
  -25.7061  -38.4528   21.7303 C   0  0  0  0  0  0  0  0  0  0  0  0
  -26.4182  -36.3088   20.1045 C   0  0  0  0  0  0  0  0  0  0  0  0
  -26.0412  -29.2612   18.8775 C   0  0  0  0  0  0  0  0  0  0  0  0
  -21.2479  -12.3788   18.0134 C   0  0  0  0  0  0  0  0  0  0  0  0
  -22.1518  -10.2406   18.6830 C   0  0  0  0  0  0  0  0  0  0  0  0
  -26.8548  -28.1297   18.8388 C   0  0  0  0  0  0  0  0  0  0  0  0
  -18.8900   -9.5296   19.2078 C   0  0  0  0  0  0  0  0  0  0  0  0
  -18.2494   -8.4764   19.8605 C   0  0  0  0  0  0  0  0  0  0  0  0
  -26.7262  -27.9624   21.2419 C   0  0  0  0  0  0  0  0  0  0  0  0
  -18.9099   -6.9752   18.0864 C   0  0  0  0  0  0  0  0  0  0  0  0
  -23.2480  -12.2827   19.3651 C   0  0  0  0  0  0  0  0  0  0  0  0
  -24.3171  -13.3735   21.4084 C   0  0  0  0  0  0  0  0  0  0  0  0
  -26.0440  -37.2246   22.3202 C   0  0  0  0  0  0  0  0  0  0  0  0
  -25.5722  -29.7591   20.1017 C   0  0  0  0  0  0  0  0  0  0  0  0
  -26.4145  -36.1419   21.4998 C   0  0  0  0  0  0  0  0  0  0  0  0
  -25.9047  -29.0989   21.2932 C   0  0  0  0  0  0  0  0  0  0  0  0
  -28.7191  -23.5641   19.4241 C   0  0  0  0  0  0  0  0  0  0  0  0
  -21.1838  -10.9854   18.0093 C   0  0  0  0  0  0  0  0  0  0  0  0
  -27.1997  -27.4818   20.0213 C   0  0  0  0  0  0  0  0  0  0  0  0
  -19.5405   -9.3056   17.9944 C   0  0  0  0  0  0  0  0  0  0  0  0
  -18.2593   -7.1992   19.2999 C   0  0  0  0  0  0  0  0  0  0  0  0
  -19.5504   -8.0285   17.4337 C   0  0  0  0  0  0  0  0  0  0  0  0
  -24.3148  -12.9521   20.0651 C   0  0  0  0  0  0  0  0  0  0  0  0
  -29.5673  -22.4796   19.5171 C   0  0  0  0  0  0  0  0  0  0  0  0
  -29.2617  -24.6994   18.8576 C   0  0  0  0  0  0  0  0  0  0  0  0
  -25.5512  -13.9498   21.5853 C   0  0  0  0  0  0  0  0  0  0  0  0
  -31.2593  -23.6568   18.5588 C   0  0  0  0  0  0  0  0  0  0  0  0
  -23.2951  -13.2547   22.4069 C   0  0  0  0  0  0  0  0  0  0  0  0
  -25.9261  -32.4847   21.6984 C   0  0  0  0  0  0  0  0  0  0  0  0
  -23.7408  -31.1495   23.6893 C   0  0  0  0  0  0  0  0  0  0  0  0
  -22.2752  -28.3153   24.9003 C   0  0  0  0  0  0  0  0  0  0  0  0
  -29.7118  -17.1249   19.9637 C   0  0  0  0  0  0  0  0  0  0  0  0
  -26.0650  -37.1233   23.8248 C   0  0  0  0  0  0  0  0  0  0  0  0
  -24.6736  -30.9651   20.1243 C   0  0  0  0  0  0  0  0  0  0  0  0
  -25.4105  -29.5814   22.6317 C   0  0  0  0  0  0  0  0  0  0  0  0
  -26.0836  -35.6859   24.3384 C   0  0  0  0  0  0  0  0  0  0  0  0
  -29.6567  -13.9310   18.6432 C   0  0  0  0  0  0  0  0  0  0  0  0
  -27.1151  -34.8600   23.5763 C   0  0  0  0  0  0  0  0  0  0  0  0
  -28.2638  -13.4136   19.0015 C   0  0  0  0  0  0  0  0  0  0  0  0
  -28.4196  -20.2642   19.0734 C   0  0  0  0  0  0  0  0  0  0  0  0
  -30.2093  -20.4262   20.8568 C   0  0  0  0  0  0  0  0  0  0  0  0
  -29.6005  -15.3889   18.2018 C   0  0  0  0  0  0  0  0  0  0  0  0
  -27.9622  -18.9365   19.6841 C   0  0  0  0  0  0  0  0  0  0  0  0
  -29.6949  -19.1129   21.4390 C   0  0  0  0  0  0  0  0  0  0  0  0
  -27.5863  -15.7967   19.5783 C   0  0  0  0  0  0  0  0  0  0  0  0
  -26.7734  -34.7923   22.0829 C   0  0  1  0  0  0  0  0  0  0  0  0
  -29.0828  -21.1753   20.1220 C   0  0  0  0  0  0  0  0  0  0  0  0
  -24.6745  -31.6858   21.4689 C   0  0  1  0  0  0  0  0  0  0  0  0
  -27.5855  -14.3250   20.0396 C   0  0  1  0  0  0  0  0  0  0  0  0
  -27.3114  -23.5118   19.9020 C   0  0  0  0  0  0  0  0  0  0  0  0
  -32.6691  -23.7074   18.0757 C   0  0  0  0  0  0  0  0  0  0  0  0
  -20.5472  -27.5403   26.5467 C   0  0  0  0  0  0  0  0  0  0  0  0
  -25.6881  -31.6778   25.9781 C   0  0  0  0  0  0  0  0  0  0  0  0
  -24.3707  -30.0728   27.3769 C   0  0  0  0  0  0  0  0  0  0  0  0
  -23.2922  -32.1512   26.5166 C   0  0  0  0  0  0  0  0  0  0  0  0
  -20.6373  -27.0717   22.7720 C   0  0  0  0  0  0  0  0  0  0  0  0
  -28.4391  -25.9365   18.7053 C   0  0  0  0  0  0  0  0  0  1  0  0
  -23.8073  -30.2665   24.9120 C   0  0  1  0  0  0  0  0  0  0  0  0
  -20.8178  -27.9438   25.1056 C   0  0  2  0  0  0  0  0  0  0  0  0
  -24.3006  -31.0338   26.1710 C   0  0  0  0  0  0  0  0  0  0  0  0
  -25.4568  -13.2366   19.4335 N   0  0  0  0  0  0  0  0  0  0  0  0
  -30.8480  -22.4910   19.0929 N   0  0  0  0  0  0  0  0  0  0  0  0
  -30.5328  -24.7812   18.4127 N   0  0  0  0  0  0  0  0  0  0  0  0
  -26.1882  -13.8430   20.3840 N   0  0  0  0  0  0  0  0  0  0  0  0
  -24.5398  -30.7682   22.6021 N   0  0  0  0  0  0  0  0  0  0  0  0
  -28.9466  -16.2206   19.2120 N   0  0  0  0  0  0  0  0  0  0  0  0
  -29.0665  -18.2895   20.4063 N   0  0  0  0  0  0  0  0  0  0  0  0
  -26.1428  -14.5324   22.6497 N   0  0  0  0  0  0  0  0  0  0  0  0
  -22.0876  -12.6353   22.0566 N   0  0  0  0  0  0  0  0  0  0  0  0
  -25.7081  -33.8407   21.8508 N   0  0  0  0  0  0  0  0  0  0  0  0
  -22.4841  -29.6692   25.0566 N   0  0  0  0  0  0  0  0  0  0  0  0
  -20.4440  -26.8045   24.2205 N   0  3  0  0  0  0  0  0  0  0  0  0
  -23.4419  -13.6996   23.5705 O   0  0  0  0  0  0  0  0  0  0  0  0
  -27.0094  -31.9130   21.7360 O   0  0  0  0  0  0  0  0  0  0  0  0
  -23.0015  -32.1369   23.6959 O   0  0  0  0  0  0  0  0  0  0  0  0
  -23.1424  -27.4867   24.6320 O   0  0  0  0  0  0  0  0  0  0  0  0
  -30.9011  -16.9052   20.2252 O   0  0  0  0  0  0  0  0  0  0  0  0
  -20.1766  -10.3521   17.3480 O   0  0  0  0  0  0  0  0  0  0  0  0
  -27.9999  -26.3696   19.9861 O   0  0  0  0  0  0  0  0  0  1  0  0
  -17.6455   -6.1876   19.9275 F   0  0  0  0  0  0  0  0  0  0  0  0
  -20.1747   -7.8069   16.2688 F   0  0  0  0  0  0  0  0  0  0  0  0
  1  2  1  0  0  0  0
  1  5  2  0  0  0  0
  2  6  2  0  0  0  0
  3  8  2  0  0  0  0
  3 15  1  0  0  0  0
  4  9  1  0  0  0  0
  4 15  2  0  0  0  0
  5 17  1  0  0  0  0
  6 19  1  0  0  0  0
  7 10  2  0  0  0  0
  7 18  1  0  0  0  0
  8 22  1  0  0  0  0
  9 22  2  0  0  0  0
 10 23  1  0  0  0  0
 11 12  2  0  0  0  0
 11 24  1  0  0  0  0
 12 25  1  0  0  0  0
 13 20  1  0  0  0  0
 13 23  2  0  0  0  0
 14 25  2  0  0  0  0
 14 26  1  0  0  0  0
 15 27  1  0  0  0  0
 16 27  1  0  0  0  0
 16 30  2  0  0  0  0
 16 32  1  0  0  0  0
 17 19  2  0  0  0  0
 17 37  1  0  0  0  0
 18 20  2  0  0  0  0
 18 38  1  0  0  0  0
 19 50  1  0  0  0  0
 20 39  1  0  0  0  0
 21 28  1  0  0  0  0
 21 29  2  0  0  0  0
 21 54  1  0  0  0  0
 22 82  1  0  0  0  0
 23 83  1  0  0  0  0
 24 26  2  0  0  0  0
 24 82  1  0  0  0  0
 25 84  1  0  0  0  0
 26 85  1  0  0  0  0
 27 65  2  0  0  0  0
 28 51  1  0  0  0  0
 28 66  2  0  0  0  0
 29 61  1  0  0  0  0
 29 67  1  0  0  0  0
 30 68  1  0  0  0  0
 30 72  1  0  0  0  0
 31 55  1  0  0  0  0
 31 66  1  0  0  0  0
 31 67  2  0  0  0  0
 32 73  1  0  0  0  0
 32 77  2  0  0  0  0
 33 52  1  0  0  0  0
 33 74  1  0  0  0  0
 33 78  2  0  0  0  0
 34 62  1  0  0  0  0
 34 69  1  0  0  0  0
 34 79  2  0  0  0  0
 35 63  1  0  0  0  0
 35 75  1  0  0  0  0
 35 80  2  0  0  0  0
 36 70  1  0  0  0  0
 36 71  1  0  0  0  0
 36 81  2  0  0  0  0
 37 40  1  0  0  0  0
 38 52  1  0  0  0  0
 39 69  1  0  0  0  0
 40 42  1  0  0  0  0
 41 43  1  0  0  0  0
 41 46  1  0  0  0  0
 42 50  1  0  0  0  0
 43 53  1  0  0  0  0
 44 47  1  0  0  0  0
 44 51  1  0  0  0  0
 45 48  1  0  0  0  0
 45 51  1  0  0  0  0
 46 70  1  0  0  0  0
 47 71  1  0  0  0  0
 48 71  1  0  0  0  0
 49 53  1  0  0  0  0
 49 70  1  0  0  0  0
 50 74  1  0  0  0  0
 52 69  1  0  0  0  0
 53 68  1  0  0  0  0
 56 63  1  0  0  0  0
 57 64  1  0  0  0  0
 58 64  1  0  0  0  0
 59 64  1  0  0  0  0
 60 76  1  0  0  0  0
 61 83  1  0  0  0  0
 62 64  1  0  0  0  0
 62 75  1  0  0  0  0
 63 76  1  0  0  0  0
 65 68  1  0  0  0  0
M  CHG  1  76   1
M  ISO  4  36 100  61 101  71 100  83 101
M  END
> <Batch ID>
0178

> <Smiles>
CNC(C)C(=O)NC(C(=O)N1Cc2cc([101O:1][101CH2:1]c3nc(C)nc(C4CC[100N:0]([100C:0](=O)N5CCCC(n6nc(-c7ccc(Oc8ccc(F)cc8F)cc7)c(C(N)=O)c6N)C5)CC4)c3C)ccc2CC1C(=O)NC1CCCc2ccccc21)C(C)(C)C

> <Shape>
0.280

> <Color>
0.102

> <Negative vol penalty>
0.000

$$$$

  -OEChem-04052322553D

 83 92  0     1  0  0  0  0  0999 V2000
  -30.1064  -11.4756   19.1182 C   0  0  0  0  0  0  0  0  0  0  0  0
  -30.3360  -12.8208   18.8477 C   0  0  0  0  0  0  0  0  0  0  0  0
  -22.7803  -28.7164   23.6313 C   0  0  0  0  0  0  0  0  0  0  0  0
  -23.4354  -30.5059   22.1461 C   0  0  0  0  0  0  0  0  0  0  0  0
  -28.8962  -11.0761   19.6837 C   0  0  0  0  0  0  0  0  0  0  0  0
  -29.3550  -13.7672   19.1416 C   0  0  0  0  0  0  0  0  0  0  0  0
  -30.2422  -19.5159   21.0577 C   0  0  0  0  0  0  0  0  0  0  0  0
  -21.5639  -29.3570   23.8667 C   0  0  0  0  0  0  0  0  0  0  0  0
  -22.2189  -31.1465   22.3815 C   0  0  0  0  0  0  0  0  0  0  0  0
  -30.2442  -20.7383   20.3872 C   0  0  0  0  0  0  0  0  0  0  0  0
  -18.5997  -29.7335   22.2841 C   0  0  0  0  0  0  0  0  0  0  0  0
  -17.4416  -28.9566   22.2554 C   0  0  0  0  0  0  0  0  0  0  0  0
  -27.9394  -21.0784   21.0131 C   0  0  0  0  0  0  0  0  0  0  0  0
  -16.9771  -29.5641   24.5472 C   0  0  0  0  0  0  0  0  0  0  0  0
  -29.8175  -26.8631   17.3168 C   0  0  0  0  0  0  0  0  0  0  0  0
  -23.7161  -29.2908   22.7710 C   0  0  0  0  0  0  0  0  0  0  0  0
  -25.2580  -27.6893   21.5199 C   0  0  0  0  0  0  0  0  0  0  0  0
  -27.9037  -12.0193   19.9936 C   0  0  0  0  0  0  0  0  0  0  0  0
  -29.0837  -19.0597   21.7027 C   0  0  0  0  0  0  0  0  0  0  0  0
  -28.1299  -13.3798   19.7106 C   0  0  0  0  0  0  0  0  0  0  0  0
  -27.9261  -19.8510   21.6932 C   0  0  0  0  0  0  0  0  0  0  0  0
  -21.2832  -30.5720   23.2418 C   0  0  0  0  0  0  0  0  0  0  0  0
  -29.0919  -21.5184   20.3624 C   0  0  0  0  0  0  0  0  0  0  0  0
  -18.9465  -30.4258   23.4444 C   0  0  0  0  0  0  0  0  0  0  0  0
  -16.6304  -28.8719   23.3869 C   0  0  0  0  0  0  0  0  0  0  0  0
  -18.1353  -30.3411   24.5759 C   0  0  0  0  0  0  0  0  0  0  0  0
  -24.9731  -28.6298   22.5279 C   0  0  0  0  0  0  0  0  0  0  0  0
  -30.5336  -26.6828   18.4826 C   0  0  0  0  0  0  0  0  0  0  0  0
  -29.2742  -25.7199   16.7671 C   0  0  0  0  0  0  0  0  0  0  0  0
  -26.5792  -27.3677   21.7138 C   0  0  0  0  0  0  0  0  0  0  0  0
  -30.1328  -24.4457   18.4423 C   0  0  0  0  0  0  0  0  0  0  0  0
  -24.4047  -27.1542   20.4995 C   0  0  0  0  0  0  0  0  0  0  0  0
  -27.1739  -16.5410   21.3676 C   0  0  0  0  0  0  0  0  0  0  0  0
  -25.7818  -17.7303   24.0453 C   0  0  0  0  0  0  0  0  0  0  0  0
  -25.1713  -20.4335   26.0370 C   0  0  0  0  0  0  0  0  0  0  0  0
  -31.8030  -29.2240   22.6079 C   0  0  0  0  0  0  0  0  0  0  0  0
  -26.5929  -11.5341   20.5604 C   0  0  0  0  0  0  0  0  0  0  0  0
  -29.1058  -17.7512   22.4442 C   0  0  0  0  0  0  0  0  0  0  0  0
  -26.6623  -19.4159   22.3873 C   0  0  0  0  0  0  0  0  0  0  0  0
  -25.7527  -12.6436   21.1877 C   0  0  0  0  0  0  0  0  0  0  0  0
  -29.7266  -28.4287   25.5322 C   0  0  0  0  0  0  0  0  0  0  0  0
  -25.6994  -13.8584   20.2667 C   0  0  0  0  0  0  0  0  0  0  0  0
  -28.3193  -28.3816   24.9313 C   0  0  0  0  0  0  0  0  0  0  0  0
  -32.6874  -27.8336   19.3685 C   0  0  0  0  0  0  0  0  0  0  0  0
  -30.6400  -29.3957   24.7811 C   0  0  0  0  0  0  0  0  0  0  0  0
  -32.9292  -28.9065   20.4182 C   0  0  0  0  0  0  0  0  0  0  0  0
  -30.6636  -28.1404   20.5901 C   0  0  0  0  0  0  0  0  0  0  0  0
  -29.2887  -29.1487   22.7365 C   0  0  0  0  0  0  0  0  0  0  0  0
  -27.1001  -14.4392   20.0380 C   0  0  1  0  0  0  0  0  0  0  0  0
  -31.1671  -27.8780   19.1609 C   0  0  2  0  0  0  0  0  0  0  0  0
  -27.7176  -17.1466   22.6307 C   0  0  1  0  0  0  0  0  0  0  0  0
  -28.3693  -28.1232   23.4127 C   0  0  2  0  0  0  0  0  0  0  0  0
  -28.4812  -25.8155   15.5068 C   0  0  0  0  0  0  0  0  0  0  0  0
  -23.9708  -21.1022   28.1368 C   0  0  0  0  0  0  0  0  0  0  0  0
  -23.1239  -17.6484   22.5489 C   0  0  0  0  0  0  0  0  0  0  0  0
  -22.1740  -19.1716   24.2941 C   0  0  0  0  0  0  0  0  0  0  0  0
  -23.0014  -16.9070   24.9342 C   0  0  0  0  0  0  0  0  0  0  0  0
  -27.6884  -21.2758   27.3461 C   0  0  0  0  0  0  0  0  0  0  0  0
  -30.3045  -23.1033   19.0688 C   0  0  0  0  0  0  0  0  0  1  0  0
  -24.6672  -18.7091   24.3263 C   0  0  1  0  0  0  0  0  0  0  0  0
  -25.2848  -20.6243   27.5388 C   0  0  2  0  0  0  0  0  0  0  0  0
  -23.2647  -18.1166   24.0111 C   0  0  0  0  0  0  0  0  0  0  0  0
  -26.0284  -28.8888   23.3046 N   0  0  0  0  0  0  0  0  0  0  0  0
  -30.7119  -25.4839   19.0750 N   0  0  0  0  0  0  0  0  0  0  0  0
  -29.4127  -24.4904   17.3052 N   0  0  0  0  0  0  0  0  0  0  0  0
  -26.9893  -28.1061   22.7846 N   0  0  0  0  0  0  0  0  0  0  0  0
  -26.7321  -18.1258   23.0934 N   0  0  0  0  0  0  0  0  0  0  0  0
  -30.6207  -29.1169   23.3466 N   0  0  0  0  0  0  0  0  0  0  0  0
  -31.7364  -28.8860   21.2538 N   0  0  0  0  0  0  0  0  0  0  0  0
  -27.4185  -26.5281   21.0711 N   0  0  0  0  0  0  0  0  0  0  0  0
  -23.0748  -27.5929   20.4427 N   0  0  0  0  0  0  0  0  0  0  0  0
  -27.5189  -15.2154   21.1854 N   0  0  0  0  0  0  0  0  0  0  0  0
  -24.8382  -19.1358   25.7109 N   0  0  0  0  0  0  0  0  0  0  0  0
  -26.3383  -21.6299   27.8549 N   0  3  0  0  0  0  0  0  0  0  0  0
  -24.8050  -26.2997   19.6730 O   0  0  0  0  0  0  0  0  0  0  0  0
  -26.4905  -17.2252   20.6150 O   0  0  0  0  0  0  0  0  0  0  0  0
  -25.8121  -16.6575   24.6534 O   0  0  0  0  0  0  0  0  0  0  0  0
  -25.3557  -21.3453   25.2339 O   0  0  0  0  0  0  0  0  0  0  0  0
  -32.8687  -29.5509   23.1448 O   0  0  0  0  0  0  0  0  0  0  0  0
  -20.0962  -31.1973   23.4711 O   0  0  0  0  0  0  0  0  0  0  0  0
  -29.0909  -22.7199   19.7037 O   0  0  0  0  0  0  0  0  0  1  0  0
  -15.5175  -28.1270   23.3586 F   0  0  0  0  0  0  0  0  0  0  0  0
  -18.4627  -31.0048   25.6931 F   0  0  0  0  0  0  0  0  0  0  0  0
  1  2  1  0  0  0  0
  1  5  2  0  0  0  0
  2  6  2  0  0  0  0
  3  8  2  0  0  0  0
  3 16  1  0  0  0  0
  4  9  1  0  0  0  0
  4 16  2  0  0  0  0
  5 18  1  0  0  0  0
  6 20  1  0  0  0  0
  7 10  2  0  0  0  0
  7 19  1  0  0  0  0
  8 22  1  0  0  0  0
  9 22  2  0  0  0  0
 10 23  1  0  0  0  0
 11 12  2  0  0  0  0
 11 24  1  0  0  0  0
 12 25  1  0  0  0  0
 13 21  1  0  0  0  0
 13 23  2  0  0  0  0
 14 25  2  0  0  0  0
 14 26  1  0  0  0  0
 15 28  2  0  0  0  0
 15 29  1  0  0  0  0
 16 27  1  0  0  0  0
 17 27  1  0  0  0  0
 17 30  2  0  0  0  0
 17 32  1  0  0  0  0
 18 20  2  0  0  0  0
 18 37  1  0  0  0  0
 19 21  2  0  0  0  0
 19 38  1  0  0  0  0
 20 49  1  0  0  0  0
 21 39  1  0  0  0  0
 22 80  1  0  0  0  0
 23 81  1  0  0  0  0
 24 26  2  0  0  0  0
 24 80  1  0  0  0  0
 25 82  1  0  0  0  0
 26 83  1  0  0  0  0
 27 63  2  0  0  0  0
 28 50  1  0  0  0  0
 28 64  1  0  0  0  0
 29 53  1  0  0  0  0
 29 65  2  0  0  0  0
 30 66  1  0  0  0  0
 30 70  1  0  0  0  0
 31 59  1  0  0  0  0
 31 64  2  0  0  0  0
 31 65  1  0  0  0  0
 32 71  1  0  0  0  0
 32 75  2  0  0  0  0
 33 51  1  0  0  0  0
 33 72  1  0  0  0  0
 33 76  2  0  0  0  0
 34 60  1  0  0  0  0
 34 67  1  0  0  0  0
 34 77  2  0  0  0  0
 35 61  1  0  0  0  0
 35 73  1  0  0  0  0
 35 78  2  0  0  0  0
 36 68  1  0  0  0  0
 36 69  1  0  0  0  0
 36 79  2  0  0  0  0
 37 40  1  0  0  0  0
 38 51  1  0  0  0  0
 39 67  1  0  0  0  0
 40 42  1  0  0  0  0
 41 43  1  0  0  0  0
 41 45  1  0  0  0  0
 42 49  1  0  0  0  0
 43 52  1  0  0  0  0
 44 46  1  0  0  0  0
 44 50  1  0  0  0  0
 45 68  1  0  0  0  0
 46 69  1  0  0  0  0
 47 50  1  0  0  0  0
 47 69  1  0  0  0  0
 48 52  1  0  0  0  0
 48 68  1  0  0  0  0
 49 72  1  0  0  0  0
 51 67  1  0  0  0  0
 52 66  1  0  0  0  0
 54 61  1  0  0  0  0
 55 62  1  0  0  0  0
 56 62  1  0  0  0  0
 57 62  1  0  0  0  0
 58 74  1  0  0  0  0
 59 81  1  0  0  0  0
 60 62  1  0  0  0  0
 60 73  1  0  0  0  0
 61 74  1  0  0  0  0
 63 66  1  0  0  0  0
M  CHG  1  74   1
M  ISO  4  36 100  59 101  69 100  81 101
M  END
> <Batch ID>
0178

> <Smiles>
CNC(C)C(=O)NC(C(=O)N1Cc2cc([101O:1][101CH2:1]c3nc(C)cc(C4CC[100N:0]([100C:0](=O)N5CCCC(n6nc(-c7ccc(Oc8ccc(F)cc8F)cc7)c(C(N)=O)c6N)C5)C4)n3)ccc2CC1C(=O)NC1CCCc2ccccc21)C(C)(C)C

> <Shape>
0.227

> <Color>
0.063

> <Negative vol penalty>
0.000

$$$$

  -OEChem-04052322553D

 86 96  0     1  0  0  0  0  0999 V2000
  -20.1597  -23.8920   22.2059 C   0  0  0  0  0  0  0  0  0  0  0  0
  -21.4169  -23.4711   22.6276 C   0  0  0  0  0  0  0  0  0  0  0  0
  -27.1092  -28.9712   20.2565 C   0  0  0  0  0  0  0  0  0  0  0  0
  -25.5228  -27.1521   20.1498 C   0  0  0  0  0  0  0  0  0  0  0  0
  -19.1260  -22.9666   22.0681 C   0  0  0  0  0  0  0  0  0  0  0  0
  -21.6408  -22.1247   22.9128 C   0  0  0  0  0  0  0  0  0  0  0  0
  -25.9878  -20.4203   20.9524 C   0  0  0  0  0  0  0  0  0  0  0  0
  -26.0609  -29.8755   20.4260 C   0  0  0  0  0  0  0  0  0  0  0  0
  -24.4744  -28.0565   20.3193 C   0  0  0  0  0  0  0  0  0  0  0  0
  -27.1629  -20.7508   21.6259 C   0  0  0  0  0  0  0  0  0  0  0  0
  -23.8255  -32.6219   21.2480 C   0  0  0  0  0  0  0  0  0  0  0  0
  -23.9670  -33.6021   22.2302 C   0  0  0  0  0  0  0  0  0  0  0  0
  -27.1908  -18.5618   22.6391 C   0  0  0  0  0  0  0  0  0  0  0  0
  -24.1780  -31.8834   23.9150 C   0  0  0  0  0  0  0  0  0  0  0  0
  -30.5336  -17.8609   18.7633 C   0  0  0  0  0  0  0  0  0  0  0  0
  -26.8402  -27.6094   20.1184 C   0  0  0  0  0  0  0  0  0  0  0  0
  -28.6322  -25.9965   20.9518 C   0  0  0  0  0  0  0  0  0  0  0  0
  -19.3399  -21.6066   22.3424 C   0  0  0  0  0  0  0  0  0  0  0  0
  -25.3985  -19.1597   21.1259 C   0  0  0  0  0  0  0  0  0  0  0  0
  -20.6086  -21.1804   22.7798 C   0  0  0  0  0  0  0  0  0  0  0  0
  -26.0096  -18.2168   21.9647 C   0  0  0  0  0  0  0  0  0  0  0  0
  -24.7435  -29.4182   20.4574 C   0  0  0  0  0  0  0  0  0  0  0  0
  -27.7630  -19.8226   22.4717 C   0  0  0  0  0  0  0  0  0  0  0  0
  -23.8602  -31.2724   21.5993 C   0  0  0  0  0  0  0  0  0  0  0  0
  -24.1433  -33.2329   23.5637 C   0  0  0  0  0  0  0  0  0  0  0  0
  -24.0364  -30.9032   22.9328 C   0  0  0  0  0  0  0  0  0  0  0  0
  -27.9226  -26.6748   19.9428 C   0  0  0  0  0  0  0  0  0  0  0  0
  -30.8506  -17.9220   21.0272 C   0  0  0  0  0  0  0  0  0  0  0  0
  -31.5091  -19.1254   20.9026 C   0  0  0  0  0  0  0  0  0  0  0  0
  -31.1915  -19.0646   18.6387 C   0  0  0  0  0  0  0  0  0  0  0  0
  -29.5508  -25.2342   20.2724 C   0  0  0  0  0  0  0  0  0  0  0  0
  -28.4751  -26.0506   22.3759 C   0  0  0  0  0  0  0  0  0  0  0  0
  -22.6130  -18.1216   22.2517 C   0  0  0  0  0  0  0  0  0  0  0  0
  -23.7146  -15.2467   21.2300 C   0  0  0  0  0  0  0  0  0  0  0  0
  -26.3930  -13.2840   20.4421 C   0  0  0  0  0  0  0  0  0  0  0  0
  -30.8733  -21.7945   16.0813 C   0  0  0  0  0  0  0  0  0  0  0  0
  -18.1791  -20.6509   22.2244 C   0  0  0  0  0  0  0  0  0  0  0  0
  -24.1453  -18.8091   20.3715 C   0  0  0  0  0  0  0  0  0  0  0  0
  -25.4280  -16.8427   22.1695 C   0  0  0  0  0  0  0  0  0  0  0  0
  -18.5994  -19.1839   22.1864 C   0  0  0  0  0  0  0  0  0  0  0  0
  -30.9174  -25.2893   15.4025 C   0  0  0  0  0  0  0  0  0  0  0  0
  -19.6244  -18.8938   23.2783 C   0  0  0  0  0  0  0  0  0  0  0  0
  -31.7555  -16.4179   22.9227 C   0  0  0  0  0  0  0  0  0  0  0  0
  -30.4827  -15.7923   22.4441 C   0  0  0  0  0  0  0  0  0  0  0  0
  -30.1956  -25.9042   16.6028 C   0  0  0  0  0  0  0  0  0  0  0  0
  -32.2965  -21.3162   22.0256 C   0  0  0  0  0  0  0  0  0  0  0  0
  -30.3042  -23.9497   15.0008 C   0  0  0  0  0  0  0  0  0  0  0  0
  -29.4787  -23.5786   17.2931 C   0  0  0  0  0  0  0  0  0  0  0  0
  -20.8972  -19.7245   23.0749 C   0  0  1  0  0  0  0  0  0  0  0  0
  -30.6593  -17.2857   22.3630 C   0  0  0  0  0  0  0  0  0  0  0  0
  -32.0512  -19.8265   22.0925 C   0  0  1  0  0  0  0  0  0  0  0  0
  -23.3531  -17.6789   21.0213 C   0  0  1  0  0  0  0  0  0  0  0  0
  -30.0967  -24.9040   17.7703 C   0  0  2  0  0  0  0  0  0  0  0  0
  -31.1917  -20.7912   22.9056 C   0  0  1  0  0  0  0  0  0  0  0  0
  -31.4062  -20.8184   24.3970 C   0  0  0  0  0  0  0  0  0  0  0  0
  -26.9801  -10.9681   19.6746 C   0  0  0  0  0  0  0  0  0  0  0  0
  -23.1697  -14.1811   24.0367 C   0  0  0  0  0  0  0  0  0  0  0  0
  -24.6204  -12.2136   23.4959 C   0  0  0  0  0  0  0  0  0  0  0  0
  -22.5361  -12.6213   22.1874 C   0  0  0  0  0  0  0  0  0  0  0  0
  -27.6592  -14.2998   17.9675 C   0  0  0  0  0  0  0  0  0  0  0  0
  -31.3735  -19.6915   17.3005 C   0  0  0  0  0  0  0  0  0  0  0  0
  -29.7872  -21.0709   22.4942 C   0  0  0  0  0  0  0  0  0  1  0  0
  -24.5315  -14.1354   21.8437 C   0  0  1  0  0  0  0  0  0  0  0  0
  -26.6718  -12.3938   19.2445 C   0  0  2  0  0  0  0  0  0  0  0  0
  -23.7246  -13.3143   22.8888 C   0  0  0  0  0  0  0  0  0  0  0  0
  -30.3513  -17.2679   19.9599 N   0  0  0  0  0  0  0  0  0  0  0  0
  -28.3535  -26.3704   18.7157 N   0  0  0  0  0  0  0  0  0  0  0  0
  -31.6911  -19.7185   19.7061 N   0  0  0  0  0  0  0  0  0  0  0  0
  -29.3438  -25.4924   18.9493 N   0  0  0  0  0  0  0  0  0  0  0  0
  -24.1984  -16.5497   21.4147 N   0  0  0  0  0  0  0  0  0  0  0  0
  -30.2407  -23.0466   16.1524 N   0  0  0  0  0  0  0  0  0  0  0  0
  -30.5073  -24.3749   20.6837 N   0  0  0  0  0  0  0  0  0  0  0  0
  -27.4829  -26.8857   22.9073 N   0  0  0  0  0  0  0  0  0  0  0  0
  -21.7152  -19.1482   22.0293 N   0  0  0  0  0  0  0  0  0  0  0  0
  -25.0460  -13.3447   20.7309 N   0  0  0  0  0  0  0  0  0  0  0  0
  -30.7700  -21.0029   17.2186 N   0  0  0  0  0  0  0  0  0  0  0  0
  -27.8355  -12.9138   18.4723 N   0  3  0  0  0  0  0  0  0  0  0  0
  -29.2041  -25.3908   23.1548 O   0  0  0  0  0  0  0  0  0  0  0  0
  -22.8388  -17.5716   23.3233 O   0  0  0  0  0  0  0  0  0  0  0  0
  -22.6890  -14.9685   20.6037 O   0  0  0  0  0  0  0  0  0  0  0  0
  -27.2815  -13.8644   21.0619 O   0  0  0  0  0  0  0  0  0  0  0  0
  -31.4893  -21.4126   15.0805 O   0  0  0  0  0  0  0  0  0  0  0  0
  -23.7203  -30.3004   20.6229 O   0  0  0  0  0  0  0  0  0  0  0  0
  -28.9097  -20.1429   23.1308 O   0  0  0  0  0  0  0  0  0  1  0  0
  -24.2807  -34.1743   24.5066 F   0  0  0  0  0  0  0  0  0  0  0  0
  -24.0718  -29.6083   23.2763 F   0  0  0  0  0  0  0  0  0  0  0  0
  1  2  1  0  0  0  0
  1  5  2  0  0  0  0
  2  6  2  0  0  0  0
  3  8  2  0  0  0  0
  3 16  1  0  0  0  0
  4  9  1  0  0  0  0
  4 16  2  0  0  0  0
  5 18  1  0  0  0  0
  6 20  1  0  0  0  0
  7 10  2  0  0  0  0
  7 19  1  0  0  0  0
  8 22  1  0  0  0  0
  9 22  2  0  0  0  0
 10 23  1  0  0  0  0
 11 12  2  0  0  0  0
 11 24  1  0  0  0  0
 12 25  1  0  0  0  0
 13 21  1  0  0  0  0
 13 23  2  0  0  0  0
 14 25  2  0  0  0  0
 14 26  1  0  0  0  0
 15 30  1  0  0  0  0
 15 66  2  0  0  0  0
 16 27  1  0  0  0  0
 17 27  1  0  0  0  0
 17 31  2  0  0  0  0
 17 32  1  0  0  0  0
 18 20  2  0  0  0  0
 18 37  1  0  0  0  0
 19 21  2  0  0  0  0
 19 38  1  0  0  0  0
 20 49  1  0  0  0  0
 21 39  1  0  0  0  0
 22 83  1  0  0  0  0
 23 84  1  0  0  0  0
 24 26  2  0  0  0  0
 24 83  1  0  0  0  0
 25 85  1  0  0  0  0
 26 86  1  0  0  0  0
 27 67  2  0  0  0  0
 28 29  2  0  0  0  0
 28 50  1  0  0  0  0
 28 66  1  0  0  0  0
 29 51  1  0  0  0  0
 29 68  1  0  0  0  0
 30 61  1  0  0  0  0
 30 68  2  0  0  0  0
 31 69  1  0  0  0  0
 31 72  1  0  0  0  0
 32 73  1  0  0  0  0
 32 78  2  0  0  0  0
 33 52  1  0  0  0  0
 33 74  1  0  0  0  0
 33 79  2  0  0  0  0
 34 63  1  0  0  0  0
 34 70  1  0  0  0  0
 34 80  2  0  0  0  0
 35 64  1  0  0  0  0
 35 75  1  0  0  0  0
 35 81  2  0  0  0  0
 36 71  1  0  0  0  0
 36 76  1  0  0  0  0
 36 82  2  0  0  0  0
 37 40  1  0  0  0  0
 38 52  1  0  0  0  0
 39 70  1  0  0  0  0
 40 42  1  0  0  0  0
 41 45  1  0  0  0  0
 41 47  1  0  0  0  0
 42 49  1  0  0  0  0
 43 44  1  0  0  0  0
 43 50  1  0  0  0  0
 44 50  1  0  0  0  0
 45 53  1  0  0  0  0
 46 51  1  0  0  0  0
 46 54  1  0  0  0  0
 47 71  1  0  0  0  0
 48 53  1  0  0  0  0
 48 71  1  0  0  0  0
 49 74  1  0  0  0  0
 51 54  1  0  0  0  0
 52 70  1  0  0  0  0
 53 69  1  0  0  0  0
 54 55  1  0  0  0  0
 54 62  1  0  0  0  0
 56 64  1  0  0  0  0
 57 65  1  0  0  0  0
 58 65  1  0  0  0  0
 59 65  1  0  0  0  0
 60 77  1  0  0  0  0
 61 76  1  0  0  0  0
 62 84  1  0  0  0  0
 63 65  1  0  0  0  0
 63 75  1  0  0  0  0
 64 77  1  0  0  0  0
 67 69  1  0  0  0  0
M  CHG  1  77   1
M  ISO  4  36 100  62 101  76 100  84 101
M  END
> <Batch ID>
0178

> <Smiles>
CNC(C)C(=O)NC(C(=O)N1Cc2cc([101O:1][101CH2:1]C3(C)CC3c3nc(C[100NH:0][100C:0](=O)N4CCCC(n5nc(-c6ccc(Oc7ccc(F)cc7F)cc6)c(C(N)=O)c5N)C4)cnc3C3CC3)ccc2CC1C(=O)NC1CCCc2ccccc21)C(C)(C)C

> <Shape>
0.206

> <Color>
0.052

> <Negative vol penalty>
0.000

$$$$

  -OEChem-04052322553D

 89 98  0     1  0  0  0  0  0999 V2000
  -20.8578  -34.0722   24.6576 C   0  0  0  0  0  0  0  0  0  0  0  0
  -22.0925  -33.5473   24.2894 C   0  0  0  0  0  0  0  0  0  0  0  0
  -27.3085  -17.1381   20.1175 C   0  0  0  0  0  0  0  0  0  0  0  0
  -29.1339  -16.6734   18.6045 C   0  0  0  0  0  0  0  0  0  0  0  0
  -19.7527  -33.2310   24.7803 C   0  0  0  0  0  0  0  0  0  0  0  0
  -22.2229  -32.1807   24.0447 C   0  0  0  0  0  0  0  0  0  0  0  0
  -25.8627  -29.5129   19.9046 C   0  0  0  0  0  0  0  0  0  0  0  0
  -26.9071  -15.8044   20.0428 C   0  0  0  0  0  0  0  0  0  0  0  0
  -28.7325  -15.3396   18.5298 C   0  0  0  0  0  0  0  0  0  0  0  0
  -27.1173  -28.9135   20.0064 C   0  0  0  0  0  0  0  0  0  0  0  0
  -28.9988  -12.5505   20.4193 C   0  0  0  0  0  0  0  0  0  0  0  0
  -29.9872  -11.5713   20.5181 C   0  0  0  0  0  0  0  0  0  0  0  0
  -26.0624  -26.7530   20.2032 C   0  0  0  0  0  0  0  0  0  0  0  0
  -29.3945  -10.7518   18.3239 C   0  0  0  0  0  0  0  0  0  0  0  0
  -28.4219  -17.5726   19.3983 C   0  0  0  0  0  0  0  0  0  0  0  0
  -29.7419  -19.5161   20.3925 C   0  0  0  0  0  0  0  0  0  0  0  0
  -19.8674  -31.8549   24.5276 C   0  0  0  0  0  0  0  0  0  0  0  0
  -24.6962  -28.7368   19.9624 C   0  0  0  0  0  0  0  0  0  0  0  0
  -21.1186  -31.3202   24.1654 C   0  0  0  0  0  0  0  0  0  0  0  0
  -24.7943  -27.3447   20.0993 C   0  0  0  0  0  0  0  0  0  0  0  0
  -32.3787  -25.6376   21.5320 C   0  0  0  0  0  0  0  0  0  0  0  0
  -31.2218  -26.4285   21.5167 C   0  0  0  0  0  0  0  0  0  0  0  0
  -33.0811  -25.4438   20.3380 C   0  0  0  0  0  0  0  0  0  0  0  0
  -27.6190  -14.9051   19.2490 C   0  0  0  0  0  0  0  0  0  0  0  0
  -27.2173  -27.5336   20.1586 C   0  0  0  0  0  0  0  0  0  0  0  0
  -28.2081  -12.6303   19.2729 C   0  0  0  0  0  0  0  0  0  0  0  0
  -30.1851  -10.6720   19.4704 C   0  0  0  0  0  0  0  0  0  0  0  0
  -28.4060  -11.7310   18.2252 C   0  0  0  0  0  0  0  0  0  0  0  0
  -28.8368  -18.9504   19.4746 C   0  0  0  0  0  0  0  0  0  0  0  0
  -30.8244  -26.9712   20.2980 C   0  0  0  0  0  0  0  0  0  0  0  0
  -32.5997  -26.0389   19.1831 C   0  0  0  0  0  0  0  0  0  0  0  0
  -29.7954  -20.8445   20.0477 C   0  0  0  0  0  0  0  0  0  0  0  0
  -30.4693  -18.8961   21.4612 C   0  0  0  0  0  0  0  0  0  0  0  0
  -22.1915  -28.5937   21.9142 C   0  0  0  0  0  0  0  0  0  0  0  0
  -21.0880  -26.4840   19.7111 C   0  0  0  0  0  0  0  0  0  0  0  0
  -21.7950  -24.2584   17.2224 C   0  0  0  0  0  0  0  0  0  0  0  0
  -30.1419  -24.8606   16.1881 C   0  0  0  0  0  0  0  0  0  0  0  0
  -18.6554  -30.9781   24.7192 C   0  0  0  0  0  0  0  0  0  0  0  0
  -23.3512  -29.3957   19.8243 C   0  0  0  0  0  0  0  0  0  0  0  0
  -23.5730  -26.4646   20.1466 C   0  0  0  0  0  0  0  0  0  0  0  0
  -30.3931  -26.6413   22.7479 C   0  0  0  0  0  0  0  0  0  0  0  0
  -18.7932  -29.5997   24.0779 C   0  0  0  0  0  0  0  0  0  0  0  0
  -26.9089  -23.5455   16.8917 C   0  0  0  0  0  0  0  0  0  0  0  0
  -20.1489  -28.9871   24.4152 C   0  0  0  0  0  0  0  0  0  0  0  0
  -27.1973  -22.2768   17.6963 C   0  0  0  0  0  0  0  0  0  0  0  0
  -27.9519  -23.7701   15.7991 C   0  0  0  0  0  0  0  0  0  0  0  0
  -29.6385  -22.5026   17.0731 C   0  0  0  0  0  0  0  0  0  0  0  0
  -31.7842  -24.9150   23.8857 C   0  0  0  0  0  0  0  0  0  0  0  0
  -32.8856  -25.0206   22.8205 C   0  0  2  0  0  0  0  0  0  0  0  0
  -21.2944  -29.8469   23.8675 C   0  0  1  0  0  0  0  0  0  0  0  0
  -22.2153  -28.5642   20.4121 C   0  0  1  0  0  0  0  0  0  0  0  0
  -28.6450  -22.2637   18.2229 C   0  0  2  0  0  0  0  0  0  0  0  0
  -34.3132  -24.6000   20.2761 C   0  0  0  0  0  0  0  0  0  0  0  0
  -34.0903  -25.8060   23.3620 C   0  0  0  0  0  0  0  0  0  0  0  0
  -20.6878  -22.6603   15.6357 C   0  0  0  0  0  0  0  0  0  0  0  0
  -30.9751  -26.3864   26.4802 C   0  0  0  0  0  0  0  0  0  0  0  0
  -29.3101  -25.0029   25.1811 C   0  0  0  0  0  0  0  0  0  0  0  0
  -20.6730  -24.5058   21.9969 C   0  0  0  0  0  0  0  0  0  0  0  0
  -20.4896  -22.6815   20.2921 C   0  0  0  0  0  0  0  0  0  0  0  0
  -18.8321  -24.5456   20.3046 C   0  0  0  0  0  0  0  0  0  0  0  0
  -22.8106  -25.7206   14.8582 C   0  0  0  0  0  0  0  0  0  0  0  0
  -33.3135  -25.8575   17.8832 C   0  0  0  0  0  0  0  0  0  0  0  0
  -29.5798  -27.8035   20.2003 C   0  0  0  0  0  0  0  0  0  1  0  0
  -32.3771  -25.8251   16.6706 C   0  0  0  0  0  0  0  0  0  0  0  0
  -21.1922  -24.9908   19.5147 C   0  0  1  0  0  0  0  0  0  0  0  0
  -21.2043  -24.0766   15.8359 C   0  0  2  0  0  0  0  0  0  0  0  0
  -30.1504  -26.2695   25.2085 C   0  0  0  0  0  0  0  0  0  0  0  0
  -20.3199  -24.1975   20.5282 C   0  0  0  0  0  0  0  0  0  0  0  0
  -28.3501  -19.8462   18.6116 N   0  0  0  0  0  0  0  0  0  0  0  0
  -31.4863  -26.7997   19.1323 N   0  0  0  0  0  0  0  0  0  0  0  0
  -28.9516  -20.9882   18.9858 N   0  0  0  0  0  0  0  0  0  0  0  0
  -22.2804  -27.1566   20.0137 N   0  0  0  0  0  0  0  0  0  0  0  0
  -29.3030  -23.7479   16.3648 N   0  0  0  0  0  0  0  0  0  0  0  0
  -30.4812  -21.8920   20.5523 N   0  0  0  0  0  0  0  0  0  0  0  0
  -30.2977  -17.5220   21.6773 N   0  0  0  0  0  0  0  0  0  0  0  0
  -21.4514  -29.6330   22.4449 N   0  0  0  0  0  0  0  0  0  0  0  0
  -20.8615  -24.7390   18.1163 N   0  0  0  0  0  0  0  0  0  0  0  0
  -31.4036  -24.7598   16.7615 N   0  0  0  0  0  0  0  0  0  0  0  0
  -31.0874  -26.2453   24.0336 N   0  3  2  0  0  0  0  0  0  0  0  0
  -22.2334  -24.3532   14.7941 N   0  3  0  0  0  0  0  0  0  0  0  0
  -31.2360  -19.5448   22.2129 O   0  0  0  0  0  0  0  0  0  0  0  0
  -22.7984  -27.7362   22.5450 O   0  0  0  0  0  0  0  0  0  0  0  0
  -19.9903  -27.0343   19.5932 O   0  0  0  0  0  0  0  0  0  0  0  0
  -22.9663  -23.9965   17.4870 O   0  0  0  0  0  0  0  0  0  0  0  0
  -29.7905  -25.8712   15.5700 O   0  0  0  0  0  0  0  0  0  0  0  0
  -27.2277  -13.6035   19.1761 O   0  0  0  0  0  0  0  0  0  0  0  0
  -28.4406  -26.9460   20.2588 O   0  0  0  0  0  0  0  0  0  1  0  0
  -31.1354   -9.7327   19.5647 F   0  0  0  0  0  0  0  0  0  0  0  0
  -27.6504  -11.8035   17.1209 F   0  0  0  0  0  0  0  0  0  0  0  0
  1  2  1  0  0  0  0
  1  5  2  0  0  0  0
  2  6  2  0  0  0  0
  3  8  2  0  0  0  0
  3 15  1  0  0  0  0
  4  9  1  0  0  0  0
  4 15  2  0  0  0  0
  5 17  1  0  0  0  0
  6 19  1  0  0  0  0
  7 10  2  0  0  0  0
  7 18  1  0  0  0  0
  8 24  1  0  0  0  0
  9 24  2  0  0  0  0
 10 25  1  0  0  0  0
 11 12  2  0  0  0  0
 11 26  1  0  0  0  0
 12 27  1  0  0  0  0
 13 20  1  0  0  0  0
 13 25  2  0  0  0  0
 14 27  2  0  0  0  0
 14 28  1  0  0  0  0
 15 29  1  0  0  0  0
 16 29  1  0  0  0  0
 16 32  2  0  0  0  0
 16 33  1  0  0  0  0
 17 19  2  0  0  0  0
 17 38  1  0  0  0  0
 18 20  2  0  0  0  0
 18 39  1  0  0  0  0
 19 50  1  0  0  0  0
 20 40  1  0  0  0  0
 21 22  1  0  0  0  0
 21 23  2  0  0  0  0
 21 49  1  0  0  0  0
 22 30  2  0  0  0  0
 22 41  1  0  0  0  0
 23 31  1  0  0  0  0
 23 53  1  0  0  0  0
 24 86  1  0  0  0  0
 25 87  1  0  0  0  0
 26 28  2  0  0  0  0
 26 86  1  0  0  0  0
 27 88  1  0  0  0  0
 28 89  1  0  0  0  0
 29 69  2  0  0  0  0
 30 63  1  0  0  0  0
 30 70  1  0  0  0  0
 31 62  1  0  0  0  0
 31 70  2  0  0  0  0
 32 71  1  0  0  0  0
 32 74  1  0  0  0  0
 33 75  1  0  0  0  0
 33 81  2  0  0  0  0
 34 51  1  0  0  0  0
 34 76  1  0  0  0  0
 34 82  2  0  0  0  0
 35 65  1  0  0  0  0
 35 72  1  0  0  0  0
 35 83  2  0  0  0  0
 36 66  1  0  0  0  0
 36 77  1  0  0  0  0
 36 84  2  0  0  0  0
 37 73  1  0  0  0  0
 37 78  1  0  0  0  0
 37 85  2  0  0  0  0
 38 42  1  0  0  0  0
 39 51  1  0  0  0  0
 40 72  1  0  0  0  0
 41 79  1  0  0  0  0
 42 44  1  0  0  0  0
 43 45  1  0  0  0  0
 43 46  1  0  0  0  0
 44 50  1  0  0  0  0
 45 52  1  0  0  0  0
 46 73  1  0  0  0  0
 47 52  1  0  0  0  0
 47 73  1  0  0  0  0
 48 49  1  0  0  0  0
 48 79  1  0  0  0  0
 49 54  1  0  0  0  0
 50 76  1  0  0  0  0
 51 72  1  0  0  0  0
 52 71  1  0  0  0  0
 55 66  1  0  0  0  0
 56 67  1  0  0  0  0
 57 67  1  0  0  0  0
 58 68  1  0  0  0  0
 59 68  1  0  0  0  0
 60 68  1  0  0  0  0
 61 80  1  0  0  0  0
 62 64  1  0  0  0  0
 63 87  1  0  0  0  0
 64 78  1  0  0  0  0
 65 68  1  0  0  0  0
 65 77  1  0  0  0  0
 66 80  1  0  0  0  0
 67 79  1  0  0  0  0
 69 71  1  0  0  0  0
M  CHG  2  79   1  80   1
M  ISO  4  37 100  63 101  78 100  87 101
M  END
> <Batch ID>
0178

> <Smiles>
CNC(C)C(=O)NC(C(=O)N1Cc2cc([101O:1][101CH2:1]c3nc(CC[100NH:0][100C:0](=O)N4CCCC(n5nc(-c6ccc(Oc7ccc(F)cc7F)cc6)c(C(N)=O)c5N)C4)c(C)c4c3CN(C(C)C)CC4C)ccc2CC1C(=O)NC1CCCc2ccccc21)C(C)(C)C

> <Shape>
0.229

> <Color>
0.059

> <Negative vol penalty>
0.000

$$$$

  -OEChem-04052322553D

 84 93  0     1  0  0  0  0  0999 V2000
  -27.5557  -11.5304   23.4858 C   0  0  0  0  0  0  0  0  0  0  0  0
  -28.0883  -12.7812   23.1903 C   0  0  0  0  0  0  0  0  0  0  0  0
  -22.3229  -27.6712   22.5750 C   0  0  0  0  0  0  0  0  0  0  0  0
  -23.0943  -29.3748   21.0454 C   0  0  0  0  0  0  0  0  0  0  0  0
  -26.5448  -10.9981   22.6866 C   0  0  0  0  0  0  0  0  0  0  0  0
  -27.6111  -13.4999   22.0948 C   0  0  0  0  0  0  0  0  0  0  0  0
  -27.0187  -19.5795   21.6552 C   0  0  0  0  0  0  0  0  0  0  0  0
  -21.3779  -28.5596   23.0880 C   0  0  0  0  0  0  0  0  0  0  0  0
  -22.1493  -30.2633   21.5584 C   0  0  0  0  0  0  0  0  0  0  0  0
  -27.8214  -20.5606   21.0747 C   0  0  0  0  0  0  0  0  0  0  0  0
  -18.3477  -29.7638   22.1933 C   0  0  0  0  0  0  0  0  0  0  0  0
  -17.0505  -29.2894   22.3877 C   0  0  0  0  0  0  0  0  0  0  0  0
  -26.4776  -20.4674   19.0735 C   0  0  0  0  0  0  0  0  0  0  0  0
  -29.4236  -26.3144   17.6188 C   0  0  0  0  0  0  0  0  0  0  0  0
  -17.2206  -29.7906   24.7451 C   0  0  0  0  0  0  0  0  0  0  0  0
  -23.1812  -28.0787   21.5537 C   0  0  0  0  0  0  0  0  0  0  0  0
  -23.9910  -26.2705   19.9468 C   0  0  0  0  0  0  0  0  0  0  0  0
  -26.0483  -11.7148   21.5864 C   0  0  0  0  0  0  0  0  0  0  0  0
  -25.9443  -19.0263   20.9439 C   0  0  0  0  0  0  0  0  0  0  0  0
  -26.5936  -12.9760   21.2793 C   0  0  0  0  0  0  0  0  0  0  0  0
  -25.6613  -19.4813   19.6482 C   0  0  0  0  0  0  0  0  0  0  0  0
  -29.2916  -25.0036   17.1743 C   0  0  0  0  0  0  0  0  0  0  0  0
  -29.9373  -23.9766   17.8537 C   0  0  0  0  0  0  0  0  0  0  0  0
  -21.2911  -29.8557   22.5797 C   0  0  0  0  0  0  0  0  0  0  0  0
  -27.5527  -21.0027   19.7827 C   0  0  0  0  0  0  0  0  0  0  0  0
  -19.0814  -30.2515   23.2747 C   0  0  0  0  0  0  0  0  0  0  0  0
  -16.4869  -29.3029   23.6636 C   0  0  0  0  0  0  0  0  0  0  0  0
  -18.5179  -30.2650   24.5506 C   0  0  0  0  0  0  0  0  0  0  0  0
  -24.1580  -27.1616   21.0238 C   0  0  0  0  0  0  0  0  0  0  0  0
  -30.2064  -26.5437   18.7388 C   0  0  0  0  0  0  0  0  0  0  0  0
  -30.6973  -24.3105   18.9631 C   0  0  0  0  0  0  0  0  0  0  0  0
  -25.2008  -25.6290   19.8412 C   0  0  0  0  0  0  0  0  0  0  0  0
  -22.8447  -26.0431   19.1161 C   0  0  0  0  0  0  0  0  0  0  0  0
  -25.1990  -16.1132   19.9133 C   0  0  0  0  0  0  0  0  0  0  0  0
  -22.4123  -17.5464   19.0750 C   0  0  0  0  0  0  0  0  0  0  0  0
  -20.7627  -20.4216   18.2635 C   0  0  0  0  0  0  0  0  0  0  0  0
  -30.6950  -27.4881   21.9293 C   0  0  0  0  0  0  0  0  0  0  0  0
  -24.9878  -11.0777   20.7238 C   0  0  0  0  0  0  0  0  0  0  0  0
  -25.0717  -17.9879   21.5941 C   0  0  0  0  0  0  0  0  0  0  0  0
  -24.5073  -18.9340   18.8498 C   0  0  0  0  0  0  0  0  0  0  0  0
  -24.2772  -12.0660   19.8026 C   0  0  0  0  0  0  0  0  0  0  0  0
  -28.9562  -24.2528   22.4183 C   0  0  0  0  0  0  0  0  0  0  0  0
  -25.2903  -12.9646   19.1006 C   0  0  0  0  0  0  0  0  0  0  0  0
  -27.5029  -24.5990   22.1093 C   0  0  0  0  0  0  0  0  0  0  0  0
  -31.7437  -28.7042   18.9310 C   0  0  0  0  0  0  0  0  0  0  0  0
  -29.7263  -25.4651   22.9297 C   0  0  0  0  0  0  0  0  0  0  0  0
  -31.9955  -29.0436   20.3955 C   0  0  0  0  0  0  0  0  0  0  0  0
  -28.2256  -26.9847   21.6842 C   0  0  0  0  0  0  0  0  0  0  0  0
  -26.0850  -13.7968   20.1141 C   0  0  1  0  0  0  0  0  0  0  0  0
  -30.4388  -27.9894   19.3484 C   0  0  2  0  0  0  0  0  0  0  0  0
  -24.3168  -17.1260   20.5868 C   0  0  1  0  0  0  0  0  0  0  0  0
  -27.4267  -25.7887   21.1406 C   0  0  2  0  0  0  0  0  0  0  0  0
  -28.4541  -24.7255   15.9699 C   0  0  0  0  0  0  0  0  0  0  0  0
  -31.4146  -23.2501   19.7329 C   0  0  0  0  0  0  0  0  0  0  0  0
  -18.4993  -21.2713   17.5909 C   0  0  0  0  0  0  0  0  0  0  0  0
  -22.8388  -16.4475   16.2607 C   0  0  0  0  0  0  0  0  0  0  0  0
  -21.1196  -18.0724   15.4409 C   0  0  0  0  0  0  0  0  0  0  0  0
  -20.4827  -16.3106   17.0880 C   0  0  0  0  0  0  0  0  0  0  0  0
  -20.5731  -22.1526   20.6566 C   0  0  0  0  0  0  0  0  0  0  0  0
  -29.8120  -22.5442   17.3945 C   0  0  0  0  0  0  0  0  0  0  0  0
  -28.4787  -21.9217   17.7943 C   0  0  0  0  0  0  0  0  0  1  0  0
  -21.9045  -18.2593   17.8450 C   0  0  1  0  0  0  0  0  0  0  0  0
  -19.4455  -20.9987   18.7498 C   0  0  2  0  0  0  0  0  0  0  0  0
  -21.6094  -17.2816   16.6727 C   0  0  0  0  0  0  0  0  0  0  0  0
  -25.3777  -27.0949   21.5639 N   0  0  0  0  0  0  0  0  0  0  0  0
  -30.8490  -25.5720   19.4249 N   0  0  0  0  0  0  0  0  0  0  0  0
  -25.9882  -26.1541   20.8233 N   0  0  0  0  0  0  0  0  0  0  0  0
  -23.6871  -17.9159   19.5268 N   0  0  0  0  0  0  0  0  0  0  0  0
  -29.6047  -26.6152   22.0299 N   0  0  0  0  0  0  0  0  0  0  0  0
  -30.9142  -28.1250   20.7296 N   0  0  0  0  0  0  0  0  0  0  0  0
  -25.6574  -24.6725   19.0050 N   0  0  0  0  0  0  0  0  0  0  0  0
  -21.6833  -26.7882   19.3615 N   0  0  0  0  0  0  0  0  0  0  0  0
  -25.2909  -14.9103   20.5872 N   0  0  0  0  0  0  0  0  0  0  0  0
  -20.7512  -19.0428   18.2743 N   0  0  0  0  0  0  0  0  0  0  0  0
  -19.6779  -22.2782   19.4777 N   0  3  0  0  0  0  0  0  0  0  0  0
  -22.8450  -25.1922   18.1944 O   0  0  0  0  0  0  0  0  0  0  0  0
  -25.7539  -16.4011   18.8593 O   0  0  0  0  0  0  0  0  0  0  0  0
  -21.7010  -16.6981   19.6192 O   0  0  0  0  0  0  0  0  0  0  0  0
  -21.7060  -21.1237   17.9061 O   0  0  0  0  0  0  0  0  0  0  0  0
  -31.4693  -27.6729   22.8782 O   0  0  0  0  0  0  0  0  0  0  0  0
  -20.3689  -30.7228   23.0798 O   0  0  0  0  0  0  0  0  0  0  0  0
  -28.3349  -21.9597   19.2135 O   0  0  0  0  0  0  0  0  0  1  0  0
  -15.2406  -28.8488   23.8500 F   0  0  0  0  0  0  0  0  0  0  0  0
  -19.2174  -30.7334   25.5932 F   0  0  0  0  0  0  0  0  0  0  0  0
  1  2  1  0  0  0  0
  1  5  2  0  0  0  0
  2  6  2  0  0  0  0
  3  8  2  0  0  0  0
  3 16  1  0  0  0  0
  4  9  1  0  0  0  0
  4 16  2  0  0  0  0
  5 18  1  0  0  0  0
  6 20  1  0  0  0  0
  7 10  2  0  0  0  0
  7 19  1  0  0  0  0
  8 24  1  0  0  0  0
  9 24  2  0  0  0  0
 10 25  1  0  0  0  0
 11 12  2  0  0  0  0
 11 26  1  0  0  0  0
 12 27  1  0  0  0  0
 13 21  1  0  0  0  0
 13 25  2  0  0  0  0
 14 22  2  0  0  0  0
 14 30  1  0  0  0  0
 15 27  2  0  0  0  0
 15 28  1  0  0  0  0
 16 29  1  0  0  0  0
 17 29  1  0  0  0  0
 17 32  2  0  0  0  0
 17 33  1  0  0  0  0
 18 20  2  0  0  0  0
 18 38  1  0  0  0  0
 19 21  2  0  0  0  0
 19 39  1  0  0  0  0
 20 49  1  0  0  0  0
 21 40  1  0  0  0  0
 22 23  1  0  0  0  0
 22 53  1  0  0  0  0
 23 31  2  0  0  0  0
 23 60  1  0  0  0  0
 24 81  1  0  0  0  0
 25 82  1  0  0  0  0
 26 28  2  0  0  0  0
 26 81  1  0  0  0  0
 27 83  1  0  0  0  0
 28 84  1  0  0  0  0
 29 65  2  0  0  0  0
 30 50  1  0  0  0  0
 30 66  2  0  0  0  0
 31 54  1  0  0  0  0
 31 66  1  0  0  0  0
 32 67  1  0  0  0  0
 32 71  1  0  0  0  0
 33 72  1  0  0  0  0
 33 76  2  0  0  0  0
 34 51  1  0  0  0  0
 34 73  1  0  0  0  0
 34 77  2  0  0  0  0
 35 62  1  0  0  0  0
 35 68  1  0  0  0  0
 35 78  2  0  0  0  0
 36 63  1  0  0  0  0
 36 74  1  0  0  0  0
 36 79  2  0  0  0  0
 37 69  1  0  0  0  0
 37 70  1  0  0  0  0
 37 80  2  0  0  0  0
 38 41  1  0  0  0  0
 39 51  1  0  0  0  0
 40 68  1  0  0  0  0
 41 43  1  0  0  0  0
 42 44  1  0  0  0  0
 42 46  1  0  0  0  0
 43 49  1  0  0  0  0
 44 52  1  0  0  0  0
 45 47  1  0  0  0  0
 45 50  1  0  0  0  0
 46 69  1  0  0  0  0
 47 70  1  0  0  0  0
 48 52  1  0  0  0  0
 48 69  1  0  0  0  0
 49 73  1  0  0  0  0
 50 70  1  0  0  0  0
 51 68  1  0  0  0  0
 52 67  1  0  0  0  0
 55 63  1  0  0  0  0
 56 64  1  0  0  0  0
 57 64  1  0  0  0  0
 58 64  1  0  0  0  0
 59 75  1  0  0  0  0
 60 61  1  0  0  0  0
 61 82  1  0  0  0  0
 62 64  1  0  0  0  0
 62 74  1  0  0  0  0
 63 75  1  0  0  0  0
 65 67  1  0  0  0  0
M  CHG  1  75   1
M  ISO  4  37 100  61 101  70 100  82 101
M  END
> <Batch ID>
0178

> <Smiles>
CNC(C)C(=O)NC(C(=O)N1Cc2cc([101O:1][101CH2:1]Cc3c(C)cc(C4CC[100N:0]4[100C:0](=O)N4CCCC(n5nc(-c6ccc(Oc7ccc(F)cc7F)cc6)c(C(N)=O)c5N)C4)nc3C)ccc2CC1C(=O)NC1CCCc2ccccc21)C(C)(C)C

> <Shape>
0.197

> <Color>
0.074

> <Negative vol penalty>
0.000

$$$$

  -OEChem-04052322553D

 80 88  0     1  0  0  0  0  0999 V2000
  -16.7980  -30.3979   23.2792 C   0  0  0  0  0  0  0  0  0  0  0  0
  -18.0676  -30.9136   23.0391 C   0  0  0  0  0  0  0  0  0  0  0  0
  -25.5012  -15.0582   19.9606 C   0  0  0  0  0  0  0  0  0  0  0  0
  -27.0001  -14.7463   21.8295 C   0  0  0  0  0  0  0  0  0  0  0  0
  -16.6306  -29.0295   23.4876 C   0  0  0  0  0  0  0  0  0  0  0  0
  -19.1707  -30.0613   23.0084 C   0  0  0  0  0  0  0  0  0  0  0  0
  -25.5167  -29.2576   19.7836 C   0  0  0  0  0  0  0  0  0  0  0  0
  -25.3287  -13.6772   19.8684 C   0  0  0  0  0  0  0  0  0  0  0  0
  -26.8276  -13.3652   21.7374 C   0  0  0  0  0  0  0  0  0  0  0  0
  -26.8626  -29.0597   20.0888 C   0  0  0  0  0  0  0  0  0  0  0  0
  -23.5623  -11.2755   21.4635 C   0  0  0  0  0  0  0  0  0  0  0  0
  -22.2637  -10.7940   21.2977 C   0  0  0  0  0  0  0  0  0  0  0  0
  -26.4428  -26.7026   20.3839 C   0  0  0  0  0  0  0  0  0  0  0  0
  -22.9100   -9.7713   19.2064 C   0  0  0  0  0  0  0  0  0  0  0  0
  -26.3369  -15.5928   20.9411 C   0  0  0  0  0  0  0  0  0  0  0  0
  -25.7524  -17.9228   21.7999 C   0  0  0  0  0  0  0  0  0  0  0  0
  -17.7310  -28.1587   23.4499 C   0  0  0  0  0  0  0  0  0  0  0  0
  -24.6201  -28.1794   19.7868 C   0  0  0  0  0  0  0  0  0  0  0  0
  -19.0181  -28.6801   23.2178 C   0  0  0  0  0  0  0  0  0  0  0  0
  -25.0866  -26.8890   20.0758 C   0  0  0  0  0  0  0  0  0  0  0  0
  -25.9919  -12.8307   20.7568 C   0  0  0  0  0  0  0  0  0  0  0  0
  -27.3253  -27.7825   20.3919 C   0  0  0  0  0  0  0  0  0  0  0  0
  -24.5347  -11.0049   20.5008 C   0  0  0  0  0  0  0  0  0  0  0  0
  -21.9376  -10.0419   20.1692 C   0  0  0  0  0  0  0  0  0  0  0  0
  -24.2086  -10.2528   19.3723 C   0  0  0  0  0  0  0  0  0  0  0  0
  -26.5159  -17.0194   21.0365 C   0  0  0  0  0  0  0  0  0  0  0  0
  -26.3200  -19.1483   21.5503 C   0  0  0  0  0  0  0  0  0  0  0  0
  -24.6306  -17.6761   22.6580 C   0  0  0  0  0  0  0  0  0  0  0  0
  -22.0114  -27.4364   21.4441 C   0  0  0  0  0  0  0  0  0  0  0  0
  -21.8646  -24.9575   19.3570 C   0  0  0  0  0  0  0  0  0  0  0  0
  -30.7300  -26.5390   18.9046 C   0  0  0  0  0  0  0  0  0  0  0  0
  -23.3427  -22.3242   17.3826 C   0  0  0  0  0  0  0  0  0  0  0  0
  -28.2039  -22.8037   17.8840 C   0  0  0  0  0  0  0  0  0  0  0  0
  -17.5070  -26.6934   23.7279 C   0  0  0  0  0  0  0  0  0  0  0  0
  -23.1766  -28.4052   19.4293 C   0  0  0  0  0  0  0  0  0  0  0  0
  -24.1687  -25.6949   20.0731 C   0  0  0  0  0  0  0  0  0  0  0  0
  -18.6771  -25.8078   23.3074 C   0  0  0  0  0  0  0  0  0  0  0  0
  -30.6327  -20.3881   19.2545 C   0  0  0  0  0  0  0  0  0  0  0  0
  -19.9973  -26.4067   23.7819 C   0  0  0  0  0  0  0  0  0  0  0  0
  -29.6987  -19.3428   19.8570 C   0  0  0  0  0  0  0  0  0  0  0  0
  -29.1987  -26.4927   15.3922 C   0  0  0  0  0  0  0  0  0  0  0  0
  -28.4497  -25.1447   15.3459 C   0  0  0  0  0  0  0  0  0  0  0  0
  -30.0470  -21.0215   17.9932 C   0  0  0  0  0  0  0  0  0  0  0  0
  -27.7503  -20.5489   18.7969 C   0  0  0  0  0  0  0  0  0  0  0  0
  -20.2361  -27.7844   23.1523 C   0  0  1  0  0  0  0  0  0  0  0  0
  -22.2510  -27.3176   19.9655 C   0  0  1  0  0  0  0  0  0  0  0  0
  -28.3013  -19.9359   20.0935 C   0  0  1  0  0  0  0  0  0  0  0  0
  -29.9795  -25.9335   16.6037 C   0  0  2  0  0  0  0  0  0  0  0  0
  -28.7668  -25.0001   16.8527 C   0  0  2  0  0  0  0  0  0  0  0  0
  -22.9974  -20.5159   15.6773 C   0  0  0  0  0  0  0  0  0  0  0  0
  -21.7107  -23.0974   21.7707 C   0  0  0  0  0  0  0  0  0  0  0  0
  -22.2879  -21.1926   20.2519 C   0  0  0  0  0  0  0  0  0  0  0  0
  -20.1871  -22.4864   19.8840 C   0  0  0  0  0  0  0  0  0  0  0  0
  -24.2870  -24.0607   15.1798 C   0  0  0  0  0  0  0  0  0  0  0  0
  -30.8930  -27.7414   19.8197 C   0  0  0  0  0  0  0  0  0  0  0  0
  -29.5815  -28.4675   20.0818 C   0  0  0  0  0  0  0  0  0  1  0  0
  -22.4118  -23.5508   19.3276 C   0  0  1  0  0  0  0  0  0  0  0  0
  -23.0612  -22.0153   15.9232 C   0  0  2  0  0  0  0  0  0  0  0  0
  -21.6665  -22.6044   20.3106 C   0  0  0  0  0  0  0  0  0  0  0  0
  -27.4938  -17.6198   20.3531 N   0  0  0  0  0  0  0  0  0  0  0  0
  -27.3486  -18.9137   20.6860 N   0  0  0  0  0  0  0  0  0  0  0  0
  -22.7649  -25.9680   19.7233 N   0  0  0  0  0  0  0  0  0  0  0  0
  -28.6841  -21.5261   18.2238 N   0  0  0  0  0  0  0  0  0  0  0  0
  -26.0345  -20.3931   21.9880 N   0  0  0  0  0  0  0  0  0  0  0  0
  -24.1762  -16.3581   22.8015 N   0  0  0  0  0  0  0  0  0  0  0  0
  -20.6884  -27.6436   21.7848 N   0  0  0  0  0  0  0  0  0  0  0  0
  -30.2253  -26.9020   17.6620 N   0  0  0  0  0  0  0  0  0  0  0  0
  -22.3632  -23.1230   17.9337 N   0  0  0  0  0  0  0  0  0  0  0  0
  -29.1184  -23.6506   17.2681 N   0  0  0  0  0  0  0  0  0  0  0  0
  -24.1298  -22.5885   15.0569 N   0  3  0  0  0  0  0  0  0  0  0  0
  -24.0380  -18.5994   23.2662 O   0  0  0  0  0  0  0  0  0  0  0  0
  -22.9567  -27.3452   22.2186 O   0  0  0  0  0  0  0  0  0  0  0  0
  -20.6838  -25.1534   19.0587 O   0  0  0  0  0  0  0  0  0  0  0  0
  -31.0157  -25.3911   19.2348 O   0  0  0  0  0  0  0  0  0  0  0  0
  -24.3307  -21.8964   17.9754 O   0  0  0  0  0  0  0  0  0  0  0  0
  -27.0428  -23.1640   18.1071 O   0  0  0  0  0  0  0  0  0  0  0  0
  -25.8237  -11.4830   20.6673 O   0  0  0  0  0  0  0  0  0  0  0  0
  -28.6383  -27.5867   20.6908 O   0  0  0  0  0  0  0  0  0  1  0  0
  -20.6909   -9.5783   20.0108 F   0  0  0  0  0  0  0  0  0  0  0  0
  -25.1388   -9.9887   18.4445 F   0  0  0  0  0  0  0  0  0  0  0  0
  1  2  1  0  0  0  0
  1  5  2  0  0  0  0
  2  6  2  0  0  0  0
  3  8  2  0  0  0  0
  3 15  1  0  0  0  0
  4  9  1  0  0  0  0
  4 15  2  0  0  0  0
  5 17  1  0  0  0  0
  6 19  1  0  0  0  0
  7 10  2  0  0  0  0
  7 18  1  0  0  0  0
  8 21  1  0  0  0  0
  9 21  2  0  0  0  0
 10 22  1  0  0  0  0
 11 12  2  0  0  0  0
 11 23  1  0  0  0  0
 12 24  1  0  0  0  0
 13 20  1  0  0  0  0
 13 22  2  0  0  0  0
 14 24  2  0  0  0  0
 14 25  1  0  0  0  0
 15 26  1  0  0  0  0
 16 26  1  0  0  0  0
 16 27  2  0  0  0  0
 16 28  1  0  0  0  0
 17 19  2  0  0  0  0
 17 34  1  0  0  0  0
 18 20  2  0  0  0  0
 18 35  1  0  0  0  0
 19 45  1  0  0  0  0
 20 36  1  0  0  0  0
 21 77  1  0  0  0  0
 22 78  1  0  0  0  0
 23 25  2  0  0  0  0
 23 77  1  0  0  0  0
 24 79  1  0  0  0  0
 25 80  1  0  0  0  0
 26 60  2  0  0  0  0
 27 61  1  0  0  0  0
 27 64  1  0  0  0  0
 28 65  1  0  0  0  0
 28 71  2  0  0  0  0
 29 46  1  0  0  0  0
 29 66  1  0  0  0  0
 29 72  2  0  0  0  0
 30 57  1  0  0  0  0
 30 62  1  0  0  0  0
 30 73  2  0  0  0  0
 31 55  1  0  0  0  0
 31 67  1  0  0  0  0
 31 74  2  0  0  0  0
 32 58  1  0  0  0  0
 32 68  1  0  0  0  0
 32 75  2  0  0  0  0
 33 63  1  0  0  0  0
 33 69  1  0  0  0  0
 33 76  2  0  0  0  0
 34 37  1  0  0  0  0
 35 46  1  0  0  0  0
 36 62  1  0  0  0  0
 37 39  1  0  0  0  0
 38 40  1  0  0  0  0
 38 43  1  0  0  0  0
 39 45  1  0  0  0  0
 40 47  1  0  0  0  0
 41 42  1  0  0  0  0
 41 48  1  0  0  0  0
 42 49  1  0  0  0  0
 43 63  1  0  0  0  0
 44 47  1  0  0  0  0
 44 63  1  0  0  0  0
 45 66  1  0  0  0  0
 46 62  1  0  0  0  0
 47 61  1  0  0  0  0
 48 49  1  0  0  0  0
 48 67  1  0  0  0  0
 49 69  1  0  0  0  0
 50 58  1  0  0  0  0
 51 59  1  0  0  0  0
 52 59  1  0  0  0  0
 53 59  1  0  0  0  0
 54 70  1  0  0  0  0
 55 56  1  0  0  0  0
 56 78  1  0  0  0  0
 57 59  1  0  0  0  0
 57 68  1  0  0  0  0
 58 70  1  0  0  0  0
 60 61  1  0  0  0  0
M  CHG  1  70   1
M  ISO  4  33 100  56 101  69 100  78 101
M  END
> <Batch ID>
0178

> <Smiles>
CNC(C)C(=O)NC(C(=O)N1Cc2cc([101O:1][101CH2:1]CC(=O)NC3CCC3[100NH:0][100C:0](=O)N3CCCC(n4nc(-c5ccc(Oc6ccc(F)cc6F)cc5)c(C(N)=O)c4N)C3)ccc2CC1C(=O)NC1CCCc2ccccc21)C(C)(C)C

> <Shape>
0.231

> <Color>
0.088

> <Negative vol penalty>
0.000

$$$$

  -OEChem-04052322553D

 84 93  0     1  0  0  0  0  0999 V2000
  -27.1721  -22.3008   29.6790 C   0  0  0  0  0  0  0  0  0  0  0  0
  -27.7904  -22.6833   28.4929 C   0  0  0  0  0  0  0  0  0  0  0  0
  -26.9843  -12.9729   21.1744 C   0  0  0  0  0  0  0  0  0  0  0  0
  -26.8328  -13.5613   18.8361 C   0  0  0  0  0  0  0  0  0  0  0  0
  -25.7833  -22.1926   29.7364 C   0  0  0  0  0  0  0  0  0  0  0  0
  -27.0202  -22.9567   27.3631 C   0  0  0  0  0  0  0  0  0  0  0  0
  -28.1609  -27.1614   23.0591 C   0  0  0  0  0  0  0  0  0  0  0  0
  -31.0077  -25.1178   18.4473 C   0  0  0  0  0  0  0  0  0  0  0  0
  -26.2814  -11.7945   20.9235 C   0  0  0  0  0  0  0  0  0  0  0  0
  -26.1299  -12.3829   18.5851 C   0  0  0  0  0  0  0  0  0  0  0  0
  -28.7416  -27.0756   21.7945 C   0  0  0  0  0  0  0  0  0  0  0  0
  -31.9654  -24.2722   19.0070 C   0  0  0  0  0  0  0  0  0  0  0  0
  -24.2133   -8.8037   20.9610 C   0  0  0  0  0  0  0  0  0  0  0  0
  -23.1894   -8.4572   21.8426 C   0  0  0  0  0  0  0  0  0  0  0  0
  -26.5475  -26.9209   20.8041 C   0  0  0  0  0  0  0  0  0  0  0  0
  -30.4357  -22.4121   18.8140 C   0  0  0  0  0  0  0  0  0  0  0  0
  -22.0420  -10.5181   21.3199 C   0  0  0  0  0  0  0  0  0  0  0  0
  -27.2599  -13.8563   20.1307 C   0  0  0  0  0  0  0  0  0  0  0  0
  -29.3804  -15.2582   20.3452 C   0  0  0  0  0  0  0  0  0  0  0  0
  -24.9950  -22.4742   28.6095 C   0  0  0  0  0  0  0  0  0  0  0  0
  -26.7671  -27.1166   23.2068 C   0  0  0  0  0  0  0  0  0  0  0  0
  -25.6195  -22.8508   27.4051 C   0  0  0  0  0  0  0  0  0  0  0  0
  -29.7640  -24.6107   18.0710 C   0  0  0  0  0  0  0  0  0  0  0  0
  -25.9515  -27.0089   22.0714 C   0  0  0  0  0  0  0  0  0  0  0  0
  -29.4780  -23.2578   18.2543 C   0  0  0  0  0  0  0  0  0  0  0  0
  -25.8542  -11.4995   19.6288 C   0  0  0  0  0  0  0  0  0  0  0  0
  -27.9350  -26.9524   20.6670 C   0  0  0  0  0  0  0  0  0  0  0  0
  -31.6794  -22.9193   19.1903 C   0  0  0  0  0  0  0  0  0  0  0  0
  -24.1516  -10.0074   20.2589 C   0  0  0  0  0  0  0  0  0  0  0  0
  -22.1038   -9.3144   22.0220 C   0  0  0  0  0  0  0  0  0  0  0  0
  -23.0660  -10.8646   20.4384 C   0  0  0  0  0  0  0  0  0  0  0  0
  -27.9855  -15.0740   20.3895 C   0  0  0  0  0  0  0  0  0  0  0  0
  -29.5624  -16.5813   20.6655 C   0  0  0  0  0  0  0  0  0  0  0  0
  -30.4189  -14.3173   20.0417 C   0  0  0  0  0  0  0  0  0  0  0  0
  -24.7276  -25.1613   24.6630 C   0  0  0  0  0  0  0  0  0  0  0  0
  -22.5552  -27.4047   23.7853 C   0  0  0  0  0  0  0  0  0  0  0  0
  -21.7046  -29.9411   21.6664 C   0  0  0  0  0  0  0  0  0  0  0  0
  -27.0763  -21.7511   19.8869 C   0  0  0  0  0  0  0  0  0  0  0  0
  -23.5004  -22.2975   28.7066 C   0  0  0  0  0  0  0  0  0  0  0  0
  -26.1553  -27.2373   24.5756 C   0  0  0  0  0  0  0  0  0  0  0  0
  -24.4492  -26.9766   22.1744 C   0  0  0  0  0  0  0  0  0  0  0  0
  -22.7327  -22.9677   27.5700 C   0  0  0  0  0  0  0  0  0  0  0  0
  -26.8572  -20.0089   22.9841 C   0  0  0  0  0  0  0  0  0  0  0  0
  -23.3801  -22.6470   26.2266 C   0  0  0  0  0  0  0  0  0  0  0  0
  -27.2555  -18.5758   22.6267 C   0  0  0  0  0  0  0  0  0  0  0  0
  -28.2594  -25.2307   16.0724 C   0  0  0  0  0  0  0  0  0  0  0  0
  -29.1856  -26.3853   16.2941 C   0  0  0  0  0  0  0  0  0  0  0  0
  -26.0529  -20.6669   21.8651 C   0  0  0  0  0  0  0  0  0  0  0  0
  -27.0938  -19.1997   20.1806 C   0  0  0  0  0  0  0  0  0  0  0  0
  -24.8167  -23.1798   26.1652 C   0  0  1  0  0  0  0  0  0  0  0  0
  -24.7438  -26.6637   24.6518 C   0  0  1  0  0  0  0  0  0  0  0  0
  -27.9544  -18.5137   21.2552 C   0  0  2  0  0  0  0  0  0  0  0  0
  -28.7568  -25.5326   17.4746 C   0  0  0  0  0  0  0  0  0  0  0  0
  -19.8495  -31.5576   21.1735 C   0  0  0  0  0  0  0  0  0  0  0  0
  -20.9464  -25.1594   22.4889 C   0  0  0  0  0  0  0  0  0  0  0  0
  -19.6586  -26.9013   21.2337 C   0  0  0  0  0  0  0  0  0  0  0  0
  -19.5750  -26.8455   23.7262 C   0  0  0  0  0  0  0  0  0  0  0  0
  -23.4465  -32.2772   22.1836 C   0  0  0  0  0  0  0  0  0  0  0  0
  -32.2561  -20.7222   19.8947 C   0  0  0  0  0  0  0  0  0  0  0  0
  -28.1544  -22.6900   17.8582 C   0  0  0  0  0  0  0  0  0  0  0  0
  -27.7899  -26.1218   18.4432 C   0  0  0  0  0  0  0  0  0  1  0  0
  -21.6834  -27.6324   22.5741 C   0  0  1  0  0  0  0  0  0  0  0  0
  -21.1496  -31.3295   21.9288 C   0  0  2  0  0  0  0  0  0  0  0  0
  -20.4942  -26.6333   22.5036 C   0  0  0  0  0  0  0  0  0  0  0  0
  -27.3279  -16.1908   20.7126 N   0  0  0  0  0  0  0  0  0  0  0  0
  -28.3141  -17.0894   20.8743 N   0  0  0  0  0  0  0  0  0  0  0  0
  -23.8988  -27.0915   23.5350 N   0  0  0  0  0  0  0  0  0  0  0  0
  -26.7717  -20.5751   20.5920 N   0  0  0  0  0  0  0  0  0  0  0  0
  -30.6669  -17.3481   20.7862 N   0  0  0  0  0  0  0  0  0  0  0  0
  -30.0568  -12.9987   19.7341 N   0  0  0  0  0  0  0  0  0  0  0  0
  -24.8166  -24.6071   25.9257 N   0  0  0  0  0  0  0  0  0  0  0  0
  -21.2838  -29.0349   22.6167 N   0  0  0  0  0  0  0  0  0  0  0  0
  -27.7647  -21.5753   18.6928 N   0  0  0  0  0  0  0  0  0  0  0  0
  -22.1294  -32.3682   21.5023 N   0  3  0  0  0  0  0  0  0  0  0  0
  -31.6329  -14.6324   20.0592 O   0  0  0  0  0  0  0  0  0  0  0  0
  -24.6393  -24.5501   23.6045 O   0  0  0  0  0  0  0  0  0  0  0  0
  -22.0640  -27.5081   24.9121 O   0  0  0  0  0  0  0  0  0  0  0  0
  -22.4350  -29.6852   20.7117 O   0  0  0  0  0  0  0  0  0  0  0  0
  -26.7629  -22.8749   20.2941 O   0  0  0  0  0  0  0  0  0  0  0  0
  -25.1686  -10.3496   19.3835 O   0  0  0  0  0  0  0  0  0  0  0  0
  -32.6145  -22.0941   19.7355 O   0  0  0  0  0  0  0  0  0  0  0  0
  -28.4992  -26.8678   19.4315 O   0  0  0  0  0  0  0  0  0  1  0  0
  -21.1198   -8.9808   22.8675 F   0  0  0  0  0  0  0  0  0  0  0  0
  -23.0006  -12.0219   19.7658 F   0  0  0  0  0  0  0  0  0  0  0  0
  1  2  1  0  0  0  0
  1  5  2  0  0  0  0
  2  6  2  0  0  0  0
  3  9  2  0  0  0  0
  3 18  1  0  0  0  0
  4 10  1  0  0  0  0
  4 18  2  0  0  0  0
  5 20  1  0  0  0  0
  6 22  1  0  0  0  0
  7 11  2  0  0  0  0
  7 21  1  0  0  0  0
  8 12  2  0  0  0  0
  8 23  1  0  0  0  0
  9 26  1  0  0  0  0
 10 26  2  0  0  0  0
 11 27  1  0  0  0  0
 12 28  1  0  0  0  0
 13 14  2  0  0  0  0
 13 29  1  0  0  0  0
 14 30  1  0  0  0  0
 15 24  1  0  0  0  0
 15 27  2  0  0  0  0
 16 25  1  0  0  0  0
 16 28  2  0  0  0  0
 17 30  2  0  0  0  0
 17 31  1  0  0  0  0
 18 32  1  0  0  0  0
 19 32  1  0  0  0  0
 19 33  2  0  0  0  0
 19 34  1  0  0  0  0
 20 22  2  0  0  0  0
 20 39  1  0  0  0  0
 21 24  2  0  0  0  0
 21 40  1  0  0  0  0
 22 50  1  0  0  0  0
 23 25  2  0  0  0  0
 23 53  1  0  0  0  0
 24 41  1  0  0  0  0
 25 60  1  0  0  0  0
 26 80  1  0  0  0  0
 27 82  1  0  0  0  0
 28 81  1  0  0  0  0
 29 31  2  0  0  0  0
 29 80  1  0  0  0  0
 30 83  1  0  0  0  0
 31 84  1  0  0  0  0
 32 65  2  0  0  0  0
 33 66  1  0  0  0  0
 33 69  1  0  0  0  0
 34 70  1  0  0  0  0
 34 75  2  0  0  0  0
 35 51  1  0  0  0  0
 35 71  1  0  0  0  0
 35 76  2  0  0  0  0
 36 62  1  0  0  0  0
 36 67  1  0  0  0  0
 36 77  2  0  0  0  0
 37 63  1  0  0  0  0
 37 72  1  0  0  0  0
 37 78  2  0  0  0  0
 38 68  1  0  0  0  0
 38 73  1  0  0  0  0
 38 79  2  0  0  0  0
 39 42  1  0  0  0  0
 40 51  1  0  0  0  0
 41 67  1  0  0  0  0
 42 44  1  0  0  0  0
 43 45  1  0  0  0  0
 43 48  1  0  0  0  0
 44 50  1  0  0  0  0
 45 52  1  0  0  0  0
 46 47  1  0  0  0  0
 46 53  1  0  0  0  0
 47 53  1  0  0  0  0
 48 68  1  0  0  0  0
 49 52  1  0  0  0  0
 49 68  1  0  0  0  0
 50 71  1  0  0  0  0
 51 67  1  0  0  0  0
 52 66  1  0  0  0  0
 53 61  1  0  0  0  0
 54 63  1  0  0  0  0
 55 64  1  0  0  0  0
 56 64  1  0  0  0  0
 57 64  1  0  0  0  0
 58 74  1  0  0  0  0
 59 81  1  0  0  0  0
 60 73  1  0  0  0  0
 61 82  1  0  0  0  0
 62 64  1  0  0  0  0
 62 72  1  0  0  0  0
 63 74  1  0  0  0  0
 65 66  1  0  0  0  0
M  CHG  1  74   1
M  ISO  4  38 100  61 101  73 100  82 101
M  END
> <Batch ID>
0178

> <Smiles>
CNC(C)C(=O)NC(C(=O)N1Cc2cc([101O:1][101CH2:1]C3(c4ccc(OC)cc4C[100NH:0][100C:0](=O)N4CCCC(n5nc(-c6ccc(Oc7ccc(F)cc7F)cc6)c(C(N)=O)c5N)C4)CC3)ccc2CC1C(=O)NC1CCCc2ccccc21)C(C)(C)C

> <Shape>
0.227

> <Color>
0.076

> <Negative vol penalty>
0.000

$$$$

  -OEChem-04052322553D

 82 91  0     1  0  0  0  0  0999 V2000
  -28.4351  -33.8493   12.4572 C   0  0  0  0  0  0  0  0  0  0  0  0
  -28.5310  -33.3531   13.7534 C   0  0  0  0  0  0  0  0  0  0  0  0
  -23.1242   -9.7868   20.0448 C   0  0  0  0  0  0  0  0  0  0  0  0
  -23.8438   -9.9628   22.3444 C   0  0  0  0  0  0  0  0  0  0  0  0
  -27.9017  -33.0528   11.4448 C   0  0  0  0  0  0  0  0  0  0  0  0
  -28.0924  -32.0605   14.0382 C   0  0  0  0  0  0  0  0  0  0  0  0
  -29.5481  -26.4804   18.2879 C   0  0  0  0  0  0  0  0  0  0  0  0
  -22.4001   -8.6369   20.3593 C   0  0  0  0  0  0  0  0  0  0  0  0
  -23.1197   -8.8128   22.6590 C   0  0  0  0  0  0  0  0  0  0  0  0
  -28.9213  -25.6195   19.1877 C   0  0  0  0  0  0  0  0  0  0  0  0
  -19.8988   -7.9866   23.2619 C   0  0  0  0  0  0  0  0  0  0  0  0
  -19.1226   -8.0081   24.4207 C   0  0  0  0  0  0  0  0  0  0  0  0
  -28.0903  -24.3061   17.3428 C   0  0  0  0  0  0  0  0  0  0  0  0
  -20.3909   -6.1514   25.3046 C   0  0  0  0  0  0  0  0  0  0  0  0
  -28.3945  -20.7271   21.3306 C   0  0  0  0  0  0  0  0  0  0  0  0
  -23.8461  -10.4498   21.0373 C   0  0  0  0  0  0  0  0  0  0  0  0
  -24.1376  -12.9682   20.7543 C   0  0  0  0  0  0  0  0  0  0  0  0
  -27.4652  -31.7463   11.7153 C   0  0  0  0  0  0  0  0  0  0  0  0
  -29.4415  -26.2665   16.9061 C   0  0  0  0  0  0  0  0  0  0  0  0
  -27.5513  -31.2462   13.0287 C   0  0  0  0  0  0  0  0  0  0  0  0
  -28.7189  -25.1643   16.4276 C   0  0  0  0  0  0  0  0  0  0  0  0
  -29.6893  -20.4786   20.9231 C   0  0  0  0  0  0  0  0  0  0  0  0
  -22.3978   -8.1499   21.6664 C   0  0  0  0  0  0  0  0  0  0  0  0
  -28.1899  -24.5338   18.7151 C   0  0  0  0  0  0  0  0  0  0  0  0
  -20.9210   -7.0475   23.1245 C   0  0  0  0  0  0  0  0  0  0  0  0
  -19.3687   -7.0905   25.4420 C   0  0  0  0  0  0  0  0  0  0  0  0
  -21.1670   -6.1299   24.1458 C   0  0  0  0  0  0  0  0  0  0  0  0
  -24.5947  -11.6374   20.7129 C   0  0  0  0  0  0  0  0  0  0  0  0
  -30.2207  -21.3904   20.0339 C   0  0  0  0  0  0  0  0  0  0  0  0
  -25.2202  -13.7155   20.3592 C   0  0  0  0  0  0  0  0  0  0  0  0
  -28.2950  -22.5981   20.0435 C   0  0  0  0  0  0  0  0  0  1  0  0
  -22.8497  -13.4829   21.1175 C   0  0  0  0  0  0  0  0  0  0  0  0
  -28.2390  -27.9131   14.4676 C   0  0  0  0  0  0  0  0  0  0  0  0
  -29.5517  -25.5221   12.7119 C   0  0  0  0  0  0  0  0  0  0  0  0
  -30.6524  -22.2946   12.5774 C   0  0  0  0  0  0  0  0  0  0  0  0
  -30.6775  -14.8642   20.5664 C   0  0  0  0  0  0  0  0  0  0  0  0
  -26.8520  -30.9398   10.5981 C   0  0  0  0  0  0  0  0  0  0  0  0
  -30.1458  -27.1891   15.9494 C   0  0  0  0  0  0  0  0  0  0  0  0
  -28.5908  -24.8790   14.9543 C   0  0  0  0  0  0  0  0  0  0  0  0
  -26.7558  -29.4477   10.9057 C   0  0  0  0  0  0  0  0  0  0  0  0
  -29.6312  -12.3020   18.3265 C   0  0  0  0  0  0  0  0  0  0  0  0
  -26.1932  -29.2265   12.3062 C   0  0  0  0  0  0  0  0  0  0  0  0
  -28.1928  -12.0065   18.7551 C   0  0  0  0  0  0  0  0  0  0  0  0
  -29.7393  -18.1431   22.2910 C   0  0  0  0  0  0  0  0  0  0  0  0
  -30.8259  -18.0642   20.4667 C   0  0  0  0  0  0  0  0  0  0  0  0
  -30.5225  -12.6222   19.5244 C   0  0  0  0  0  0  0  0  0  0  0  0
  -28.5823  -13.4021   20.8285 C   0  0  0  0  0  0  0  0  0  0  0  0
  -30.4926  -19.2216   21.4556 C   0  0  0  0  0  0  0  0  0  0  0  0
  -27.1092  -29.8403   13.3720 C   0  0  1  0  0  0  0  0  0  0  0  0
  -29.5428  -27.1706   14.5482 C   0  0  1  0  0  0  0  0  0  0  0  0
  -27.6325  -13.1285   19.6498 C   0  0  2  0  0  0  0  0  0  0  0  0
  -30.6774  -17.0932   21.6577 C   0  0  0  0  0  0  0  0  0  0  0  0
  -31.6145  -21.2211   19.5269 C   0  0  0  0  0  0  0  0  0  0  0  0
  -31.6367  -20.6132   10.9958 C   0  0  0  0  0  0  0  0  0  0  0  0
  -26.8121  -25.1308   11.4268 C   0  0  0  0  0  0  0  0  0  0  0  0
  -27.5943  -22.8995   10.6036 C   0  0  0  0  0  0  0  0  0  0  0  0
  -28.7396  -24.9800    9.8405 C   0  0  0  0  0  0  0  0  0  0  0  0
  -33.1084  -22.0270   14.2069 C   0  0  0  0  0  0  0  0  0  0  0  0
  -29.0788  -24.1777   12.2140 C   0  0  1  0  0  0  0  0  0  0  0  0
  -31.9319  -21.6887   12.0297 C   0  0  2  0  0  0  0  0  0  0  0  0
  -28.0568  -24.3032   11.0490 C   0  0  0  0  0  0  0  0  0  0  0  0
  -27.6653  -21.7812   20.9094 N   0  0  0  0  0  0  0  0  0  0  0  0
  -25.8684  -11.5415   20.3221 N   0  0  0  0  0  0  0  0  0  0  0  0
  -29.5492  -22.4654   19.5715 N   0  0  0  0  0  0  0  0  0  0  0  0
  -26.2208  -12.8217   20.1143 N   0  0  0  0  0  0  0  0  0  0  0  0
  -29.2922  -25.8135   14.0586 N   0  0  0  0  0  0  0  0  0  0  0  0
  -29.9355  -13.6951   20.3308 N   0  0  0  0  0  0  0  0  0  0  0  0
  -25.4042  -15.0435   20.2008 N   0  0  0  0  0  0  0  0  0  0  0  0
  -21.8511  -12.5763   21.4986 N   0  0  0  0  0  0  0  0  0  0  0  0
  -28.2575  -28.9900   13.6019 N   0  0  0  0  0  0  0  0  0  0  0  0
  -30.2801  -23.4219   11.8762 N   0  0  0  0  0  0  0  0  0  0  0  0
  -30.0448  -15.8337   21.3348 N   0  0  0  0  0  0  0  0  0  0  0  0
  -32.7278  -21.0762   13.1308 N   0  3  0  0  0  0  0  0  0  0  0  0
  -22.5870  -14.7092   21.0887 O   0  0  0  0  0  0  0  0  0  0  0  0
  -27.2863  -27.5360   15.1399 O   0  0  0  0  0  0  0  0  0  0  0  0
  -30.1363  -26.2828   11.9365 O   0  0  0  0  0  0  0  0  0  0  0  0
  -30.0419  -21.8136   13.5296 O   0  0  0  0  0  0  0  0  0  0  0  0
  -31.8173  -15.0339   20.1202 O   0  0  0  0  0  0  0  0  0  0  0  0
  -21.6912   -7.0280   21.9738 O   0  0  0  0  0  0  0  0  0  0  0  0
  -27.5765  -23.6922   19.5912 O   0  0  0  0  0  0  0  0  0  1  0  0
  -18.6243   -7.1123   26.5554 F   0  0  0  0  0  0  0  0  0  0  0  0
  -22.1484   -5.2261   24.0200 F   0  0  0  0  0  0  0  0  0  0  0  0
  1  2  1  0  0  0  0
  1  5  2  0  0  0  0
  2  6  2  0  0  0  0
  3  8  2  0  0  0  0
  3 16  1  0  0  0  0
  4  9  1  0  0  0  0
  4 16  2  0  0  0  0
  5 18  1  0  0  0  0
  6 20  1  0  0  0  0
  7 10  2  0  0  0  0
  7 19  1  0  0  0  0
  8 23  1  0  0  0  0
  9 23  2  0  0  0  0
 10 24  1  0  0  0  0
 11 12  2  0  0  0  0
 11 25  1  0  0  0  0
 12 26  1  0  0  0  0
 13 21  1  0  0  0  0
 13 24  2  0  0  0  0
 14 26  2  0  0  0  0
 14 27  1  0  0  0  0
 15 22  1  0  0  0  0
 15 62  2  0  0  0  0
 16 28  1  0  0  0  0
 17 28  1  0  0  0  0
 17 30  2  0  0  0  0
 17 32  1  0  0  0  0
 18 20  2  0  0  0  0
 18 37  1  0  0  0  0
 19 21  2  0  0  0  0
 19 38  1  0  0  0  0
 20 49  1  0  0  0  0
 21 39  1  0  0  0  0
 22 29  2  0  0  0  0
 22 48  1  0  0  0  0
 23 79  1  0  0  0  0
 24 80  1  0  0  0  0
 25 27  2  0  0  0  0
 25 79  1  0  0  0  0
 26 81  1  0  0  0  0
 27 82  1  0  0  0  0
 28 63  2  0  0  0  0
 29 53  1  0  0  0  0
 29 64  1  0  0  0  0
 30 65  1  0  0  0  0
 30 68  1  0  0  0  0
 31 62  1  0  0  0  0
 31 64  2  0  0  0  0
 31 80  1  0  0  0  0
 32 69  1  0  0  0  0
 32 74  2  0  0  0  0
 33 50  1  0  0  0  0
 33 70  1  0  0  0  0
 33 75  2  0  0  0  0
 34 59  1  0  0  0  0
 34 66  1  0  0  0  0
 34 76  2  0  0  0  0
 35 60  1  0  0  0  0
 35 71  1  0  0  0  0
 35 77  2  0  0  0  0
 36 67  1  0  0  0  0
 36 72  1  0  0  0  0
 36 78  2  0  0  0  0
 37 40  1  0  0  0  0
 38 50  1  0  0  0  0
 39 66  1  0  0  0  0
 40 42  1  0  0  0  0
 41 43  1  0  0  0  0
 41 46  1  0  0  0  0
 42 49  1  0  0  0  0
 43 51  1  0  0  0  0
 44 48  1  0  0  0  0
 44 52  1  0  0  0  0
 45 48  1  0  0  0  0
 45 52  1  0  0  0  0
 46 67  1  0  0  0  0
 47 51  1  0  0  0  0
 47 67  1  0  0  0  0
 49 70  1  0  0  0  0
 50 66  1  0  0  0  0
 51 65  1  0  0  0  0
 52 72  1  0  0  0  0
 54 60  1  0  0  0  0
 55 61  1  0  0  0  0
 56 61  1  0  0  0  0
 57 61  1  0  0  0  0
 58 73  1  0  0  0  0
 59 61  1  0  0  0  0
 59 71  1  0  0  0  0
 60 73  1  0  0  0  0
 63 65  1  0  0  0  0
M  CHG  1  73   1
M  ISO  4  31 101  36 100  72 100  80 101
M  END
> <Batch ID>
0178

> <Smiles>
CNC(C)C(=O)NC(C(=O)N1Cc2cc([101O:1][101c:1]3ncc(C4CC([100NH:0][100C:0](=O)N5CCCC(n6nc(-c7ccc(Oc8ccc(F)cc8F)cc7)c(C(N)=O)c6N)C5)C4)c(C)n3)ccc2CC1C(=O)NC1CCCc2ccccc21)C(C)(C)C

> <Shape>
0.228

> <Color>
0.192

> <Negative vol penalty>
0.000

$$$$

  -OEChem-04052322553D

 86 95  0     1  0  0  0  0  0999 V2000
  -16.8812  -28.8795   24.2435 C   0  0  0  0  0  0  0  0  0  0  0  0
  -17.2997  -28.0011   23.2492 C   0  0  0  0  0  0  0  0  0  0  0  0
  -27.0972  -17.6034   20.5431 C   0  0  0  0  0  0  0  0  0  0  0  0
  -29.0762  -18.4066   21.6725 C   0  0  0  0  0  0  0  0  0  0  0  0
  -17.5802  -30.0656   24.4637 C   0  0  0  0  0  0  0  0  0  0  0  0
  -18.4170  -28.3088   22.4737 C   0  0  0  0  0  0  0  0  0  0  0  0
  -22.5335  -24.3727   20.2227 C   0  0  0  0  0  0  0  0  0  0  0  0
  -27.4798  -16.2885   20.8078 C   0  0  0  0  0  0  0  0  0  0  0  0
  -29.4588  -17.0916   21.9372 C   0  0  0  0  0  0  0  0  0  0  0  0
  -22.6808  -23.7857   18.9668 C   0  0  0  0  0  0  0  0  0  0  0  0
  -28.1196  -12.7093   20.8733 C   0  0  0  0  0  0  0  0  0  0  0  0
  -28.0216  -11.7824   19.8356 C   0  0  0  0  0  0  0  0  0  0  0  0
  -24.2593  -25.5043   18.3553 C   0  0  0  0  0  0  0  0  0  0  0  0
  -29.5592  -13.0979   18.5155 C   0  0  0  0  0  0  0  0  0  0  0  0
  -27.8954  -18.6625   20.9754 C   0  0  0  0  0  0  0  0  0  0  0  0
  -26.7028  -20.8535   21.5090 C   0  0  0  0  0  0  0  0  0  0  0  0
  -18.7123  -30.3834   23.6969 C   0  0  0  0  0  0  0  0  0  0  0  0
  -23.2409  -25.5381   20.5511 C   0  0  0  0  0  0  0  0  0  0  0  0
  -19.1310  -29.5009   22.6829 C   0  0  0  0  0  0  0  0  0  0  0  0
  -24.1211  -26.1027   19.6170 C   0  0  0  0  0  0  0  0  0  0  0  0
  -28.6605  -16.0325   21.5049 C   0  0  0  0  0  0  0  0  0  0  0  0
  -23.5416  -24.3531   18.0318 C   0  0  0  0  0  0  0  0  0  0  0  0
  -28.9373  -13.8306   20.7321 C   0  0  0  0  0  0  0  0  0  0  0  0
  -28.7414  -11.9767   18.6567 C   0  0  0  0  0  0  0  0  0  0  0  0
  -29.6571  -14.0248   19.5532 C   0  0  0  0  0  0  0  0  0  0  0  0
  -27.5011  -20.0211   20.7018 C   0  0  0  0  0  0  0  0  0  0  0  0
  -26.6229  -22.0340   20.8115 C   0  0  0  0  0  0  0  0  0  0  0  0
  -23.6944  -20.9738   14.8065 C   0  0  0  0  0  0  0  0  0  0  0  0
  -23.1790  -22.1674   15.1344 C   0  0  0  0  0  0  0  0  0  0  0  0
  -26.0886  -20.5839   22.7762 C   0  0  0  0  0  0  0  0  0  0  0  0
  -22.4282  -28.5072   21.3435 C   0  0  0  0  0  0  0  0  0  0  0  0
  -25.6173  -28.8320   21.8398 C   0  0  0  0  0  0  0  0  0  0  0  0
  -28.7815  -27.7579   21.1463 C   0  0  0  0  0  0  0  0  0  0  0  0
  -27.1775  -23.3292   14.9970 C   0  0  0  0  0  0  0  0  0  0  0  0
  -19.4075  -31.6996   23.9400 C   0  0  0  0  0  0  0  0  0  0  0  0
  -23.0911  -26.1440   21.9196 C   0  0  0  0  0  0  0  0  0  0  0  0
  -24.9188  -27.3420   19.9274 C   0  0  0  0  0  0  0  0  0  0  0  0
  -20.8028  -31.7741   23.3253 C   0  0  0  0  0  0  0  0  0  0  0  0
  -29.0127  -24.7231   17.6824 C   0  0  0  0  0  0  0  0  0  0  0  0
  -20.7818  -31.2591   21.8896 C   0  0  0  0  0  0  0  0  0  0  0  0
  -28.7986  -23.7413   18.8312 C   0  0  0  0  0  0  0  0  0  0  0  0
  -23.7999  -18.9885   13.3033 C   0  0  0  0  0  0  0  0  0  0  0  0
  -24.9802  -18.2336   13.9208 C   0  0  0  0  0  0  0  0  0  0  0  0
  -29.1339  -23.9857   16.3556 C   0  0  0  0  0  0  0  0  0  0  0  0
  -25.7657  -22.3821   13.1944 C   0  0  0  0  0  0  0  0  0  0  0  0
  -26.9377  -20.8093   14.5892 C   0  0  0  0  0  0  0  0  0  0  0  0
  -27.6888  -22.1460   17.1838 C   0  0  0  0  0  0  0  0  0  0  0  0
  -20.3529  -29.7878   21.8374 C   0  0  1  0  0  0  0  0  0  0  0  0
  -23.4709  -27.6209   21.9640 C   0  0  1  0  0  0  0  0  0  0  0  0
  -25.3287  -20.9642   12.8020 C   0  0  1  0  0  0  0  0  0  0  0  0
  -26.5502  -20.1358   13.2678 C   0  0  2  0  0  0  0  0  0  0  0  0
  -27.5827  -22.8439   18.5550 C   0  0  1  0  0  0  0  0  0  0  0  0
  -23.9437  -20.5256   13.3823 C   0  0  2  0  0  0  0  0  0  0  0  0
  -26.3378  -18.6040   13.2901 C   0  0  1  0  0  0  0  0  0  0  0  0
  -22.8224  -21.1531   12.5239 C   0  0  0  0  0  0  0  0  0  0  0  0
  -27.4621  -17.9032   14.0786 C   0  0  0  0  0  0  0  0  0  0  0  0
  -26.2438  -16.5926   11.8089 C   0  0  0  0  0  0  0  0  0  0  0  0
  -31.2801  -27.6060   21.3233 C   0  0  0  0  0  0  0  0  0  0  0  0
  -25.5329  -31.2523   19.9838 C   0  0  0  0  0  0  0  0  0  0  0  0
  -28.0251  -31.1068   19.7947 C   0  0  0  0  0  0  0  0  0  0  0  0
  -26.9675  -31.5423   22.0116 C   0  0  0  0  0  0  0  0  0  0  0  0
  -28.6221  -25.7221   23.2885 C   0  0  0  0  0  0  0  0  0  0  0  0
  -22.9287  -22.6048   16.5405 C   0  0  0  0  0  0  0  0  0  1  0  0
  -26.3958  -18.0708   11.8388 C   0  0  0  0  0  0  0  0  0  0  0  0
  -26.7961  -29.2369   20.9880 C   0  0  1  0  0  0  0  0  0  0  0  0
  -29.9562  -27.4335   22.0514 C   0  0  2  0  0  0  0  0  0  0  0  0
  -26.8140  -30.7623   20.6877 C   0  0  0  0  0  0  0  0  0  0  0  0
  -27.8996  -20.6217   19.5773 N   0  0  0  0  0  0  0  0  0  0  0  0
  -27.3495  -21.8441   19.6730 N   0  0  0  0  0  0  0  0  0  0  0  0
  -24.7332  -27.9008   21.2767 N   0  0  0  0  0  0  0  0  0  0  0  0
  -27.9895  -23.1056   16.1141 N   0  0  0  0  0  0  0  0  0  0  0  0
  -26.5865  -22.2200   14.3927 N   0  0  0  0  0  0  0  0  0  0  0  0
  -26.0025  -23.2054   21.0669 N   0  0  0  0  0  0  0  0  0  0  0  0
  -26.2722  -19.3194   23.3521 N   0  0  0  0  0  0  0  0  0  0  0  0
  -21.4503  -28.9274   22.2247 N   0  0  0  0  0  0  0  0  0  0  0  0
  -27.9853  -28.7498   21.6786 N   0  0  0  0  0  0  0  0  0  0  0  0
  -29.8651  -26.0264   22.5339 N   0  3  0  0  0  0  0  0  0  0  0  0
  -25.3838  -21.4334   23.3721 O   0  0  0  0  0  0  0  0  0  0  0  0
  -22.5060  -28.7901   20.1537 O   0  0  0  0  0  0  0  0  0  0  0  0
  -25.4898  -29.3184   22.9662 O   0  0  0  0  0  0  0  0  0  0  0  0
  -28.5916  -27.1910   20.0725 O   0  0  0  0  0  0  0  0  0  0  0  0
  -27.0190  -24.4660   14.5327 O   0  0  0  0  0  0  0  0  0  0  0  0
  -29.0340  -14.7495   21.7635 O   0  0  0  0  0  0  0  0  0  0  0  0
  -23.6879  -23.7782   16.7958 O   0  0  0  0  0  0  0  0  0  1  0  0
  -28.6485  -11.0857   17.6608 F   0  0  0  0  0  0  0  0  0  0  0  0
  -30.4452  -15.0994   19.4122 F   0  0  0  0  0  0  0  0  0  0  0  0
  1  2  1  0  0  0  0
  1  5  2  0  0  0  0
  2  6  2  0  0  0  0
  3  8  2  0  0  0  0
  3 15  1  0  0  0  0
  4  9  1  0  0  0  0
  4 15  2  0  0  0  0
  5 17  1  0  0  0  0
  6 19  1  0  0  0  0
  7 10  2  0  0  0  0
  7 18  1  0  0  0  0
  8 21  1  0  0  0  0
  9 21  2  0  0  0  0
 10 22  1  0  0  0  0
 11 12  2  0  0  0  0
 11 23  1  0  0  0  0
 12 24  1  0  0  0  0
 13 20  1  0  0  0  0
 13 22  2  0  0  0  0
 14 24  2  0  0  0  0
 14 25  1  0  0  0  0
 15 26  1  0  0  0  0
 16 26  1  0  0  0  0
 16 27  2  0  0  0  0
 16 30  1  0  0  0  0
 17 19  2  0  0  0  0
 17 35  1  0  0  0  0
 18 20  2  0  0  0  0
 18 36  1  0  0  0  0
 19 48  1  0  0  0  0
 20 37  1  0  0  0  0
 21 83  1  0  0  0  0
 22 84  1  0  0  0  0
 23 25  2  0  0  0  0
 23 83  1  0  0  0  0
 24 85  1  0  0  0  0
 25 86  1  0  0  0  0
 26 68  2  0  0  0  0
 27 69  1  0  0  0  0
 27 73  1  0  0  0  0
 28 29  2  0  0  0  0
 28 53  1  0  0  0  0
 29 63  1  0  0  0  0
 30 74  1  0  0  0  0
 30 78  2  0  0  0  0
 31 49  1  0  0  0  0
 31 75  1  0  0  0  0
 31 79  2  0  0  0  0
 32 65  1  0  0  0  0
 32 70  1  0  0  0  0
 32 80  2  0  0  0  0
 33 66  1  0  0  0  0
 33 76  1  0  0  0  0
 33 81  2  0  0  0  0
 34 71  1  0  0  0  0
 34 72  1  0  0  0  0
 34 82  2  0  0  0  0
 35 38  1  0  0  0  0
 36 49  1  0  0  0  0
 37 70  1  0  0  0  0
 38 40  1  0  0  0  0
 39 41  1  0  0  0  0
 39 44  1  0  0  0  0
 40 48  1  0  0  0  0
 41 52  1  0  0  0  0
 42 43  1  0  0  0  0
 42 53  1  0  0  0  0
 43 54  1  0  0  0  0
 44 71  1  0  0  0  0
 45 50  1  0  0  0  0
 45 72  1  0  0  0  0
 46 51  1  0  0  0  0
 46 72  1  0  0  0  0
 47 52  1  0  0  0  0
 47 71  1  0  0  0  0
 48 75  1  0  0  0  0
 49 70  1  0  0  0  0
 50 51  1  0  0  0  0
 50 53  1  0  0  0  0
 51 54  1  0  0  0  0
 52 69  1  0  0  0  0
 53 55  1  0  0  0  0
 54 56  1  0  0  0  0
 54 64  1  0  0  0  0
 57 64  1  0  0  0  0
 58 66  1  0  0  0  0
 59 67  1  0  0  0  0
 60 67  1  0  0  0  0
 61 67  1  0  0  0  0
 62 77  1  0  0  0  0
 63 84  1  0  0  0  0
 65 67  1  0  0  0  0
 65 76  1  0  0  0  0
 66 77  1  0  0  0  0
 68 69  1  0  0  0  0
M  CHG  1  77   1
M  ISO  4  34 100  63 101  72 100  84 101
M  END
> <Batch ID>
0178

> <Smiles>
CCC1(C)CCC(C)(C=C[101CH2:1][101O:1]c2ccc3c(c2)CN(C(=O)C(NC(=O)C(C)NC)C(C)(C)C)C(C(=O)NC2CCCc4ccccc42)C3)C2C[100N:0]([100C:0](=O)N3CCCC(n4nc(-c5ccc(Oc6ccc(F)cc6F)cc5)c(C(N)=O)c4N)C3)CC21

> <Shape>
0.212

> <Color>
0.070

> <Negative vol penalty>
0.000

$$$$

  -OEChem-04052322553D

 86 95  0     1  0  0  0  0  0999 V2000
  -24.5807   -9.3153   18.8447 C   0  0  0  0  0  0  0  0  0  0  0  0
  -23.7437  -10.3598   18.4657 C   0  0  0  0  0  0  0  0  0  0  0  0
  -26.4207  -28.6304   21.6577 C   0  0  0  0  0  0  0  0  0  0  0  0
  -24.8096  -29.6484   20.1727 C   0  0  0  0  0  0  0  0  0  0  0  0
  -25.5370   -9.5156   19.8394 C   0  0  0  0  0  0  0  0  0  0  0  0
  -23.8617  -11.6051   19.0820 C   0  0  0  0  0  0  0  0  0  0  0  0
  -23.1574  -18.6012   17.7124 C   0  0  0  0  0  0  0  0  0  0  0  0
  -26.6868  -27.6528   20.6989 C   0  0  0  0  0  0  0  0  0  0  0  0
  -25.0757  -28.6709   19.2139 C   0  0  0  0  0  0  0  0  0  0  0  0
  -22.5181  -19.7367   18.2081 C   0  0  0  0  0  0  0  0  0  0  0  0
  -28.4783  -27.3865   17.8437 C   0  0  0  0  0  0  0  0  0  0  0  0
  -29.8135  -27.0684   17.5954 C   0  0  0  0  0  0  0  0  0  0  0  0
  -24.2593  -19.9891   19.8585 C   0  0  0  0  0  0  0  0  0  0  0  0
  -21.4647  -23.2740   22.4568 C   0  0  0  0  0  0  0  0  0  0  0  0
  -29.3907  -24.7819   18.2514 C   0  0  0  0  0  0  0  0  0  0  0  0
  -25.4821  -29.6281   21.3946 C   0  0  0  0  0  0  0  0  0  0  0  0
  -25.8522  -31.8797   22.5352 C   0  0  0  0  0  0  0  0  0  0  0  0
  -25.6733  -10.7667   20.4614 C   0  0  0  0  0  0  0  0  0  0  0  0
  -24.3487  -18.1440   18.2940 C   0  0  0  0  0  0  0  0  0  0  0  0
  -24.8198  -11.8220   20.0869 C   0  0  0  0  0  0  0  0  0  0  0  0
  -24.9131  -18.8490   19.3667 C   0  0  0  0  0  0  0  0  0  0  0  0
  -20.6878  -24.3584   22.8489 C   0  0  0  0  0  0  0  0  0  0  0  0
  -22.2294  -23.3566   21.2984 C   0  0  0  0  0  0  0  0  0  0  0  0
  -26.0143  -27.6731   19.4770 C   0  0  0  0  0  0  0  0  0  0  0  0
  -23.0676  -20.4292   19.2831 C   0  0  0  0  0  0  0  0  0  0  0  0
  -27.5993  -26.4023   18.2959 C   0  0  0  0  0  0  0  0  0  0  0  0
  -30.2697  -25.7661   17.7993 C   0  0  0  0  0  0  0  0  0  0  0  0
  -28.0555  -25.1000   18.4997 C   0  0  0  0  0  0  0  0  0  0  0  0
  -25.2064  -30.6379   22.3848 C   0  0  0  0  0  0  0  0  0  0  0  0
  -20.7101  -25.4933   22.0545 C   0  0  0  0  0  0  0  0  0  0  0  0
  -22.1826  -24.5363   20.5732 C   0  0  0  0  0  0  0  0  0  0  0  0
  -25.2282  -32.4631   23.6108 C   0  0  0  0  0  0  0  0  0  0  0  0
  -26.9204  -32.4546   21.7710 C   0  0  0  0  0  0  0  0  0  0  0  0
  -25.2408  -15.4801   19.7812 C   0  0  0  0  0  0  0  0  0  0  0  0
  -28.1704  -16.8694   19.6824 C   0  0  0  0  0  0  0  0  0  0  0  0
  -30.0125  -19.7341   19.4656 C   0  0  0  0  0  0  0  0  0  0  0  0
  -20.3107  -30.2887   23.4932 C   0  0  0  0  0  0  0  0  0  0  0  0
  -26.6898  -10.9219   21.5647 C   0  0  0  0  0  0  0  0  0  0  0  0
  -25.0400  -16.9329   17.7305 C   0  0  0  0  0  0  0  0  0  0  0  0
  -26.2009  -18.4111   20.0135 C   0  0  0  0  0  0  0  0  0  0  0  0
  -27.0016  -12.3770   21.9052 C   0  0  0  0  0  0  0  0  0  0  0  0
  -22.2625  -30.0732   26.7990 C   0  0  0  0  0  0  0  0  0  0  0  0
  -25.7129  -13.1827   22.0353 C   0  0  0  0  0  0  0  0  0  0  0  0
  -23.5604  -30.6897   26.2943 C   0  0  0  0  0  0  0  0  0  0  0  0
  -19.4243  -27.5498   21.2452 C   0  0  0  0  0  0  0  0  0  0  0  0
  -21.4611  -29.4957   25.6358 C   0  0  0  0  0  0  0  0  0  0  0  0
  -19.0673  -28.8709   21.9057 C   0  0  0  0  0  0  0  0  0  0  0  0
  -20.6116  -27.7151   23.3243 C   0  0  0  0  0  0  0  0  0  0  0  0
  -21.8472  -31.7722   24.7086 C   0  0  0  0  0  0  0  0  0  0  0  0
  -24.9338  -13.1942   20.7146 C   0  0  1  0  0  0  0  0  0  0  0  0
  -19.8869  -26.7002   22.4289 C   0  0  2  0  0  0  0  0  0  0  0  0
  -25.9770  -16.2609   18.7294 C   0  0  1  0  0  0  0  0  0  0  0  0
  -23.3128  -31.7274   25.1834 C   0  0  2  0  0  0  0  0  0  0  0  0
  -22.9847  -24.6813   19.3215 C   0  0  0  0  0  0  0  0  0  0  0  0
  -20.7244  -24.0777   25.3536 C   0  0  0  0  0  0  0  0  0  0  0  0
  -18.7893  -23.1767   24.0124 C   0  0  0  0  0  0  0  0  0  0  0  0
  -32.0528  -21.1803   19.2579 C   0  0  0  0  0  0  0  0  0  0  0  0
  -28.3385  -16.4382   22.6984 C   0  0  0  0  0  0  0  0  0  0  0  0
  -30.2257  -18.0823   22.7580 C   0  0  0  0  0  0  0  0  0  0  0  0
  -30.4579  -15.9664   21.4574 C   0  0  0  0  0  0  0  0  0  0  0  0
  -29.9228  -19.6366   16.5091 C   0  0  0  0  0  0  0  0  0  0  0  0
  -23.0638  -22.1982   20.8726 C   0  0  0  0  0  0  0  0  0  1  0  0
  -19.8664  -24.2763   24.0889 C   0  0  0  0  0  0  0  0  0  0  0  0
  -28.9452  -17.7961   20.5879 C   0  0  1  0  0  0  0  0  0  0  0  0
  -31.2052  -20.1017   18.6014 C   0  0  2  0  0  0  0  0  0  0  0  0
  -29.4665  -17.0782   21.8647 C   0  0  0  0  0  0  0  0  0  0  0  0
  -24.2460  -30.4429   23.2923 N   0  0  0  0  0  0  0  0  0  0  0  0
  -21.4401  -25.6106   20.9227 N   0  0  0  0  0  0  0  0  0  0  0  0
  -24.2837  -31.5699   24.0233 N   0  0  0  0  0  0  0  0  0  0  0  0
  -26.8357  -17.2175   19.4307 N   0  0  0  0  0  0  0  0  0  0  0  0
  -21.2290  -30.4486   24.5440 N   0  0  0  0  0  0  0  0  0  0  0  0
  -20.0065  -29.0140   23.0180 N   0  0  0  0  0  0  0  0  0  0  0  0
  -25.4009  -33.6479   24.2344 N   0  0  0  0  0  0  0  0  0  0  0  0
  -27.4455  -31.7201   20.6990 N   0  0  0  0  0  0  0  0  0  0  0  0
  -25.5299  -14.1289   19.7842 N   0  0  0  0  0  0  0  0  0  0  0  0
  -29.9942  -18.3882   19.7649 N   0  0  0  0  0  0  0  0  0  0  0  0
  -30.7483  -20.6053   17.2753 N   0  3  0  0  0  0  0  0  0  0  0  0
  -27.4064  -33.5790   22.0412 O   0  0  0  0  0  0  0  0  0  0  0  0
  -24.4688  -16.0609   20.5351 O   0  0  0  0  0  0  0  0  0  0  0  0
  -28.7309  -15.8773   19.2101 O   0  0  0  0  0  0  0  0  0  0  0  0
  -29.1824  -20.5590   19.8410 O   0  0  0  0  0  0  0  0  0  0  0  0
  -19.7823  -31.2818   22.9681 O   0  0  0  0  0  0  0  0  0  0  0  0
  -26.2738  -26.7195   18.5411 O   0  0  0  0  0  0  0  0  0  0  0  0
  -22.4411  -21.5449   19.7726 O   0  0  0  0  0  0  0  0  0  1  0  0
  -31.5516  -25.4604   17.5593 F   0  0  0  0  0  0  0  0  0  0  0  0
  -27.2155  -24.1500   18.9328 F   0  0  0  0  0  0  0  0  0  0  0  0
  1  2  1  0  0  0  0
  1  5  2  0  0  0  0
  2  6  2  0  0  0  0
  3  8  2  0  0  0  0
  3 16  1  0  0  0  0
  4  9  1  0  0  0  0
  4 16  2  0  0  0  0
  5 18  1  0  0  0  0
  6 20  1  0  0  0  0
  7 10  2  0  0  0  0
  7 19  1  0  0  0  0
  8 24  1  0  0  0  0
  9 24  2  0  0  0  0
 10 25  1  0  0  0  0
 11 12  2  0  0  0  0
 11 26  1  0  0  0  0
 12 27  1  0  0  0  0
 13 21  1  0  0  0  0
 13 25  2  0  0  0  0
 14 22  2  0  0  0  0
 14 23  1  0  0  0  0
 15 27  2  0  0  0  0
 15 28  1  0  0  0  0
 16 29  1  0  0  0  0
 17 29  1  0  0  0  0
 17 32  2  0  0  0  0
 17 33  1  0  0  0  0
 18 20  2  0  0  0  0
 18 38  1  0  0  0  0
 19 21  2  0  0  0  0
 19 39  1  0  0  0  0
 20 50  1  0  0  0  0
 21 40  1  0  0  0  0
 22 30  1  0  0  0  0
 22 63  1  0  0  0  0
 23 31  2  0  0  0  0
 23 62  1  0  0  0  0
 24 83  1  0  0  0  0
 25 84  1  0  0  0  0
 26 28  2  0  0  0  0
 26 83  1  0  0  0  0
 27 85  1  0  0  0  0
 28 86  1  0  0  0  0
 29 67  2  0  0  0  0
 30 51  1  0  0  0  0
 30 68  2  0  0  0  0
 31 54  1  0  0  0  0
 31 68  1  0  0  0  0
 32 69  1  0  0  0  0
 32 73  1  0  0  0  0
 33 74  1  0  0  0  0
 33 78  2  0  0  0  0
 34 52  1  0  0  0  0
 34 75  1  0  0  0  0
 34 79  2  0  0  0  0
 35 64  1  0  0  0  0
 35 70  1  0  0  0  0
 35 80  2  0  0  0  0
 36 65  1  0  0  0  0
 36 76  1  0  0  0  0
 36 81  2  0  0  0  0
 37 71  1  0  0  0  0
 37 72  1  0  0  0  0
 37 82  2  0  0  0  0
 38 41  1  0  0  0  0
 39 52  1  0  0  0  0
 40 70  1  0  0  0  0
 41 43  1  0  0  0  0
 42 44  1  0  0  0  0
 42 46  1  0  0  0  0
 43 50  1  0  0  0  0
 44 53  1  0  0  0  0
 45 47  1  0  0  0  0
 45 51  1  0  0  0  0
 46 71  1  0  0  0  0
 47 72  1  0  0  0  0
 48 51  1  0  0  0  0
 48 72  1  0  0  0  0
 49 53  1  0  0  0  0
 49 71  1  0  0  0  0
 50 75  1  0  0  0  0
 52 70  1  0  0  0  0
 53 69  1  0  0  0  0
 55 63  1  0  0  0  0
 56 63  1  0  0  0  0
 57 65  1  0  0  0  0
 58 66  1  0  0  0  0
 59 66  1  0  0  0  0
 60 66  1  0  0  0  0
 61 77  1  0  0  0  0
 62 84  1  0  0  0  0
 64 66  1  0  0  0  0
 64 76  1  0  0  0  0
 65 77  1  0  0  0  0
 67 69  1  0  0  0  0
M  CHG  1  77   1
M  ISO  4  37 100  62 101  72 100  84 101
M  END
> <Batch ID>
0178

> <Smiles>
CNC(C)C(=O)NC(C(=O)N1Cc2cc([101O:1][101CH2:1]c3cc(C(C)C)c(C4CC[100N:0]([100C:0](=O)N5CCCC(n6nc(-c7ccc(Oc8ccc(F)cc8F)cc7)c(C(N)=O)c6N)C5)C4)nc3C)ccc2CC1C(=O)NC1CCCc2ccccc21)C(C)(C)C

> <Shape>
0.241

> <Color>
0.083

> <Negative vol penalty>
0.000

$$$$

  -OEChem-04052322553D

 85 94  0     1  0  0  0  0  0999 V2000
  -29.0073  -34.2212   27.4110 C   0  0  0  0  0  0  0  0  0  0  0  0
  -29.6910  -33.0157   27.5321 C   0  0  0  0  0  0  0  0  0  0  0  0
  -23.0069   -9.8837   19.9792 C   0  0  0  0  0  0  0  0  0  0  0  0
  -23.7289   -9.9414   22.2841 C   0  0  0  0  0  0  0  0  0  0  0  0
  -28.2443  -34.4772   26.2725 C   0  0  0  0  0  0  0  0  0  0  0  0
  -29.6112  -32.0650   26.5152 C   0  0  0  0  0  0  0  0  0  0  0  0
  -33.5010  -26.9684   23.3196 C   0  0  0  0  0  0  0  0  0  0  0  0
  -22.2436   -8.7473   20.2467 C   0  0  0  0  0  0  0  0  0  0  0  0
  -22.9655   -8.8050   22.5516 C   0  0  0  0  0  0  0  0  0  0  0  0
  -33.4305  -25.6212   22.9680 C   0  0  0  0  0  0  0  0  0  0  0  0
  -23.2210   -5.4660   22.0866 C   0  0  0  0  0  0  0  0  0  0  0  0
  -23.8107   -4.4521   22.8414 C   0  0  0  0  0  0  0  0  0  0  0  0
  -32.1460  -26.2053   21.0115 C   0  0  0  0  0  0  0  0  0  0  0  0
  -29.7356  -17.7063   22.6661 C   0  0  0  0  0  0  0  0  0  0  0  0
  -22.0839   -4.6929   24.5139 C   0  0  0  0  0  0  0  0  0  0  0  0
  -23.7496  -10.4807   20.9978 C   0  0  0  0  0  0  0  0  0  0  0  0
  -24.1272  -12.9972   20.8174 C   0  0  0  0  0  0  0  0  0  0  0  0
  -28.1629  -33.5332   25.2367 C   0  0  0  0  0  0  0  0  0  0  0  0
  -32.8843  -27.9449   22.5243 C   0  0  0  0  0  0  0  0  0  0  0  0
  -28.8454  -32.3080   25.3623 C   0  0  0  0  0  0  0  0  0  0  0  0
  -32.2124  -27.5645   21.3538 C   0  0  0  0  0  0  0  0  0  0  0  0
  -30.2411  -18.9305   23.0686 C   0  0  0  0  0  0  0  0  0  0  0  0
  -31.5226  -19.3225   22.6798 C   0  0  0  0  0  0  0  0  0  0  0  0
  -22.2229   -8.2080   21.5329 C   0  0  0  0  0  0  0  0  0  0  0  0
  -32.7504  -25.2391   21.8154 C   0  0  0  0  0  0  0  0  0  0  0  0
  -22.0627   -6.0934   22.5454 C   0  0  0  0  0  0  0  0  0  0  0  0
  -23.2422   -4.0655   24.0551 C   0  0  0  0  0  0  0  0  0  0  0  0
  -21.4941   -5.7068   23.7590 C   0  0  0  0  0  0  0  0  0  0  0  0
  -24.5387  -11.6543   20.7220 C   0  0  0  0  0  0  0  0  0  0  0  0
  -32.2731  -18.4714   21.8978 C   0  0  0  0  0  0  0  0  0  0  0  0
  -30.5654  -16.9166   21.8831 C   0  0  0  0  0  0  0  0  0  0  0  0
  -25.2352  -13.7225   20.4531 C   0  0  0  0  0  0  0  0  0  0  0  0
  -22.8570  -13.5403   21.2012 C   0  0  0  0  0  0  0  0  0  0  0  0
  -30.5638  -30.0695   22.9772 C   0  0  0  0  0  0  0  0  0  0  0  0
  -31.4185  -31.0552   20.0073 C   0  0  0  0  0  0  0  0  0  0  0  0
  -32.8626  -30.3016   17.0083 C   0  0  0  0  0  0  0  0  0  0  0  0
  -30.7113  -14.7014   20.6924 C   0  0  0  0  0  0  0  0  0  0  0  0
  -27.2875  -33.8352   24.0463 C   0  0  0  0  0  0  0  0  0  0  0  0
  -32.9923  -29.3965   22.9030 C   0  0  0  0  0  0  0  0  0  0  0  0
  -31.5506  -28.5758   20.4550 C   0  0  0  0  0  0  0  0  0  0  0  0
  -27.5572  -32.9304   22.8468 C   0  0  0  0  0  0  0  0  0  0  0  0
  -29.6038  -12.2404   18.3698 C   0  0  0  0  0  0  0  0  0  0  0  0
  -27.6453  -31.4726   23.2868 C   0  0  0  0  0  0  0  0  0  0  0  0
  -28.1535  -11.9790   18.7826 C   0  0  0  0  0  0  0  0  0  0  0  0
  -30.7742  -20.9169   24.2424 C   0  0  0  0  0  0  0  0  0  0  0  0
  -30.5020  -12.4890   19.5803 C   0  0  0  0  0  0  0  0  0  0  0  0
  -28.5824  -13.2745   20.9097 C   0  0  0  0  0  0  0  0  0  0  0  0
  -31.8846  -20.6792   23.1939 C   0  0  2  0  0  0  0  0  0  0  0  0
  -28.8035  -31.2620   24.2695 C   0  0  1  0  0  0  0  0  0  0  0  0
  -31.8891  -30.2566   22.2943 C   0  0  1  0  0  0  0  0  0  0  0  0
  -27.6269  -13.0828   19.7206 C   0  0  2  0  0  0  0  0  0  0  0  0
  -29.5677  -19.9972   23.8960 C   0  0  0  0  0  0  0  0  0  0  0  0
  -33.6623  -18.8046   21.4775 C   0  0  0  0  0  0  0  0  0  0  0  0
  -28.5064  -20.7379   23.0731 C   0  0  0  0  0  0  0  0  0  0  0  0
  -28.9322  -19.4400   25.1754 C   0  0  0  0  0  0  0  0  0  0  0  0
  -33.3797  -31.2999   14.7648 C   0  0  0  0  0  0  0  0  0  0  0  0
  -28.4915  -30.7526   19.2006 C   0  0  0  0  0  0  0  0  0  0  0  0
  -29.2162  -30.8276   16.8053 C   0  0  0  0  0  0  0  0  0  0  0  0
  -29.6191  -32.7909   18.2905 C   0  0  0  0  0  0  0  0  0  0  0  0
  -35.7747  -29.9339   17.3867 C   0  0  0  0  0  0  0  0  0  0  0  0
  -31.9217  -21.7377   22.0997 C   0  0  0  0  0  0  0  0  0  0  0  0
  -32.6976  -22.9723   22.5327 C   0  0  0  0  0  0  0  0  0  1  0  0
  -31.0022  -30.6974   18.6010 C   0  0  1  0  0  0  0  0  0  0  0  0
  -33.8927  -31.0398   16.1726 C   0  0  2  0  0  0  0  0  0  0  0  0
  -29.5929  -31.2477   18.2421 C   0  0  0  0  0  0  0  0  0  0  0  0
  -25.8089  -11.5310   20.3277 N   0  0  0  0  0  0  0  0  0  0  0  0
  -31.8183  -17.2652   21.4899 N   0  0  0  0  0  0  0  0  0  0  0  0
  -26.2051  -12.8057   20.1721 N   0  0  0  0  0  0  0  0  0  0  0  0
  -31.6787  -29.9821   20.8714 N   0  0  0  0  0  0  0  0  0  0  0  0
  -29.9425  -13.5499   20.4208 N   0  0  0  0  0  0  0  0  0  0  0  0
  -25.4646  -15.0488   20.3487 N   0  0  0  0  0  0  0  0  0  0  0  0
  -21.8276  -12.6536   21.5451 N   0  0  0  0  0  0  0  0  0  0  0  0
  -30.0630  -15.6560   21.4753 N   0  0  0  0  0  0  0  0  0  0  0  0
  -30.0651  -31.2180   23.5618 N   0  0  0  0  0  0  0  0  0  0  0  0
  -32.0692  -31.1714   17.7263 N   0  0  0  0  0  0  0  0  0  0  0  0
  -35.1483  -30.2428   16.0755 N   0  3  0  0  0  0  0  0  0  0  0  0
  -22.6364  -14.7750   21.2222 O   0  0  0  0  0  0  0  0  0  0  0  0
  -30.0323  -28.9654   22.9727 O   0  0  0  0  0  0  0  0  0  0  0  0
  -31.5165  -32.2430   20.3253 O   0  0  0  0  0  0  0  0  0  0  0  0
  -32.7684  -29.0763   17.0200 O   0  0  0  0  0  0  0  0  0  0  0  0
  -31.8501  -14.8430   20.2396 O   0  0  0  0  0  0  0  0  0  0  0  0
  -21.4780   -7.0992   21.7944 O   0  0  0  0  0  0  0  0  0  0  0  0
  -32.6795  -23.9247   21.4702 O   0  0  0  0  0  0  0  0  0  1  0  0
  -23.8078   -3.0908   24.7791 F   0  0  0  0  0  0  0  0  0  0  0  0
  -20.3808   -6.3050   24.2044 F   0  0  0  0  0  0  0  0  0  0  0  0
  1  2  1  0  0  0  0
  1  5  2  0  0  0  0
  2  6  2  0  0  0  0
  3  8  2  0  0  0  0
  3 16  1  0  0  0  0
  4  9  1  0  0  0  0
  4 16  2  0  0  0  0
  5 18  1  0  0  0  0
  6 20  1  0  0  0  0
  7 10  2  0  0  0  0
  7 19  1  0  0  0  0
  8 24  1  0  0  0  0
  9 24  2  0  0  0  0
 10 25  1  0  0  0  0
 11 12  2  0  0  0  0
 11 26  1  0  0  0  0
 12 27  1  0  0  0  0
 13 21  1  0  0  0  0
 13 25  2  0  0  0  0
 14 22  1  0  0  0  0
 14 31  2  0  0  0  0
 15 27  2  0  0  0  0
 15 28  1  0  0  0  0
 16 29  1  0  0  0  0
 17 29  1  0  0  0  0
 17 32  2  0  0  0  0
 17 33  1  0  0  0  0
 18 20  2  0  0  0  0
 18 38  1  0  0  0  0
 19 21  2  0  0  0  0
 19 39  1  0  0  0  0
 20 49  1  0  0  0  0
 21 40  1  0  0  0  0
 22 23  2  0  0  0  0
 22 52  1  0  0  0  0
 23 30  1  0  0  0  0
 23 48  1  0  0  0  0
 24 82  1  0  0  0  0
 25 83  1  0  0  0  0
 26 28  2  0  0  0  0
 26 82  1  0  0  0  0
 27 84  1  0  0  0  0
 28 85  1  0  0  0  0
 29 66  2  0  0  0  0
 30 53  1  0  0  0  0
 30 67  2  0  0  0  0
 31 67  1  0  0  0  0
 31 73  1  0  0  0  0
 32 68  1  0  0  0  0
 32 71  1  0  0  0  0
 33 72  1  0  0  0  0
 33 77  2  0  0  0  0
 34 50  1  0  0  0  0
 34 74  1  0  0  0  0
 34 78  2  0  0  0  0
 35 63  1  0  0  0  0
 35 69  1  0  0  0  0
 35 79  2  0  0  0  0
 36 64  1  0  0  0  0
 36 75  1  0  0  0  0
 36 80  2  0  0  0  0
 37 70  1  0  0  0  0
 37 73  1  0  0  0  0
 37 81  2  0  0  0  0
 38 41  1  0  0  0  0
 39 50  1  0  0  0  0
 40 69  1  0  0  0  0
 41 43  1  0  0  0  0
 42 44  1  0  0  0  0
 42 46  1  0  0  0  0
 43 49  1  0  0  0  0
 44 51  1  0  0  0  0
 45 48  1  0  0  0  0
 45 52  1  0  0  0  0
 46 70  1  0  0  0  0
 47 51  1  0  0  0  0
 47 70  1  0  0  0  0
 48 61  1  0  0  0  0
 49 74  1  0  0  0  0
 50 69  1  0  0  0  0
 51 68  1  0  0  0  0
 52 54  1  0  0  0  0
 52 55  1  0  0  0  0
 56 64  1  0  0  0  0
 57 65  1  0  0  0  0
 58 65  1  0  0  0  0
 59 65  1  0  0  0  0
 60 76  1  0  0  0  0
 61 62  1  0  0  0  0
 62 83  1  0  0  0  0
 63 65  1  0  0  0  0
 63 75  1  0  0  0  0
 64 76  1  0  0  0  0
 66 68  1  0  0  0  0
M  CHG  1  76   1
M  ISO  4  37 100  62 101  73 100  83 101
M  END
> <Batch ID>
0178

> <Smiles>
CNC(C)C(=O)NC(C(=O)N1Cc2cc([101O:1][101CH2:1]CC3CC(C)(C)c4cc([100NH:0][100C:0](=O)N5CCCC(n6nc(-c7ccc(Oc8ccc(F)cc8F)cc7)c(C(N)=O)c6N)C5)nc(C)c43)ccc2CC1C(=O)NC1CCCc2ccccc21)C(C)(C)C

> <Shape>
0.215

> <Color>
0.194

> <Negative vol penalty>
0.000

$$$$

  -OEChem-04052322553D

 86 95  0     1  0  0  0  0  0999 V2000
  -18.2352  -29.8521   25.8162 C   0  0  0  0  0  0  0  0  0  0  0  0
  -19.6142  -30.0326   25.8505 C   0  0  0  0  0  0  0  0  0  0  0  0
  -25.9567  -12.6523   21.8021 C   0  0  0  0  0  0  0  0  0  0  0  0
  -25.3105  -13.8011   19.7773 C   0  0  0  0  0  0  0  0  0  0  0  0
  -17.6661  -29.0188   24.8540 C   0  0  0  0  0  0  0  0  0  0  0  0
  -20.4251  -29.3789   24.9234 C   0  0  0  0  0  0  0  0  0  0  0  0
  -26.5073  -30.2414   21.2385 C   0  0  0  0  0  0  0  0  0  0  0  0
  -24.7986  -11.8780   21.7325 C   0  0  0  0  0  0  0  0  0  0  0  0
  -24.1524  -13.0267   19.7076 C   0  0  0  0  0  0  0  0  0  0  0  0
  -27.7112  -29.5880   20.9789 C   0  0  0  0  0  0  0  0  0  0  0  0
  -23.7071   -9.1780   20.0144 C   0  0  0  0  0  0  0  0  0  0  0  0
  -23.8298   -7.8066   20.2374 C   0  0  0  0  0  0  0  0  0  0  0  0
  -26.6106  -28.2349   19.3125 C   0  0  0  0  0  0  0  0  0  0  0  0
  -22.3142   -7.9756   22.1113 C   0  0  0  0  0  0  0  0  0  0  0  0
  -26.2126  -13.6139   20.8246 C   0  0  0  0  0  0  0  0  0  0  0  0
  -28.6631  -14.1212   20.3293 C   0  0  0  0  0  0  0  0  0  0  0  0
  -18.4696  -28.3622   23.9086 C   0  0  0  0  0  0  0  0  0  0  0  0
  -25.3416  -29.8884   20.5436 C   0  0  0  0  0  0  0  0  0  0  0  0
  -19.8664  -28.5350   23.9486 C   0  0  0  0  0  0  0  0  0  0  0  0
  -25.3937  -28.8871   19.5633 C   0  0  0  0  0  0  0  0  0  0  0  0
  -31.2735  -27.5833   20.0802 C   0  0  0  0  0  0  0  0  0  0  0  0
  -23.8965  -12.0652   20.6852 C   0  0  0  0  0  0  0  0  0  0  0  0
  -27.7624  -28.5826   20.0178 C   0  0  0  0  0  0  0  0  0  0  0  0
  -22.8879   -9.9483   20.8399 C   0  0  0  0  0  0  0  0  0  0  0  0
  -23.1334   -7.2054   21.2858 C   0  0  0  0  0  0  0  0  0  0  0  0
  -22.1914   -9.3471   21.8883 C   0  0  0  0  0  0  0  0  0  0  0  0
  -27.4084  -14.4145   20.8964 C   0  0  0  0  0  0  0  0  0  0  0  0
  -32.2540  -28.1506   19.2921 C   0  0  0  0  0  0  0  0  0  0  0  0
  -31.4785  -26.2647   20.4315 C   0  0  0  0  0  0  0  0  0  0  0  0
  -29.4558  -15.1866   20.6798 C   0  0  0  0  0  0  0  0  0  0  0  0
  -33.4392  -26.2109   19.2827 C   0  0  0  0  0  0  0  0  0  0  0  0
  -29.0751  -12.9871   19.5549 C   0  0  0  0  0  0  0  0  0  0  0  0
  -22.5070  -28.7113   21.3701 C   0  0  0  0  0  0  0  0  0  0  0  0
  -21.8202  -29.2160   18.2402 C   0  0  0  0  0  0  0  0  0  0  0  0
  -22.9635  -29.5802   15.0454 C   0  0  0  0  0  0  0  0  0  0  0  0
  -29.8258  -20.7926   20.9316 C   0  0  0  0  0  0  0  0  0  0  0  0
  -17.8131  -27.4342   22.9174 C   0  0  0  0  0  0  0  0  0  0  0  0
  -24.0567  -30.6212   20.8164 C   0  0  0  0  0  0  0  0  0  0  0  0
  -24.1749  -28.4848   18.7752 C   0  0  0  0  0  0  0  0  0  0  0  0
  -18.7092  -27.0728   21.7355 C   0  0  0  0  0  0  0  0  0  0  0  0
  -28.6547  -18.9646   23.9439 C   0  0  0  0  0  0  0  0  0  0  0  0
  -20.1040  -26.6903   22.2204 C   0  0  0  0  0  0  0  0  0  0  0  0
  -28.2859  -17.6049   23.3476 C   0  0  0  0  0  0  0  0  0  0  0  0
  -29.7266  -23.9914   22.8626 C   0  0  0  0  0  0  0  0  0  0  0  0
  -28.4731  -20.0755   22.9183 C   0  0  0  0  0  0  0  0  0  0  0  0
  -29.5951  -22.4736   22.8390 C   0  0  0  0  0  0  0  0  0  0  0  0
  -28.8772  -18.5168   21.0506 C   0  0  0  0  0  0  0  0  0  0  0  0
  -20.7771  -27.8627   22.9443 C   0  0  1  0  0  0  0  0  0  0  0  0
  -22.8185  -29.8268   20.4128 C   0  0  1  0  0  0  0  0  0  0  0  0
  -29.0481  -17.3464   22.0345 C   0  0  2  0  0  0  0  0  0  0  0  0
  -30.6193  -24.2700   21.6598 C   0  0  1  0  0  0  0  0  0  0  0  0
  -30.1456  -23.2514   20.6160 C   0  0  2  0  0  0  0  0  0  0  0  0
  -32.1410  -29.5722   18.8488 C   0  0  0  0  0  0  0  0  0  0  0  0
  -34.6419  -25.4488   18.8399 C   0  0  0  0  0  0  0  0  0  0  0  0
  -28.9794  -23.7075   19.7380 C   0  0  0  0  0  0  0  0  0  0  0  0
  -22.1614  -29.9428   12.6954 C   0  0  0  0  0  0  0  0  0  0  0  0
  -20.9486  -26.2958   18.0898 C   0  0  0  0  0  0  0  0  0  0  0  0
  -21.0728  -26.4598   15.5946 C   0  0  0  0  0  0  0  0  0  0  0  0
  -19.4677  -27.8912   16.8585 C   0  0  0  0  0  0  0  0  0  0  0  0
  -24.4330  -32.1388   14.8151 C   0  0  0  0  0  0  0  0  0  0  0  0
  -30.0761  -28.3525   20.5175 C   0  0  0  0  0  0  0  0  0  1  0  0
  -21.9411  -28.4022   16.9744 C   0  0  1  0  0  0  0  0  0  0  0  0
  -22.6479  -30.6078   13.9736 C   0  0  2  0  0  0  0  0  0  0  0  0
  -20.8803  -27.2683   16.8954 C   0  0  0  0  0  0  0  0  0  0  0  0
  -27.3999  -15.5753   21.5571 N   0  0  0  0  0  0  0  0  0  0  0  0
  -33.3541  -27.4911   18.8735 N   0  0  0  0  0  0  0  0  0  0  0  0
  -32.5540  -25.5454   20.0489 N   0  0  0  0  0  0  0  0  0  0  0  0
  -28.6589  -16.0207   21.4074 N   0  0  0  0  0  0  0  0  0  0  0  0
  -22.9408  -29.2264   19.0828 N   0  0  0  0  0  0  0  0  0  0  0  0
  -29.2198  -19.7859   21.6920 N   0  0  0  0  0  0  0  0  0  0  0  0
  -29.7319  -22.0961   21.4282 N   0  0  0  0  0  0  0  0  0  0  0  0
  -30.7499  -15.4820   20.4336 N   0  0  0  0  0  0  0  0  0  0  0  0
  -28.1341  -11.9836   19.2868 N   0  0  0  0  0  0  0  0  0  0  0  0
  -30.5261  -25.6388   21.2239 N   0  0  0  0  0  0  0  0  0  0  0  0
  -21.2765  -28.8274   21.9881 N   0  0  0  0  0  0  0  0  0  0  0  0
  -21.8820  -29.3538   15.8702 N   0  0  0  0  0  0  0  0  0  0  0  0
  -23.8614  -31.4112   13.6528 N   0  3  0  0  0  0  0  0  0  0  0  0
  -30.2476  -12.8592   19.1277 O   0  0  0  0  0  0  0  0  0  0  0  0
  -23.3220  -27.8111   21.5347 O   0  0  0  0  0  0  0  0  0  0  0  0
  -20.7728  -29.8259   18.4693 O   0  0  0  0  0  0  0  0  0  0  0  0
  -24.0587  -29.0304   15.1391 O   0  0  0  0  0  0  0  0  0  0  0  0
  -30.4532  -20.5321   19.8980 O   0  0  0  0  0  0  0  0  0  0  0  0
  -22.7664  -11.3096   20.6167 O   0  0  0  0  0  0  0  0  0  0  0  0
  -28.9438  -27.9385   19.7613 O   0  0  0  0  0  0  0  0  0  1  0  0
  -23.2502   -5.8882   21.4989 F   0  0  0  0  0  0  0  0  0  0  0  0
  -21.4020  -10.0817   22.6839 F   0  0  0  0  0  0  0  0  0  0  0  0
  1  2  1  0  0  0  0
  1  5  2  0  0  0  0
  2  6  2  0  0  0  0
  3  8  2  0  0  0  0
  3 15  1  0  0  0  0
  4  9  1  0  0  0  0
  4 15  2  0  0  0  0
  5 17  1  0  0  0  0
  6 19  1  0  0  0  0
  7 10  2  0  0  0  0
  7 18  1  0  0  0  0
  8 22  1  0  0  0  0
  9 22  2  0  0  0  0
 10 23  1  0  0  0  0
 11 12  2  0  0  0  0
 11 24  1  0  0  0  0
 12 25  1  0  0  0  0
 13 20  1  0  0  0  0
 13 23  2  0  0  0  0
 14 25  2  0  0  0  0
 14 26  1  0  0  0  0
 15 27  1  0  0  0  0
 16 27  1  0  0  0  0
 16 30  2  0  0  0  0
 16 32  1  0  0  0  0
 17 19  2  0  0  0  0
 17 37  1  0  0  0  0
 18 20  2  0  0  0  0
 18 38  1  0  0  0  0
 19 48  1  0  0  0  0
 20 39  1  0  0  0  0
 21 28  1  0  0  0  0
 21 29  2  0  0  0  0
 21 61  1  0  0  0  0
 22 83  1  0  0  0  0
 23 84  1  0  0  0  0
 24 26  2  0  0  0  0
 24 83  1  0  0  0  0
 25 85  1  0  0  0  0
 26 86  1  0  0  0  0
 27 65  2  0  0  0  0
 28 53  1  0  0  0  0
 28 66  2  0  0  0  0
 29 67  1  0  0  0  0
 29 74  1  0  0  0  0
 30 68  1  0  0  0  0
 30 72  1  0  0  0  0
 31 54  1  0  0  0  0
 31 66  1  0  0  0  0
 31 67  2  0  0  0  0
 32 73  1  0  0  0  0
 32 78  2  0  0  0  0
 33 49  1  0  0  0  0
 33 75  1  0  0  0  0
 33 79  2  0  0  0  0
 34 62  1  0  0  0  0
 34 69  1  0  0  0  0
 34 80  2  0  0  0  0
 35 63  1  0  0  0  0
 35 76  1  0  0  0  0
 35 81  2  0  0  0  0
 36 70  1  0  0  0  0
 36 71  1  0  0  0  0
 36 82  2  0  0  0  0
 37 40  1  0  0  0  0
 38 49  1  0  0  0  0
 39 69  1  0  0  0  0
 40 42  1  0  0  0  0
 41 43  1  0  0  0  0
 41 45  1  0  0  0  0
 42 48  1  0  0  0  0
 43 50  1  0  0  0  0
 44 46  1  0  0  0  0
 44 51  1  0  0  0  0
 45 70  1  0  0  0  0
 46 71  1  0  0  0  0
 47 50  1  0  0  0  0
 47 70  1  0  0  0  0
 48 75  1  0  0  0  0
 49 69  1  0  0  0  0
 50 68  1  0  0  0  0
 51 52  1  0  0  0  0
 51 74  1  0  0  0  0
 52 55  1  0  0  0  0
 52 71  1  0  0  0  0
 56 63  1  0  0  0  0
 57 64  1  0  0  0  0
 58 64  1  0  0  0  0
 59 64  1  0  0  0  0
 60 77  1  0  0  0  0
 61 84  1  0  0  0  0
 62 64  1  0  0  0  0
 62 76  1  0  0  0  0
 63 77  1  0  0  0  0
 65 68  1  0  0  0  0
M  CHG  1  77   1
M  ISO  4  36 100  61 101  71 100  84 101
M  END
> <Batch ID>
0178

> <Smiles>
CNC(C)C(=O)NC(C(=O)N1Cc2cc([101O:1][101CH2:1]c3c(C)nc(C)nc3NC3CC[100N:0]([100C:0](=O)N4CCCC(n5nc(-c6ccc(Oc7ccc(F)cc7F)cc6)c(C(N)=O)c5N)C4)C3C)ccc2CC1C(=O)NC1CCCc2ccccc21)C(C)(C)C

> <Shape>
0.288

> <Color>
0.079

> <Negative vol penalty>
0.000

$$$$

  -OEChem-04052322553D

 81 90  0     1  0  0  0  0  0999 V2000
  -16.5213  -26.2272   24.9286 C   0  0  0  0  0  0  0  0  0  0  0  0
  -17.7637  -25.7166   24.5665 C   0  0  0  0  0  0  0  0  0  0  0  0
  -24.0146   -9.5807   20.9214 C   0  0  0  0  0  0  0  0  0  0  0  0
  -24.5828  -10.3676   23.1339 C   0  0  0  0  0  0  0  0  0  0  0  0
  -16.1973  -27.5492   24.6264 C   0  0  0  0  0  0  0  0  0  0  0  0
  -18.6825  -26.5273   23.9010 C   0  0  0  0  0  0  0  0  0  0  0  0
  -28.3268  -20.2556   24.5394 C   0  0  0  0  0  0  0  0  0  0  0  0
  -27.0110  -20.0875   22.5201 C   0  0  0  0  0  0  0  0  0  0  0  0
  -23.3661  -26.1030   25.7793 C   0  0  0  0  0  0  0  0  0  0  0  0
  -27.4823  -21.2629   25.0058 C   0  0  0  0  0  0  0  0  0  0  0  0
  -26.1664  -21.0948   22.9866 C   0  0  0  0  0  0  0  0  0  0  0  0
  -23.5783   -8.3718   21.4634 C   0  0  0  0  0  0  0  0  0  0  0  0
  -24.1465   -9.1586   23.6759 C   0  0  0  0  0  0  0  0  0  0  0  0
  -24.1013  -24.9779   25.4086 C   0  0  0  0  0  0  0  0  0  0  0  0
  -21.9797   -5.2163   22.3014 C   0  0  0  0  0  0  0  0  0  0  0  0
  -20.7687   -4.6989   21.8416 C   0  0  0  0  0  0  0  0  0  0  0  0
  -25.2779  -26.2956   23.7658 C   0  0  0  0  0  0  0  0  0  0  0  0
  -19.6287   -6.6864   22.6081 C   0  0  0  0  0  0  0  0  0  0  0  0
  -24.5169  -10.5786   21.7567 C   0  0  0  0  0  0  0  0  0  0  0  0
  -24.2019  -12.9885   20.9815 C   0  0  0  0  0  0  0  0  0  0  0  0
  -28.0912  -19.6679   23.2964 C   0  0  0  0  0  0  0  0  0  0  0  0
  -17.1162  -28.3794   23.9653 C   0  0  0  0  0  0  0  0  0  0  0  0
  -23.5740  -27.3323   25.1375 C   0  0  0  0  0  0  0  0  0  0  0  0
  -18.3699  -27.8613   23.5884 C   0  0  0  0  0  0  0  0  0  0  0  0
  -24.5458  -27.4353   24.1320 C   0  0  0  0  0  0  0  0  0  0  0  0
  -26.4021  -21.6825   24.2295 C   0  0  0  0  0  0  0  0  0  0  0  0
  -23.6443   -8.1607   22.8406 C   0  0  0  0  0  0  0  0  0  0  0  0
  -25.0553  -25.0734   24.3997 C   0  0  0  0  0  0  0  0  0  0  0  0
  -22.0152   -6.4687   22.9146 C   0  0  0  0  0  0  0  0  0  0  0  0
  -19.5932   -5.4340   21.9950 C   0  0  0  0  0  0  0  0  0  0  0  0
  -20.8397   -7.2037   23.0679 C   0  0  0  0  0  0  0  0  0  0  0  0
  -24.9682  -11.8275   21.1974 C   0  0  0  0  0  0  0  0  0  0  0  0
  -25.0860  -13.8869   20.4358 C   0  0  0  0  0  0  0  0  0  0  0  0
  -22.8150  -13.2331   21.2502 C   0  0  0  0  0  0  0  0  0  0  0  0
  -21.7764  -29.2773   23.3798 C   0  0  0  0  0  0  0  0  0  0  0  0
  -24.3708  -31.2149   23.5726 C   0  0  0  0  0  0  0  0  0  0  0  0
  -27.7377  -31.5099   24.0459 C   0  0  0  0  0  0  0  0  0  0  0  0
  -30.1934  -16.2865   20.5562 C   0  0  0  0  0  0  0  0  0  0  0  0
  -16.7029  -29.7877   23.6180 C   0  0  0  0  0  0  0  0  0  0  0  0
  -22.7915  -28.5428   25.5675 C   0  0  0  0  0  0  0  0  0  0  0  0
  -24.8215  -28.7368   23.4259 C   0  0  0  0  0  0  0  0  0  0  0  0
  -17.8748  -30.6916   23.2437 C   0  0  0  0  0  0  0  0  0  0  0  0
  -29.7543  -13.2693   18.6494 C   0  0  0  0  0  0  0  0  0  0  0  0
  -18.8037  -29.9828   22.2631 C   0  0  0  0  0  0  0  0  0  0  0  0
  -28.4392  -12.6890   19.1589 C   0  0  0  0  0  0  0  0  0  0  0  0
  -30.5107  -13.9692   19.7705 C   0  0  0  0  0  0  0  0  0  0  0  0
  -28.4346  -17.1918   22.2730 C   0  0  0  0  0  0  0  0  0  0  0  0
  -29.6640  -18.6533   21.3531 C   0  0  0  0  0  0  0  0  0  0  0  0
  -28.3863  -14.5201   20.9269 C   0  0  0  0  0  0  0  0  0  0  0  0
  -29.0513  -18.5231   22.7666 C   0  0  0  0  0  0  0  0  0  0  0  0
  -19.4028  -28.7168   22.8874 C   0  0  1  0  0  0  0  0  0  0  0  0
  -22.7244  -29.6236   24.4929 C   0  0  1  0  0  0  0  0  0  0  0  0
  -27.5943  -13.7815   19.8298 C   0  0  2  0  0  0  0  0  0  0  0  0
  -29.5759  -33.2171   24.1091 C   0  0  0  0  0  0  0  0  0  0  0  0
  -24.3150  -31.3841   20.5266 C   0  0  0  0  0  0  0  0  0  0  0  0
  -26.6539  -32.2741   20.6027 C   0  0  0  0  0  0  0  0  0  0  0  0
  -24.8009  -33.5478   21.6830 C   0  0  0  0  0  0  0  0  0  0  0  0
  -28.3924  -30.8707   26.8604 C   0  0  0  0  0  0  0  0  0  0  0  0
  -25.4994  -22.7602   24.7281 C   0  0  0  0  0  0  0  0  0  1  0  0
  -25.6232  -31.4095   22.7524 C   0  0  1  0  0  0  0  0  0  0  0  0
  -28.5536  -32.4408   24.9246 C   0  0  2  0  0  0  0  0  0  0  0  0
  -25.3419  -32.1287   21.4030 C   0  0  0  0  0  0  0  0  0  0  0  0
  -26.2411  -11.9721   20.8195 N   0  0  0  0  0  0  0  0  0  0  0  0
  -26.2815  -13.2346   20.3607 N   0  0  0  0  0  0  0  0  0  0  0  0
  -24.0261  -29.8905   23.8776 N   0  0  0  0  0  0  0  0  0  0  0  0
  -29.6918  -14.9855   20.4383 N   0  0  0  0  0  0  0  0  0  0  0  0
  -29.4294  -17.2213   21.2143 N   0  0  0  0  0  0  0  0  0  0  0  0
  -24.9497  -15.1632   20.0177 N   0  0  0  0  0  0  0  0  0  0  0  0
  -22.0512  -12.2012   21.8125 N   0  0  0  0  0  0  0  0  0  0  0  0
  -20.4764  -29.0603   23.7950 N   0  0  0  0  0  0  0  0  0  0  0  0
  -26.5716  -32.1062   23.6146 N   0  0  0  0  0  0  0  0  0  0  0  0
  -29.2781  -31.6639   25.9698 N   0  3  0  0  0  0  0  0  0  0  0  0
  -22.2652  -14.3287   20.9840 O   0  0  0  0  0  0  0  0  0  0  0  0
  -22.1932  -29.2132   22.2292 O   0  0  0  0  0  0  0  0  0  0  0  0
  -23.7262  -32.2019   23.9357 O   0  0  0  0  0  0  0  0  0  0  0  0
  -28.1004  -30.3693   23.7667 O   0  0  0  0  0  0  0  0  0  0  0  0
  -31.3063  -16.6001   20.1131 O   0  0  0  0  0  0  0  0  0  0  0  0
  -23.2184   -6.9812   23.3698 O   0  0  0  0  0  0  0  0  0  0  0  0
  -25.7788  -23.9690   24.0329 O   0  0  0  0  0  0  0  0  0  1  0  0
  -18.4305   -4.9378   21.5520 F   0  0  0  0  0  0  0  0  0  0  0  0
  -20.8678   -8.4080   23.6552 F   0  0  0  0  0  0  0  0  0  0  0  0
  1  2  1  0  0  0  0
  1  5  2  0  0  0  0
  2  6  2  0  0  0  0
  3 12  2  0  0  0  0
  3 19  1  0  0  0  0
  4 13  1  0  0  0  0
  4 19  2  0  0  0  0
  5 22  1  0  0  0  0
  6 24  1  0  0  0  0
  7 10  2  0  0  0  0
  7 21  1  0  0  0  0
  8 11  1  0  0  0  0
  8 21  2  0  0  0  0
  9 14  2  0  0  0  0
  9 23  1  0  0  0  0
 10 26  1  0  0  0  0
 11 26  2  0  0  0  0
 12 27  1  0  0  0  0
 13 27  2  0  0  0  0
 14 28  1  0  0  0  0
 15 16  2  0  0  0  0
 15 29  1  0  0  0  0
 16 30  1  0  0  0  0
 17 25  1  0  0  0  0
 17 28  2  0  0  0  0
 18 30  2  0  0  0  0
 18 31  1  0  0  0  0
 19 32  1  0  0  0  0
 20 32  1  0  0  0  0
 20 33  2  0  0  0  0
 20 34  1  0  0  0  0
 21 50  1  0  0  0  0
 22 24  2  0  0  0  0
 22 39  1  0  0  0  0
 23 25  2  0  0  0  0
 23 40  1  0  0  0  0
 24 51  1  0  0  0  0
 25 41  1  0  0  0  0
 26 59  1  0  0  0  0
 27 78  1  0  0  0  0
 28 79  1  0  0  0  0
 29 31  2  0  0  0  0
 29 78  1  0  0  0  0
 30 80  1  0  0  0  0
 31 81  1  0  0  0  0
 32 63  2  0  0  0  0
 33 64  1  0  0  0  0
 33 68  1  0  0  0  0
 34 69  1  0  0  0  0
 34 73  2  0  0  0  0
 35 52  1  0  0  0  0
 35 70  1  0  0  0  0
 35 74  2  0  0  0  0
 36 60  1  0  0  0  0
 36 65  1  0  0  0  0
 36 75  2  0  0  0  0
 37 61  1  0  0  0  0
 37 71  1  0  0  0  0
 37 76  2  0  0  0  0
 38 66  1  0  0  0  0
 38 67  1  0  0  0  0
 38 77  2  0  0  0  0
 39 42  1  0  0  0  0
 40 52  1  0  0  0  0
 41 65  1  0  0  0  0
 42 44  1  0  0  0  0
 43 45  1  0  0  0  0
 43 46  1  0  0  0  0
 44 51  1  0  0  0  0
 45 53  1  0  0  0  0
 46 66  1  0  0  0  0
 47 50  1  0  0  0  0
 47 67  1  0  0  0  0
 48 50  1  0  0  0  0
 48 67  1  0  0  0  0
 49 53  1  0  0  0  0
 49 66  1  0  0  0  0
 51 70  1  0  0  0  0
 52 65  1  0  0  0  0
 53 64  1  0  0  0  0
 54 61  1  0  0  0  0
 55 62  1  0  0  0  0
 56 62  1  0  0  0  0
 57 62  1  0  0  0  0
 58 72  1  0  0  0  0
 59 79  1  0  0  0  0
 60 62  1  0  0  0  0
 60 71  1  0  0  0  0
 61 72  1  0  0  0  0
 63 64  1  0  0  0  0
M  CHG  1  72   1
M  ISO  4  38 100  59 101  67 100  79 101
M  END
> <Batch ID>
0178

> <Smiles>
CNC(C)C(=O)NC(C(=O)N1Cc2cc([101O:1][101CH2:1]c3ccc(C4C[100N:0]([100C:0](=O)N5CCCC(n6nc(-c7ccc(Oc8ccc(F)cc8F)cc7)c(C(N)=O)c6N)C5)C4)cc3)ccc2CC1C(=O)NC1CCCc2ccccc21)C(C)(C)C

> <Shape>
0.284

> <Color>
0.155

> <Negative vol penalty>
0.000

$$$$

  -OEChem-04052322553D

 89 99  0     1  0  0  0  0  0999 V2000
  -25.6460  -35.1819   23.7694 C   0  0  0  0  0  0  0  0  0  0  0  0
  -26.2757  -33.9750   23.4820 C   0  0  0  0  0  0  0  0  0  0  0  0
  -24.5041  -13.6318   21.5929 C   0  0  0  0  0  0  0  0  0  0  0  0
  -26.1056  -13.5758   19.7848 C   0  0  0  0  0  0  0  0  0  0  0  0
  -24.3163  -35.1906   24.1884 C   0  0  0  0  0  0  0  0  0  0  0  0
  -25.5761  -32.7761   23.6144 C   0  0  0  0  0  0  0  0  0  0  0  0
  -26.2968  -29.6144   19.6174 C   0  0  0  0  0  0  0  0  0  0  0  0
  -23.9285  -12.4527   21.1196 C   0  0  0  0  0  0  0  0  0  0  0  0
  -25.5300  -12.3967   19.3115 C   0  0  0  0  0  0  0  0  0  0  0  0
  -27.4857  -28.8891   19.5524 C   0  0  0  0  0  0  0  0  0  0  0  0
  -24.5985   -9.1399   21.2169 C   0  0  0  0  0  0  0  0  0  0  0  0
  -24.2997   -8.1452   22.1479 C   0  0  0  0  0  0  0  0  0  0  0  0
  -26.3573  -26.9684   20.4777 C   0  0  0  0  0  0  0  0  0  0  0  0
  -32.8826  -24.6619   19.2601 C   0  0  0  0  0  0  0  0  0  0  0  0
  -21.9676   -8.2655   21.5280 C   0  0  0  0  0  0  0  0  0  0  0  0
  -25.5926  -14.1934   20.9255 C   0  0  0  0  0  0  0  0  0  0  0  0
  -27.2392  -15.5320   22.3414 C   0  0  0  0  0  0  0  0  0  0  0  0
  -23.5971  -33.9919   24.3167 C   0  0  0  0  0  0  0  0  0  0  0  0
  -25.1293  -29.0248   20.1235 C   0  0  0  0  0  0  0  0  0  0  0  0
  -24.2358  -32.7687   24.0367 C   0  0  0  0  0  0  0  0  0  0  0  0
  -25.1539  -27.6870   20.5435 C   0  0  0  0  0  0  0  0  0  0  0  0
  -33.2973  -26.0037   19.1763 C   0  0  0  0  0  0  0  0  0  0  0  0
  -32.3087  -27.0107   19.2048 C   0  0  0  0  0  0  0  0  0  0  0  0
  -24.4415  -11.8351   19.9789 C   0  0  0  0  0  0  0  0  0  0  0  0
  -27.5166  -27.5666   19.9848 C   0  0  0  0  0  0  0  0  0  0  0  0
  -23.5819   -9.6975   20.4414 C   0  0  0  0  0  0  0  0  0  0  0  0
  -22.9843   -7.7079   22.3035 C   0  0  0  0  0  0  0  0  0  0  0  0
  -22.2665   -9.2603   20.5970 C   0  0  0  0  0  0  0  0  0  0  0  0
  -26.1872  -15.4117   21.4136 C   0  0  0  0  0  0  0  0  0  0  0  0
  -31.5368  -24.3707   19.4058 C   0  0  0  0  0  0  0  0  0  0  0  0
  -30.9825  -26.5881   19.3722 C   0  0  0  0  0  0  0  0  0  0  0  0
  -27.4315  -16.8859   22.4688 C   0  0  0  0  0  0  0  0  0  0  0  0
  -27.9765  -14.5110   23.0267 C   0  0  0  0  0  0  0  0  0  0  0  0
  -23.1237  -29.5705   22.5577 C   0  0  0  0  0  0  0  0  0  0  0  0
  -21.4733  -27.0969   21.0709 C   0  0  0  0  0  0  0  0  0  0  0  0
  -18.7502  -27.8262   22.9925 C   0  0  0  0  0  0  0  0  0  0  0  0
  -27.9340  -21.9640   20.2092 C   0  0  0  0  0  0  0  0  0  0  0  0
  -22.1759  -34.0481   24.8183 C   0  0  0  0  0  0  0  0  0  0  0  0
  -23.8495  -29.8155   20.1568 C   0  0  0  0  0  0  0  0  0  0  0  0
  -23.9276  -27.0078   21.0908 C   0  0  0  0  0  0  0  0  0  0  0  0
  -21.3920  -32.7614   24.5729 C   0  0  0  0  0  0  0  0  0  0  0  0
  -24.6376  -20.7757   20.8408 C   0  0  0  0  0  0  0  0  0  0  0  0
  -22.2199  -31.5462   24.9788 C   0  0  0  0  0  0  0  0  0  0  0  0
  -24.8332  -19.2838   21.1163 C   0  0  0  0  0  0  0  0  0  0  0  0
  -35.0772  -27.8192   19.2858 C   0  0  0  0  0  0  0  0  0  0  0  0
  -34.0749  -28.7302   18.5943 C   0  0  0  0  0  0  0  0  0  0  0  0
  -31.7372  -22.0573   20.5375 C   0  0  0  0  0  0  0  0  0  0  0  0
  -25.5949  -21.2809   19.7635 C   0  0  0  0  0  0  0  0  0  0  0  0
  -27.2146  -19.4998   20.2910 C   0  0  0  0  0  0  0  0  0  0  0  0
  -23.5029  -31.4491   24.1445 C   0  0  1  0  0  0  0  0  0  0  0  0
  -31.1122  -22.9435   19.4942 C   0  0  1  0  0  0  0  0  0  0  0  0
  -22.8094  -29.2527   21.1233 C   0  0  1  0  0  0  0  0  0  0  0  0
  -26.3096  -18.9566   21.4101 C   0  0  2  0  0  0  0  0  0  0  0  0
  -30.3101  -22.4927   20.6928 C   0  0  1  0  0  0  0  0  0  0  0  0
  -34.7872  -26.3251   19.0157 C   0  0  0  0  0  0  0  0  0  0  0  0
  -32.6346  -28.5001   19.1048 C   0  0  0  0  0  0  0  0  0  0  0  0
  -35.6601  -25.5212   20.0081 C   0  0  0  0  0  0  0  0  0  0  0  0
  -35.2207  -25.9562   17.5797 C   0  0  0  0  0  0  0  0  0  0  0  0
  -31.6934  -29.2287   18.1172 C   0  0  0  0  0  0  0  0  0  0  0  0
  -32.4627  -29.1404   20.4999 C   0  0  0  0  0  0  0  0  0  0  0  0
  -16.3191  -27.2636   23.2582 C   0  0  0  0  0  0  0  0  0  0  0  0
  -20.8110  -28.8301   18.6496 C   0  0  0  0  0  0  0  0  0  0  0  0
  -18.4672  -29.0136   19.5106 C   0  0  0  0  0  0  0  0  0  0  0  0
  -19.3938  -26.7832   18.8866 C   0  0  0  0  0  0  0  0  0  0  0  0
  -19.1717  -26.7815   25.7293 C   0  0  0  0  0  0  0  0  0  0  0  0
  -29.8221  -27.5267   19.4025 C   0  0  0  0  0  0  0  0  0  1  0  0
  -20.2125  -27.9208   20.9908 C   0  0  1  0  0  0  0  0  0  0  0  0
  -17.7396  -26.9324   23.6884 C   0  0  2  0  0  0  0  0  0  0  0  0
  -19.7432  -28.1450   19.5255 C   0  0  0  0  0  0  0  0  0  0  0  0
  -25.7423  -16.5949   20.9823 N   0  0  0  0  0  0  0  0  0  0  0  0
  -30.5731  -25.3041   19.4725 N   0  0  0  0  0  0  0  0  0  0  0  0
  -26.5184  -17.4716   21.6420 N   0  0  0  0  0  0  0  0  0  0  0  0
  -22.6880  -27.7927   21.0237 N   0  0  0  0  0  0  0  0  0  0  0  0
  -26.9784  -20.9399   20.1033 N   0  0  0  0  0  0  0  0  0  0  0  0
  -28.2909  -17.6208   23.2063 N   0  0  0  0  0  0  0  0  0  0  0  0
  -27.6496  -13.1707   22.7796 N   0  0  0  0  0  0  0  0  0  0  0  0
  -23.2112  -30.9227   22.8283 N   0  0  0  0  0  0  0  0  0  0  0  0
  -19.2315  -27.2493   21.8364 N   0  0  0  0  0  0  0  0  0  0  0  0
  -29.2198  -21.5551   20.5410 N   0  0  0  0  0  0  0  0  0  0  0  0
  -17.8336  -27.0973   25.1666 N   0  3  0  0  0  0  0  0  0  0  0  0
  -28.8870  -14.7798   23.8467 O   0  0  0  0  0  0  0  0  0  0  0  0
  -23.2742  -28.6565   23.3600 O   0  0  0  0  0  0  0  0  0  0  0  0
  -21.3863  -25.8694   21.1651 O   0  0  0  0  0  0  0  0  0  0  0  0
  -19.0769  -28.9278   23.4288 O   0  0  0  0  0  0  0  0  0  0  0  0
  -27.6602  -23.1552   20.0271 O   0  0  0  0  0  0  0  0  0  0  0  0
  -23.8803  -10.6844   19.5170 O   0  0  0  0  0  0  0  0  0  0  0  0
  -28.6837  -26.8511   19.9215 O   0  0  0  0  0  0  0  0  0  1  0  0
  -22.6977   -6.7516   23.1965 F   0  0  0  0  0  0  0  0  0  0  0  0
  -21.2857   -9.7913   19.8540 F   0  0  0  0  0  0  0  0  0  0  0  0
  1  2  1  0  0  0  0
  1  5  2  0  0  0  0
  2  6  2  0  0  0  0
  3  8  2  0  0  0  0
  3 16  1  0  0  0  0
  4  9  1  0  0  0  0
  4 16  2  0  0  0  0
  5 18  1  0  0  0  0
  6 20  1  0  0  0  0
  7 10  2  0  0  0  0
  7 19  1  0  0  0  0
  8 24  1  0  0  0  0
  9 24  2  0  0  0  0
 10 25  1  0  0  0  0
 11 12  2  0  0  0  0
 11 26  1  0  0  0  0
 12 27  1  0  0  0  0
 13 21  1  0  0  0  0
 13 25  2  0  0  0  0
 14 22  2  0  0  0  0
 14 30  1  0  0  0  0
 15 27  2  0  0  0  0
 15 28  1  0  0  0  0
 16 29  1  0  0  0  0
 17 29  1  0  0  0  0
 17 32  2  0  0  0  0
 17 33  1  0  0  0  0
 18 20  2  0  0  0  0
 18 38  1  0  0  0  0
 19 21  2  0  0  0  0
 19 39  1  0  0  0  0
 20 50  1  0  0  0  0
 21 40  1  0  0  0  0
 22 23  1  0  0  0  0
 22 55  1  0  0  0  0
 23 31  2  0  0  0  0
 23 56  1  0  0  0  0
 24 86  1  0  0  0  0
 25 87  1  0  0  0  0
 26 28  2  0  0  0  0
 26 86  1  0  0  0  0
 27 88  1  0  0  0  0
 28 89  1  0  0  0  0
 29 70  2  0  0  0  0
 30 51  1  0  0  0  0
 30 71  2  0  0  0  0
 31 66  1  0  0  0  0
 31 71  1  0  0  0  0
 32 72  1  0  0  0  0
 32 75  1  0  0  0  0
 33 76  1  0  0  0  0
 33 81  2  0  0  0  0
 34 52  1  0  0  0  0
 34 77  1  0  0  0  0
 34 82  2  0  0  0  0
 35 67  1  0  0  0  0
 35 73  1  0  0  0  0
 35 83  2  0  0  0  0
 36 68  1  0  0  0  0
 36 78  1  0  0  0  0
 36 84  2  0  0  0  0
 37 74  1  0  0  0  0
 37 79  1  0  0  0  0
 37 85  2  0  0  0  0
 38 41  1  0  0  0  0
 39 52  1  0  0  0  0
 40 73  1  0  0  0  0
 41 43  1  0  0  0  0
 42 44  1  0  0  0  0
 42 48  1  0  0  0  0
 43 50  1  0  0  0  0
 44 53  1  0  0  0  0
 45 46  1  0  0  0  0
 45 55  1  0  0  0  0
 46 56  1  0  0  0  0
 47 51  1  0  0  0  0
 47 54  1  0  0  0  0
 48 74  1  0  0  0  0
 49 53  1  0  0  0  0
 49 74  1  0  0  0  0
 50 77  1  0  0  0  0
 51 54  1  0  0  0  0
 52 73  1  0  0  0  0
 53 72  1  0  0  0  0
 54 79  1  0  0  0  0
 55 57  1  0  0  0  0
 55 58  1  0  0  0  0
 56 59  1  0  0  0  0
 56 60  1  0  0  0  0
 61 68  1  0  0  0  0
 62 69  1  0  0  0  0
 63 69  1  0  0  0  0
 64 69  1  0  0  0  0
 65 80  1  0  0  0  0
 66 87  1  0  0  0  0
 67 69  1  0  0  0  0
 67 78  1  0  0  0  0
 68 80  1  0  0  0  0
 70 72  1  0  0  0  0
M  CHG  1  80   1
M  ISO  4  37 100  66 101  79 100  87 101
M  END
> <Batch ID>
0178

> <Smiles>
CNC(C)C(=O)NC(C(=O)N1Cc2cc([101O:1][101CH2:1]c3nc(C4CC4[100NH:0][100C:0](=O)N4CCCC(n5nc(-c6ccc(Oc7ccc(F)cc7F)cc6)c(C(N)=O)c5N)C4)cc4c3C(C)(C)CCC4(C)C)ccc2CC1C(=O)NC1CCCc2ccccc21)C(C)(C)C

> <Shape>
0.288

> <Color>
0.103

> <Negative vol penalty>
0.000

$$$$

  -OEChem-04052322553D

 87 96  0     1  0  0  0  0  0999 V2000
  -28.7079  -35.6274   18.0922 C   0  0  0  0  0  0  0  0  0  0  0  0
  -29.0954  -34.3475   17.7084 C   0  0  0  0  0  0  0  0  0  0  0  0
  -22.5819  -10.5062   20.4784 C   0  0  0  0  0  0  0  0  0  0  0  0
  -24.2430   -9.7734   22.0724 C   0  0  0  0  0  0  0  0  0  0  0  0
  -28.1062  -35.8294   19.3335 C   0  0  0  0  0  0  0  0  0  0  0  0
  -28.8824  -33.2691   18.5663 C   0  0  0  0  0  0  0  0  0  0  0  0
  -27.3740  -26.2669   18.4638 C   0  0  0  0  0  0  0  0  0  0  0  0
  -22.0715   -9.2098   20.4142 C   0  0  0  0  0  0  0  0  0  0  0  0
  -23.7325   -8.4769   22.0083 C   0  0  0  0  0  0  0  0  0  0  0  0
  -27.8411  -25.0569   18.9752 C   0  0  0  0  0  0  0  0  0  0  0  0
  -21.1090   -6.7689   23.2813 C   0  0  0  0  0  0  0  0  0  0  0  0
  -20.9242   -6.0866   24.4838 C   0  0  0  0  0  0  0  0  0  0  0  0
  -26.7210  -25.5135   21.0623 C   0  0  0  0  0  0  0  0  0  0  0  0
  -30.4889  -21.1361   20.8192 C   0  0  0  0  0  0  0  0  0  0  0  0
  -22.4530   -4.3683   23.7437 C   0  0  0  0  0  0  0  0  0  0  0  0
  -23.6677  -10.7881   21.3074 C   0  0  0  0  0  0  0  0  0  0  0  0
  -23.8037  -13.1529   22.2543 C   0  0  0  0  0  0  0  0  0  0  0  0
  -27.8769  -34.7515   20.2031 C   0  0  0  0  0  0  0  0  0  0  0  0
  -26.5846  -27.1158   19.2529 C   0  0  0  0  0  0  0  0  0  0  0  0
  -28.2782  -33.4571   19.8210 C   0  0  0  0  0  0  0  0  0  0  0  0
  -26.2430  -26.7325   20.5577 C   0  0  0  0  0  0  0  0  0  0  0  0
  -30.8317  -19.9516   21.4845 C   0  0  0  0  0  0  0  0  0  0  0  0
  -29.7981  -19.0807   21.8689 C   0  0  0  0  0  0  0  0  0  0  0  0
  -22.6467   -8.1951   21.1792 C   0  0  0  0  0  0  0  0  0  0  0  0
  -27.5170  -24.6814   20.2756 C   0  0  0  0  0  0  0  0  0  0  0  0
  -21.9657   -6.2509   22.3100 C   0  0  0  0  0  0  0  0  0  0  0  0
  -21.5962   -4.8863   24.7150 C   0  0  0  0  0  0  0  0  0  0  0  0
  -22.6377   -5.0507   22.5412 C   0  0  0  0  0  0  0  0  0  0  0  0
  -24.1959  -12.1270   21.3737 C   0  0  0  0  0  0  0  0  0  0  0  0
  -29.1494  -21.4313   20.6168 C   0  0  0  0  0  0  0  0  0  0  0  0
  -28.4839  -19.4909   21.6293 C   0  0  0  0  0  0  0  0  0  0  0  0
  -24.6003  -14.2193   21.9157 C   0  0  0  0  0  0  0  0  0  0  0  0
  -22.8083  -13.1429   23.2862 C   0  0  0  0  0  0  0  0  0  0  0  0
  -26.9006  -30.0734   20.3737 C   0  0  0  0  0  0  0  0  0  0  0  0
  -23.8508  -29.6031   21.3737 C   0  0  0  0  0  0  0  0  0  0  0  0
  -21.3965  -27.3997   22.2503 C   0  0  0  0  0  0  0  0  0  0  0  0
  -29.5881  -16.3379   20.5818 C   0  0  0  0  0  0  0  0  0  0  0  0
  -27.2662  -35.0262   21.5545 C   0  0  0  0  0  0  0  0  0  0  0  0
  -26.0663  -28.4052   18.6775 C   0  0  0  0  0  0  0  0  0  0  0  0
  -25.3816  -27.5986   21.4389 C   0  0  0  0  0  0  0  0  0  0  0  0
  -26.7356  -33.7746   22.2489 C   0  0  0  0  0  0  0  0  0  0  0  0
  -27.6608  -14.9136   17.9486 C   0  0  0  0  0  0  0  0  0  0  0  0
  -27.7589  -32.6460   22.1701 C   0  0  0  0  0  0  0  0  0  0  0  0
  -26.5596  -14.1416   18.6776 C   0  0  0  0  0  0  0  0  0  0  0  0
  -28.9895  -14.8445   18.6982 C   0  0  0  0  0  0  0  0  0  0  0  0
  -27.8242  -14.4890   20.8406 C   0  0  0  0  0  0  0  0  0  0  0  0
  -32.4103  -18.5866   22.9027 C   0  0  0  0  0  0  0  0  0  0  0  0
  -32.2819  -19.5750   21.7372 C   0  0  2  0  0  0  0  0  0  0  0  0
  -28.0415  -32.2583   20.7136 C   0  0  1  0  0  0  0  0  0  0  0  0
  -30.0692  -17.7629   22.5559 C   0  0  1  0  0  0  0  0  0  0  0  0
  -25.6968  -29.4302   19.7452 C   0  0  1  0  0  0  0  0  0  0  0  0
  -26.4517  -14.5763   20.1516 C   0  0  2  0  0  0  0  0  0  0  0  0
  -27.3174  -18.6764   22.0910 C   0  0  0  0  0  0  0  0  0  0  0  0
  -33.1986  -20.7712   22.0293 C   0  0  0  0  0  0  0  0  0  0  0  0
  -19.0225  -27.3147   23.0590 C   0  0  0  0  0  0  0  0  0  0  0  0
  -31.9871  -16.8994   24.9994 C   0  0  0  0  0  0  0  0  0  0  0  0
  -33.0548  -15.5269   23.1690 C   0  0  0  0  0  0  0  0  0  0  0  0
  -24.7772  -30.4002   24.1695 C   0  0  0  0  0  0  0  0  0  0  0  0
  -22.6694  -29.3999   25.0775 C   0  0  0  0  0  0  0  0  0  0  0  0
  -22.5538  -31.3308   23.5024 C   0  0  0  0  0  0  0  0  0  0  0  0
  -20.5098  -25.9131   19.8497 C   0  0  0  0  0  0  0  0  0  0  0  0
  -28.7768  -22.6962   19.9177 C   0  0  0  0  0  0  0  0  0  1  0  0
  -23.2086  -29.0522   22.6240 C   0  0  1  0  0  0  0  0  0  0  0  0
  -19.9370  -27.3036   21.8440 C   0  0  2  0  0  0  0  0  0  0  0  0
  -31.8149  -16.2814   23.6212 C   0  0  0  0  0  0  0  0  0  0  0  0
  -23.3201  -30.0301   23.8277 C   0  0  0  0  0  0  0  0  0  0  0  0
  -25.1661  -12.5075   20.5383 N   0  0  0  0  0  0  0  0  0  0  0  0
  -28.1343  -20.6416   21.0154 N   0  0  0  0  0  0  0  0  0  0  0  0
  -25.3902  -13.7844   20.8924 N   0  0  0  0  0  0  0  0  0  0  0  0
  -24.9046  -28.8528   20.8329 N   0  0  0  0  0  0  0  0  0  0  0  0
  -28.8185  -15.2710   20.0892 N   0  0  0  0  0  0  0  0  0  0  0  0
  -24.6951  -15.4773   22.3963 N   0  0  0  0  0  0  0  0  0  0  0  0
  -22.0808  -11.9644   23.5013 N   0  0  0  0  0  0  0  0  0  0  0  0
  -26.9674  -31.4415   20.1906 N   0  0  0  0  0  0  0  0  0  0  0  0
  -21.8389  -28.7056   22.2606 N   0  0  0  0  0  0  0  0  0  0  0  0
  -29.3594  -16.6823   21.9084 N   0  0  0  0  0  0  0  0  0  0  0  0
  -31.5406  -17.3868   22.6325 N   0  3  2  0  0  0  0  0  0  0  0  0
  -19.6928  -26.0455   21.0834 N   0  3  0  0  0  0  0  0  0  0  0  0
  -22.5596  -14.1541   23.9855 O   0  0  0  0  0  0  0  0  0  0  0  0
  -27.7081  -29.3801   20.9810 O   0  0  0  0  0  0  0  0  0  0  0  0
  -23.4282  -30.6564   20.8906 O   0  0  0  0  0  0  0  0  0  0  0  0
  -22.0752  -26.4151   22.5340 O   0  0  0  0  0  0  0  0  0  0  0  0
  -30.4137  -16.9424   19.8890 O   0  0  0  0  0  0  0  0  0  0  0  0
  -22.1487   -6.9299   21.1170 O   0  0  0  0  0  0  0  0  0  0  0  0
  -27.9754  -23.4929   20.7809 O   0  0  0  0  0  0  0  0  0  1  0  0
  -21.4199   -4.2320   25.8704 F   0  0  0  0  0  0  0  0  0  0  0  0
  -23.4629   -4.5487   21.6123 F   0  0  0  0  0  0  0  0  0  0  0  0
  1  2  1  0  0  0  0
  1  5  2  0  0  0  0
  2  6  2  0  0  0  0
  3  8  2  0  0  0  0
  3 16  1  0  0  0  0
  4  9  1  0  0  0  0
  4 16  2  0  0  0  0
  5 18  1  0  0  0  0
  6 20  1  0  0  0  0
  7 10  2  0  0  0  0
  7 19  1  0  0  0  0
  8 24  1  0  0  0  0
  9 24  2  0  0  0  0
 10 25  1  0  0  0  0
 11 12  2  0  0  0  0
 11 26  1  0  0  0  0
 12 27  1  0  0  0  0
 13 21  1  0  0  0  0
 13 25  2  0  0  0  0
 14 22  2  0  0  0  0
 14 30  1  0  0  0  0
 15 27  2  0  0  0  0
 15 28  1  0  0  0  0
 16 29  1  0  0  0  0
 17 29  1  0  0  0  0
 17 32  2  0  0  0  0
 17 33  1  0  0  0  0
 18 20  2  0  0  0  0
 18 38  1  0  0  0  0
 19 21  2  0  0  0  0
 19 39  1  0  0  0  0
 20 49  1  0  0  0  0
 21 40  1  0  0  0  0
 22 23  1  0  0  0  0
 22 48  1  0  0  0  0
 23 31  2  0  0  0  0
 23 50  1  0  0  0  0
 24 84  1  0  0  0  0
 25 85  1  0  0  0  0
 26 28  2  0  0  0  0
 26 84  1  0  0  0  0
 27 86  1  0  0  0  0
 28 87  1  0  0  0  0
 29 67  2  0  0  0  0
 30 62  1  0  0  0  0
 30 68  2  0  0  0  0
 31 53  1  0  0  0  0
 31 68  1  0  0  0  0
 32 69  1  0  0  0  0
 32 72  1  0  0  0  0
 33 73  1  0  0  0  0
 33 79  2  0  0  0  0
 34 51  1  0  0  0  0
 34 74  1  0  0  0  0
 34 80  2  0  0  0  0
 35 63  1  0  0  0  0
 35 70  1  0  0  0  0
 35 81  2  0  0  0  0
 36 64  1  0  0  0  0
 36 75  1  0  0  0  0
 36 82  2  0  0  0  0
 37 71  1  0  0  0  0
 37 76  1  0  0  0  0
 37 83  2  0  0  0  0
 38 41  1  0  0  0  0
 39 51  1  0  0  0  0
 40 70  1  0  0  0  0
 41 43  1  0  0  0  0
 42 44  1  0  0  0  0
 42 45  1  0  0  0  0
 43 49  1  0  0  0  0
 44 52  1  0  0  0  0
 45 71  1  0  0  0  0
 46 52  1  0  0  0  0
 46 71  1  0  0  0  0
 47 48  1  0  0  0  0
 47 77  1  0  0  0  0
 48 54  1  0  0  0  0
 49 74  1  0  0  0  0
 50 76  1  0  0  0  0
 50 77  1  0  0  0  0
 51 70  1  0  0  0  0
 52 69  1  0  0  0  0
 55 64  1  0  0  0  0
 56 65  1  0  0  0  0
 57 65  1  0  0  0  0
 58 66  1  0  0  0  0
 59 66  1  0  0  0  0
 60 66  1  0  0  0  0
 61 78  1  0  0  0  0
 62 85  1  0  0  0  0
 63 66  1  0  0  0  0
 63 75  1  0  0  0  0
 64 78  1  0  0  0  0
 65 77  1  0  0  0  0
 67 69  1  0  0  0  0
M  CHG  2  77   1  78   1
M  ISO  4  37 100  62 101  76 100  85 101
M  END
> <Batch ID>
0178

> <Smiles>
CNC(C)C(=O)NC(C(=O)N1Cc2cc([101O:1][101CH2:1]c3cc4c(c(C)n3)C([100NH:0][100C:0](=O)N3CCCC(n5nc(-c6ccc(Oc7ccc(F)cc7F)cc6)c(C(N)=O)c5N)C3)N(C(C)C)CC4C)ccc2CC1C(=O)NC1CCCc2ccccc21)C(C)(C)C

> <Shape>
0.312

> <Color>
0.097

> <Negative vol penalty>
0.000

$$$$

  -OEChem-04052322553D

 85 94  0     1  0  0  0  0  0999 V2000
  -24.7173  -35.3461   22.0729 C   0  0  0  0  0  0  0  0  0  0  0  0
  -25.4816  -34.1904   21.9483 C   0  0  0  0  0  0  0  0  0  0  0  0
  -24.6046  -13.7373   19.4836 C   0  0  0  0  0  0  0  0  0  0  0  0
  -25.3584  -14.5086   21.6455 C   0  0  0  0  0  0  0  0  0  0  0  0
  -23.4799  -35.2965   22.7135 C   0  0  0  0  0  0  0  0  0  0  0  0
  -25.0095  -32.9845   22.4653 C   0  0  0  0  0  0  0  0  0  0  0  0
  -25.6439  -29.1155   19.2601 C   0  0  0  0  0  0  0  0  0  0  0  0
  -33.1110  -25.3576   18.9738 C   0  0  0  0  0  0  0  0  0  0  0  0
  -24.7266  -12.4156   19.9125 C   0  0  0  0  0  0  0  0  0  0  0  0
  -25.4804  -13.1869   22.0745 C   0  0  0  0  0  0  0  0  0  0  0  0
  -26.9226  -28.5674   19.1689 C   0  0  0  0  0  0  0  0  0  0  0  0
  -24.4948   -8.8453   20.5562 C   0  0  0  0  0  0  0  0  0  0  0  0
  -23.4536   -7.9672   20.2554 C   0  0  0  0  0  0  0  0  0  0  0  0
  -33.0835  -26.6720   19.4398 C   0  0  0  0  0  0  0  0  0  0  0  0
  -26.2484  -26.7672   20.6263 C   0  0  0  0  0  0  0  0  0  0  0  0
  -21.9207   -9.3576   21.5020 C   0  0  0  0  0  0  0  0  0  0  0  0
  -24.9205  -14.7838   20.3500 C   0  0  0  0  0  0  0  0  0  0  0  0
  -23.6596  -16.9750   20.0089 C   0  0  0  0  0  0  0  0  0  0  0  0
  -22.9880  -34.0874   23.2301 C   0  0  0  0  0  0  0  0  0  0  0  0
  -24.6594  -28.4984   20.0452 C   0  0  0  0  0  0  0  0  0  0  0  0
  -23.7649  -32.9189   23.1146 C   0  0  0  0  0  0  0  0  0  0  0  0
  -31.9418  -24.7597   18.5034 C   0  0  0  0  0  0  0  0  0  0  0  0
  -24.9573  -27.3081   20.7238 C   0  0  0  0  0  0  0  0  0  0  0  0
  -30.7451  -25.4763   18.4991 C   0  0  0  0  0  0  0  0  0  0  0  0
  -30.7175  -26.7907   18.9651 C   0  0  0  0  0  0  0  0  0  0  0  0
  -25.1645  -12.1405   21.2080 C   0  0  0  0  0  0  0  0  0  0  0  0
  -27.2259  -27.3946   19.8543 C   0  0  0  0  0  0  0  0  0  0  0  0
  -24.2489   -9.9796   21.3299 C   0  0  0  0  0  0  0  0  0  0  0  0
  -22.1666   -8.2233   20.7283 C   0  0  0  0  0  0  0  0  0  0  0  0
  -22.9619  -10.2358   21.8028 C   0  0  0  0  0  0  0  0  0  0  0  0
  -31.8867  -27.3886   19.4354 C   0  0  0  0  0  0  0  0  0  0  0  0
  -24.7952  -16.1492   19.9073 C   0  0  0  0  0  0  0  0  0  0  0  0
  -24.0503  -18.1665   19.4485 C   0  0  0  0  0  0  0  0  0  0  0  0
  -32.8050  -21.6309   18.8402 C   0  0  0  0  0  0  0  0  0  0  0  0
  -22.3672  -16.6904   20.5606 C   0  0  0  0  0  0  0  0  0  0  0  0
  -22.9704  -29.3471   22.6008 C   0  0  0  0  0  0  0  0  0  0  0  0
  -21.4554  -26.5319   22.0515 C   0  0  0  0  0  0  0  0  0  0  0  0
  -21.5567  -23.4052   20.6877 C   0  0  0  0  0  0  0  0  0  0  0  0
  -29.4988  -20.5352   18.8972 C   0  0  0  0  0  0  0  0  0  0  0  0
  -21.6661  -34.0926   23.9560 C   0  0  0  0  0  0  0  0  0  0  0  0
  -23.2771  -29.0878   20.1119 C   0  0  0  0  0  0  0  0  0  0  0  0
  -23.9299  -26.5957   21.5638 C   0  0  0  0  0  0  0  0  0  0  0  0
  -21.0697  -32.7002   24.1454 C   0  0  0  0  0  0  0  0  0  0  0  0
  -27.0229  -19.9946   16.2034 C   0  0  0  0  0  0  0  0  0  0  0  0
  -22.1315  -31.7290   24.6514 C   0  0  0  0  0  0  0  0  0  0  0  0
  -26.1028  -18.9675   16.8553 C   0  0  0  0  0  0  0  0  0  0  0  0
  -28.4748  -19.8338   16.6524 C   0  0  0  0  0  0  0  0  0  0  0  0
  -27.7197  -18.8208   18.7874 C   0  0  0  0  0  0  0  0  0  0  0  0
  -23.2758  -31.5869   23.6405 C   0  0  1  0  0  0  0  0  0  0  0  0
  -31.9979  -23.2932   17.9913 C   0  0  2  0  0  0  0  0  0  0  0  0
  -31.3779  -22.2021   18.8706 C   0  0  1  0  0  0  0  0  0  0  0  0
  -22.5020  -28.6545   21.3524 C   0  0  1  0  0  0  0  0  0  0  0  0
  -26.2490  -19.0039   18.3838 C   0  0  2  0  0  0  0  0  0  0  0  0
  -29.4946  -24.8275   17.9959 C   0  0  0  0  0  0  0  0  0  0  0  0
  -20.1818  -21.3213   20.4338 C   0  0  0  0  0  0  0  0  0  0  0  0
  -22.0470  -25.7913   24.9517 C   0  0  0  0  0  0  0  0  0  0  0  0
  -21.5254  -23.4109   24.3772 C   0  0  0  0  0  0  0  0  0  0  0  0
  -19.7604  -25.1602   24.1595 C   0  0  0  0  0  0  0  0  0  0  0  0
  -21.5618  -23.6221   17.7361 C   0  0  0  0  0  0  0  0  0  0  0  0
  -29.4226  -27.5486   18.9562 C   0  0  0  0  0  0  0  0  0  1  0  0
  -21.6611  -25.1031   22.4933 C   0  0  1  0  0  0  0  0  0  0  0  0
  -20.5680  -22.6550   19.8135 C   0  0  2  0  0  0  0  0  0  0  0  0
  -21.2686  -24.8806   23.9813 C   0  0  0  0  0  0  0  0  0  0  0  0
  -25.8297  -16.7640   19.3278 N   0  0  0  0  0  0  0  0  0  0  0  0
  -25.3456  -17.9888   19.0601 N   0  0  0  0  0  0  0  0  0  0  0  0
  -22.5947  -27.2147   21.6025 N   0  0  0  0  0  0  0  0  0  0  0  0
  -28.5907  -19.7953   18.1189 N   0  0  0  0  0  0  0  0  0  0  0  0
  -23.4088  -19.3384   19.2549 N   0  0  0  0  0  0  0  0  0  0  0  0
  -22.1349  -15.4160   21.0955 N   0  0  0  0  0  0  0  0  0  0  0  0
  -22.8803  -30.7250   22.5473 N   0  0  0  0  0  0  0  0  0  0  0  0
  -20.9203  -24.2733   21.5494 N   0  0  0  0  0  0  0  0  0  0  0  0
  -30.3631  -21.3687   18.1940 N   0  0  0  0  0  0  0  0  0  0  0  0
  -21.1578  -22.3952   18.4698 N   0  3  0  0  0  0  0  0  0  0  0  0
  -33.3804  -20.6479   19.2501 O   0  0  0  0  0  0  0  0  0  0  0  0
  -21.4405  -17.5359   20.5638 O   0  0  0  0  0  0  0  0  0  0  0  0
  -23.3817  -28.6807   23.5434 O   0  0  0  0  0  0  0  0  0  0  0  0
  -20.3242  -27.0218   22.0961 O   0  0  0  0  0  0  0  0  0  0  0  0
  -22.7718  -23.2352   20.6160 O   0  0  0  0  0  0  0  0  0  0  0  0
  -29.5463  -20.4581   20.1296 O   0  0  0  0  0  0  0  0  0  0  0  0
  -33.3110  -22.6791   18.1397 O   0  0  0  0  0  0  0  0  0  0  0  0
  -25.2834  -10.8509   21.6269 O   0  0  0  0  0  0  0  0  0  0  0  0
  -28.4733  -26.8579   19.7675 O   0  0  0  0  0  0  0  0  0  1  0  0
  -21.1666   -7.3807   20.4381 F   0  0  0  0  0  0  0  0  0  0  0  0
  -22.7193  -11.3245   22.5455 F   0  0  0  0  0  0  0  0  0  0  0  0
  -31.8958  -29.0131   20.0204 Cl  0  0  0  0  0  0  0  0  0  0  0  0
  1  2  1  0  0  0  0
  1  5  2  0  0  0  0
  2  6  2  0  0  0  0
  3  9  2  0  0  0  0
  3 17  1  0  0  0  0
  4 10  1  0  0  0  0
  4 17  2  0  0  0  0
  5 19  1  0  0  0  0
  6 21  1  0  0  0  0
  7 11  2  0  0  0  0
  7 20  1  0  0  0  0
  8 14  1  0  0  0  0
  8 22  2  0  0  0  0
  9 26  1  0  0  0  0
 10 26  2  0  0  0  0
 11 27  1  0  0  0  0
 12 13  2  0  0  0  0
 12 28  1  0  0  0  0
 13 29  1  0  0  0  0
 14 31  2  0  0  0  0
 15 23  1  0  0  0  0
 15 27  2  0  0  0  0
 16 29  2  0  0  0  0
 16 30  1  0  0  0  0
 17 32  1  0  0  0  0
 18 32  1  0  0  0  0
 18 33  2  0  0  0  0
 18 35  1  0  0  0  0
 19 21  2  0  0  0  0
 19 40  1  0  0  0  0
 20 23  2  0  0  0  0
 20 41  1  0  0  0  0
 21 49  1  0  0  0  0
 22 24  1  0  0  0  0
 22 50  1  0  0  0  0
 23 42  1  0  0  0  0
 24 25  2  0  0  0  0
 24 54  1  0  0  0  0
 25 31  1  0  0  0  0
 25 60  1  0  0  0  0
 26 81  1  0  0  0  0
 27 82  1  0  0  0  0
 28 30  2  0  0  0  0
 28 81  1  0  0  0  0
 29 83  1  0  0  0  0
 30 84  1  0  0  0  0
 31 85  1  0  0  0  0
 32 64  2  0  0  0  0
 33 65  1  0  0  0  0
 33 68  1  0  0  0  0
 34 51  1  0  0  0  0
 34 74  2  0  0  0  0
 34 80  1  0  0  0  0
 35 69  1  0  0  0  0
 35 75  2  0  0  0  0
 36 52  1  0  0  0  0
 36 70  1  0  0  0  0
 36 76  2  0  0  0  0
 37 61  1  0  0  0  0
 37 66  1  0  0  0  0
 37 77  2  0  0  0  0
 38 62  1  0  0  0  0
 38 71  1  0  0  0  0
 38 78  2  0  0  0  0
 39 67  1  0  0  0  0
 39 72  1  0  0  0  0
 39 79  2  0  0  0  0
 40 43  1  0  0  0  0
 41 52  1  0  0  0  0
 42 66  1  0  0  0  0
 43 45  1  0  0  0  0
 44 46  1  0  0  0  0
 44 47  1  0  0  0  0
 45 49  1  0  0  0  0
 46 53  1  0  0  0  0
 47 67  1  0  0  0  0
 48 53  1  0  0  0  0
 48 67  1  0  0  0  0
 49 70  1  0  0  0  0
 50 51  1  0  0  0  0
 50 80  1  0  0  0  0
 51 72  1  0  0  0  0
 52 66  1  0  0  0  0
 53 65  1  0  0  0  0
 55 62  1  0  0  0  0
 56 63  1  0  0  0  0
 57 63  1  0  0  0  0
 58 63  1  0  0  0  0
 59 73  1  0  0  0  0
 60 82  1  0  0  0  0
 61 63  1  0  0  0  0
 61 71  1  0  0  0  0
 62 73  1  0  0  0  0
 64 65  1  0  0  0  0
M  CHG  1  73   1
M  ISO  4  39 100  60 101  72 100  82 101
M  END
> <Batch ID>
0178

> <Smiles>
CNC(C)C(=O)NC(C(=O)N1Cc2cc([101O:1][101CH2:1]c3c(Cl)ccc(C4OC(=O)C4[100NH:0][100C:0](=O)N4CCCC(n5nc(-c6ccc(Oc7ccc(F)cc7F)cc6)c(C(N)=O)c5N)C4)c3C)ccc2CC1C(=O)NC1CCCc2ccccc21)C(C)(C)C

> <Shape>
0.219

> <Color>
0.103

> <Negative vol penalty>
0.000

$$$$

  -OEChem-04052322553D

 84 93  0     1  0  0  0  0  0999 V2000
  -32.0943  -29.8968   22.7791 C   0  0  0  0  0  0  0  0  0  0  0  0
  -31.8935  -28.6439   23.3494 C   0  0  0  0  0  0  0  0  0  0  0  0
  -23.0777   -9.8649   19.9409 C   0  0  0  0  0  0  0  0  0  0  0  0
  -23.8339   -9.8761   22.2355 C   0  0  0  0  0  0  0  0  0  0  0  0
  -31.0159  -30.7633   22.6052 C   0  0  0  0  0  0  0  0  0  0  0  0
  -30.6141  -28.2571   23.7470 C   0  0  0  0  0  0  0  0  0  0  0  0
  -29.4913  -23.5232   22.3419 C   0  0  0  0  0  0  0  0  0  0  0  0
  -22.3346   -8.7114   20.1915 C   0  0  0  0  0  0  0  0  0  0  0  0
  -23.0907   -8.7227   22.4861 C   0  0  0  0  0  0  0  0  0  0  0  0
  -30.0329  -22.4878   23.1025 C   0  0  0  0  0  0  0  0  0  0  0  0
  -19.8624   -7.9226   23.0847 C   0  0  0  0  0  0  0  0  0  0  0  0
  -19.1036   -7.8837   24.2545 C   0  0  0  0  0  0  0  0  0  0  0  0
  -27.9311  -22.2481   24.2619 C   0  0  0  0  0  0  0  0  0  0  0  0
  -20.3458   -5.9486   24.9959 C   0  0  0  0  0  0  0  0  0  0  0  0
  -23.8274  -10.4473   20.9629 C   0  0  0  0  0  0  0  0  0  0  0  0
  -24.1670  -12.9726   20.8396 C   0  0  0  0  0  0  0  0  0  0  0  0
  -29.7211  -30.3831   22.9920 C   0  0  0  0  0  0  0  0  0  0  0  0
  -28.1666  -23.9367   22.5435 C   0  0  0  0  0  0  0  0  0  0  0  0
  -29.5176  -29.1197   23.5793 C   0  0  0  0  0  0  0  0  0  0  0  0
  -27.3742  -23.2872   23.5008 C   0  0  0  0  0  0  0  0  0  0  0  0
  -31.5205  -19.3411   25.4445 C   0  0  0  0  0  0  0  0  0  0  0  0
  -22.3411   -8.1403   21.4641 C   0  0  0  0  0  0  0  0  0  0  0  0
  -29.2537  -21.8520   24.0646 C   0  0  0  0  0  0  0  0  0  0  0  0
  -20.8628   -6.9744   22.8705 C   0  0  0  0  0  0  0  0  0  0  0  0
  -19.3453   -6.8968   25.2100 C   0  0  0  0  0  0  0  0  0  0  0  0
  -21.1045   -5.9875   23.8260 C   0  0  0  0  0  0  0  0  0  0  0  0
  -24.5958  -11.6385   20.7046 C   0  0  0  0  0  0  0  0  0  0  0  0
  -31.7735  -19.5223   26.7889 C   0  0  0  0  0  0  0  0  0  0  0  0
  -31.6436  -18.0465   24.9830 C   0  0  0  0  0  0  0  0  0  0  0  0
  -25.2590  -13.7225   20.4769 C   0  0  0  0  0  0  0  0  0  0  0  0
  -32.2071  -17.3071   27.0573 C   0  0  0  0  0  0  0  0  0  0  0  0
  -22.8953  -13.4878   21.2557 C   0  0  0  0  0  0  0  0  0  0  0  0
  -26.7770  -26.6443   23.4611 C   0  0  0  0  0  0  0  0  0  0  0  0
  -24.0536  -25.0310   22.7520 C   0  0  0  0  0  0  0  0  0  0  0  0
  -22.4836  -22.0255   22.3659 C   0  0  0  0  0  0  0  0  0  0  0  0
  -30.7342  -14.7575   20.6548 C   0  0  0  0  0  0  0  0  0  0  0  0
  -28.5945  -31.3721   22.8274 C   0  0  0  0  0  0  0  0  0  0  0  0
  -27.5890  -25.0373   21.6964 C   0  0  0  0  0  0  0  0  0  0  0  0
  -25.9403  -23.6799   23.7419 C   0  0  0  0  0  0  0  0  0  0  0  0
  -27.2089  -30.7400   22.9316 C   0  0  0  0  0  0  0  0  0  0  0  0
  -29.6122  -12.3574   18.2901 C   0  0  0  0  0  0  0  0  0  0  0  0
  -27.1374  -29.8061   24.1356 C   0  0  0  0  0  0  0  0  0  0  0  0
  -28.1732  -12.0640   18.7183 C   0  0  0  0  0  0  0  0  0  0  0  0
  -30.5246  -12.5815   19.4940 C   0  0  0  0  0  0  0  0  0  0  0  0
  -28.6193  -13.3128   20.8729 C   0  0  0  0  0  0  0  0  0  0  0  0
  -31.9961  -16.7850   22.8347 C   0  0  0  0  0  0  0  0  0  0  0  0
  -30.1305  -17.7405   22.9960 C   0  0  0  0  0  0  0  0  0  0  0  0
  -28.1407  -28.6542   24.0007 C   0  0  1  0  0  0  0  0  0  0  0  0
  -26.3873  -25.7203   22.3421 C   0  0  1  0  0  0  0  0  0  0  0  0
  -27.6482  -13.1355   19.6930 C   0  0  2  0  0  0  0  0  0  0  0  0
  -30.8151  -16.9549   21.8687 C   0  0  0  0  0  0  0  0  0  0  0  0
  -31.6719  -20.8801   27.4024 C   0  0  0  0  0  0  0  0  0  0  0  0
  -32.5883  -16.1776   27.9529 C   0  0  0  0  0  0  0  0  0  0  0  0
  -20.2468  -21.0272   21.8206 C   0  0  0  0  0  0  0  0  0  0  0  0
  -23.0687  -25.7105   25.5588 C   0  0  0  0  0  0  0  0  0  0  0  0
  -21.3197  -23.9380   25.2987 C   0  0  0  0  0  0  0  0  0  0  0  0
  -21.3339  -25.9078   23.7683 C   0  0  0  0  0  0  0  0  0  0  0  0
  -23.5472  -20.6648   19.9626 C   0  0  0  0  0  0  0  0  0  0  0  0
  -31.1374  -20.4842   24.5512 C   0  0  0  0  0  0  0  0  0  1  0  0
  -23.1144  -24.1305   23.5174 C   0  0  1  0  0  0  0  0  0  0  0  0
  -21.5837  -21.4932   21.2654 C   0  0  2  0  0  0  0  0  0  0  0  0
  -22.2368  -24.9154   24.5328 C   0  0  0  0  0  0  0  0  0  0  0  0
  -25.8614  -11.5433   20.2885 N   0  0  0  0  0  0  0  0  0  0  0  0
  -32.1204  -18.5240   27.6275 N   0  0  0  0  0  0  0  0  0  0  0  0
  -31.9865  -17.0015   25.7644 N   0  0  0  0  0  0  0  0  0  0  0  0
  -26.2372  -12.8270   20.1588 N   0  0  0  0  0  0  0  0  0  0  0  0
  -31.3966  -17.7961   23.6105 N   0  0  0  0  0  0  0  0  0  0  0  0
  -25.4231  -24.7657   22.8928 N   0  0  0  0  0  0  0  0  0  0  0  0
  -29.9704  -13.6138   20.3737 N   0  0  0  0  0  0  0  0  0  0  0  0
  -25.4682  -15.0541   20.4021 N   0  0  0  0  0  0  0  0  0  0  0  0
  -21.8838  -12.5781   21.5927 N   0  0  0  0  0  0  0  0  0  0  0  0
  -27.6410  -27.6538   23.0820 N   0  0  0  0  0  0  0  0  0  0  0  0
  -22.3532  -23.3899   22.5171 N   0  0  0  0  0  0  0  0  0  0  0  0
  -30.1388  -15.6972   21.4899 N   0  0  0  0  0  0  0  0  0  0  0  0
  -22.2333  -20.3424   20.5764 N   0  3  0  0  0  0  0  0  0  0  0  0
  -22.6578  -14.7182   21.3108 O   0  0  0  0  0  0  0  0  0  0  0  0
  -26.3259  -26.4562   24.5848 O   0  0  0  0  0  0  0  0  0  0  0  0
  -23.5889  -25.9320   22.0492 O   0  0  0  0  0  0  0  0  0  0  0  0
  -23.2251  -21.3028   23.0280 O   0  0  0  0  0  0  0  0  0  0  0  0
  -31.8653  -14.9393   20.1913 O   0  0  0  0  0  0  0  0  0  0  0  0
  -21.6158   -7.0149   21.7090 O   0  0  0  0  0  0  0  0  0  0  0  0
  -29.7801  -20.8416   24.8088 O   0  0  0  0  0  0  0  0  0  1  0  0
  -18.6176   -6.8605   26.3340 F   0  0  0  0  0  0  0  0  0  0  0  0
  -22.0651   -5.0746   23.6264 F   0  0  0  0  0  0  0  0  0  0  0  0
  1  2  1  0  0  0  0
  1  5  2  0  0  0  0
  2  6  2  0  0  0  0
  3  8  2  0  0  0  0
  3 15  1  0  0  0  0
  4  9  1  0  0  0  0
  4 15  2  0  0  0  0
  5 17  1  0  0  0  0
  6 19  1  0  0  0  0
  7 10  2  0  0  0  0
  7 18  1  0  0  0  0
  8 22  1  0  0  0  0
  9 22  2  0  0  0  0
 10 23  1  0  0  0  0
 11 12  2  0  0  0  0
 11 24  1  0  0  0  0
 12 25  1  0  0  0  0
 13 20  1  0  0  0  0
 13 23  2  0  0  0  0
 14 25  2  0  0  0  0
 14 26  1  0  0  0  0
 15 27  1  0  0  0  0
 16 27  1  0  0  0  0
 16 30  2  0  0  0  0
 16 32  1  0  0  0  0
 17 19  2  0  0  0  0
 17 37  1  0  0  0  0
 18 20  2  0  0  0  0
 18 38  1  0  0  0  0
 19 48  1  0  0  0  0
 20 39  1  0  0  0  0
 21 28  1  0  0  0  0
 21 29  2  0  0  0  0
 21 59  1  0  0  0  0
 22 81  1  0  0  0  0
 23 82  1  0  0  0  0
 24 26  2  0  0  0  0
 24 81  1  0  0  0  0
 25 83  1  0  0  0  0
 26 84  1  0  0  0  0
 27 63  2  0  0  0  0
 28 52  1  0  0  0  0
 28 64  2  0  0  0  0
 29 65  1  0  0  0  0
 29 67  1  0  0  0  0
 30 66  1  0  0  0  0
 30 70  1  0  0  0  0
 31 53  1  0  0  0  0
 31 64  1  0  0  0  0
 31 65  2  0  0  0  0
 32 71  1  0  0  0  0
 32 76  2  0  0  0  0
 33 49  1  0  0  0  0
 33 72  1  0  0  0  0
 33 77  2  0  0  0  0
 34 60  1  0  0  0  0
 34 68  1  0  0  0  0
 34 78  2  0  0  0  0
 35 61  1  0  0  0  0
 35 73  1  0  0  0  0
 35 79  2  0  0  0  0
 36 69  1  0  0  0  0
 36 74  1  0  0  0  0
 36 80  2  0  0  0  0
 37 40  1  0  0  0  0
 38 49  1  0  0  0  0
 39 68  1  0  0  0  0
 40 42  1  0  0  0  0
 41 43  1  0  0  0  0
 41 44  1  0  0  0  0
 42 48  1  0  0  0  0
 43 50  1  0  0  0  0
 44 69  1  0  0  0  0
 45 50  1  0  0  0  0
 45 69  1  0  0  0  0
 46 51  1  0  0  0  0
 46 67  1  0  0  0  0
 47 51  1  0  0  0  0
 47 67  1  0  0  0  0
 48 72  1  0  0  0  0
 49 68  1  0  0  0  0
 50 66  1  0  0  0  0
 51 74  1  0  0  0  0
 54 61  1  0  0  0  0
 55 62  1  0  0  0  0
 56 62  1  0  0  0  0
 57 62  1  0  0  0  0
 58 75  1  0  0  0  0
 59 82  1  0  0  0  0
 60 62  1  0  0  0  0
 60 73  1  0  0  0  0
 61 75  1  0  0  0  0
 63 66  1  0  0  0  0
M  CHG  1  75   1
M  ISO  4  36 100  59 101  74 100  82 101
M  END
> <Batch ID>
0178

> <Smiles>
CNC(C)C(=O)NC(C(=O)N1Cc2cc([101O:1][101CH2:1]c3c(C)nc(C)nc3N3CC([100NH:0][100C:0](=O)N4CCCC(n5nc(-c6ccc(Oc7ccc(F)cc7F)cc6)c(C(N)=O)c5N)C4)C3)ccc2CC1C(=O)NC1CCCc2ccccc21)C(C)(C)C

> <Shape>
0.193

> <Color>
0.188

> <Negative vol penalty>
0.000

$$$$

  -OEChem-04052322553D

 83 92  0     1  0  0  0  0  0999 V2000
  -24.3337  -33.3235   28.4453 C   0  0  0  0  0  0  0  0  0  0  0  0
  -25.2114  -32.8102   27.4957 C   0  0  0  0  0  0  0  0  0  0  0  0
  -26.6522  -13.0996   19.0437 C   0  0  0  0  0  0  0  0  0  0  0  0
  -26.4912  -12.8970   21.4458 C   0  0  0  0  0  0  0  0  0  0  0  0
  -23.0541  -32.7848   28.5734 C   0  0  0  0  0  0  0  0  0  0  0  0
  -24.8103  -31.7572   26.6743 C   0  0  0  0  0  0  0  0  0  0  0  0
  -26.4021  -30.8316   20.8335 C   0  0  0  0  0  0  0  0  0  0  0  0
  -25.3554  -12.6024   18.9148 C   0  0  0  0  0  0  0  0  0  0  0  0
  -25.1943  -12.3999   21.3169 C   0  0  0  0  0  0  0  0  0  0  0  0
  -27.3659  -30.0162   20.2419 C   0  0  0  0  0  0  0  0  0  0  0  0
  -23.7196   -9.4635   20.5207 C   0  0  0  0  0  0  0  0  0  0  0  0
  -23.3757   -8.3456   21.2806 C   0  0  0  0  0  0  0  0  0  0  0  0
  -25.6914  -28.3213   19.8642 C   0  0  0  0  0  0  0  0  0  0  0  0
  -21.6298   -9.6179   22.3624 C   0  0  0  0  0  0  0  0  0  0  0  0
  -27.2202  -13.2469   20.3092 C   0  0  0  0  0  0  0  0  0  0  0  0
  -29.7396  -13.2052   19.9116 C   0  0  0  0  0  0  0  0  0  0  0  0
  -22.6338  -31.7310   27.7467 C   0  0  0  0  0  0  0  0  0  0  0  0
  -25.0758  -30.3928   20.9549 C   0  0  0  0  0  0  0  0  0  0  0  0
  -23.5243  -31.2030   26.7924 C   0  0  0  0  0  0  0  0  0  0  0  0
  -24.7122  -29.1340   20.4554 C   0  0  0  0  0  0  0  0  0  0  0  0
  -24.6264  -12.2526   20.0514 C   0  0  0  0  0  0  0  0  0  0  0  0
  -27.0113  -28.7597   19.7597 C   0  0  0  0  0  0  0  0  0  0  0  0
  -23.0187  -10.6588   20.6817 C   0  0  0  0  0  0  0  0  0  0  0  0
  -22.3308   -8.4227   22.2014 C   0  0  0  0  0  0  0  0  0  0  0  0
  -21.9738  -10.7359   21.6025 C   0  0  0  0  0  0  0  0  0  0  0  0
  -28.5600  -13.7599   20.4430 C   0  0  0  0  0  0  0  0  0  0  0  0
  -30.7345  -14.0610   20.3170 C   0  0  0  0  0  0  0  0  0  0  0  0
  -29.9201  -12.0221   19.1219 C   0  0  0  0  0  0  0  0  0  0  0  0
  -23.1182  -29.8159   23.3919 C   0  0  0  0  0  0  0  0  0  0  0  0
  -20.9386  -29.3751   21.0302 C   0  0  0  0  0  0  0  0  0  0  0  0
  -20.3225  -28.6038   17.7633 C   0  0  0  0  0  0  0  0  0  0  0  0
  -30.7630  -19.8534   21.8331 C   0  0  0  0  0  0  0  0  0  0  0  0
  -21.2576  -31.1500   27.9543 C   0  0  0  0  0  0  0  0  0  0  0  0
  -24.0424  -31.2951   21.5716 C   0  0  0  0  0  0  0  0  0  0  0  0
  -23.2976  -28.6245   20.5432 C   0  0  0  0  0  0  0  0  0  0  0  0
  -20.7801  -30.2841   26.7913 C   0  0  0  0  0  0  0  0  0  0  0  0
  -31.8473  -17.1123   23.8301 C   0  0  0  0  0  0  0  0  0  0  0  0
  -21.8790  -29.3188   26.3582 C   0  0  0  0  0  0  0  0  0  0  0  0
  -31.2342  -15.8923   23.1405 C   0  0  0  0  0  0  0  0  0  0  0  0
  -28.3648  -24.7625   20.8532 C   0  0  0  0  0  0  0  0  0  0  0  0
  -27.7212  -26.1504   20.7777 C   0  0  0  0  0  0  0  0  0  0  0  0
  -29.9700  -21.2273   18.4042 C   0  0  0  0  0  0  0  0  0  0  0  0
  -30.9151  -18.3205   23.7732 C   0  0  0  0  0  0  0  0  0  0  0  0
  -29.8362  -17.4602   21.7312 C   0  0  0  0  0  0  0  0  0  0  0  0
  -29.8996  -22.6952   18.0130 C   0  0  0  0  0  0  0  0  0  0  0  0
  -29.8219  -22.4251   20.4430 C   0  0  0  0  0  0  0  0  0  0  0  0
  -23.1174  -30.0775   25.8662 C   0  0  1  0  0  0  0  0  0  0  0  0
  -22.8305  -30.5381   22.1060 C   0  0  1  0  0  0  0  0  0  0  0  0
  -30.7629  -16.2325   21.7138 C   0  0  2  0  0  0  0  0  0  0  0  0
  -30.5469  -21.2543   19.8092 C   0  0  1  0  0  0  0  0  0  0  0  0
  -28.6653  -24.3892   19.4044 C   0  0  1  0  0  0  0  0  0  0  0  0
  -27.7687  -26.5630   19.3024 C   0  0  2  0  0  0  0  0  0  1  0  0
  -28.9173  -25.7295   18.6885 C   0  0  0  0  0  0  0  0  0  0  0  0
  -28.7607  -25.6006   17.1680 C   0  0  0  0  0  0  0  0  0  0  0  0
  -30.2985  -26.3472   18.9860 C   0  0  0  0  0  0  0  0  0  0  0  0
  -18.4391  -28.2852   16.1359 C   0  0  0  0  0  0  0  0  0  0  0  0
  -20.3301  -26.6546   22.2707 C   0  0  0  0  0  0  0  0  0  0  0  0
  -19.1922  -26.0130   20.1349 C   0  0  0  0  0  0  0  0  0  0  0  0
  -18.3185  -27.9178   21.4881 C   0  0  0  0  0  0  0  0  0  0  0  0
  -21.2880  -30.8051   16.0368 C   0  0  0  0  0  0  0  0  0  0  0  0
  -20.4793  -28.1970   20.2055 C   0  0  1  0  0  0  0  0  0  0  0  0
  -19.4418  -29.2679   16.7204 C   0  0  2  0  0  0  0  0  0  0  0  0
  -19.6072  -27.2041   21.0247 C   0  0  0  0  0  0  0  0  0  0  0  0
  -28.7830  -14.8812   21.1335 N   0  0  0  0  0  0  0  0  0  0  0  0
  -30.1144  -15.0380   21.0388 N   0  0  0  0  0  0  0  0  0  0  0  0
  -22.3247  -29.5411   21.1603 N   0  0  0  0  0  0  0  0  0  0  0  0
  -30.5063  -18.5908   22.3927 N   0  0  0  0  0  0  0  0  0  0  0  0
  -32.0704  -14.0655   20.1231 N   0  0  0  0  0  0  0  0  0  0  0  0
  -30.1554  -10.8080   19.7815 N   0  0  0  0  0  0  0  0  0  0  0  0
  -22.9041  -30.5773   24.5249 N   0  0  0  0  0  0  0  0  0  0  0  0
  -19.8105  -28.7541   19.0348 N   0  0  0  0  0  0  0  0  0  0  0  0
  -30.3488  -20.0238   20.5178 N   0  0  0  0  0  0  0  0  0  0  0  0
  -29.7995  -23.4496   19.3272 N   0  3  2  0  0  0  0  0  0  0  0  0
  -20.2736  -29.8081   15.6080 N   0  3  0  0  0  0  0  0  0  0  0  0
  -29.8903  -12.0439   17.8681 O   0  0  0  0  0  0  0  0  0  0  0  0
  -23.5042  -28.6533   23.3585 O   0  0  0  0  0  0  0  0  0  0  0  0
  -20.0985  -30.1246   21.5342 O   0  0  0  0  0  0  0  0  0  0  0  0
  -21.3589  -28.0078   17.4782 O   0  0  0  0  0  0  0  0  0  0  0  0
  -31.3247  -20.7597   22.4576 O   0  0  0  0  0  0  0  0  0  0  0  0
  -23.3609  -11.7676   19.9260 O   0  0  0  0  0  0  0  0  0  0  0  0
  -27.9502  -27.9615   19.1824 O   0  0  0  0  0  0  0  0  0  1  0  0
  -21.9996   -7.3486   22.9299 F   0  0  0  0  0  0  0  0  0  0  0  0
  -21.2961  -11.8811   21.7608 F   0  0  0  0  0  0  0  0  0  0  0  0
  1  2  1  0  0  0  0
  1  5  2  0  0  0  0
  2  6  2  0  0  0  0
  3  8  2  0  0  0  0
  3 15  1  0  0  0  0
  4  9  1  0  0  0  0
  4 15  2  0  0  0  0
  5 17  1  0  0  0  0
  6 19  1  0  0  0  0
  7 10  2  0  0  0  0
  7 18  1  0  0  0  0
  8 21  1  0  0  0  0
  9 21  2  0  0  0  0
 10 22  1  0  0  0  0
 11 12  2  0  0  0  0
 11 23  1  0  0  0  0
 12 24  1  0  0  0  0
 13 20  1  0  0  0  0
 13 22  2  0  0  0  0
 14 24  2  0  0  0  0
 14 25  1  0  0  0  0
 15 26  1  0  0  0  0
 16 26  1  0  0  0  0
 16 27  2  0  0  0  0
 16 28  1  0  0  0  0
 17 19  2  0  0  0  0
 17 33  1  0  0  0  0
 18 20  2  0  0  0  0
 18 34  1  0  0  0  0
 19 47  1  0  0  0  0
 20 35  1  0  0  0  0
 21 80  1  0  0  0  0
 22 81  1  0  0  0  0
 23 25  2  0  0  0  0
 23 80  1  0  0  0  0
 24 82  1  0  0  0  0
 25 83  1  0  0  0  0
 26 64  2  0  0  0  0
 27 65  1  0  0  0  0
 27 68  1  0  0  0  0
 28 69  1  0  0  0  0
 28 75  2  0  0  0  0
 29 48  1  0  0  0  0
 29 70  1  0  0  0  0
 29 76  2  0  0  0  0
 30 61  1  0  0  0  0
 30 66  1  0  0  0  0
 30 77  2  0  0  0  0
 31 62  1  0  0  0  0
 31 71  1  0  0  0  0
 31 78  2  0  0  0  0
 32 67  1  0  0  0  0
 32 72  1  0  0  0  0
 32 79  2  0  0  0  0
 33 36  1  0  0  0  0
 34 48  1  0  0  0  0
 35 66  1  0  0  0  0
 36 38  1  0  0  0  0
 37 39  1  0  0  0  0
 37 43  1  0  0  0  0
 38 47  1  0  0  0  0
 39 49  1  0  0  0  0
 40 41  1  0  0  0  0
 40 51  1  0  0  0  0
 41 52  1  0  0  0  0
 42 45  1  0  0  0  0
 42 50  1  0  0  0  0
 43 67  1  0  0  0  0
 44 49  1  0  0  0  0
 44 67  1  0  0  0  0
 45 73  1  0  0  0  0
 46 50  1  0  0  0  0
 46 73  1  0  0  0  0
 47 70  1  0  0  0  0
 48 66  1  0  0  0  0
 49 65  1  0  0  0  0
 50 72  1  0  0  0  0
 51 53  1  0  0  0  0
 51 73  1  0  0  0  0
 52 53  1  0  0  0  0
 52 81  1  0  0  0  0
 53 54  1  0  0  0  0
 53 55  1  0  0  0  0
 56 62  1  0  0  0  0
 57 63  1  0  0  0  0
 58 63  1  0  0  0  0
 59 63  1  0  0  0  0
 60 74  1  0  0  0  0
 61 63  1  0  0  0  0
 61 71  1  0  0  0  0
 62 74  1  0  0  0  0
 64 65  1  0  0  0  0
M  CHG  2  73   1  74   1
M  ISO  4  32 100  52 101  72 100  81 101
M  END
> <Batch ID>
0178

> <Smiles>
CNC(C)C(=O)NC(C(=O)N1Cc2cc([101O:1][101CH:1]3CCC(N4CCC([100NH:0][100C:0](=O)N5CCCC(n6nc(-c7ccc(Oc8ccc(F)cc8F)cc7)c(C(N)=O)c6N)C5)C4)C3(C)C)ccc2CC1C(=O)NC1CCCc2ccccc21)C(C)(C)C

> <Shape>
0.319

> <Color>
0.064

> <Negative vol penalty>
0.000

$$$$

  -OEChem-04052322553D

 86 95  0     1  0  0  0  0  0999 V2000
  -25.7439  -36.0143   23.4203 C   0  0  0  0  0  0  0  0  0  0  0  0
  -26.8001  -35.1317   23.2182 C   0  0  0  0  0  0  0  0  0  0  0  0
  -22.3621  -14.1396   21.3455 C   0  0  0  0  0  0  0  0  0  0  0  0
  -22.9664  -16.4779   21.2780 C   0  0  0  0  0  0  0  0  0  0  0  0
  -24.4534  -35.5228   23.6131 C   0  0  0  0  0  0  0  0  0  0  0  0
  -26.5666  -33.7569   23.2100 C   0  0  0  0  0  0  0  0  0  0  0  0
  -28.9013  -27.7159   20.1488 C   0  0  0  0  0  0  0  0  0  0  0  0
  -21.3606  -14.4252   22.2734 C   0  0  0  0  0  0  0  0  0  0  0  0
  -21.9648  -16.7635   22.2058 C   0  0  0  0  0  0  0  0  0  0  0  0
  -29.3528  -26.4412   20.4881 C   0  0  0  0  0  0  0  0  0  0  0  0
  -18.2277  -15.6970   22.2450 C   0  0  0  0  0  0  0  0  0  0  0  0
  -16.9760  -15.1140   22.0478 C   0  0  0  0  0  0  0  0  0  0  0  0
  -27.0695  -25.7095   20.7529 C   0  0  0  0  0  0  0  0  0  0  0  0
  -17.1533  -14.0092   24.1891 C   0  0  0  0  0  0  0  0  0  0  0  0
  -28.0329  -22.3712   18.8909 C   0  0  0  0  0  0  0  0  0  0  0  0
  -23.1651  -15.1660   20.8478 C   0  0  0  0  0  0  0  0  0  0  0  0
  -24.0823  -14.8616   18.4870 C   0  0  0  0  0  0  0  0  0  0  0  0
  -24.2024  -34.1418   23.5976 C   0  0  0  0  0  0  0  0  0  0  0  0
  -27.5285  -28.0003   20.1195 C   0  0  0  0  0  0  0  0  0  0  0  0
  -25.2718  -33.2465   23.4041 C   0  0  0  0  0  0  0  0  0  0  0  0
  -26.6031  -26.9879   20.4104 C   0  0  0  0  0  0  0  0  0  0  0  0
  -21.1619  -15.7371   22.7035 C   0  0  0  0  0  0  0  0  0  0  0  0
  -28.4370  -25.4386   20.7931 C   0  0  0  0  0  0  0  0  0  0  0  0
  -18.9423  -15.4360   23.4142 C   0  0  0  0  0  0  0  0  0  0  0  0
  -16.4388  -14.2701   23.0199 C   0  0  0  0  0  0  0  0  0  0  0  0
  -18.4051  -14.5922   24.3862 C   0  0  0  0  0  0  0  0  0  0  0  0
  -24.2002  -14.8715   19.8897 C   0  0  0  0  0  0  0  0  0  0  0  0
  -29.0215  -21.7116   19.5651 C   0  0  0  0  0  0  0  0  0  0  0  0
  -25.3366  -14.5254   18.0394 C   0  0  0  0  0  0  0  0  0  0  0  0
  -27.7861  -20.2034   18.5164 C   0  0  0  0  0  0  0  0  0  0  0  0
  -22.9411  -15.1323   17.6622 C   0  0  0  0  0  0  0  0  0  0  0  0
  -25.6148  -29.9856   21.7007 C   0  0  0  0  0  0  0  0  0  0  0  0
  -23.3991  -28.9089   19.5904 C   0  0  0  0  0  0  0  0  0  0  0  0
  -22.3798  -26.4388   17.4675 C   0  0  0  0  0  0  0  0  0  0  0  0
  -30.7577  -15.0890   20.1972 C   0  0  0  0  0  0  0  0  0  0  0  0
  -22.7984  -33.6561   23.8578 C   0  0  0  0  0  0  0  0  0  0  0  0
  -27.0569  -29.3732   19.7255 C   0  0  0  0  0  0  0  0  0  0  0  0
  -25.1180  -27.2364   20.3735 C   0  0  0  0  0  0  0  0  0  0  0  0
  -22.5747  -32.1990   23.4614 C   0  0  0  0  0  0  0  0  0  0  0  0
  -29.2555  -12.1029   19.3119 C   0  0  0  0  0  0  0  0  0  0  0  0
  -23.7141  -31.3249   23.9757 C   0  0  0  0  0  0  0  0  0  0  0  0
  -27.7715  -12.4580   19.2184 C   0  0  0  0  0  0  0  0  0  0  0  0
  -30.4160  -18.4711   18.7360 C   0  0  0  0  0  0  0  0  0  0  0  0
  -28.9123  -18.2936   20.7628 C   0  0  0  0  0  0  0  0  0  0  0  0
  -29.9059  -12.7845   20.5106 C   0  0  0  0  0  0  0  0  0  0  0  0
  -31.2631  -17.3295   19.2930 C   0  0  0  0  0  0  0  0  0  0  0  0
  -29.7939  -17.1583   21.2749 C   0  0  0  0  0  0  0  0  0  0  0  0
  -28.2736  -14.6399   20.4231 C   0  0  0  0  0  0  0  0  0  0  0  0
  -25.0546  -31.7494   23.3638 C   0  0  1  0  0  0  0  0  0  0  0  0
  -25.6516  -29.6893   20.2281 C   0  0  1  0  0  0  0  0  0  0  0  0
  -27.5683  -13.9835   19.2196 C   0  0  2  0  0  0  0  0  0  0  0  0
  -29.7098  -19.2503   19.8590 C   0  0  0  0  0  0  0  0  0  0  0  0
  -27.3085  -18.8162   16.4667 C   0  0  0  0  0  0  0  0  0  0  0  0
  -25.8108  -18.6377   18.4867 C   0  0  0  0  0  0  0  0  0  0  0  0
  -20.5087  -25.8267   15.9113 C   0  0  0  0  0  0  0  0  0  0  0  0
  -21.6376  -28.2179   21.9841 C   0  0  0  0  0  0  0  0  0  0  0  0
  -20.2573  -26.7833   20.4658 C   0  0  0  0  0  0  0  0  0  0  0  0
  -20.4198  -29.2381   20.0527 C   0  0  0  0  0  0  0  0  0  0  0  0
  -24.1979  -26.3385   15.1344 C   0  0  0  0  0  0  0  0  0  0  0  0
  -30.1035  -22.2277   20.4124 C   0  0  0  0  0  0  0  0  0  0  0  0
  -30.1067  -23.7626   20.5496 C   0  0  0  0  0  0  0  0  0  1  0  0
  -27.2503  -18.9172   18.0056 C   0  0  0  0  0  0  0  0  0  0  0  0
  -22.4151  -27.7643   19.5642 C   0  0  1  0  0  0  0  0  0  0  0  0
  -21.8736  -26.4854   16.0371 C   0  0  2  0  0  0  0  0  0  0  0  0
  -21.2104  -27.9964   20.5194 C   0  0  0  0  0  0  0  0  0  0  0  0
  -25.4320  -14.5657   20.3058 N   0  0  0  0  0  0  0  0  0  0  0  0
  -28.8443  -20.3719   19.3160 N   0  0  0  0  0  0  0  0  0  0  0  0
  -26.0996  -14.3604   19.1577 N   0  0  0  0  0  0  0  0  0  0  0  0
  -27.2837  -21.4136   18.2508 N   0  3  0  0  0  0  0  0  0  0  0  0
  -24.7066  -28.5966   19.9887 N   0  0  0  0  0  0  0  0  0  0  0  0
  -29.6847  -14.2301   20.4793 N   0  0  0  0  0  0  0  0  0  0  0  0
  -30.4796  -16.4656   20.1754 N   0  0  0  0  0  0  0  0  0  0  0  0
  -25.8501  -14.3577   16.8022 N   0  0  0  0  0  0  0  0  0  0  0  0
  -21.7298  -15.4625   18.2852 N   0  0  0  0  0  0  0  0  0  0  0  0
  -25.1696  -31.2572   22.0077 N   0  0  0  0  0  0  0  0  0  0  0  0
  -22.0420  -27.5786   18.1661 N   0  0  0  0  0  0  0  0  0  0  0  0
  -22.8215  -25.7797   15.1290 N   0  3  0  0  0  0  0  0  0  0  0  0
  -22.9899  -15.0667   16.4105 O   0  0  0  0  0  0  0  0  0  0  0  0
  -25.9632  -29.1239   22.4993 O   0  0  0  0  0  0  0  0  0  0  0  0
  -23.0232  -30.0371   19.2624 O   0  0  0  0  0  0  0  0  0  0  0  0
  -23.0085  -25.4851   17.9209 O   0  0  0  0  0  0  0  0  0  0  0  0
  -31.8944  -14.6549   19.9724 O   0  0  0  0  0  0  0  0  0  0  0  0
  -20.1846  -16.0162   23.6088 O   0  0  0  0  0  0  0  0  0  0  0  0
  -28.8781  -24.1850   21.1276 O   0  0  0  0  0  0  0  0  0  1  0  0
  -15.2361  -13.7115   22.8311 F   0  0  0  0  0  0  0  0  0  0  0  0
  -19.0863  -14.3387   25.5121 F   0  0  0  0  0  0  0  0  0  0  0  0
  1  2  1  0  0  0  0
  1  5  2  0  0  0  0
  2  6  2  0  0  0  0
  3  8  2  0  0  0  0
  3 16  1  0  0  0  0
  4  9  1  0  0  0  0
  4 16  2  0  0  0  0
  5 18  1  0  0  0  0
  6 20  1  0  0  0  0
  7 10  2  0  0  0  0
  7 19  1  0  0  0  0
  8 22  1  0  0  0  0
  9 22  2  0  0  0  0
 10 23  1  0  0  0  0
 11 12  2  0  0  0  0
 11 24  1  0  0  0  0
 12 25  1  0  0  0  0
 13 21  1  0  0  0  0
 13 23  2  0  0  0  0
 14 25  2  0  0  0  0
 14 26  1  0  0  0  0
 15 28  2  0  0  0  0
 15 69  1  0  0  0  0
 16 27  1  0  0  0  0
 17 27  1  0  0  0  0
 17 29  2  0  0  0  0
 17 31  1  0  0  0  0
 18 20  2  0  0  0  0
 18 36  1  0  0  0  0
 19 21  2  0  0  0  0
 19 37  1  0  0  0  0
 20 49  1  0  0  0  0
 21 38  1  0  0  0  0
 22 83  1  0  0  0  0
 23 84  1  0  0  0  0
 24 26  2  0  0  0  0
 24 83  1  0  0  0  0
 25 85  1  0  0  0  0
 26 86  1  0  0  0  0
 27 66  2  0  0  0  0
 28 60  1  0  0  0  0
 28 67  1  0  0  0  0
 29 68  1  0  0  0  0
 29 73  1  0  0  0  0
 30 62  1  0  0  0  0
 30 67  1  0  0  0  0
 30 69  2  0  0  0  0
 31 74  1  0  0  0  0
 31 78  2  0  0  0  0
 32 50  1  0  0  0  0
 32 75  1  0  0  0  0
 32 79  2  0  0  0  0
 33 63  1  0  0  0  0
 33 70  1  0  0  0  0
 33 80  2  0  0  0  0
 34 64  1  0  0  0  0
 34 76  1  0  0  0  0
 34 81  2  0  0  0  0
 35 71  1  0  0  0  0
 35 72  1  0  0  0  0
 35 82  2  0  0  0  0
 36 39  1  0  0  0  0
 37 50  1  0  0  0  0
 38 70  1  0  0  0  0
 39 41  1  0  0  0  0
 40 42  1  0  0  0  0
 40 45  1  0  0  0  0
 41 49  1  0  0  0  0
 42 51  1  0  0  0  0
 43 46  1  0  0  0  0
 43 52  1  0  0  0  0
 44 47  1  0  0  0  0
 44 52  1  0  0  0  0
 45 71  1  0  0  0  0
 46 72  1  0  0  0  0
 47 72  1  0  0  0  0
 48 51  1  0  0  0  0
 48 71  1  0  0  0  0
 49 75  1  0  0  0  0
 50 70  1  0  0  0  0
 51 68  1  0  0  0  0
 52 67  1  0  0  0  0
 53 62  1  0  0  0  0
 54 62  1  0  0  0  0
 55 64  1  0  0  0  0
 56 65  1  0  0  0  0
 57 65  1  0  0  0  0
 58 65  1  0  0  0  0
 59 77  1  0  0  0  0
 60 61  1  0  0  0  0
 61 84  1  0  0  0  0
 63 65  1  0  0  0  0
 63 76  1  0  0  0  0
 64 77  1  0  0  0  0
 66 68  1  0  0  0  0
M  CHG  2  69   1  77   1
M  ISO  4  35 100  61 101  72 100  84 101
M  END
> <Batch ID>
0178

> <Smiles>
CNC(C)C(=O)NC(C(=O)N1Cc2cc([101O:1][101CH2:1]Cc3cnc(C(C)C)n3C3CC[100N:0]([100C:0](=O)N4CCCC(n5nc(-c6ccc(Oc7ccc(F)cc7F)cc6)c(C(N)=O)c5N)C4)CC3)ccc2CC1C(=O)NC1CCCc2ccccc21)C(C)(C)C

> <Shape>
0.269

> <Color>
0.060

> <Negative vol penalty>
0.000

$$$$

  -OEChem-04052322553D

 80 89  0     1  0  0  0  0  0999 V2000
  -27.7572  -34.7576   24.5296 C   0  0  0  0  0  0  0  0  0  0  0  0
  -28.5530  -33.6856   24.1386 C   0  0  0  0  0  0  0  0  0  0  0  0
  -23.0833  -10.3798   19.8924 C   0  0  0  0  0  0  0  0  0  0  0  0
  -23.9038   -9.5449   22.0059 C   0  0  0  0  0  0  0  0  0  0  0  0
  -26.3840  -34.5814   24.6944 C   0  0  0  0  0  0  0  0  0  0  0  0
  -27.9760  -32.4363   23.9131 C   0  0  0  0  0  0  0  0  0  0  0  0
  -28.6909  -26.6179   19.7958 C   0  0  0  0  0  0  0  0  0  0  0  0
  -22.2745   -9.2510   19.7605 C   0  0  0  0  0  0  0  0  0  0  0  0
  -23.0950   -8.4162   21.8740 C   0  0  0  0  0  0  0  0  0  0  0  0
  -28.8017  -25.2320   19.8996 C   0  0  0  0  0  0  0  0  0  0  0  0
  -19.8401   -7.6210   22.3141 C   0  0  0  0  0  0  0  0  0  0  0  0
  -19.1141   -7.2116   23.4325 C   0  0  0  0  0  0  0  0  0  0  0  0
  -26.4072  -25.0645   20.1385 C   0  0  0  0  0  0  0  0  0  0  0  0
  -20.2491   -5.0792   23.3886 C   0  0  0  0  0  0  0  0  0  0  0  0
  -28.7529  -20.4467   21.4047 C   0  0  0  0  0  0  0  0  0  0  0  0
  -23.8980  -10.5267   21.0150 C   0  0  0  0  0  0  0  0  0  0  0  0
  -24.3965  -12.9134   21.7652 C   0  0  0  0  0  0  0  0  0  0  0  0
  -25.7885  -33.3316   24.4614 C   0  0  0  0  0  0  0  0  0  0  0  0
  -27.4363  -27.2395   19.8737 C   0  0  0  0  0  0  0  0  0  0  0  0
  -26.5938  -32.2428   24.0762 C   0  0  0  0  0  0  0  0  0  0  0  0
  -26.2829  -26.4582   20.0329 C   0  0  0  0  0  0  0  0  0  0  0  0
  -22.2804   -8.2692   20.7513 C   0  0  0  0  0  0  0  0  0  0  0  0
  -27.6601  -24.4553   20.0739 C   0  0  0  0  0  0  0  0  0  0  0  0
  -20.7706   -6.7595   21.7329 C   0  0  0  0  0  0  0  0  0  0  0  0
  -19.3186   -5.9407   23.9698 C   0  0  0  0  0  0  0  0  0  0  0  0
  -20.9751   -5.4886   22.2702 C   0  0  0  0  0  0  0  0  0  0  0  0
  -24.7341  -11.6922   21.1516 C   0  0  0  0  0  0  0  0  0  0  0  0
  -28.8523  -18.4242   20.4051 C   0  0  0  0  0  0  0  0  0  0  0  0
  -29.0947  -19.0340   19.1899 C   0  0  0  0  0  0  0  0  0  0  0  0
  -28.9990  -21.0598   20.1834 C   0  0  0  0  0  0  0  0  0  0  0  0
  -25.5239  -13.6868   21.6340 C   0  0  0  0  0  0  0  0  0  0  0  0
  -23.1732  -13.3129   22.3974 C   0  0  0  0  0  0  0  0  0  0  0  0
  -26.0929  -29.3418   21.8432 C   0  0  0  0  0  0  0  0  0  0  0  0
  -23.6762  -29.2350   19.6822 C   0  0  0  0  0  0  0  0  0  0  0  0
  -22.0603  -27.5020   17.2260 C   0  0  0  0  0  0  0  0  0  0  0  0
  -29.6093  -15.5525   18.2391 C   0  0  0  0  0  0  0  0  0  0  0  0
  -24.3070  -33.1780   24.6984 C   0  0  0  0  0  0  0  0  0  0  0  0
  -27.3312  -28.7333   19.7332 C   0  0  0  0  0  0  0  0  0  0  0  0
  -24.9106  -27.0751   20.1023 C   0  0  0  0  0  0  0  0  0  0  0  0
  -28.7965  -16.9364   20.2490 C   0  0  0  0  0  0  0  0  0  0  0  0
  -29.2586  -18.0138   18.1107 C   0  0  0  0  0  0  0  0  0  0  0  0
  -23.7186  -31.9142   24.0764 C   0  0  0  0  0  0  0  0  0  0  0  0
  -30.2085  -12.4796   20.1477 C   0  0  0  0  0  0  0  0  0  0  0  0
  -24.5967  -30.7067   24.3889 C   0  0  0  0  0  0  0  0  0  0  0  0
  -28.8000  -12.0826   20.5941 C   0  0  0  0  0  0  0  0  0  0  0  0
  -30.1989  -13.2248   18.8145 C   0  0  0  0  0  0  0  0  0  0  0  0
  -27.8866  -13.9771   19.2047 C   0  0  0  0  0  0  0  0  0  0  0  0
  -26.0013  -30.8783   23.7981 C   0  0  1  0  0  0  0  0  0  0  0  0
  -26.0531  -29.3022   20.3417 C   0  0  1  0  0  0  0  0  0  0  0  0
  -27.8461  -13.2928   20.5775 C   0  0  1  0  0  0  0  0  0  0  0  0
  -20.0953  -27.6562   15.6728 C   0  0  0  0  0  0  0  0  0  0  0  0
  -21.7960  -28.6106   22.0027 C   0  0  0  0  0  0  0  0  0  0  0  0
  -20.0954  -27.8514   20.3294 C   0  0  0  0  0  0  0  0  0  0  0  0
  -20.8797  -30.2195   20.3215 C   0  0  0  0  0  0  0  0  0  0  0  0
  -23.7931  -27.3479   14.8318 C   0  0  0  0  0  0  0  0  0  0  0  0
  -29.0767  -22.5452   20.0964 C   0  0  0  0  0  0  0  0  0  1  0  0
  -22.4325  -28.3969   19.5097 C   0  0  1  0  0  0  0  0  0  0  0  0
  -21.5832  -27.9185   15.8464 C   0  0  2  0  0  0  0  0  0  0  0  0
  -21.3268  -28.7578   20.5415 C   0  0  0  0  0  0  0  0  0  0  0  0
  -28.6715  -19.1045   21.5435 N   0  0  0  0  0  0  0  0  0  0  0  0
  -25.9785  -11.6856   20.6664 N   0  0  0  0  0  0  0  0  0  0  0  0
  -29.1768  -20.3614   19.0396 N   0  0  0  0  0  0  0  0  0  0  0  0
  -26.4327  -12.9121   20.9750 N   0  0  0  0  0  0  0  0  0  0  0  0
  -24.8604  -28.5402   19.9661 N   0  0  0  0  0  0  0  0  0  0  0  0
  -29.1345  -16.7290   18.8233 N   0  0  0  0  0  0  0  0  0  0  0  0
  -29.2610  -14.3457   18.8535 N   0  0  0  0  0  0  0  0  0  0  0  0
  -25.8167  -14.9472   22.0190 N   0  0  0  0  0  0  0  0  0  0  0  0
  -22.1150  -12.3952   22.4450 N   0  0  0  0  0  0  0  0  0  0  0  0
  -25.9872  -30.6126   22.3755 N   0  0  0  0  0  0  0  0  0  0  0  0
  -22.0247  -28.5531   18.1177 N   0  0  0  0  0  0  0  0  0  0  0  0
  -22.3196  -27.1631   14.7938 N   0  3  0  0  0  0  0  0  0  0  0  0
  -23.0175  -14.4557   22.8907 O   0  0  0  0  0  0  0  0  0  0  0  0
  -26.2093  -28.2966   22.4723 O   0  0  0  0  0  0  0  0  0  0  0  0
  -23.6011  -30.4604   19.5621 O   0  0  0  0  0  0  0  0  0  0  0  0
  -22.4244  -26.3576   17.4876 O   0  0  0  0  0  0  0  0  0  0  0  0
  -30.3534  -15.5800   17.2505 O   0  0  0  0  0  0  0  0  0  0  0  0
  -21.4911   -7.1677   20.6230 O   0  0  0  0  0  0  0  0  0  0  0  0
  -27.7662  -23.0933   20.1768 O   0  0  0  0  0  0  0  0  0  1  0  0
  -18.6224   -5.5482   25.0447 F   0  0  0  0  0  0  0  0  0  0  0  0
  -21.8684   -4.6570   21.7169 F   0  0  0  0  0  0  0  0  0  0  0  0
  1  2  1  0  0  0  0
  1  5  2  0  0  0  0
  2  6  2  0  0  0  0
  3  8  2  0  0  0  0
  3 16  1  0  0  0  0
  4  9  1  0  0  0  0
  4 16  2  0  0  0  0
  5 18  1  0  0  0  0
  6 20  1  0  0  0  0
  7 10  2  0  0  0  0
  7 19  1  0  0  0  0
  8 22  1  0  0  0  0
  9 22  2  0  0  0  0
 10 23  1  0  0  0  0
 11 12  2  0  0  0  0
 11 24  1  0  0  0  0
 12 25  1  0  0  0  0
 13 21  1  0  0  0  0
 13 23  2  0  0  0  0
 14 25  2  0  0  0  0
 14 26  1  0  0  0  0
 15 30  1  0  0  0  0
 15 60  2  0  0  0  0
 16 27  1  0  0  0  0
 17 27  1  0  0  0  0
 17 31  2  0  0  0  0
 17 32  1  0  0  0  0
 18 20  2  0  0  0  0
 18 37  1  0  0  0  0
 19 21  2  0  0  0  0
 19 38  1  0  0  0  0
 20 48  1  0  0  0  0
 21 39  1  0  0  0  0
 22 77  1  0  0  0  0
 23 78  1  0  0  0  0
 24 26  2  0  0  0  0
 24 77  1  0  0  0  0
 25 79  1  0  0  0  0
 26 80  1  0  0  0  0
 27 61  2  0  0  0  0
 28 29  2  0  0  0  0
 28 40  1  0  0  0  0
 28 60  1  0  0  0  0
 29 41  1  0  0  0  0
 29 62  1  0  0  0  0
 30 56  1  0  0  0  0
 30 62  2  0  0  0  0
 31 63  1  0  0  0  0
 31 67  1  0  0  0  0
 32 68  1  0  0  0  0
 32 72  2  0  0  0  0
 33 49  1  0  0  0  0
 33 69  1  0  0  0  0
 33 73  2  0  0  0  0
 34 57  1  0  0  0  0
 34 64  1  0  0  0  0
 34 74  2  0  0  0  0
 35 58  1  0  0  0  0
 35 70  1  0  0  0  0
 35 75  2  0  0  0  0
 36 65  1  0  0  0  0
 36 66  1  0  0  0  0
 36 76  2  0  0  0  0
 37 42  1  0  0  0  0
 38 49  1  0  0  0  0
 39 64  1  0  0  0  0
 40 65  1  0  0  0  0
 41 65  1  0  0  0  0
 42 44  1  0  0  0  0
 43 45  1  0  0  0  0
 43 46  1  0  0  0  0
 44 48  1  0  0  0  0
 45 50  1  0  0  0  0
 46 66  1  0  0  0  0
 47 50  1  0  0  0  0
 47 66  1  0  0  0  0
 48 69  1  0  0  0  0
 49 64  1  0  0  0  0
 50 63  1  0  0  0  0
 51 58  1  0  0  0  0
 52 59  1  0  0  0  0
 53 59  1  0  0  0  0
 54 59  1  0  0  0  0
 55 71  1  0  0  0  0
 56 78  1  0  0  0  0
 57 59  1  0  0  0  0
 57 70  1  0  0  0  0
 58 71  1  0  0  0  0
 61 63  1  0  0  0  0
M  CHG  1  71   1
M  ISO  4  36 100  56 101  65 100  78 101
M  END
> <Batch ID>
0178

> <Smiles>
CNC(C)C(=O)NC(C(=O)N1Cc2cc([101O:1][101CH2:1]c3cnc4c(n3)C[100N:0]([100C:0](=O)N3CCCC(n5nc(-c6ccc(Oc7ccc(F)cc7F)cc6)c(C(N)=O)c5N)C3)C4)ccc2CC1C(=O)NC1CCCc2ccccc21)C(C)(C)C

> <Shape>
0.337

> <Color>
0.120

> <Negative vol penalty>
0.000

$$$$

  -OEChem-04052322553D

 80 89  0     1  0  0  0  0  0999 V2000
  -18.7004  -27.4215   23.7475 C   0  0  0  0  0  0  0  0  0  0  0  0
  -19.3768  -26.4037   23.0828 C   0  0  0  0  0  0  0  0  0  0  0  0
  -23.0157  -10.1522   20.2959 C   0  0  0  0  0  0  0  0  0  0  0  0
  -24.3088   -9.2848   22.1432 C   0  0  0  0  0  0  0  0  0  0  0  0
  -18.6332  -28.6954   23.1850 C   0  0  0  0  0  0  0  0  0  0  0  0
  -19.9855  -26.6590   21.8545 C   0  0  0  0  0  0  0  0  0  0  0  0
  -24.6419  -24.6919   21.5480 C   0  0  0  0  0  0  0  0  0  0  0  0
  -22.2462   -8.9889   20.2883 C   0  0  0  0  0  0  0  0  0  0  0  0
  -23.5393   -8.1215   22.1356 C   0  0  0  0  0  0  0  0  0  0  0  0
  -24.7399  -23.3228   21.3038 C   0  0  0  0  0  0  0  0  0  0  0  0
  -20.4934   -7.1446   23.2260 C   0  0  0  0  0  0  0  0  0  0  0  0
  -20.0447   -6.6582   24.4539 C   0  0  0  0  0  0  0  0  0  0  0  0
  -25.1786  -23.7756   18.9754 C   0  0  0  0  0  0  0  0  0  0  0  0
  -21.2327   -4.5899   24.0687 C   0  0  0  0  0  0  0  0  0  0  0  0
  -24.0471  -10.3002   21.2234 C   0  0  0  0  0  0  0  0  0  0  0  0
  -24.5945  -12.6807   21.9591 C   0  0  0  0  0  0  0  0  0  0  0  0
  -19.2497  -28.9690   21.9538 C   0  0  0  0  0  0  0  0  0  0  0  0
  -24.8010  -25.6143   20.5038 C   0  0  0  0  0  0  0  0  0  0  0  0
  -19.9254  -27.9374   21.2744 C   0  0  0  0  0  0  0  0  0  0  0  0
  -25.0847  -25.1560   19.2094 C   0  0  0  0  0  0  0  0  0  0  0  0
  -22.5080   -7.9735   21.2081 C   0  0  0  0  0  0  0  0  0  0  0  0
  -25.0055  -22.8643   20.0168 C   0  0  0  0  0  0  0  0  0  0  0  0
  -21.3118   -6.3537   22.4195 C   0  0  0  0  0  0  0  0  0  0  0  0
  -20.4143   -5.3809   24.8752 C   0  0  0  0  0  0  0  0  0  0  0  0
  -21.6814   -5.0764   22.8408 C   0  0  0  0  0  0  0  0  0  0  0  0
  -24.8427  -11.5014   21.2314 C   0  0  0  0  0  0  0  0  0  0  0  0
  -25.6330  -13.5153   21.6252 C   0  0  0  0  0  0  0  0  0  0  0  0
  -23.5212  -12.9936   22.8568 C   0  0  0  0  0  0  0  0  0  0  0  0
  -22.9452  -27.8106   19.1488 C   0  0  0  0  0  0  0  0  0  0  0  0
  -25.6596  -28.5447   17.5317 C   0  0  0  0  0  0  0  0  0  0  0  0
  -28.7062  -27.5319   16.3744 C   0  0  0  0  0  0  0  0  0  0  0  0
  -28.9613  -14.9594   17.1635 C   0  0  0  0  0  0  0  0  0  0  0  0
  -19.1098  -30.3495   21.3628 C   0  0  0  0  0  0  0  0  0  0  0  0
  -24.7188  -27.0889   20.7888 C   0  0  0  0  0  0  0  0  0  0  0  0
  -25.2839  -26.1059   18.0577 C   0  0  0  0  0  0  0  0  0  0  0  0
  -20.1009  -30.6333   20.2370 C   0  0  0  0  0  0  0  0  0  0  0  0
  -30.1669  -12.8606   19.7393 C   0  0  0  0  0  0  0  0  0  0  0  0
  -20.1460  -29.4644   19.2581 C   0  0  0  0  0  0  0  0  0  0  0  0
  -28.8995  -12.4145   20.4732 C   0  0  0  0  0  0  0  0  0  0  0  0
  -29.6847  -18.0684   17.1651 C   0  0  0  0  0  0  0  0  0  0  0  0
  -29.2955  -19.2989   17.9771 C   0  0  0  0  0  0  0  0  0  0  0  0
  -29.9456  -12.9655   18.2299 C   0  0  0  0  0  0  0  0  0  0  0  0
  -27.0923  -16.4381   18.2850 C   0  0  0  0  0  0  0  0  0  0  0  0
  -27.5447  -13.3207   18.5491 C   0  0  0  0  0  0  0  0  0  0  0  0
  -20.6197  -28.1816   19.9520 C   0  0  1  0  0  0  0  0  0  0  0  0
  -24.3885  -27.9190   19.5521 C   0  0  1  0  0  0  0  0  0  0  0  0
  -27.3510  -17.9026   17.9085 C   0  0  2  0  0  0  0  0  0  0  0  0
  -27.6860  -13.2797   20.0783 C   0  0  1  0  0  0  0  0  0  0  0  0
  -28.3458  -17.4119   16.8433 C   0  0  2  0  0  0  0  0  0  0  0  0
  -28.1747  -18.7641   18.8572 C   0  0  2  0  0  0  0  0  0  0  0  0
  -30.6803  -28.3416   15.0534 C   0  0  0  0  0  0  0  0  0  0  0  0
  -24.0584  -28.2342   14.9530 C   0  0  0  0  0  0  0  0  0  0  0  0
  -26.2251  -28.1078   13.7049 C   0  0  0  0  0  0  0  0  0  0  0  0
  -25.6371  -30.1737   14.9735 C   0  0  0  0  0  0  0  0  0  0  0  0
  -30.5438  -27.1409   18.6612 C   0  0  0  0  0  0  0  0  0  0  0  0
  -26.2479  -19.4717   20.2802 C   0  0  0  0  0  0  0  0  0  0  0  0
  -25.5716  -20.7068   20.8417 C   0  0  0  0  0  0  0  0  0  1  0  0
  -26.2918  -28.0856   16.2399 C   0  0  1  0  0  0  0  0  0  0  0  0
  -30.0760  -28.1831   16.4399 C   0  0  2  0  0  0  0  0  0  0  0  0
  -25.5475  -28.6321   14.9889 C   0  0  0  0  0  0  0  0  0  0  0  0
  -25.9518  -11.5764   20.4909 N   0  0  0  0  0  0  0  0  0  0  0  0
  -26.4096  -12.8127   20.7515 N   0  0  0  0  0  0  0  0  0  0  0  0
  -25.1876  -27.5379   18.3857 N   0  0  0  0  0  0  0  0  0  0  0  0
  -28.7854  -13.8171   17.9459 N   0  0  0  0  0  0  0  0  0  0  0  0
  -28.1803  -16.0671   17.3980 N   0  0  0  0  0  0  0  0  0  0  0  0
  -25.9483  -14.7742   21.9966 N   0  0  0  0  0  0  0  0  0  0  0  0
  -22.5382  -12.0216   23.0875 N   0  0  0  0  0  0  0  0  0  0  0  0
  -22.0557  -28.2041   20.1304 N   0  0  0  0  0  0  0  0  0  0  0  0
  -27.6972  -28.4697   16.3141 N   0  0  0  0  0  0  0  0  0  0  0  0
  -27.4096  -19.8848   19.4422 N   0  3  0  0  0  0  0  0  0  0  0  0
  -31.0029  -27.3578   17.2650 N   0  3  0  0  0  0  0  0  0  0  0  0
  -23.4275  -14.1083   23.4245 O   0  0  0  0  0  0  0  0  0  0  0  0
  -22.6597  -27.4018   18.0294 O   0  0  0  0  0  0  0  0  0  0  0  0
  -25.5938  -29.7517   17.7773 O   0  0  0  0  0  0  0  0  0  0  0  0
  -28.5475  -26.3132   16.3727 O   0  0  0  0  0  0  0  0  0  0  0  0
  -29.8354  -15.0075   16.2854 O   0  0  0  0  0  0  0  0  0  0  0  0
  -21.7571   -6.8383   21.2011 O   0  0  0  0  0  0  0  0  0  0  0  0
  -25.1017  -21.5189   19.7739 O   0  0  0  0  0  0  0  0  0  1  0  0
  -19.9846   -4.9145   26.0551 F   0  0  0  0  0  0  0  0  0  0  0  0
  -22.4683   -4.3124   22.0709 F   0  0  0  0  0  0  0  0  0  0  0  0
  1  2  1  0  0  0  0
  1  5  2  0  0  0  0
  2  6  2  0  0  0  0
  3  8  2  0  0  0  0
  3 15  1  0  0  0  0
  4  9  1  0  0  0  0
  4 15  2  0  0  0  0
  5 17  1  0  0  0  0
  6 19  1  0  0  0  0
  7 10  2  0  0  0  0
  7 18  1  0  0  0  0
  8 21  1  0  0  0  0
  9 21  2  0  0  0  0
 10 22  1  0  0  0  0
 11 12  2  0  0  0  0
 11 23  1  0  0  0  0
 12 24  1  0  0  0  0
 13 20  1  0  0  0  0
 13 22  2  0  0  0  0
 14 24  2  0  0  0  0
 14 25  1  0  0  0  0
 15 26  1  0  0  0  0
 16 26  1  0  0  0  0
 16 27  2  0  0  0  0
 16 28  1  0  0  0  0
 17 19  2  0  0  0  0
 17 33  1  0  0  0  0
 18 20  2  0  0  0  0
 18 34  1  0  0  0  0
 19 45  1  0  0  0  0
 20 35  1  0  0  0  0
 21 77  1  0  0  0  0
 22 78  1  0  0  0  0
 23 25  2  0  0  0  0
 23 77  1  0  0  0  0
 24 79  1  0  0  0  0
 25 80  1  0  0  0  0
 26 61  2  0  0  0  0
 27 62  1  0  0  0  0
 27 66  1  0  0  0  0
 28 67  1  0  0  0  0
 28 72  2  0  0  0  0
 29 46  1  0  0  0  0
 29 68  1  0  0  0  0
 29 73  2  0  0  0  0
 30 58  1  0  0  0  0
 30 63  1  0  0  0  0
 30 74  2  0  0  0  0
 31 59  1  0  0  0  0
 31 69  1  0  0  0  0
 31 75  2  0  0  0  0
 32 64  1  0  0  0  0
 32 65  1  0  0  0  0
 32 76  2  0  0  0  0
 33 36  1  0  0  0  0
 34 46  1  0  0  0  0
 35 63  1  0  0  0  0
 36 38  1  0  0  0  0
 37 39  1  0  0  0  0
 37 42  1  0  0  0  0
 38 45  1  0  0  0  0
 39 48  1  0  0  0  0
 40 41  1  0  0  0  0
 40 49  1  0  0  0  0
 41 50  1  0  0  0  0
 42 64  1  0  0  0  0
 43 47  1  0  0  0  0
 43 65  1  0  0  0  0
 44 48  1  0  0  0  0
 44 64  1  0  0  0  0
 45 68  1  0  0  0  0
 46 63  1  0  0  0  0
 47 49  1  0  0  0  0
 47 50  1  0  0  0  0
 48 62  1  0  0  0  0
 49 65  1  0  0  0  0
 50 70  1  0  0  0  0
 51 59  1  0  0  0  0
 52 60  1  0  0  0  0
 53 60  1  0  0  0  0
 54 60  1  0  0  0  0
 55 71  1  0  0  0  0
 56 57  1  0  0  0  0
 56 70  1  0  0  0  0
 57 78  1  0  0  0  0
 58 60  1  0  0  0  0
 58 69  1  0  0  0  0
 59 71  1  0  0  0  0
 61 62  1  0  0  0  0
M  CHG  2  70   1  71   1
M  ISO  4  32 100  57 101  65 100  78 101
M  END
> <Batch ID>
0178

> <Smiles>
CNC(C)C(=O)NC(C(=O)N1Cc2cc([101O:1][101CH2:1]CNC3CCC4C3C[100N:0]4[100C:0](=O)N3CCCC(n4nc(-c5ccc(Oc6ccc(F)cc6F)cc5)c(C(N)=O)c4N)C3)ccc2CC1C(=O)NC1CCCc2ccccc21)C(C)(C)C

> <Shape>
0.229

> <Color>
0.110

> <Negative vol penalty>
0.000

$$$$

  -OEChem-04052322553D

 85 94  0     1  0  0  0  0  0999 V2000
  -16.5714  -30.4451   23.2509 C   0  0  0  0  0  0  0  0  0  0  0  0
  -17.6486  -30.8864   22.4890 C   0  0  0  0  0  0  0  0  0  0  0  0
  -26.7977  -13.0114   20.3192 C   0  0  0  0  0  0  0  0  0  0  0  0
  -25.2138  -14.8321   20.2033 C   0  0  0  0  0  0  0  0  0  0  0  0
  -16.7753  -29.5205   24.2745 C   0  0  0  0  0  0  0  0  0  0  0  0
  -18.9305  -30.4041   22.7510 C   0  0  0  0  0  0  0  0  0  0  0  0
  -25.0672  -28.7727   19.4351 C   0  0  0  0  0  0  0  0  0  0  0  0
  -25.7651  -12.0993   20.1017 C   0  0  0  0  0  0  0  0  0  0  0  0
  -24.1812  -13.9199   19.9858 C   0  0  0  0  0  0  0  0  0  0  0  0
  -26.4342  -29.0368   19.5081 C   0  0  0  0  0  0  0  0  0  0  0  0
  -23.2951  -10.6577   21.9032 C   0  0  0  0  0  0  0  0  0  0  0  0
  -23.2580   -9.5182   22.7068 C   0  0  0  0  0  0  0  0  0  0  0  0
  -26.6548  -27.3821   21.2495 C   0  0  0  0  0  0  0  0  0  0  0  0
  -23.4541   -8.1261   20.7419 C   0  0  0  0  0  0  0  0  0  0  0  0
  -30.9449  -26.5429   20.6728 C   0  0  0  0  0  0  0  0  0  0  0  0
  -26.5220  -14.3779   20.3701 C   0  0  0  0  0  0  0  0  0  0  0  0
  -28.3847  -15.9518   19.6211 C   0  0  0  0  0  0  0  0  0  0  0  0
  -18.0589  -29.0194   24.5428 C   0  0  0  0  0  0  0  0  0  0  0  0
  -24.4808  -27.8174   20.2777 C   0  0  0  0  0  0  0  0  0  0  0  0
  -19.1519  -29.4730   23.7799 C   0  0  0  0  0  0  0  0  0  0  0  0
  -25.2806  -27.1059   21.1834 C   0  0  0  0  0  0  0  0  0  0  0  0
  -24.4569  -12.5535   19.9350 C   0  0  0  0  0  0  0  0  0  0  0  0
  -27.2277  -28.3436   20.4174 C   0  0  0  0  0  0  0  0  0  0  0  0
  -23.4116  -10.5314   20.5189 C   0  0  0  0  0  0  0  0  0  0  0  0
  -23.3375   -8.2525   22.1262 C   0  0  0  0  0  0  0  0  0  0  0  0
  -23.4911   -9.2656   19.9383 C   0  0  0  0  0  0  0  0  0  0  0  0
  -27.5882  -15.3206   20.5953 C   0  0  0  0  0  0  0  0  0  0  0  0
  -31.1185  -25.1739   20.6689 C   0  0  0  0  0  0  0  0  0  0  0  0
  -30.8719  -27.1390   19.4304 C   0  0  0  0  0  0  0  0  0  0  0  0
  -29.2433  -16.7458   20.3414 C   0  0  0  0  0  0  0  0  0  0  0  0
  -31.1285  -25.1312   18.3962 C   0  0  0  0  0  0  0  0  0  0  0  0
  -28.3514  -15.8313   18.1928 C   0  0  0  0  0  0  0  0  0  0  0  0
  -22.2546  -27.8913   22.5453 C   0  0  0  0  0  0  0  0  0  0  0  0
  -22.6293  -24.6700   22.4740 C   0  0  0  0  0  0  0  0  0  0  0  0
  -24.6240  -22.0009   21.7367 C   0  0  0  0  0  0  0  0  0  0  0  0
  -30.2086  -20.3781   24.4670 C   0  0  0  0  0  0  0  0  0  0  0  0
  -18.2372  -28.0571   25.6903 C   0  0  0  0  0  0  0  0  0  0  0  0
  -23.0095  -27.5250   20.1680 C   0  0  0  0  0  0  0  0  0  0  0  0
  -24.7033  -26.0560   22.0961 C   0  0  0  0  0  0  0  0  0  0  0  0
  -19.5692  -27.3121   25.6590 C   0  0  0  0  0  0  0  0  0  0  0  0
  -30.1826  -16.9187   25.3088 C   0  0  0  0  0  0  0  0  0  0  0  0
  -20.7159  -28.2800   25.3850 C   0  0  0  0  0  0  0  0  0  0  0  0
  -29.5656  -16.2479   24.0802 C   0  0  0  0  0  0  0  0  0  0  0  0
  -30.1760  -23.3158   22.1489 C   0  0  0  0  0  0  0  0  0  0  0  0
  -29.5411  -18.2750   25.5931 C   0  0  0  0  0  0  0  0  0  0  0  0
  -28.9186  -18.5382   23.2231 C   0  0  0  0  0  0  0  0  0  0  0  0
  -32.2678  -22.3598   22.7561 C   0  0  0  0  0  0  0  0  0  0  0  0
  -20.5536  -28.9545   24.0174 C   0  0  1  0  0  0  0  0  0  0  0  0
  -31.2090  -24.4335   21.9771 C   0  0  1  0  0  0  0  0  0  0  0  0
  -22.4290  -26.8978   21.4317 C   0  0  1  0  0  0  0  0  0  0  0  0
  -29.5714  -17.1926   22.8633 C   0  0  2  0  0  0  0  0  0  0  0  0
  -30.8193  -22.4224   23.1993 C   0  0  2  0  0  0  0  0  0  0  0  0
  -31.2267  -24.3472   17.1314 C   0  0  0  0  0  0  0  0  0  0  0  0
  -25.2770  -19.5982   21.4236 C   0  0  0  0  0  0  0  0  0  0  0  0
  -23.1031  -24.7839   25.4860 C   0  0  0  0  0  0  0  0  0  0  0  0
  -24.0613  -22.4747   25.3523 C   0  0  0  0  0  0  0  0  0  0  0  0
  -21.6800  -22.8732   24.7253 C   0  0  0  0  0  0  0  0  0  0  0  0
  -23.6657  -21.9846   18.9366 C   0  0  0  0  0  0  0  0  0  0  0  0
  -30.6808  -28.6331   19.3327 C   0  0  0  0  0  0  0  0  0  0  0  0
  -29.2085  -29.0279   19.2932 C   0  0  0  0  0  0  0  0  0  1  0  0
  -23.5180  -23.6810   23.1887 C   0  0  1  0  0  0  0  0  0  0  0  0
  -24.3473  -20.7159   20.9774 C   0  0  2  0  0  0  0  0  0  0  0  0
  -23.1014  -23.4743   24.6724 C   0  0  0  0  0  0  0  0  0  0  0  0
  -27.9120  -15.6823   21.8396 N   0  0  0  0  0  0  0  0  0  0  0  0
  -31.2146  -24.4338   19.5449 N   0  0  0  0  0  0  0  0  0  0  0  0
  -30.9604  -26.4611   18.2673 N   0  0  0  0  0  0  0  0  0  0  0  0
  -28.9217  -16.5492   21.6522 N   0  0  0  0  0  0  0  0  0  0  0  0
  -23.2585  -25.8106   21.9554 N   0  0  0  0  0  0  0  0  0  0  0  0
  -29.5805  -19.1235   24.3996 N   0  0  0  0  0  0  0  0  0  0  0  0
  -30.2346  -17.5858   19.9752 N   0  0  0  0  0  0  0  0  0  0  0  0
  -27.4063  -14.9714   17.6167 N   0  0  0  0  0  0  0  0  0  0  0  0
  -20.9454  -28.0498   22.9580 N   0  0  0  0  0  0  0  0  0  0  0  0
  -23.4992  -22.4619   22.3875 N   0  0  0  0  0  0  0  0  0  0  0  0
  -30.2068  -21.1157   23.2894 N   0  0  0  0  0  0  0  0  0  0  0  0
  -32.5373  -23.7386   22.2206 N   0  3  0  0  0  0  0  0  0  0  0  0
  -24.5356  -20.9279   19.5143 N   0  3  0  0  0  0  0  0  0  0  0  0
  -29.1473  -16.4547   17.4502 O   0  0  0  0  0  0  0  0  0  0  0  0
  -23.2354  -28.4701   22.9978 O   0  0  0  0  0  0  0  0  0  0  0  0
  -21.4224  -24.4356   22.3730 O   0  0  0  0  0  0  0  0  0  0  0  0
  -25.7286  -22.5396   21.7540 O   0  0  0  0  0  0  0  0  0  0  0  0
  -30.7368  -20.8067   25.4986 O   0  0  0  0  0  0  0  0  0  0  0  0
  -23.4491  -11.6637   19.7225 O   0  0  0  0  0  0  0  0  0  0  0  0
  -28.5621  -28.6000   20.4912 O   0  0  0  0  0  0  0  0  0  1  0  0
  -23.3035   -7.1583   22.8982 F   0  0  0  0  0  0  0  0  0  0  0  0
  -23.6044   -9.1380   18.6091 F   0  0  0  0  0  0  0  0  0  0  0  0
  1  2  1  0  0  0  0
  1  5  2  0  0  0  0
  2  6  2  0  0  0  0
  3  8  2  0  0  0  0
  3 16  1  0  0  0  0
  4  9  1  0  0  0  0
  4 16  2  0  0  0  0
  5 18  1  0  0  0  0
  6 20  1  0  0  0  0
  7 10  2  0  0  0  0
  7 19  1  0  0  0  0
  8 22  1  0  0  0  0
  9 22  2  0  0  0  0
 10 23  1  0  0  0  0
 11 12  2  0  0  0  0
 11 24  1  0  0  0  0
 12 25  1  0  0  0  0
 13 21  1  0  0  0  0
 13 23  2  0  0  0  0
 14 25  2  0  0  0  0
 14 26  1  0  0  0  0
 15 28  2  0  0  0  0
 15 29  1  0  0  0  0
 16 27  1  0  0  0  0
 17 27  1  0  0  0  0
 17 30  2  0  0  0  0
 17 32  1  0  0  0  0
 18 20  2  0  0  0  0
 18 37  1  0  0  0  0
 19 21  2  0  0  0  0
 19 38  1  0  0  0  0
 20 48  1  0  0  0  0
 21 39  1  0  0  0  0
 22 82  1  0  0  0  0
 23 83  1  0  0  0  0
 24 26  2  0  0  0  0
 24 82  1  0  0  0  0
 25 84  1  0  0  0  0
 26 85  1  0  0  0  0
 27 64  2  0  0  0  0
 28 49  1  0  0  0  0
 28 65  1  0  0  0  0
 29 59  1  0  0  0  0
 29 66  2  0  0  0  0
 30 67  1  0  0  0  0
 30 70  1  0  0  0  0
 31 53  1  0  0  0  0
 31 65  2  0  0  0  0
 31 66  1  0  0  0  0
 32 71  1  0  0  0  0
 32 77  2  0  0  0  0
 33 50  1  0  0  0  0
 33 72  1  0  0  0  0
 33 78  2  0  0  0  0
 34 61  1  0  0  0  0
 34 68  1  0  0  0  0
 34 79  2  0  0  0  0
 35 62  1  0  0  0  0
 35 73  1  0  0  0  0
 35 80  2  0  0  0  0
 36 69  1  0  0  0  0
 36 74  1  0  0  0  0
 36 81  2  0  0  0  0
 37 40  1  0  0  0  0
 38 50  1  0  0  0  0
 39 68  1  0  0  0  0
 40 42  1  0  0  0  0
 41 43  1  0  0  0  0
 41 45  1  0  0  0  0
 42 48  1  0  0  0  0
 43 51  1  0  0  0  0
 44 49  1  0  0  0  0
 44 52  1  0  0  0  0
 45 69  1  0  0  0  0
 46 51  1  0  0  0  0
 46 69  1  0  0  0  0
 47 52  1  0  0  0  0
 47 75  1  0  0  0  0
 48 72  1  0  0  0  0
 49 75  1  0  0  0  0
 50 68  1  0  0  0  0
 51 67  1  0  0  0  0
 52 74  1  0  0  0  0
 54 62  1  0  0  0  0
 55 63  1  0  0  0  0
 56 63  1  0  0  0  0
 57 63  1  0  0  0  0
 58 76  1  0  0  0  0
 59 60  1  0  0  0  0
 60 83  1  0  0  0  0
 61 63  1  0  0  0  0
 61 73  1  0  0  0  0
 62 76  1  0  0  0  0
 64 67  1  0  0  0  0
M  CHG  2  75   1  76   1
M  ISO  4  36 100  60 101  74 100  83 101
M  END
> <Batch ID>
0178

> <Smiles>
CNC(C)C(=O)NC(C(=O)N1Cc2cc([101O:1][101CH2:1]Cc3cc(C4CC([100NH:0][100C:0](=O)N5CCCC(n6nc(-c7ccc(Oc8ccc(F)cc8F)cc7)c(C(N)=O)c6N)C5)CN4)nc(C)n3)ccc2CC1C(=O)NC1CCCc2ccccc21)C(C)(C)C

> <Shape>
0.217

> <Color>
0.098

> <Negative vol penalty>
0.000

$$$$

  -OEChem-04052322553D

 84 93  0     1  0  0  0  0  0999 V2000
  -17.1764  -12.6899   20.8027 C   0  0  0  0  0  0  0  0  0  0  0  0
  -17.9459  -13.8488   20.8085 C   0  0  0  0  0  0  0  0  0  0  0  0
  -26.7580  -29.1710   20.4671 C   0  0  0  0  0  0  0  0  0  0  0  0
  -25.6182  -27.0413   20.5148 C   0  0  0  0  0  0  0  0  0  0  0  0
  -17.6355  -11.5463   21.4550 C   0  0  0  0  0  0  0  0  0  0  0  0
  -19.1746  -13.8652   21.4677 C   0  0  0  0  0  0  0  0  0  0  0  0
  -24.2056  -16.9341   19.8012 C   0  0  0  0  0  0  0  0  0  0  0  0
  -30.5757  -19.5367   22.0784 C   0  0  0  0  0  0  0  0  0  0  0  0
  -25.5517  -29.8103   20.1816 C   0  0  0  0  0  0  0  0  0  0  0  0
  -24.4118  -27.6806   20.2293 C   0  0  0  0  0  0  0  0  0  0  0  0
  -24.7445  -18.1499   20.2199 C   0  0  0  0  0  0  0  0  0  0  0  0
  -22.8015  -30.8118   21.8747 C   0  0  0  0  0  0  0  0  0  0  0  0
  -22.5022  -31.9768   22.5809 C   0  0  0  0  0  0  0  0  0  0  0  0
  -29.3319  -20.1564   22.1244 C   0  0  0  0  0  0  0  0  0  0  0  0
  -26.1896  -16.9746   21.7527 C   0  0  0  0  0  0  0  0  0  0  0  0
  -22.4091  -33.2108   20.5059 C   0  0  0  0  0  0  0  0  0  0  0  0
  -26.7913  -27.7864   20.6337 C   0  0  0  0  0  0  0  0  0  0  0  0
  -28.5805  -26.8629   22.2001 C   0  0  0  0  0  0  0  0  0  0  0  0
  -18.8749  -11.5458   22.1142 C   0  0  0  0  0  0  0  0  0  0  0  0
  -24.6477  -15.7281   20.3639 C   0  0  0  0  0  0  0  0  0  0  0  0
  -19.6502  -12.7210   22.1305 C   0  0  0  0  0  0  0  0  0  0  0  0
  -25.6566  -15.7447   21.3376 C   0  0  0  0  0  0  0  0  0  0  0  0
  -31.2485  -19.4296   20.8663 C   0  0  0  0  0  0  0  0  0  0  0  0
  -24.3785  -29.0651   20.0627 C   0  0  0  0  0  0  0  0  0  0  0  0
  -25.7346  -18.1705   21.1978 C   0  0  0  0  0  0  0  0  0  0  0  0
  -22.9047  -30.8463   20.4841 C   0  0  0  0  0  0  0  0  0  0  0  0
  -22.3060  -33.1763   21.8965 C   0  0  0  0  0  0  0  0  0  0  0  0
  -22.7084  -32.0457   19.7997 C   0  0  0  0  0  0  0  0  0  0  0  0
  -28.0373  -27.1254   20.9281 C   0  0  0  0  0  0  0  0  0  0  0  0
  -28.8083  -20.6486   20.9397 C   0  0  0  0  0  0  0  0  0  0  0  0
  -30.6390  -19.9541   19.7379 C   0  0  0  0  0  0  0  0  0  0  0  0
  -29.7669  -26.2212   21.9409 C   0  0  0  0  0  0  0  0  0  0  0  0
  -28.0593  -27.1715   23.4996 C   0  0  0  0  0  0  0  0  0  0  0  0
  -23.2805  -13.4038   22.0468 C   0  0  0  0  0  0  0  0  0  0  0  0
  -26.1662  -11.9693   21.6766 C   0  0  0  0  0  0  0  0  0  0  0  0
  -29.5144  -12.3008   21.1050 C   0  0  0  0  0  0  0  0  0  0  0  0
  -31.7182  -22.9741   17.3041 C   0  0  0  0  0  0  0  0  0  0  0  0
  -19.3076  -10.2998   22.8456 C   0  0  0  0  0  0  0  0  0  0  0  0
  -24.0753  -14.4232   19.8823 C   0  0  0  0  0  0  0  0  0  0  0  0
  -26.1802  -14.4764   21.9587 C   0  0  0  0  0  0  0  0  0  0  0  0
  -20.7918  -10.2873   23.2023 C   0  0  0  0  0  0  0  0  0  0  0  0
  -33.2155  -25.9159   18.6386 C   0  0  0  0  0  0  0  0  0  0  0  0
  -21.2060  -11.6237   23.8101 C   0  0  0  0  0  0  0  0  0  0  0  0
  -32.1071  -26.5358   19.4915 C   0  0  0  0  0  0  0  0  0  0  0  0
  -27.3989  -22.7637   20.5129 C   0  0  0  0  0  0  0  0  0  0  0  0
  -27.2635  -22.4372   21.9673 C   0  0  0  0  0  0  0  0  0  0  0  0
  -32.6578  -25.2651   17.3747 C   0  0  0  0  0  0  0  0  0  0  0  0
  -30.4750  -24.9017   18.4597 C   0  0  0  0  0  0  0  0  0  0  0  0
  -20.9997  -12.7707   22.8134 C   0  0  1  0  0  0  0  0  0  0  0  0
  -24.2357  -13.2913   20.8924 C   0  0  1  0  0  0  0  0  0  0  0  0
  -30.9825  -25.5213   19.7730 C   0  0  2  0  0  0  0  0  0  0  0  0
  -27.4767  -21.3167   20.9654 C   0  0  0  0  0  0  0  0  0  0  0  0
  -32.5813  -18.7667   20.8108 C   0  0  0  0  0  0  0  0  0  0  0  0
  -31.6202  -10.9519   20.8962 C   0  0  0  0  0  0  0  0  0  0  0  0
  -26.2457  -11.6288   24.7077 C   0  0  0  0  0  0  0  0  0  0  0  0
  -28.7004  -11.1723   24.5222 C   0  0  0  0  0  0  0  0  0  0  0  0
  -27.0634   -9.6509   23.4140 C   0  0  0  0  0  0  0  0  0  0  0  0
  -29.9498  -13.1966   18.3181 C   0  0  0  0  0  0  0  0  0  0  0  0
  -31.3153  -19.8675   18.4089 C   0  0  0  0  0  0  0  0  0  0  0  0
  -26.3016  -20.4150   20.6533 C   0  0  0  0  0  0  0  0  0  1  0  0
  -30.6553  -20.7316   17.3290 C   0  0  0  0  0  0  0  0  0  0  0  0
  -27.4607  -11.9555   22.4532 C   0  0  1  0  0  0  0  0  0  0  0  0
  -30.4502  -11.5777   20.1531 C   0  0  2  0  0  0  0  0  0  0  0  0
  -27.3565  -11.1261   23.7642 C   0  0  0  0  0  0  0  0  0  0  0  0
  -28.8148  -26.6865   19.9348 N   0  0  0  0  0  0  0  0  0  0  0  0
  -29.4321  -20.5631   19.7434 N   0  0  0  0  0  0  0  0  0  0  0  0
  -29.8588  -26.1417   20.5825 N   0  0  0  0  0  0  0  0  0  0  0  0
  -25.5844  -13.2263   21.4590 N   0  0  0  0  0  0  0  0  0  0  0  0
  -31.5966  -24.3130   17.7112 N   0  0  0  0  0  0  0  0  0  0  0  0
  -30.7301  -25.7228   22.7448 N   0  0  0  0  0  0  0  0  0  0  0  0
  -26.8271  -27.8337   23.5852 N   0  0  0  0  0  0  0  0  0  0  0  0
  -22.0636  -12.7853   21.8325 N   0  0  0  0  0  0  0  0  0  0  0  0
  -28.4865  -11.4851   21.5285 N   0  0  0  0  0  0  0  0  0  0  0  0
  -30.6713  -22.1368   17.6696 N   0  0  0  0  0  0  0  0  0  0  0  0
  -30.9909  -12.5258   19.1384 N   0  3  0  0  0  0  0  0  0  0  0  0
  -28.6760  -26.8835   24.5533 O   0  0  0  0  0  0  0  0  0  0  0  0
  -23.6228  -14.0060   23.0577 O   0  0  0  0  0  0  0  0  0  0  0  0
  -25.6926  -10.9047   21.2716 O   0  0  0  0  0  0  0  0  0  0  0  0
  -29.6809  -13.4708   21.4422 O   0  0  0  0  0  0  0  0  0  0  0  0
  -32.6905  -22.5548   16.6671 O   0  0  0  0  0  0  0  0  0  0  0  0
  -23.2011  -29.6886   19.7843 O   0  0  0  0  0  0  0  0  0  0  0  0
  -26.2618  -19.3558   21.6087 O   0  0  0  0  0  0  0  0  0  1  0  0
  -22.0171  -34.2946   22.5747 F   0  0  0  0  0  0  0  0  0  0  0  0
  -22.8050  -32.0848   18.4636 F   0  0  0  0  0  0  0  0  0  0  0  0
  1  2  1  0  0  0  0
  1  5  2  0  0  0  0
  2  6  2  0  0  0  0
  3  9  2  0  0  0  0
  3 17  1  0  0  0  0
  4 10  1  0  0  0  0
  4 17  2  0  0  0  0
  5 19  1  0  0  0  0
  6 21  1  0  0  0  0
  7 11  2  0  0  0  0
  7 20  1  0  0  0  0
  8 14  2  0  0  0  0
  8 23  1  0  0  0  0
  9 24  1  0  0  0  0
 10 24  2  0  0  0  0
 11 25  1  0  0  0  0
 12 13  2  0  0  0  0
 12 26  1  0  0  0  0
 13 27  1  0  0  0  0
 14 30  1  0  0  0  0
 15 22  1  0  0  0  0
 15 25  2  0  0  0  0
 16 27  2  0  0  0  0
 16 28  1  0  0  0  0
 17 29  1  0  0  0  0
 18 29  1  0  0  0  0
 18 32  2  0  0  0  0
 18 33  1  0  0  0  0
 19 21  2  0  0  0  0
 19 38  1  0  0  0  0
 20 22  2  0  0  0  0
 20 39  1  0  0  0  0
 21 49  1  0  0  0  0
 22 40  1  0  0  0  0
 23 31  2  0  0  0  0
 23 53  1  0  0  0  0
 24 81  1  0  0  0  0
 25 82  1  0  0  0  0
 26 28  2  0  0  0  0
 26 81  1  0  0  0  0
 27 83  1  0  0  0  0
 28 84  1  0  0  0  0
 29 65  2  0  0  0  0
 30 52  1  0  0  0  0
 30 66  2  0  0  0  0
 31 59  1  0  0  0  0
 31 66  1  0  0  0  0
 32 67  1  0  0  0  0
 32 70  1  0  0  0  0
 33 71  1  0  0  0  0
 33 76  2  0  0  0  0
 34 50  1  0  0  0  0
 34 72  1  0  0  0  0
 34 77  2  0  0  0  0
 35 62  1  0  0  0  0
 35 68  1  0  0  0  0
 35 78  2  0  0  0  0
 36 63  1  0  0  0  0
 36 73  1  0  0  0  0
 36 79  2  0  0  0  0
 37 69  1  0  0  0  0
 37 74  1  0  0  0  0
 37 80  2  0  0  0  0
 38 41  1  0  0  0  0
 39 50  1  0  0  0  0
 40 68  1  0  0  0  0
 41 43  1  0  0  0  0
 42 44  1  0  0  0  0
 42 47  1  0  0  0  0
 43 49  1  0  0  0  0
 44 51  1  0  0  0  0
 45 46  1  0  0  0  0
 45 52  1  0  0  0  0
 46 52  1  0  0  0  0
 47 69  1  0  0  0  0
 48 51  1  0  0  0  0
 48 69  1  0  0  0  0
 49 72  1  0  0  0  0
 50 68  1  0  0  0  0
 51 67  1  0  0  0  0
 52 60  1  0  0  0  0
 54 63  1  0  0  0  0
 55 64  1  0  0  0  0
 56 64  1  0  0  0  0
 57 64  1  0  0  0  0
 58 75  1  0  0  0  0
 59 61  1  0  0  0  0
 60 82  1  0  0  0  0
 61 74  1  0  0  0  0
 62 64  1  0  0  0  0
 62 73  1  0  0  0  0
 63 75  1  0  0  0  0
 65 67  1  0  0  0  0
M  CHG  1  75   1
M  ISO  4  37 100  60 101  74 100  82 101
M  END
> <Batch ID>
0178

> <Smiles>
CNC(C)C(=O)NC(C(=O)N1Cc2cc([101O:1][101CH2:1]C3(c4ccc(C)c(CC[100NH:0][100C:0](=O)N5CCCC(n6nc(-c7ccc(Oc8ccc(F)cc8F)cc7)c(C(N)=O)c6N)C5)n4)CC3)ccc2CC1C(=O)NC1CCCc2ccccc21)C(C)(C)C

> <Shape>
0.220

> <Color>
0.076

> <Negative vol penalty>
0.000

$$$$

  -OEChem-04052322553D

 84 92  0     1  0  0  0  0  0999 V2000
  -25.8775  -34.9216   24.3816 C   0  0  0  0  0  0  0  0  0  0  0  0
  -26.4489  -33.7208   23.9728 C   0  0  0  0  0  0  0  0  0  0  0  0
  -26.7378  -11.7535   21.6160 C   0  0  0  0  0  0  0  0  0  0  0  0
  -26.9134  -10.9976   19.3281 C   0  0  0  0  0  0  0  0  0  0  0  0
  -24.5549  -34.9487   24.8218 C   0  0  0  0  0  0  0  0  0  0  0  0
  -25.6981  -32.5462   24.0050 C   0  0  0  0  0  0  0  0  0  0  0  0
  -26.2427  -29.7767   19.8004 C   0  0  0  0  0  0  0  0  0  0  0  0
  -25.7142  -10.8332   21.8416 C   0  0  0  0  0  0  0  0  0  0  0  0
  -25.8898  -10.0772   19.5536 C   0  0  0  0  0  0  0  0  0  0  0  0
  -27.4079  -29.0202   19.6827 C   0  0  0  0  0  0  0  0  0  0  0  0
  -25.4331   -7.5177   22.4424 C   0  0  0  0  0  0  0  0  0  0  0  0
  -25.4849   -6.7651   23.6156 C   0  0  0  0  0  0  0  0  0  0  0  0
  -26.1945  -27.0542   20.3768 C   0  0  0  0  0  0  0  0  0  0  0  0
  -23.3541   -7.6786   24.2957 C   0  0  0  0  0  0  0  0  0  0  0  0
  -27.3374  -11.8357   20.3593 C   0  0  0  0  0  0  0  0  0  0  0  0
  -29.7763  -12.5812   20.2992 C   0  0  0  0  0  0  0  0  0  0  0  0
  -23.7846  -33.7755   24.8503 C   0  0  0  0  0  0  0  0  0  0  0  0
  -25.0451  -29.1788   20.2184 C   0  0  0  0  0  0  0  0  0  0  0  0
  -24.3644  -32.5574   24.4473 C   0  0  0  0  0  0  0  0  0  0  0  0
  -25.0149  -27.8048   20.4965 C   0  0  0  0  0  0  0  0  0  0  0  0
  -25.2902   -9.9951   20.8104 C   0  0  0  0  0  0  0  0  0  0  0  0
  -27.3846  -27.6594   19.9737 C   0  0  0  0  0  0  0  0  0  0  0  0
  -24.3419   -8.3508   22.1958 C   0  0  0  0  0  0  0  0  0  0  0  0
  -24.4454   -6.8455   24.5422 C   0  0  0  0  0  0  0  0  0  0  0  0
  -23.3024   -8.4313   23.1224 C   0  0  0  0  0  0  0  0  0  0  0  0
  -28.3945  -12.7866   20.1255 C   0  0  0  0  0  0  0  0  0  0  0  0
  -30.3484  -13.7791   19.9464 C   0  0  0  0  0  0  0  0  0  0  0  0
  -30.4799  -11.4123   20.7399 C   0  0  0  0  0  0  0  0  0  0  0  0
  -23.0918  -29.5627   22.6965 C   0  0  0  0  0  0  0  0  0  0  0  0
  -21.2527  -27.4364   21.0781 C   0  0  0  0  0  0  0  0  0  0  0  0
  -21.0747  -24.9183   18.7816 C   0  0  0  0  0  0  0  0  0  0  0  0
  -28.3656  -19.2771   20.0440 C   0  0  0  0  0  0  0  0  0  0  0  0
  -22.3737  -33.8460   25.3788 C   0  0  0  0  0  0  0  0  0  0  0  0
  -23.7907  -30.0032   20.3146 C   0  0  0  0  0  0  0  0  0  0  0  0
  -23.7501  -27.1110   20.9295 C   0  0  0  0  0  0  0  0  0  0  0  0
  -21.5301  -32.6231   25.0281 C   0  0  0  0  0  0  0  0  0  0  0  0
  -29.6680  -17.5905   17.1592 C   0  0  0  0  0  0  0  0  0  0  0  0
  -22.3079  -31.3406   25.3054 C   0  0  0  0  0  0  0  0  0  0  0  0
  -29.5887  -16.1323   17.6039 C   0  0  0  0  0  0  0  0  0  0  0  0
  -27.3901  -22.8510   19.8538 C   0  0  0  0  0  0  0  0  0  0  0  0
  -28.4789  -18.4147   17.6567 C   0  0  0  0  0  0  0  0  0  0  0  0
  -27.0166  -20.8739   18.5883 C   0  0  0  0  0  0  0  0  0  0  0  0
  -28.1794  -16.8577   19.5617 C   0  0  0  0  0  0  0  0  0  0  0  0
  -23.5746  -31.2665   24.4442 C   0  0  1  0  0  0  0  0  0  0  0  0
  -22.7454  -29.3944   21.2441 C   0  0  1  0  0  0  0  0  0  0  0  0
  -26.2766  -22.0950   19.1294 C   0  0  2  0  0  0  0  0  0  0  0  0
  -29.4023  -16.0374   19.1270 C   0  0  1  0  0  0  0  0  0  0  0  0
  -28.2107  -21.7277   20.4971 C   0  0  2  0  0  0  0  0  0  0  0  0
  -25.5997  -22.9165   18.0468 C   0  0  0  0  0  0  0  0  0  0  0  0
  -19.4403  -23.3529   17.6974 C   0  0  0  0  0  0  0  0  0  0  0  0
  -30.9858  -24.8915   23.9770 C   0  0  0  0  0  0  0  0  0  0  0  0
  -21.1852  -25.7502   23.6201 C   0  0  0  0  0  0  0  0  0  0  0  0
  -20.3862  -23.8224   22.2368 C   0  0  0  0  0  0  0  0  0  0  0  0
  -19.0043  -25.8924   22.4044 C   0  0  0  0  0  0  0  0  0  0  0  0
  -21.6430  -26.0051   16.0881 C   0  0  0  0  0  0  0  0  0  0  0  0
  -29.6818  -22.1012   20.6246 C   0  0  0  0  0  0  0  0  0  0  0  0
  -30.7560  -26.5964   20.6737 C   0  0  0  0  0  0  0  0  0  0  0  0
  -31.1917  -23.7842   21.6861 C   0  0  0  0  0  0  0  0  0  0  0  0
  -29.7587  -27.5869   20.0926 C   0  0  0  0  0  0  0  0  0  1  0  0
  -21.1357  -25.9317   21.0451 C   0  0  1  0  0  0  0  0  0  0  0  0
  -20.1473  -24.6958   17.6005 C   0  0  2  0  0  0  0  0  0  0  0  0
  -31.2202  -25.0884   22.4823 C   0  0  1  0  0  0  0  0  0  0  0  0
  -20.4523  -25.3623   22.3204 C   0  0  0  0  0  0  0  0  0  0  0  0
  -28.1061  -14.0180   19.6960 N   0  0  0  0  0  0  0  0  0  0  0  0
  -29.3147  -14.5973   19.5969 N   0  0  0  0  0  0  0  0  0  0  0  0
  -22.5513  -27.9613   21.0147 N   0  0  0  0  0  0  0  0  0  0  0  0
  -28.2774  -18.2454   19.1007 N   0  0  0  0  0  0  0  0  0  0  0  0
  -27.9949  -20.5602   19.6328 N   0  0  0  0  0  0  0  0  0  0  0  0
  -31.6298  -14.2017   19.9044 N   0  0  0  0  0  0  0  0  0  0  0  0
  -29.7379  -10.2677   21.0619 N   0  0  0  0  0  0  0  0  0  0  0  0
  -23.2430  -30.8786   23.0900 N   0  0  0  0  0  0  0  0  0  0  0  0
  -20.4479  -25.6029   19.8012 N   0  0  0  0  0  0  0  0  0  0  0  0
  -30.2855  -26.0488   21.9440 N   0  0  0  0  0  0  0  0  0  0  0  0
  -20.9162  -24.7312   16.3244 N   0  3  0  0  0  0  0  0  0  0  0  0
  -29.7935  -23.3340   21.4328 N   0  3  0  0  0  0  0  0  0  0  0  0
  -31.7282  -11.3888   20.8607 O   0  0  0  0  0  0  0  0  0  0  0  0
  -23.2115  -28.5720   23.4078 O   0  0  0  0  0  0  0  0  0  0  0  0
  -20.2291  -28.1211   21.1501 O   0  0  0  0  0  0  0  0  0  0  0  0
  -22.2376  -24.5210   18.7995 O   0  0  0  0  0  0  0  0  0  0  0  0
  -28.7291  -19.0578   21.2069 O   0  0  0  0  0  0  0  0  0  0  0  0
  -24.2915   -9.0968   21.0302 O   0  0  0  0  0  0  0  0  0  0  0  0
  -28.5288  -26.9135   19.8595 O   0  0  0  0  0  0  0  0  0  1  0  0
  -24.4946   -6.1216   25.6681 F   0  0  0  0  0  0  0  0  0  0  0  0
  -22.2509   -9.2290   22.8905 F   0  0  0  0  0  0  0  0  0  0  0  0
  1  2  1  0  0  0  0
  1  5  2  0  0  0  0
  2  6  2  0  0  0  0
  3  8  2  0  0  0  0
  3 15  1  0  0  0  0
  4  9  1  0  0  0  0
  4 15  2  0  0  0  0
  5 17  1  0  0  0  0
  6 19  1  0  0  0  0
  7 10  2  0  0  0  0
  7 18  1  0  0  0  0
  8 21  1  0  0  0  0
  9 21  2  0  0  0  0
 10 22  1  0  0  0  0
 11 12  2  0  0  0  0
 11 23  1  0  0  0  0
 12 24  1  0  0  0  0
 13 20  1  0  0  0  0
 13 22  2  0  0  0  0
 14 24  2  0  0  0  0
 14 25  1  0  0  0  0
 15 26  1  0  0  0  0
 16 26  1  0  0  0  0
 16 27  2  0  0  0  0
 16 28  1  0  0  0  0
 17 19  2  0  0  0  0
 17 33  1  0  0  0  0
 18 20  2  0  0  0  0
 18 34  1  0  0  0  0
 19 44  1  0  0  0  0
 20 35  1  0  0  0  0
 21 81  1  0  0  0  0
 22 82  1  0  0  0  0
 23 25  2  0  0  0  0
 23 81  1  0  0  0  0
 24 83  1  0  0  0  0
 25 84  1  0  0  0  0
 26 64  2  0  0  0  0
 27 65  1  0  0  0  0
 27 69  1  0  0  0  0
 28 70  1  0  0  0  0
 28 76  2  0  0  0  0
 29 45  1  0  0  0  0
 29 71  1  0  0  0  0
 29 77  2  0  0  0  0
 30 60  1  0  0  0  0
 30 66  1  0  0  0  0
 30 78  2  0  0  0  0
 31 61  1  0  0  0  0
 31 72  1  0  0  0  0
 31 79  2  0  0  0  0
 32 67  1  0  0  0  0
 32 68  1  0  0  0  0
 32 80  2  0  0  0  0
 33 36  1  0  0  0  0
 34 45  1  0  0  0  0
 35 66  1  0  0  0  0
 36 38  1  0  0  0  0
 37 39  1  0  0  0  0
 37 41  1  0  0  0  0
 38 44  1  0  0  0  0
 39 47  1  0  0  0  0
 40 46  1  0  0  0  0
 40 48  1  0  0  0  0
 41 67  1  0  0  0  0
 42 46  1  0  0  0  0
 42 68  1  0  0  0  0
 43 47  1  0  0  0  0
 43 67  1  0  0  0  0
 44 71  1  0  0  0  0
 45 66  1  0  0  0  0
 46 49  1  0  0  0  0
 47 65  1  0  0  0  0
 48 56  1  0  0  0  0
 48 68  1  0  0  0  0
 50 61  1  0  0  0  0
 51 62  1  0  0  0  0
 52 63  1  0  0  0  0
 53 63  1  0  0  0  0
 54 63  1  0  0  0  0
 55 74  1  0  0  0  0
 56 75  1  0  0  0  0
 57 59  1  0  0  0  0
 57 73  1  0  0  0  0
 58 62  1  0  0  0  0
 58 75  1  0  0  0  0
 59 82  1  0  0  0  0
 60 63  1  0  0  0  0
 60 72  1  0  0  0  0
 61 74  1  0  0  0  0
 62 73  1  0  0  0  0
 64 65  1  0  0  0  0
M  CHG  2  74   1  75   1
M  ISO  4  32 100  59 101  68 100  82 101
M  END
> <Batch ID>
0178

> <Smiles>
CNC(C)C(=O)NC(C(=O)N1Cc2cc([101O:1][101CH2:1]CNC(C)CNCC3CC(C)C[100N:0]3[100C:0](=O)N3CCCC(n4nc(-c5ccc(Oc6ccc(F)cc6F)cc5)c(C(N)=O)c4N)C3)ccc2CC1C(=O)NC1CCCc2ccccc21)C(C)(C)C

> <Shape>
0.284

> <Color>
0.077

> <Negative vol penalty>
0.000

$$$$
