
  -OEChem-04052322573D

 85 94  0     1  0  0  0  0  0999 V2000
  -23.7615  -31.6098   27.1017 C   0  0  0  0  0  0  0  0  0  0  0  0
  -24.6871  -31.2540   26.1260 C   0  0  0  0  0  0  0  0  0  0  0  0
  -26.4359  -12.7937   21.5894 C   0  0  0  0  0  0  0  0  0  0  0  0
  -26.2098  -13.5108   19.2934 C   0  0  0  0  0  0  0  0  0  0  0  0
  -22.9453  -30.6356   27.6750 C   0  0  0  0  0  0  0  0  0  0  0  0
  -24.7979  -29.9235   25.7238 C   0  0  0  0  0  0  0  0  0  0  0  0
  -25.0911  -29.4330   20.6920 C   0  0  0  0  0  0  0  0  0  0  0  0
  -25.1795  -12.1914   21.5251 C   0  0  0  0  0  0  0  0  0  0  0  0
  -24.9533  -12.9084   19.2290 C   0  0  0  0  0  0  0  0  0  0  0  0
  -26.3212  -29.7080   20.0961 C   0  0  0  0  0  0  0  0  0  0  0  0
  -23.8446   -9.3390   20.2943 C   0  0  0  0  0  0  0  0  0  0  0  0
  -23.7134   -8.0552   20.8237 C   0  0  0  0  0  0  0  0  0  0  0  0
  -26.7880  -27.3440   19.9829 C   0  0  0  0  0  0  0  0  0  0  0  0
  -22.0553   -8.8673   22.3820 C   0  0  0  0  0  0  0  0  0  0  0  0
  -26.9510  -13.4535   20.4736 C   0  0  0  0  0  0  0  0  0  0  0  0
  -29.4905  -13.4883   20.2335 C   0  0  0  0  0  0  0  0  0  0  0  0
  -23.0394  -29.2940   27.2727 C   0  0  0  0  0  0  0  0  0  0  0  0
  -24.7044  -28.1097   20.9482 C   0  0  0  0  0  0  0  0  0  0  0  0
  -23.9831  -28.9302   26.2932 C   0  0  0  0  0  0  0  0  0  0  0  0
  -25.5515  -27.0547   20.5799 C   0  0  0  0  0  0  0  0  0  0  0  0
  -24.4382  -12.2487   20.3449 C   0  0  0  0  0  0  0  0  0  0  0  0
  -27.1711  -28.6635   19.7441 C   0  0  0  0  0  0  0  0  0  0  0  0
  -23.0813  -10.3870   20.8088 C   0  0  0  0  0  0  0  0  0  0  0  0
  -22.8187   -7.8193   21.8675 C   0  0  0  0  0  0  0  0  0  0  0  0
  -22.1866  -10.1511   21.8526 C   0  0  0  0  0  0  0  0  0  0  0  0
  -28.2486  -14.0764   20.5396 C   0  0  0  0  0  0  0  0  0  0  0  0
  -30.4071  -14.4871   20.4542 C   0  0  0  0  0  0  0  0  0  0  0  0
  -31.6125  -28.3908   22.4852 C   0  0  0  0  0  0  0  0  0  0  0  0
  -32.0079  -27.0836   22.0371 C   0  0  0  0  0  0  0  0  0  0  0  0
  -31.1446  -29.2799   21.6046 C   0  0  0  0  0  0  0  0  0  0  0  0
  -31.9200  -26.7263   20.7466 C   0  0  0  0  0  0  0  0  0  0  0  0
  -31.3940  -27.7226   19.7459 C   0  0  0  0  0  0  0  0  0  0  0  0
  -29.7888  -12.1582   19.7892 C   0  0  0  0  0  0  0  0  0  0  0  0
  -24.0220  -26.4387   23.5648 C   0  0  0  0  0  0  0  0  0  0  0  0
  -23.2149  -24.1450   21.4178 C   0  0  0  0  0  0  0  0  0  0  0  0
  -23.5821  -22.8564   18.2790 C   0  0  0  0  0  0  0  0  0  0  0  0
  -29.7245  -20.4127   20.3065 C   0  0  0  0  0  0  0  0  0  0  0  0
  -22.1688  -28.2688   27.9550 C   0  0  0  0  0  0  0  0  0  0  0  0
  -23.3627  -27.8286   21.5674 C   0  0  0  0  0  0  0  0  0  0  0  0
  -25.1742  -25.6157   20.8150 C   0  0  0  0  0  0  0  0  0  0  0  0
  -22.0885  -26.9417   27.2049 C   0  0  0  0  0  0  0  0  0  0  0  0
  -31.1382  -18.4025   23.0704 C   0  0  0  0  0  0  0  0  0  0  0  0
  -23.4791  -26.4883   26.7718 C   0  0  0  0  0  0  0  0  0  0  0  0
  -30.6073  -17.0154   22.7228 C   0  0  0  0  0  0  0  0  0  0  0  0
  -30.1648  -19.5093   22.6664 C   0  0  0  0  0  0  0  0  0  0  0  0
  -29.2301  -18.0592   20.8836 C   0  0  0  0  0  0  0  0  0  0  0  0
  -31.5521  -23.2313   19.3424 C   0  0  0  0  0  0  0  0  0  0  0  0
  -30.2032  -24.2012   20.6055 C   0  0  0  0  0  0  0  0  0  0  0  0
  -24.1158  -27.5013   25.8126 C   0  0  1  0  0  0  0  0  0  0  0  0
  -23.2936  -26.4664   22.2509 C   0  0  1  0  0  0  0  0  0  0  0  0
  -30.2214  -16.9407   21.2381 C   0  0  2  0  0  0  0  0  0  0  0  0
  -30.1588  -22.8485   19.8725 C   0  0  0  0  0  0  0  0  0  0  0  0
  -22.8236  -20.9535   16.8296 C   0  0  0  0  0  0  0  0  0  0  0  0
  -25.0910  -22.2605   22.9141 C   0  0  0  0  0  0  0  0  0  0  0  0
  -25.0308  -20.7365   20.9287 C   0  0  0  0  0  0  0  0  0  0  0  0
  -22.9335  -21.2250   22.1878 C   0  0  0  0  0  0  0  0  0  0  0  0
  -22.3473  -24.6929   16.3140 C   0  0  0  0  0  0  0  0  0  0  0  0
  -32.3206  -25.3769   20.2398 C   0  0  0  0  0  0  0  0  0  0  0  0
  -30.5082  -30.0124   19.3773 C   0  0  0  0  0  0  0  0  0  0  0  0
  -29.0031  -30.1617   19.5089 C   0  0  0  0  0  0  0  0  0  1  0  0
  -23.9492  -23.0213   20.7270 C   0  0  1  0  0  0  0  0  0  0  0  0
  -22.5622  -22.3897   17.2561 C   0  0  2  0  0  0  0  0  0  0  0  0
  -24.2594  -21.8379   21.6866 C   0  0  0  0  0  0  0  0  0  0  0  0
  -28.3624  -15.3500   20.9256 N   0  0  0  0  0  0  0  0  0  0  0  0
  -29.6866  -15.5704   20.8636 N   0  0  0  0  0  0  0  0  0  0  0  0
  -31.0225  -28.9892   20.2484 N   0  0  0  0  0  0  0  0  0  0  0  0
  -23.8548  -25.3925   21.4288 N   0  0  0  0  0  0  0  0  0  0  0  0
  -29.7459  -19.3806   21.2616 N   0  0  0  0  0  0  0  0  0  0  0  0
  -31.7510  -14.5356   20.3363 N   0  0  0  0  0  0  0  0  0  0  0  0
  -28.7283  -11.2588   19.6135 N   0  0  0  0  0  0  0  0  0  0  0  0
  -23.5581  -27.3596   24.4847 N   0  0  0  0  0  0  0  0  0  0  0  0
  -23.1399  -22.6556   19.5695 N   0  0  0  0  0  0  0  0  0  0  0  0
  -30.1343  -21.6644   20.7553 N   0  0  0  0  0  0  0  0  0  0  0  0
  -31.2017  -24.6403   19.6104 N   0  3  0  0  0  0  0  0  0  0  0  0
  -22.6102  -23.2559   16.0444 N   0  3  0  0  0  0  0  0  0  0  0  0
  -31.3102  -27.4032   18.5601 O   0  0  0  0  0  0  0  0  0  0  0  0
  -30.9626  -11.7735   19.5706 O   0  0  0  0  0  0  0  0  0  0  0  0
  -24.9361  -25.6400   23.7321 O   0  0  0  0  0  0  0  0  0  0  0  0
  -22.1109  -23.9257   21.9226 O   0  0  0  0  0  0  0  0  0  0  0  0
  -24.6645  -23.3465   17.9648 O   0  0  0  0  0  0  0  0  0  0  0  0
  -29.3606  -20.2398   19.1382 O   0  0  0  0  0  0  0  0  0  0  0  0
  -23.2122  -11.6608   20.2817 O   0  0  0  0  0  0  0  0  0  0  0  0
  -28.3726  -28.9292   19.1629 O   0  0  0  0  0  0  0  0  0  1  0  0
  -22.6916   -6.5862   22.3747 F   0  0  0  0  0  0  0  0  0  0  0  0
  -21.4497  -11.1537   22.3503 F   0  0  0  0  0  0  0  0  0  0  0  0
  1  2  1  0  0  0  0
  1  5  2  0  0  0  0
  2  6  2  0  0  0  0
  3  8  2  0  0  0  0
  3 15  1  0  0  0  0
  4  9  1  0  0  0  0
  4 15  2  0  0  0  0
  5 17  1  0  0  0  0
  6 19  1  0  0  0  0
  7 10  2  0  0  0  0
  7 18  1  0  0  0  0
  8 21  1  0  0  0  0
  9 21  2  0  0  0  0
 10 22  1  0  0  0  0
 11 12  2  0  0  0  0
 11 23  1  0  0  0  0
 12 24  1  0  0  0  0
 13 20  1  0  0  0  0
 13 22  2  0  0  0  0
 14 24  2  0  0  0  0
 14 25  1  0  0  0  0
 15 26  1  0  0  0  0
 16 26  1  0  0  0  0
 16 27  2  0  0  0  0
 16 33  1  0  0  0  0
 17 19  2  0  0  0  0
 17 38  1  0  0  0  0
 18 20  2  0  0  0  0
 18 39  1  0  0  0  0
 19 49  1  0  0  0  0
 20 40  1  0  0  0  0
 21 82  1  0  0  0  0
 22 83  1  0  0  0  0
 23 25  2  0  0  0  0
 23 82  1  0  0  0  0
 24 84  1  0  0  0  0
 25 85  1  0  0  0  0
 26 64  2  0  0  0  0
 27 65  1  0  0  0  0
 27 69  1  0  0  0  0
 28 29  1  0  0  0  0
 28 30  2  0  0  0  0
 29 31  2  0  0  0  0
 30 66  1  0  0  0  0
 31 32  1  0  0  0  0
 31 58  1  0  0  0  0
 32 66  1  0  0  0  0
 32 76  2  0  0  0  0
 33 70  1  0  0  0  0
 33 77  2  0  0  0  0
 34 50  1  0  0  0  0
 34 71  1  0  0  0  0
 34 78  2  0  0  0  0
 35 61  1  0  0  0  0
 35 67  1  0  0  0  0
 35 79  2  0  0  0  0
 36 62  1  0  0  0  0
 36 72  1  0  0  0  0
 36 80  2  0  0  0  0
 37 68  1  0  0  0  0
 37 73  1  0  0  0  0
 37 81  2  0  0  0  0
 38 41  1  0  0  0  0
 39 50  1  0  0  0  0
 40 67  1  0  0  0  0
 41 43  1  0  0  0  0
 42 44  1  0  0  0  0
 42 45  1  0  0  0  0
 43 49  1  0  0  0  0
 44 51  1  0  0  0  0
 45 68  1  0  0  0  0
 46 51  1  0  0  0  0
 46 68  1  0  0  0  0
 47 52  1  0  0  0  0
 47 74  1  0  0  0  0
 48 52  1  0  0  0  0
 48 74  1  0  0  0  0
 49 71  1  0  0  0  0
 50 67  1  0  0  0  0
 51 65  1  0  0  0  0
 52 73  1  0  0  0  0
 53 62  1  0  0  0  0
 54 63  1  0  0  0  0
 55 63  1  0  0  0  0
 56 63  1  0  0  0  0
 57 75  1  0  0  0  0
 58 74  1  0  0  0  0
 59 60  1  0  0  0  0
 59 66  1  0  0  0  0
 60 83  1  0  0  0  0
 61 63  1  0  0  0  0
 61 72  1  0  0  0  0
 62 75  1  0  0  0  0
 64 65  1  0  0  0  0
M  CHG  2  74   1  75   1
M  ISO  4  37 100  60 101  73 100  83 101
M  END
> <Batch ID>
0179

> <Smiles>
CNC(C)C(=O)NC(C(=O)N1Cc2cc([101O:1][101CH2:1]Cn3cccc(CN4CC([100NH:0][100C:0](=O)N5CCCC(n6nc(-c7ccc(Oc8ccc(F)cc8F)cc7)c(C(N)=O)c6N)C5)C4)c3=O)ccc2CC1C(=O)NC1CCCc2ccccc21)C(C)(C)C

> <Shape>
0.230

> <Color>
0.074

> <Negative vol penalty>
0.000

$$$$

  -OEChem-04052322573D

 82 91  0     1  0  0  0  0  0999 V2000
  -19.8334  -20.9396   19.9656 C   0  0  0  0  0  0  0  0  0  0  0  0
  -21.0856  -21.4782   19.6875 C   0  0  0  0  0  0  0  0  0  0  0  0
  -26.2662  -13.0021   21.6510 C   0  0  0  0  0  0  0  0  0  0  0  0
  -25.8287  -13.8625   19.4362 C   0  0  0  0  0  0  0  0  0  0  0  0
  -18.7031  -21.7555   19.9381 C   0  0  0  0  0  0  0  0  0  0  0  0
  -21.2081  -22.8329   19.3805 C   0  0  0  0  0  0  0  0  0  0  0  0
  -25.0769  -25.0305   21.7987 C   0  0  0  0  0  0  0  0  0  0  0  0
  -25.0663  -12.2919   21.6121 C   0  0  0  0  0  0  0  0  0  0  0  0
  -24.6288  -13.1523   19.3973 C   0  0  0  0  0  0  0  0  0  0  0  0
  -26.3555  -24.8070   21.2897 C   0  0  0  0  0  0  0  0  0  0  0  0
  -23.9112   -9.4263   20.2383 C   0  0  0  0  0  0  0  0  0  0  0  0
  -23.9285   -8.1004   20.6707 C   0  0  0  0  0  0  0  0  0  0  0  0
  -26.2932  -26.9602   20.2039 C   0  0  0  0  0  0  0  0  0  0  0  0
  -22.3102   -8.6375   22.3823 C   0  0  0  0  0  0  0  0  0  0  0  0
  -28.3262  -21.4406   17.2306 C   0  0  0  0  0  0  0  0  0  0  0  0
  -26.6474  -13.7875   20.5631 C   0  0  0  0  0  0  0  0  0  0  0  0
  -29.1528  -14.0760   20.1793 C   0  0  0  0  0  0  0  0  0  0  0  0
  -18.8131  -23.1229   19.6401 C   0  0  0  0  0  0  0  0  0  0  0  0
  -24.3914  -26.2180   21.5046 C   0  0  0  0  0  0  0  0  0  0  0  0
  -20.0781  -23.6676   19.3477 C   0  0  0  0  0  0  0  0  0  0  0  0
  -25.0071  -27.1975   20.7125 C   0  0  0  0  0  0  0  0  0  0  0  0
  -24.2477  -12.3669   20.4853 C   0  0  0  0  0  0  0  0  0  0  0  0
  -26.9627  -25.7706   20.4898 C   0  0  0  0  0  0  0  0  0  0  0  0
  -23.0935  -10.3580   20.8779 C   0  0  0  0  0  0  0  0  0  0  0  0
  -23.1280   -7.7059   21.7427 C   0  0  0  0  0  0  0  0  0  0  0  0
  -22.2929   -9.9635   21.9499 C   0  0  0  0  0  0  0  0  0  0  0  0
  -27.8865  -14.5218   20.6029 C   0  0  0  0  0  0  0  0  0  0  0  0
  -28.7230  -23.5594   16.4673 C   0  0  0  0  0  0  0  0  0  0  0  0
  -29.1329  -23.9366   17.7271 C   0  0  0  0  0  0  0  0  0  0  0  0
  -28.7367  -21.8175   18.4903 C   0  0  0  0  0  0  0  0  0  0  0  0
  -29.9901  -15.1366   20.4251 C   0  0  0  0  0  0  0  0  0  0  0  0
  -29.5378  -12.8158   19.6141 C   0  0  0  0  0  0  0  0  0  0  0  0
  -21.6825  -26.9310   20.0021 C   0  0  0  0  0  0  0  0  0  0  0  0
  -22.3514  -29.9303   21.0410 C   0  0  0  0  0  0  0  0  0  0  0  0
  -24.6974  -32.1809   22.0792 C   0  0  0  0  0  0  0  0  0  0  0  0
  -29.0957  -21.0290   20.8558 C   0  0  0  0  0  0  0  0  0  0  0  0
  -17.5570  -23.9552   19.5760 C   0  0  0  0  0  0  0  0  0  0  0  0
  -23.0235  -26.4554   22.0834 C   0  0  0  0  0  0  0  0  0  0  0  0
  -24.3217  -28.4979   20.3841 C   0  0  0  0  0  0  0  0  0  0  0  0
  -17.8200  -25.4585   19.6092 C   0  0  0  0  0  0  0  0  0  0  0  0
  -30.5075  -18.9024   23.3381 C   0  0  0  0  0  0  0  0  0  0  0  0
  -18.9417  -25.8257   18.6428 C   0  0  0  0  0  0  0  0  0  0  0  0
  -27.5198  -25.4299   15.1530 C   0  0  0  0  0  0  0  0  0  0  0  0
  -27.7764  -24.3174   14.1852 C   0  0  0  0  0  0  0  0  0  0  0  0
  -30.1160  -17.4968   22.8765 C   0  0  0  0  0  0  0  0  0  0  0  0
  -29.4026  -19.9195   23.0581 C   0  0  0  0  0  0  0  0  0  0  0  0
  -28.5324  -18.5443   21.2086 C   0  0  0  0  0  0  0  0  0  0  0  0
  -20.2548  -25.1376   19.0347 C   0  0  1  0  0  0  0  0  0  0  0  0
  -28.7177  -24.5367   15.3402 C   0  0  0  0  0  0  0  0  0  0  0  0
  -22.2116  -27.4799   21.2969 C   0  0  1  0  0  0  0  0  0  0  0  0
  -29.6399  -17.4971   21.4107 C   0  0  2  0  0  0  0  0  0  0  0  0
  -24.9470  -34.5644   22.8237 C   0  0  0  0  0  0  0  0  0  0  0  0
  -22.0652  -30.8609   18.1493 C   0  0  0  0  0  0  0  0  0  0  0  0
  -23.2308  -32.9821   18.7897 C   0  0  0  0  0  0  0  0  0  0  0  0
  -21.0480  -32.3933   19.8438 C   0  0  0  0  0  0  0  0  0  0  0  0
  -25.7328  -31.3665   24.7294 C   0  0  0  0  0  0  0  0  0  0  0  0
  -29.5908  -25.3446   18.0208 C   0  0  0  0  0  0  0  0  0  0  0  0
  -28.5237  -26.1634   18.7391 C   0  0  0  0  0  0  0  0  0  1  0  0
  -23.1246  -31.1046   20.4911 C   0  0  1  0  0  0  0  0  0  0  0  0
  -24.7306  -33.1258   23.2669 C   0  0  2  0  0  0  0  0  0  0  0  0
  -22.3795  -31.8100   19.3229 C   0  0  0  0  0  0  0  0  0  0  0  0
  -28.3120  -22.3048   16.1964 N   0  0  0  0  0  0  0  0  0  0  0  0
  -27.9122  -15.7684   21.0816 N   0  0  0  0  0  0  0  0  0  0  0  0
  -29.1474  -23.0723   18.7612 N   0  0  0  0  0  0  0  0  0  0  0  0
  -29.2050  -16.1150   20.9604 N   0  0  0  0  0  0  0  0  0  0  0  0
  -22.9828  -28.6805   20.9684 N   0  0  0  0  0  0  0  0  0  0  0  0
  -29.0055  -19.8659   21.6495 N   0  0  0  0  0  0  0  0  0  0  0  0
  -31.3140  -15.3185   20.2334 N   0  0  0  0  0  0  0  0  0  0  0  0
  -28.5517  -11.8371   19.4295 N   0  0  0  0  0  0  0  0  0  0  0  0
  -28.7219  -20.8490   19.5245 N   0  0  0  0  0  0  0  0  0  0  0  0
  -20.8709  -25.8226   20.1508 N   0  0  0  0  0  0  0  0  0  0  0  0
  -23.4112  -31.9729   21.6279 N   0  0  0  0  0  0  0  0  0  0  0  0
  -25.8325  -32.7499   24.1973 N   0  3  0  0  0  0  0  0  0  0  0  0
  -30.7243  -12.5592   19.2979 O   0  0  0  0  0  0  0  0  0  0  0  0
  -21.9869  -27.4739   18.9465 O   0  0  0  0  0  0  0  0  0  0  0  0
  -21.2316  -30.1162   21.5238 O   0  0  0  0  0  0  0  0  0  0  0  0
  -25.7114  -31.6805   21.5976 O   0  0  0  0  0  0  0  0  0  0  0  0
  -29.5024  -22.0988   21.3162 O   0  0  0  0  0  0  0  0  0  0  0  0
  -23.0769  -11.6739   20.4469 O   0  0  0  0  0  0  0  0  0  0  0  0
  -28.2103  -25.5547   19.9912 O   0  0  0  0  0  0  0  0  0  1  0  0
  -23.1435   -6.4322   22.1568 F   0  0  0  0  0  0  0  0  0  0  0  0
  -21.5044  -10.8537   22.5675 F   0  0  0  0  0  0  0  0  0  0  0  0
  1  2  1  0  0  0  0
  1  5  2  0  0  0  0
  2  6  2  0  0  0  0
  3  8  2  0  0  0  0
  3 16  1  0  0  0  0
  4  9  1  0  0  0  0
  4 16  2  0  0  0  0
  5 18  1  0  0  0  0
  6 20  1  0  0  0  0
  7 10  2  0  0  0  0
  7 19  1  0  0  0  0
  8 22  1  0  0  0  0
  9 22  2  0  0  0  0
 10 23  1  0  0  0  0
 11 12  2  0  0  0  0
 11 24  1  0  0  0  0
 12 25  1  0  0  0  0
 13 21  1  0  0  0  0
 13 23  2  0  0  0  0
 14 25  2  0  0  0  0
 14 26  1  0  0  0  0
 15 30  1  0  0  0  0
 15 62  2  0  0  0  0
 16 27  1  0  0  0  0
 17 27  1  0  0  0  0
 17 31  2  0  0  0  0
 17 32  1  0  0  0  0
 18 20  2  0  0  0  0
 18 37  1  0  0  0  0
 19 21  2  0  0  0  0
 19 38  1  0  0  0  0
 20 48  1  0  0  0  0
 21 39  1  0  0  0  0
 22 79  1  0  0  0  0
 23 80  1  0  0  0  0
 24 26  2  0  0  0  0
 24 79  1  0  0  0  0
 25 81  1  0  0  0  0
 26 82  1  0  0  0  0
 27 63  2  0  0  0  0
 28 29  2  0  0  0  0
 28 49  1  0  0  0  0
 28 62  1  0  0  0  0
 29 57  1  0  0  0  0
 29 64  1  0  0  0  0
 30 64  2  0  0  0  0
 30 70  1  0  0  0  0
 31 65  1  0  0  0  0
 31 68  1  0  0  0  0
 32 69  1  0  0  0  0
 32 74  2  0  0  0  0
 33 50  1  0  0  0  0
 33 71  1  0  0  0  0
 33 75  2  0  0  0  0
 34 59  1  0  0  0  0
 34 66  1  0  0  0  0
 34 76  2  0  0  0  0
 35 60  1  0  0  0  0
 35 72  1  0  0  0  0
 35 77  2  0  0  0  0
 36 67  1  0  0  0  0
 36 70  1  0  0  0  0
 36 78  2  0  0  0  0
 37 40  1  0  0  0  0
 38 50  1  0  0  0  0
 39 66  1  0  0  0  0
 40 42  1  0  0  0  0
 41 45  1  0  0  0  0
 41 46  1  0  0  0  0
 42 48  1  0  0  0  0
 43 44  1  0  0  0  0
 43 49  1  0  0  0  0
 44 49  1  0  0  0  0
 45 51  1  0  0  0  0
 46 67  1  0  0  0  0
 47 51  1  0  0  0  0
 47 67  1  0  0  0  0
 48 71  1  0  0  0  0
 50 66  1  0  0  0  0
 51 65  1  0  0  0  0
 52 60  1  0  0  0  0
 53 61  1  0  0  0  0
 54 61  1  0  0  0  0
 55 61  1  0  0  0  0
 56 73  1  0  0  0  0
 57 58  1  0  0  0  0
 58 80  1  0  0  0  0
 59 61  1  0  0  0  0
 59 72  1  0  0  0  0
 60 73  1  0  0  0  0
 63 65  1  0  0  0  0
M  CHG  1  73   1
M  ISO  4  36 100  58 101  70 100  80 101
M  END
> <Batch ID>
0179

> <Smiles>
CNC(C)C(=O)NC(C(=O)N1Cc2cc([101O:1][101CH2:1]Cc3nc([100NH:0][100C:0](=O)N4CCCC(n5nc(-c6ccc(Oc7ccc(F)cc7F)cc6)c(C(N)=O)c5N)C4)cnc3C3CC3)ccc2CC1C(=O)NC1CCCc2ccccc21)C(C)(C)C

> <Shape>
0.268

> <Color>
0.071

> <Negative vol penalty>
0.000

$$$$

  -OEChem-04052322573D

 87 97  0     1  0  0  0  0  0999 V2000
  -27.4359  -32.8891   26.7827 C   0  0  0  0  0  0  0  0  0  0  0  0
  -27.9759  -31.7651   26.1658 C   0  0  0  0  0  0  0  0  0  0  0  0
  -23.0429  -10.7775   21.0256 C   0  0  0  0  0  0  0  0  0  0  0  0
  -24.1155   -8.6864   21.5859 C   0  0  0  0  0  0  0  0  0  0  0  0
  -26.0719  -33.1556   26.6727 C   0  0  0  0  0  0  0  0  0  0  0  0
  -27.1517  -30.9064   25.4393 C   0  0  0  0  0  0  0  0  0  0  0  0
  -28.6287  -27.7950   20.3754 C   0  0  0  0  0  0  0  0  0  0  0  0
  -21.8753  -10.0900   20.6946 C   0  0  0  0  0  0  0  0  0  0  0  0
  -22.9478   -7.9989   21.2550 C   0  0  0  0  0  0  0  0  0  0  0  0
  -29.0251  -26.4746   20.1679 C   0  0  0  0  0  0  0  0  0  0  0  0
  -19.2722   -8.6734   22.3226 C   0  0  0  0  0  0  0  0  0  0  0  0
  -18.0629   -9.1862   22.7918 C   0  0  0  0  0  0  0  0  0  0  0  0
  -29.7716  -21.4508   19.6527 C   0  0  0  0  0  0  0  0  0  0  0  0
  -26.7457  -25.8779   19.6506 C   0  0  0  0  0  0  0  0  0  0  0  0
  -17.2842   -9.4306   20.5178 C   0  0  0  0  0  0  0  0  0  0  0  0
  -30.8773  -20.1239   17.9914 C   0  0  0  0  0  0  0  0  0  0  0  0
  -24.1630  -10.0758   21.4712 C   0  0  0  0  0  0  0  0  0  0  0  0
  -25.7231  -11.3041   23.0728 C   0  0  0  0  0  0  0  0  0  0  0  0
  -25.2323  -32.3050   25.9364 C   0  0  0  0  0  0  0  0  0  0  0  0
  -27.2837  -28.1652   20.2324 C   0  0  0  0  0  0  0  0  0  0  0  0
  -25.7749  -31.1611   25.3204 C   0  0  0  0  0  0  0  0  0  0  0  0
  -30.1840  -20.2007   19.1985 C   0  0  0  0  0  0  0  0  0  0  0  0
  -30.0609  -22.5539   18.8732 C   0  0  0  0  0  0  0  0  0  0  0  0
  -26.3352  -27.2043   19.8543 C   0  0  0  0  0  0  0  0  0  0  0  0
  -21.8278   -8.7007   20.8093 C   0  0  0  0  0  0  0  0  0  0  0  0
  -28.0831  -25.5152   19.8083 C   0  0  0  0  0  0  0  0  0  0  0  0
  -19.4876   -8.5394   20.9509 C   0  0  0  0  0  0  0  0  0  0  0  0
  -17.0689   -9.5647   21.8895 C   0  0  0  0  0  0  0  0  0  0  0  0
  -18.4936   -8.9179   20.0486 C   0  0  0  0  0  0  0  0  0  0  0  0
  -25.3696  -10.7854   21.8127 C   0  0  0  0  0  0  0  0  0  0  0  0
  -30.7608  -22.3755   17.6813 C   0  0  0  0  0  0  0  0  0  0  0  0
  -26.9536  -11.8809   22.8739 C   0  0  0  0  0  0  0  0  0  0  0  0
  -25.0035  -11.2677   24.3124 C   0  0  0  0  0  0  0  0  0  0  0  0
  -25.0675  -29.3595   22.1729 C   0  0  0  0  0  0  0  0  0  0  0  0
  -23.3234  -29.5254   19.4429 C   0  0  0  0  0  0  0  0  0  0  0  0
  -22.7768  -28.3681   16.2793 C   0  0  0  0  0  0  0  0  0  0  0  0
  -30.5006  -14.8922   19.9805 C   0  0  0  0  0  0  0  0  0  0  0  0
  -23.7558  -32.6086   25.8852 C   0  0  0  0  0  0  0  0  0  0  0  0
  -26.8767  -29.5992   20.4336 C   0  0  0  0  0  0  0  0  0  0  0  0
  -24.8822  -27.5545   19.6681 C   0  0  0  0  0  0  0  0  0  0  0  0
  -23.0163  -31.8522   24.7846 C   0  0  0  0  0  0  0  0  0  0  0  0
  -30.1330  -11.6106   18.9585 C   0  0  0  0  0  0  0  0  0  0  0  0
  -23.4190  -30.3809   24.7847 C   0  0  0  0  0  0  0  0  0  0  0  0
  -28.8905  -11.1331   19.7099 C   0  0  0  0  0  0  0  0  0  0  0  0
  -28.9842  -17.9690   19.2377 C   0  0  0  0  0  0  0  0  0  0  0  0
  -31.1805  -18.2456   20.4663 C   0  0  0  0  0  0  0  0  0  0  0  0
  -29.9696  -24.5900   17.7219 C   0  0  0  0  0  0  0  0  0  0  0  0
  -29.9457  -13.0327   18.4426 C   0  0  0  0  0  0  0  0  0  0  0  0
  -28.7197  -16.6936   20.0430 C   0  0  0  0  0  0  0  0  0  0  0  0
  -30.8532  -16.9830   21.2583 C   0  0  0  0  0  0  0  0  0  0  0  0
  -28.3638  -13.5579   20.2701 C   0  0  0  0  0  0  0  0  0  0  0  0
  -29.8915  -18.9487   20.0036 C   0  0  0  0  0  0  0  0  0  0  0  0
  -24.9177  -30.2192   24.5030 C   0  0  1  0  0  0  0  0  0  0  0  0
  -29.7863  -23.9996   19.1318 C   0  0  1  0  0  0  0  0  0  1  0  0
  -25.3956  -29.7595   20.7622 C   0  0  1  0  0  0  0  0  0  0  0  0
  -28.5014  -12.1241   20.8212 C   0  0  1  0  0  0  0  0  0  0  0  0
  -31.0204  -23.7061   17.0010 C   0  0  0  0  0  0  0  0  0  0  0  0
  -32.4500  -24.1796   17.2844 C   0  0  0  0  0  0  0  0  0  0  0  0
  -30.7603  -23.6542   15.4950 C   0  0  0  0  0  0  0  0  0  0  0  0
  -21.2553  -28.6701   14.3067 C   0  0  0  0  0  0  0  0  0  0  0  0
  -21.1395  -27.9624   20.8912 C   0  0  0  0  0  0  0  0  0  0  0  0
  -20.1047  -27.4792   18.6632 C   0  0  0  0  0  0  0  0  0  0  0  0
  -20.3064  -29.8350   19.4582 C   0  0  0  0  0  0  0  0  0  0  0  0
  -25.0168  -29.1963   14.5312 C   0  0  0  0  0  0  0  0  0  0  0  0
  -22.3814  -28.5948   18.7178 C   0  0  1  0  0  0  0  0  0  0  0  0
  -22.5590  -29.0949   14.9644 C   0  0  2  0  0  0  0  0  0  0  0  0
  -21.0100  -28.4605   19.4379 C   0  0  0  0  0  0  0  0  0  0  0  0
  -31.1866  -21.1885   17.2136 N   0  0  0  0  0  0  0  0  0  0  0  0
  -26.3003  -11.0128   20.8821 N   0  0  0  0  0  0  0  0  0  0  0  0
  -27.2507  -11.6808   21.5579 N   0  0  0  0  0  0  0  0  0  0  0  0
  -24.5327  -28.9685   19.8825 N   0  0  0  0  0  0  0  0  0  0  0  0
  -29.5737  -13.9419   19.5264 N   0  0  0  0  0  0  0  0  0  0  0  0
  -29.9829  -16.0917   20.4919 N   0  0  0  0  0  0  0  0  0  0  0  0
  -27.7996  -12.5349   23.6979 N   0  0  0  0  0  0  0  0  0  0  0  0
  -23.7532  -10.6349   24.3408 N   0  0  0  0  0  0  0  0  0  0  0  0
  -25.1873  -30.3854   23.0909 N   0  0  0  0  0  0  0  0  0  0  0  0
  -22.2914  -29.0906   17.3487 N   0  0  0  0  0  0  0  0  0  0  0  0
  -23.6767  -28.8067   14.0218 N   0  3  0  0  0  0  0  0  0  0  0  0
  -25.4484  -11.7954   25.3598 O   0  0  0  0  0  0  0  0  0  0  0  0
  -24.7291  -28.2060   22.4107 O   0  0  0  0  0  0  0  0  0  0  0  0
  -23.0012  -30.7048   19.6068 O   0  0  0  0  0  0  0  0  0  0  0  0
  -23.3197  -27.2678   16.3501 O   0  0  0  0  0  0  0  0  0  0  0  0
  -31.7191  -14.6818   19.9328 O   0  0  0  0  0  0  0  0  0  0  0  0
  -20.6885   -8.0294   20.4867 O   0  0  0  0  0  0  0  0  0  0  0  0
  -28.4709  -24.2129   19.6039 O   0  0  0  0  0  0  0  0  0  1  0  0
  -15.9070  -10.0556   22.3403 F   0  0  0  0  0  0  0  0  0  0  0  0
  -18.6943   -8.7904   18.7298 F   0  0  0  0  0  0  0  0  0  0  0  0
  1  2  1  0  0  0  0
  1  5  2  0  0  0  0
  2  6  2  0  0  0  0
  3  8  2  0  0  0  0
  3 17  1  0  0  0  0
  4  9  1  0  0  0  0
  4 17  2  0  0  0  0
  5 19  1  0  0  0  0
  6 21  1  0  0  0  0
  7 10  2  0  0  0  0
  7 20  1  0  0  0  0
  8 25  1  0  0  0  0
  9 25  2  0  0  0  0
 10 26  1  0  0  0  0
 11 12  2  0  0  0  0
 11 27  1  0  0  0  0
 12 28  1  0  0  0  0
 13 22  2  0  0  0  0
 13 23  1  0  0  0  0
 14 24  1  0  0  0  0
 14 26  2  0  0  0  0
 15 28  2  0  0  0  0
 15 29  1  0  0  0  0
 16 22  1  0  0  0  0
 16 68  2  0  0  0  0
 17 30  1  0  0  0  0
 18 30  1  0  0  0  0
 18 32  2  0  0  0  0
 18 33  1  0  0  0  0
 19 21  2  0  0  0  0
 19 38  1  0  0  0  0
 20 24  2  0  0  0  0
 20 39  1  0  0  0  0
 21 53  1  0  0  0  0
 22 52  1  0  0  0  0
 23 31  2  0  0  0  0
 23 54  1  0  0  0  0
 24 40  1  0  0  0  0
 25 84  1  0  0  0  0
 26 85  1  0  0  0  0
 27 29  2  0  0  0  0
 27 84  1  0  0  0  0
 28 86  1  0  0  0  0
 29 87  1  0  0  0  0
 30 69  2  0  0  0  0
 31 57  1  0  0  0  0
 31 68  1  0  0  0  0
 32 70  1  0  0  0  0
 32 74  1  0  0  0  0
 33 75  1  0  0  0  0
 33 79  2  0  0  0  0
 34 55  1  0  0  0  0
 34 76  1  0  0  0  0
 34 80  2  0  0  0  0
 35 65  1  0  0  0  0
 35 71  1  0  0  0  0
 35 81  2  0  0  0  0
 36 66  1  0  0  0  0
 36 77  1  0  0  0  0
 36 82  2  0  0  0  0
 37 72  1  0  0  0  0
 37 73  1  0  0  0  0
 37 83  2  0  0  0  0
 38 41  1  0  0  0  0
 39 55  1  0  0  0  0
 40 71  1  0  0  0  0
 41 43  1  0  0  0  0
 42 44  1  0  0  0  0
 42 48  1  0  0  0  0
 43 53  1  0  0  0  0
 44 56  1  0  0  0  0
 45 49  1  0  0  0  0
 45 52  1  0  0  0  0
 46 50  1  0  0  0  0
 46 52  1  0  0  0  0
 47 54  1  0  0  0  0
 47 57  1  0  0  0  0
 48 72  1  0  0  0  0
 49 73  1  0  0  0  0
 50 73  1  0  0  0  0
 51 56  1  0  0  0  0
 51 72  1  0  0  0  0
 53 76  1  0  0  0  0
 54 85  1  0  0  0  0
 55 71  1  0  0  0  0
 56 70  1  0  0  0  0
 57 58  1  0  0  0  0
 57 59  1  0  0  0  0
 60 66  1  0  0  0  0
 61 67  1  0  0  0  0
 62 67  1  0  0  0  0
 63 67  1  0  0  0  0
 64 78  1  0  0  0  0
 65 67  1  0  0  0  0
 65 77  1  0  0  0  0
 66 78  1  0  0  0  0
 69 70  1  0  0  0  0
M  CHG  1  78   1
M  ISO  4  37 100  54 101  73 100  85 101
M  END
> <Batch ID>
0179

> <Smiles>
CNC(C)C(=O)NC(C(=O)N1Cc2cc([101O:1][101CH:1]3CC(C)(C)c4ncc(C5CC[100N:0]([100C:0](=O)N6CCCC(n7nc(-c8ccc(Oc9ccc(F)cc9F)cc8)c(C(N)=O)c7N)C6)CC5)cc43)ccc2CC1C(=O)NC1CCCc2ccccc21)C(C)(C)C

> <Shape>
0.294

> <Color>
0.085

> <Negative vol penalty>
0.000

$$$$

  -OEChem-04052322573D

 86 95  0     1  0  0  0  0  0999 V2000
  -17.2931  -29.9170   24.7152 C   0  0  0  0  0  0  0  0  0  0  0  0
  -18.1673  -28.9066   25.1027 C   0  0  0  0  0  0  0  0  0  0  0  0
  -23.5113  -10.0446   22.3958 C   0  0  0  0  0  0  0  0  0  0  0  0
  -23.9444  -11.6323   24.1646 C   0  0  0  0  0  0  0  0  0  0  0  0
  -17.3046  -30.3809   23.4004 C   0  0  0  0  0  0  0  0  0  0  0  0
  -19.0528  -28.3587   24.1753 C   0  0  0  0  0  0  0  0  0  0  0  0
  -25.6219  -25.5380   23.7201 C   0  0  0  0  0  0  0  0  0  0  0  0
  -22.8614   -9.2095   23.3045 C   0  0  0  0  0  0  0  0  0  0  0  0
  -23.2944  -10.7972   25.0733 C   0  0  0  0  0  0  0  0  0  0  0  0
  -26.2761  -24.4033   23.2423 C   0  0  0  0  0  0  0  0  0  0  0  0
  -23.7230   -6.9857   25.6996 C   0  0  0  0  0  0  0  0  0  0  0  0
  -24.0225   -5.6241   25.6562 C   0  0  0  0  0  0  0  0  0  0  0  0
  -26.2616  -25.3385   21.0187 C   0  0  0  0  0  0  0  0  0  0  0  0
  -21.7045   -5.1292   25.1883 C   0  0  0  0  0  0  0  0  0  0  0  0
  -24.0529  -11.2560   22.8258 C   0  0  0  0  0  0  0  0  0  0  0  0
  -24.1492  -13.1419   21.1106 C   0  0  0  0  0  0  0  0  0  0  0  0
  -18.1974  -29.8451   22.4589 C   0  0  0  0  0  0  0  0  0  0  0  0
  -25.2723  -26.5785   22.8473 C   0  0  0  0  0  0  0  0  0  0  0  0
  -19.0753  -28.8149   22.8464 C   0  0  0  0  0  0  0  0  0  0  0  0
  -25.6053  -26.4865   21.4883 C   0  0  0  0  0  0  0  0  0  0  0  0
  -29.6382  -20.8875   21.8157 C   0  0  0  0  0  0  0  0  0  0  0  0
  -28.2665  -21.0619   21.6698 C   0  0  0  0  0  0  0  0  0  0  0  0
  -22.7529   -9.5858   24.6433 C   0  0  0  0  0  0  0  0  0  0  0  0
  -26.5935  -24.3021   21.8910 C   0  0  0  0  0  0  0  0  0  0  0  0
  -22.4142   -7.4191   25.4875 C   0  0  0  0  0  0  0  0  0  0  0  0
  -23.0133   -4.6958   25.4005 C   0  0  0  0  0  0  0  0  0  0  0  0
  -21.4050   -6.4908   25.2318 C   0  0  0  0  0  0  0  0  0  0  0  0
  -30.2751  -19.8442   21.1530 C   0  0  0  0  0  0  0  0  0  0  0  0
  -24.7248  -12.1189   21.8877 C   0  0  0  0  0  0  0  0  0  0  0  0
  -29.5015  -19.0096   20.3627 C   0  0  0  0  0  0  0  0  0  0  0  0
  -27.5828  -20.1729   20.8561 C   0  0  0  0  0  0  0  0  0  0  0  0
  -25.1989  -13.6585   20.3911 C   0  0  0  0  0  0  0  0  0  0  0  0
  -22.7874  -13.5857   21.0452 C   0  0  0  0  0  0  0  0  0  0  0  0
  -22.5368  -27.9086   21.9246 C   0  0  0  0  0  0  0  0  0  0  0  0
  -24.5108  -29.9884   20.4079 C   0  0  0  0  0  0  0  0  0  0  0  0
  -27.5763  -30.5984   19.0377 C   0  0  0  0  0  0  0  0  0  0  0  0
  -30.4724  -15.4593   20.0874 C   0  0  0  0  0  0  0  0  0  0  0  0
  -18.1403  -30.3460   21.0374 C   0  0  0  0  0  0  0  0  0  0  0  0
  -24.5907  -27.8076   23.3830 C   0  0  0  0  0  0  0  0  0  0  0  0
  -25.2701  -27.5847   20.5136 C   0  0  0  0  0  0  0  0  0  0  0  0
  -19.3678  -29.9727   20.2104 C   0  0  0  0  0  0  0  0  0  0  0  0
  -29.9219  -11.9557   19.7744 C   0  0  0  0  0  0  0  0  0  0  0  0
  -30.3862  -23.2872   22.4121 C   0  0  0  0  0  0  0  0  0  0  0  0
  -31.6261  -22.5175   22.0797 C   0  0  0  0  0  0  0  0  0  0  0  0
  -19.7194  -28.5020   20.4106 C   0  0  0  0  0  0  0  0  0  0  0  0
  -28.4760  -11.7697   20.2379 C   0  0  0  0  0  0  0  0  0  0  0  0
  -30.6382  -13.0373   20.5800 C   0  0  0  0  0  0  0  0  0  0  0  0
  -28.4996  -14.1528   21.0861 C   0  0  0  0  0  0  0  0  0  0  0  0
  -30.4407  -21.8059   22.6759 C   0  0  0  0  0  0  0  0  0  0  0  0
  -20.0678  -28.2126   21.8756 C   0  0  1  0  0  0  0  0  0  0  0  0
  -23.8237  -28.5795   22.3138 C   0  0  1  0  0  0  0  0  0  0  0  0
  -27.7193  -13.1113   20.2659 C   0  0  2  0  0  0  0  0  0  0  0  0
  -29.9851  -17.9774   18.1127 C   0  0  0  0  0  0  0  0  0  0  0  0
  -28.8799  -32.3767   17.8395 C   0  0  0  0  0  0  0  0  0  0  0  0
  -22.9691  -29.3877   17.8443 C   0  0  0  0  0  0  0  0  0  0  0  0
  -24.8549  -30.4102   16.5533 C   0  0  0  0  0  0  0  0  0  0  0  0
  -23.5552  -31.7971   18.1689 C   0  0  0  0  0  0  0  0  0  0  0  0
  -29.6049  -30.7239   21.1890 C   0  0  0  0  0  0  0  0  0  0  0  0
  -25.5922  -19.3639   19.8369 C   0  0  0  0  0  0  0  0  0  0  0  0
  -27.5457  -22.1762   22.3700 C   0  0  0  0  0  0  0  0  0  1  0  0
  -30.1487  -17.8781   19.6360 C   0  0  2  0  0  0  0  0  0  0  0  0
  -25.1572  -30.0484   19.0450 C   0  0  1  0  0  0  0  0  0  0  0  0
  -28.5326  -31.7675   19.1890 C   0  0  2  0  0  0  0  0  0  0  0  0
  -24.1388  -30.3891   17.9206 C   0  0  0  0  0  0  0  0  0  0  0  0
  -26.0383  -11.9915   21.6811 N   0  0  0  0  0  0  0  0  0  0  0  0
  -28.1669  -19.1475   20.1965 N   0  0  0  0  0  0  0  0  0  0  0  0
  -26.2966  -12.9411   20.7660 N   0  0  0  0  0  0  0  0  0  0  0  0
  -24.5980  -28.7635   21.0847 N   0  0  0  0  0  0  0  0  0  0  0  0
  -29.8694  -14.2842   20.5653 N   0  0  0  0  0  0  0  0  0  0  0  0
  -25.2808  -14.6517   19.4804 N   0  0  0  0  0  0  0  0  0  0  0  0
  -21.8366  -12.9454   21.8516 N   0  0  0  0  0  0  0  0  0  0  0  0
  -21.4089  -28.6664   22.1754 N   0  0  0  0  0  0  0  0  0  0  0  0
  -26.2613  -30.9953   19.1583 N   0  0  0  0  0  0  0  0  0  0  0  0
  -29.6720  -16.5950   20.1020 N   0  0  0  0  0  0  0  0  0  0  0  0
  -29.7957  -31.3223   19.8427 N   0  3  0  0  0  0  0  0  0  0  0  0
  -22.4215  -14.5112   20.2816 O   0  0  0  0  0  0  0  0  0  0  0  0
  -22.5652  -26.7870   21.4317 O   0  0  0  0  0  0  0  0  0  0  0  0
  -23.9553  -30.9933   20.8586 O   0  0  0  0  0  0  0  0  0  0  0  0
  -27.9574  -29.4486   18.8295 O   0  0  0  0  0  0  0  0  0  0  0  0
  -31.6361  -15.4927   19.6730 O   0  0  0  0  0  0  0  0  0  0  0  0
  -22.1186   -8.7713   25.5302 O   0  0  0  0  0  0  0  0  0  0  0  0
  -27.2314  -23.1954   21.4219 O   0  0  0  0  0  0  0  0  0  1  0  0
  -26.2300  -20.3109   20.6853 O   0  0  0  0  0  0  0  0  0  0  0  0
  -23.3013   -3.3884   25.3572 F   0  0  0  0  0  0  0  0  0  0  0  0
  -20.1460   -6.9012   25.0260 F   0  0  0  0  0  0  0  0  0  0  0  0
  -31.5953  -19.6519   21.2751 F   0  0  0  0  0  0  0  0  0  0  0  0
  1  2  1  0  0  0  0
  1  5  2  0  0  0  0
  2  6  2  0  0  0  0
  3  8  2  0  0  0  0
  3 15  1  0  0  0  0
  4  9  1  0  0  0  0
  4 15  2  0  0  0  0
  5 17  1  0  0  0  0
  6 19  1  0  0  0  0
  7 10  2  0  0  0  0
  7 18  1  0  0  0  0
  8 23  1  0  0  0  0
  9 23  2  0  0  0  0
 10 24  1  0  0  0  0
 11 12  2  0  0  0  0
 11 25  1  0  0  0  0
 12 26  1  0  0  0  0
 13 20  1  0  0  0  0
 13 24  2  0  0  0  0
 14 26  2  0  0  0  0
 14 27  1  0  0  0  0
 15 29  1  0  0  0  0
 16 29  1  0  0  0  0
 16 32  2  0  0  0  0
 16 33  1  0  0  0  0
 17 19  2  0  0  0  0
 17 38  1  0  0  0  0
 18 20  2  0  0  0  0
 18 39  1  0  0  0  0
 19 50  1  0  0  0  0
 20 40  1  0  0  0  0
 21 22  2  0  0  0  0
 21 28  1  0  0  0  0
 21 49  1  0  0  0  0
 22 31  1  0  0  0  0
 22 60  1  0  0  0  0
 23 81  1  0  0  0  0
 24 82  1  0  0  0  0
 25 27  2  0  0  0  0
 25 81  1  0  0  0  0
 26 84  1  0  0  0  0
 27 85  1  0  0  0  0
 28 30  2  0  0  0  0
 28 86  1  0  0  0  0
 29 65  2  0  0  0  0
 30 61  1  0  0  0  0
 30 66  1  0  0  0  0
 31 66  2  0  0  0  0
 31 83  1  0  0  0  0
 32 67  1  0  0  0  0
 32 70  1  0  0  0  0
 33 71  1  0  0  0  0
 33 76  2  0  0  0  0
 34 51  1  0  0  0  0
 34 72  1  0  0  0  0
 34 77  2  0  0  0  0
 35 62  1  0  0  0  0
 35 68  1  0  0  0  0
 35 78  2  0  0  0  0
 36 63  1  0  0  0  0
 36 73  1  0  0  0  0
 36 79  2  0  0  0  0
 37 69  1  0  0  0  0
 37 74  1  0  0  0  0
 37 80  2  0  0  0  0
 38 41  1  0  0  0  0
 39 51  1  0  0  0  0
 40 68  1  0  0  0  0
 41 45  1  0  0  0  0
 42 46  1  0  0  0  0
 42 47  1  0  0  0  0
 43 44  1  0  0  0  0
 43 49  1  0  0  0  0
 44 49  1  0  0  0  0
 45 50  1  0  0  0  0
 46 52  1  0  0  0  0
 47 69  1  0  0  0  0
 48 52  1  0  0  0  0
 48 69  1  0  0  0  0
 50 72  1  0  0  0  0
 51 68  1  0  0  0  0
 52 67  1  0  0  0  0
 53 61  1  0  0  0  0
 54 63  1  0  0  0  0
 55 64  1  0  0  0  0
 56 64  1  0  0  0  0
 57 64  1  0  0  0  0
 58 75  1  0  0  0  0
 59 83  1  0  0  0  0
 60 82  1  0  0  0  0
 61 74  1  0  0  0  0
 62 64  1  0  0  0  0
 62 73  1  0  0  0  0
 63 75  1  0  0  0  0
 65 67  1  0  0  0  0
M  CHG  1  75   1
M  ISO  4  37 100  60 101  74 100  82 101
M  END
> <Batch ID>
0179

> <Smiles>
CNC(C)C(=O)NC(C(=O)N1Cc2cc([101O:1][101CH2:1]c3c(OC)nc(C(C)[100NH:0][100C:0](=O)N4CCCC(n5nc(-c6ccc(Oc7ccc(F)cc7F)cc6)c(C(N)=O)c5N)C4)c(F)c3C3CC3)ccc2CC1C(=O)NC1CCCc2ccccc21)C(C)(C)C

> <Shape>
0.242

> <Color>
0.116

> <Negative vol penalty>
0.000

$$$$

  -OEChem-04052322573D

 84 93  0     1  0  0  0  0  0999 V2000
  -26.0847  -32.6704   28.6100 C   0  0  0  0  0  0  0  0  0  0  0  0
  -25.9326  -31.3180   28.3216 C   0  0  0  0  0  0  0  0  0  0  0  0
  -22.7817  -10.3747   20.8060 C   0  0  0  0  0  0  0  0  0  0  0  0
  -24.5879   -9.0871   21.7635 C   0  0  0  0  0  0  0  0  0  0  0  0
  -26.0975  -33.6054   27.5759 C   0  0  0  0  0  0  0  0  0  0  0  0
  -25.7922  -30.8999   26.9988 C   0  0  0  0  0  0  0  0  0  0  0  0
  -27.8984  -25.7027   24.5373 C   0  0  0  0  0  0  0  0  0  0  0  0
  -21.9681   -9.2418   20.8171 C   0  0  0  0  0  0  0  0  0  0  0  0
  -23.7743   -7.9541   21.7746 C   0  0  0  0  0  0  0  0  0  0  0  0
  -27.2881  -24.4792   24.2646 C   0  0  0  0  0  0  0  0  0  0  0  0
  -21.2771   -6.7013   23.6759 C   0  0  0  0  0  0  0  0  0  0  0  0
  -21.2750   -5.9181   24.8300 C   0  0  0  0  0  0  0  0  0  0  0  0
  -26.9011  -25.1858   21.9908 C   0  0  0  0  0  0  0  0  0  0  0  0
  -22.0558   -4.0256   23.5471 C   0  0  0  0  0  0  0  0  0  0  0  0
  -28.4603  -20.1396   21.2677 C   0  0  0  0  0  0  0  0  0  0  0  0
  -27.2597  -21.1593   19.1123 C   0  0  0  0  0  0  0  0  0  0  0  0
  -24.0916  -10.2974   21.2792 C   0  0  0  0  0  0  0  0  0  0  0  0
  -25.0725  -12.4240   22.2908 C   0  0  0  0  0  0  0  0  0  0  0  0
  -25.9669  -33.1976   26.2390 C   0  0  0  0  0  0  0  0  0  0  0  0
  -28.0051  -26.6828   23.5400 C   0  0  0  0  0  0  0  0  0  0  0  0
  -25.8020  -31.8304   25.9458 C   0  0  0  0  0  0  0  0  0  0  0  0
  -27.5155  -26.4200   22.2527 C   0  0  0  0  0  0  0  0  0  0  0  0
  -22.4644   -8.0315   21.3013 C   0  0  0  0  0  0  0  0  0  0  0  0
  -26.7867  -24.2217   22.9920 C   0  0  0  0  0  0  0  0  0  0  0  0
  -21.6685   -6.1467   22.4573 C   0  0  0  0  0  0  0  0  0  0  0  0
  -21.6644   -4.5802   24.7657 C   0  0  0  0  0  0  0  0  0  0  0  0
  -22.0578   -4.8088   22.3929 C   0  0  0  0  0  0  0  0  0  0  0  0
  -24.9326  -11.4673   21.2676 C   0  0  0  0  0  0  0  0  0  0  0  0
  -27.1795  -20.6417   21.3383 C   0  0  0  0  0  0  0  0  0  0  0  0
  -28.5407  -20.6580   19.0418 C   0  0  0  0  0  0  0  0  0  0  0  0
  -25.9805  -13.3272   21.7946 C   0  0  0  0  0  0  0  0  0  0  0  0
  -24.4384  -12.4902   23.5750 C   0  0  0  0  0  0  0  0  0  0  0  0
  -26.9102  -29.6451   23.1801 C   0  0  0  0  0  0  0  0  0  0  0  0
  -28.7680  -29.5921   20.5215 C   0  0  0  0  0  0  0  0  0  0  0  0
  -30.3246  -27.7445   18.1111 C   0  0  0  0  0  0  0  0  0  0  0  0
  -27.6210  -16.5532   17.6409 C   0  0  0  0  0  0  0  0  0  0  0  0
  -25.9393  -34.2495   25.1585 C   0  0  0  0  0  0  0  0  0  0  0  0
  -28.6901  -27.9872   23.8429 C   0  0  0  0  0  0  0  0  0  0  0  0
  -27.6232  -27.4310   21.1415 C   0  0  0  0  0  0  0  0  0  0  0  0
  -26.1605  -33.6884   23.7563 C   0  0  0  0  0  0  0  0  0  0  0  0
  -28.9711  -13.1211   17.7423 C   0  0  0  0  0  0  0  0  0  0  0  0
  -25.2993  -32.4488   23.5353 C   0  0  0  0  0  0  0  0  0  0  0  0
  -28.0072  -12.4554   18.7200 C   0  0  0  0  0  0  0  0  0  0  0  0
  -29.8951  -19.0071   15.7998 C   0  0  0  0  0  0  0  0  0  0  0  0
  -28.2813  -14.1886   16.8940 C   0  0  0  0  0  0  0  0  0  0  0  0
  -26.6012  -14.5522   18.6798 C   0  0  0  0  0  0  0  0  0  0  0  0
  -25.6717  -31.3354   24.5217 C   0  0  1  0  0  0  0  0  0  0  0  0
  -28.2844  -29.1098   22.8928 C   0  0  1  0  0  0  0  0  0  0  0  0
  -29.6429  -19.2567   17.2598 C   0  0  2  0  0  0  0  0  0  0  0  0
  -27.2880  -13.5097   19.5753 C   0  0  1  0  0  0  0  0  0  0  0  0
  -28.6478  -18.4658   16.4493 C   0  0  2  0  0  0  0  0  0  0  0  0
  -30.5651  -21.5345   17.8221 C   0  0  0  0  0  0  0  0  0  0  0  0
  -31.7365  -27.9838   16.0504 C   0  0  0  0  0  0  0  0  0  0  0  0
  -26.3039  -30.4411   18.9348 C   0  0  0  0  0  0  0  0  0  0  0  0
  -27.4964  -29.7478   16.8454 C   0  0  0  0  0  0  0  0  0  0  0  0
  -28.4242  -31.5821   18.2588 C   0  0  0  0  0  0  0  0  0  0  0  0
  -32.5591  -26.2308   19.3255 C   0  0  0  0  0  0  0  0  0  0  0  0
  -26.4210  -20.6260   22.6432 C   0  0  0  0  0  0  0  0  0  0  0  0
  -26.6455  -21.8942   23.4595 C   0  0  0  0  0  0  0  0  0  1  0  0
  -29.2887  -20.6730   17.7547 C   0  0  2  0  0  0  0  0  0  0  0  0
  -28.5604  -29.1948   19.0800 C   0  0  1  0  0  0  0  0  0  0  0  0
  -31.7379  -27.7945   17.5593 C   0  0  2  0  0  0  0  0  0  0  0  0
  -27.6923  -30.2229   18.3010 C   0  0  0  0  0  0  0  0  0  0  0  0
  -26.5561  -21.1603   20.2618 N   0  0  0  0  0  0  0  0  0  0  0  0
  -29.1640  -20.1390   20.1182 N   0  0  0  0  0  0  0  0  0  0  0  0
  -25.6910  -11.7376   20.2018 N   0  0  0  0  0  0  0  0  0  0  0  0
  -26.3160  -12.8744   20.5526 N   0  0  0  0  0  0  0  0  0  0  0  0
  -28.2957  -28.6938   21.4889 N   0  0  0  0  0  0  0  0  0  0  0  0
  -27.5457  -15.1514   17.7289 N   0  0  0  0  0  0  0  0  0  0  0  0
  -26.5167  -14.4566   22.3039 N   0  0  0  0  0  0  0  0  0  0  0  0
  -23.5318  -11.4804   23.9254 N   0  0  0  0  0  0  0  0  0  0  0  0
  -26.8888  -30.6744   24.1018 N   0  0  0  0  0  0  0  0  0  0  0  0
  -29.8908  -28.9885   18.5178 N   0  0  0  0  0  0  0  0  0  0  0  0
  -28.4721  -17.0539   16.6622 N   0  0  0  0  0  0  0  0  0  0  0  0
  -32.4617  -26.5302   17.8736 N   0  3  0  0  0  0  0  0  0  0  0  0
  -24.6565  -13.4262   24.3811 O   0  0  0  0  0  0  0  0  0  0  0  0
  -25.9412  -29.1612   22.6068 O   0  0  0  0  0  0  0  0  0  0  0  0
  -29.3349  -30.6568   20.7798 O   0  0  0  0  0  0  0  0  0  0  0  0
  -29.6694  -26.7063   18.1716 O   0  0  0  0  0  0  0  0  0  0  0  0
  -26.9731  -17.3063   18.3763 O   0  0  0  0  0  0  0  0  0  0  0  0
  -21.6707   -6.9258   21.3125 O   0  0  0  0  0  0  0  0  0  0  0  0
  -26.1899  -23.0286   22.7234 O   0  0  0  0  0  0  0  0  0  1  0  0
  -21.6638   -3.8286   25.8744 F   0  0  0  0  0  0  0  0  0  0  0  0
  -22.4360   -4.2707   21.2253 F   0  0  0  0  0  0  0  0  0  0  0  0
  1  2  1  0  0  0  0
  1  5  2  0  0  0  0
  2  6  2  0  0  0  0
  3  8  2  0  0  0  0
  3 17  1  0  0  0  0
  4  9  1  0  0  0  0
  4 17  2  0  0  0  0
  5 19  1  0  0  0  0
  6 21  1  0  0  0  0
  7 10  2  0  0  0  0
  7 20  1  0  0  0  0
  8 23  1  0  0  0  0
  9 23  2  0  0  0  0
 10 24  1  0  0  0  0
 11 12  2  0  0  0  0
 11 25  1  0  0  0  0
 12 26  1  0  0  0  0
 13 22  1  0  0  0  0
 13 24  2  0  0  0  0
 14 26  2  0  0  0  0
 14 27  1  0  0  0  0
 15 29  1  0  0  0  0
 15 65  2  0  0  0  0
 16 30  2  0  0  0  0
 16 64  1  0  0  0  0
 17 28  1  0  0  0  0
 18 28  1  0  0  0  0
 18 31  2  0  0  0  0
 18 32  1  0  0  0  0
 19 21  2  0  0  0  0
 19 37  1  0  0  0  0
 20 22  2  0  0  0  0
 20 38  1  0  0  0  0
 21 47  1  0  0  0  0
 22 39  1  0  0  0  0
 23 81  1  0  0  0  0
 24 82  1  0  0  0  0
 25 27  2  0  0  0  0
 25 81  1  0  0  0  0
 26 83  1  0  0  0  0
 27 84  1  0  0  0  0
 28 66  2  0  0  0  0
 29 58  1  0  0  0  0
 29 64  2  0  0  0  0
 30 60  1  0  0  0  0
 30 65  1  0  0  0  0
 31 67  1  0  0  0  0
 31 70  1  0  0  0  0
 32 71  1  0  0  0  0
 32 76  2  0  0  0  0
 33 48  1  0  0  0  0
 33 72  1  0  0  0  0
 33 77  2  0  0  0  0
 34 61  1  0  0  0  0
 34 68  1  0  0  0  0
 34 78  2  0  0  0  0
 35 62  1  0  0  0  0
 35 73  1  0  0  0  0
 35 79  2  0  0  0  0
 36 69  1  0  0  0  0
 36 74  1  0  0  0  0
 36 80  2  0  0  0  0
 37 40  1  0  0  0  0
 38 48  1  0  0  0  0
 39 68  1  0  0  0  0
 40 42  1  0  0  0  0
 41 43  1  0  0  0  0
 41 45  1  0  0  0  0
 42 47  1  0  0  0  0
 43 50  1  0  0  0  0
 44 49  1  0  0  0  0
 44 51  1  0  0  0  0
 45 69  1  0  0  0  0
 46 50  1  0  0  0  0
 46 69  1  0  0  0  0
 47 72  1  0  0  0  0
 48 68  1  0  0  0  0
 49 51  1  0  0  0  0
 49 60  1  0  0  0  0
 50 67  1  0  0  0  0
 51 74  1  0  0  0  0
 52 60  1  0  0  0  0
 53 62  1  0  0  0  0
 54 63  1  0  0  0  0
 55 63  1  0  0  0  0
 56 63  1  0  0  0  0
 57 75  1  0  0  0  0
 58 59  1  0  0  0  0
 59 82  1  0  0  0  0
 61 63  1  0  0  0  0
 61 73  1  0  0  0  0
 62 75  1  0  0  0  0
 66 67  1  0  0  0  0
M  CHG  1  75   1
M  ISO  4  36 100  59 101  74 100  82 101
M  END
> <Batch ID>
0179

> <Smiles>
CNC(C)C(=O)NC(C(=O)N1Cc2cc([101O:1][101CH2:1]Cc3cnc(C(C)C4CC4[100NH:0][100C:0](=O)N4CCCC(n5nc(-c6ccc(Oc7ccc(F)cc7F)cc6)c(C(N)=O)c5N)C4)cn3)ccc2CC1C(=O)NC1CCCc2ccccc21)C(C)(C)C

> <Shape>
0.248

> <Color>
0.101

> <Negative vol penalty>
0.000

$$$$

  -OEChem-04052322573D

 83 92  0     1  0  0  0  0  0999 V2000
  -24.1236   -8.4628   21.5498 C   0  0  0  0  0  0  0  0  0  0  0  0
  -24.7961   -9.6324   21.2107 C   0  0  0  0  0  0  0  0  0  0  0  0
  -23.2064  -26.2487   21.5492 C   0  0  0  0  0  0  0  0  0  0  0  0
  -23.0599  -28.6034   22.0695 C   0  0  0  0  0  0  0  0  0  0  0  0
  -22.7315   -8.4580   21.6275 C   0  0  0  0  0  0  0  0  0  0  0  0
  -24.0769  -10.7977   20.9479 C   0  0  0  0  0  0  0  0  0  0  0  0
  -26.0888  -14.8693   23.1883 C   0  0  0  0  0  0  0  0  0  0  0  0
  -22.0829  -26.0043   22.3388 C   0  0  0  0  0  0  0  0  0  0  0  0
  -21.9364  -28.3590   22.8591 C   0  0  0  0  0  0  0  0  0  0  0  0
  -27.2124  -15.4362   22.5883 C   0  0  0  0  0  0  0  0  0  0  0  0
  -18.8147  -28.4062   24.7222 C   0  0  0  0  0  0  0  0  0  0  0  0
  -17.7246  -29.2655   24.5840 C   0  0  0  0  0  0  0  0  0  0  0  0
  -29.9595  -17.8621   18.9831 C   0  0  0  0  0  0  0  0  0  0  0  0
  -25.8169  -17.1326   21.5914 C   0  0  0  0  0  0  0  0  0  0  0  0
  -17.5440  -28.6612   22.2517 C   0  0  0  0  0  0  0  0  0  0  0  0
  -31.1464  -18.3545   18.4801 C   0  0  0  0  0  0  0  0  0  0  0  0
  -23.6950  -27.5482   21.4145 C   0  0  0  0  0  0  0  0  0  0  0  0
  -24.8797  -28.1066   19.2254 C   0  0  0  0  0  0  0  0  0  0  0  0
  -21.9953   -9.6263   21.3749 C   0  0  0  0  0  0  0  0  0  0  0  0
  -24.8171  -15.4244   22.9851 C   0  0  0  0  0  0  0  0  0  0  0  0
  -22.6736  -10.8082   21.0209 C   0  0  0  0  0  0  0  0  0  0  0  0
  -24.6791  -16.5724   22.1919 C   0  0  0  0  0  0  0  0  0  0  0  0
  -21.4479  -27.0594   22.9937 C   0  0  0  0  0  0  0  0  0  0  0  0
  -27.0762  -16.5662   21.7874 C   0  0  0  0  0  0  0  0  0  0  0  0
  -19.2695  -27.6745   23.6251 C   0  0  0  0  0  0  0  0  0  0  0  0
  -17.0893  -29.3929   23.3488 C   0  0  0  0  0  0  0  0  0  0  0  0
  -18.6342  -27.8020   22.3899 C   0  0  0  0  0  0  0  0  0  0  0  0
  -24.8559  -27.8013   20.5994 C   0  0  0  0  0  0  0  0  0  0  0  0
  -29.2553  -18.7219   19.8010 C   0  0  0  0  0  0  0  0  0  0  0  0
  -26.2127  -28.2557   18.9299 C   0  0  0  0  0  0  0  0  0  0  0  0
  -30.8411  -20.3323   19.5582 C   0  0  0  0  0  0  0  0  0  0  0  0
  -23.7940  -28.2432   18.2990 C   0  0  0  0  0  0  0  0  0  0  0  0
  -22.1015  -14.3965   21.6918 C   0  0  0  0  0  0  0  0  0  0  0  0
  -20.9592  -17.2241   22.7974 C   0  0  0  0  0  0  0  0  0  0  0  0
  -21.6083  -20.4321   23.7639 C   0  0  0  0  0  0  0  0  0  0  0  0
  -31.0877  -26.0274   21.8069 C   0  0  0  0  0  0  0  0  0  0  0  0
  -20.4894   -9.5604   21.4250 C   0  0  0  0  0  0  0  0  0  0  0  0
  -23.6186  -14.8168   23.6610 C   0  0  0  0  0  0  0  0  0  0  0  0
  -23.3387  -17.2186   21.9588 C   0  0  0  0  0  0  0  0  0  0  0  0
  -19.8219  -10.9314   21.4978 C   0  0  0  0  0  0  0  0  0  0  0  0
  -30.3792  -29.5177   20.9189 C   0  0  0  0  0  0  0  0  0  0  0  0
  -20.4379  -11.8801   20.4744 C   0  0  0  0  0  0  0  0  0  0  0  0
  -28.8716  -29.5028   20.6631 C   0  0  0  0  0  0  0  0  0  0  0  0
  -29.5003  -23.2838   19.9442 C   0  0  0  0  0  0  0  0  0  0  0  0
  -30.7939  -28.4734   21.9529 C   0  0  0  0  0  0  0  0  0  0  0  0
  -29.2720  -24.5046   20.8294 C   0  0  0  0  0  0  0  0  0  0  0  0
  -28.8267  -27.0935   21.4062 C   0  0  0  0  0  0  0  0  0  0  0  0
  -31.4920  -23.6624   21.1866 C   0  0  0  0  0  0  0  0  0  0  0  0
  -21.9299  -12.0987   20.7529 C   0  0  1  0  0  0  0  0  0  0  0  0
  -22.3036  -15.1619   22.9689 C   0  0  1  0  0  0  0  0  0  0  0  0
  -28.3803  -28.0837   20.3216 C   0  0  1  0  0  0  0  0  0  0  0  0
  -30.5919  -22.5359   20.7016 C   0  0  2  0  0  0  0  0  0  0  0  0
  -21.1612  -22.7190   24.6954 C   0  0  0  0  0  0  0  0  0  0  0  0
  -19.9644  -17.7854   19.9680 C   0  0  0  0  0  0  0  0  0  0  0  0
  -19.7078  -20.1916   20.6105 C   0  0  0  0  0  0  0  0  0  0  0  0
  -18.3729  -18.4403   21.7826 C   0  0  0  0  0  0  0  0  0  0  0  0
  -22.1804  -19.5446   26.5286 C   0  0  0  0  0  0  0  0  0  0  0  0
  -27.9598  -18.2777   20.3924 C   0  0  0  0  0  0  0  0  0  1  0  0
  -20.8521  -18.6241   22.2428 C   0  0  1  0  0  0  0  0  0  0  0  0
  -21.1701  -21.2254   24.9817 C   0  0  2  0  0  0  0  0  0  0  0  0
  -19.7494  -18.7473   21.1536 C   0  0  0  0  0  0  0  0  0  0  0  0
  -31.6192  -19.5895   18.7481 N   0  0  0  0  0  0  0  0  0  0  0  0
  -26.0768  -27.7584   21.1394 N   0  0  0  0  0  0  0  0  0  0  0  0
  -29.6682  -19.9684   20.1110 N   0  0  0  0  0  0  0  0  0  0  0  0
  -26.8803  -28.0387   20.0992 N   0  0  0  0  0  0  0  0  0  0  0  0
  -22.1961  -16.5838   22.6362 N   0  0  0  0  0  0  0  0  0  0  0  0
  -30.2799  -27.1504   21.5976 N   0  0  0  0  0  0  0  0  0  0  0  0
  -30.5878  -24.7883   21.4084 N   0  0  0  0  0  0  0  0  0  0  0  0
  -26.8672  -28.5498   17.7864 N   0  0  0  0  0  0  0  0  0  0  0  0
  -22.4869  -28.0572   18.7694 N   0  0  0  0  0  0  0  0  0  0  0  0
  -31.2969  -21.6095   19.8556 N   0  0  0  0  0  0  0  0  0  0  0  0
  -22.1088  -13.0239   21.8513 N   0  0  0  0  0  0  0  0  0  0  0  0
  -20.6593  -19.5040   23.3904 N   0  0  0  0  0  0  0  0  0  0  0  0
  -22.0923  -20.9715   26.1246 N   0  3  0  0  0  0  0  0  0  0  0  0
  -23.9785  -28.5059   17.0864 O   0  0  0  0  0  0  0  0  0  0  0  0
  -21.9488  -15.0061   20.6398 O   0  0  0  0  0  0  0  0  0  0  0  0
  -19.9837  -16.7199   23.3594 O   0  0  0  0  0  0  0  0  0  0  0  0
  -22.6831  -20.6197   23.1981 O   0  0  0  0  0  0  0  0  0  0  0  0
  -32.2249  -26.1321   22.2852 O   0  0  0  0  0  0  0  0  0  0  0  0
  -20.3513  -26.8213   23.7641 O   0  0  0  0  0  0  0  0  0  0  0  0
  -28.1788  -17.1249   21.1960 O   0  0  0  0  0  0  0  0  0  1  0  0
  -16.0415  -30.2169   23.2165 F   0  0  0  0  0  0  0  0  0  0  0  0
  -19.0658  -27.1007   21.3327 F   0  0  0  0  0  0  0  0  0  0  0  0
  1  2  1  0  0  0  0
  1  5  2  0  0  0  0
  2  6  2  0  0  0  0
  3  8  2  0  0  0  0
  3 17  1  0  0  0  0
  4  9  1  0  0  0  0
  4 17  2  0  0  0  0
  5 19  1  0  0  0  0
  6 21  1  0  0  0  0
  7 10  2  0  0  0  0
  7 20  1  0  0  0  0
  8 23  1  0  0  0  0
  9 23  2  0  0  0  0
 10 24  1  0  0  0  0
 11 12  2  0  0  0  0
 11 25  1  0  0  0  0
 12 26  1  0  0  0  0
 13 16  2  0  0  0  0
 13 29  1  0  0  0  0
 14 22  1  0  0  0  0
 14 24  2  0  0  0  0
 15 26  2  0  0  0  0
 15 27  1  0  0  0  0
 16 62  1  0  0  0  0
 17 28  1  0  0  0  0
 18 28  1  0  0  0  0
 18 30  2  0  0  0  0
 18 32  1  0  0  0  0
 19 21  2  0  0  0  0
 19 37  1  0  0  0  0
 20 22  2  0  0  0  0
 20 38  1  0  0  0  0
 21 49  1  0  0  0  0
 22 39  1  0  0  0  0
 23 80  1  0  0  0  0
 24 81  1  0  0  0  0
 25 27  2  0  0  0  0
 25 80  1  0  0  0  0
 26 82  1  0  0  0  0
 27 83  1  0  0  0  0
 28 63  2  0  0  0  0
 29 58  1  0  0  0  0
 29 64  2  0  0  0  0
 30 65  1  0  0  0  0
 30 69  1  0  0  0  0
 31 62  2  0  0  0  0
 31 64  1  0  0  0  0
 31 71  1  0  0  0  0
 32 70  1  0  0  0  0
 32 75  2  0  0  0  0
 33 50  1  0  0  0  0
 33 72  1  0  0  0  0
 33 76  2  0  0  0  0
 34 59  1  0  0  0  0
 34 66  1  0  0  0  0
 34 77  2  0  0  0  0
 35 60  1  0  0  0  0
 35 73  1  0  0  0  0
 35 78  2  0  0  0  0
 36 67  1  0  0  0  0
 36 68  1  0  0  0  0
 36 79  2  0  0  0  0
 37 40  1  0  0  0  0
 38 50  1  0  0  0  0
 39 66  1  0  0  0  0
 40 42  1  0  0  0  0
 41 43  1  0  0  0  0
 41 45  1  0  0  0  0
 42 49  1  0  0  0  0
 43 51  1  0  0  0  0
 44 46  1  0  0  0  0
 44 52  1  0  0  0  0
 45 67  1  0  0  0  0
 46 68  1  0  0  0  0
 47 51  1  0  0  0  0
 47 67  1  0  0  0  0
 48 52  1  0  0  0  0
 48 68  1  0  0  0  0
 49 72  1  0  0  0  0
 50 66  1  0  0  0  0
 51 65  1  0  0  0  0
 52 71  1  0  0  0  0
 53 60  1  0  0  0  0
 54 61  1  0  0  0  0
 55 61  1  0  0  0  0
 56 61  1  0  0  0  0
 57 74  1  0  0  0  0
 58 81  1  0  0  0  0
 59 61  1  0  0  0  0
 59 73  1  0  0  0  0
 60 74  1  0  0  0  0
 63 65  1  0  0  0  0
M  CHG  1  74   1
M  ISO  4  36 100  58 101  68 100  81 101
M  END
> <Batch ID>
0179

> <Smiles>
CNC(C)C(=O)NC(C(=O)N1Cc2cc([101O:1][101CH2:1]c3ccnc(NC4CC[100N:0]([100C:0](=O)N5CCCC(n6nc(-c7ccc(Oc8ccc(F)cc8F)cc7)c(C(N)=O)c6N)C5)C4)n3)ccc2CC1C(=O)NC1CCCc2ccccc21)C(C)(C)C

> <Shape>
0.215

> <Color>
0.085

> <Negative vol penalty>
0.000

$$$$

  -OEChem-04052322573D

 79 87  0     1  0  0  0  0  0999 V2000
  -22.8602  -19.3475   23.7266 C   0  0  0  0  0  0  0  0  0  0  0  0
  -23.9838  -20.1615   23.6387 C   0  0  0  0  0  0  0  0  0  0  0  0
  -25.3328  -14.9699   21.4548 C   0  0  0  0  0  0  0  0  0  0  0  0
  -27.0011  -14.7623   19.7197 C   0  0  0  0  0  0  0  0  0  0  0  0
  -21.6224  -19.8263   23.3025 C   0  0  0  0  0  0  0  0  0  0  0  0
  -23.8680  -21.4587   23.1378 C   0  0  0  0  0  0  0  0  0  0  0  0
  -27.8581  -24.3238   23.4092 C   0  0  0  0  0  0  0  0  0  0  0  0
  -25.2274  -13.5806   21.5198 C   0  0  0  0  0  0  0  0  0  0  0  0
  -26.8957  -13.3730   19.7847 C   0  0  0  0  0  0  0  0  0  0  0  0
  -28.9786  -24.1339   22.6016 C   0  0  0  0  0  0  0  0  0  0  0  0
  -23.7355  -11.1111   19.7590 C   0  0  0  0  0  0  0  0  0  0  0  0
  -22.4548  -10.5607   19.8090 C   0  0  0  0  0  0  0  0  0  0  0  0
  -28.3033  -26.0038   21.2353 C   0  0  0  0  0  0  0  0  0  0  0  0
  -22.9746   -9.5450   21.9386 C   0  0  0  0  0  0  0  0  0  0  0  0
  -26.2195  -15.5608   20.5547 C   0  0  0  0  0  0  0  0  0  0  0  0
  -25.3062  -17.9122   20.1747 C   0  0  0  0  0  0  0  0  0  0  0  0
  -21.4945  -21.1258   22.7847 C   0  0  0  0  0  0  0  0  0  0  0  0
  -26.9444  -25.3500   23.1289 C   0  0  0  0  0  0  0  0  0  0  0  0
  -22.6231  -21.9686   22.7270 C   0  0  0  0  0  0  0  0  0  0  0  0
  -27.1733  -26.2061   22.0423 C   0  0  0  0  0  0  0  0  0  0  0  0
  -26.0089  -12.7821   20.6847 C   0  0  0  0  0  0  0  0  0  0  0  0
  -29.1999  -24.9721   21.5128 C   0  0  0  0  0  0  0  0  0  0  0  0
  -24.6357  -10.8785   20.7988 C   0  0  0  0  0  0  0  0  0  0  0  0
  -22.0744   -9.7777   20.8988 C   0  0  0  0  0  0  0  0  0  0  0  0
  -24.2553  -10.0955   21.8886 C   0  0  0  0  0  0  0  0  0  0  0  0
  -26.3284  -16.9959   20.4868 C   0  0  0  0  0  0  0  0  0  0  0  0
  -25.9144  -19.1417   20.2434 C   0  0  0  0  0  0  0  0  0  0  0  0
  -23.9299  -17.6732   19.8518 C   0  0  0  0  0  0  0  0  0  0  0  0
  -23.8612  -25.4611   22.3638 C   0  0  0  0  0  0  0  0  0  0  0  0
  -24.3050  -28.6614   22.6533 C   0  0  0  0  0  0  0  0  0  0  0  0
  -26.4629  -31.3046   22.5893 C   0  0  0  0  0  0  0  0  0  0  0  0
  -30.1094  -22.4054   18.9053 C   0  0  0  0  0  0  0  0  0  0  0  0
  -20.1295  -21.5958   22.3475 C   0  0  0  0  0  0  0  0  0  0  0  0
  -25.7547  -25.5583   24.0254 C   0  0  0  0  0  0  0  0  0  0  0  0
  -26.2334  -27.3354   21.7107 C   0  0  0  0  0  0  0  0  0  0  0  0
  -20.1858  -22.8104   21.4267 C   0  0  0  0  0  0  0  0  0  0  0  0
  -30.4222  -20.5081   22.0266 C   0  0  0  0  0  0  0  0  0  0  0  0
  -21.0845  -23.8792   22.0305 C   0  0  0  0  0  0  0  0  0  0  0  0
  -29.3309  -19.4590   21.8419 C   0  0  0  0  0  0  0  0  0  0  0  0
  -32.8514  -23.5651   17.3509 C   0  0  0  0  0  0  0  0  0  0  0  0
  -31.0925  -20.8887   20.7059 C   0  0  0  0  0  0  0  0  0  0  0  0
  -32.6775  -22.4806   18.4186 C   0  0  0  0  0  0  0  0  0  0  0  0
  -29.0378  -20.2534   19.4698 C   0  0  0  0  0  0  0  0  0  0  0  0
  -22.5267  -23.3723   22.1572 C   0  0  1  0  0  0  0  0  0  0  0  0
  -24.6176  -26.3129   23.3436 C   0  0  1  0  0  0  0  0  0  0  0  0
  -28.3173  -19.9181   20.7832 C   0  0  1  0  0  0  0  0  0  0  0  0
  -31.5734  -24.2327   17.8814 C   0  0  2  0  0  0  0  0  0  0  0  0
  -27.2480  -33.6759   22.8302 C   0  0  0  0  0  0  0  0  0  0  0  0
  -23.1352  -28.9509   19.8502 C   0  0  0  0  0  0  0  0  0  0  0  0
  -24.0846  -31.2661   19.7686 C   0  0  0  0  0  0  0  0  0  0  0  0
  -22.3699  -30.6828   21.4839 C   0  0  0  0  0  0  0  0  0  0  0  0
  -27.1063  -30.9230   25.4527 C   0  0  0  0  0  0  0  0  0  0  0  0
  -30.9667  -27.2603   17.3701 C   0  0  0  0  0  0  0  0  0  0  0  0
  -32.8315  -27.6311   18.9781 C   0  0  0  0  0  0  0  0  0  0  0  0
  -30.4579  -25.6834   19.6241 C   0  0  0  0  0  0  0  0  0  1  0  0
  -24.7170  -29.7725   21.7181 C   0  0  1  0  0  0  0  0  0  0  0  0
  -26.6576  -32.4693   23.5432 C   0  0  2  0  0  0  0  0  0  0  0  0
  -31.7360  -25.3995   18.8356 C   0  0  2  0  0  0  0  0  0  0  0  0
  -23.5935  -30.1457   20.7100 C   0  0  0  0  0  0  0  0  0  0  0  0
  -27.4974  -17.5925   20.7350 N   0  0  0  0  0  0  0  0  0  0  0  0
  -27.2135  -18.8967   20.5789 N   0  0  0  0  0  0  0  0  0  0  0  0
  -25.0812  -27.4944   22.6134 N   0  0  0  0  0  0  0  0  0  0  0  0
  -30.1097  -21.2352   19.6723 N   0  0  0  0  0  0  0  0  0  0  0  0
  -31.3226  -22.9810   18.5993 N   0  0  0  0  0  0  0  0  0  0  0  0
  -25.4595  -20.3977   20.0487 N   0  0  0  0  0  0  0  0  0  0  0  0
  -23.5823  -17.4831   18.5074 N   0  0  0  0  0  0  0  0  0  0  0  0
  -23.2980  -24.3287   22.9203 N   0  0  0  0  0  0  0  0  0  0  0  0
  -25.1518  -30.8784   22.5645 N   0  0  0  0  0  0  0  0  0  0  0  0
  -27.5754  -32.0830   24.6519 N   0  3  0  0  0  0  0  0  0  0  0  0
  -32.1281  -26.6328   18.0960 N   0  3  0  0  0  0  0  0  0  0  0  0
  -23.0323  -17.6459   20.7277 O   0  0  0  0  0  0  0  0  0  0  0  0
  -23.7924  -25.8066   21.1901 O   0  0  0  0  0  0  0  0  0  0  0  0
  -23.3348  -28.8256   23.3972 O   0  0  0  0  0  0  0  0  0  0  0  0
  -27.3812  -30.8236   21.9291 O   0  0  0  0  0  0  0  0  0  0  0  0
  -29.0611  -22.9071   18.4786 O   0  0  0  0  0  0  0  0  0  0  0  0
  -25.9065  -11.4263   20.7480 O   0  0  0  0  0  0  0  0  0  0  0  0
  -30.3000  -24.7874   20.7171 O   0  0  0  0  0  0  0  0  0  1  0  0
  -20.8440   -9.2504   20.9474 F   0  0  0  0  0  0  0  0  0  0  0  0
  -25.1153   -9.8694   22.8911 F   0  0  0  0  0  0  0  0  0  0  0  0
  1  2  1  0  0  0  0
  1  5  2  0  0  0  0
  2  6  2  0  0  0  0
  3  8  2  0  0  0  0
  3 15  1  0  0  0  0
  4  9  1  0  0  0  0
  4 15  2  0  0  0  0
  5 17  1  0  0  0  0
  6 19  1  0  0  0  0
  7 10  2  0  0  0  0
  7 18  1  0  0  0  0
  8 21  1  0  0  0  0
  9 21  2  0  0  0  0
 10 22  1  0  0  0  0
 11 12  2  0  0  0  0
 11 23  1  0  0  0  0
 12 24  1  0  0  0  0
 13 20  1  0  0  0  0
 13 22  2  0  0  0  0
 14 24  2  0  0  0  0
 14 25  1  0  0  0  0
 15 26  1  0  0  0  0
 16 26  1  0  0  0  0
 16 27  2  0  0  0  0
 16 28  1  0  0  0  0
 17 19  2  0  0  0  0
 17 33  1  0  0  0  0
 18 20  2  0  0  0  0
 18 34  1  0  0  0  0
 19 44  1  0  0  0  0
 20 35  1  0  0  0  0
 21 76  1  0  0  0  0
 22 77  1  0  0  0  0
 23 25  2  0  0  0  0
 23 76  1  0  0  0  0
 24 78  1  0  0  0  0
 25 79  1  0  0  0  0
 26 60  2  0  0  0  0
 27 61  1  0  0  0  0
 27 65  1  0  0  0  0
 28 66  1  0  0  0  0
 28 71  2  0  0  0  0
 29 45  1  0  0  0  0
 29 67  1  0  0  0  0
 29 72  2  0  0  0  0
 30 56  1  0  0  0  0
 30 62  1  0  0  0  0
 30 73  2  0  0  0  0
 31 57  1  0  0  0  0
 31 68  1  0  0  0  0
 31 74  2  0  0  0  0
 32 63  1  0  0  0  0
 32 64  1  0  0  0  0
 32 75  2  0  0  0  0
 33 36  1  0  0  0  0
 34 45  1  0  0  0  0
 35 62  1  0  0  0  0
 36 38  1  0  0  0  0
 37 39  1  0  0  0  0
 37 41  1  0  0  0  0
 38 44  1  0  0  0  0
 39 46  1  0  0  0  0
 40 42  1  0  0  0  0
 40 47  1  0  0  0  0
 41 63  1  0  0  0  0
 42 64  1  0  0  0  0
 43 46  1  0  0  0  0
 43 63  1  0  0  0  0
 44 67  1  0  0  0  0
 45 62  1  0  0  0  0
 46 61  1  0  0  0  0
 47 58  1  0  0  0  0
 47 64  1  0  0  0  0
 48 57  1  0  0  0  0
 49 59  1  0  0  0  0
 50 59  1  0  0  0  0
 51 59  1  0  0  0  0
 52 69  1  0  0  0  0
 53 70  1  0  0  0  0
 54 70  1  0  0  0  0
 55 58  1  0  0  0  0
 55 77  1  0  0  0  0
 56 59  1  0  0  0  0
 56 68  1  0  0  0  0
 57 69  1  0  0  0  0
 58 70  1  0  0  0  0
 60 61  1  0  0  0  0
M  CHG  2  69   1  70   1
M  ISO  4  32 100  55 101  64 100  77 101
M  END
> <Batch ID>
0179

> <Smiles>
CNC(C)C(=O)NC(C(=O)N1Cc2cc([101O:1][101CH2:1]C(C3CC[100N:0]3[100C:0](=O)N3CCCC(n4nc(-c5ccc(Oc6ccc(F)cc6F)cc5)c(C(N)=O)c4N)C3)N(C)C)ccc2CC1C(=O)NC1CCCc2ccccc21)C(C)(C)C

> <Shape>
0.221

> <Color>
0.061

> <Negative vol penalty>
0.000

$$$$

  -OEChem-04052322573D

 85 94  0     1  0  0  0  0  0999 V2000
  -28.8145  -37.4486   20.9645 C   0  0  0  0  0  0  0  0  0  0  0  0
  -29.1188  -36.1473   20.5779 C   0  0  0  0  0  0  0  0  0  0  0  0
  -24.6277   -9.7410   21.1182 C   0  0  0  0  0  0  0  0  0  0  0  0
  -22.2157   -9.8277   21.2270 C   0  0  0  0  0  0  0  0  0  0  0  0
  -27.9465  -37.6723   22.0324 C   0  0  0  0  0  0  0  0  0  0  0  0
  -28.5561  -35.0689   21.2597 C   0  0  0  0  0  0  0  0  0  0  0  0
  -26.8754  -29.6816   18.8812 C   0  0  0  0  0  0  0  0  0  0  0  0
  -24.6348   -8.7311   22.0802 C   0  0  0  0  0  0  0  0  0  0  0  0
  -22.2228   -8.8177   22.1891 C   0  0  0  0  0  0  0  0  0  0  0  0
  -27.5043  -28.4380   18.8384 C   0  0  0  0  0  0  0  0  0  0  0  0
  -22.5518   -5.4552   22.2657 C   0  0  0  0  0  0  0  0  0  0  0  0
  -21.6330   -4.4160   22.1189 C   0  0  0  0  0  0  0  0  0  0  0  0
  -26.2702  -27.7533   20.7948 C   0  0  0  0  0  0  0  0  0  0  0  0
  -20.6639   -4.9702   24.2615 C   0  0  0  0  0  0  0  0  0  0  0  0
  -28.8600  -23.6943   17.9041 C   0  0  0  0  0  0  0  0  0  0  0  0
  -23.4181  -10.2894   20.6916 C   0  0  0  0  0  0  0  0  0  0  0  0
  -23.3413  -11.1762   18.3009 C   0  0  0  0  0  0  0  0  0  0  0  0
  -27.3653  -36.5962   22.7215 C   0  0  0  0  0  0  0  0  0  0  0  0
  -25.9457  -29.9747   19.8892 C   0  0  0  0  0  0  0  0  0  0  0  0
  -27.6806  -35.2785   22.3387 C   0  0  0  0  0  0  0  0  0  0  0  0
  -25.6290  -29.0005   20.8466 C   0  0  0  0  0  0  0  0  0  0  0  0
  -23.4324   -8.2694   22.6157 C   0  0  0  0  0  0  0  0  0  0  0  0
  -27.2039  -27.4747   19.7969 C   0  0  0  0  0  0  0  0  0  0  0  0
  -22.5266   -6.2519   23.4104 C   0  0  0  0  0  0  0  0  0  0  0  0
  -20.6891   -4.1735   23.1168 C   0  0  0  0  0  0  0  0  0  0  0  0
  -21.5827   -6.0094   24.4083 C   0  0  0  0  0  0  0  0  0  0  0  0
  -23.4102  -11.3330   19.6982 C   0  0  0  0  0  0  0  0  0  0  0  0
  -29.4108  -22.4385   18.0588 C   0  0  0  0  0  0  0  0  0  0  0  0
  -29.2951  -24.6512   18.7981 C   0  0  0  0  0  0  0  0  0  0  0  0
  -23.3644  -12.4587   17.8099 C   0  0  0  0  0  0  0  0  0  0  0  0
  -30.6609  -23.1485   19.8196 C   0  0  0  0  0  0  0  0  0  0  0  0
  -23.2633   -9.9783   17.5169 C   0  0  0  0  0  0  0  0  0  0  0  0
  -25.7828  -32.1097   22.2385 C   0  0  0  0  0  0  0  0  0  0  0  0
  -22.8113  -30.8701   22.6335 C   0  0  0  0  0  0  0  0  0  0  0  0
  -20.6918  -28.2308   22.1991 C   0  0  0  0  0  0  0  0  0  0  0  0
  -25.2718  -17.4737   17.6311 C   0  0  0  0  0  0  0  0  0  0  0  0
  -26.4699  -36.8873   23.8997 C   0  0  0  0  0  0  0  0  0  0  0  0
  -25.2562  -31.3114   19.9058 C   0  0  0  0  0  0  0  0  0  0  0  0
  -24.6231  -29.2582   21.9376 C   0  0  0  0  0  0  0  0  0  0  0  0
  -25.6225  -35.6929   24.3304 C   0  0  0  0  0  0  0  0  0  0  0  0
  -22.9010  -16.9055   20.1609 C   0  0  0  0  0  0  0  0  0  0  0  0
  -26.4774  -34.4320   24.4079 C   0  0  0  0  0  0  0  0  0  0  0  0
  -22.8137  -15.3796   20.1574 C   0  0  0  0  0  0  0  0  0  0  0  0
  -24.3387  -17.3981   19.9867 C   0  0  0  0  0  0  0  0  0  0  0  0
  -26.2151  -19.4239   18.9468 C   0  0  0  0  0  0  0  0  0  0  0  0
  -25.5998  -19.6873   16.5720 C   0  0  0  0  0  0  0  0  0  0  0  0
  -24.9373  -15.3138   18.7963 C   0  0  0  0  0  0  0  0  0  0  0  0
  -27.6366  -19.8836   18.6393 C   0  0  0  0  0  0  0  0  0  0  0  0
  -27.0134  -20.1252   16.2247 C   0  0  0  0  0  0  0  0  0  0  0  0
  -27.0708  -34.0828   23.0377 C   0  0  1  0  0  0  0  0  0  0  0  0
  -24.7073  -31.6836   21.2796 C   0  0  1  0  0  0  0  0  0  0  0  0
  -23.4973  -14.7902   18.9109 C   0  0  1  0  0  0  0  0  0  0  0  0
  -31.6638  -22.8471   20.8813 C   0  0  0  0  0  0  0  0  0  0  0  0
  -18.3356  -27.5000   22.6593 C   0  0  0  0  0  0  0  0  0  0  0  0
  -23.5288  -30.4101   25.5633 C   0  0  0  0  0  0  0  0  0  0  0  0
  -21.5702  -28.8591   25.7271 C   0  0  0  0  0  0  0  0  0  0  0  0
  -21.2105  -31.2660   25.1789 C   0  0  0  0  0  0  0  0  0  0  0  0
  -20.1059  -27.9075   19.3162 C   0  0  0  0  0  0  0  0  0  0  0  0
  -28.9999  -21.3317   17.1330 C   0  0  0  0  0  0  0  0  0  0  0  0
  -28.7568  -26.0399   18.7080 C   0  0  0  0  0  0  0  0  0  1  0  0
  -22.2242  -29.7367   23.4395 C   0  0  1  0  0  0  0  0  0  0  0  0
  -19.2752  -28.1549   21.6587 C   0  0  2  0  0  0  0  0  0  0  0  0
  -22.1539  -30.0635   24.9579 C   0  0  0  0  0  0  0  0  0  0  0  0
  -23.4726  -12.6142   20.0708 N   0  0  0  0  0  0  0  0  0  0  0  0
  -30.3172  -22.1294   19.0092 N   0  0  0  0  0  0  0  0  0  0  0  0
  -30.1977  -24.4121   19.7720 N   0  0  0  0  0  0  0  0  0  0  0  0
  -23.4430  -13.2740   18.9004 N   0  0  0  0  0  0  0  0  0  0  0  0
  -23.9804  -30.5826   21.9151 N   0  0  0  0  0  0  0  0  0  0  0  0
  -24.9625  -16.7780   18.8094 N   0  0  0  0  0  0  0  0  0  0  0  0
  -25.5854  -18.8350   17.7588 N   0  0  0  0  0  0  0  0  0  0  0  0
  -23.3251  -12.9573   16.5560 N   0  0  0  0  0  0  0  0  0  0  0  0
  -23.2497   -8.7445   18.1816 N   0  0  0  0  0  0  0  0  0  0  0  0
  -26.0702  -33.4607   22.1973 N   0  0  0  0  0  0  0  0  0  0  0  0
  -20.9327  -29.4311   22.8336 N   0  0  0  0  0  0  0  0  0  0  0  0
  -27.6298  -20.7912   17.4328 N   0  3  0  0  0  0  0  0  0  0  0  0
  -19.2440  -27.3629   20.3967 N   0  3  0  0  0  0  0  0  0  0  0  0
  -23.2239  -10.0007   16.2633 O   0  0  0  0  0  0  0  0  0  0  0  0
  -26.3116  -31.2749   22.9631 O   0  0  0  0  0  0  0  0  0  0  0  0
  -22.2491  -31.9681   22.6355 O   0  0  0  0  0  0  0  0  0  0  0  0
  -21.5023  -27.3154   22.0743 O   0  0  0  0  0  0  0  0  0  0  0  0
  -25.2685  -16.9110   16.5289 O   0  0  0  0  0  0  0  0  0  0  0  0
  -23.4389   -7.2838   23.5543 O   0  0  0  0  0  0  0  0  0  0  0  0
  -27.8210  -26.2518   19.7576 O   0  0  0  0  0  0  0  0  0  1  0  0
  -19.8059   -3.1765   22.9750 F   0  0  0  0  0  0  0  0  0  0  0  0
  -21.5529   -6.7722   25.5097 F   0  0  0  0  0  0  0  0  0  0  0  0
  1  2  1  0  0  0  0
  1  5  2  0  0  0  0
  2  6  2  0  0  0  0
  3  8  2  0  0  0  0
  3 16  1  0  0  0  0
  4  9  1  0  0  0  0
  4 16  2  0  0  0  0
  5 18  1  0  0  0  0
  6 20  1  0  0  0  0
  7 10  2  0  0  0  0
  7 19  1  0  0  0  0
  8 22  1  0  0  0  0
  9 22  2  0  0  0  0
 10 23  1  0  0  0  0
 11 12  2  0  0  0  0
 11 24  1  0  0  0  0
 12 25  1  0  0  0  0
 13 21  1  0  0  0  0
 13 23  2  0  0  0  0
 14 25  2  0  0  0  0
 14 26  1  0  0  0  0
 15 28  2  0  0  0  0
 15 29  1  0  0  0  0
 16 27  1  0  0  0  0
 17 27  1  0  0  0  0
 17 30  2  0  0  0  0
 17 32  1  0  0  0  0
 18 20  2  0  0  0  0
 18 37  1  0  0  0  0
 19 21  2  0  0  0  0
 19 38  1  0  0  0  0
 20 50  1  0  0  0  0
 21 39  1  0  0  0  0
 22 82  1  0  0  0  0
 23 83  1  0  0  0  0
 24 26  2  0  0  0  0
 24 82  1  0  0  0  0
 25 84  1  0  0  0  0
 26 85  1  0  0  0  0
 27 64  2  0  0  0  0
 28 59  1  0  0  0  0
 28 65  1  0  0  0  0
 29 60  1  0  0  0  0
 29 66  2  0  0  0  0
 30 67  1  0  0  0  0
 30 71  1  0  0  0  0
 31 53  1  0  0  0  0
 31 65  2  0  0  0  0
 31 66  1  0  0  0  0
 32 72  1  0  0  0  0
 32 77  2  0  0  0  0
 33 51  1  0  0  0  0
 33 73  1  0  0  0  0
 33 78  2  0  0  0  0
 34 61  1  0  0  0  0
 34 68  1  0  0  0  0
 34 79  2  0  0  0  0
 35 62  1  0  0  0  0
 35 74  1  0  0  0  0
 35 80  2  0  0  0  0
 36 69  1  0  0  0  0
 36 70  1  0  0  0  0
 36 81  2  0  0  0  0
 37 40  1  0  0  0  0
 38 51  1  0  0  0  0
 39 68  1  0  0  0  0
 40 42  1  0  0  0  0
 41 43  1  0  0  0  0
 41 44  1  0  0  0  0
 42 50  1  0  0  0  0
 43 52  1  0  0  0  0
 44 69  1  0  0  0  0
 45 48  1  0  0  0  0
 45 70  1  0  0  0  0
 46 49  1  0  0  0  0
 46 70  1  0  0  0  0
 47 52  1  0  0  0  0
 47 69  1  0  0  0  0
 48 75  1  0  0  0  0
 49 75  1  0  0  0  0
 50 73  1  0  0  0  0
 51 68  1  0  0  0  0
 52 67  1  0  0  0  0
 54 62  1  0  0  0  0
 55 63  1  0  0  0  0
 56 63  1  0  0  0  0
 57 63  1  0  0  0  0
 58 76  1  0  0  0  0
 59 75  1  0  0  0  0
 60 83  1  0  0  0  0
 61 63  1  0  0  0  0
 61 74  1  0  0  0  0
 62 76  1  0  0  0  0
 64 67  1  0  0  0  0
M  CHG  2  75   1  76   1
M  ISO  4  36 100  60 101  70 100  83 101
M  END
> <Batch ID>
0179

> <Smiles>
CNC(C)C(=O)NC(C(=O)N1Cc2cc([101O:1][101CH2:1]c3cc(CN4CC[100N:0]([100C:0](=O)N5CCCC(n6nc(-c7ccc(Oc8ccc(F)cc8F)cc7)c(C(N)=O)c6N)C5)CC4)nc(C)n3)ccc2CC1C(=O)NC1CCCc2ccccc21)C(C)(C)C

> <Shape>
0.269

> <Color>
0.088

> <Negative vol penalty>
0.000

$$$$

  -OEChem-04052322573D

 84 93  0     1  0  0  0  0  0999 V2000
  -28.6639  -35.0767   16.6644 C   0  0  0  0  0  0  0  0  0  0  0  0
  -28.8535  -33.8878   17.3617 C   0  0  0  0  0  0  0  0  0  0  0  0
  -26.6076  -12.8490   21.5351 C   0  0  0  0  0  0  0  0  0  0  0  0
  -26.2896  -13.7206   19.3044 C   0  0  0  0  0  0  0  0  0  0  0  0
  -27.7325  -36.0093   17.1191 C   0  0  0  0  0  0  0  0  0  0  0  0
  -28.1124  -33.6313   18.5147 C   0  0  0  0  0  0  0  0  0  0  0  0
  -26.2872  -28.9093   18.6406 C   0  0  0  0  0  0  0  0  0  0  0  0
  -25.3063  -12.3470   21.5246 C   0  0  0  0  0  0  0  0  0  0  0  0
  -24.9882  -13.2186   19.2938 C   0  0  0  0  0  0  0  0  0  0  0  0
  -27.1741  -27.8931   18.9932 C   0  0  0  0  0  0  0  0  0  0  0  0
  -23.6744   -9.6830   20.2311 C   0  0  0  0  0  0  0  0  0  0  0  0
  -23.4775   -8.3825   20.6952 C   0  0  0  0  0  0  0  0  0  0  0  0
  -26.2835  -27.9020   21.2351 C   0  0  0  0  0  0  0  0  0  0  0  0
  -21.9932   -9.2187   22.4084 C   0  0  0  0  0  0  0  0  0  0  0  0
  -27.0993  -13.5358   20.4251 C   0  0  0  0  0  0  0  0  0  0  0  0
  -29.6126  -13.3960   20.0112 C   0  0  0  0  0  0  0  0  0  0  0  0
  -26.9728  -35.7598   18.2729 C   0  0  0  0  0  0  0  0  0  0  0  0
  -25.3977  -29.4380   19.5871 C   0  0  0  0  0  0  0  0  0  0  0  0
  -27.1710  -34.5620   18.9860 C   0  0  0  0  0  0  0  0  0  0  0  0
  -25.3845  -28.9231   20.8913 C   0  0  0  0  0  0  0  0  0  0  0  0
  -24.4966  -12.5318   20.4039 C   0  0  0  0  0  0  0  0  0  0  0  0
  -27.1743  -27.3912   20.2914 C   0  0  0  0  0  0  0  0  0  0  0  0
  -23.0308  -10.7514   20.8556 C   0  0  0  0  0  0  0  0  0  0  0  0
  -22.6369   -8.1503   21.7838 C   0  0  0  0  0  0  0  0  0  0  0  0
  -22.1902  -10.5192   21.9442 C   0  0  0  0  0  0  0  0  0  0  0  0
  -28.4433  -14.0551   20.4356 C   0  0  0  0  0  0  0  0  0  0  0  0
  -30.6172  -14.3082   20.2235 C   0  0  0  0  0  0  0  0  0  0  0  0
  -29.7761  -12.0771   19.4730 C   0  0  0  0  0  0  0  0  0  0  0  0
  -30.4995  -20.2411   20.4731 C   0  0  0  0  0  0  0  0  0  0  0  0
  -24.9446  -32.3046   20.8835 C   0  0  0  0  0  0  0  0  0  0  0  0
  -22.3683  -30.8603   22.2248 C   0  0  0  0  0  0  0  0  0  0  0  0
  -20.8688  -27.9656   23.2343 C   0  0  0  0  0  0  0  0  0  0  0  0
  -26.0118  -36.8187   18.7523 C   0  0  0  0  0  0  0  0  0  0  0  0
  -24.4289  -30.5156   19.1837 C   0  0  0  0  0  0  0  0  0  0  0  0
  -24.4355  -29.4424   21.9392 C   0  0  0  0  0  0  0  0  0  0  0  0
  -24.9990  -36.3052   19.7725 C   0  0  0  0  0  0  0  0  0  0  0  0
  -31.8084  -17.9959   23.0173 C   0  0  0  0  0  0  0  0  0  0  0  0
  -25.6953  -35.4696   20.8419 C   0  0  0  0  0  0  0  0  0  0  0  0
  -31.1689  -16.6686   22.6119 C   0  0  0  0  0  0  0  0  0  0  0  0
  -30.5759  -22.6552   19.9463 C   0  0  0  0  0  0  0  0  0  0  0  0
  -31.7714  -21.8713   21.8801 C   0  0  0  0  0  0  0  0  0  0  0  0
  -30.8750  -19.1737   22.7494 C   0  0  0  0  0  0  0  0  0  0  0  0
  -29.7548  -17.9262   20.9291 C   0  0  0  0  0  0  0  0  0  0  0  0
  -29.2432  -23.3276   22.5331 C   0  0  0  0  0  0  0  0  0  0  0  0
  -26.3685  -34.2366   20.2271 C   0  0  1  0  0  0  0  0  0  0  0  0
  -23.9203  -31.3348   20.3658 C   0  0  1  0  0  0  0  0  0  0  0  0
  -30.6760  -16.7157   21.1550 C   0  0  2  0  0  0  0  0  0  0  0  0
  -31.0156  -23.8899   20.7338 C   0  0  2  0  0  0  0  0  0  0  0  0
  -30.4560  -21.6218   21.0779 C   0  0  2  0  0  0  0  0  0  0  0  0
  -32.1997  -23.3345   21.5704 C   0  0  0  0  0  0  0  0  0  0  0  0
  -29.1664  -21.9026   21.9307 C   0  0  0  0  0  0  0  0  0  0  0  0
  -33.4763  -23.3138   20.6872 C   0  0  0  0  0  0  0  0  0  0  0  0
  -32.5863  -24.1102   22.8338 C   0  0  0  0  0  0  0  0  0  0  0  0
  -27.8680  -21.7925   21.0891 C   0  0  0  0  0  0  0  0  0  0  0  0
  -29.0098  -20.9046   23.1037 C   0  0  0  0  0  0  0  0  0  0  0  0
  -18.7810  -27.1069   24.3300 C   0  0  0  0  0  0  0  0  0  0  0  0
  -23.3993  -31.8162   24.9328 C   0  0  0  0  0  0  0  0  0  0  0  0
  -21.8587  -30.1706   26.0221 C   0  0  0  0  0  0  0  0  0  0  0  0
  -20.9251  -32.0170   24.6285 C   0  0  0  0  0  0  0  0  0  0  0  0
  -20.1454  -26.3555   20.8587 C   0  0  0  0  0  0  0  0  0  0  0  0
  -29.8512  -25.7241   22.0741 C   0  0  0  0  0  0  0  0  0  0  0  0
  -28.4799  -26.3655   21.9941 C   0  0  0  0  0  0  0  0  0  1  0  0
  -22.1164  -30.0933   23.5004 C   0  0  1  0  0  0  0  0  0  0  0  0
  -19.4675  -27.4262   23.0112 C   0  0  2  0  0  0  0  0  0  0  0  0
  -22.0942  -31.0156   24.7520 C   0  0  0  0  0  0  0  0  0  0  0  0
  -28.6816  -15.2905   20.8838 N   0  0  0  0  0  0  0  0  0  0  0  0
  -30.0122  -15.4150   20.7423 N   0  0  0  0  0  0  0  0  0  0  0  0
  -30.4060  -19.1671   21.3586 N   0  0  0  0  0  0  0  0  0  0  0  0
  -23.5119  -30.5005   21.4978 N   0  0  0  0  0  0  0  0  0  0  0  0
  -31.9503  -14.2635   20.0152 N   0  0  0  0  0  0  0  0  0  0  0  0
  -28.6391  -11.2718   19.3213 N   0  0  0  0  0  0  0  0  0  0  0  0
  -25.3853  -33.2139   19.9409 N   0  0  0  0  0  0  0  0  0  0  0  0
  -20.8830  -29.3433   23.2890 N   0  0  0  0  0  0  0  0  0  0  0  0
  -29.7783  -24.3262   21.5236 N   0  3  2  0  0  0  0  0  0  0  0  0
  -19.5158  -26.1815   22.1930 N   0  3  0  0  0  0  0  0  0  0  0  0
  -30.8993  -11.6202   19.1520 O   0  0  0  0  0  0  0  0  0  0  0  0
  -30.6159  -20.1228   19.2506 O   0  0  0  0  0  0  0  0  0  0  0  0
  -25.3071  -32.2342   22.0519 O   0  0  0  0  0  0  0  0  0  0  0  0
  -21.5757  -31.7413   21.8823 O   0  0  0  0  0  0  0  0  0  0  0  0
  -21.8519  -27.2375   23.3522 O   0  0  0  0  0  0  0  0  0  0  0  0
  -23.2268  -12.0419   20.3932 O   0  0  0  0  0  0  0  0  0  0  0  0
  -28.0456  -26.3926   20.6409 O   0  0  0  0  0  0  0  0  0  1  0  0
  -22.4466   -6.9012   22.2285 F   0  0  0  0  0  0  0  0  0  0  0  0
  -21.5682  -11.5415   22.5476 F   0  0  0  0  0  0  0  0  0  0  0  0
  1  2  1  0  0  0  0
  1  5  2  0  0  0  0
  2  6  2  0  0  0  0
  3  8  2  0  0  0  0
  3 15  1  0  0  0  0
  4  9  1  0  0  0  0
  4 15  2  0  0  0  0
  5 17  1  0  0  0  0
  6 19  1  0  0  0  0
  7 10  2  0  0  0  0
  7 18  1  0  0  0  0
  8 21  1  0  0  0  0
  9 21  2  0  0  0  0
 10 22  1  0  0  0  0
 11 12  2  0  0  0  0
 11 23  1  0  0  0  0
 12 24  1  0  0  0  0
 13 20  1  0  0  0  0
 13 22  2  0  0  0  0
 14 24  2  0  0  0  0
 14 25  1  0  0  0  0
 15 26  1  0  0  0  0
 16 26  1  0  0  0  0
 16 27  2  0  0  0  0
 16 28  1  0  0  0  0
 17 19  2  0  0  0  0
 17 33  1  0  0  0  0
 18 20  2  0  0  0  0
 18 34  1  0  0  0  0
 19 45  1  0  0  0  0
 20 35  1  0  0  0  0
 21 81  1  0  0  0  0
 22 82  1  0  0  0  0
 23 25  2  0  0  0  0
 23 81  1  0  0  0  0
 24 83  1  0  0  0  0
 25 84  1  0  0  0  0
 26 66  2  0  0  0  0
 27 67  1  0  0  0  0
 27 70  1  0  0  0  0
 28 71  1  0  0  0  0
 28 76  2  0  0  0  0
 29 49  1  0  0  0  0
 29 68  1  0  0  0  0
 29 77  2  0  0  0  0
 30 46  1  0  0  0  0
 30 72  1  0  0  0  0
 30 78  2  0  0  0  0
 31 63  1  0  0  0  0
 31 69  1  0  0  0  0
 31 79  2  0  0  0  0
 32 64  1  0  0  0  0
 32 73  1  0  0  0  0
 32 80  2  0  0  0  0
 33 36  1  0  0  0  0
 34 46  1  0  0  0  0
 35 69  1  0  0  0  0
 36 38  1  0  0  0  0
 37 39  1  0  0  0  0
 37 42  1  0  0  0  0
 38 45  1  0  0  0  0
 39 47  1  0  0  0  0
 40 48  1  0  0  0  0
 40 49  1  0  0  0  0
 41 49  1  0  0  0  0
 41 50  1  0  0  0  0
 42 68  1  0  0  0  0
 43 47  1  0  0  0  0
 43 68  1  0  0  0  0
 44 51  1  0  0  0  0
 44 74  1  0  0  0  0
 45 72  1  0  0  0  0
 46 69  1  0  0  0  0
 47 67  1  0  0  0  0
 48 50  1  0  0  0  0
 48 74  1  0  0  0  0
 49 51  1  0  0  0  0
 50 52  1  0  0  0  0
 50 53  1  0  0  0  0
 51 54  1  0  0  0  0
 51 55  1  0  0  0  0
 56 64  1  0  0  0  0
 57 65  1  0  0  0  0
 58 65  1  0  0  0  0
 59 65  1  0  0  0  0
 60 75  1  0  0  0  0
 61 62  1  0  0  0  0
 61 74  1  0  0  0  0
 62 82  1  0  0  0  0
 63 65  1  0  0  0  0
 63 73  1  0  0  0  0
 64 75  1  0  0  0  0
 66 67  1  0  0  0  0
M  CHG  2  74   1  75   1
M  ISO  4  29 100  49 100  62 101  82 101
M  END
> <Batch ID>
0179

> <Smiles>
CNC(C)C(=O)NC(C(=O)N1Cc2cc([101O:1][101CH2:1]CN3CC(C)(C)[100C:0]4([100C:0](=O)N5CCCC(n6nc(-c7ccc(Oc8ccc(F)cc8F)cc7)c(C(N)=O)c6N)C5)CC3C(C)(C)C4)ccc2CC1C(=O)NC1CCCc2ccccc21)C(C)(C)C

> <Shape>
0.294

> <Color>
0.087

> <Negative vol penalty>
0.000

$$$$

  -OEChem-04052322573D

 84 93  0     1  0  0  0  0  0999 V2000
  -27.6381  -37.9457   21.9067 C   0  0  0  0  0  0  0  0  0  0  0  0
  -28.1449  -36.8797   21.1704 C   0  0  0  0  0  0  0  0  0  0  0  0
  -23.5327  -10.0688   22.0629 C   0  0  0  0  0  0  0  0  0  0  0  0
  -24.3136   -8.7920   20.1663 C   0  0  0  0  0  0  0  0  0  0  0  0
  -26.9010  -37.7034   23.0651 C   0  0  0  0  0  0  0  0  0  0  0  0
  -27.9157  -35.5706   21.5927 C   0  0  0  0  0  0  0  0  0  0  0  0
  -26.8826  -28.9703   19.0071 C   0  0  0  0  0  0  0  0  0  0  0  0
  -22.2477   -9.5593   21.8769 C   0  0  0  0  0  0  0  0  0  0  0  0
  -23.0285   -8.2824   19.9803 C   0  0  0  0  0  0  0  0  0  0  0  0
  -27.3726  -27.6720   19.1416 C   0  0  0  0  0  0  0  0  0  0  0  0
  -20.0324   -6.3660   19.2260 C   0  0  0  0  0  0  0  0  0  0  0  0
  -19.9053   -4.9988   18.9810 C   0  0  0  0  0  0  0  0  0  0  0  0
  -26.0180  -27.3717   21.1149 C   0  0  0  0  0  0  0  0  0  0  0  0
  -29.6015  -23.4758   20.7080 C   0  0  0  0  0  0  0  0  0  0  0  0
  -20.9471   -4.5209   21.1079 C   0  0  0  0  0  0  0  0  0  0  0  0
  -24.5657   -9.6852   21.2076 C   0  0  0  0  0  0  0  0  0  0  0  0
  -26.9195   -9.6626   22.1908 C   0  0  0  0  0  0  0  0  0  0  0  0
  -26.6545  -36.3905   23.4965 C   0  0  0  0  0  0  0  0  0  0  0  0
  -25.9635  -29.4837   19.9334 C   0  0  0  0  0  0  0  0  0  0  0  0
  -27.1757  -35.3106   22.7587 C   0  0  0  0  0  0  0  0  0  0  0  0
  -25.5160  -28.6760   20.9886 C   0  0  0  0  0  0  0  0  0  0  0  0
  -29.4037  -21.1417   20.1628 C   0  0  0  0  0  0  0  0  0  0  0  0
  -29.9347  -22.1496   20.9599 C   0  0  0  0  0  0  0  0  0  0  0  0
  -21.9956   -8.6661   20.8356 C   0  0  0  0  0  0  0  0  0  0  0  0
  -26.9425  -26.8735   20.1972 C   0  0  0  0  0  0  0  0  0  0  0  0
  -20.6170   -6.8108   20.4118 C   0  0  0  0  0  0  0  0  0  0  0  0
  -20.3626   -4.0762   19.9220 C   0  0  0  0  0  0  0  0  0  0  0  0
  -21.0743   -5.8882   21.3528 C   0  0  0  0  0  0  0  0  0  0  0  0
  -25.8933  -10.2116   21.3989 C   0  0  0  0  0  0  0  0  0  0  0  0
  -28.7399  -23.7394   19.6554 C   0  0  0  0  0  0  0  0  0  0  0  0
  -28.5508  -21.5097   19.1347 C   0  0  0  0  0  0  0  0  0  0  0  0
  -27.9726  -10.5311   22.0387 C   0  0  0  0  0  0  0  0  0  0  0  0
  -26.9208   -8.4737   22.9923 C   0  0  0  0  0  0  0  0  0  0  0  0
  -25.9711  -31.9016   21.9967 C   0  0  0  0  0  0  0  0  0  0  0  0
  -22.8721  -31.0409   22.4186 C   0  0  0  0  0  0  0  0  0  0  0  0
  -20.4892  -28.6058   22.2228 C   0  0  0  0  0  0  0  0  0  0  0  0
  -28.0060  -16.3251   20.6503 C   0  0  0  0  0  0  0  0  0  0  0  0
  -25.8925  -36.1795   24.7809 C   0  0  0  0  0  0  0  0  0  0  0  0
  -25.4242  -30.8770   19.7591 C   0  0  0  0  0  0  0  0  0  0  0  0
  -24.5150  -29.1729   21.9982 C   0  0  0  0  0  0  0  0  0  0  0  0
  -25.3761  -34.7536   24.9554 C   0  0  0  0  0  0  0  0  0  0  0  0
  -29.8671  -13.6305   18.9508 C   0  0  0  0  0  0  0  0  0  0  0  0
  -26.4730  -33.7449   24.6297 C   0  0  0  0  0  0  0  0  0  0  0  0
  -29.1029  -12.3995   19.4289 C   0  0  0  0  0  0  0  0  0  0  0  0
  -29.5155  -19.1293   21.7785 C   0  0  0  0  0  0  0  0  0  0  0  0
  -28.9528  -14.8432   18.7815 C   0  0  0  0  0  0  0  0  0  0  0  0
  -27.3955  -13.9330   20.4816 C   0  0  0  0  0  0  0  0  0  0  0  0
  -29.7438  -19.7095   20.4094 C   0  0  1  0  0  0  0  0  0  0  0  0
  -26.9274  -33.8758   23.1709 C   0  0  1  0  0  0  0  0  0  0  0  0
  -24.8820  -31.4742   21.0540 C   0  0  1  0  0  0  0  0  0  0  0  0
  -28.3071  -12.7165   20.7043 C   0  0  1  0  0  0  0  0  0  0  0  0
  -28.6238  -18.7231   20.6427 C   0  0  1  0  0  0  0  0  0  0  0  0
  -30.8615  -21.8365   22.0882 C   0  0  0  0  0  0  0  0  0  0  0  0
  -27.3073  -21.0792   17.0005 C   0  0  0  0  0  0  0  0  0  0  0  0
  -18.0555  -28.1904   22.6724 C   0  0  0  0  0  0  0  0  0  0  0  0
  -23.4547  -30.8790   25.4093 C   0  0  0  0  0  0  0  0  0  0  0  0
  -21.3345  -29.5755   25.6810 C   0  0  0  0  0  0  0  0  0  0  0  0
  -21.2554  -31.9190   24.8298 C   0  0  0  0  0  0  0  0  0  0  0  0
  -19.9503  -27.9870   19.3793 C   0  0  0  0  0  0  0  0  0  0  0  0
  -27.9484  -20.4720   18.2444 C   0  0  0  0  0  0  0  0  0  0  0  0
  -28.3586  -25.1589   19.3541 C   0  0  0  0  0  0  0  0  0  1  0  0
  -22.1427  -30.0856   23.3320 C   0  0  1  0  0  0  0  0  0  0  0  0
  -19.0881  -28.6122   21.6386 C   0  0  2  0  0  0  0  0  0  0  0  0
  -22.0672  -30.6058   24.7953 C   0  0  0  0  0  0  0  0  0  0  0  0
  -26.2611  -11.3415   20.7890 N   0  0  0  0  0  0  0  0  0  0  0  0
  -28.2041  -22.7871   18.8594 N   0  0  0  0  0  0  0  0  0  0  0  0
  -27.5302  -11.5096   21.1979 N   0  0  0  0  0  0  0  0  0  0  0  0
  -24.0220  -30.5442   21.7886 N   0  0  0  0  0  0  0  0  0  0  0  0
  -28.1530  -15.0911   19.9914 N   0  0  0  0  0  0  0  0  0  0  0  0
  -29.2246  -10.5456   22.5434 N   0  0  0  0  0  0  0  0  0  0  0  0
  -25.7553   -7.6965   23.0366 N   0  0  0  0  0  0  0  0  0  0  0  0
  -25.9675  -33.2531   22.2848 N   0  0  0  0  0  0  0  0  0  0  0  0
  -20.8426  -29.8440   22.7158 N   0  0  0  0  0  0  0  0  0  0  0  0
  -28.6842  -17.3987   20.0843 N   0  0  0  0  0  0  0  0  0  0  0  0
  -19.0048  -27.6759   20.4821 N   0  3  0  0  0  0  0  0  0  0  0  0
  -27.9203   -8.1201   23.6627 O   0  0  0  0  0  0  0  0  0  0  0  0
  -26.7556  -31.0668   22.4318 O   0  0  0  0  0  0  0  0  0  0  0  0
  -22.4337  -32.1835   22.2641 O   0  0  0  0  0  0  0  0  0  0  0  0
  -21.1977  -27.6017   22.2434 O   0  0  0  0  0  0  0  0  0  0  0  0
  -27.3161  -16.4638   21.6664 O   0  0  0  0  0  0  0  0  0  0  0  0
  -20.7418   -8.1685   20.6539 O   0  0  0  0  0  0  0  0  0  0  0  0
  -27.4196  -25.6061   20.3312 O   0  0  0  0  0  0  0  0  0  1  0  0
  -20.2391   -2.7633   19.6873 F   0  0  0  0  0  0  0  0  0  0  0  0
  -21.6357   -6.3094   22.4944 F   0  0  0  0  0  0  0  0  0  0  0  0
  1  2  1  0  0  0  0
  1  5  2  0  0  0  0
  2  6  2  0  0  0  0
  3  8  2  0  0  0  0
  3 16  1  0  0  0  0
  4  9  1  0  0  0  0
  4 16  2  0  0  0  0
  5 18  1  0  0  0  0
  6 20  1  0  0  0  0
  7 10  2  0  0  0  0
  7 19  1  0  0  0  0
  8 24  1  0  0  0  0
  9 24  2  0  0  0  0
 10 25  1  0  0  0  0
 11 12  2  0  0  0  0
 11 26  1  0  0  0  0
 12 27  1  0  0  0  0
 13 21  1  0  0  0  0
 13 25  2  0  0  0  0
 14 23  2  0  0  0  0
 14 30  1  0  0  0  0
 15 27  2  0  0  0  0
 15 28  1  0  0  0  0
 16 29  1  0  0  0  0
 17 29  1  0  0  0  0
 17 32  2  0  0  0  0
 17 33  1  0  0  0  0
 18 20  2  0  0  0  0
 18 38  1  0  0  0  0
 19 21  2  0  0  0  0
 19 39  1  0  0  0  0
 20 49  1  0  0  0  0
 21 40  1  0  0  0  0
 22 23  1  0  0  0  0
 22 31  2  0  0  0  0
 22 48  1  0  0  0  0
 23 53  1  0  0  0  0
 24 81  1  0  0  0  0
 25 82  1  0  0  0  0
 26 28  2  0  0  0  0
 26 81  1  0  0  0  0
 27 83  1  0  0  0  0
 28 84  1  0  0  0  0
 29 65  2  0  0  0  0
 30 61  1  0  0  0  0
 30 66  2  0  0  0  0
 31 60  1  0  0  0  0
 31 66  1  0  0  0  0
 32 67  1  0  0  0  0
 32 70  1  0  0  0  0
 33 71  1  0  0  0  0
 33 76  2  0  0  0  0
 34 50  1  0  0  0  0
 34 72  1  0  0  0  0
 34 77  2  0  0  0  0
 35 62  1  0  0  0  0
 35 68  1  0  0  0  0
 35 78  2  0  0  0  0
 36 63  1  0  0  0  0
 36 73  1  0  0  0  0
 36 79  2  0  0  0  0
 37 69  1  0  0  0  0
 37 74  1  0  0  0  0
 37 80  2  0  0  0  0
 38 41  1  0  0  0  0
 39 50  1  0  0  0  0
 40 68  1  0  0  0  0
 41 43  1  0  0  0  0
 42 44  1  0  0  0  0
 42 46  1  0  0  0  0
 43 49  1  0  0  0  0
 44 51  1  0  0  0  0
 45 48  1  0  0  0  0
 45 52  1  0  0  0  0
 46 69  1  0  0  0  0
 47 51  1  0  0  0  0
 47 69  1  0  0  0  0
 48 52  1  0  0  0  0
 49 72  1  0  0  0  0
 50 68  1  0  0  0  0
 51 67  1  0  0  0  0
 52 74  1  0  0  0  0
 54 60  1  0  0  0  0
 55 63  1  0  0  0  0
 56 64  1  0  0  0  0
 57 64  1  0  0  0  0
 58 64  1  0  0  0  0
 59 75  1  0  0  0  0
 61 82  1  0  0  0  0
 62 64  1  0  0  0  0
 62 73  1  0  0  0  0
 63 75  1  0  0  0  0
 65 67  1  0  0  0  0
M  CHG  1  75   1
M  ISO  4  37 100  61 101  74 100  82 101
M  END
> <Batch ID>
0179

> <Smiles>
CCc1nc([101CH2:1][101O:1]c2ccc3c(c2)CN(C(=O)C(NC(=O)C(C)NC)C(C)(C)C)C(C(=O)NC2CCCc4ccccc42)C3)cc(C)c1C1CC1[100NH:0][100C:0](=O)N1CCCC(n2nc(-c3ccc(Oc4ccc(F)cc4F)cc3)c(C(N)=O)c2N)C1

> <Shape>
0.307

> <Color>
0.097

> <Negative vol penalty>
0.000

$$$$

  -OEChem-04052322573D

 85 94  0     1  0  0  0  0  0999 V2000
  -21.4405  -12.5904   21.0849 C   0  0  0  0  0  0  0  0  0  0  0  0
  -21.6554  -13.8653   21.5986 C   0  0  0  0  0  0  0  0  0  0  0  0
  -29.1236  -30.6318   20.2717 C   0  0  0  0  0  0  0  0  0  0  0  0
  -28.5920  -29.7908   22.4733 C   0  0  0  0  0  0  0  0  0  0  0  0
  -22.5193  -11.8305   20.6347 C   0  0  0  0  0  0  0  0  0  0  0  0
  -22.9495  -14.3806   21.6635 C   0  0  0  0  0  0  0  0  0  0  0  0
  -23.2117  -19.1799   20.0688 C   0  0  0  0  0  0  0  0  0  0  0  0
  -30.1925  -31.3520   20.8049 C   0  0  0  0  0  0  0  0  0  0  0  0
  -29.6609  -30.5110   23.0066 C   0  0  0  0  0  0  0  0  0  0  0  0
  -22.7813  -20.1688   20.9523 C   0  0  0  0  0  0  0  0  0  0  0  0
  -32.8426  -33.6967   21.6435 C   0  0  0  0  0  0  0  0  0  0  0  0
  -33.0066  -35.0185   21.2295 C   0  0  0  0  0  0  0  0  0  0  0  0
  -25.0741  -20.6291   21.5444 C   0  0  0  0  0  0  0  0  0  0  0  0
  -30.8160  -35.5606   22.0925 C   0  0  0  0  0  0  0  0  0  0  0  0
  -21.7613  -22.9535   24.9802 C   0  0  0  0  0  0  0  0  0  0  0  0
  -28.3233  -29.8512   21.1059 C   0  0  0  0  0  0  0  0  0  0  0  0
  -27.2440  -27.7904   20.0591 C   0  0  0  0  0  0  0  0  0  0  0  0
  -23.8262  -12.3406   20.6852 C   0  0  0  0  0  0  0  0  0  0  0  0
  -24.5782  -18.9002   19.9243 C   0  0  0  0  0  0  0  0  0  0  0  0
  -24.0469  -13.6263   21.2149 C   0  0  0  0  0  0  0  0  0  0  0  0
  -25.5193  -19.6379   20.6565 C   0  0  0  0  0  0  0  0  0  0  0  0
  -30.4611  -31.2917   22.1723 C   0  0  0  0  0  0  0  0  0  0  0  0
  -23.7124  -20.8916   21.6924 C   0  0  0  0  0  0  0  0  0  0  0  0
  -31.6652  -33.3067   22.2819 C   0  0  0  0  0  0  0  0  0  0  0  0
  -31.9934  -35.9505   21.4541 C   0  0  0  0  0  0  0  0  0  0  0  0
  -30.6520  -34.2387   22.5064 C   0  0  0  0  0  0  0  0  0  0  0  0
  -27.2187  -29.1074   20.5558 C   0  0  0  0  0  0  0  0  0  0  0  0
  -21.5070  -24.0327   25.8017 C   0  0  0  0  0  0  0  0  0  0  0  0
  -21.6336  -23.1903   23.6267 C   0  0  0  0  0  0  0  0  0  0  0  0
  -25.9529  -27.5504   19.6566 C   0  0  0  0  0  0  0  0  0  0  0  0
  -21.0638  -25.3575   24.0085 C   0  0  0  0  0  0  0  0  0  0  0  0
  -28.3368  -26.8666   19.9696 C   0  0  0  0  0  0  0  0  0  0  0  0
  -26.4127  -16.3546   20.4324 C   0  0  0  0  0  0  0  0  0  0  0  0
  -28.6970  -18.2144   19.0738 C   0  0  0  0  0  0  0  0  0  0  0  0
  -29.8164  -21.3523   18.3340 C   0  0  0  0  0  0  0  0  0  0  0  0
  -20.6758  -29.8575   21.2939 C   0  0  0  0  0  0  0  0  0  0  0  0
  -24.9658  -11.4635   20.2307 C   0  0  0  0  0  0  0  0  0  0  0  0
  -25.0277  -17.8486   18.9473 C   0  0  0  0  0  0  0  0  0  0  0  0
  -26.9990  -19.3901   20.5229 C   0  0  0  0  0  0  0  0  0  0  0  0
  -26.2640  -12.2289   19.9874 C   0  0  0  0  0  0  0  0  0  0  0  0
  -22.0628  -29.8007   18.0152 C   0  0  0  0  0  0  0  0  0  0  0  0
  -26.5458  -13.1831   21.1436 C   0  0  0  0  0  0  0  0  0  0  0  0
  -22.5335  -24.7757   28.0530 C   0  0  0  0  0  0  0  0  0  0  0  0
  -22.9125  -23.3411   27.8571 C   0  0  0  0  0  0  0  0  0  0  0  0
  -23.5437  -29.4977   18.2497 C   0  0  0  0  0  0  0  0  0  0  0  0
  -21.4899  -30.6976   19.1103 C   0  0  0  0  0  0  0  0  0  0  0  0
  -23.1788  -29.9031   20.7198 C   0  0  0  0  0  0  0  0  0  0  0  0
  -25.4333  -14.2297   21.2788 C   0  0  1  0  0  0  0  0  0  0  0  0
  -21.6223  -23.8600   27.2787 C   0  0  0  0  0  0  0  0  0  0  0  0
  -26.4144  -17.2954   19.2608 C   0  0  1  0  0  0  0  0  0  0  0  0
  -23.7870  -28.9561   19.6712 C   0  0  2  0  0  0  0  0  0  0  0  0
  -31.7338  -22.5553   17.2507 C   0  0  0  0  0  0  0  0  0  0  0  0
  -19.6945  -30.1861   24.3860 C   0  0  0  0  0  0  0  0  0  0  0  0
  -30.4211  -17.6757   21.5329 C   0  0  0  0  0  0  0  0  0  0  0  0
  -31.8654  -19.6059   20.8570 C   0  0  0  0  0  0  0  0  0  0  0  0
  -31.6575  -17.6215   19.3597 C   0  0  0  0  0  0  0  0  0  0  0  0
  -28.0518  -22.5673   16.2922 C   0  0  0  0  0  0  0  0  0  0  0  0
  -21.8884  -22.0768   22.6539 C   0  0  0  0  0  0  0  0  0  1  0  0
  -20.4318  -27.7490   24.3353 C   0  0  0  0  0  0  0  0  0  0  0  0
  -29.7064  -19.2133   19.5859 C   0  0  1  0  0  0  0  0  0  0  0  0
  -30.3522  -21.9533   17.0471 C   0  0  2  0  0  0  0  0  0  0  0  0
  -20.0142  -28.9738   23.5166 C   0  0  2  0  0  0  0  0  0  0  0  0
  -30.8847  -18.5327   20.3380 C   0  0  0  0  0  0  0  0  0  0  0  0
  -26.0075  -29.6650   20.4769 N   0  0  0  0  0  0  0  0  0  0  0  0
  -21.1547  -25.2535   25.3480 N   0  0  0  0  0  0  0  0  0  0  0  0
  -21.2851  -24.3844   23.1042 N   0  0  0  0  0  0  0  0  0  0  0  0
  -25.2598  -28.6938   19.9259 N   0  0  0  0  0  0  0  0  0  0  0  0
  -27.3884  -18.3473   19.5594 N   0  0  0  0  0  0  0  0  0  0  0  0
  -21.7530  -30.1266   20.4335 N   0  0  0  0  0  0  0  0  0  0  0  0
  -25.3543  -26.4750   19.1020 N   0  0  0  0  0  0  0  0  0  0  0  0
  -29.5963  -27.2751   20.4290 N   0  0  0  0  0  0  0  0  0  0  0  0
  -20.6977  -26.6218   23.4976 N   0  0  0  0  0  0  0  0  0  0  0  0
  -25.5840  -15.2603   20.2740 N   0  0  0  0  0  0  0  0  0  0  0  0
  -30.1136  -20.0095   18.4332 N   0  0  0  0  0  0  0  0  0  0  0  0
  -21.0124  -29.3111   22.5263 N   0  0  0  0  0  0  0  0  0  0  0  0
  -29.4401  -23.0250   16.5568 N   0  3  0  0  0  0  0  0  0  0  0  0
  -28.2040  -25.7188   19.4812 O   0  0  0  0  0  0  0  0  0  0  0  0
  -27.1127  -16.6024   21.4073 O   0  0  0  0  0  0  0  0  0  0  0  0
  -29.0547  -17.3525   18.2671 O   0  0  0  0  0  0  0  0  0  0  0  0
  -29.1993  -22.0093   19.1696 O   0  0  0  0  0  0  0  0  0  0  0  0
  -19.5008  -30.0822   20.9844 O   0  0  0  0  0  0  0  0  0  0  0  0
  -31.5042  -31.9942   22.6929 O   0  0  0  0  0  0  0  0  0  0  0  0
  -23.2950  -21.8570   22.5559 O   0  0  0  0  0  0  0  0  0  1  0  0
  -32.1517  -37.2202   21.0579 F   0  0  0  0  0  0  0  0  0  0  0  0
  -29.5192  -33.8703   23.1202 F   0  0  0  0  0  0  0  0  0  0  0  0
  1  2  1  0  0  0  0
  1  5  2  0  0  0  0
  2  6  2  0  0  0  0
  3  8  2  0  0  0  0
  3 16  1  0  0  0  0
  4  9  1  0  0  0  0
  4 16  2  0  0  0  0
  5 18  1  0  0  0  0
  6 20  1  0  0  0  0
  7 10  2  0  0  0  0
  7 19  1  0  0  0  0
  8 22  1  0  0  0  0
  9 22  2  0  0  0  0
 10 23  1  0  0  0  0
 11 12  2  0  0  0  0
 11 24  1  0  0  0  0
 12 25  1  0  0  0  0
 13 21  1  0  0  0  0
 13 23  2  0  0  0  0
 14 25  2  0  0  0  0
 14 26  1  0  0  0  0
 15 28  2  0  0  0  0
 15 29  1  0  0  0  0
 16 27  1  0  0  0  0
 17 27  1  0  0  0  0
 17 30  2  0  0  0  0
 17 32  1  0  0  0  0
 18 20  2  0  0  0  0
 18 37  1  0  0  0  0
 19 21  2  0  0  0  0
 19 38  1  0  0  0  0
 20 48  1  0  0  0  0
 21 39  1  0  0  0  0
 22 82  1  0  0  0  0
 23 83  1  0  0  0  0
 24 26  2  0  0  0  0
 24 82  1  0  0  0  0
 25 84  1  0  0  0  0
 26 85  1  0  0  0  0
 27 64  2  0  0  0  0
 28 49  1  0  0  0  0
 28 65  1  0  0  0  0
 29 58  1  0  0  0  0
 29 66  2  0  0  0  0
 30 67  1  0  0  0  0
 30 70  1  0  0  0  0
 31 65  2  0  0  0  0
 31 66  1  0  0  0  0
 31 72  1  0  0  0  0
 32 71  1  0  0  0  0
 32 77  2  0  0  0  0
 33 50  1  0  0  0  0
 33 73  1  0  0  0  0
 33 78  2  0  0  0  0
 34 60  1  0  0  0  0
 34 68  1  0  0  0  0
 34 79  2  0  0  0  0
 35 61  1  0  0  0  0
 35 74  1  0  0  0  0
 35 80  2  0  0  0  0
 36 69  1  0  0  0  0
 36 75  1  0  0  0  0
 36 81  2  0  0  0  0
 37 40  1  0  0  0  0
 38 50  1  0  0  0  0
 39 68  1  0  0  0  0
 40 42  1  0  0  0  0
 41 45  1  0  0  0  0
 41 46  1  0  0  0  0
 42 48  1  0  0  0  0
 43 44  1  0  0  0  0
 43 49  1  0  0  0  0
 44 49  1  0  0  0  0
 45 51  1  0  0  0  0
 46 69  1  0  0  0  0
 47 51  1  0  0  0  0
 47 69  1  0  0  0  0
 48 73  1  0  0  0  0
 50 68  1  0  0  0  0
 51 67  1  0  0  0  0
 52 61  1  0  0  0  0
 53 62  1  0  0  0  0
 54 63  1  0  0  0  0
 55 63  1  0  0  0  0
 56 63  1  0  0  0  0
 57 76  1  0  0  0  0
 58 83  1  0  0  0  0
 59 62  1  0  0  0  0
 59 72  1  0  0  0  0
 60 63  1  0  0  0  0
 60 74  1  0  0  0  0
 61 76  1  0  0  0  0
 62 75  1  0  0  0  0
 64 67  1  0  0  0  0
M  CHG  1  76   1
M  ISO  4  36 100  58 101  75 100  83 101
M  END
> <Batch ID>
0179

> <Smiles>
CNC(C)C(=O)NC(C(=O)N1Cc2cc([101O:1][101CH2:1]c3cc(C4CC4)nc(NCC(C)[100NH:0][100C:0](=O)N4CCCC(n5nc(-c6ccc(Oc7ccc(F)cc7F)cc6)c(C(N)=O)c5N)C4)n3)ccc2CC1C(=O)NC1CCCc2ccccc21)C(C)(C)C

> <Shape>
0.216

> <Color>
0.080

> <Negative vol penalty>
0.000

$$$$

  -OEChem-04052322573D

 83 92  0     1  0  0  0  0  0999 V2000
  -28.7594  -36.1275   17.1883 C   0  0  0  0  0  0  0  0  0  0  0  0
  -28.8821  -34.7452   17.2851 C   0  0  0  0  0  0  0  0  0  0  0  0
  -23.5511  -13.2193   19.3280 C   0  0  0  0  0  0  0  0  0  0  0  0
  -24.8689  -14.3389   21.0154 C   0  0  0  0  0  0  0  0  0  0  0  0
  -28.2579  -36.8588   18.2643 C   0  0  0  0  0  0  0  0  0  0  0  0
  -28.5045  -34.0933   18.4586 C   0  0  0  0  0  0  0  0  0  0  0  0
  -25.9763  -28.5355   18.9324 C   0  0  0  0  0  0  0  0  0  0  0  0
  -24.5484  -12.2541   19.1896 C   0  0  0  0  0  0  0  0  0  0  0  0
  -25.8662  -13.3736   20.8769 C   0  0  0  0  0  0  0  0  0  0  0  0
  -26.5132  -27.2827   19.2256 C   0  0  0  0  0  0  0  0  0  0  0  0
  -28.3839  -12.6830   18.7286 C   0  0  0  0  0  0  0  0  0  0  0  0
  -29.7055  -13.1228   18.6535 C   0  0  0  0  0  0  0  0  0  0  0  0
  -25.8901  -27.5638   21.5390 C   0  0  0  0  0  0  0  0  0  0  0  0
  -30.2424  -11.8478   20.6342 C   0  0  0  0  0  0  0  0  0  0  0  0
  -23.7113  -14.2618   20.2409 C   0  0  0  0  0  0  0  0  0  0  0  0
  -21.5831  -15.2273   21.2636 C   0  0  0  0  0  0  0  0  0  0  0  0
  -27.8650  -36.2145   19.4480 C   0  0  0  0  0  0  0  0  0  0  0  0
  -25.4011  -29.3178   19.9441 C   0  0  0  0  0  0  0  0  0  0  0  0
  -27.9986  -34.8168   19.5519 C   0  0  0  0  0  0  0  0  0  0  0  0
  -25.3443  -28.8250   21.2556 C   0  0  0  0  0  0  0  0  0  0  0  0
  -28.0644  -23.5215   20.2486 C   0  0  0  0  0  0  0  0  0  0  0  0
  -25.7060  -12.3312   19.9640 C   0  0  0  0  0  0  0  0  0  0  0  0
  -26.4728  -26.7979   20.5296 C   0  0  0  0  0  0  0  0  0  0  0  0
  -27.9915  -11.8257   19.7566 C   0  0  0  0  0  0  0  0  0  0  0  0
  -30.6347  -12.7052   19.6062 C   0  0  0  0  0  0  0  0  0  0  0  0
  -28.9208  -11.4080   20.7093 C   0  0  0  0  0  0  0  0  0  0  0  0
  -22.6817  -15.2595   20.3840 C   0  0  0  0  0  0  0  0  0  0  0  0
  -27.3866  -22.3466   19.9947 C   0  0  0  0  0  0  0  0  0  0  0  0
  -29.2159  -23.3962   20.9987 C   0  0  0  0  0  0  0  0  0  0  0  0
  -20.9092  -16.3979   21.0144 C   0  0  0  0  0  0  0  0  0  0  0  0
  -28.9297  -21.1466   21.1548 C   0  0  0  0  0  0  0  0  0  0  0  0
  -21.2055  -14.2286   22.2206 C   0  0  0  0  0  0  0  0  0  0  0  0
  -26.0305  -32.1650   21.2094 C   0  0  0  0  0  0  0  0  0  0  0  0
  -23.2633  -31.6296   22.8152 C   0  0  0  0  0  0  0  0  0  0  0  0
  -21.0057  -29.3745   24.0255 C   0  0  0  0  0  0  0  0  0  0  0  0
  -22.7921  -21.6587   18.6607 C   0  0  0  0  0  0  0  0  0  0  0  0
  -27.3729  -37.0523   20.6015 C   0  0  0  0  0  0  0  0  0  0  0  0
  -24.8023  -30.6557   19.6064 C   0  0  0  0  0  0  0  0  0  0  0  0
  -24.7196  -29.6171   22.3740 C   0  0  0  0  0  0  0  0  0  0  0  0
  -26.6444  -36.2454   21.6732 C   0  0  0  0  0  0  0  0  0  0  0  0
  -20.0593  -19.5868   17.5784 C   0  0  0  0  0  0  0  0  0  0  0  0
  -27.4320  -34.9862   22.0209 C   0  0  0  0  0  0  0  0  0  0  0  0
  -20.3469  -18.2260   18.2038 C   0  0  0  0  0  0  0  0  0  0  0  0
  -21.3526  -20.2932   17.1942 C   0  0  0  0  0  0  0  0  0  0  0  0
  -25.2687  -20.9284   19.1004 C   0  0  0  0  0  0  0  0  0  0  0  0
  -24.7542  -22.8817   19.7434 C   0  0  0  0  0  0  0  0  0  0  0  0
  -22.5820  -19.1378   19.0128 C   0  0  0  0  0  0  0  0  0  0  0  0
  -27.5765  -34.0709   20.7991 C   0  0  1  0  0  0  0  0  0  0  0  0
  -26.0447  -22.2667   19.1545 C   0  0  0  0  0  0  0  0  0  0  0  0
  -24.7022  -31.5866   20.8109 C   0  0  1  0  0  0  0  0  0  0  0  0
  -21.2994  -18.3747   19.3989 C   0  0  2  0  0  0  0  0  0  0  0  0
  -30.0322  -24.6002   21.3364 C   0  0  0  0  0  0  0  0  0  0  0  0
  -29.4103  -19.8279   21.6580 C   0  0  0  0  0  0  0  0  0  0  0  0
  -18.8654  -29.2352   25.3283 C   0  0  0  0  0  0  0  0  0  0  0  0
  -24.8004  -32.1752   25.3939 C   0  0  0  0  0  0  0  0  0  0  0  0
  -22.9181  -31.1136   26.6583 C   0  0  0  0  0  0  0  0  0  0  0  0
  -22.5093  -33.1746   25.3137 C   0  0  0  0  0  0  0  0  0  0  0  0
  -19.5765  -28.1076   21.7647 C   0  0  0  0  0  0  0  0  0  0  0  0
  -27.5724  -24.8435   19.7374 C   0  0  0  0  0  0  0  0  0  1  0  0
  -22.8972  -30.9766   24.1261 C   0  0  1  0  0  0  0  0  0  0  0  0
  -19.4907  -29.3236   23.9448 C   0  0  2  0  0  0  0  0  0  0  0  0
  -23.2948  -31.8456   25.3526 C   0  0  0  0  0  0  0  0  0  0  0  0
  -22.7079  -16.3631   19.6320 N   0  0  0  0  0  0  0  0  0  0  0  0
  -27.7923  -21.1371   20.4340 N   0  0  0  0  0  0  0  0  0  0  0  0
  -29.6794  -22.2200   21.4700 N   0  0  0  0  0  0  0  0  0  0  0  0
  -21.6174  -17.0351   20.0384 N   0  0  0  0  0  0  0  0  0  0  0  0
  -24.1533  -30.9221   21.9947 N   0  0  0  0  0  0  0  0  0  0  0  0
  -22.2797  -20.4007   18.3248 N   0  0  0  0  0  0  0  0  0  0  0  0
  -24.0568  -21.7243   19.1962 N   0  0  0  0  0  0  0  0  0  0  0  0
  -19.7859  -16.9340   21.5370 N   0  0  0  0  0  0  0  0  0  0  0  0
  -22.0097  -13.0879   22.3484 N   0  0  0  0  0  0  0  0  0  0  0  0
  -26.3470  -33.3448   20.5634 N   0  0  0  0  0  0  0  0  0  0  0  0
  -21.4727  -30.6717   24.0465 N   0  0  0  0  0  0  0  0  0  0  0  0
  -19.0536  -28.1378   23.1549 N   0  3  0  0  0  0  0  0  0  0  0  0
  -20.1762  -14.3367   22.9293 O   0  0  0  0  0  0  0  0  0  0  0  0
  -26.7167  -31.5847   22.0425 O   0  0  0  0  0  0  0  0  0  0  0  0
  -22.7720  -32.7236   22.5265 O   0  0  0  0  0  0  0  0  0  0  0  0
  -21.7047  -28.3646   24.0695 O   0  0  0  0  0  0  0  0  0  0  0  0
  -22.1516  -22.6994   18.4612 O   0  0  0  0  0  0  0  0  0  0  0  0
  -26.6793  -11.3893   19.8294 O   0  0  0  0  0  0  0  0  0  0  0  0
  -26.9967  -25.5756   20.8186 O   0  0  0  0  0  0  0  0  0  1  0  0
  -31.9041  -13.1263   19.5331 F   0  0  0  0  0  0  0  0  0  0  0  0
  -28.5500  -10.5835   21.6985 F   0  0  0  0  0  0  0  0  0  0  0  0
  1  2  1  0  0  0  0
  1  5  2  0  0  0  0
  2  6  2  0  0  0  0
  3  8  2  0  0  0  0
  3 15  1  0  0  0  0
  4  9  1  0  0  0  0
  4 15  2  0  0  0  0
  5 17  1  0  0  0  0
  6 19  1  0  0  0  0
  7 10  2  0  0  0  0
  7 18  1  0  0  0  0
  8 22  1  0  0  0  0
  9 22  2  0  0  0  0
 10 23  1  0  0  0  0
 11 12  2  0  0  0  0
 11 24  1  0  0  0  0
 12 25  1  0  0  0  0
 13 20  1  0  0  0  0
 13 23  2  0  0  0  0
 14 25  2  0  0  0  0
 14 26  1  0  0  0  0
 15 27  1  0  0  0  0
 16 27  1  0  0  0  0
 16 30  2  0  0  0  0
 16 32  1  0  0  0  0
 17 19  2  0  0  0  0
 17 37  1  0  0  0  0
 18 20  2  0  0  0  0
 18 38  1  0  0  0  0
 19 48  1  0  0  0  0
 20 39  1  0  0  0  0
 21 28  2  0  0  0  0
 21 29  1  0  0  0  0
 21 59  1  0  0  0  0
 22 80  1  0  0  0  0
 23 81  1  0  0  0  0
 24 26  2  0  0  0  0
 24 80  1  0  0  0  0
 25 82  1  0  0  0  0
 26 83  1  0  0  0  0
 27 63  2  0  0  0  0
 28 49  1  0  0  0  0
 28 64  1  0  0  0  0
 29 52  1  0  0  0  0
 29 65  2  0  0  0  0
 30 66  1  0  0  0  0
 30 70  1  0  0  0  0
 31 53  1  0  0  0  0
 31 64  2  0  0  0  0
 31 65  1  0  0  0  0
 32 71  1  0  0  0  0
 32 75  2  0  0  0  0
 33 50  1  0  0  0  0
 33 72  1  0  0  0  0
 33 76  2  0  0  0  0
 34 60  1  0  0  0  0
 34 67  1  0  0  0  0
 34 77  2  0  0  0  0
 35 61  1  0  0  0  0
 35 73  1  0  0  0  0
 35 78  2  0  0  0  0
 36 68  1  0  0  0  0
 36 69  1  0  0  0  0
 36 79  2  0  0  0  0
 37 40  1  0  0  0  0
 38 50  1  0  0  0  0
 39 67  1  0  0  0  0
 40 42  1  0  0  0  0
 41 43  1  0  0  0  0
 41 44  1  0  0  0  0
 42 48  1  0  0  0  0
 43 51  1  0  0  0  0
 44 68  1  0  0  0  0
 45 49  1  0  0  0  0
 45 69  1  0  0  0  0
 46 49  1  0  0  0  0
 46 69  1  0  0  0  0
 47 51  1  0  0  0  0
 47 68  1  0  0  0  0
 48 72  1  0  0  0  0
 50 67  1  0  0  0  0
 51 66  1  0  0  0  0
 54 61  1  0  0  0  0
 55 62  1  0  0  0  0
 56 62  1  0  0  0  0
 57 62  1  0  0  0  0
 58 74  1  0  0  0  0
 59 81  1  0  0  0  0
 60 62  1  0  0  0  0
 60 73  1  0  0  0  0
 61 74  1  0  0  0  0
 63 66  1  0  0  0  0
M  CHG  1  74   1
M  ISO  4  36 100  59 101  69 100  81 101
M  END
> <Batch ID>
0179

> <Smiles>
CNC(C)C(=O)NC(C(=O)N1Cc2cc([101O:1][101CH2:1]c3c(C)nc(C)nc3C3C[100N:0]([100C:0](=O)N4CCCC(n5nc(-c6ccc(Oc7ccc(F)cc7F)cc6)c(C(N)=O)c5N)C4)C3)ccc2CC1C(=O)NC1CCCc2ccccc21)C(C)(C)C

> <Shape>
0.223

> <Color>
0.083

> <Negative vol penalty>
0.000

$$$$

  -OEChem-04052322573D

 86 95  0     1  0  0  0  0  0999 V2000
  -29.6641  -10.0859   17.2062 C   0  0  0  0  0  0  0  0  0  0  0  0
  -28.4345  -10.6380   16.8616 C   0  0  0  0  0  0  0  0  0  0  0  0
  -27.0224  -31.5727   21.3351 C   0  0  0  0  0  0  0  0  0  0  0  0
  -26.8096  -30.1816   23.2989 C   0  0  0  0  0  0  0  0  0  0  0  0
  -30.2844  -10.4577   18.3982 C   0  0  0  0  0  0  0  0  0  0  0  0
  -27.8240  -11.5616   17.7094 C   0  0  0  0  0  0  0  0  0  0  0  0
  -23.6315  -17.3678   17.5477 C   0  0  0  0  0  0  0  0  0  0  0  0
  -27.5373  -32.6036   22.1211 C   0  0  0  0  0  0  0  0  0  0  0  0
  -27.3245  -31.2125   24.0850 C   0  0  0  0  0  0  0  0  0  0  0  0
  -22.4498  -17.8588   18.1011 C   0  0  0  0  0  0  0  0  0  0  0  0
  -28.5719  -35.7289   23.6657 C   0  0  0  0  0  0  0  0  0  0  0  0
  -28.0822  -37.0171   23.4506 C   0  0  0  0  0  0  0  0  0  0  0  0
  -23.6518  -18.4859   20.0964 C   0  0  0  0  0  0  0  0  0  0  0  0
  -25.8545  -36.2623   24.0029 C   0  0  0  0  0  0  0  0  0  0  0  0
  -18.4140  -18.7051   20.9322 C   0  0  0  0  0  0  0  0  0  0  0  0
  -26.6585  -30.3617   21.9240 C   0  0  0  0  0  0  0  0  0  0  0  0
  -26.8500  -28.2757   20.4682 C   0  0  0  0  0  0  0  0  0  0  0  0
  -29.6857  -11.3935   19.2564 C   0  0  0  0  0  0  0  0  0  0  0  0
  -24.8322  -17.4224   18.2700 C   0  0  0  0  0  0  0  0  0  0  0  0
  -28.4362  -11.9452   18.9147 C   0  0  0  0  0  0  0  0  0  0  0  0
  -24.8479  -17.9973   19.5489 C   0  0  0  0  0  0  0  0  0  0  0  0
  -27.6884  -32.4235   23.4960 C   0  0  0  0  0  0  0  0  0  0  0  0
  -22.4592  -18.4153   19.3768 C   0  0  0  0  0  0  0  0  0  0  0  0
  -27.7030  -34.7073   24.0494 C   0  0  0  0  0  0  0  0  0  0  0  0
  -26.7235  -37.2838   23.6192 C   0  0  0  0  0  0  0  0  0  0  0  0
  -26.3443  -34.9741   24.2180 C   0  0  0  0  0  0  0  0  0  0  0  0
  -26.1261  -29.2967   21.1127 C   0  0  0  0  0  0  0  0  0  0  0  0
  -18.9772  -19.3993   19.8809 C   0  0  0  0  0  0  0  0  0  0  0  0
  -17.3638  -19.3343   21.5688 C   0  0  0  0  0  0  0  0  0  0  0  0
  -25.8919  -27.5240   19.8329 C   0  0  0  0  0  0  0  0  0  0  0  0
  -17.5240  -21.1224   20.1745 C   0  0  0  0  0  0  0  0  0  0  0  0
  -28.2622  -28.0289   20.4458 C   0  0  0  0  0  0  0  0  0  0  0  0
  -26.8769  -15.2613   19.3891 C   0  0  0  0  0  0  0  0  0  0  0  0
  -28.6210  -17.8841   20.1646 C   0  0  0  0  0  0  0  0  0  0  0  0
  -28.6746  -21.2220   20.8738 C   0  0  0  0  0  0  0  0  0  0  0  0
  -20.1758  -26.6507   20.9862 C   0  0  0  0  0  0  0  0  0  0  0  0
  -30.3720  -11.7289   20.5569 C   0  0  0  0  0  0  0  0  0  0  0  0
  -26.1034  -16.9128   17.6483 C   0  0  0  0  0  0  0  0  0  0  0  0
  -26.1145  -18.0981   20.3575 C   0  0  0  0  0  0  0  0  0  0  0  0
  -29.8361  -12.9954   21.2195 C   0  0  0  0  0  0  0  0  0  0  0  0
  -21.5417  -27.8843   17.8713 C   0  0  0  0  0  0  0  0  0  0  0  0
  -28.3108  -12.9906   21.2249 C   0  0  0  0  0  0  0  0  0  0  0  0
  -22.9531  -28.2892   18.2996 C   0  0  0  0  0  0  0  0  0  0  0  0
  -20.5208  -28.1967   18.9619 C   0  0  0  0  0  0  0  0  0  0  0  0
  -22.2387  -27.9930   20.7157 C   0  0  0  0  0  0  0  0  0  0  0  0
  -18.5180  -23.8668   21.0958 C   0  0  0  0  0  0  0  0  0  0  0  0
  -16.8543  -24.8442   20.3005 C   0  0  0  0  0  0  0  0  0  0  0  0
  -27.7541  -12.9688   19.7962 C   0  0  1  0  0  0  0  0  0  0  0  0
  -27.1696  -16.5523   18.6783 C   0  0  1  0  0  0  0  0  0  0  0  0
  -23.3200  -27.6801   19.6656 C   0  0  2  0  0  0  0  0  0  0  0  0
  -18.0453  -25.3307   21.1453 C   0  0  0  0  0  0  0  0  0  0  0  0
  -30.2426  -23.0766   21.5056 C   0  0  0  0  0  0  0  0  0  0  0  0
  -28.7471  -16.8032   23.0152 C   0  0  0  0  0  0  0  0  0  0  0  0
  -29.4635  -19.0796   23.7724 C   0  0  0  0  0  0  0  0  0  0  0  0
  -30.8866  -17.7919   22.1788 C   0  0  0  0  0  0  0  0  0  0  0  0
  -28.0323  -22.7554   18.4254 C   0  0  0  0  0  0  0  0  0  0  0  0
  -20.1250  -18.7954   19.1264 C   0  0  0  0  0  0  0  0  0  1  0  0
  -17.0268  -22.4633   19.7519 C   0  0  0  0  0  0  0  0  0  0  0  0
  -16.6897  -18.6599   22.7165 C   0  0  0  0  0  0  0  0  0  0  0  0
  -28.7103  -18.7911   21.3681 C   0  0  1  0  0  0  0  0  0  0  0  0
  -29.5563  -22.3465   20.3616 C   0  0  2  0  0  0  0  0  0  0  0  0
  -29.4275  -18.1130   22.5694 C   0  0  0  0  0  0  0  0  0  0  0  0
  -24.8097  -29.2050   20.9057 N   0  0  0  0  0  0  0  0  0  0  0  0
  -18.5556  -20.6145   19.4736 N   0  0  0  0  0  0  0  0  0  0  0  0
  -16.8912  -20.5475   21.2150 N   0  0  0  0  0  0  0  0  0  0  0  0
  -24.6989  -28.1175   20.1239 N   0  0  0  0  0  0  0  0  0  0  0  0
  -27.3304  -17.5802   19.7087 N   0  0  0  0  0  0  0  0  0  0  0  0
  -20.9194  -27.5718   20.2315 N   0  0  0  0  0  0  0  0  0  0  0  0
  -25.9620  -26.4199   19.0593 N   0  0  0  0  0  0  0  0  0  0  0  0
  -29.1038  -28.8988   21.1523 N   0  0  0  0  0  0  0  0  0  0  0  0
  -27.8371  -14.2855   19.2013 N   0  0  0  0  0  0  0  0  0  0  0  0
  -29.3484  -20.0194   20.9071 N   0  0  0  0  0  0  0  0  0  0  0  0
  -18.9361  -26.2941   20.4661 N   0  0  0  0  0  0  0  0  0  0  0  0
  -17.1193  -23.4929   20.8237 N   0  3  0  0  0  0  0  0  0  0  0  0
  -28.7443  -23.3329   19.5944 N   0  3  0  0  0  0  0  0  0  0  0  0
  -28.7643  -27.0749   19.8044 O   0  0  0  0  0  0  0  0  0  0  0  0
  -25.8563  -15.1587   20.0596 O   0  0  0  0  0  0  0  0  0  0  0  0
  -29.6583  -17.4666   19.6438 O   0  0  0  0  0  0  0  0  0  0  0  0
  -27.5062  -21.3939   21.2141 O   0  0  0  0  0  0  0  0  0  0  0  0
  -20.5845  -26.1698   22.0489 O   0  0  0  0  0  0  0  0  0  0  0  0
  -28.1909  -33.4291   24.2633 O   0  0  0  0  0  0  0  0  0  0  0  0
  -21.3071  -18.8947   19.9196 O   0  0  0  0  0  0  0  0  0  1  0  0
  -26.2535  -38.5212   23.4141 F   0  0  0  0  0  0  0  0  0  0  0  0
  -25.5049  -33.9970   24.5876 F   0  0  0  0  0  0  0  0  0  0  0  0
  -15.7003  -19.4417   23.2225 F   0  0  0  0  0  0  0  0  0  0  0  0
  -17.5668  -18.4430   23.7312 F   0  0  0  0  0  0  0  0  0  0  0  0
  1  2  1  0  0  0  0
  1  5  2  0  0  0  0
  2  6  2  0  0  0  0
  3  8  2  0  0  0  0
  3 16  1  0  0  0  0
  4  9  1  0  0  0  0
  4 16  2  0  0  0  0
  5 18  1  0  0  0  0
  6 20  1  0  0  0  0
  7 10  2  0  0  0  0
  7 19  1  0  0  0  0
  8 22  1  0  0  0  0
  9 22  2  0  0  0  0
 10 23  1  0  0  0  0
 11 12  2  0  0  0  0
 11 24  1  0  0  0  0
 12 25  1  0  0  0  0
 13 21  1  0  0  0  0
 13 23  2  0  0  0  0
 14 25  2  0  0  0  0
 14 26  1  0  0  0  0
 15 28  1  0  0  0  0
 15 29  2  0  0  0  0
 16 27  1  0  0  0  0
 17 27  1  0  0  0  0
 17 30  2  0  0  0  0
 17 32  1  0  0  0  0
 18 20  2  0  0  0  0
 18 37  1  0  0  0  0
 19 21  2  0  0  0  0
 19 38  1  0  0  0  0
 20 48  1  0  0  0  0
 21 39  1  0  0  0  0
 22 81  1  0  0  0  0
 23 82  1  0  0  0  0
 24 26  2  0  0  0  0
 24 81  1  0  0  0  0
 25 83  1  0  0  0  0
 26 84  1  0  0  0  0
 27 63  2  0  0  0  0
 28 57  1  0  0  0  0
 28 64  2  0  0  0  0
 29 59  1  0  0  0  0
 29 65  1  0  0  0  0
 30 66  1  0  0  0  0
 30 69  1  0  0  0  0
 31 58  1  0  0  0  0
 31 64  1  0  0  0  0
 31 65  2  0  0  0  0
 32 70  1  0  0  0  0
 32 76  2  0  0  0  0
 33 49  1  0  0  0  0
 33 71  1  0  0  0  0
 33 77  2  0  0  0  0
 34 60  1  0  0  0  0
 34 67  1  0  0  0  0
 34 78  2  0  0  0  0
 35 61  1  0  0  0  0
 35 72  1  0  0  0  0
 35 79  2  0  0  0  0
 36 68  1  0  0  0  0
 36 73  1  0  0  0  0
 36 80  2  0  0  0  0
 37 40  1  0  0  0  0
 38 49  1  0  0  0  0
 39 67  1  0  0  0  0
 40 42  1  0  0  0  0
 41 43  1  0  0  0  0
 41 44  1  0  0  0  0
 42 48  1  0  0  0  0
 43 50  1  0  0  0  0
 44 68  1  0  0  0  0
 45 50  1  0  0  0  0
 45 68  1  0  0  0  0
 46 51  1  0  0  0  0
 46 74  1  0  0  0  0
 47 51  1  0  0  0  0
 47 74  1  0  0  0  0
 48 71  1  0  0  0  0
 49 67  1  0  0  0  0
 50 66  1  0  0  0  0
 51 73  1  0  0  0  0
 52 61  1  0  0  0  0
 53 62  1  0  0  0  0
 54 62  1  0  0  0  0
 55 62  1  0  0  0  0
 56 75  1  0  0  0  0
 57 82  1  0  0  0  0
 58 74  1  0  0  0  0
 59 85  1  0  0  0  0
 59 86  1  0  0  0  0
 60 62  1  0  0  0  0
 60 72  1  0  0  0  0
 61 75  1  0  0  0  0
 63 66  1  0  0  0  0
M  CHG  2  74   1  75   1
M  ISO  4  36 100  57 101  73 100  82 101
M  END
> <Batch ID>
0179

> <Smiles>
CNC(C)C(=O)NC(C(=O)N1Cc2cc([101O:1][101CH2:1]c3cc(C(F)F)nc(CN4CC([100NH:0][100C:0](=O)N5CCCC(n6nc(-c7ccc(Oc8ccc(F)cc8F)cc7)c(C(N)=O)c6N)C5)C4)n3)ccc2CC1C(=O)NC1CCCc2ccccc21)C(C)(C)C

> <Shape>
0.271

> <Color>
0.060

> <Negative vol penalty>
0.000

$$$$

  -OEChem-04052322573D

 86 96  0     1  0  0  0  0  0999 V2000
  -16.3490  -30.0401   23.6559 C   0  0  0  0  0  0  0  0  0  0  0  0
  -16.5360  -28.6626   23.6012 C   0  0  0  0  0  0  0  0  0  0  0  0
  -28.9041  -12.5577   20.8215 C   0  0  0  0  0  0  0  0  0  0  0  0
  -28.1748  -12.4754   18.5196 C   0  0  0  0  0  0  0  0  0  0  0  0
  -17.4411  -30.8965   23.5220 C   0  0  0  0  0  0  0  0  0  0  0  0
  -17.8150  -28.1407   23.4114 C   0  0  0  0  0  0  0  0  0  0  0  0
  -19.8841  -15.3865   18.9439 C   0  0  0  0  0  0  0  0  0  0  0  0
  -19.9601  -16.6665   19.4930 C   0  0  0  0  0  0  0  0  0  0  0  0
  -20.0701  -22.9667   25.7883 C   0  0  0  0  0  0  0  0  0  0  0  0
  -30.2339  -12.5481   20.4005 C   0  0  0  0  0  0  0  0  0  0  0  0
  -29.5046  -12.4660   18.0986 C   0  0  0  0  0  0  0  0  0  0  0  0
  -20.2175  -21.6817   25.2680 C   0  0  0  0  0  0  0  0  0  0  0  0
  -32.4817  -10.2760   19.3007 C   0  0  0  0  0  0  0  0  0  0  0  0
  -33.3656   -9.4275   19.9672 C   0  0  0  0  0  0  0  0  0  0  0  0
  -19.3861  -14.4795   21.1271 C   0  0  0  0  0  0  0  0  0  0  0  0
  -22.5000  -22.1899   24.6756 C   0  0  0  0  0  0  0  0  0  0  0  0
  -34.7071  -11.3308   20.6112 C   0  0  0  0  0  0  0  0  0  0  0  0
  -27.8746  -12.5213   19.8810 C   0  0  0  0  0  0  0  0  0  0  0  0
  -25.6856  -13.6574   20.5331 C   0  0  0  0  0  0  0  0  0  0  0  0
  -19.5971  -14.2930   19.7610 C   0  0  0  0  0  0  0  0  0  0  0  0
  -18.7355  -30.3847   23.3402 C   0  0  0  0  0  0  0  0  0  0  0  0
  -21.1349  -23.8781   25.7463 C   0  0  0  0  0  0  0  0  0  0  0  0
  -18.9252  -28.9911   23.2736 C   0  0  0  0  0  0  0  0  0  0  0  0
  -19.7491  -16.8530   20.8591 C   0  0  0  0  0  0  0  0  0  0  0  0
  -22.3643  -23.4851   25.1984 C   0  0  0  0  0  0  0  0  0  0  0  0
  -19.4621  -15.7595   21.6762 C   0  0  0  0  0  0  0  0  0  0  0  0
  -30.5341  -12.5023   19.0391 C   0  0  0  0  0  0  0  0  0  0  0  0
  -21.4317  -21.2940   24.7089 C   0  0  0  0  0  0  0  0  0  0  0  0
  -32.7105  -11.6520   19.2894 C   0  0  0  0  0  0  0  0  0  0  0  0
  -34.4783   -9.9548   20.6225 C   0  0  0  0  0  0  0  0  0  0  0  0
  -33.8232  -12.1793   19.9447 C   0  0  0  0  0  0  0  0  0  0  0  0
  -26.5007  -12.5305   20.3153 C   0  0  0  0  0  0  0  0  0  0  0  0
  -24.4793  -13.1365   20.9330 C   0  0  0  0  0  0  0  0  0  0  0  0
  -25.9915  -15.0505   20.3869 C   0  0  0  0  0  0  0  0  0  0  0  0
  -21.6117  -26.7093   24.3821 C   0  0  0  0  0  0  0  0  0  0  0  0
  -24.3855  -26.6153   26.0613 C   0  0  0  0  0  0  0  0  0  0  0  0
  -26.7723  -24.7307   27.6099 C   0  0  0  0  0  0  0  0  0  0  0  0
  -20.4301   -9.3598   19.9980 C   0  0  0  0  0  0  0  0  0  0  0  0
  -19.8785  -31.3507   23.1530 C   0  0  0  0  0  0  0  0  0  0  0  0
  -20.9681  -25.2518   26.3359 C   0  0  0  0  0  0  0  0  0  0  0  0
  -23.5447  -24.4192   25.1473 C   0  0  0  0  0  0  0  0  0  0  0  0
  -21.2527  -30.7100   23.3298 C   0  0  0  0  0  0  0  0  0  0  0  0
  -23.1730   -8.4301   22.2581 C   0  0  0  0  0  0  0  0  0  0  0  0
  -21.3299  -29.3925   22.5648 C   0  0  0  0  0  0  0  0  0  0  0  0
  -24.2360   -9.4828   21.9331 C   0  0  0  0  0  0  0  0  0  0  0  0
  -18.1916  -12.1480   19.3470 C   0  0  0  0  0  0  0  0  0  0  0  0
  -21.0848  -19.0425   21.1864 C   0  0  0  0  0  0  0  0  0  0  0  0
  -22.2868   -8.1176   21.0538 C   0  0  0  0  0  0  0  0  0  0  0  0
  -18.5697  -10.7051   19.0531 C   0  0  0  0  0  0  0  0  0  0  0  0
  -20.5298  -11.9029   19.7404 C   0  0  0  0  0  0  0  0  0  0  0  0
  -22.7511  -10.3341   20.0849 C   0  0  0  0  0  0  0  0  0  0  0  0
  -19.5148  -12.9046   19.1649 C   0  0  2  0  0  0  0  0  0  0  0  0
  -19.8353  -18.2316   21.4251 C   0  0  2  0  0  0  0  0  0  0  0  0
  -20.3008  -28.3863   23.0938 C   0  0  1  0  0  0  0  0  0  0  0  0
  -21.9593  -26.2670   25.7754 C   0  0  1  0  0  0  0  0  0  0  0  0
  -20.8015  -18.4969   22.5543 C   0  0  2  0  0  0  0  0  0  0  0  0
  -23.6040  -10.7356   21.2954 C   0  0  2  0  0  0  0  0  0  0  0  0
  -19.2321  -15.9327   23.1419 C   0  0  0  0  0  0  0  0  0  0  0  0
  -28.9389  -24.9344   28.8597 C   0  0  0  0  0  0  0  0  0  0  0  0
  -25.8470  -27.1472   23.4362 C   0  0  0  0  0  0  0  0  0  0  0  0
  -27.9649  -26.4041   24.5454 C   0  0  0  0  0  0  0  0  0  0  0  0
  -26.7450  -28.4037   25.4033 C   0  0  0  0  0  0  0  0  0  0  0  0
  -25.6213  -23.4928   30.0393 C   0  0  0  0  0  0  0  0  0  0  0  0
  -20.4154  -19.4163   23.6615 C   0  0  0  0  0  0  0  0  0  1  0  0
  -25.7794  -26.1002   25.7953 C   0  0  1  0  0  0  0  0  0  0  0  0
  -27.4246  -24.8545   28.9751 C   0  0  2  0  0  0  0  0  0  0  0  0
  -26.5614  -26.9966   24.7941 C   0  0  0  0  0  0  0  0  0  0  0  0
  -25.8659  -11.3805   20.5570 N   0  0  0  0  0  0  0  0  0  0  0  0
  -24.6391  -11.7820   20.9309 N   0  0  0  0  0  0  0  0  0  0  0  0
  -23.3300  -25.7536   25.7310 N   0  0  0  0  0  0  0  0  0  0  0  0
  -21.7429   -9.3462   20.4789 N   0  0  0  0  0  0  0  0  0  0  0  0
  -19.9448  -10.5782   19.5164 N   0  0  0  0  0  0  0  0  0  0  0  0
  -23.3081  -13.7095   21.2829 N   0  0  0  0  0  0  0  0  0  0  0  0
  -27.2789  -15.4114   19.9669 N   0  0  0  0  0  0  0  0  0  0  0  0
  -20.7609  -27.7970   24.3330 N   0  0  0  0  0  0  0  0  0  0  0  0
  -26.4192  -25.9618   27.0991 N   0  0  0  0  0  0  0  0  0  0  0  0
  -27.0793  -23.6785   29.8228 N   0  3  0  0  0  0  0  0  0  0  0  0
  -25.1530  -15.9493   20.6376 O   0  0  0  0  0  0  0  0  0  0  0  0
  -22.0819  -26.1091   23.4228 O   0  0  0  0  0  0  0  0  0  0  0  0
  -24.2389  -27.7380   26.5511 O   0  0  0  0  0  0  0  0  0  0  0  0
  -26.5972  -23.6503   27.0509 O   0  0  0  0  0  0  0  0  0  0  0  0
  -19.7167   -8.3501   20.0491 O   0  0  0  0  0  0  0  0  0  0  0  0
  -31.8316  -12.4932   18.6279 O   0  0  0  0  0  0  0  0  0  0  0  0
  -21.5791  -20.0312   24.1959 O   0  0  0  0  0  0  0  0  0  1  0  0
  -35.3262   -9.1400   21.2638 F   0  0  0  0  0  0  0  0  0  0  0  0
  -34.0477  -13.5005   19.9383 F   0  0  0  0  0  0  0  0  0  0  0  0
  1  2  1  0  0  0  0
  1  5  2  0  0  0  0
  2  6  2  0  0  0  0
  3 10  2  0  0  0  0
  3 18  1  0  0  0  0
  4 11  1  0  0  0  0
  4 18  2  0  0  0  0
  5 21  1  0  0  0  0
  6 23  1  0  0  0  0
  7  8  2  0  0  0  0
  7 20  1  0  0  0  0
  8 24  1  0  0  0  0
  9 12  2  0  0  0  0
  9 22  1  0  0  0  0
 10 27  1  0  0  0  0
 11 27  2  0  0  0  0
 12 28  1  0  0  0  0
 13 14  2  0  0  0  0
 13 29  1  0  0  0  0
 14 30  1  0  0  0  0
 15 20  2  0  0  0  0
 15 26  1  0  0  0  0
 16 25  1  0  0  0  0
 16 28  2  0  0  0  0
 17 30  2  0  0  0  0
 17 31  1  0  0  0  0
 18 32  1  0  0  0  0
 19 32  1  0  0  0  0
 19 33  2  0  0  0  0
 19 34  1  0  0  0  0
 20 52  1  0  0  0  0
 21 23  2  0  0  0  0
 21 39  1  0  0  0  0
 22 25  2  0  0  0  0
 22 40  1  0  0  0  0
 23 54  1  0  0  0  0
 24 26  2  0  0  0  0
 24 53  1  0  0  0  0
 25 41  1  0  0  0  0
 26 58  1  0  0  0  0
 27 83  1  0  0  0  0
 28 84  1  0  0  0  0
 29 31  2  0  0  0  0
 29 83  1  0  0  0  0
 30 85  1  0  0  0  0
 31 86  1  0  0  0  0
 32 68  2  0  0  0  0
 33 69  1  0  0  0  0
 33 73  1  0  0  0  0
 34 74  1  0  0  0  0
 34 78  2  0  0  0  0
 35 55  1  0  0  0  0
 35 75  1  0  0  0  0
 35 79  2  0  0  0  0
 36 65  1  0  0  0  0
 36 70  1  0  0  0  0
 36 80  2  0  0  0  0
 37 66  1  0  0  0  0
 37 76  1  0  0  0  0
 37 81  2  0  0  0  0
 38 71  1  0  0  0  0
 38 72  1  0  0  0  0
 38 82  2  0  0  0  0
 39 42  1  0  0  0  0
 40 55  1  0  0  0  0
 41 70  1  0  0  0  0
 42 44  1  0  0  0  0
 43 45  1  0  0  0  0
 43 48  1  0  0  0  0
 44 54  1  0  0  0  0
 45 57  1  0  0  0  0
 46 49  1  0  0  0  0
 46 52  1  0  0  0  0
 47 53  1  0  0  0  0
 47 56  1  0  0  0  0
 48 71  1  0  0  0  0
 49 72  1  0  0  0  0
 50 52  1  0  0  0  0
 50 72  1  0  0  0  0
 51 57  1  0  0  0  0
 51 71  1  0  0  0  0
 53 56  1  0  0  0  0
 54 75  1  0  0  0  0
 55 70  1  0  0  0  0
 56 64  1  0  0  0  0
 57 69  1  0  0  0  0
 59 66  1  0  0  0  0
 60 67  1  0  0  0  0
 61 67  1  0  0  0  0
 62 67  1  0  0  0  0
 63 77  1  0  0  0  0
 64 84  1  0  0  0  0
 65 67  1  0  0  0  0
 65 76  1  0  0  0  0
 66 77  1  0  0  0  0
 68 69  1  0  0  0  0
M  CHG  1  77   1
M  ISO  4  38 100  64 101  72 100  84 101
M  END
> <Batch ID>
0179

> <Smiles>
CNC(C)C(=O)NC(C(=O)N1Cc2cc([101O:1][101CH2:1]C3CC3c3ccc(C4CC[100N:0]([100C:0](=O)N5CCCC(n6nc(-c7ccc(Oc8ccc(F)cc8F)cc7)c(C(N)=O)c6N)C5)C4)cc3C)ccc2CC1C(=O)NC1CCCc2ccccc21)C(C)(C)C

> <Shape>
0.181

> <Color>
0.110

> <Negative vol penalty>
0.000

$$$$

  -OEChem-04052322573D

 86 95  0     1  0  0  0  0  0999 V2000
  -29.1203  -37.5629   23.5499 C   0  0  0  0  0  0  0  0  0  0  0  0
  -29.1165  -36.2942   22.9793 C   0  0  0  0  0  0  0  0  0  0  0  0
  -24.1718   -9.3854   22.2367 C   0  0  0  0  0  0  0  0  0  0  0  0
  -23.3556   -9.6517   19.9784 C   0  0  0  0  0  0  0  0  0  0  0  0
  -28.2675  -37.8495   24.6151 C   0  0  0  0  0  0  0  0  0  0  0  0
  -28.2607  -35.3108   23.4743 C   0  0  0  0  0  0  0  0  0  0  0  0
  -25.4535  -30.9166   20.2624 C   0  0  0  0  0  0  0  0  0  0  0  0
  -23.1735   -8.4438   22.4865 C   0  0  0  0  0  0  0  0  0  0  0  0
  -22.3573   -8.7101   20.2282 C   0  0  0  0  0  0  0  0  0  0  0  0
  -25.7554  -29.5723   20.0492 C   0  0  0  0  0  0  0  0  0  0  0  0
  -22.6098   -5.1761   21.8256 C   0  0  0  0  0  0  0  0  0  0  0  0
  -22.9751   -4.0042   22.4881 C   0  0  0  0  0  0  0  0  0  0  0  0
  -24.2657  -28.9592   21.8447 C   0  0  0  0  0  0  0  0  0  0  0  0
  -27.4302  -23.4353   20.2865 C   0  0  0  0  0  0  0  0  0  0  0  0
  -21.4293   -4.5292   24.2691 C   0  0  0  0  0  0  0  0  0  0  0  0
  -26.0738  -23.5652   18.3371 C   0  0  0  0  0  0  0  0  0  0  0  0
  -24.2628   -9.9894   20.9827 C   0  0  0  0  0  0  0  0  0  0  0  0
  -26.5879  -10.7183   20.2274 C   0  0  0  0  0  0  0  0  0  0  0  0
  -27.3939  -36.8720   25.1171 C   0  0  0  0  0  0  0  0  0  0  0  0
  -24.5622  -31.2937   21.2772 C   0  0  0  0  0  0  0  0  0  0  0  0
  -27.3964  -35.5842   24.5481 C   0  0  0  0  0  0  0  0  0  0  0  0
  -23.9521  -30.3087   22.0671 C   0  0  0  0  0  0  0  0  0  0  0  0
  -27.3038  -24.8126   20.4292 C   0  0  0  0  0  0  0  0  0  0  0  0
  -26.8065  -22.7921   19.2232 C   0  0  0  0  0  0  0  0  0  0  0  0
  -22.2663   -8.1061   21.4823 C   0  0  0  0  0  0  0  0  0  0  0  0
  -25.1637  -28.5936   20.8422 C   0  0  0  0  0  0  0  0  0  0  0  0
  -21.6543   -6.0246   22.3849 C   0  0  0  0  0  0  0  0  0  0  0  0
  -22.3849   -3.6807   23.7098 C   0  0  0  0  0  0  0  0  0  0  0  0
  -21.0641   -5.7011   23.6067 C   0  0  0  0  0  0  0  0  0  0  0  0
  -25.2935  -10.9625   20.7242 C   0  0  0  0  0  0  0  0  0  0  0  0
  -26.5490  -25.4954   19.4891 C   0  0  0  0  0  0  0  0  0  0  0  0
  -27.1706  -11.9604   20.1623 C   0  0  0  0  0  0  0  0  0  0  0  0
  -27.2079   -9.4796   19.8577 C   0  0  0  0  0  0  0  0  0  0  0  0
  -24.7821  -33.0504   23.9172 C   0  0  0  0  0  0  0  0  0  0  0  0
  -21.5768  -32.5672   24.0382 C   0  0  0  0  0  0  0  0  0  0  0  0
  -18.9013  -30.6432   23.1512 C   0  0  0  0  0  0  0  0  0  0  0  0
  -27.1610  -17.1865   18.9248 C   0  0  0  0  0  0  0  0  0  0  0  0
  -26.5242  -37.2147   26.3007 C   0  0  0  0  0  0  0  0  0  0  0  0
  -24.2265  -32.7462   21.4770 C   0  0  0  0  0  0  0  0  0  0  0  0
  -22.9730  -30.6598   23.1564 C   0  0  0  0  0  0  0  0  0  0  0  0
  -25.3808  -36.2279   26.5223 C   0  0  0  0  0  0  0  0  0  0  0  0
  -25.6679  -16.4150   22.0094 C   0  0  0  0  0  0  0  0  0  0  0  0
  -25.8891  -34.7926   26.4314 C   0  0  0  0  0  0  0  0  0  0  0  0
  -25.5378  -14.8953   21.9122 C   0  0  0  0  0  0  0  0  0  0  0  0
  -25.3393  -17.1041   20.6840 C   0  0  0  0  0  0  0  0  0  0  0  0
  -28.1264  -20.7181   19.5144 C   0  0  0  0  0  0  0  0  0  0  0  0
  -25.6744  -20.6200   19.0406 C   0  0  0  0  0  0  0  0  0  0  0  0
  -28.2971  -19.3730   18.8135 C   0  0  0  0  0  0  0  0  0  0  0  0
  -25.8903  -19.2843   18.3378 C   0  0  0  0  0  0  0  0  0  0  0  0
  -25.9813  -15.0685   19.4342 C   0  0  0  0  0  0  0  0  0  0  0  0
  -26.4649  -34.4982   25.0410 C   0  0  1  0  0  0  0  0  0  0  0  0
  -23.6991  -33.0507   22.8757 C   0  0  1  0  0  0  0  0  0  0  0  0
  -26.3620  -14.3445   20.7350 C   0  0  2  0  0  0  0  0  0  0  0  0
  -29.5041  -25.3725   21.5242 C   0  0  0  0  0  0  0  0  0  0  0  0
  -27.4427  -25.0375   22.9361 C   0  0  0  0  0  0  0  0  0  0  0  0
  -16.4127  -30.4808   23.4305 C   0  0  0  0  0  0  0  0  0  0  0  0
  -21.9658  -31.5354   26.8832 C   0  0  0  0  0  0  0  0  0  0  0  0
  -19.6773  -30.5282   26.7565 C   0  0  0  0  0  0  0  0  0  0  0  0
  -19.9626  -32.9993   26.5692 C   0  0  0  0  0  0  0  0  0  0  0  0
  -18.4419  -30.8853   20.2376 C   0  0  0  0  0  0  0  0  0  0  0  0
  -26.3789  -26.9759   19.5923 C   0  0  0  0  0  0  0  0  0  1  0  0
  -27.9694  -25.5076   21.5661 C   0  0  0  0  0  0  0  0  0  0  0  0
  -20.6757  -31.5200   24.6469 C   0  0  1  0  0  0  0  0  0  0  0  0
  -17.5484  -31.0072   22.5668 C   0  0  2  0  0  0  0  0  0  0  0  0
  -20.5902  -31.6389   26.1948 C   0  0  0  0  0  0  0  0  0  0  0  0
  -25.9285  -24.9051   18.4431 N   0  0  0  0  0  0  0  0  0  0  0  0
  -25.0669  -12.2578   20.9583 N   0  0  0  0  0  0  0  0  0  0  0  0
  -26.2268  -12.8387   20.6071 N   0  0  0  0  0  0  0  0  0  0  0  0
  -26.9158  -21.4061   19.0527 N   0  0  0  0  0  0  0  0  0  0  0  0
  -22.6821  -32.0940   23.3169 N   0  0  0  0  0  0  0  0  0  0  0  0
  -26.1191  -16.5186   19.5853 N   0  0  0  0  0  0  0  0  0  0  0  0
  -27.0708  -18.5853   18.8498 N   0  0  0  0  0  0  0  0  0  0  0  0
  -28.3932  -12.3759   19.7686 N   0  0  0  0  0  0  0  0  0  0  0  0
  -26.4671   -8.2969   19.9868 N   0  0  0  0  0  0  0  0  0  0  0  0
  -25.3979  -34.2754   24.0889 N   0  0  0  0  0  0  0  0  0  0  0  0
  -19.3909  -31.6416   23.9664 N   0  0  0  0  0  0  0  0  0  0  0  0
  -17.4035  -30.4334   21.1991 N   0  3  0  0  0  0  0  0  0  0  0  0
  -28.3897   -9.4213   19.4411 O   0  0  0  0  0  0  0  0  0  0  0  0
  -25.0390  -32.0156   24.5214 O   0  0  0  0  0  0  0  0  0  0  0  0
  -21.3058  -33.7609   24.1909 O   0  0  0  0  0  0  0  0  0  0  0  0
  -19.4655  -29.5779   22.9116 O   0  0  0  0  0  0  0  0  0  0  0  0
  -28.1165  -16.5727   18.4338 O   0  0  0  0  0  0  0  0  0  0  0  0
  -21.2921   -7.1872   21.7256 O   0  0  0  0  0  0  0  0  0  0  0  0
  -25.4592  -27.2713   20.6352 O   0  0  0  0  0  0  0  0  0  1  0  0
  -22.7346   -2.5546   24.3451 F   0  0  0  0  0  0  0  0  0  0  0  0
  -20.1447   -6.5117   24.1484 F   0  0  0  0  0  0  0  0  0  0  0  0
  1  2  1  0  0  0  0
  1  5  2  0  0  0  0
  2  6  2  0  0  0  0
  3  8  2  0  0  0  0
  3 17  1  0  0  0  0
  4  9  1  0  0  0  0
  4 17  2  0  0  0  0
  5 19  1  0  0  0  0
  6 21  1  0  0  0  0
  7 10  2  0  0  0  0
  7 20  1  0  0  0  0
  8 25  1  0  0  0  0
  9 25  2  0  0  0  0
 10 26  1  0  0  0  0
 11 12  2  0  0  0  0
 11 27  1  0  0  0  0
 12 28  1  0  0  0  0
 13 22  1  0  0  0  0
 13 26  2  0  0  0  0
 14 23  1  0  0  0  0
 14 24  2  0  0  0  0
 15 28  2  0  0  0  0
 15 29  1  0  0  0  0
 16 24  1  0  0  0  0
 16 66  2  0  0  0  0
 17 30  1  0  0  0  0
 18 30  1  0  0  0  0
 18 32  2  0  0  0  0
 18 33  1  0  0  0  0
 19 21  2  0  0  0  0
 19 38  1  0  0  0  0
 20 22  2  0  0  0  0
 20 39  1  0  0  0  0
 21 51  1  0  0  0  0
 22 40  1  0  0  0  0
 23 31  2  0  0  0  0
 23 62  1  0  0  0  0
 24 69  1  0  0  0  0
 25 83  1  0  0  0  0
 26 84  1  0  0  0  0
 27 29  2  0  0  0  0
 27 83  1  0  0  0  0
 28 85  1  0  0  0  0
 29 86  1  0  0  0  0
 30 67  2  0  0  0  0
 31 61  1  0  0  0  0
 31 66  1  0  0  0  0
 32 68  1  0  0  0  0
 32 73  1  0  0  0  0
 33 74  1  0  0  0  0
 33 78  2  0  0  0  0
 34 52  1  0  0  0  0
 34 75  1  0  0  0  0
 34 79  2  0  0  0  0
 35 63  1  0  0  0  0
 35 70  1  0  0  0  0
 35 80  2  0  0  0  0
 36 64  1  0  0  0  0
 36 76  1  0  0  0  0
 36 81  2  0  0  0  0
 37 71  1  0  0  0  0
 37 72  1  0  0  0  0
 37 82  2  0  0  0  0
 38 41  1  0  0  0  0
 39 52  1  0  0  0  0
 40 70  1  0  0  0  0
 41 43  1  0  0  0  0
 42 44  1  0  0  0  0
 42 45  1  0  0  0  0
 43 51  1  0  0  0  0
 44 53  1  0  0  0  0
 45 71  1  0  0  0  0
 46 48  1  0  0  0  0
 46 69  1  0  0  0  0
 47 49  1  0  0  0  0
 47 69  1  0  0  0  0
 48 72  1  0  0  0  0
 49 72  1  0  0  0  0
 50 53  1  0  0  0  0
 50 71  1  0  0  0  0
 51 75  1  0  0  0  0
 52 70  1  0  0  0  0
 53 68  1  0  0  0  0
 54 62  1  0  0  0  0
 55 62  1  0  0  0  0
 56 64  1  0  0  0  0
 57 65  1  0  0  0  0
 58 65  1  0  0  0  0
 59 65  1  0  0  0  0
 60 77  1  0  0  0  0
 61 84  1  0  0  0  0
 63 65  1  0  0  0  0
 63 76  1  0  0  0  0
 64 77  1  0  0  0  0
 67 68  1  0  0  0  0
M  CHG  1  77   1
M  ISO  4  37 100  61 101  72 100  84 101
M  END
> <Batch ID>
0179

> <Smiles>
CNC(C)C(=O)NC(C(=O)N1Cc2cc([101O:1][101CH2:1]c3ncc(N4CC[100N:0]([100C:0](=O)N5CCCC(n6nc(-c7ccc(Oc8ccc(F)cc8F)cc7)c(C(N)=O)c6N)C5)CC4)cc3C(C)C)ccc2CC1C(=O)NC1CCCc2ccccc21)C(C)(C)C

> <Shape>
0.282

> <Color>
0.090

> <Negative vol penalty>
0.000

$$$$

  -OEChem-04052322573D

 80 89  0     1  0  0  0  0  0999 V2000
  -19.1161  -27.1588   20.6674 C   0  0  0  0  0  0  0  0  0  0  0  0
  -19.9360  -26.0686   20.9409 C   0  0  0  0  0  0  0  0  0  0  0  0
  -22.9574  -10.0608   19.8548 C   0  0  0  0  0  0  0  0  0  0  0  0
  -23.8984   -9.7242   22.0544 C   0  0  0  0  0  0  0  0  0  0  0  0
  -19.6820  -28.3906   20.3415 C   0  0  0  0  0  0  0  0  0  0  0  0
  -21.3222  -26.2094   20.8875 C   0  0  0  0  0  0  0  0  0  0  0  0
  -25.4477  -23.3964   24.4334 C   0  0  0  0  0  0  0  0  0  0  0  0
  -22.1954   -8.9020   20.0035 C   0  0  0  0  0  0  0  0  0  0  0  0
  -23.1363   -8.5654   22.2031 C   0  0  0  0  0  0  0  0  0  0  0  0
  -26.2453  -22.2707   24.2324 C   0  0  0  0  0  0  0  0  0  0  0  0
  -19.9405   -7.7677   22.9587 C   0  0  0  0  0  0  0  0  0  0  0  0
  -19.2789   -7.5802   24.1722 C   0  0  0  0  0  0  0  0  0  0  0  0
  -28.0703  -23.6931   23.5503 C   0  0  0  0  0  0  0  0  0  0  0  0
  -20.5056   -5.5287   24.5240 C   0  0  0  0  0  0  0  0  0  0  0  0
  -29.2204  -18.4973   22.3477 C   0  0  0  0  0  0  0  0  0  0  0  0
  -23.8090  -10.4719   20.8803 C   0  0  0  0  0  0  0  0  0  0  0  0
  -24.2297  -12.9796   21.0850 C   0  0  0  0  0  0  0  0  0  0  0  0
  -21.0760  -28.5491   20.2935 C   0  0  0  0  0  0  0  0  0  0  0  0
  -25.9528  -24.6804   24.1835 C   0  0  0  0  0  0  0  0  0  0  0  0
  -21.9073  -27.4442   20.5593 C   0  0  0  0  0  0  0  0  0  0  0  0
  -27.2779  -24.8336   23.7514 C   0  0  0  0  0  0  0  0  0  0  0  0
  -22.2848   -8.1543   21.1776 C   0  0  0  0  0  0  0  0  0  0  0  0
  -27.5559  -22.4187   23.7881 C   0  0  0  0  0  0  0  0  0  0  0  0
  -20.8846   -6.8357   22.5277 C   0  0  0  0  0  0  0  0  0  0  0  0
  -19.5614   -6.4608   24.9549 C   0  0  0  0  0  0  0  0  0  0  0  0
  -21.1672   -5.7162   23.3104 C   0  0  0  0  0  0  0  0  0  0  0  0
  -24.5968  -11.6685   20.7271 C   0  0  0  0  0  0  0  0  0  0  0  0
  -30.1324  -17.5364   22.6825 C   0  0  0  0  0  0  0  0  0  0  0  0
  -28.7679  -18.9768   23.6105 C   0  0  0  0  0  0  0  0  0  0  0  0
  -25.3152  -13.7467   20.7390 C   0  0  0  0  0  0  0  0  0  0  0  0
  -23.0161  -13.4611   21.6774 C   0  0  0  0  0  0  0  0  0  0  0  0
  -25.1973  -27.0397   22.1918 C   0  0  0  0  0  0  0  0  0  0  0  0
  -27.4626  -28.6522   23.8622 C   0  0  0  0  0  0  0  0  0  0  0  0
  -30.2506  -28.5288   25.8266 C   0  0  0  0  0  0  0  0  0  0  0  0
  -30.8292  -14.5971   20.6043 C   0  0  0  0  0  0  0  0  0  0  0  0
  -21.6410  -29.8880   19.8902 C   0  0  0  0  0  0  0  0  0  0  0  0
  -25.0881  -25.8860   24.4308 C   0  0  0  0  0  0  0  0  0  0  0  0
  -27.8743  -26.1913   23.4881 C   0  0  0  0  0  0  0  0  0  0  0  0
  -23.1224  -30.0488   20.2216 C   0  0  0  0  0  0  0  0  0  0  0  0
  -29.4199  -12.6032   18.0130 C   0  0  0  0  0  0  0  0  0  0  0  0
  -23.9033  -28.8116   19.7901 C   0  0  0  0  0  0  0  0  0  0  0  0
  -28.0122  -12.2856   18.5204 C   0  0  0  0  0  0  0  0  0  0  0  0
  -31.9279  -16.1770   23.3649 C   0  0  0  0  0  0  0  0  0  0  0  0
  -31.0850  -16.5503   24.6032 C   0  0  0  0  0  0  0  0  0  0  0  0
  -30.4376  -12.6294   19.1512 C   0  0  0  0  0  0  0  0  0  0  0  0
  -28.6803  -13.2017   20.7816 C   0  0  0  0  0  0  0  0  0  0  0  0
  -23.4157  -27.5635   20.5358 C   0  0  1  0  0  0  0  0  0  0  0  0
  -31.0705  -16.5482   22.1188 C   0  0  1  0  0  0  0  0  0  0  0  0
  -25.5421  -27.1169   23.6522 C   0  0  1  0  0  0  0  0  0  0  0  0
  -27.6093  -13.2193   19.6776 C   0  0  2  0  0  0  0  0  0  0  0  0
  -31.8967  -30.0111   27.0058 C   0  0  0  0  0  0  0  0  0  0  0  0
  -28.8035  -29.2811   21.1946 C   0  0  0  0  0  0  0  0  0  0  0  0
  -30.8708  -29.9068   22.4606 C   0  0  0  0  0  0  0  0  0  0  0  0
  -28.7587  -31.1860   22.8143 C   0  0  0  0  0  0  0  0  0  0  0  0
  -29.5374  -27.4115   28.4728 C   0  0  0  0  0  0  0  0  0  0  0  0
  -27.7481  -20.0493   23.8580 C   0  0  0  0  0  0  0  0  0  1  0  0
  -28.9551  -28.8391   23.7338 C   0  0  1  0  0  0  0  0  0  0  0  0
  -30.5979  -29.2295   27.1277 C   0  0  2  0  0  0  0  0  0  0  0  0
  -29.3355  -29.7774   22.5539 C   0  0  0  0  0  0  0  0  0  0  0  0
  -25.8199  -11.6028   20.1944 N   0  0  0  0  0  0  0  0  0  0  0  0
  -29.3537  -18.3648   24.6546 N   0  0  0  0  0  0  0  0  0  0  0  0
  -30.1656  -17.5143   24.0372 N   0  0  0  0  0  0  0  0  0  0  0  0
  -26.2307  -12.8822   20.2149 N   0  0  0  0  0  0  0  0  0  0  0  0
  -26.9869  -27.3391   23.7386 N   0  0  0  0  0  0  0  0  0  0  0  0
  -29.9967  -13.5347   20.2152 N   0  0  0  0  0  0  0  0  0  0  0  0
  -25.5664  -15.0696   20.8348 N   0  0  0  0  0  0  0  0  0  0  0  0
  -22.0027  -12.5378   21.9688 N   0  0  0  0  0  0  0  0  0  0  0  0
  -23.9468  -27.5393   21.8819 N   0  0  0  0  0  0  0  0  0  0  0  0
  -29.4226  -29.2985   25.0372 N   0  0  0  0  0  0  0  0  0  0  0  0
  -30.3329  -15.4112   21.6151 N   0  0  0  0  0  0  0  0  0  0  0  0
  -30.7493  -28.2349   28.2273 N   0  3  0  0  0  0  0  0  0  0  0  0
  -22.8291  -14.6764   21.9255 O   0  0  0  0  0  0  0  0  0  0  0  0
  -26.0064  -26.5635   21.4043 O   0  0  0  0  0  0  0  0  0  0  0  0
  -26.7460  -29.6341   24.0719 O   0  0  0  0  0  0  0  0  0  0  0  0
  -30.6746  -27.4120   25.5377 O   0  0  0  0  0  0  0  0  0  0  0  0
  -31.9307  -14.8079   20.0853 O   0  0  0  0  0  0  0  0  0  0  0  0
  -21.5412   -7.0237   21.3231 O   0  0  0  0  0  0  0  0  0  0  0  0
  -28.3364  -21.3216   23.5904 O   0  0  0  0  0  0  0  0  0  1  0  0
  -18.9271   -6.2817   26.1210 F   0  0  0  0  0  0  0  0  0  0  0  0
  -22.0740   -4.8180   22.9023 F   0  0  0  0  0  0  0  0  0  0  0  0
  1  2  1  0  0  0  0
  1  5  2  0  0  0  0
  2  6  2  0  0  0  0
  3  8  2  0  0  0  0
  3 16  1  0  0  0  0
  4  9  1  0  0  0  0
  4 16  2  0  0  0  0
  5 18  1  0  0  0  0
  6 20  1  0  0  0  0
  7 10  2  0  0  0  0
  7 19  1  0  0  0  0
  8 22  1  0  0  0  0
  9 22  2  0  0  0  0
 10 23  1  0  0  0  0
 11 12  2  0  0  0  0
 11 24  1  0  0  0  0
 12 25  1  0  0  0  0
 13 21  1  0  0  0  0
 13 23  2  0  0  0  0
 14 25  2  0  0  0  0
 14 26  1  0  0  0  0
 15 28  2  0  0  0  0
 15 29  1  0  0  0  0
 16 27  1  0  0  0  0
 17 27  1  0  0  0  0
 17 30  2  0  0  0  0
 17 31  1  0  0  0  0
 18 20  2  0  0  0  0
 18 36  1  0  0  0  0
 19 21  2  0  0  0  0
 19 37  1  0  0  0  0
 20 47  1  0  0  0  0
 21 38  1  0  0  0  0
 22 77  1  0  0  0  0
 23 78  1  0  0  0  0
 24 26  2  0  0  0  0
 24 77  1  0  0  0  0
 25 79  1  0  0  0  0
 26 80  1  0  0  0  0
 27 60  2  0  0  0  0
 28 48  1  0  0  0  0
 28 62  1  0  0  0  0
 29 56  1  0  0  0  0
 29 61  2  0  0  0  0
 30 63  1  0  0  0  0
 30 66  1  0  0  0  0
 31 67  1  0  0  0  0
 31 72  2  0  0  0  0
 32 49  1  0  0  0  0
 32 68  1  0  0  0  0
 32 73  2  0  0  0  0
 33 57  1  0  0  0  0
 33 64  1  0  0  0  0
 33 74  2  0  0  0  0
 34 58  1  0  0  0  0
 34 69  1  0  0  0  0
 34 75  2  0  0  0  0
 35 65  1  0  0  0  0
 35 70  1  0  0  0  0
 35 76  2  0  0  0  0
 36 39  1  0  0  0  0
 37 49  1  0  0  0  0
 38 64  1  0  0  0  0
 39 41  1  0  0  0  0
 40 42  1  0  0  0  0
 40 45  1  0  0  0  0
 41 47  1  0  0  0  0
 42 50  1  0  0  0  0
 43 44  1  0  0  0  0
 43 48  1  0  0  0  0
 44 62  1  0  0  0  0
 45 65  1  0  0  0  0
 46 50  1  0  0  0  0
 46 65  1  0  0  0  0
 47 68  1  0  0  0  0
 48 70  1  0  0  0  0
 49 64  1  0  0  0  0
 50 63  1  0  0  0  0
 51 58  1  0  0  0  0
 52 59  1  0  0  0  0
 53 59  1  0  0  0  0
 54 59  1  0  0  0  0
 55 71  1  0  0  0  0
 56 78  1  0  0  0  0
 57 59  1  0  0  0  0
 57 69  1  0  0  0  0
 58 71  1  0  0  0  0
 60 63  1  0  0  0  0
 61 62  1  0  0  0  0
M  CHG  1  71   1
M  ISO  4  35 100  56 101  70 100  78 101
M  END
> <Batch ID>
0179

> <Smiles>
CNC(C)C(=O)NC(C(=O)N1Cc2cc([101O:1][101CH2:1]c3cc4n(n3)CCC4[100NH:0][100C:0](=O)N3CCCC(n4nc(-c5ccc(Oc6ccc(F)cc6F)cc5)c(C(N)=O)c4N)C3)ccc2CC1C(=O)NC1CCCc2ccccc21)C(C)(C)C

> <Shape>
0.243

> <Color>
0.175

> <Negative vol penalty>
0.000

$$$$

  -OEChem-04052322573D

 81 90  0     1  0  0  0  0  0999 V2000
  -32.5095  -33.4265   18.1751 C   0  0  0  0  0  0  0  0  0  0  0  0
  -33.1733  -32.2135   18.3282 C   0  0  0  0  0  0  0  0  0  0  0  0
  -23.0025   -9.8844   19.9829 C   0  0  0  0  0  0  0  0  0  0  0  0
  -23.7247   -9.9431   22.2877 C   0  0  0  0  0  0  0  0  0  0  0  0
  -31.2132  -33.5774   18.6658 C   0  0  0  0  0  0  0  0  0  0  0  0
  -32.5414  -31.1509   18.9732 C   0  0  0  0  0  0  0  0  0  0  0  0
  -32.1676  -23.9976   18.8913 C   0  0  0  0  0  0  0  0  0  0  0  0
  -22.2376   -8.7494   20.2515 C   0  0  0  0  0  0  0  0  0  0  0  0
  -22.9597   -8.8081   22.5563 C   0  0  0  0  0  0  0  0  0  0  0  0
  -32.2802  -22.9033   19.7478 C   0  0  0  0  0  0  0  0  0  0  0  0
  -23.2102   -5.4683   22.0943 C   0  0  0  0  0  0  0  0  0  0  0  0
  -23.7985   -4.4542   22.8500 C   0  0  0  0  0  0  0  0  0  0  0  0
  -30.0102  -23.2541   20.4848 C   0  0  0  0  0  0  0  0  0  0  0  0
  -22.0720   -4.6990   24.5224 C   0  0  0  0  0  0  0  0  0  0  0  0
  -31.8036  -17.4848   21.6867 C   0  0  0  0  0  0  0  0  0  0  0  0
  -23.7461  -10.4812   21.0010 C   0  0  0  0  0  0  0  0  0  0  0  0
  -24.1275  -12.9970   20.8183 C   0  0  0  0  0  0  0  0  0  0  0  0
  -30.5616  -32.5130   19.3086 C   0  0  0  0  0  0  0  0  0  0  0  0
  -30.9770  -24.7362   18.8330 C   0  0  0  0  0  0  0  0  0  0  0  0
  -31.2357  -31.2880   19.4742 C   0  0  0  0  0  0  0  0  0  0  0  0
  -29.8841  -24.3557   19.6249 C   0  0  0  0  0  0  0  0  0  0  0  0
  -22.2161   -8.2112   21.5382 C   0  0  0  0  0  0  0  0  0  0  0  0
  -31.2025  -22.5331   20.5468 C   0  0  0  0  0  0  0  0  0  0  0  0
  -22.0528   -6.0978   22.5526 C   0  0  0  0  0  0  0  0  0  0  0  0
  -23.2294   -4.0696   24.0641 C   0  0  0  0  0  0  0  0  0  0  0  0
  -21.4838   -5.7131   23.7666 C   0  0  0  0  0  0  0  0  0  0  0  0
  -24.5370  -11.6534   20.7240 C   0  0  0  0  0  0  0  0  0  0  0  0
  -31.7278  -18.7137   22.3692 C   0  0  0  0  0  0  0  0  0  0  0  0
  -30.5827  -16.8947   21.9053 C   0  0  0  0  0  0  0  0  0  0  0  0
  -25.2365  -13.7204   20.4532 C   0  0  0  0  0  0  0  0  0  0  0  0
  -22.8581  -13.5423   21.2016 C   0  0  0  0  0  0  0  0  0  0  0  0
  -30.1739  -27.7490   19.4510 C   0  0  0  0  0  0  0  0  0  0  0  0
  -27.3090  -26.8233   18.2435 C   0  0  0  0  0  0  0  0  0  0  0  0
  -25.1280  -24.2831   17.5825 C   0  0  0  0  0  0  0  0  0  0  0  0
  -30.7141  -14.6912   20.6915 C   0  0  0  0  0  0  0  0  0  0  0  0
  -29.1778  -32.7384   19.8643 C   0  0  0  0  0  0  0  0  0  0  0  0
  -30.8625  -25.8977   17.8843 C   0  0  0  0  0  0  0  0  0  0  0  0
  -28.5773  -25.1033   19.5846 C   0  0  0  0  0  0  0  0  0  0  0  0
  -28.4397  -31.4460   20.2036 C   0  0  0  0  0  0  0  0  0  0  0  0
  -29.6028  -12.2300   18.3710 C   0  0  0  0  0  0  0  0  0  0  0  0
  -29.3498  -30.4995   20.9799 C   0  0  0  0  0  0  0  0  0  0  0  0
  -28.1521  -11.9711   18.7841 C   0  0  0  0  0  0  0  0  0  0  0  0
  -33.4665  -20.2185   21.1108 C   0  0  0  0  0  0  0  0  0  0  0  0
  -30.5014  -12.4782   19.5813 C   0  0  0  0  0  0  0  0  0  0  0  0
  -28.5830  -13.2676   20.9102 C   0  0  0  0  0  0  0  0  0  0  0  0
  -30.5745  -30.1042   20.1461 C   0  0  1  0  0  0  0  0  0  0  0  0
  -32.8691  -19.7462   22.4187 C   0  0  1  0  0  0  0  0  0  0  0  0
  -29.7754  -26.8907   18.2838 C   0  0  1  0  0  0  0  0  0  0  0  0
  -27.6272  -13.0764   19.7213 C   0  0  2  0  0  0  0  0  0  0  0  0
  -32.6280  -21.1602   21.9257 C   0  0  1  0  0  0  0  0  0  1  0  0
  -33.2709  -22.3113   22.6253 C   0  0  0  0  0  0  0  0  0  0  0  0
  -22.8508  -23.8408   16.6251 C   0  0  0  0  0  0  0  0  0  0  0  0
  -26.0299  -27.8766   20.8057 C   0  0  0  0  0  0  0  0  0  0  0  0
  -23.9678  -26.5802   20.2265 C   0  0  0  0  0  0  0  0  0  0  0  0
  -24.7610  -28.3993   18.7150 C   0  0  0  0  0  0  0  0  0  0  0  0
  -28.5333  -17.6036   23.1789 C   0  0  0  0  0  0  0  0  0  0  0  0
  -26.2352  -22.5732   15.4355 C   0  0  0  0  0  0  0  0  0  0  0  0
  -26.0484  -26.2259   18.8205 C   0  0  1  0  0  0  0  0  0  0  0  0
  -24.3406  -23.9309   16.3333 C   0  0  2  0  0  0  0  0  0  0  0  0
  -25.2269  -27.2574   19.6443 C   0  0  0  0  0  0  0  0  0  0  0  0
  -25.8070  -11.5279   20.3298 N   0  0  0  0  0  0  0  0  0  0  0  0
  -30.5517  -18.8949   22.9758 N   0  0  0  0  0  0  0  0  0  0  0  0
  -26.2050  -12.8019   20.1731 N   0  0  0  0  0  0  0  0  0  0  0  0
  -29.8772  -17.7721   22.6752 N   0  0  0  0  0  0  0  0  0  0  0  0
  -28.5168  -26.2356   18.6455 N   0  0  0  0  0  0  0  0  0  0  0  0
  -29.9435  -13.5406   20.4209 N   0  0  0  0  0  0  0  0  0  0  0  0
  -25.4679  -15.0462   20.3477 N   0  0  0  0  0  0  0  0  0  0  0  0
  -21.8273  -12.6575   21.5464 N   0  0  0  0  0  0  0  0  0  0  0  0
  -30.0672  -15.6475   21.4736 N   0  0  0  0  0  0  0  0  0  0  0  0
  -30.2167  -29.1006   19.1668 N   0  0  0  0  0  0  0  0  0  0  0  0
  -25.3217  -25.6434   17.6975 N   0  0  0  0  0  0  0  0  0  0  0  0
  -24.7929  -22.6196   15.7884 N   0  3  0  0  0  0  0  0  0  0  0  0
  -22.6393  -14.7774   21.2216 O   0  0  0  0  0  0  0  0  0  0  0  0
  -30.4225  -27.2239   20.5300 O   0  0  0  0  0  0  0  0  0  0  0  0
  -27.2248  -27.7718   17.4593 O   0  0  0  0  0  0  0  0  0  0  0  0
  -25.5277  -23.4364   18.3787 O   0  0  0  0  0  0  0  0  0  0  0  0
  -31.8531  -14.8307   20.2385 O   0  0  0  0  0  0  0  0  0  0  0  0
  -21.4695   -7.1038   21.8007 O   0  0  0  0  0  0  0  0  0  0  0  0
  -31.3100  -21.4658   21.3842 O   0  0  0  0  0  0  0  0  0  1  0  0
  -23.7936   -3.0947   24.7890 F   0  0  0  0  0  0  0  0  0  0  0  0
  -20.3713   -6.3134   24.2115 F   0  0  0  0  0  0  0  0  0  0  0  0
  1  2  1  0  0  0  0
  1  5  2  0  0  0  0
  2  6  2  0  0  0  0
  3  8  2  0  0  0  0
  3 16  1  0  0  0  0
  4  9  1  0  0  0  0
  4 16  2  0  0  0  0
  5 18  1  0  0  0  0
  6 20  1  0  0  0  0
  7 10  2  0  0  0  0
  7 19  1  0  0  0  0
  8 22  1  0  0  0  0
  9 22  2  0  0  0  0
 10 23  1  0  0  0  0
 11 12  2  0  0  0  0
 11 24  1  0  0  0  0
 12 25  1  0  0  0  0
 13 21  1  0  0  0  0
 13 23  2  0  0  0  0
 14 25  2  0  0  0  0
 14 26  1  0  0  0  0
 15 28  1  0  0  0  0
 15 29  2  0  0  0  0
 16 27  1  0  0  0  0
 17 27  1  0  0  0  0
 17 30  2  0  0  0  0
 17 31  1  0  0  0  0
 18 20  2  0  0  0  0
 18 36  1  0  0  0  0
 19 21  2  0  0  0  0
 19 37  1  0  0  0  0
 20 46  1  0  0  0  0
 21 38  1  0  0  0  0
 22 78  1  0  0  0  0
 23 79  1  0  0  0  0
 24 26  2  0  0  0  0
 24 78  1  0  0  0  0
 25 80  1  0  0  0  0
 26 81  1  0  0  0  0
 27 61  2  0  0  0  0
 28 47  1  0  0  0  0
 28 62  2  0  0  0  0
 29 64  1  0  0  0  0
 29 69  1  0  0  0  0
 30 63  1  0  0  0  0
 30 67  1  0  0  0  0
 31 68  1  0  0  0  0
 31 73  2  0  0  0  0
 32 48  1  0  0  0  0
 32 70  1  0  0  0  0
 32 74  2  0  0  0  0
 33 58  1  0  0  0  0
 33 65  1  0  0  0  0
 33 75  2  0  0  0  0
 34 59  1  0  0  0  0
 34 71  1  0  0  0  0
 34 76  2  0  0  0  0
 35 66  1  0  0  0  0
 35 69  1  0  0  0  0
 35 77  2  0  0  0  0
 36 39  1  0  0  0  0
 37 48  1  0  0  0  0
 38 65  1  0  0  0  0
 39 41  1  0  0  0  0
 40 42  1  0  0  0  0
 40 44  1  0  0  0  0
 41 46  1  0  0  0  0
 42 49  1  0  0  0  0
 43 47  1  0  0  0  0
 43 50  1  0  0  0  0
 44 66  1  0  0  0  0
 45 49  1  0  0  0  0
 45 66  1  0  0  0  0
 46 70  1  0  0  0  0
 47 50  1  0  0  0  0
 48 65  1  0  0  0  0
 49 63  1  0  0  0  0
 50 51  1  0  0  0  0
 50 79  1  0  0  0  0
 52 59  1  0  0  0  0
 53 60  1  0  0  0  0
 54 60  1  0  0  0  0
 55 60  1  0  0  0  0
 56 64  1  0  0  0  0
 57 72  1  0  0  0  0
 58 60  1  0  0  0  0
 58 71  1  0  0  0  0
 59 72  1  0  0  0  0
 61 63  1  0  0  0  0
 62 64  1  0  0  0  0
M  CHG  1  72   1
M  ISO  4  35 100  50 101  69 100  79 101
M  END
> <Batch ID>
0179

> <Smiles>
CNC(C)C(=O)NC(C(=O)N1Cc2cc([101O:1][101C:1]3(C)CC3c3cc([100NH:0][100C:0](=O)N4CCCC(n5nc(-c6ccc(Oc7ccc(F)cc7F)cc6)c(C(N)=O)c5N)C4)n(C)n3)ccc2CC1C(=O)NC1CCCc2ccccc21)C(C)(C)C

> <Shape>
0.271

> <Color>
0.202

> <Negative vol penalty>
0.000

$$$$

  -OEChem-04052322573D

 84 93  0     1  0  0  0  0  0999 V2000
  -19.5770  -24.0196   22.2445 C   0  0  0  0  0  0  0  0  0  0  0  0
  -20.7697  -24.3847   21.6283 C   0  0  0  0  0  0  0  0  0  0  0  0
  -29.9163  -13.6246   19.3910 C   0  0  0  0  0  0  0  0  0  0  0  0
  -27.6627  -12.7686   19.5517 C   0  0  0  0  0  0  0  0  0  0  0  0
  -18.6923  -25.0027   22.6857 C   0  0  0  0  0  0  0  0  0  0  0  0
  -21.0779  -25.7331   21.4521 C   0  0  0  0  0  0  0  0  0  0  0  0
  -25.8728  -26.8063   22.6777 C   0  0  0  0  0  0  0  0  0  0  0  0
  -30.4190  -12.3407   19.6020 C   0  0  0  0  0  0  0  0  0  0  0  0
  -28.1655  -11.4846   19.7625 C   0  0  0  0  0  0  0  0  0  0  0  0
  -26.8579  -26.4676   21.7511 C   0  0  0  0  0  0  0  0  0  0  0  0
  -29.4976   -9.7198   22.3202 C   0  0  0  0  0  0  0  0  0  0  0  0
  -28.9243   -8.9586   23.3388 C   0  0  0  0  0  0  0  0  0  0  0  0
  -29.5068  -21.7627   19.2629 C   0  0  0  0  0  0  0  0  0  0  0  0
  -26.9273  -28.7578   20.9966 C   0  0  0  0  0  0  0  0  0  0  0  0
  -28.2833   -7.2801   21.7236 C   0  0  0  0  0  0  0  0  0  0  0  0
  -29.5202  -22.2808   17.9866 C   0  0  0  0  0  0  0  0  0  0  0  0
  -28.5381  -13.8385   19.3659 C   0  0  0  0  0  0  0  0  0  0  0  0
  -28.2455  -22.0695   19.8308 C   0  0  0  0  0  0  0  0  0  0  0  0
  -27.7029  -15.7624   17.9137 C   0  0  0  0  0  0  0  0  0  0  0  0
  -18.9943  -26.3640   22.5235 C   0  0  0  0  0  0  0  0  0  0  0  0
  -25.3990  -28.1234   22.7634 C   0  0  0  0  0  0  0  0  0  0  0  0
  -20.1958  -26.7354   21.8904 C   0  0  0  0  0  0  0  0  0  0  0  0
  -25.9380  -29.1112   21.9268 C   0  0  0  0  0  0  0  0  0  0  0  0
  -29.5437  -11.2708   19.7877 C   0  0  0  0  0  0  0  0  0  0  0  0
  -27.3833  -27.4427   20.9084 C   0  0  0  0  0  0  0  0  0  0  0  0
  -29.4637   -9.2612   21.0033 C   0  0  0  0  0  0  0  0  0  0  0  0
  -28.3172   -7.7387   23.0405 C   0  0  0  0  0  0  0  0  0  0  0  0
  -28.8565   -8.0414   20.7050 C   0  0  0  0  0  0  0  0  0  0  0  0
  -28.0182  -15.1646   19.1487 C   0  0  0  0  0  0  0  0  0  0  0  0
  -27.5267  -22.7659   18.8843 C   0  0  0  0  0  0  0  0  0  0  0  0
  -27.2494  -17.0158   18.2448 C   0  0  0  0  0  0  0  0  0  0  0  0
  -27.7652  -21.7232   21.1748 C   0  0  0  0  0  0  0  0  0  0  0  0
  -27.8102  -15.2319   16.5860 C   0  0  0  0  0  0  0  0  0  0  0  0
  -22.5780  -29.5245   22.3364 C   0  0  0  0  0  0  0  0  0  0  0  0
  -24.1521  -32.1442   23.4234 C   0  0  0  0  0  0  0  0  0  0  0  0
  -27.1244  -33.7609   23.8687 C   0  0  0  0  0  0  0  0  0  0  0  0
  -17.9850  -27.3902   22.9742 C   0  0  0  0  0  0  0  0  0  0  0  0
  -24.3551  -28.4781   23.7865 C   0  0  0  0  0  0  0  0  0  0  0  0
  -25.4779  -30.5438   21.9929 C   0  0  0  0  0  0  0  0  0  0  0  0
  -18.5587  -28.8003   23.0866 C   0  0  0  0  0  0  0  0  0  0  0  0
  -26.0350  -19.0151   22.7287 C   0  0  0  0  0  0  0  0  0  0  0  0
  -19.3845  -29.1408   21.8500 C   0  0  0  0  0  0  0  0  0  0  0  0
  -24.9967  -22.3516   19.4315 C   0  0  0  0  0  0  0  0  0  0  0  0
  -25.0482  -22.8999   18.0397 C   0  0  0  0  0  0  0  0  0  0  0  0
  -26.3850  -17.8148   21.8472 C   0  0  0  0  0  0  0  0  0  0  0  0
  -27.2048  -19.9892   22.8448 C   0  0  0  0  0  0  0  0  0  0  0  0
  -28.1020  -19.2485   20.6651 C   0  0  0  0  0  0  0  0  0  0  0  0
  -20.5770  -28.1879   21.7035 C   0  0  1  0  0  0  0  0  0  0  0  0
  -26.1039  -23.3093   19.0449 C   0  0  0  0  0  0  0  0  0  0  0  0
  -23.5795  -29.7439   23.4347 C   0  0  1  0  0  0  0  0  0  0  0  0
  -26.9327  -18.2673   20.4806 C   0  0  1  0  0  0  0  0  0  0  0  0
  -28.0888  -35.9033   24.7503 C   0  0  0  0  0  0  0  0  0  0  0  0
  -28.1403  -25.5958   15.0497 C   0  0  0  0  0  0  0  0  0  0  0  0
  -23.2046  -33.6001   20.9149 C   0  0  0  0  0  0  0  0  0  0  0  0
  -24.9324  -35.3551   21.3653 C   0  0  0  0  0  0  0  0  0  0  0  0
  -23.1007  -34.9591   23.0117 C   0  0  0  0  0  0  0  0  0  0  0  0
  -28.7188  -32.3365   25.9152 C   0  0  0  0  0  0  0  0  0  0  0  0
  -27.9280  -23.5607   16.5289 C   0  0  0  0  0  0  0  0  0  0  0  0
  -28.9714  -27.0254   17.6828 C   0  0  0  0  0  0  0  0  0  0  0  0
  -28.3841  -27.8727   18.7943 C   0  0  0  0  0  0  0  0  0  1  0  0
  -24.9523  -33.2528   22.7833 C   0  0  1  0  0  0  0  0  0  0  0  0
  -27.7171  -34.4651   25.0759 C   0  0  2  0  0  0  0  0  0  0  0  0
  -28.5590  -24.9462   16.3615 C   0  0  2  0  0  0  0  0  0  0  0  0
  -24.0550  -34.2645   22.0160 C   0  0  0  0  0  0  0  0  0  0  0  0
  -27.7849  -15.9721   20.1868 N   0  0  0  0  0  0  0  0  0  0  0  0
  -28.3114  -22.8883   17.7673 N   0  0  0  0  0  0  0  0  0  0  0  0
  -27.3183  -17.0900   19.6049 N   0  0  0  0  0  0  0  0  0  0  0  0
  -27.6931  -20.3716   21.5204 N   0  0  0  0  0  0  0  0  0  0  0  0
  -24.4508  -30.8397   23.0054 N   0  0  0  0  0  0  0  0  0  0  0  0
  -26.8025  -18.0509   17.5022 N   0  0  0  0  0  0  0  0  0  0  0  0
  -28.2953  -13.9268   16.4251 N   0  0  0  0  0  0  0  0  0  0  0  0
  -21.6340  -28.5563   22.6209 N   0  0  0  0  0  0  0  0  0  0  0  0
  -25.7486  -33.8498   23.8501 N   0  0  0  0  0  0  0  0  0  0  0  0
  -28.9434  -33.7560   25.5389 N   0  3  0  0  0  0  0  0  0  0  0  0
  -28.1146  -25.8313   17.4719 N   0  3  0  0  0  0  0  0  0  0  0  0
  -27.4476  -22.6660   21.8981 O   0  0  0  0  0  0  0  0  0  0  0  0
  -27.5011  -15.9014   15.5713 O   0  0  0  0  0  0  0  0  0  0  0  0
  -22.6550  -30.1858   21.3075 O   0  0  0  0  0  0  0  0  0  0  0  0
  -23.2984  -32.4249   24.2685 O   0  0  0  0  0  0  0  0  0  0  0  0
  -27.8133  -33.1922   23.0246 O   0  0  0  0  0  0  0  0  0  0  0  0
  -30.0339  -10.0178   19.9933 O   0  0  0  0  0  0  0  0  0  0  0  0
  -28.3444  -27.1146   20.0027 O   0  0  0  0  0  0  0  0  0  1  0  0
  -27.7681   -7.0071   24.0189 F   0  0  0  0  0  0  0  0  0  0  0  0
  -28.8219   -7.5951   19.4419 F   0  0  0  0  0  0  0  0  0  0  0  0
  1  2  1  0  0  0  0
  1  5  2  0  0  0  0
  2  6  2  0  0  0  0
  3  8  2  0  0  0  0
  3 17  1  0  0  0  0
  4  9  1  0  0  0  0
  4 17  2  0  0  0  0
  5 20  1  0  0  0  0
  6 22  1  0  0  0  0
  7 10  2  0  0  0  0
  7 21  1  0  0  0  0
  8 24  1  0  0  0  0
  9 24  2  0  0  0  0
 10 25  1  0  0  0  0
 11 12  2  0  0  0  0
 11 26  1  0  0  0  0
 12 27  1  0  0  0  0
 13 16  2  0  0  0  0
 13 18  1  0  0  0  0
 14 23  1  0  0  0  0
 14 25  2  0  0  0  0
 15 27  2  0  0  0  0
 15 28  1  0  0  0  0
 16 66  1  0  0  0  0
 17 29  1  0  0  0  0
 18 30  2  0  0  0  0
 18 32  1  0  0  0  0
 19 29  1  0  0  0  0
 19 31  2  0  0  0  0
 19 33  1  0  0  0  0
 20 22  2  0  0  0  0
 20 37  1  0  0  0  0
 21 23  2  0  0  0  0
 21 38  1  0  0  0  0
 22 48  1  0  0  0  0
 23 39  1  0  0  0  0
 24 81  1  0  0  0  0
 25 82  1  0  0  0  0
 26 28  2  0  0  0  0
 26 81  1  0  0  0  0
 27 83  1  0  0  0  0
 28 84  1  0  0  0  0
 29 65  2  0  0  0  0
 30 49  1  0  0  0  0
 30 66  1  0  0  0  0
 31 67  1  0  0  0  0
 31 70  1  0  0  0  0
 32 68  1  0  0  0  0
 32 76  2  0  0  0  0
 33 71  1  0  0  0  0
 33 77  2  0  0  0  0
 34 50  1  0  0  0  0
 34 72  1  0  0  0  0
 34 78  2  0  0  0  0
 35 61  1  0  0  0  0
 35 69  1  0  0  0  0
 35 79  2  0  0  0  0
 36 62  1  0  0  0  0
 36 73  1  0  0  0  0
 36 80  2  0  0  0  0
 37 40  1  0  0  0  0
 38 50  1  0  0  0  0
 39 69  1  0  0  0  0
 40 42  1  0  0  0  0
 41 45  1  0  0  0  0
 41 46  1  0  0  0  0
 42 48  1  0  0  0  0
 43 44  1  0  0  0  0
 43 49  1  0  0  0  0
 44 49  1  0  0  0  0
 45 51  1  0  0  0  0
 46 68  1  0  0  0  0
 47 51  1  0  0  0  0
 47 68  1  0  0  0  0
 48 72  1  0  0  0  0
 50 69  1  0  0  0  0
 51 67  1  0  0  0  0
 52 62  1  0  0  0  0
 53 63  1  0  0  0  0
 54 64  1  0  0  0  0
 55 64  1  0  0  0  0
 56 64  1  0  0  0  0
 57 74  1  0  0  0  0
 58 63  1  0  0  0  0
 58 66  1  0  0  0  0
 59 60  1  0  0  0  0
 59 75  1  0  0  0  0
 60 82  1  0  0  0  0
 61 64  1  0  0  0  0
 61 73  1  0  0  0  0
 62 74  1  0  0  0  0
 63 75  1  0  0  0  0
 65 67  1  0  0  0  0
M  CHG  2  74   1  75   1
M  ISO  4  18 100  32 100  60 101  82 101
M  END
> <Batch ID>
0179

> <Smiles>
CNC(C)C(=O)NC(C(=O)N1Cc2cc([101O:1][101CH2:1]CNC(C)Cn3cc[100c:0]([100C:0](=O)N4CCCC(n5nc(-c6ccc(Oc7ccc(F)cc7F)cc6)c(C(N)=O)c5N)C4)c3C3CC3)ccc2CC1C(=O)NC1CCCc2ccccc21)C(C)(C)C

> <Shape>
0.236

> <Color>
0.096

> <Negative vol penalty>
0.000

$$$$

  -OEChem-04052322573D

 84 93  0     1  0  0  0  0  0999 V2000
  -29.0982  -11.3086   18.6335 C   0  0  0  0  0  0  0  0  0  0  0  0
  -27.9059  -12.0138   18.7612 C   0  0  0  0  0  0  0  0  0  0  0  0
  -24.4941  -28.6243   21.6516 C   0  0  0  0  0  0  0  0  0  0  0  0
  -23.4588  -29.7903   19.8063 C   0  0  0  0  0  0  0  0  0  0  0  0
  -30.2582  -11.7868   19.2415 C   0  0  0  0  0  0  0  0  0  0  0  0
  -27.8726  -13.1972   19.4980 C   0  0  0  0  0  0  0  0  0  0  0  0
  -25.3055  -16.8765   17.1490 C   0  0  0  0  0  0  0  0  0  0  0  0
  -25.5084  -29.5811   21.6871 C   0  0  0  0  0  0  0  0  0  0  0  0
  -24.4730  -30.7472   19.8418 C   0  0  0  0  0  0  0  0  0  0  0  0
  -23.9137  -16.8142   17.1998 C   0  0  0  0  0  0  0  0  0  0  0  0
  -25.9254  -32.7269   22.8545 C   0  0  0  0  0  0  0  0  0  0  0  0
  -26.3013  -33.2272   24.1011 C   0  0  0  0  0  0  0  0  0  0  0  0
  -23.9111  -18.4509   18.9719 C   0  0  0  0  0  0  0  0  0  0  0  0
  -28.5501  -32.4176   23.7479 C   0  0  0  0  0  0  0  0  0  0  0  0
  -17.0766  -17.7345   18.9093 C   0  0  0  0  0  0  0  0  0  0  0  0
  -23.4693  -28.7288   20.7111 C   0  0  0  0  0  0  0  0  0  0  0  0
  -21.2015  -27.7679   21.3752 C   0  0  0  0  0  0  0  0  0  0  0  0
  -30.2413  -12.9818   19.9780 C   0  0  0  0  0  0  0  0  0  0  0  0
  -26.0125  -17.7199   18.0182 C   0  0  0  0  0  0  0  0  0  0  0  0
  -29.0331  -13.6912   20.1175 C   0  0  0  0  0  0  0  0  0  0  0  0
  -25.3118  -18.5240   18.9284 C   0  0  0  0  0  0  0  0  0  0  0  0
  -25.4979  -30.6426   20.7823 C   0  0  0  0  0  0  0  0  0  0  0  0
  -23.2164  -17.5993   18.1133 C   0  0  0  0  0  0  0  0  0  0  0  0
  -26.8618  -32.0720   22.0546 C   0  0  0  0  0  0  0  0  0  0  0  0
  -27.6136  -33.0726   24.5478 C   0  0  0  0  0  0  0  0  0  0  0  0
  -28.1742  -31.9173   22.5013 C   0  0  0  0  0  0  0  0  0  0  0  0
  -22.4216  -27.7404   20.6735 C   0  0  0  0  0  0  0  0  0  0  0  0
  -17.8460  -17.2260   19.9359 C   0  0  0  0  0  0  0  0  0  0  0  0
  -17.7581  -18.4670   17.9589 C   0  0  0  0  0  0  0  0  0  0  0  0
  -20.5638  -26.6105   21.0005 C   0  0  0  0  0  0  0  0  0  0  0  0
  -19.7268  -18.1434   19.0482 C   0  0  0  0  0  0  0  0  0  0  0  0
  -20.6901  -28.7516   22.2843 C   0  0  0  0  0  0  0  0  0  0  0  0
  -28.1693  -17.2786   20.3110 C   0  0  0  0  0  0  0  0  0  0  0  0
  -28.2710  -20.5208   20.3011 C   0  0  0  0  0  0  0  0  0  0  0  0
  -26.6995  -23.4666   19.5942 C   0  0  0  0  0  0  0  0  0  0  0  0
  -18.9392  -23.1181   17.1241 C   0  0  0  0  0  0  0  0  0  0  0  0
  -31.5099  -13.4343   20.6566 C   0  0  0  0  0  0  0  0  0  0  0  0
  -27.5122  -17.7954   17.9325 C   0  0  0  0  0  0  0  0  0  0  0  0
  -26.0225  -19.4609   19.8694 C   0  0  0  0  0  0  0  0  0  0  0  0
  -31.4730  -14.8924   21.1069 C   0  0  0  0  0  0  0  0  0  0  0  0
  -22.2657  -22.5903   18.4456 C   0  0  0  0  0  0  0  0  0  0  0  0
  -30.1607  -15.1972   21.8223 C   0  0  0  0  0  0  0  0  0  0  0  0
  -22.4993  -23.8965   19.2066 C   0  0  0  0  0  0  0  0  0  0  0  0
  -16.6145  -20.0423   14.6832 C   0  0  0  0  0  0  0  0  0  0  0  0
  -17.1794  -21.4784   14.6369 C   0  0  0  0  0  0  0  0  0  0  0  0
  -21.4937  -22.8336   17.1518 C   0  0  0  0  0  0  0  0  0  0  0  0
  -20.4265  -24.8445   18.0928 C   0  0  0  0  0  0  0  0  0  0  0  0
  -28.9623  -14.9919   20.8879 C   0  0  1  0  0  0  0  0  0  0  0  0
  -28.1590  -18.3073   19.2159 C   0  0  1  0  0  0  0  0  0  0  0  0
  -21.1806  -24.6621   19.4224 C   0  0  2  0  0  0  0  0  0  0  0  0
  -17.5909  -19.7788   15.8501 C   0  0  1  0  0  0  0  0  0  0  0  0
  -17.5534  -21.3020   16.1287 C   0  0  1  0  0  0  0  0  0  0  0  0
  -17.1977  -16.4206   21.0114 C   0  0  0  0  0  0  0  0  0  0  0  0
  -27.0190  -25.9519   19.7304 C   0  0  0  0  0  0  0  0  0  0  0  0
  -27.7400  -20.4220   23.3041 C   0  0  0  0  0  0  0  0  0  0  0  0
  -27.1320  -22.8487   23.2059 C   0  0  0  0  0  0  0  0  0  0  0  0
  -29.4387  -22.1171   22.6003 C   0  0  0  0  0  0  0  0  0  0  0  0
  -26.4658  -23.7742   16.6600 C   0  0  0  0  0  0  0  0  0  0  0  0
  -21.2078  -18.3717   19.1257 C   0  0  0  0  0  0  0  0  0  1  0  0
  -27.5258  -21.6160   21.0250 C   0  0  1  0  0  0  0  0  0  0  0  0
  -27.1728  -24.7110   18.8648 C   0  0  2  0  0  0  0  0  0  0  0  0
  -27.9455  -21.7320   22.5176 C   0  0  0  0  0  0  0  0  0  0  0  0
  -22.5535  -26.6518   19.9110 N   0  0  0  0  0  0  0  0  0  0  0  0
  -19.1785  -17.4118   20.0369 N   0  0  0  0  0  0  0  0  0  0  0  0
  -19.0878  -18.6921   17.9974 N   0  0  0  0  0  0  0  0  0  0  0  0
  -21.4080  -25.9844   20.1313 N   0  0  0  0  0  0  0  0  0  0  0  0
  -27.4897  -19.4945   19.7516 N   0  0  0  0  0  0  0  0  0  0  0  0
  -20.2400  -23.5492   17.4295 N   0  0  0  0  0  0  0  0  0  0  0  0
  -19.3690  -26.0774   21.3331 N   0  0  0  0  0  0  0  0  0  0  0  0
  -21.4748  -29.8802   22.5581 N   0  0  0  0  0  0  0  0  0  0  0  0
  -17.0046  -19.0067   16.8877 N   0  0  0  0  0  0  0  0  0  0  0  0
  -28.8314  -16.1116   19.9804 N   0  0  0  0  0  0  0  0  0  0  0  0
  -27.7348  -22.8337   20.2492 N   0  0  0  0  0  0  0  0  0  0  0  0
  -18.8370  -21.8800   16.4988 N   0  0  0  0  0  0  0  0  0  0  0  0
  -26.3859  -24.9095   17.6149 N   0  3  0  0  0  0  0  0  0  0  0  0
  -19.5777  -28.6254   22.8501 O   0  0  0  0  0  0  0  0  0  0  0  0
  -27.6187  -17.5259   21.3775 O   0  0  0  0  0  0  0  0  0  0  0  0
  -29.5006  -20.5776   20.2197 O   0  0  0  0  0  0  0  0  0  0  0  0
  -25.5279  -23.0953   19.5869 O   0  0  0  0  0  0  0  0  0  0  0  0
  -17.9324  -23.7828   17.3926 O   0  0  0  0  0  0  0  0  0  0  0  0
  -26.4873  -31.5766   20.8168 O   0  0  0  0  0  0  0  0  0  0  0  0
  -21.8578  -17.5400   18.1655 O   0  0  0  0  0  0  0  0  0  1  0  0
  -27.9748  -33.5543   25.7443 F   0  0  0  0  0  0  0  0  0  0  0  0
  -29.0785  -31.2901   21.7368 F   0  0  0  0  0  0  0  0  0  0  0  0
  1  2  1  0  0  0  0
  1  5  2  0  0  0  0
  2  6  2  0  0  0  0
  3  8  2  0  0  0  0
  3 16  1  0  0  0  0
  4  9  1  0  0  0  0
  4 16  2  0  0  0  0
  5 18  1  0  0  0  0
  6 20  1  0  0  0  0
  7 10  2  0  0  0  0
  7 19  1  0  0  0  0
  8 22  1  0  0  0  0
  9 22  2  0  0  0  0
 10 23  1  0  0  0  0
 11 12  2  0  0  0  0
 11 24  1  0  0  0  0
 12 25  1  0  0  0  0
 13 21  1  0  0  0  0
 13 23  2  0  0  0  0
 14 25  2  0  0  0  0
 14 26  1  0  0  0  0
 15 28  1  0  0  0  0
 15 29  2  0  0  0  0
 16 27  1  0  0  0  0
 17 27  1  0  0  0  0
 17 30  2  0  0  0  0
 17 32  1  0  0  0  0
 18 20  2  0  0  0  0
 18 37  1  0  0  0  0
 19 21  2  0  0  0  0
 19 38  1  0  0  0  0
 20 48  1  0  0  0  0
 21 39  1  0  0  0  0
 22 81  1  0  0  0  0
 23 82  1  0  0  0  0
 24 26  2  0  0  0  0
 24 81  1  0  0  0  0
 25 83  1  0  0  0  0
 26 84  1  0  0  0  0
 27 63  2  0  0  0  0
 28 53  1  0  0  0  0
 28 64  2  0  0  0  0
 29 65  1  0  0  0  0
 29 71  1  0  0  0  0
 30 66  1  0  0  0  0
 30 69  1  0  0  0  0
 31 59  1  0  0  0  0
 31 64  1  0  0  0  0
 31 65  2  0  0  0  0
 32 70  1  0  0  0  0
 32 76  2  0  0  0  0
 33 49  1  0  0  0  0
 33 72  1  0  0  0  0
 33 77  2  0  0  0  0
 34 60  1  0  0  0  0
 34 67  1  0  0  0  0
 34 78  2  0  0  0  0
 35 61  1  0  0  0  0
 35 73  1  0  0  0  0
 35 79  2  0  0  0  0
 36 68  1  0  0  0  0
 36 74  1  0  0  0  0
 36 80  2  0  0  0  0
 37 40  1  0  0  0  0
 38 49  1  0  0  0  0
 39 67  1  0  0  0  0
 40 42  1  0  0  0  0
 41 43  1  0  0  0  0
 41 46  1  0  0  0  0
 42 48  1  0  0  0  0
 43 50  1  0  0  0  0
 44 45  1  0  0  0  0
 44 51  1  0  0  0  0
 45 52  1  0  0  0  0
 46 68  1  0  0  0  0
 47 50  1  0  0  0  0
 47 68  1  0  0  0  0
 48 72  1  0  0  0  0
 49 67  1  0  0  0  0
 50 66  1  0  0  0  0
 51 52  1  0  0  0  0
 51 71  1  0  0  0  0
 52 74  1  0  0  0  0
 54 61  1  0  0  0  0
 55 62  1  0  0  0  0
 56 62  1  0  0  0  0
 57 62  1  0  0  0  0
 58 75  1  0  0  0  0
 59 82  1  0  0  0  0
 60 62  1  0  0  0  0
 60 73  1  0  0  0  0
 61 75  1  0  0  0  0
 63 66  1  0  0  0  0
M  CHG  1  75   1
M  ISO  4  36 100  59 101  74 100  82 101
M  END
> <Batch ID>
0179

> <Smiles>
CNC(C)C(=O)NC(C(=O)N1Cc2cc([101O:1][101CH2:1]c3nc(C)cc(NC4CCC4[100NH:0][100C:0](=O)N4CCCC(n5nc(-c6ccc(Oc7ccc(F)cc7F)cc6)c(C(N)=O)c5N)C4)n3)ccc2CC1C(=O)NC1CCCc2ccccc21)C(C)(C)C

> <Shape>
0.208

> <Color>
0.059

> <Negative vol penalty>
0.000

$$$$

  -OEChem-04052322573D

 82 91  0     1  0  0  0  0  0999 V2000
  -18.6881  -28.5619   24.0851 C   0  0  0  0  0  0  0  0  0  0  0  0
  -19.5892  -27.5025   24.1149 C   0  0  0  0  0  0  0  0  0  0  0  0
  -23.6853   -9.6840   21.8577 C   0  0  0  0  0  0  0  0  0  0  0  0
  -24.2249  -11.0217   23.7958 C   0  0  0  0  0  0  0  0  0  0  0  0
  -18.8117  -29.5536   23.1129 C   0  0  0  0  0  0  0  0  0  0  0  0
  -20.6139  -27.4335   23.1717 C   0  0  0  0  0  0  0  0  0  0  0  0
  -26.2783  -25.2736   24.0408 C   0  0  0  0  0  0  0  0  0  0  0  0
  -23.1284   -8.7092   22.6854 C   0  0  0  0  0  0  0  0  0  0  0  0
  -23.6680  -10.0469   24.6237 C   0  0  0  0  0  0  0  0  0  0  0  0
  -26.8669  -24.0426   23.7546 C   0  0  0  0  0  0  0  0  0  0  0  0
  -20.2402   -8.2317   24.3775 C   0  0  0  0  0  0  0  0  0  0  0  0
  -19.0088   -7.6922   24.0060 C   0  0  0  0  0  0  0  0  0  0  0  0
  -27.7223  -24.9395   21.6850 C   0  0  0  0  0  0  0  0  0  0  0  0
  -20.0058   -5.4944   23.8932 C   0  0  0  0  0  0  0  0  0  0  0  0
  -24.2336  -10.8403   22.4129 C   0  0  0  0  0  0  0  0  0  0  0  0
  -24.1515  -12.9498   20.9809 C   0  0  0  0  0  0  0  0  0  0  0  0
  -19.8442  -29.5019   22.1633 C   0  0  0  0  0  0  0  0  0  0  0  0
  -26.3983  -26.3454   23.1445 C   0  0  0  0  0  0  0  0  0  0  0  0
  -20.7507  -28.4247   22.1850 C   0  0  0  0  0  0  0  0  0  0  0  0
  -27.1364  -26.1838   21.9633 C   0  0  0  0  0  0  0  0  0  0  0  0
  -29.9713  -18.2174   21.9129 C   0  0  0  0  0  0  0  0  0  0  0  0
  -23.1197   -8.8906   24.0684 C   0  0  0  0  0  0  0  0  0  0  0  0
  -27.5866  -23.8745   22.5752 C   0  0  0  0  0  0  0  0  0  0  0  0
  -21.3545   -7.4027   24.5068 C   0  0  0  0  0  0  0  0  0  0  0  0
  -18.8916   -6.3235   23.7639 C   0  0  0  0  0  0  0  0  0  0  0  0
  -21.2373   -6.0340   24.2646 C   0  0  0  0  0  0  0  0  0  0  0  0
  -24.8095  -11.8474   21.5583 C   0  0  0  0  0  0  0  0  0  0  0  0
  -30.4668  -19.0092   22.9360 C   0  0  0  0  0  0  0  0  0  0  0  0
  -28.7918  -18.6186   21.3425 C   0  0  0  0  0  0  0  0  0  0  0  0
  -25.1288  -13.5959   20.2639 C   0  0  0  0  0  0  0  0  0  0  0  0
  -28.7138  -20.4052   22.7759 C   0  0  0  0  0  0  0  0  0  0  0  0
  -22.7797  -13.3538   21.0834 C   0  0  0  0  0  0  0  0  0  0  0  0
  -24.3543  -28.0854   21.4421 C   0  0  0  0  0  0  0  0  0  0  0  0
  -27.0129  -29.8019   20.7294 C   0  0  0  0  0  0  0  0  0  0  0  0
  -30.4128  -29.8944   20.4483 C   0  0  0  0  0  0  0  0  0  0  0  0
  -30.7738  -14.8522   20.5285 C   0  0  0  0  0  0  0  0  0  0  0  0
  -19.9091  -30.5720   21.1024 C   0  0  0  0  0  0  0  0  0  0  0  0
  -25.7799  -27.6748   23.4805 C   0  0  0  0  0  0  0  0  0  0  0  0
  -27.3119  -27.3090   20.9777 C   0  0  0  0  0  0  0  0  0  0  0  0
  -31.7878  -18.4841   23.4224 C   0  0  0  0  0  0  0  0  0  0  0  0
  -21.2476  -30.6235   20.3703 C   0  0  0  0  0  0  0  0  0  0  0  0
  -31.7397  -17.0421   22.8891 C   0  0  0  0  0  0  0  0  0  0  0  0
  -29.5170  -12.2929   18.3962 C   0  0  0  0  0  0  0  0  0  0  0  0
  -21.6882  -29.2208   19.9640 C   0  0  0  0  0  0  0  0  0  0  0  0
  -28.1138  -12.0196   18.9406 C   0  0  0  0  0  0  0  0  0  0  0  0
  -30.5057  -12.6070   19.5168 C   0  0  0  0  0  0  0  0  0  0  0  0
  -28.6869  -13.4208   20.9671 C   0  0  0  0  0  0  0  0  0  0  0  0
  -21.8904  -28.3280   21.1942 C   0  0  1  0  0  0  0  0  0  0  0  0
  -30.8910  -17.0867   21.6019 C   0  0  1  0  0  0  0  0  0  0  0  0
  -25.5325  -28.5460   22.2528 C   0  0  1  0  0  0  0  0  0  0  0  0
  -27.6421  -13.1540   19.8700 C   0  0  2  0  0  0  0  0  0  0  0  0
  -28.1836  -17.8733   20.2054 C   0  0  0  0  0  0  0  0  0  0  0  0
  -32.2955  -31.4249   19.8080 C   0  0  0  0  0  0  0  0  0  0  0  0
  -26.3150  -29.4237   17.7832 C   0  0  0  0  0  0  0  0  0  0  0  0
  -28.6531  -30.1137   17.2127 C   0  0  0  0  0  0  0  0  0  0  0  0
  -27.1318  -31.7118   18.3764 C   0  0  0  0  0  0  0  0  0  0  0  0
  -31.6248  -29.7201   23.1427 C   0  0  0  0  0  0  0  0  0  0  0  0
  -27.9876  -21.6296   23.2501 C   0  0  0  0  0  0  0  0  0  1  0  0
  -28.0684  -29.7400   19.6518 C   0  0  1  0  0  0  0  0  0  0  0  0
  -31.4378  -30.8967   20.9474 C   0  0  2  0  0  0  0  0  0  0  0  0
  -27.5373  -30.2254   18.2735 C   0  0  0  0  0  0  0  0  0  0  0  0
  -26.1045  -11.7929   21.2360 N   0  0  0  0  0  0  0  0  0  0  0  0
  -29.8740  -20.1174   23.4017 N   0  0  0  0  0  0  0  0  0  0  0  0
  -28.1293  -19.7181   21.7638 N   0  0  0  0  0  0  0  0  0  0  0  0
  -26.2682  -12.8693   20.4481 N   0  0  0  0  0  0  0  0  0  0  0  0
  -26.6832  -28.5877   21.3481 N   0  0  0  0  0  0  0  0  0  0  0  0
  -29.9997  -13.6922   20.3607 N   0  0  0  0  0  0  0  0  0  0  0  0
  -25.1160  -14.7090   19.5002 N   0  0  0  0  0  0  0  0  0  0  0  0
  -21.9106  -12.5764   21.8610 N   0  0  0  0  0  0  0  0  0  0  0  0
  -23.1495  -28.6336   21.8390 N   0  0  0  0  0  0  0  0  0  0  0  0
  -29.2089  -30.4987   20.1536 N   0  0  0  0  0  0  0  0  0  0  0  0
  -30.2177  -15.8344   21.3389 N   0  0  0  0  0  0  0  0  0  0  0  0
  -32.3339  -30.2629   21.9554 N   0  3  0  0  0  0  0  0  0  0  0  0
  -22.3340  -14.3648   20.4894 O   0  0  0  0  0  0  0  0  0  0  0  0
  -24.5257  -27.2926   20.5236 O   0  0  0  0  0  0  0  0  0  0  0  0
  -26.5049  -30.8887   21.0166 O   0  0  0  0  0  0  0  0  0  0  0  0
  -30.6568  -28.6958   20.3282 O   0  0  0  0  0  0  0  0  0  0  0  0
  -31.8763  -15.0036   19.9914 O   0  0  0  0  0  0  0  0  0  0  0  0
  -22.5762   -7.9397   24.8765 O   0  0  0  0  0  0  0  0  0  0  0  0
  -28.1616  -22.6738   22.2932 O   0  0  0  0  0  0  0  0  0  1  0  0
  -17.7086   -5.8053   23.4086 F   0  0  0  0  0  0  0  0  0  0  0  0
  -22.3040   -5.2323   24.3883 F   0  0  0  0  0  0  0  0  0  0  0  0
  1  2  1  0  0  0  0
  1  5  2  0  0  0  0
  2  6  2  0  0  0  0
  3  8  2  0  0  0  0
  3 15  1  0  0  0  0
  4  9  1  0  0  0  0
  4 15  2  0  0  0  0
  5 17  1  0  0  0  0
  6 19  1  0  0  0  0
  7 10  2  0  0  0  0
  7 18  1  0  0  0  0
  8 22  1  0  0  0  0
  9 22  2  0  0  0  0
 10 23  1  0  0  0  0
 11 12  2  0  0  0  0
 11 24  1  0  0  0  0
 12 25  1  0  0  0  0
 13 20  1  0  0  0  0
 13 23  2  0  0  0  0
 14 25  2  0  0  0  0
 14 26  1  0  0  0  0
 15 27  1  0  0  0  0
 16 27  1  0  0  0  0
 16 30  2  0  0  0  0
 16 32  1  0  0  0  0
 17 19  2  0  0  0  0
 17 37  1  0  0  0  0
 18 20  2  0  0  0  0
 18 38  1  0  0  0  0
 19 48  1  0  0  0  0
 20 39  1  0  0  0  0
 21 28  2  0  0  0  0
 21 29  1  0  0  0  0
 21 49  1  0  0  0  0
 22 79  1  0  0  0  0
 23 80  1  0  0  0  0
 24 26  2  0  0  0  0
 24 79  1  0  0  0  0
 25 81  1  0  0  0  0
 26 82  1  0  0  0  0
 27 62  2  0  0  0  0
 28 40  1  0  0  0  0
 28 63  1  0  0  0  0
 29 52  1  0  0  0  0
 29 64  2  0  0  0  0
 30 65  1  0  0  0  0
 30 68  1  0  0  0  0
 31 58  1  0  0  0  0
 31 63  2  0  0  0  0
 31 64  1  0  0  0  0
 32 69  1  0  0  0  0
 32 74  2  0  0  0  0
 33 50  1  0  0  0  0
 33 70  1  0  0  0  0
 33 75  2  0  0  0  0
 34 59  1  0  0  0  0
 34 66  1  0  0  0  0
 34 76  2  0  0  0  0
 35 60  1  0  0  0  0
 35 71  1  0  0  0  0
 35 77  2  0  0  0  0
 36 67  1  0  0  0  0
 36 72  1  0  0  0  0
 36 78  2  0  0  0  0
 37 41  1  0  0  0  0
 38 50  1  0  0  0  0
 39 66  1  0  0  0  0
 40 42  1  0  0  0  0
 41 44  1  0  0  0  0
 42 49  1  0  0  0  0
 43 45  1  0  0  0  0
 43 46  1  0  0  0  0
 44 48  1  0  0  0  0
 45 51  1  0  0  0  0
 46 67  1  0  0  0  0
 47 51  1  0  0  0  0
 47 67  1  0  0  0  0
 48 70  1  0  0  0  0
 49 72  1  0  0  0  0
 50 66  1  0  0  0  0
 51 65  1  0  0  0  0
 53 60  1  0  0  0  0
 54 61  1  0  0  0  0
 55 61  1  0  0  0  0
 56 61  1  0  0  0  0
 57 73  1  0  0  0  0
 58 80  1  0  0  0  0
 59 61  1  0  0  0  0
 59 71  1  0  0  0  0
 60 73  1  0  0  0  0
 62 65  1  0  0  0  0
M  CHG  1  73   1
M  ISO  4  36 100  58 101  72 100  80 101
M  END
> <Batch ID>
0179

> <Smiles>
CNC(C)C(=O)NC(C(=O)N1Cc2cc([101O:1][101CH2:1]c3nc(C)c4c(n3)CCC4[100NH:0][100C:0](=O)N3CCCC(n4nc(-c5ccc(Oc6ccc(F)cc6F)cc5)c(C(N)=O)c4N)C3)ccc2CC1C(=O)NC1CCCc2ccccc21)C(C)(C)C

> <Shape>
0.260

> <Color>
0.124

> <Negative vol penalty>
0.000

$$$$

  -OEChem-04052322573D

 81 89  0     1  0  0  0  0  0999 V2000
  -23.4343  -34.3605   17.5048 C   0  0  0  0  0  0  0  0  0  0  0  0
  -23.8399  -33.1669   16.9165 C   0  0  0  0  0  0  0  0  0  0  0  0
  -23.2826   -9.5943   20.1040 C   0  0  0  0  0  0  0  0  0  0  0  0
  -23.8802   -9.9456   22.4184 C   0  0  0  0  0  0  0  0  0  0  0  0
  -23.8989  -34.7041   18.7737 C   0  0  0  0  0  0  0  0  0  0  0  0
  -24.7113  -32.3166   17.5963 C   0  0  0  0  0  0  0  0  0  0  0  0
  -26.2050  -25.3607   18.4329 C   0  0  0  0  0  0  0  0  0  0  0  0
  -22.6186   -8.4186   20.4539 C   0  0  0  0  0  0  0  0  0  0  0  0
  -23.2162   -8.7699   22.7683 C   0  0  0  0  0  0  0  0  0  0  0  0
  -27.2788  -24.4740   18.3658 C   0  0  0  0  0  0  0  0  0  0  0  0
  -20.0290   -7.7684   23.2780 C   0  0  0  0  0  0  0  0  0  0  0  0
  -19.1992   -7.8036   24.3986 C   0  0  0  0  0  0  0  0  0  0  0  0
  -27.9541  -25.1334   20.5858 C   0  0  0  0  0  0  0  0  0  0  0  0
  -20.5391   -6.0868   25.4447 C   0  0  0  0  0  0  0  0  0  0  0  0
  -23.9134  -10.3578   21.0862 C   0  0  0  0  0  0  0  0  0  0  0  0
  -24.0581  -12.8702   20.6684 C   0  0  0  0  0  0  0  0  0  0  0  0
  -24.7688  -33.8531   19.4734 C   0  0  0  0  0  0  0  0  0  0  0  0
  -26.0036  -26.1497   19.5745 C   0  0  0  0  0  0  0  0  0  0  0  0
  -25.1891  -32.6498   18.8751 C   0  0  0  0  0  0  0  0  0  0  0  0
  -26.8755  -26.0275   20.6659 C   0  0  0  0  0  0  0  0  0  0  0  0
  -22.5854   -8.0064   21.7860 C   0  0  0  0  0  0  0  0  0  0  0  0
  -28.1552  -24.3624   19.4413 C   0  0  0  0  0  0  0  0  0  0  0  0
  -21.1139   -6.8924   23.2407 C   0  0  0  0  0  0  0  0  0  0  0  0
  -19.4542   -6.9628   25.4819 C   0  0  0  0  0  0  0  0  0  0  0  0
  -21.3690   -6.0517   24.3241 C   0  0  0  0  0  0  0  0  0  0  0  0
  -24.5999  -11.5721   20.7253 C   0  0  0  0  0  0  0  0  0  0  0  0
  -25.1087  -13.6639   20.2775 C   0  0  0  0  0  0  0  0  0  0  0  0
  -29.9026  -19.5738   22.5898 C   0  0  0  0  0  0  0  0  0  0  0  0
  -22.7245  -13.3185   20.9442 C   0  0  0  0  0  0  0  0  0  0  0  0
  -25.9578  -29.2730   20.1632 C   0  0  0  0  0  0  0  0  0  0  0  0
  -25.0246  -28.3077   23.1161 C   0  0  0  0  0  0  0  0  0  0  0  0
  -24.9685  -25.8420   25.4749 C   0  0  0  0  0  0  0  0  0  0  0  0
  -30.4666  -15.1792   20.6542 C   0  0  0  0  0  0  0  0  0  0  0  0
  -25.2818  -34.2895   20.8228 C   0  0  0  0  0  0  0  0  0  0  0  0
  -24.8251  -27.0819   19.6417 C   0  0  0  0  0  0  0  0  0  0  0  0
  -26.6915  -26.8372   21.9224 C   0  0  0  0  0  0  0  0  0  0  0  0
  -25.9069  -33.1563   21.6324 C   0  0  0  0  0  0  0  0  0  0  0  0
  -29.6914  -12.4325   18.5256 C   0  0  0  0  0  0  0  0  0  0  0  0
  -26.8584  -32.3408   20.7628 C   0  0  0  0  0  0  0  0  0  0  0  0
  -28.2560  -12.0673   18.9078 C   0  0  0  0  0  0  0  0  0  0  0  0
  -29.9640  -18.4680   20.5006 C   0  0  0  0  0  0  0  0  0  0  0  0
  -30.5031  -12.8771   19.7402 C   0  0  0  0  0  0  0  0  0  0  0  0
  -28.4580  -13.5993   20.9105 C   0  0  0  0  0  0  0  0  0  0  0  0
  -26.1138  -31.6895   19.5912 C   0  0  1  0  0  0  0  0  0  0  0  0
  -30.2938  -19.8094   21.1531 C   0  0  1  0  0  0  0  0  0  0  0  0
  -29.6641  -18.1087   22.8551 C   0  0  1  0  0  0  0  0  0  0  0  0
  -25.0131  -28.2110   20.6503 C   0  0  1  0  0  0  0  0  0  0  0  0
  -27.5842  -13.1982   19.7097 C   0  0  2  0  0  0  0  0  0  0  0  0
  -30.2740  -17.4609   21.6113 C   0  0  1  0  0  0  0  0  0  0  0  0
  -24.1647  -25.3610   27.8030 C   0  0  0  0  0  0  0  0  0  0  0  0
  -27.3120  -29.9796   24.2486 C   0  0  0  0  0  0  0  0  0  0  0  0
  -27.0612  -28.7345   26.4061 C   0  0  0  0  0  0  0  0  0  0  0  0
  -25.1763  -30.1213   25.5421 C   0  0  0  0  0  0  0  0  0  0  0  0
  -23.2326  -23.6331   24.5439 C   0  0  0  0  0  0  0  0  0  0  0  0
  -29.9128  -21.2143   19.1234 C   0  0  0  0  0  0  0  0  0  0  0  0
  -29.0327  -22.3248   18.5845 C   0  0  0  0  0  0  0  0  0  1  0  0
  -25.7369  -27.9391   24.3951 C   0  0  1  0  0  0  0  0  0  0  0  0
  -23.8385  -25.2818   26.3197 C   0  0  2  0  0  0  0  0  0  0  0  0
  -26.3265  -29.1796   25.1237 C   0  0  0  0  0  0  0  0  0  0  0  0
  -25.8941  -11.5387   20.3968 N   0  0  0  0  0  0  0  0  0  0  0  0
  -26.1743  -12.8256   20.1295 N   0  0  0  0  0  0  0  0  0  0  0  0
  -25.5280  -27.7392   21.9374 N   0  0  0  0  0  0  0  0  0  0  0  0
  -29.8120  -13.9524   20.4557 N   0  0  0  0  0  0  0  0  0  0  0  0
  -25.2157  -14.9901   20.0493 N   0  0  0  0  0  0  0  0  0  0  0  0
  -21.7683  -12.3708   21.3342 N   0  0  0  0  0  0  0  0  0  0  0  0
  -25.3836  -30.5240   20.0416 N   0  0  0  0  0  0  0  0  0  0  0  0
  -24.7797  -27.1779   25.1906 N   0  0  0  0  0  0  0  0  0  0  0  0
  -29.7382  -16.1464   21.3359 N   0  0  0  0  0  0  0  0  0  0  0  0
  -30.3400  -17.6404   24.0797 N   0  3  0  0  0  0  0  0  0  0  0  0
  -29.5166  -20.9098   20.5214 N   0  3  0  0  0  0  0  0  0  0  0  0
  -23.5878  -23.8551   25.9692 N   0  3  0  0  0  0  0  0  0  0  0  0
  -29.7915  -20.4567   23.4303 O   0  0  0  0  0  0  0  0  0  0  0  0
  -22.3865  -14.5212   20.8319 O   0  0  0  0  0  0  0  0  0  0  0  0
  -27.1219  -28.9795   19.9172 O   0  0  0  0  0  0  0  0  0  0  0  0
  -24.0529  -29.0661   23.1619 O   0  0  0  0  0  0  0  0  0  0  0  0
  -25.9249  -25.1633   25.1073 O   0  0  0  0  0  0  0  0  0  0  0  0
  -31.6132  -15.3983   20.2489 O   0  0  0  0  0  0  0  0  0  0  0  0
  -21.9374   -6.8593   22.1279 O   0  0  0  0  0  0  0  0  0  0  0  0
  -29.2045  -23.4981   19.3782 O   0  0  0  0  0  0  0  0  0  1  0  0
  -18.6581   -6.9977   26.5586 F   0  0  0  0  0  0  0  0  0  0  0  0
  -22.4104   -5.2088   24.2946 F   0  0  0  0  0  0  0  0  0  0  0  0
  1  2  1  0  0  0  0
  1  5  2  0  0  0  0
  2  6  2  0  0  0  0
  3  8  2  0  0  0  0
  3 15  1  0  0  0  0
  4  9  1  0  0  0  0
  4 15  2  0  0  0  0
  5 17  1  0  0  0  0
  6 19  1  0  0  0  0
  7 10  2  0  0  0  0
  7 18  1  0  0  0  0
  8 21  1  0  0  0  0
  9 21  2  0  0  0  0
 10 22  1  0  0  0  0
 11 12  2  0  0  0  0
 11 23  1  0  0  0  0
 12 24  1  0  0  0  0
 13 20  1  0  0  0  0
 13 22  2  0  0  0  0
 14 24  2  0  0  0  0
 14 25  1  0  0  0  0
 15 26  1  0  0  0  0
 16 26  1  0  0  0  0
 16 27  2  0  0  0  0
 16 29  1  0  0  0  0
 17 19  2  0  0  0  0
 17 34  1  0  0  0  0
 18 20  2  0  0  0  0
 18 35  1  0  0  0  0
 19 44  1  0  0  0  0
 20 36  1  0  0  0  0
 21 78  1  0  0  0  0
 22 79  1  0  0  0  0
 23 25  2  0  0  0  0
 23 78  1  0  0  0  0
 24 80  1  0  0  0  0
 25 81  1  0  0  0  0
 26 60  2  0  0  0  0
 27 61  1  0  0  0  0
 27 64  1  0  0  0  0
 28 45  1  0  0  0  0
 28 46  1  0  0  0  0
 28 72  2  0  0  0  0
 29 65  1  0  0  0  0
 29 73  2  0  0  0  0
 30 47  1  0  0  0  0
 30 66  1  0  0  0  0
 30 74  2  0  0  0  0
 31 57  1  0  0  0  0
 31 62  1  0  0  0  0
 31 75  2  0  0  0  0
 32 58  1  0  0  0  0
 32 67  1  0  0  0  0
 32 76  2  0  0  0  0
 33 63  1  0  0  0  0
 33 68  1  0  0  0  0
 33 77  2  0  0  0  0
 34 37  1  0  0  0  0
 35 47  1  0  0  0  0
 36 62  1  0  0  0  0
 37 39  1  0  0  0  0
 38 40  1  0  0  0  0
 38 42  1  0  0  0  0
 39 44  1  0  0  0  0
 40 48  1  0  0  0  0
 41 45  1  0  0  0  0
 41 49  1  0  0  0  0
 42 63  1  0  0  0  0
 43 48  1  0  0  0  0
 43 63  1  0  0  0  0
 44 66  1  0  0  0  0
 45 70  1  0  0  0  0
 46 49  1  0  0  0  0
 46 69  1  0  0  0  0
 47 62  1  0  0  0  0
 48 61  1  0  0  0  0
 49 68  1  0  0  0  0
 50 58  1  0  0  0  0
 51 59  1  0  0  0  0
 52 59  1  0  0  0  0
 53 59  1  0  0  0  0
 54 71  1  0  0  0  0
 55 56  1  0  0  0  0
 55 70  1  0  0  0  0
 56 79  1  0  0  0  0
 57 59  1  0  0  0  0
 57 67  1  0  0  0  0
 58 71  1  0  0  0  0
 60 61  1  0  0  0  0
M  CHG  3  69   1  70   1  71   1
M  ISO  4  33 100  56 101  68 100  79 101
M  END
> <Batch ID>
0179

> <Smiles>
CNC(C)C(=O)NC(C(=O)N1Cc2cc([101O:1][101CH2:1]CNC3CC([100NH:0][100C:0](=O)N4CCCC(n5nc(-c6ccc(Oc7ccc(F)cc7F)cc6)c(C(N)=O)c5N)C4)C(N)C3=O)ccc2CC1C(=O)NC1CCCc2ccccc21)C(C)(C)C

> <Shape>
0.286

> <Color>
0.187

> <Negative vol penalty>
0.000

$$$$

  -OEChem-04052322573D

 82 91  0     1  0  0  0  0  0999 V2000
  -29.0885  -35.1481   23.9225 C   0  0  0  0  0  0  0  0  0  0  0  0
  -29.7836  -34.1693   23.2195 C   0  0  0  0  0  0  0  0  0  0  0  0
  -24.4066   -8.9583   19.9883 C   0  0  0  0  0  0  0  0  0  0  0  0
  -24.2369   -9.4704   22.3433 C   0  0  0  0  0  0  0  0  0  0  0  0
  -27.8902  -34.8286   24.5596 C   0  0  0  0  0  0  0  0  0  0  0  0
  -29.2814  -32.8702   23.1541 C   0  0  0  0  0  0  0  0  0  0  0  0
  -28.9891  -27.2117   18.7709 C   0  0  0  0  0  0  0  0  0  0  0  0
  -24.2070   -7.6064   20.2679 C   0  0  0  0  0  0  0  0  0  0  0  0
  -24.0372   -8.1185   22.6229 C   0  0  0  0  0  0  0  0  0  0  0  0
  -29.2565  -25.8435   18.7591 C   0  0  0  0  0  0  0  0  0  0  0  0
  -23.1232   -4.8479   23.9213 C   0  0  0  0  0  0  0  0  0  0  0  0
  -22.1080   -4.5133   24.8173 C   0  0  0  0  0  0  0  0  0  0  0  0
  -29.7413  -20.9691   17.5807 C   0  0  0  0  0  0  0  0  0  0  0  0
  -27.1367  -25.4260   19.8320 C   0  0  0  0  0  0  0  0  0  0  0  0
  -30.1944  -21.0584   19.9501 C   0  0  0  0  0  0  0  0  0  0  0  0
  -20.4827   -5.5558   23.3652 C   0  0  0  0  0  0  0  0  0  0  0  0
  -24.4216   -9.8903   21.0260 C   0  0  0  0  0  0  0  0  0  0  0  0
  -23.6426  -12.2519   20.4572 C   0  0  0  0  0  0  0  0  0  0  0  0
  -27.3681  -33.5272   24.4939 C   0  0  0  0  0  0  0  0  0  0  0  0
  -27.7963  -27.6991   19.3241 C   0  0  0  0  0  0  0  0  0  0  0  0
  -28.0757  -32.5326   23.7921 C   0  0  0  0  0  0  0  0  0  0  0  0
  -29.8343  -19.5705   17.6031 C   0  0  0  0  0  0  0  0  0  0  0  0
  -26.8553  -26.8007   19.8472 C   0  0  0  0  0  0  0  0  0  0  0  0
  -30.0870  -18.9111   18.8209 C   0  0  0  0  0  0  0  0  0  0  0  0
  -29.9235  -21.7087   18.7489 C   0  0  0  0  0  0  0  0  0  0  0  0
  -30.2774  -19.6669   19.9868 C   0  0  0  0  0  0  0  0  0  0  0  0
  -24.0223   -7.1865   21.5852 C   0  0  0  0  0  0  0  0  0  0  0  0
  -28.3316  -24.9506   19.2923 C   0  0  0  0  0  0  0  0  0  0  0  0
  -22.8183   -5.5366   22.7473 C   0  0  0  0  0  0  0  0  0  0  0  0
  -20.7877   -4.8672   24.5393 C   0  0  0  0  0  0  0  0  0  0  0  0
  -21.4980   -5.8905   22.4692 C   0  0  0  0  0  0  0  0  0  0  0  0
  -24.6284  -11.2868   20.7379 C   0  0  0  0  0  0  0  0  0  0  0  0
  -24.3470  -13.4137   20.2561 C   0  0  0  0  0  0  0  0  0  0  0  0
  -22.2177  -12.1108   20.3847 C   0  0  0  0  0  0  0  0  0  0  0  0
  -27.0694  -29.6250   21.7461 C   0  0  0  0  0  0  0  0  0  0  0  0
  -24.0554  -29.2973   20.5926 C   0  0  0  0  0  0  0  0  0  0  0  0
  -21.8268  -27.4390   18.7962 C   0  0  0  0  0  0  0  0  0  0  0  0
  -28.7142  -15.7746   17.6288 C   0  0  0  0  0  0  0  0  0  0  0  0
  -26.0933  -33.2180   25.2383 C   0  0  0  0  0  0  0  0  0  0  0  0
  -27.5109  -29.1757   19.3049 C   0  0  0  0  0  0  0  0  0  0  0  0
  -29.6095  -18.7896   16.3323 C   0  0  0  0  0  0  0  0  0  0  0  0
  -25.5507  -27.2714   20.4344 C   0  0  0  0  0  0  0  0  0  0  0  0
  -30.1962  -17.4042   18.8945 C   0  0  0  0  0  0  0  0  0  0  0  0
  -25.4383  -31.9084   24.8067 C   0  0  0  0  0  0  0  0  0  0  0  0
  -29.1939  -14.5314   21.1201 C   0  0  0  0  0  0  0  0  0  0  0  0
  -26.4767  -30.7942   24.7233 C   0  0  0  0  0  0  0  0  0  0  0  0
  -27.9890  -13.6033   21.2678 C   0  0  0  0  0  0  0  0  0  0  0  0
  -30.1699  -17.3744   16.4275 C   0  0  0  0  0  0  0  0  0  0  0  0
  -29.6509  -14.6154   19.6687 C   0  0  0  0  0  0  0  0  0  0  0  0
  -27.3692  -14.1097   18.8606 C   0  0  0  0  0  0  0  0  0  0  0  0
  -27.5505  -31.1180   23.6775 C   0  0  1  0  0  0  0  0  0  0  0  0
  -26.4931  -29.6013   20.3586 C   0  0  1  0  0  0  0  0  0  0  0  0
  -26.8585  -14.0113   20.3078 C   0  0  1  0  0  0  0  0  0  0  0  0
  -30.5783  -19.0149   21.2988 C   0  0  0  0  0  0  0  0  0  0  0  0
  -19.4279  -27.4095   18.0603 C   0  0  0  0  0  0  0  0  0  0  0  0
  -23.2075  -28.4513   23.3988 C   0  0  0  0  0  0  0  0  0  0  0  0
  -21.0942  -27.5424   22.4109 C   0  0  0  0  0  0  0  0  0  0  0  0
  -21.6018  -29.9787   22.2399 C   0  0  0  0  0  0  0  0  0  0  0  0
  -22.5827  -27.4965   15.9353 C   0  0  0  0  0  0  0  0  0  0  0  0
  -29.8287  -23.1966   18.7109 C   0  0  0  0  0  0  0  0  0  1  0  0
  -22.9160  -28.3374   20.8360 C   0  0  1  0  0  0  0  0  0  0  0  0
  -20.8470  -27.8220   17.7018 C   0  0  2  0  0  0  0  0  0  0  0  0
  -22.2302  -28.5684   22.2122 C   0  0  0  0  0  0  0  0  0  0  0  0
  -25.8648  -11.7917   20.7177 N   0  0  0  0  0  0  0  0  0  0  0  0
  -25.6607  -13.0866   20.4218 N   0  0  0  0  0  0  0  0  0  0  0  0
  -25.3205  -28.7251   20.3983 N   0  0  0  0  0  0  0  0  0  0  0  0
  -29.7317  -16.7401   17.6681 N   0  0  0  0  0  0  0  0  0  0  0  0
  -28.5450  -14.9785   18.7730 N   0  0  0  0  0  0  0  0  0  0  0  0
  -23.9647  -14.6730   19.9554 N   0  0  0  0  0  0  0  0  0  0  0  0
  -21.6587  -10.8469   20.6185 N   0  0  0  0  0  0  0  0  0  0  0  0
  -27.0473  -30.8709   22.3433 N   0  0  0  0  0  0  0  0  0  0  0  0
  -22.0199  -28.4690   19.6923 N   0  0  0  0  0  0  0  0  0  0  0  0
  -21.2188  -27.1608   16.4190 N   0  3  0  0  0  0  0  0  0  0  0  0
  -21.4636  -13.0732   20.1043 O   0  0  0  0  0  0  0  0  0  0  0  0
  -27.5008  -28.5893   22.2389 O   0  0  0  0  0  0  0  0  0  0  0  0
  -23.8299  -30.5098   20.5683 O   0  0  0  0  0  0  0  0  0  0  0  0
  -22.3642  -26.3351   18.8527 O   0  0  0  0  0  0  0  0  0  0  0  0
  -27.9891  -15.6393   16.6351 O   0  0  0  0  0  0  0  0  0  0  0  0
  -23.8273   -5.8675   21.8583 O   0  0  0  0  0  0  0  0  0  0  0  0
  -28.5922  -23.6054   19.2826 O   0  0  0  0  0  0  0  0  0  1  0  0
  -19.8127   -4.5444   25.3990 F   0  0  0  0  0  0  0  0  0  0  0  0
  -21.1988   -6.5512   21.3423 F   0  0  0  0  0  0  0  0  0  0  0  0
  1  2  1  0  0  0  0
  1  5  2  0  0  0  0
  2  6  2  0  0  0  0
  3  8  2  0  0  0  0
  3 17  1  0  0  0  0
  4  9  1  0  0  0  0
  4 17  2  0  0  0  0
  5 19  1  0  0  0  0
  6 21  1  0  0  0  0
  7 10  2  0  0  0  0
  7 20  1  0  0  0  0
  8 27  1  0  0  0  0
  9 27  2  0  0  0  0
 10 28  1  0  0  0  0
 11 12  2  0  0  0  0
 11 29  1  0  0  0  0
 12 30  1  0  0  0  0
 13 22  1  0  0  0  0
 13 25  2  0  0  0  0
 14 23  1  0  0  0  0
 14 28  2  0  0  0  0
 15 25  1  0  0  0  0
 15 26  2  0  0  0  0
 16 30  2  0  0  0  0
 16 31  1  0  0  0  0
 17 32  1  0  0  0  0
 18 32  1  0  0  0  0
 18 33  2  0  0  0  0
 18 34  1  0  0  0  0
 19 21  2  0  0  0  0
 19 39  1  0  0  0  0
 20 23  2  0  0  0  0
 20 40  1  0  0  0  0
 21 51  1  0  0  0  0
 22 24  2  0  0  0  0
 22 41  1  0  0  0  0
 23 42  1  0  0  0  0
 24 26  1  0  0  0  0
 24 43  1  0  0  0  0
 25 60  1  0  0  0  0
 26 54  1  0  0  0  0
 27 79  1  0  0  0  0
 28 80  1  0  0  0  0
 29 31  2  0  0  0  0
 29 79  1  0  0  0  0
 30 81  1  0  0  0  0
 31 82  1  0  0  0  0
 32 64  2  0  0  0  0
 33 65  1  0  0  0  0
 33 69  1  0  0  0  0
 34 70  1  0  0  0  0
 34 74  2  0  0  0  0
 35 52  1  0  0  0  0
 35 71  1  0  0  0  0
 35 75  2  0  0  0  0
 36 61  1  0  0  0  0
 36 66  1  0  0  0  0
 36 76  2  0  0  0  0
 37 62  1  0  0  0  0
 37 72  1  0  0  0  0
 37 77  2  0  0  0  0
 38 67  1  0  0  0  0
 38 68  1  0  0  0  0
 38 78  2  0  0  0  0
 39 44  1  0  0  0  0
 40 52  1  0  0  0  0
 41 48  1  0  0  0  0
 42 66  1  0  0  0  0
 43 67  1  0  0  0  0
 44 46  1  0  0  0  0
 45 47  1  0  0  0  0
 45 49  1  0  0  0  0
 46 51  1  0  0  0  0
 47 53  1  0  0  0  0
 48 67  1  0  0  0  0
 49 68  1  0  0  0  0
 50 53  1  0  0  0  0
 50 68  1  0  0  0  0
 51 71  1  0  0  0  0
 52 66  1  0  0  0  0
 53 65  1  0  0  0  0
 55 62  1  0  0  0  0
 56 63  1  0  0  0  0
 57 63  1  0  0  0  0
 58 63  1  0  0  0  0
 59 73  1  0  0  0  0
 60 80  1  0  0  0  0
 61 63  1  0  0  0  0
 61 72  1  0  0  0  0
 62 73  1  0  0  0  0
 64 65  1  0  0  0  0
M  CHG  1  73   1
M  ISO  4  38 100  60 101  67 100  80 101
M  END
> <Batch ID>
0179

> <Smiles>
CNC(C)C(=O)NC(C(=O)N1Cc2cc([101O:1][101CH2:1]c3cc(C)c4c(c3)CC[100N:0]([100C:0](=O)N3CCCC(n5nc(-c6ccc(Oc7ccc(F)cc7F)cc6)c(C(N)=O)c5N)C3)C4)ccc2CC1C(=O)NC1CCCc2ccccc21)C(C)(C)C

> <Shape>
0.312

> <Color>
0.089

> <Negative vol penalty>
0.000

$$$$

  -OEChem-04052322573D

 84 93  0     1  0  0  0  0  0999 V2000
  -31.9771  -14.8859   21.8562 C   0  0  0  0  0  0  0  0  0  0  0  0
  -31.0218  -15.8798   22.0432 C   0  0  0  0  0  0  0  0  0  0  0  0
  -26.8571  -28.1861   20.8624 C   0  0  0  0  0  0  0  0  0  0  0  0
  -25.1157  -27.9472   19.2048 C   0  0  0  0  0  0  0  0  0  0  0  0
  -31.6645  -13.7520   21.1075 C   0  0  0  0  0  0  0  0  0  0  0  0
  -29.7535  -15.7409   21.4806 C   0  0  0  0  0  0  0  0  0  0  0  0
  -24.4428  -17.6535   23.8561 C   0  0  0  0  0  0  0  0  0  0  0  0
  -27.4457  -27.0035   20.4146 C   0  0  0  0  0  0  0  0  0  0  0  0
  -25.7043  -26.7646   18.7569 C   0  0  0  0  0  0  0  0  0  0  0  0
  -23.6660  -18.7878   23.6245 C   0  0  0  0  0  0  0  0  0  0  0  0
  -26.9422  -23.6804   20.7716 C   0  0  0  0  0  0  0  0  0  0  0  0
  -27.3636  -22.7624   21.7335 C   0  0  0  0  0  0  0  0  0  0  0  0
  -22.3110  -17.5353   22.0707 C   0  0  0  0  0  0  0  0  0  0  0  0
  -29.6277  -22.9377   20.9087 C   0  0  0  0  0  0  0  0  0  0  0  0
  -25.6920  -28.6580   20.2576 C   0  0  0  0  0  0  0  0  0  0  0  0
  -25.3411  -31.1847   20.2609 C   0  0  0  0  0  0  0  0  0  0  0  0
  -30.3886  -13.5947   20.5435 C   0  0  0  0  0  0  0  0  0  0  0  0
  -24.1657  -16.4524   23.1875 C   0  0  0  0  0  0  0  0  0  0  0  0
  -29.4239  -14.6045   20.7225 C   0  0  0  0  0  0  0  0  0  0  0  0
  -23.0842  -16.3864   22.2975 C   0  0  0  0  0  0  0  0  0  0  0  0
  -26.8693  -26.2928   19.3618 C   0  0  0  0  0  0  0  0  0  0  0  0
  -22.6017  -18.7297   22.7295 C   0  0  0  0  0  0  0  0  0  0  0  0
  -27.8634  -24.2270   19.8782 C   0  0  0  0  0  0  0  0  0  0  0  0
  -28.7064  -22.3911   21.8020 C   0  0  0  0  0  0  0  0  0  0  0  0
  -29.2062  -23.8557   19.9468 C   0  0  0  0  0  0  0  0  0  0  0  0
  -25.0832  -29.8792   20.7202 C   0  0  0  0  0  0  0  0  0  0  0  0
  -24.5144  -31.9829   21.0131 C   0  0  0  0  0  0  0  0  0  0  0  0
  -26.2468  -31.6355   19.2450 C   0  0  0  0  0  0  0  0  0  0  0  0
  -25.7534  -14.6033   21.1469 C   0  0  0  0  0  0  0  0  0  0  0  0
  -23.2050  -12.6373   21.5504 C   0  0  0  0  0  0  0  0  0  0  0  0
  -19.9166  -12.2931   22.3962 C   0  0  0  0  0  0  0  0  0  0  0  0
  -21.8664  -28.0374   23.8204 C   0  0  0  0  0  0  0  0  0  0  0  0
  -30.1123  -12.3737   19.7024 C   0  0  0  0  0  0  0  0  0  0  0  0
  -24.9966  -15.2305   23.4685 C   0  0  0  0  0  0  0  0  0  0  0  0
  -22.7326  -15.1156   21.5696 C   0  0  0  0  0  0  0  0  0  0  0  0
  -28.6261  -12.1287   19.4542 C   0  0  0  0  0  0  0  0  0  0  0  0
  -23.8184  -30.7482   25.0887 C   0  0  0  0  0  0  0  0  0  0  0  0
  -18.4880  -27.1789   22.8209 C   0  0  0  0  0  0  0  0  0  0  0  0
  -27.9335  -13.4233   19.0405 C   0  0  0  0  0  0  0  0  0  0  0  0
  -23.4482  -31.9397   24.2124 C   0  0  0  0  0  0  0  0  0  0  0  0
  -19.2449  -26.1116   22.0430 C   0  0  0  0  0  0  0  0  0  0  0  0
  -22.6090  -29.8547   25.3171 C   0  0  0  0  0  0  0  0  0  0  0  0
  -19.5040  -28.3069   22.9119 C   0  0  0  0  0  0  0  0  0  0  0  0
  -21.6706  -30.4733   23.0983 C   0  0  0  0  0  0  0  0  0  0  0  0
  -22.1188  -24.2594   19.7759 C   0  0  0  0  0  0  0  0  0  0  0  0
  -22.0682  -23.5418   22.0837 C   0  0  0  0  0  0  0  0  0  0  0  0
  -28.0292  -14.4787   20.1489 C   0  0  1  0  0  0  0  0  0  0  0  0
  -24.9420  -14.1995   22.3454 C   0  0  1  0  0  0  0  0  0  0  0  0
  -22.7925  -31.5163   22.8883 C   0  0  2  0  0  0  0  0  0  0  0  0
  -20.6730  -26.2298   22.5825 C   0  0  1  0  0  0  0  0  0  0  0  0
  -21.8860  -22.8360   19.2599 C   0  0  2  0  0  0  0  0  0  0  0  0
  -21.8084  -22.0884   21.6780 C   0  0  2  0  0  0  0  0  0  0  0  0
  -20.4345  -22.5398   18.8964 C   0  0  0  0  0  0  0  0  0  0  0  0
  -18.1035  -10.5696   22.5940 C   0  0  0  0  0  0  0  0  0  0  0  0
  -22.9077  -12.6051   18.5139 C   0  0  0  0  0  0  0  0  0  0  0  0
  -20.5962  -11.6931   18.8196 C   0  0  0  0  0  0  0  0  0  0  0  0
  -22.5659  -10.3879   19.6191 C   0  0  0  0  0  0  0  0  0  0  0  0
  -19.5908  -12.8002   25.2937 C   0  0  0  0  0  0  0  0  0  0  0  0
  -21.7110  -25.8603   21.5307 C   0  0  0  0  0  0  0  0  0  0  0  0
  -22.4764  -21.1024   22.6270 C   0  0  0  0  0  0  0  0  0  1  0  0
  -21.8666  -12.4692   20.8726 C   0  0  1  0  0  0  0  0  0  0  0  0
  -19.2111  -11.3170   23.3202 C   0  0  2  0  0  0  0  0  0  0  0  0
  -21.9917  -11.8134   19.4684 C   0  0  0  0  0  0  0  0  0  0  0  0
  -24.1647  -29.8456   21.6893 N   0  0  0  0  0  0  0  0  0  0  0  0
  -23.8382  -31.1399   21.8451 N   0  0  0  0  0  0  0  0  0  0  0  0
  -23.5785  -13.9496   21.8733 N   0  0  0  0  0  0  0  0  0  0  0  0
  -22.0097  -29.4125   24.0578 N   0  0  0  0  0  0  0  0  0  0  0  0
  -20.7929  -27.6231   23.0287 N   0  0  0  0  0  0  0  0  0  0  0  0
  -21.5107  -24.4779   21.0963 N   0  0  1  0  0  0  0  0  0  0  0  0
  -24.3072  -33.3167   21.0375 N   0  0  0  0  0  0  0  0  0  0  0  0
  -27.0214  -30.6825   18.5697 N   0  0  0  0  0  0  0  0  0  0  0  0
  -27.0733  -14.1975   21.1985 N   0  0  0  0  0  0  0  0  0  0  0  0
  -21.0267  -11.7266   21.8062 N   0  0  0  0  0  0  0  0  0  0  0  0
  -22.3612  -21.8630   20.3002 N   0  3  0  0  0  0  0  0  0  0  0  0
  -18.6102  -12.0402   24.4764 N   0  3  0  0  0  0  0  0  0  0  0  0
  -26.3777  -32.8492   18.9563 O   0  0  0  0  0  0  0  0  0  0  0  0
  -25.2210  -15.2350   20.2418 O   0  0  0  0  0  0  0  0  0  0  0  0
  -23.8904  -11.6404   21.7912 O   0  0  0  0  0  0  0  0  0  0  0  0
  -19.5204  -13.4421   22.2130 O   0  0  0  0  0  0  0  0  0  0  0  0
  -22.6564  -27.2149   24.3026 O   0  0  0  0  0  0  0  0  0  0  0  0
  -27.4436  -25.1389   18.9243 O   0  0  0  0  0  0  0  0  0  0  0  0
  -21.8357  -19.8452   22.4990 O   0  0  0  0  0  0  0  0  0  1  0  0
  -29.1113  -21.5106   22.7268 F   0  0  0  0  0  0  0  0  0  0  0  0
  -30.0961  -24.3784   19.0920 F   0  0  0  0  0  0  0  0  0  0  0  0
  1  2  1  0  0  0  0
  1  5  2  0  0  0  0
  2  6  2  0  0  0  0
  3  8  2  0  0  0  0
  3 15  1  0  0  0  0
  4  9  1  0  0  0  0
  4 15  2  0  0  0  0
  5 17  1  0  0  0  0
  6 19  1  0  0  0  0
  7 10  2  0  0  0  0
  7 18  1  0  0  0  0
  8 21  1  0  0  0  0
  9 21  2  0  0  0  0
 10 22  1  0  0  0  0
 11 12  2  0  0  0  0
 11 23  1  0  0  0  0
 12 24  1  0  0  0  0
 13 20  1  0  0  0  0
 13 22  2  0  0  0  0
 14 24  2  0  0  0  0
 14 25  1  0  0  0  0
 15 26  1  0  0  0  0
 16 26  1  0  0  0  0
 16 27  2  0  0  0  0
 16 28  1  0  0  0  0
 17 19  2  0  0  0  0
 17 33  1  0  0  0  0
 18 20  2  0  0  0  0
 18 34  1  0  0  0  0
 19 47  1  0  0  0  0
 20 35  1  0  0  0  0
 21 81  1  0  0  0  0
 22 82  1  0  0  0  0
 23 25  2  0  0  0  0
 23 81  1  0  0  0  0
 24 83  1  0  0  0  0
 25 84  1  0  0  0  0
 26 64  2  0  0  0  0
 27 65  1  0  0  0  0
 27 70  1  0  0  0  0
 28 71  1  0  0  0  0
 28 76  2  0  0  0  0
 29 48  1  0  0  0  0
 29 72  1  0  0  0  0
 29 77  2  0  0  0  0
 30 61  1  0  0  0  0
 30 66  1  0  0  0  0
 30 78  2  0  0  0  0
 31 62  1  0  0  0  0
 31 73  1  0  0  0  0
 31 79  2  0  0  0  0
 32 67  1  0  0  0  0
 32 68  1  0  0  0  0
 32 80  2  0  0  0  0
 33 36  1  0  0  0  0
 34 48  1  0  0  0  0
 35 66  1  0  0  0  0
 36 39  1  0  0  0  0
 37 40  1  0  0  0  0
 37 42  1  0  0  0  0
 38 41  1  0  0  0  0
 38 43  1  0  0  0  0
 39 47  1  0  0  0  0
 40 49  1  0  0  0  0
 41 50  1  0  0  0  0
 42 67  1  0  0  0  0
 43 68  1  0  0  0  0
 44 49  1  0  0  0  0
 44 67  1  0  0  0  0
 45 51  1  0  0  0  0
 45 69  1  0  0  0  0
 46 52  1  0  0  0  0
 46 69  1  0  0  0  0
 47 72  1  0  0  0  0
 48 66  1  0  0  0  0
 49 65  1  0  0  0  0
 50 59  1  0  0  0  0
 50 68  1  0  0  0  0
 51 53  1  0  0  0  0
 51 74  1  0  0  0  0
 52 60  1  0  0  0  0
 52 74  1  0  0  0  0
 54 62  1  0  0  0  0
 55 63  1  0  0  0  0
 56 63  1  0  0  0  0
 57 63  1  0  0  0  0
 58 75  1  0  0  0  0
 59 69  1  0  0  0  0
 60 82  1  0  0  0  0
 61 63  1  0  0  0  0
 61 73  1  0  0  0  0
 62 75  1  0  0  0  0
 64 65  1  0  0  0  0
M  CHG  2  74   1  75   1
M  ISO  4  32 100  60 101  68 100  82 101
M  END
> <Batch ID>
0179

> <Smiles>
CNC(C)C(=O)NC(C(=O)N1Cc2cc([101O:1][101CH2:1]C3CN(CC4CCC[100N:0]4[100C:0](=O)N4CCCC(n5nc(-c6ccc(Oc7ccc(F)cc7F)cc6)c(C(N)=O)c5N)C4)CC(C)N3)ccc2CC1C(=O)NC1CCCc2ccccc21)C(C)(C)C

> <Shape>
0.255

> <Color>
0.063

> <Negative vol penalty>
0.000

$$$$

  -OEChem-04052322573D

 84 93  0     1  0  0  0  0  0999 V2000
  -29.2111  -31.0189   26.6315 C   0  0  0  0  0  0  0  0  0  0  0  0
  -28.9733  -30.0132   25.7001 C   0  0  0  0  0  0  0  0  0  0  0  0
  -23.1955  -10.5706   21.5025 C   0  0  0  0  0  0  0  0  0  0  0  0
  -24.8128   -8.8098   21.8494 C   0  0  0  0  0  0  0  0  0  0  0  0
  -28.1412  -31.7147   27.1929 C   0  0  0  0  0  0  0  0  0  0  0  0
  -27.6653  -29.7019   25.3304 C   0  0  0  0  0  0  0  0  0  0  0  0
  -27.1440  -29.1352   20.3252 C   0  0  0  0  0  0  0  0  0  0  0  0
  -22.1815   -9.6186   21.3975 C   0  0  0  0  0  0  0  0  0  0  0  0
  -23.7988   -7.8577   21.7445 C   0  0  0  0  0  0  0  0  0  0  0  0
  -27.5791  -27.9317   19.7720 C   0  0  0  0  0  0  0  0  0  0  0  0
  -21.5806   -4.9829   21.9275 C   0  0  0  0  0  0  0  0  0  0  0  0
  -21.5603   -3.9501   22.8646 C   0  0  0  0  0  0  0  0  0  0  0  0
  -25.3022  -27.1363   19.7264 C   0  0  0  0  0  0  0  0  0  0  0  0
  -26.8609  -22.4153   18.9145 C   0  0  0  0  0  0  0  0  0  0  0  0
  -21.3271   -5.5685   24.6432 C   0  0  0  0  0  0  0  0  0  0  0  0
  -27.7856  -22.3504   16.3481 C   0  0  0  0  0  0  0  0  0  0  0  0
  -24.5112  -10.1662   21.7284 C   0  0  0  0  0  0  0  0  0  0  0  0
  -26.0061  -11.7901   23.0073 C   0  0  0  0  0  0  0  0  0  0  0  0
  -26.8199  -31.4183   26.8226 C   0  0  0  0  0  0  0  0  0  0  0  0
  -25.7836  -29.3444   20.5938 C   0  0  0  0  0  0  0  0  0  0  0  0
  -26.5767  -30.3935   25.8883 C   0  0  0  0  0  0  0  0  0  0  0  0
  -24.8520  -28.3443   20.2807 C   0  0  0  0  0  0  0  0  0  0  0  0
  -26.7271  -23.5433   18.1125 C   0  0  0  0  0  0  0  0  0  0  0  0
  -22.4831   -8.2622   21.5185 C   0  0  0  0  0  0  0  0  0  0  0  0
  -26.6585  -26.9309   19.4752 C   0  0  0  0  0  0  0  0  0  0  0  0
  -21.4743   -6.3086   22.3481 C   0  0  0  0  0  0  0  0  0  0  0  0
  -21.4335   -4.2428   24.2225 C   0  0  0  0  0  0  0  0  0  0  0  0
  -21.3475   -6.6014   23.7060 C   0  0  0  0  0  0  0  0  0  0  0  0
  -27.1956  -23.5184   16.8036 C   0  0  0  0  0  0  0  0  0  0  0  0
  -25.5592  -11.1492   21.8363 C   0  0  0  0  0  0  0  0  0  0  0  0
  -27.4657  -21.2967   18.3644 C   0  0  0  0  0  0  0  0  0  0  0  0
  -27.0089  -12.6258   22.5799 C   0  0  0  0  0  0  0  0  0  0  0  0
  -25.5553  -11.6432   24.3604 C   0  0  0  0  0  0  0  0  0  0  0  0
  -24.0738  -29.8955   23.2161 C   0  0  0  0  0  0  0  0  0  0  0  0
  -21.6573  -30.2861   21.0878 C   0  0  0  0  0  0  0  0  0  0  0  0
  -20.3850  -29.6136   17.9933 C   0  0  0  0  0  0  0  0  0  0  0  0
  -29.1572  -16.2437   19.0703 C   0  0  0  0  0  0  0  0  0  0  0  0
  -25.6935  -32.1654   27.4918 C   0  0  0  0  0  0  0  0  0  0  0  0
  -25.3272  -30.6584   21.1660 C   0  0  0  0  0  0  0  0  0  0  0  0
  -23.3781  -28.5271   20.5310 C   0  0  0  0  0  0  0  0  0  0  0  0
  -24.3570  -32.0292   26.7670 C   0  0  0  0  0  0  0  0  0  0  0  0
  -29.3886  -12.9241   18.1348 C   0  0  0  0  0  0  0  0  0  0  0  0
  -24.0959  -30.5724   26.3979 C   0  0  0  0  0  0  0  0  0  0  0  0
  -28.4525  -12.2065   19.1069 C   0  0  0  0  0  0  0  0  0  0  0  0
  -26.8513  -18.8524   18.6284 C   0  0  0  0  0  0  0  0  0  0  0  0
  -29.1085  -19.6815   19.4205 C   0  0  0  0  0  0  0  0  0  0  0  0
  -28.7815  -14.2406   17.6641 C   0  0  0  0  0  0  0  0  0  0  0  0
  -27.0459  -17.5870   19.4687 C   0  0  0  0  0  0  0  0  0  0  0  0
  -29.2377  -18.4135   20.2595 C   0  0  0  0  0  0  0  0  0  0  0  0
  -27.4836  -14.4667   19.7575 C   0  0  0  0  0  0  0  0  0  0  0  0
  -25.1733  -30.0436   25.4433 C   0  0  1  0  0  0  0  0  0  0  0  0
  -27.6281  -20.0474   19.2098 C   0  0  0  0  0  0  0  0  0  0  0  0
  -23.9794  -30.5656   21.8746 C   0  0  1  0  0  0  0  0  0  0  0  0
  -28.0526  -13.1288   20.2721 C   0  0  1  0  0  0  0  0  0  0  0  0
  -18.3728  -30.0394   16.5555 C   0  0  0  0  0  0  0  0  0  0  0  0
  -20.0767  -28.2297   22.6949 C   0  0  0  0  0  0  0  0  0  0  0  0
  -18.5291  -27.9950   20.7409 C   0  0  0  0  0  0  0  0  0  0  0  0
  -18.7387  -30.1902   21.9071 C   0  0  0  0  0  0  0  0  0  0  0  0
  -22.0006  -31.0094   15.9438 C   0  0  0  0  0  0  0  0  0  0  0  0
  -26.0838  -24.7733   18.6564 C   0  0  0  0  0  0  0  0  0  1  0  0
  -20.6369  -29.3747   20.4497 C   0  0  1  0  0  0  0  0  0  0  0  0
  -19.7647  -30.5154   16.9414 C   0  0  2  0  0  0  0  0  0  0  0  0
  -19.5233  -28.9429   21.4451 C   0  0  0  0  0  0  0  0  0  0  0  0
  -27.9332  -21.2349   17.0974 N   0  0  0  0  0  0  0  0  0  0  0  0
  -26.2234  -11.5439   20.7468 N   0  0  0  0  0  0  0  0  0  0  0  0
  -27.0979  -12.4420   21.2314 N   0  0  0  0  0  0  0  0  0  0  0  0
  -22.9820  -29.8269   21.0976 N   0  0  0  0  0  0  0  0  0  0  0  0
  -28.4120  -15.0863   18.7990 N   0  0  0  0  0  0  0  0  0  0  0  0
  -28.4753  -17.3127   19.6708 N   0  0  0  0  0  0  0  0  0  0  0  0
  -27.8143  -13.4926   23.2298 N   0  0  0  0  0  0  0  0  0  0  0  0
  -24.5155  -10.7412   24.6240 N   0  0  0  0  0  0  0  0  0  0  0  0
  -24.9347  -30.5206   24.0979 N   0  0  0  0  0  0  0  0  0  0  0  0
  -20.1440  -30.0766   19.2695 N   0  0  0  0  0  0  0  0  0  0  0  0
  -20.6105  -30.5382   15.7146 N   0  3  0  0  0  0  0  0  0  0  0  0
  -26.0484  -12.3048   25.3052 O   0  0  0  0  0  0  0  0  0  0  0  0
  -23.4134  -28.8869   23.4355 O   0  0  0  0  0  0  0  0  0  0  0  0
  -21.2935  -31.3688   21.5537 O   0  0  0  0  0  0  0  0  0  0  0  0
  -21.0167  -28.5978   17.7111 O   0  0  0  0  0  0  0  0  0  0  0  0
  -30.3609  -16.3179   18.7934 O   0  0  0  0  0  0  0  0  0  0  0  0
  -21.4939   -7.3329   21.4164 O   0  0  0  0  0  0  0  0  0  0  0  0
  -27.0835  -25.7471   18.9320 O   0  0  0  0  0  0  0  0  0  1  0  0
  -21.4124   -3.2508   25.1223 F   0  0  0  0  0  0  0  0  0  0  0  0
  -21.2437   -7.8730   24.1161 F   0  0  0  0  0  0  0  0  0  0  0  0
  -27.0848  -24.5848   16.0023 F   0  0  0  0  0  0  0  0  0  0  0  0
  1  2  1  0  0  0  0
  1  5  2  0  0  0  0
  2  6  2  0  0  0  0
  3  8  2  0  0  0  0
  3 17  1  0  0  0  0
  4  9  1  0  0  0  0
  4 17  2  0  0  0  0
  5 19  1  0  0  0  0
  6 21  1  0  0  0  0
  7 10  2  0  0  0  0
  7 20  1  0  0  0  0
  8 24  1  0  0  0  0
  9 24  2  0  0  0  0
 10 25  1  0  0  0  0
 11 12  2  0  0  0  0
 11 26  1  0  0  0  0
 12 27  1  0  0  0  0
 13 22  1  0  0  0  0
 13 25  2  0  0  0  0
 14 23  1  0  0  0  0
 14 31  2  0  0  0  0
 15 27  2  0  0  0  0
 15 28  1  0  0  0  0
 16 29  1  0  0  0  0
 16 64  2  0  0  0  0
 17 30  1  0  0  0  0
 18 30  1  0  0  0  0
 18 32  2  0  0  0  0
 18 33  1  0  0  0  0
 19 21  2  0  0  0  0
 19 38  1  0  0  0  0
 20 22  2  0  0  0  0
 20 39  1  0  0  0  0
 21 51  1  0  0  0  0
 22 40  1  0  0  0  0
 23 29  2  0  0  0  0
 23 60  1  0  0  0  0
 24 80  1  0  0  0  0
 25 81  1  0  0  0  0
 26 28  2  0  0  0  0
 26 80  1  0  0  0  0
 27 82  1  0  0  0  0
 28 83  1  0  0  0  0
 29 84  1  0  0  0  0
 30 65  2  0  0  0  0
 31 52  1  0  0  0  0
 31 64  1  0  0  0  0
 32 66  1  0  0  0  0
 32 70  1  0  0  0  0
 33 71  1  0  0  0  0
 33 75  2  0  0  0  0
 34 53  1  0  0  0  0
 34 72  1  0  0  0  0
 34 76  2  0  0  0  0
 35 61  1  0  0  0  0
 35 67  1  0  0  0  0
 35 77  2  0  0  0  0
 36 62  1  0  0  0  0
 36 73  1  0  0  0  0
 36 78  2  0  0  0  0
 37 68  1  0  0  0  0
 37 69  1  0  0  0  0
 37 79  2  0  0  0  0
 38 41  1  0  0  0  0
 39 53  1  0  0  0  0
 40 67  1  0  0  0  0
 41 43  1  0  0  0  0
 42 44  1  0  0  0  0
 42 47  1  0  0  0  0
 43 51  1  0  0  0  0
 44 54  1  0  0  0  0
 45 48  1  0  0  0  0
 45 52  1  0  0  0  0
 46 49  1  0  0  0  0
 46 52  1  0  0  0  0
 47 68  1  0  0  0  0
 48 69  1  0  0  0  0
 49 69  1  0  0  0  0
 50 54  1  0  0  0  0
 50 68  1  0  0  0  0
 51 72  1  0  0  0  0
 53 67  1  0  0  0  0
 54 66  1  0  0  0  0
 55 62  1  0  0  0  0
 56 63  1  0  0  0  0
 57 63  1  0  0  0  0
 58 63  1  0  0  0  0
 59 74  1  0  0  0  0
 60 81  1  0  0  0  0
 61 63  1  0  0  0  0
 61 73  1  0  0  0  0
 62 74  1  0  0  0  0
 65 66  1  0  0  0  0
M  CHG  1  74   1
M  ISO  4  37 100  60 101  69 100  81 101
M  END
> <Batch ID>
0179

> <Smiles>
CNC(C)C(=O)NC(C(=O)N1Cc2cc([101O:1][101CH2:1]c3cc(C4CC[100N:0]([100C:0](=O)N5CCCC(n6nc(-c7ccc(Oc8ccc(F)cc8F)cc7)c(C(N)=O)c6N)C5)CC4)ncc3F)ccc2CC1C(=O)NC1CCCc2ccccc21)C(C)(C)C

> <Shape>
0.304

> <Color>
0.126

> <Negative vol penalty>
0.000

$$$$

  -OEChem-04052322573D

 84 93  0     1  0  0  0  0  0999 V2000
  -26.1561  -37.3793   22.7491 C   0  0  0  0  0  0  0  0  0  0  0  0
  -26.7901  -36.1410   22.7517 C   0  0  0  0  0  0  0  0  0  0  0  0
  -22.6646  -10.3939   21.9024 C   0  0  0  0  0  0  0  0  0  0  0  0
  -24.6435   -9.0948   21.4190 C   0  0  0  0  0  0  0  0  0  0  0  0
  -24.8124  -37.4740   23.1086 C   0  0  0  0  0  0  0  0  0  0  0  0
  -26.0810  -34.9967   23.1149 C   0  0  0  0  0  0  0  0  0  0  0  0
  -26.9401  -31.1051   19.9903 C   0  0  0  0  0  0  0  0  0  0  0  0
  -29.8916  -24.9482   21.4491 C   0  0  0  0  0  0  0  0  0  0  0  0
  -21.8687   -9.2783   21.6422 C   0  0  0  0  0  0  0  0  0  0  0  0
  -23.8476   -7.9792   21.1589 C   0  0  0  0  0  0  0  0  0  0  0  0
  -28.1360  -30.4078   20.1557 C   0  0  0  0  0  0  0  0  0  0  0  0
  -22.1962   -5.6297   22.9402 C   0  0  0  0  0  0  0  0  0  0  0  0
  -22.5948   -4.4096   23.4861 C   0  0  0  0  0  0  0  0  0  0  0  0
  -29.9324  -26.3158   21.6968 C   0  0  0  0  0  0  0  0  0  0  0  0
  -26.9589  -28.6903   21.3740 C   0  0  0  0  0  0  0  0  0  0  0  0
  -22.7592   -3.4700   21.2664 C   0  0  0  0  0  0  0  0  0  0  0  0
  -24.0520  -10.3022   21.7907 C   0  0  0  0  0  0  0  0  0  0  0  0
  -25.4271  -11.8350   23.2964 C   0  0  0  0  0  0  0  0  0  0  0  0
  -24.0838  -36.3288   23.4672 C   0  0  0  0  0  0  0  0  0  0  0  0
  -25.7445  -30.6049   20.5258 C   0  0  0  0  0  0  0  0  0  0  0  0
  -24.7266  -35.0762   23.4809 C   0  0  0  0  0  0  0  0  0  0  0  0
  -25.7488  -29.3820   21.2118 C   0  0  0  0  0  0  0  0  0  0  0  0
  -29.2330  -24.4709   20.3213 C   0  0  0  0  0  0  0  0  0  0  0  0
  -22.4602   -8.0710   21.2705 C   0  0  0  0  0  0  0  0  0  0  0  0
  -28.1460  -29.2016   20.8501 C   0  0  0  0  0  0  0  0  0  0  0  0
  -22.0790   -5.7700   21.5573 C   0  0  0  0  0  0  0  0  0  0  0  0
  -22.8764   -3.3298   22.6492 C   0  0  0  0  0  0  0  0  0  0  0  0
  -22.3606   -4.6902   20.7204 C   0  0  0  0  0  0  0  0  0  0  0  0
  -24.8746  -11.4543   22.0588 C   0  0  0  0  0  0  0  0  0  0  0  0
  -28.6360  -25.3952   19.4792 C   0  0  0  0  0  0  0  0  0  0  0  0
  -29.3041  -27.1576   20.7932 C   0  0  0  0  0  0  0  0  0  1  0  0
  -26.1191  -12.9895   23.0229 C   0  0  0  0  0  0  0  0  0  0  0  0
  -25.3240  -11.2017   24.5786 C   0  0  0  0  0  0  0  0  0  0  0  0
  -23.6534  -31.6304   22.6890 C   0  0  0  0  0  0  0  0  0  0  0  0
  -21.9770  -29.0226   21.7342 C   0  0  0  0  0  0  0  0  0  0  0  0
  -22.0076  -25.9174   20.3187 C   0  0  0  0  0  0  0  0  0  0  0  0
  -26.2708  -17.9585   20.7153 C   0  0  0  0  0  0  0  0  0  0  0  0
  -22.6459  -36.4874   23.8939 C   0  0  0  0  0  0  0  0  0  0  0  0
  -24.4583  -31.3559   20.3157 C   0  0  0  0  0  0  0  0  0  0  0  0
  -24.4888  -28.7918   21.7885 C   0  0  0  0  0  0  0  0  0  0  0  0
  -21.8655  -35.1755   23.9045 C   0  0  0  0  0  0  0  0  0  0  0  0
  -27.3671  -15.1401   18.6430 C   0  0  0  0  0  0  0  0  0  0  0  0
  -22.6731  -34.0794   24.5925 C   0  0  0  0  0  0  0  0  0  0  0  0
  -26.8020  -13.9618   19.4290 C   0  0  0  0  0  0  0  0  0  0  0  0
  -25.2505  -20.8169   19.2772 C   0  0  0  0  0  0  0  0  0  0  0  0
  -26.4709  -16.3765   18.7238 C   0  0  0  0  0  0  0  0  0  0  0  0
  -25.4124  -19.4027   18.7115 C   0  0  0  0  0  0  0  0  0  0  0  0
  -25.5759  -15.5962   20.9017 C   0  0  0  0  0  0  0  0  0  0  0  0
  -23.9844  -33.8086   23.8450 C   0  0  1  0  0  0  0  0  0  0  0  0
  -23.3887  -31.0092   21.3467 C   0  0  1  0  0  0  0  0  0  0  0  0
  -26.5054  -14.3748   20.8783 C   0  0  1  0  0  0  0  0  0  0  0  0
  -26.3350  -20.4813   20.3124 C   0  0  2  0  0  0  0  0  0  0  0  0
  -27.9142  -24.9395   18.2535 C   0  0  0  0  0  0  0  0  0  0  0  0
  -20.4880  -24.0163   19.7070 C   0  0  0  0  0  0  0  0  0  0  0  0
  -21.8383  -28.1929   24.6671 C   0  0  0  0  0  0  0  0  0  0  0  0
  -21.1808  -25.8974   23.9145 C   0  0  0  0  0  0  0  0  0  0  0  0
  -19.7195  -27.8482   23.3841 C   0  0  0  0  0  0  0  0  0  0  0  0
  -22.6752  -26.1557   17.4453 C   0  0  0  0  0  0  0  0  0  0  0  0
  -29.1824  -22.9961   20.0506 C   0  0  0  0  0  0  0  0  0  0  0  0
  -27.7473  -20.9519   20.0261 C   0  0  0  0  0  0  0  0  0  0  0  0
  -21.9155  -27.5759   22.1613 C   0  0  1  0  0  0  0  0  0  0  0  0
  -21.1509  -25.2987   19.2288 C   0  0  2  0  0  0  0  0  0  0  0  0
  -21.1878  -27.3904   23.5227 C   0  0  0  0  0  0  0  0  0  0  0  0
  -25.1885  -12.2985   21.0725 N   0  0  0  0  0  0  0  0  0  0  0  0
  -28.6547  -26.7309   19.6869 N   0  0  0  0  0  0  0  0  0  0  0  0
  -25.9456  -13.2212   21.6901 N   0  0  0  0  0  0  0  0  0  0  0  0
  -23.2577  -29.5667   21.5621 N   0  0  0  0  0  0  0  0  0  0  0  0
  -26.1165  -16.7070   20.1092 N   0  0  0  0  0  0  0  0  0  0  0  0
  -26.1455  -19.0810   19.9272 N   0  0  0  0  0  0  0  0  0  0  0  0
  -26.8530  -13.8189   23.7949 N   0  0  0  0  0  0  0  0  0  0  0  0
  -24.5742  -10.0222   24.6828 N   0  0  0  0  0  0  0  0  0  0  0  0
  -23.7372  -33.0094   22.6641 N   0  0  0  0  0  0  0  0  0  0  0  0
  -21.3050  -26.8489   21.0535 N   0  0  0  0  0  0  0  0  0  0  0  0
  -21.9829  -24.9805   18.0340 N   0  3  0  0  0  0  0  0  0  0  0  0
  -27.8516  -22.3943   20.3436 N   0  3  0  0  0  0  0  0  0  0  0  0
  -25.8667  -11.6769   25.6048 O   0  0  0  0  0  0  0  0  0  0  0  0
  -23.7713  -30.9118   23.6746 O   0  0  0  0  0  0  0  0  0  0  0  0
  -20.9275  -29.6448   21.5528 O   0  0  0  0  0  0  0  0  0  0  0  0
  -23.1814  -25.6028   20.5024 O   0  0  0  0  0  0  0  0  0  0  0  0
  -26.4835  -18.0753   21.9294 O   0  0  0  0  0  0  0  0  0  0  0  0
  -21.6839   -6.9821   21.0168 O   0  0  0  0  0  0  0  0  0  0  0  0
  -29.3289  -28.5094   21.0159 O   0  0  0  0  0  0  0  0  0  1  0  0
  -23.2606   -2.1586   23.1736 F   0  0  0  0  0  0  0  0  0  0  0  0
  -22.2509   -4.8192   19.3911 F   0  0  0  0  0  0  0  0  0  0  0  0
  1  2  1  0  0  0  0
  1  5  2  0  0  0  0
  2  6  2  0  0  0  0
  3  9  2  0  0  0  0
  3 17  1  0  0  0  0
  4 10  1  0  0  0  0
  4 17  2  0  0  0  0
  5 19  1  0  0  0  0
  6 21  1  0  0  0  0
  7 11  2  0  0  0  0
  7 20  1  0  0  0  0
  8 14  2  0  0  0  0
  8 23  1  0  0  0  0
  9 24  1  0  0  0  0
 10 24  2  0  0  0  0
 11 25  1  0  0  0  0
 12 13  2  0  0  0  0
 12 26  1  0  0  0  0
 13 27  1  0  0  0  0
 14 31  1  0  0  0  0
 15 22  1  0  0  0  0
 15 25  2  0  0  0  0
 16 27  2  0  0  0  0
 16 28  1  0  0  0  0
 17 29  1  0  0  0  0
 18 29  1  0  0  0  0
 18 32  2  0  0  0  0
 18 33  1  0  0  0  0
 19 21  2  0  0  0  0
 19 38  1  0  0  0  0
 20 22  2  0  0  0  0
 20 39  1  0  0  0  0
 21 49  1  0  0  0  0
 22 40  1  0  0  0  0
 23 30  2  0  0  0  0
 23 59  1  0  0  0  0
 24 81  1  0  0  0  0
 25 82  1  0  0  0  0
 26 28  2  0  0  0  0
 26 81  1  0  0  0  0
 27 83  1  0  0  0  0
 28 84  1  0  0  0  0
 29 64  2  0  0  0  0
 30 53  1  0  0  0  0
 30 65  1  0  0  0  0
 31 65  2  0  0  0  0
 31 82  1  0  0  0  0
 32 66  1  0  0  0  0
 32 70  1  0  0  0  0
 33 71  1  0  0  0  0
 33 76  2  0  0  0  0
 34 50  1  0  0  0  0
 34 72  1  0  0  0  0
 34 77  2  0  0  0  0
 35 61  1  0  0  0  0
 35 67  1  0  0  0  0
 35 78  2  0  0  0  0
 36 62  1  0  0  0  0
 36 73  1  0  0  0  0
 36 79  2  0  0  0  0
 37 68  1  0  0  0  0
 37 69  1  0  0  0  0
 37 80  2  0  0  0  0
 38 41  1  0  0  0  0
 39 50  1  0  0  0  0
 40 67  1  0  0  0  0
 41 43  1  0  0  0  0
 42 44  1  0  0  0  0
 42 46  1  0  0  0  0
 43 49  1  0  0  0  0
 44 51  1  0  0  0  0
 45 47  1  0  0  0  0
 45 52  1  0  0  0  0
 46 68  1  0  0  0  0
 47 69  1  0  0  0  0
 48 51  1  0  0  0  0
 48 68  1  0  0  0  0
 49 72  1  0  0  0  0
 50 67  1  0  0  0  0
 51 66  1  0  0  0  0
 52 60  1  0  0  0  0
 52 69  1  0  0  0  0
 54 62  1  0  0  0  0
 55 63  1  0  0  0  0
 56 63  1  0  0  0  0
 57 63  1  0  0  0  0
 58 74  1  0  0  0  0
 59 75  1  0  0  0  0
 60 75  1  0  0  0  0
 61 63  1  0  0  0  0
 61 73  1  0  0  0  0
 62 74  1  0  0  0  0
 64 66  1  0  0  0  0
M  CHG  2  74   1  75   1
M  ISO  4  31 101  37 100  69 100  82 101
M  END
> <Batch ID>
0179

> <Smiles>
CNC(C)C(=O)NC(C(=O)N1Cc2cc([101O:1][101c:1]3ccc(CNCC4CC[100N:0]4[100C:0](=O)N4CCCC(n5nc(-c6ccc(Oc7ccc(F)cc7F)cc6)c(C(N)=O)c5N)C4)c(C)n3)ccc2CC1C(=O)NC1CCCc2ccccc21)C(C)(C)C

> <Shape>
0.287

> <Color>
0.079

> <Negative vol penalty>
0.000

$$$$

  -OEChem-04052322573D

 86 95  0     1  0  0  0  0  0999 V2000
  -28.9041  -32.4470   26.0906 C   0  0  0  0  0  0  0  0  0  0  0  0
  -28.7510  -31.2518   25.3954 C   0  0  0  0  0  0  0  0  0  0  0  0
  -23.0236  -10.5297   20.2723 C   0  0  0  0  0  0  0  0  0  0  0  0
  -24.1138   -9.4384   22.1317 C   0  0  0  0  0  0  0  0  0  0  0  0
  -27.7815  -33.1912   26.4510 C   0  0  0  0  0  0  0  0  0  0  0  0
  -27.4751  -30.7995   25.0610 C   0  0  0  0  0  0  0  0  0  0  0  0
  -27.1943  -29.1312   20.2878 C   0  0  0  0  0  0  0  0  0  0  0  0
  -22.0681   -9.5142   20.2365 C   0  0  0  0  0  0  0  0  0  0  0  0
  -23.1582   -8.4229   22.0960 C   0  0  0  0  0  0  0  0  0  0  0  0
  -27.7053  -27.8607   20.0262 C   0  0  0  0  0  0  0  0  0  0  0  0
  -19.9697   -7.9682   23.1194 C   0  0  0  0  0  0  0  0  0  0  0  0
  -19.4206   -7.5541   24.3329 C   0  0  0  0  0  0  0  0  0  0  0  0
  -25.4697  -26.9563   20.0830 C   0  0  0  0  0  0  0  0  0  0  0  0
  -20.2476   -5.3176   23.9438 C   0  0  0  0  0  0  0  0  0  0  0  0
  -24.0465  -10.4918   21.2199 C   0  0  0  0  0  0  0  0  0  0  0  0
  -24.9755  -12.7378   21.9945 C   0  0  0  0  0  0  0  0  0  0  0  0
  -26.4917  -32.7526   26.1124 C   0  0  0  0  0  0  0  0  0  0  0  0
  -25.8158  -29.3223   20.4600 C   0  0  0  0  0  0  0  0  0  0  0  0
  -26.3341  -31.5378   25.4183 C   0  0  0  0  0  0  0  0  0  0  0  0
  -24.9434  -28.2307   20.3441 C   0  0  0  0  0  0  0  0  0  0  0  0
  -22.1353   -8.4609   21.1483 C   0  0  0  0  0  0  0  0  0  0  0  0
  -26.8433  -26.7725   19.9267 C   0  0  0  0  0  0  0  0  0  0  0  0
  -20.6577   -7.0570   22.3180 C   0  0  0  0  0  0  0  0  0  0  0  0
  -19.5596   -6.2288   24.7451 C   0  0  0  0  0  0  0  0  0  0  0  0
  -20.7967   -5.7317   22.7303 C   0  0  0  0  0  0  0  0  0  0  0  0
  -25.0343  -11.5402   21.2569 C   0  0  0  0  0  0  0  0  0  0  0  0
  -26.4519  -22.0492   18.9209 C   0  0  0  0  0  0  0  0  0  0  0  0
  -27.1186  -23.1780   19.3437 C   0  0  0  0  0  0  0  0  0  0  0  0
  -29.0879  -22.0156   19.3423 C   0  0  0  0  0  0  0  0  0  0  0  0
  -28.4212  -20.8865   18.9202 C   0  0  0  0  0  0  0  0  0  0  0  0
  -26.1470  -13.3867   21.6896 C   0  0  0  0  0  0  0  0  0  0  0  0
  -23.9533  -13.2205   22.8765 C   0  0  0  0  0  0  0  0  0  0  0  0
  -23.9725  -30.3402   22.8412 C   0  0  0  0  0  0  0  0  0  0  0  0
  -21.6346  -30.1315   20.6022 C   0  0  0  0  0  0  0  0  0  0  0  0
  -20.5270  -28.7364   17.6913 C   0  0  0  0  0  0  0  0  0  0  0  0
  -29.7279  -15.0362   17.6482 C   0  0  0  0  0  0  0  0  0  0  0  0
  -25.3058  -33.5673   26.5648 C   0  0  0  0  0  0  0  0  0  0  0  0
  -25.2778  -30.7036   20.7151 C   0  0  0  0  0  0  0  0  0  0  0  0
  -23.4535  -28.3861   20.5005 C   0  0  0  0  0  0  0  0  0  0  0  0
  -24.0089  -33.2069   25.8449 C   0  0  0  0  0  0  0  0  0  0  0  0
  -30.2790  -11.7830   19.2564 C   0  0  0  0  0  0  0  0  0  0  0  0
  -23.8283  -31.6931   25.7960 C   0  0  0  0  0  0  0  0  0  0  0  0
  -28.9380  -11.5114   19.9395 C   0  0  0  0  0  0  0  0  0  0  0  0
  -27.9244  -17.7000   19.4281 C   0  0  0  0  0  0  0  0  0  0  0  0
  -30.1166  -12.6234   17.9919 C   0  0  0  0  0  0  0  0  0  0  0  0
  -27.8463  -16.2873   18.8585 C   0  0  0  0  0  0  0  0  0  0  0  0
  -28.0308  -13.6042   18.8642 C   0  0  0  0  0  0  0  0  0  0  0  0
  -29.5796  -17.5085   17.7317 C   0  0  0  0  0  0  0  0  0  0  0  0
  -24.9678  -31.0265   25.0158 C   0  0  1  0  0  0  0  0  0  0  0  0
  -23.9062  -30.6967   21.3830 C   0  0  1  0  0  0  0  0  0  0  0  0
  -28.1607  -12.8196   20.1770 C   0  0  1  0  0  0  0  0  0  0  0  0
  -28.5411  -18.4800   18.2722 C   0  0  2  0  0  0  0  0  0  0  0  0
  -24.9806  -22.0587   18.6829 C   0  0  0  0  0  0  0  0  0  0  0  0
  -30.9327  -21.3458   20.9027 C   0  0  0  0  0  0  0  0  0  0  0  0
  -18.5615  -28.7334   16.1311 C   0  0  0  0  0  0  0  0  0  0  0  0
  -20.0787  -28.3940   22.5696 C   0  0  0  0  0  0  0  0  0  0  0  0
  -18.6281  -27.6592   20.6658 C   0  0  0  0  0  0  0  0  0  0  0  0
  -18.6906  -30.0634   21.3282 C   0  0  0  0  0  0  0  0  0  0  0  0
  -22.1659  -29.7358   15.4387 C   0  0  0  0  0  0  0  0  0  0  0  0
  -30.5599  -22.0157   19.5826 C   0  0  0  0  0  0  0  0  0  0  0  0
  -26.3997  -24.4615   19.5830 C   0  0  0  0  0  0  0  0  0  1  0  0
  -20.6836  -29.0510   20.1471 C   0  0  1  0  0  0  0  0  0  0  0  0
  -19.9132  -29.3541   16.4478 C   0  0  2  0  0  0  0  0  0  0  0  0
  -19.5485  -28.7883   21.1766 C   0  0  0  0  0  0  0  0  0  0  0  0
  -26.1544  -11.4322   20.5375 N   0  0  0  0  0  0  0  0  0  0  0  0
  -28.4486  -23.1815   19.5619 N   0  0  0  0  0  0  0  0  0  0  0  0
  -27.0913  -20.8831   18.7016 N   0  0  0  0  0  0  0  0  0  0  0  0
  -26.8103  -12.5703   20.8215 N   0  0  0  0  0  0  0  0  0  0  0  0
  -22.9766  -29.7555   20.7552 N   0  0  0  0  0  0  0  0  0  0  0  0
  -29.3489  -13.8387   18.2646 N   0  0  0  0  0  0  0  0  0  0  0  0
  -29.0077  -16.1856   17.9710 N   0  0  0  0  0  0  0  0  0  0  0  0
  -26.6641  -14.5703   22.0820 N   0  0  0  0  0  0  0  0  0  0  0  0
  -22.8152  -12.4277   23.0775 N   0  0  0  0  0  0  0  0  0  0  0  0
  -29.1357  -19.7146   18.7117 N   0  0  0  0  0  0  0  0  0  0  0  0
  -24.7664  -31.1864   23.5916 N   0  0  0  0  0  0  0  0  0  0  0  0
  -20.2114  -29.4526   18.8264 N   0  0  0  0  0  0  0  0  0  0  0  0
  -20.8090  -29.1538   15.2738 N   0  3  0  0  0  0  0  0  0  0  0  0
  -24.0390  -14.3297   23.4560 O   0  0  0  0  0  0  0  0  0  0  0  0
  -23.3484  -29.3702   23.2550 O   0  0  0  0  0  0  0  0  0  0  0  0
  -21.2038  -31.2690   20.8074 O   0  0  0  0  0  0  0  0  0  0  0  0
  -21.2144  -27.7180   17.6593 O   0  0  0  0  0  0  0  0  0  0  0  0
  -30.6971  -15.0861   16.8793 O   0  0  0  0  0  0  0  0  0  0  0  0
  -21.2029   -7.4699   21.1139 O   0  0  0  0  0  0  0  0  0  0  0  0
  -27.3430  -25.5228   19.6704 O   0  0  0  0  0  0  0  0  0  1  0  0
  -19.0336   -5.8316   25.9112 F   0  0  0  0  0  0  0  0  0  0  0  0
  -21.4575   -4.8521   21.9652 F   0  0  0  0  0  0  0  0  0  0  0  0
  1  2  1  0  0  0  0
  1  5  2  0  0  0  0
  2  6  2  0  0  0  0
  3  8  2  0  0  0  0
  3 15  1  0  0  0  0
  4  9  1  0  0  0  0
  4 15  2  0  0  0  0
  5 17  1  0  0  0  0
  6 19  1  0  0  0  0
  7 10  2  0  0  0  0
  7 18  1  0  0  0  0
  8 21  1  0  0  0  0
  9 21  2  0  0  0  0
 10 22  1  0  0  0  0
 11 12  2  0  0  0  0
 11 23  1  0  0  0  0
 12 24  1  0  0  0  0
 13 20  1  0  0  0  0
 13 22  2  0  0  0  0
 14 24  2  0  0  0  0
 14 25  1  0  0  0  0
 15 26  1  0  0  0  0
 16 26  1  0  0  0  0
 16 31  2  0  0  0  0
 16 32  1  0  0  0  0
 17 19  2  0  0  0  0
 17 37  1  0  0  0  0
 18 20  2  0  0  0  0
 18 38  1  0  0  0  0
 19 49  1  0  0  0  0
 20 39  1  0  0  0  0
 21 83  1  0  0  0  0
 22 84  1  0  0  0  0
 23 25  2  0  0  0  0
 23 83  1  0  0  0  0
 24 85  1  0  0  0  0
 25 86  1  0  0  0  0
 26 65  2  0  0  0  0
 27 28  1  0  0  0  0
 27 53  1  0  0  0  0
 27 67  2  0  0  0  0
 28 61  1  0  0  0  0
 28 66  2  0  0  0  0
 29 30  2  0  0  0  0
 29 60  1  0  0  0  0
 29 66  1  0  0  0  0
 30 67  1  0  0  0  0
 30 74  1  0  0  0  0
 31 68  1  0  0  0  0
 31 72  1  0  0  0  0
 32 73  1  0  0  0  0
 32 78  2  0  0  0  0
 33 50  1  0  0  0  0
 33 75  1  0  0  0  0
 33 79  2  0  0  0  0
 34 62  1  0  0  0  0
 34 69  1  0  0  0  0
 34 80  2  0  0  0  0
 35 63  1  0  0  0  0
 35 76  1  0  0  0  0
 35 81  2  0  0  0  0
 36 70  1  0  0  0  0
 36 71  1  0  0  0  0
 36 82  2  0  0  0  0
 37 40  1  0  0  0  0
 38 50  1  0  0  0  0
 39 69  1  0  0  0  0
 40 42  1  0  0  0  0
 41 43  1  0  0  0  0
 41 45  1  0  0  0  0
 42 49  1  0  0  0  0
 43 51  1  0  0  0  0
 44 46  1  0  0  0  0
 44 52  1  0  0  0  0
 45 70  1  0  0  0  0
 46 71  1  0  0  0  0
 47 51  1  0  0  0  0
 47 70  1  0  0  0  0
 48 52  1  0  0  0  0
 48 71  1  0  0  0  0
 49 75  1  0  0  0  0
 50 69  1  0  0  0  0
 51 68  1  0  0  0  0
 52 74  1  0  0  0  0
 54 60  1  0  0  0  0
 55 63  1  0  0  0  0
 56 64  1  0  0  0  0
 57 64  1  0  0  0  0
 58 64  1  0  0  0  0
 59 77  1  0  0  0  0
 61 84  1  0  0  0  0
 62 64  1  0  0  0  0
 62 76  1  0  0  0  0
 63 77  1  0  0  0  0
 65 68  1  0  0  0  0
M  CHG  1  77   1
M  ISO  4  36 100  61 101  71 100  84 101
M  END
> <Batch ID>
0179

> <Smiles>
CCc1nc([101CH2:1][101O:1]c2ccc3c(c2)CN(C(=O)C(NC(=O)C(C)NC)C(C)(C)C)C(C(=O)NC2CCCc4ccccc42)C3)c(C)nc1NC1CC[100N:0]([100C:0](=O)N2CCCC(n3nc(-c4ccc(Oc5ccc(F)cc5F)cc4)c(C(N)=O)c3N)C2)C1

> <Shape>
0.328

> <Color>
0.125

> <Negative vol penalty>
0.000

$$$$

  -OEChem-04052322573D

 81 90  0     1  0  0  0  0  0999 V2000
  -23.5845  -34.5683   16.1922 C   0  0  0  0  0  0  0  0  0  0  0  0
  -24.7323  -34.2874   16.9265 C   0  0  0  0  0  0  0  0  0  0  0  0
  -24.6377   -9.7372   20.2866 C   0  0  0  0  0  0  0  0  0  0  0  0
  -25.2917  -10.2697   22.5506 C   0  0  0  0  0  0  0  0  0  0  0  0
  -22.3839  -33.9334   16.5075 C   0  0  0  0  0  0  0  0  0  0  0  0
  -24.6798  -33.3722   17.9773 C   0  0  0  0  0  0  0  0  0  0  0  0
  -28.8532  -27.5008   17.9930 C   0  0  0  0  0  0  0  0  0  0  0  0
  -24.4433   -8.4062   20.6558 C   0  0  0  0  0  0  0  0  0  0  0  0
  -25.0973   -8.9387   22.9198 C   0  0  0  0  0  0  0  0  0  0  0  0
  -29.7698  -26.4644   18.1714 C   0  0  0  0  0  0  0  0  0  0  0  0
  -23.4277   -4.9422   21.0851 C   0  0  0  0  0  0  0  0  0  0  0  0
  -22.2700   -4.3070   20.6359 C   0  0  0  0  0  0  0  0  0  0  0  0
  -28.6654  -25.8271   20.2262 C   0  0  0  0  0  0  0  0  0  0  0  0
  -20.9225   -5.9445   21.7936 C   0  0  0  0  0  0  0  0  0  0  0  0
  -27.3696  -19.8757   22.1930 C   0  0  0  0  0  0  0  0  0  0  0  0
  -25.0620  -10.6689   21.2339 C   0  0  0  0  0  0  0  0  0  0  0  0
  -24.3135  -13.0824   20.8834 C   0  0  0  0  0  0  0  0  0  0  0  0
  -22.3189  -33.0028   17.5564 C   0  0  0  0  0  0  0  0  0  0  0  0
  -27.8287  -27.6949   18.9236 C   0  0  0  0  0  0  0  0  0  0  0  0
  -23.4769  -32.7253   18.3077 C   0  0  0  0  0  0  0  0  0  0  0  0
  -27.7369  -26.8558   20.0462 C   0  0  0  0  0  0  0  0  0  0  0  0
  -24.6731   -8.0070   21.9724 C   0  0  0  0  0  0  0  0  0  0  0  0
  -29.6762  -25.6298   19.2853 C   0  0  0  0  0  0  0  0  0  0  0  0
  -23.3329   -6.0785   21.8886 C   0  0  0  0  0  0  0  0  0  0  0  0
  -21.0174   -4.8082   20.9902 C   0  0  0  0  0  0  0  0  0  0  0  0
  -22.0803   -6.5796   22.2428 C   0  0  0  0  0  0  0  0  0  0  0  0
  -25.2635  -12.0439   20.8530 C   0  0  0  0  0  0  0  0  0  0  0  0
  -27.3265  -21.2272   22.4685 C   0  0  0  0  0  0  0  0  0  0  0  0
  -28.4400  -19.4558   21.4300 C   0  0  0  0  0  0  0  0  0  0  0  0
  -24.9951  -14.1845   20.4281 C   0  0  0  0  0  0  0  0  0  0  0  0
  -29.2463  -21.5773   21.3028 C   0  0  0  0  0  0  0  0  0  0  0  0
  -22.9381  -13.0534   21.2871 C   0  0  0  0  0  0  0  0  0  0  0  0
  -24.8166  -29.6902   19.9345 C   0  0  0  0  0  0  0  0  0  0  0  0
  -24.1777  -26.7493   20.5286 C   0  0  0  0  0  0  0  0  0  0  0  0
  -23.6680  -23.6716   20.1154 C   0  0  0  0  0  0  0  0  0  0  0  0
  -29.5139  -17.4373   20.3724 C   0  0  0  0  0  0  0  0  0  0  0  0
  -20.9878  -32.3772   17.8903 C   0  0  0  0  0  0  0  0  0  0  0  0
  -26.8563  -28.8368   18.8040 C   0  0  0  0  0  0  0  0  0  0  0  0
  -26.6393  -27.1236   21.0394 C   0  0  0  0  0  0  0  0  0  0  0  0
  -21.1016  -31.1405   18.7781 C   0  0  0  0  0  0  0  0  0  0  0  0
  -29.5498  -14.5752   18.2548 C   0  0  0  0  0  0  0  0  0  0  0  0
  -22.0519  -31.4044   19.9418 C   0  0  0  0  0  0  0  0  0  0  0  0
  -28.3597  -13.7469   18.7445 C   0  0  0  0  0  0  0  0  0  0  0  0
  -31.0735  -22.1642   19.5729 C   0  0  0  0  0  0  0  0  0  0  0  0
  -30.2671  -15.2744   19.4082 C   0  0  0  0  0  0  0  0  0  0  0  0
  -28.2128  -15.2541   20.7678 C   0  0  0  0  0  0  0  0  0  0  0  0
  -23.4657  -31.7201   19.4389 C   0  0  1  0  0  0  0  0  0  0  0  0
  -30.2816  -22.5169   20.8103 C   0  0  1  0  0  0  0  0  0  0  0  0
  -25.4444  -28.4820   19.3041 C   0  0  1  0  0  0  0  0  0  0  0  0
  -27.4195  -14.5830   19.6347 C   0  0  2  0  0  0  0  0  0  0  0  0
  -30.0509  -23.2573   19.5111 C   0  0  1  0  0  0  0  0  0  1  0  0
  -26.2062  -21.7761   23.2867 C   0  0  0  0  0  0  0  0  0  0  0  0
  -22.5519  -21.4826   20.6254 C   0  0  0  0  0  0  0  0  0  0  0  0
  -24.8083  -27.2296   23.4740 C   0  0  0  0  0  0  0  0  0  0  0  0
  -23.8873  -24.9548   23.9690 C   0  0  0  0  0  0  0  0  0  0  0  0
  -22.4099  -26.7109   22.9914 C   0  0  0  0  0  0  0  0  0  0  0  0
  -22.6321  -23.4238   17.3541 C   0  0  0  0  0  0  0  0  0  0  0  0
  -24.1808  -25.6342   21.5435 C   0  0  1  0  0  0  0  0  0  0  0  0
  -22.5373  -22.7265   19.7507 C   0  0  2  0  0  0  0  0  0  0  0  0
  -23.8429  -26.1356   22.9759 C   0  0  0  0  0  0  0  0  0  0  0  0
  -26.4575  -12.4499   20.4131 N   0  0  0  0  0  0  0  0  0  0  0  0
  -28.2515  -22.1099   22.0379 N   0  0  0  0  0  0  0  0  0  0  0  0
  -29.4002  -20.2825   20.9663 N   0  0  0  0  0  0  0  0  0  0  0  0
  -26.2623  -13.7558   20.1628 N   0  0  0  0  0  0  0  0  0  0  0  0
  -25.3857  -27.4294   20.3325 N   0  0  0  0  0  0  0  0  0  0  0  0
  -29.3145  -16.0505   20.2051 N   0  0  0  0  0  0  0  0  0  0  0  0
  -24.6280  -15.4688   20.2328 N   0  0  0  0  0  0  0  0  0  0  0  0
  -22.3968  -11.8383   21.7285 N   0  0  0  0  0  0  0  0  0  0  0  0
  -28.5263  -18.0754   21.1222 N   0  0  0  0  0  0  0  0  0  0  0  0
  -24.1445  -30.5047   19.0432 N   0  0  0  0  0  0  0  0  0  0  0  0
  -23.2667  -24.6171   21.0353 N   0  0  0  0  0  0  0  0  0  0  0  0
  -22.6562  -22.3016   18.3273 N   0  3  0  0  0  0  0  0  0  0  0  0
  -22.2061  -14.0711   21.2417 O   0  0  0  0  0  0  0  0  0  0  0  0
  -24.9314  -29.8706   21.1411 O   0  0  0  0  0  0  0  0  0  0  0  0
  -23.1325  -27.0159   19.9287 O   0  0  0  0  0  0  0  0  0  0  0  0
  -24.7955  -23.5779   19.6353 O   0  0  0  0  0  0  0  0  0  0  0  0
  -30.4743  -18.0209   19.8635 O   0  0  0  0  0  0  0  0  0  0  0  0
  -24.4833   -6.7084   22.3331 O   0  0  0  0  0  0  0  0  0  0  0  0
  -30.5716  -24.6171   19.4510 O   0  0  0  0  0  0  0  0  0  1  0  0
  -19.9057   -4.1990   20.5575 F   0  0  0  0  0  0  0  0  0  0  0  0
  -21.9829   -7.6716   23.0135 F   0  0  0  0  0  0  0  0  0  0  0  0
  1  2  1  0  0  0  0
  1  5  2  0  0  0  0
  2  6  2  0  0  0  0
  3  8  2  0  0  0  0
  3 16  1  0  0  0  0
  4  9  1  0  0  0  0
  4 16  2  0  0  0  0
  5 18  1  0  0  0  0
  6 20  1  0  0  0  0
  7 10  2  0  0  0  0
  7 19  1  0  0  0  0
  8 22  1  0  0  0  0
  9 22  2  0  0  0  0
 10 23  1  0  0  0  0
 11 12  2  0  0  0  0
 11 24  1  0  0  0  0
 12 25  1  0  0  0  0
 13 21  1  0  0  0  0
 13 23  2  0  0  0  0
 14 25  2  0  0  0  0
 14 26  1  0  0  0  0
 15 28  1  0  0  0  0
 15 29  2  0  0  0  0
 16 27  1  0  0  0  0
 17 27  1  0  0  0  0
 17 30  2  0  0  0  0
 17 32  1  0  0  0  0
 18 20  2  0  0  0  0
 18 37  1  0  0  0  0
 19 21  2  0  0  0  0
 19 38  1  0  0  0  0
 20 47  1  0  0  0  0
 21 39  1  0  0  0  0
 22 78  1  0  0  0  0
 23 79  1  0  0  0  0
 24 26  2  0  0  0  0
 24 78  1  0  0  0  0
 25 80  1  0  0  0  0
 26 81  1  0  0  0  0
 27 61  2  0  0  0  0
 28 52  1  0  0  0  0
 28 62  2  0  0  0  0
 29 63  1  0  0  0  0
 29 69  1  0  0  0  0
 30 64  1  0  0  0  0
 30 67  1  0  0  0  0
 31 48  1  0  0  0  0
 31 62  1  0  0  0  0
 31 63  2  0  0  0  0
 32 68  1  0  0  0  0
 32 73  2  0  0  0  0
 33 49  1  0  0  0  0
 33 70  1  0  0  0  0
 33 74  2  0  0  0  0
 34 58  1  0  0  0  0
 34 65  1  0  0  0  0
 34 75  2  0  0  0  0
 35 59  1  0  0  0  0
 35 71  1  0  0  0  0
 35 76  2  0  0  0  0
 36 66  1  0  0  0  0
 36 69  1  0  0  0  0
 36 77  2  0  0  0  0
 37 40  1  0  0  0  0
 38 49  1  0  0  0  0
 39 65  1  0  0  0  0
 40 42  1  0  0  0  0
 41 43  1  0  0  0  0
 41 45  1  0  0  0  0
 42 47  1  0  0  0  0
 43 50  1  0  0  0  0
 44 48  1  0  0  0  0
 44 51  1  0  0  0  0
 45 66  1  0  0  0  0
 46 50  1  0  0  0  0
 46 66  1  0  0  0  0
 47 70  1  0  0  0  0
 48 51  1  0  0  0  0
 49 65  1  0  0  0  0
 50 64  1  0  0  0  0
 51 79  1  0  0  0  0
 53 59  1  0  0  0  0
 54 60  1  0  0  0  0
 55 60  1  0  0  0  0
 56 60  1  0  0  0  0
 57 72  1  0  0  0  0
 58 60  1  0  0  0  0
 58 71  1  0  0  0  0
 59 72  1  0  0  0  0
 61 64  1  0  0  0  0
M  CHG  1  72   1
M  ISO  4  36 100  51 101  69 100  79 101
M  END
> <Batch ID>
0179

> <Smiles>
CNC(C)C(=O)NC(C(=O)N1Cc2cc([101O:1][101CH:1]3CC3c3nc(C)cc([100NH:0][100C:0](=O)N4CCCC(n5nc(-c6ccc(Oc7ccc(F)cc7F)cc6)c(C(N)=O)c5N)C4)n3)ccc2CC1C(=O)NC1CCCc2ccccc21)C(C)(C)C

> <Shape>
0.241

> <Color>
0.105

> <Negative vol penalty>
0.000

$$$$

  -OEChem-04052322573D

 82 91  0     1  0  0  0  0  0999 V2000
  -27.6382  -36.9728   17.7539 C   0  0  0  0  0  0  0  0  0  0  0  0
  -27.9173  -35.6136   17.6534 C   0  0  0  0  0  0  0  0  0  0  0  0
  -25.3154  -11.9763   20.8079 C   0  0  0  0  0  0  0  0  0  0  0  0
  -25.8597  -13.5436   22.5641 C   0  0  0  0  0  0  0  0  0  0  0  0
  -27.2617  -37.5170   18.9811 C   0  0  0  0  0  0  0  0  0  0  0  0
  -27.8211  -34.7980   18.7803 C   0  0  0  0  0  0  0  0  0  0  0  0
  -25.9997  -28.9534   18.9502 C   0  0  0  0  0  0  0  0  0  0  0  0
  -28.6187  -22.4741   21.3466 C   0  0  0  0  0  0  0  0  0  0  0  0
  -25.8124  -10.9312   21.5866 C   0  0  0  0  0  0  0  0  0  0  0  0
  -26.3567  -12.4985   23.3428 C   0  0  0  0  0  0  0  0  0  0  0  0
  -26.7056  -27.7518   18.9909 C   0  0  0  0  0  0  0  0  0  0  0  0
  -24.7677   -9.0567   24.1996 C   0  0  0  0  0  0  0  0  0  0  0  0
  -24.0089   -7.8889   24.2777 C   0  0  0  0  0  0  0  0  0  0  0  0
  -28.2005  -21.2609   20.8114 C   0  0  0  0  0  0  0  0  0  0  0  0
  -26.4739  -27.7040   21.3916 C   0  0  0  0  0  0  0  0  0  0  0  0
  -25.8459   -6.6326   23.3374 C   0  0  0  0  0  0  0  0  0  0  0  0
  -25.3391  -13.2825   21.2967 C   0  0  0  0  0  0  0  0  0  0  0  0
  -23.5062  -14.8506   20.4665 C   0  0  0  0  0  0  0  0  0  0  0  0
  -27.1514  -36.7060   20.1215 C   0  0  0  0  0  0  0  0  0  0  0  0
  -25.5343  -29.5459   20.1329 C   0  0  0  0  0  0  0  0  0  0  0  0
  -27.4440  -35.3322   20.0242 C   0  0  0  0  0  0  0  0  0  0  0  0
  -25.7602  -28.9118   21.3630 C   0  0  0  0  0  0  0  0  0  0  0  0
  -29.1194  -23.4625   20.5066 C   0  0  0  0  0  0  0  0  0  0  0  0
  -26.3330  -11.1922   22.8541 C   0  0  0  0  0  0  0  0  0  0  0  0
  -26.9453  -27.1283   20.2120 C   0  0  0  0  0  0  0  0  0  0  0  0
  -26.0655   -9.0125   23.6904 C   0  0  0  0  0  0  0  0  0  0  0  0
  -24.5480   -6.6768   23.8466 C   0  0  0  0  0  0  0  0  0  0  0  0
  -26.6047   -7.8004   23.2593 C   0  0  0  0  0  0  0  0  0  0  0  0
  -24.8264  -14.3626   20.4925 C   0  0  0  0  0  0  0  0  0  0  0  0
  -29.1807  -23.1903   19.1494 C   0  0  0  0  0  0  0  0  0  0  0  0
  -28.3028  -21.0873   19.4405 C   0  0  0  0  0  0  0  0  0  0  0  0
  -23.5354  -15.8711   19.5477 C   0  0  0  0  0  0  0  0  0  0  0  0
  -22.3563  -14.4199   21.2066 C   0  0  0  0  0  0  0  0  0  0  0  0
  -26.0810  -32.2962   21.6298 C   0  0  0  0  0  0  0  0  0  0  0  0
  -23.7095  -31.2557   23.5832 C   0  0  0  0  0  0  0  0  0  0  0  0
  -21.9437  -28.6237   24.8486 C   0  0  0  0  0  0  0  0  0  0  0  0
  -27.8854  -19.4566   17.5662 C   0  0  0  0  0  0  0  0  0  0  0  0
  -26.7867  -37.3481   21.4365 C   0  0  0  0  0  0  0  0  0  0  0  0
  -24.7514  -30.8286   20.0696 C   0  0  0  0  0  0  0  0  0  0  0  0
  -25.2641  -29.4964   22.6594 C   0  0  0  0  0  0  0  0  0  0  0  0
  -26.3449  -36.3475   22.5013 C   0  0  0  0  0  0  0  0  0  0  0  0
  -25.8489  -17.2939   15.6034 C   0  0  0  0  0  0  0  0  0  0  0  0
  -27.3064  -35.1644   22.5537 C   0  0  0  0  0  0  0  0  0  0  0  0
  -30.3099  -23.7799   16.9019 C   0  0  0  0  0  0  0  0  0  0  0  0
  -31.1973  -24.3101   17.9843 C   0  0  0  0  0  0  0  0  0  0  0  0
  -25.2307  -16.3450   16.6328 C   0  0  0  0  0  0  0  0  0  0  0  0
  -27.2894  -17.6568   15.9599 C   0  0  0  0  0  0  0  0  0  0  0  0
  -26.8617  -17.2305   18.3483 C   0  0  0  0  0  0  0  0  0  0  0  0
  -27.3268  -34.4104   21.2186 C   0  0  1  0  0  0  0  0  0  0  0  0
  -29.7121  -24.2236   18.2095 C   0  0  0  0  0  0  0  0  0  0  0  0
  -24.7698  -31.6053   21.3825 C   0  0  1  0  0  0  0  0  0  0  0  0
  -25.3896  -16.8879   18.0665 C   0  0  2  0  0  0  0  0  0  0  0  0
  -20.0920  -28.0835   26.4538 C   0  0  0  0  0  0  0  0  0  0  0  0
  -25.6122  -31.7055   25.9257 C   0  0  0  0  0  0  0  0  0  0  0  0
  -24.1010  -30.2912   27.3344 C   0  0  0  0  0  0  0  0  0  0  0  0
  -23.2525  -32.4189   26.3466 C   0  0  0  0  0  0  0  0  0  0  0  0
  -20.2766  -27.4412   22.7082 C   0  0  0  0  0  0  0  0  0  0  0  0
  -29.5738  -24.7804   21.0853 C   0  0  0  0  0  0  0  0  0  0  0  0
  -28.4046  -25.6972   21.4279 C   0  0  0  0  0  0  0  0  0  1  0  0
  -23.6488  -30.4256   24.8427 C   0  0  1  0  0  0  0  0  0  0  0  0
  -20.4515  -28.3961   25.0096 C   0  0  2  0  0  0  0  0  0  0  0  0
  -24.1648  -31.2000   26.0883 C   0  0  0  0  0  0  0  0  0  0  0  0
  -25.6354  -15.0191   19.6566 N   0  0  0  0  0  0  0  0  0  0  0  0
  -28.7839  -22.0240   18.5928 N   0  0  0  0  0  0  0  0  0  0  0  0
  -24.8212  -15.9299   19.0967 N   0  0  0  0  0  0  0  0  0  0  0  0
  -24.5091  -30.7552   22.5459 N   0  0  0  0  0  0  0  0  0  0  0  0
  -27.3621  -18.1677   17.3305 N   0  0  0  0  0  0  0  0  0  0  0  0
  -22.5864  -16.7149   19.0897 N   0  0  0  0  0  0  0  0  0  0  0  0
  -22.5019  -13.3573   22.1088 N   0  0  0  0  0  0  0  0  0  0  0  0
  -27.8741  -19.8476   18.9047 N   0  0  0  0  0  0  0  0  0  0  0  0
  -26.1561  -33.5685   21.0958 N   0  0  0  0  0  0  0  0  0  0  0  0
  -22.2715  -29.9586   24.9577 N   0  0  0  0  0  0  0  0  0  0  0  0
  -20.0063  -27.2575   24.1574 N   0  3  0  0  0  0  0  0  0  0  0  0
  -21.2291  -14.9505   21.0599 O   0  0  0  0  0  0  0  0  0  0  0  0
  -26.9590  -31.7184   22.2598 O   0  0  0  0  0  0  0  0  0  0  0  0
  -23.0654  -32.3058   23.5194 O   0  0  0  0  0  0  0  0  0  0  0  0
  -22.7395  -27.7084   24.6499 O   0  0  0  0  0  0  0  0  0  0  0  0
  -28.2870  -20.1724   16.6452 O   0  0  0  0  0  0  0  0  0  0  0  0
  -26.8178  -10.1726   23.6143 O   0  0  0  0  0  0  0  0  0  0  0  0
  -27.6345  -25.9557   20.2546 O   0  0  0  0  0  0  0  0  0  1  0  0
  -23.8199   -5.5552   23.9230 F   0  0  0  0  0  0  0  0  0  0  0  0
  -27.8514   -7.7515   22.7703 F   0  0  0  0  0  0  0  0  0  0  0  0
  1  2  1  0  0  0  0
  1  5  2  0  0  0  0
  2  6  2  0  0  0  0
  3  9  2  0  0  0  0
  3 17  1  0  0  0  0
  4 10  1  0  0  0  0
  4 17  2  0  0  0  0
  5 19  1  0  0  0  0
  6 21  1  0  0  0  0
  7 11  2  0  0  0  0
  7 20  1  0  0  0  0
  8 14  2  0  0  0  0
  8 23  1  0  0  0  0
  9 24  1  0  0  0  0
 10 24  2  0  0  0  0
 11 25  1  0  0  0  0
 12 13  2  0  0  0  0
 12 26  1  0  0  0  0
 13 27  1  0  0  0  0
 14 31  1  0  0  0  0
 15 22  1  0  0  0  0
 15 25  2  0  0  0  0
 16 27  2  0  0  0  0
 16 28  1  0  0  0  0
 17 29  1  0  0  0  0
 18 29  1  0  0  0  0
 18 32  2  0  0  0  0
 18 33  1  0  0  0  0
 19 21  2  0  0  0  0
 19 38  1  0  0  0  0
 20 22  2  0  0  0  0
 20 39  1  0  0  0  0
 21 49  1  0  0  0  0
 22 40  1  0  0  0  0
 23 30  2  0  0  0  0
 23 58  1  0  0  0  0
 24 79  1  0  0  0  0
 25 80  1  0  0  0  0
 26 28  2  0  0  0  0
 26 79  1  0  0  0  0
 27 81  1  0  0  0  0
 28 82  1  0  0  0  0
 29 63  2  0  0  0  0
 30 50  1  0  0  0  0
 30 64  1  0  0  0  0
 31 64  2  0  0  0  0
 31 70  1  0  0  0  0
 32 65  1  0  0  0  0
 32 68  1  0  0  0  0
 33 69  1  0  0  0  0
 33 74  2  0  0  0  0
 34 51  1  0  0  0  0
 34 71  1  0  0  0  0
 34 75  2  0  0  0  0
 35 60  1  0  0  0  0
 35 66  1  0  0  0  0
 35 76  2  0  0  0  0
 36 61  1  0  0  0  0
 36 72  1  0  0  0  0
 36 77  2  0  0  0  0
 37 67  1  0  0  0  0
 37 70  1  0  0  0  0
 37 78  2  0  0  0  0
 38 41  1  0  0  0  0
 39 51  1  0  0  0  0
 40 66  1  0  0  0  0
 41 43  1  0  0  0  0
 42 46  1  0  0  0  0
 42 47  1  0  0  0  0
 43 49  1  0  0  0  0
 44 45  1  0  0  0  0
 44 50  1  0  0  0  0
 45 50  1  0  0  0  0
 46 52  1  0  0  0  0
 47 67  1  0  0  0  0
 48 52  1  0  0  0  0
 48 67  1  0  0  0  0
 49 71  1  0  0  0  0
 51 66  1  0  0  0  0
 52 65  1  0  0  0  0
 53 61  1  0  0  0  0
 54 62  1  0  0  0  0
 55 62  1  0  0  0  0
 56 62  1  0  0  0  0
 57 73  1  0  0  0  0
 58 59  1  0  0  0  0
 59 80  1  0  0  0  0
 60 62  1  0  0  0  0
 60 72  1  0  0  0  0
 61 73  1  0  0  0  0
 63 65  1  0  0  0  0
M  CHG  1  73   1
M  ISO  4  37 100  59 101  70 100  80 101
M  END
> <Batch ID>
0179

> <Smiles>
CNC(C)C(=O)NC(C(=O)N1Cc2cc([101O:1][101CH2:1]Cc3ccc([100NH:0][100C:0](=O)N4CCCC(n5nc(-c6ccc(Oc7ccc(F)cc7F)cc6)c(C(N)=O)c5N)C4)nc3C3CC3)ccc2CC1C(=O)NC1CCCc2ccccc21)C(C)(C)C

> <Shape>
0.224

> <Color>
0.090

> <Negative vol penalty>
0.000

$$$$

  -OEChem-04052322573D

 84 93  0     1  0  0  0  0  0999 V2000
  -28.1022  -20.6745   19.5100 C   0  0  0  0  0  0  0  0  0  0  0  0
  -26.9007  -21.3759   19.5024 C   0  0  0  0  0  0  0  0  0  0  0  0
  -26.2755  -12.6222   21.1627 C   0  0  0  0  0  0  0  0  0  0  0  0
  -25.3876  -13.5423   19.1127 C   0  0  0  0  0  0  0  0  0  0  0  0
  -29.1733  -21.1372   20.2733 C   0  0  0  0  0  0  0  0  0  0  0  0
  -26.7693  -22.5398   20.2590 C   0  0  0  0  0  0  0  0  0  0  0  0
  -23.5113  -27.5206   18.8159 C   0  0  0  0  0  0  0  0  0  0  0  0
  -25.6914  -11.3915   20.8633 C   0  0  0  0  0  0  0  0  0  0  0  0
  -24.8035  -12.3115   18.8133 C   0  0  0  0  0  0  0  0  0  0  0  0
  -22.2416  -27.9535   19.1958 C   0  0  0  0  0  0  0  0  0  0  0  0
  -24.1315   -8.1070   20.8133 C   0  0  0  0  0  0  0  0  0  0  0  0
  -23.4563   -7.4418   21.8366 C   0  0  0  0  0  0  0  0  0  0  0  0
  -23.2302  -29.3220   20.9188 C   0  0  0  0  0  0  0  0  0  0  0  0
  -21.9471   -9.3154   22.0586 C   0  0  0  0  0  0  0  0  0  0  0  0
  -26.1236  -13.6977   20.2874 C   0  0  0  0  0  0  0  0  0  0  0  0
  -28.0138  -15.4100   20.2362 C   0  0  0  0  0  0  0  0  0  0  0  0
  -29.0581  -22.3127   21.0320 C   0  0  0  0  0  0  0  0  0  0  0  0
  -24.6512  -27.9776   19.4929 C   0  0  0  0  0  0  0  0  0  0  0  0
  -27.8395  -23.0179   21.0342 C   0  0  0  0  0  0  0  0  0  0  0  0
  -24.5134  -28.8955   20.5440 C   0  0  0  0  0  0  0  0  0  0  0  0
  -24.9554  -11.2361   19.6886 C   0  0  0  0  0  0  0  0  0  0  0  0
  -22.1007  -28.8520   20.2492 C   0  0  0  0  0  0  0  0  0  0  0  0
  -23.7146   -9.3764   20.4127 C   0  0  0  0  0  0  0  0  0  0  0  0
  -22.3641   -8.0460   22.4593 C   0  0  0  0  0  0  0  0  0  0  0  0
  -22.6224   -9.9806   21.0353 C   0  0  0  0  0  0  0  0  0  0  0  0
  -26.7262  -14.9695   20.5964 C   0  0  0  0  0  0  0  0  0  0  0  0
  -28.1041  -16.6748   20.7638 C   0  0  0  0  0  0  0  0  0  0  0  0
  -18.3850  -28.2139   22.8746 C   0  0  0  0  0  0  0  0  0  0  0  0
  -20.1212  -26.7973   22.9987 C   0  0  0  0  0  0  0  0  0  0  0  0
  -20.1936  -28.5399   21.5864 C   0  0  0  0  0  0  0  0  0  1  0  0
  -29.0368  -14.7360   19.4912 C   0  0  0  0  0  0  0  0  0  0  0  0
  -26.9451  -26.5988   21.2077 C   0  0  0  0  0  0  0  0  0  0  0  0
  -28.2229  -29.5802   21.1760 C   0  0  0  0  0  0  0  0  0  0  0  0
  -27.7258  -32.9421   20.8644 C   0  0  0  0  0  0  0  0  0  0  0  0
  -23.9830  -20.6963   22.0673 C   0  0  0  0  0  0  0  0  0  0  0  0
  -30.2280  -22.7478   21.8786 C   0  0  0  0  0  0  0  0  0  0  0  0
  -26.0156  -27.5218   19.0537 C   0  0  0  0  0  0  0  0  0  0  0  0
  -25.7068  -29.4319   21.2899 C   0  0  0  0  0  0  0  0  0  0  0  0
  -30.1286  -24.1938   22.3578 C   0  0  0  0  0  0  0  0  0  0  0  0
  -26.4424  -19.3593   24.3610 C   0  0  0  0  0  0  0  0  0  0  0  0
  -28.7346  -24.4795   22.9072 C   0  0  0  0  0  0  0  0  0  0  0  0
  -26.9155  -18.1145   23.6080 C   0  0  0  0  0  0  0  0  0  0  0  0
  -21.6469  -22.6613   21.7211 C   0  0  0  0  0  0  0  0  0  0  0  0
  -24.9451  -19.5840   24.1720 C   0  0  0  0  0  0  0  0  0  0  0  0
  -24.9818  -18.4293   21.9951 C   0  0  0  0  0  0  0  0  0  0  0  0
  -20.9982  -24.0316   21.6024 C   0  0  0  0  0  0  0  0  0  0  0  0
  -22.7178  -24.0173   23.3421 C   0  0  0  0  0  0  0  0  0  0  0  0
  -27.6662  -24.2981   21.8223 C   0  0  1  0  0  0  0  0  0  0  0  0
  -27.0710  -27.6556   20.1471 C   0  0  1  0  0  0  0  0  0  0  0  0
  -26.4918  -18.1602   22.1280 C   0  0  2  0  0  0  0  0  0  0  0  0
  -23.0197  -22.9595   22.2991 C   0  0  1  0  0  0  0  0  0  0  0  0
  -17.0259  -28.6324   23.3227 C   0  0  0  0  0  0  0  0  0  0  0  0
  -28.9554  -35.1289   20.9225 C   0  0  0  0  0  0  0  0  0  0  0  0
  -28.3695  -29.4141   24.2192 C   0  0  0  0  0  0  0  0  0  0  0  0
  -28.6875  -31.8970   24.2698 C   0  0  0  0  0  0  0  0  0  0  0  0
  -30.3707  -30.4486   23.1333 C   0  0  0  0  0  0  0  0  0  0  0  0
  -26.9797  -33.5685   18.0698 C   0  0  0  0  0  0  0  0  0  0  0  0
  -20.7582  -25.5849   23.5882 C   0  0  0  0  0  0  0  0  0  0  0  0
  -28.1103  -30.8010   22.0569 C   0  0  1  0  0  0  0  0  0  0  0  0
  -28.4486  -33.9955   20.0443 C   0  0  2  0  0  0  0  0  0  0  0  0
  -28.8617  -30.6287   23.4072 C   0  0  0  0  0  0  0  0  0  0  0  0
  -26.0473  -15.8805   21.2987 N   0  0  0  0  0  0  0  0  0  0  0  0
  -18.8963  -27.1131   23.4491 N   0  0  0  0  0  0  0  0  0  0  0  0
  -18.9737  -28.9763   21.9390 N   0  0  0  0  0  0  0  0  0  0  0  0
  -20.8299  -27.4616   22.0716 N   0  0  0  0  0  0  0  0  0  0  0  0
  -26.9117  -16.9060   21.3841 N   0  0  0  0  0  0  0  0  0  0  0  0
  -27.0192  -28.9514   20.8271 N   0  0  0  0  0  0  0  0  0  0  0  0
  -24.6110  -19.6360   22.7417 N   0  0  0  0  0  0  0  0  0  0  0  0
  -29.0865  -17.6008   20.7530 N   0  0  0  0  0  0  0  0  0  0  0  0
  -28.7786  -13.4406   19.0225 N   0  0  0  0  0  0  0  0  0  0  0  0
  -27.6481  -25.4410   20.9346 N   0  0  0  0  0  0  0  0  0  0  0  0
  -28.5742  -31.9276   21.2544 N   0  0  0  0  0  0  0  0  0  0  0  0
  -23.6584  -21.7991   22.8479 N   0  0  0  0  0  0  0  0  0  0  0  0
  -21.6893  -24.8876   22.6493 N   0  3  2  0  0  0  0  0  0  0  0  0
  -27.5343  -34.5696   19.0171 N   0  3  0  0  0  0  0  0  0  0  0  0
  -30.1531  -15.2605   19.2623 O   0  0  0  0  0  0  0  0  0  0  0  0
  -26.2619  -26.8182   22.2011 O   0  0  0  0  0  0  0  0  0  0  0  0
  -29.3371  -29.2027   20.8051 O   0  0  0  0  0  0  0  0  0  0  0  0
  -26.5292  -33.0141   21.1353 O   0  0  0  0  0  0  0  0  0  0  0  0
  -23.7346  -20.6650   20.8572 O   0  0  0  0  0  0  0  0  0  0  0  0
  -24.3855  -10.0352   19.3961 O   0  0  0  0  0  0  0  0  0  0  0  0
  -20.8625  -29.2756   20.6224 O   0  0  0  0  0  0  0  0  0  1  0  0
  -21.7148   -7.4065   23.4409 F   0  0  0  0  0  0  0  0  0  0  0  0
  -22.2165  -11.1994   20.6540 F   0  0  0  0  0  0  0  0  0  0  0  0
  1  2  1  0  0  0  0
  1  5  2  0  0  0  0
  2  6  2  0  0  0  0
  3  8  2  0  0  0  0
  3 15  1  0  0  0  0
  4  9  1  0  0  0  0
  4 15  2  0  0  0  0
  5 17  1  0  0  0  0
  6 19  1  0  0  0  0
  7 10  2  0  0  0  0
  7 18  1  0  0  0  0
  8 21  1  0  0  0  0
  9 21  2  0  0  0  0
 10 22  1  0  0  0  0
 11 12  2  0  0  0  0
 11 23  1  0  0  0  0
 12 24  1  0  0  0  0
 13 20  1  0  0  0  0
 13 22  2  0  0  0  0
 14 24  2  0  0  0  0
 14 25  1  0  0  0  0
 15 26  1  0  0  0  0
 16 26  1  0  0  0  0
 16 27  2  0  0  0  0
 16 31  1  0  0  0  0
 17 19  2  0  0  0  0
 17 36  1  0  0  0  0
 18 20  2  0  0  0  0
 18 37  1  0  0  0  0
 19 48  1  0  0  0  0
 20 38  1  0  0  0  0
 21 81  1  0  0  0  0
 22 82  1  0  0  0  0
 23 25  2  0  0  0  0
 23 81  1  0  0  0  0
 24 83  1  0  0  0  0
 25 84  1  0  0  0  0
 26 62  2  0  0  0  0
 27 66  1  0  0  0  0
 27 69  1  0  0  0  0
 28 52  1  0  0  0  0
 28 63  1  0  0  0  0
 28 64  2  0  0  0  0
 29 58  1  0  0  0  0
 29 63  2  0  0  0  0
 29 65  1  0  0  0  0
 30 64  1  0  0  0  0
 30 65  2  0  0  0  0
 30 82  1  0  0  0  0
 31 70  1  0  0  0  0
 31 76  2  0  0  0  0
 32 49  1  0  0  0  0
 32 71  1  0  0  0  0
 32 77  2  0  0  0  0
 33 59  1  0  0  0  0
 33 67  1  0  0  0  0
 33 78  2  0  0  0  0
 34 60  1  0  0  0  0
 34 72  1  0  0  0  0
 34 79  2  0  0  0  0
 35 68  1  0  0  0  0
 35 73  1  0  0  0  0
 35 80  2  0  0  0  0
 36 39  1  0  0  0  0
 37 49  1  0  0  0  0
 38 67  1  0  0  0  0
 39 41  1  0  0  0  0
 40 42  1  0  0  0  0
 40 44  1  0  0  0  0
 41 48  1  0  0  0  0
 42 50  1  0  0  0  0
 43 46  1  0  0  0  0
 43 51  1  0  0  0  0
 44 68  1  0  0  0  0
 45 50  1  0  0  0  0
 45 68  1  0  0  0  0
 46 74  1  0  0  0  0
 47 51  1  0  0  0  0
 47 74  1  0  0  0  0
 48 71  1  0  0  0  0
 49 67  1  0  0  0  0
 50 66  1  0  0  0  0
 51 73  1  0  0  0  0
 53 60  1  0  0  0  0
 54 61  1  0  0  0  0
 55 61  1  0  0  0  0
 56 61  1  0  0  0  0
 57 75  1  0  0  0  0
 58 74  1  0  0  0  0
 59 61  1  0  0  0  0
 59 72  1  0  0  0  0
 60 75  1  0  0  0  0
 62 66  1  0  0  0  0
M  CHG  2  74   1  75   1
M  ISO  4  30 101  35 100  73 100  82 101
M  END
> <Batch ID>
0179

> <Smiles>
CNC(C)C(=O)NC(C(=O)N1Cc2cc([101O:1][101c:1]3nc(C)nc(CN4CCC([100NH:0][100C:0](=O)N5CCCC(n6nc(-c7ccc(Oc8ccc(F)cc8F)cc7)c(C(N)=O)c6N)C5)C4)n3)ccc2CC1C(=O)NC1CCCc2ccccc21)C(C)(C)C

> <Shape>
0.242

> <Color>
0.061

> <Negative vol penalty>
0.000

$$$$

  -OEChem-04052322573D

 82 91  0     1  0  0  0  0  0999 V2000
  -28.6599  -33.6958   17.8873 C   0  0  0  0  0  0  0  0  0  0  0  0
  -29.2368  -32.5012   17.4684 C   0  0  0  0  0  0  0  0  0  0  0  0
  -22.8745   -9.9132   20.0525 C   0  0  0  0  0  0  0  0  0  0  0  0
  -23.5369  -10.0189   22.3735 C   0  0  0  0  0  0  0  0  0  0  0  0
  -27.9132  -33.7331   19.0642 C   0  0  0  0  0  0  0  0  0  0  0  0
  -29.0682  -31.3432   18.2268 C   0  0  0  0  0  0  0  0  0  0  0  0
  -28.4357  -24.2436   17.5111 C   0  0  0  0  0  0  0  0  0  0  0  0
  -22.0251   -8.8458   20.3435 C   0  0  0  0  0  0  0  0  0  0  0  0
  -22.6875   -8.9515   22.6646 C   0  0  0  0  0  0  0  0  0  0  0  0
  -28.9903  -23.0589   17.9933 C   0  0  0  0  0  0  0  0  0  0  0  0
  -22.7161   -5.5858   22.3442 C   0  0  0  0  0  0  0  0  0  0  0  0
  -23.2115   -4.5663   23.1571 C   0  0  0  0  0  0  0  0  0  0  0  0
  -29.0490  -18.4936   20.7031 C   0  0  0  0  0  0  0  0  0  0  0  0
  -27.6138  -23.2249   19.9673 C   0  0  0  0  0  0  0  0  0  0  0  0
  -21.4622   -4.9993   24.7663 C   0  0  0  0  0  0  0  0  0  0  0  0
  -23.6305  -10.4997   21.0675 C   0  0  0  0  0  0  0  0  0  0  0  0
  -29.7670  -17.3916   21.1104 C   0  0  0  0  0  0  0  0  0  0  0  0
  -24.1916  -12.9734   20.7956 C   0  0  0  0  0  0  0  0  0  0  0  0
  -27.7273  -32.5729   19.8323 C   0  0  0  0  0  0  0  0  0  0  0  0
  -27.4723  -24.9349   18.2597 C   0  0  0  0  0  0  0  0  0  0  0  0
  -28.3194  -31.3653   19.4158 C   0  0  0  0  0  0  0  0  0  0  0  0
  -27.0466  -24.4169   19.4912 C   0  0  0  0  0  0  0  0  0  0  0  0
  -30.7555  -17.4641   22.0787 C   0  0  0  0  0  0  0  0  0  0  0  0
  -21.9316   -8.3649   21.6495 C   0  0  0  0  0  0  0  0  0  0  0  0
  -28.5815  -22.5508   19.2228 C   0  0  0  0  0  0  0  0  0  0  0  0
  -21.5937   -6.3122   22.7424 C   0  0  0  0  0  0  0  0  0  0  0  0
  -22.5846   -4.2731   24.3681 C   0  0  0  0  0  0  0  0  0  0  0  0
  -20.9668   -6.0189   23.9534 C   0  0  0  0  0  0  0  0  0  0  0  0
  -24.5085  -11.6020   20.7674 C   0  0  0  0  0  0  0  0  0  0  0  0
  -29.3839  -19.6807   21.3359 C   0  0  0  0  0  0  0  0  0  0  0  0
  -31.0192  -18.6852   22.6470 C   0  0  0  0  0  0  0  0  0  0  0  0
  -25.3579  -13.6028   20.4350 C   0  0  0  0  0  0  0  0  0  0  0  0
  -29.6760  -16.0032   20.6534 C   0  0  0  0  0  0  0  0  0  0  0  0
  -22.9537  -13.6204   21.1190 C   0  0  0  0  0  0  0  0  0  0  0  0
  -27.3111  -27.8150   19.5947 C   0  0  0  0  0  0  0  0  0  0  0  0
  -24.2537  -26.9273   20.2165 C   0  0  0  0  0  0  0  0  0  0  0  0
  -22.0064  -24.3996   20.6718 C   0  0  0  0  0  0  0  0  0  0  0  0
  -30.9704  -13.9112   21.2597 C   0  0  0  0  0  0  0  0  0  0  0  0
  -26.9516  -32.6726   21.1219 C   0  0  0  0  0  0  0  0  0  0  0  0
  -26.8643  -26.1975   17.7133 C   0  0  0  0  0  0  0  0  0  0  0  0
  -26.0006  -25.1101   20.3242 C   0  0  0  0  0  0  0  0  0  0  0  0
  -31.3718  -16.1359   22.3036 C   0  0  0  0  0  0  0  0  0  0  0  0
  -26.5074  -31.3196   21.6717 C   0  0  0  0  0  0  0  0  0  0  0  0
  -29.6607  -11.7824   18.5305 C   0  0  0  0  0  0  0  0  0  0  0  0
  -27.6622  -30.3236   21.6358 C   0  0  0  0  0  0  0  0  0  0  0  0
  -28.1964  -11.5973   18.9234 C   0  0  0  0  0  0  0  0  0  0  0  0
  -30.5509  -12.0012   19.7500 C   0  0  0  0  0  0  0  0  0  0  0  0
  -28.6417  -12.9443   21.0139 C   0  0  0  0  0  0  0  0  0  0  0  0
  -28.1385  -30.0827   20.1982 C   0  0  1  0  0  0  0  0  0  0  0  0
  -26.2653  -27.0895   18.7963 C   0  0  1  0  0  0  0  0  0  0  0  0
  -27.7165  -12.7657   19.8006 C   0  0  2  0  0  0  0  0  0  0  0  0
  -32.0740  -18.8307   23.6888 C   0  0  0  0  0  0  0  0  0  0  0  0
  -19.5893  -23.9848   21.2037 C   0  0  0  0  0  0  0  0  0  0  0  0
  -24.7834  -27.6085   23.1432 C   0  0  0  0  0  0  0  0  0  0  0  0
  -22.7295  -26.3094   23.7449 C   0  0  0  0  0  0  0  0  0  0  0  0
  -22.5447  -28.3294   22.2929 C   0  0  0  0  0  0  0  0  0  0  0  0
  -21.5584  -23.0098   18.0976 C   0  0  0  0  0  0  0  0  0  0  0  0
  -28.6578  -20.9308   20.9623 C   0  0  0  0  0  0  0  0  0  1  0  0
  -23.5572  -26.2134   21.3497 C   0  0  1  0  0  0  0  0  0  0  0  0
  -20.6190  -24.1702   20.1000 C   0  0  2  0  0  0  0  0  0  0  0  0
  -23.4248  -27.1029   22.6181 C   0  0  0  0  0  0  0  0  0  0  0  0
  -25.7768  -11.3730   20.4164 N   0  0  0  0  0  0  0  0  0  0  0  0
  -30.3458  -19.8064   22.2938 N   0  0  0  0  0  0  0  0  0  0  0  0
  -26.2670  -12.6089   20.2207 N   0  0  0  0  0  0  0  0  0  0  0  0
  -30.5770  -15.2487   21.4478 N   0  0  0  0  0  0  0  0  0  0  0  0
  -25.4406  -26.3446   19.7499 N   0  0  0  0  0  0  0  0  0  0  0  0
  -30.0473  -13.0789   20.6028 N   0  0  0  0  0  0  0  0  0  0  0  0
  -25.6842  -14.9039   20.2834 N   0  0  0  0  0  0  0  0  0  0  0  0
  -21.8547  -12.8237   21.4682 N   0  0  0  0  0  0  0  0  0  0  0  0
  -27.2308  -29.1918   19.5077 N   0  0  0  0  0  0  0  0  0  0  0  0
  -22.2843  -25.7427   20.8146 N   0  0  0  0  0  0  0  0  0  0  0  0
  -20.6085  -22.9543   19.2384 N   0  3  0  0  0  0  0  0  0  0  0  0
  -28.9477  -15.6497   19.7435 O   0  0  0  0  0  0  0  0  0  0  0  0
  -22.8213  -14.8672   21.0830 O   0  0  0  0  0  0  0  0  0  0  0  0
  -28.1295  -27.1733   20.2430 O   0  0  0  0  0  0  0  0  0  0  0  0
  -23.7591  -27.9598   19.7573 O   0  0  0  0  0  0  0  0  0  0  0  0
  -22.7661  -23.4795   20.9661 O   0  0  0  0  0  0  0  0  0  0  0  0
  -32.0883  -13.5172   21.6111 O   0  0  0  0  0  0  0  0  0  0  0  0
  -21.1026   -7.3235   21.9339 O   0  0  0  0  0  0  0  0  0  0  0  0
  -29.1255  -21.3868   19.6995 O   0  0  0  0  0  0  0  0  0  1  0  0
  -23.0595   -3.2930   25.1479 F   0  0  0  0  0  0  0  0  0  0  0  0
  -19.8875   -6.7124   24.3407 F   0  0  0  0  0  0  0  0  0  0  0  0
  1  2  1  0  0  0  0
  1  5  2  0  0  0  0
  2  6  2  0  0  0  0
  3  8  2  0  0  0  0
  3 16  1  0  0  0  0
  4  9  1  0  0  0  0
  4 16  2  0  0  0  0
  5 19  1  0  0  0  0
  6 21  1  0  0  0  0
  7 10  2  0  0  0  0
  7 20  1  0  0  0  0
  8 24  1  0  0  0  0
  9 24  2  0  0  0  0
 10 25  1  0  0  0  0
 11 12  2  0  0  0  0
 11 26  1  0  0  0  0
 12 27  1  0  0  0  0
 13 17  2  0  0  0  0
 13 30  1  0  0  0  0
 14 22  1  0  0  0  0
 14 25  2  0  0  0  0
 15 27  2  0  0  0  0
 15 28  1  0  0  0  0
 16 29  1  0  0  0  0
 17 23  1  0  0  0  0
 17 33  1  0  0  0  0
 18 29  1  0  0  0  0
 18 32  2  0  0  0  0
 18 34  1  0  0  0  0
 19 21  2  0  0  0  0
 19 39  1  0  0  0  0
 20 22  2  0  0  0  0
 20 40  1  0  0  0  0
 21 49  1  0  0  0  0
 22 41  1  0  0  0  0
 23 31  2  0  0  0  0
 23 42  1  0  0  0  0
 24 79  1  0  0  0  0
 25 80  1  0  0  0  0
 26 28  2  0  0  0  0
 26 79  1  0  0  0  0
 27 81  1  0  0  0  0
 28 82  1  0  0  0  0
 29 62  2  0  0  0  0
 30 58  1  0  0  0  0
 30 63  2  0  0  0  0
 31 52  1  0  0  0  0
 31 63  1  0  0  0  0
 32 64  1  0  0  0  0
 32 68  1  0  0  0  0
 33 65  1  0  0  0  0
 33 73  2  0  0  0  0
 34 69  1  0  0  0  0
 34 74  2  0  0  0  0
 35 50  1  0  0  0  0
 35 70  1  0  0  0  0
 35 75  2  0  0  0  0
 36 59  1  0  0  0  0
 36 66  1  0  0  0  0
 36 76  2  0  0  0  0
 37 60  1  0  0  0  0
 37 71  1  0  0  0  0
 37 77  2  0  0  0  0
 38 65  1  0  0  0  0
 38 67  1  0  0  0  0
 38 78  2  0  0  0  0
 39 43  1  0  0  0  0
 40 50  1  0  0  0  0
 41 66  1  0  0  0  0
 42 65  1  0  0  0  0
 43 45  1  0  0  0  0
 44 46  1  0  0  0  0
 44 47  1  0  0  0  0
 45 49  1  0  0  0  0
 46 51  1  0  0  0  0
 47 67  1  0  0  0  0
 48 51  1  0  0  0  0
 48 67  1  0  0  0  0
 49 70  1  0  0  0  0
 50 66  1  0  0  0  0
 51 64  1  0  0  0  0
 53 60  1  0  0  0  0
 54 61  1  0  0  0  0
 55 61  1  0  0  0  0
 56 61  1  0  0  0  0
 57 72  1  0  0  0  0
 58 80  1  0  0  0  0
 59 61  1  0  0  0  0
 59 71  1  0  0  0  0
 60 72  1  0  0  0  0
 62 64  1  0  0  0  0
M  CHG  1  72   1
M  ISO  4  38 100  58 101  65 100  80 101
M  END
> <Batch ID>
0179

> <Smiles>
CNC(C)C(=O)NC(C(=O)N1Cc2cc([101O:1][101CH2:1]c3cc4c(c(C)n3)C[100N:0]([100C:0](=O)N3CCCC(n5nc(-c6ccc(Oc7ccc(F)cc7F)cc6)c(C(N)=O)c5N)C3)C4=O)ccc2CC1C(=O)NC1CCCc2ccccc21)C(C)(C)C

> <Shape>
0.307

> <Color>
0.189

> <Negative vol penalty>
0.000

$$$$

  -OEChem-04052322573D

 82 91  0     1  0  0  0  0  0999 V2000
  -26.6273  -37.3508   17.8960 C   0  0  0  0  0  0  0  0  0  0  0  0
  -27.2056  -36.0855   17.9071 C   0  0  0  0  0  0  0  0  0  0  0  0
  -23.3486  -10.1685   21.9693 C   0  0  0  0  0  0  0  0  0  0  0  0
  -24.0028   -9.2139   19.8485 C   0  0  0  0  0  0  0  0  0  0  0  0
  -25.7909  -37.7429   18.9403 C   0  0  0  0  0  0  0  0  0  0  0  0
  -26.9487  -35.2120   18.9633 C   0  0  0  0  0  0  0  0  0  0  0  0
  -26.4458  -29.1160   18.6598 C   0  0  0  0  0  0  0  0  0  0  0  0
  -22.4953   -9.0879   22.1925 C   0  0  0  0  0  0  0  0  0  0  0  0
  -23.1495   -8.1333   20.0717 C   0  0  0  0  0  0  0  0  0  0  0  0
  -27.3445  -28.0859   18.9335 C   0  0  0  0  0  0  0  0  0  0  0  0
  -20.4157   -6.4011   23.4853 C   0  0  0  0  0  0  0  0  0  0  0  0
  -20.4304   -5.8136   24.7503 C   0  0  0  0  0  0  0  0  0  0  0  0
  -26.4137  -27.8705   21.1485 C   0  0  0  0  0  0  0  0  0  0  0  0
  -22.7726   -5.2868   24.4783 C   0  0  0  0  0  0  0  0  0  0  0  0
  -26.2170  -23.7597   19.3578 C   0  0  0  0  0  0  0  0  0  0  0  0
  -24.1023  -10.2315   20.7973 C   0  0  0  0  0  0  0  0  0  0  0  0
  -26.3377  -11.4527   20.9361 C   0  0  0  0  0  0  0  0  0  0  0  0
  -25.5159  -36.8702   20.0049 C   0  0  0  0  0  0  0  0  0  0  0  0
  -25.5300  -29.5392   19.6338 C   0  0  0  0  0  0  0  0  0  0  0  0
  -26.1089  -35.5933   20.0235 C   0  0  0  0  0  0  0  0  0  0  0  0
  -25.5026  -28.9044   20.8838 C   0  0  0  0  0  0  0  0  0  0  0  0
  -27.0225  -22.6634   19.5894 C   0  0  0  0  0  0  0  0  0  0  0  0
  -22.3957   -8.0703   21.2438 C   0  0  0  0  0  0  0  0  0  0  0  0
  -27.3305  -27.4649   20.1789 C   0  0  0  0  0  0  0  0  0  0  0  0
  -21.5794   -6.4313   22.7167 C   0  0  0  0  0  0  0  0  0  0  0  0
  -21.6089   -5.2565   25.2468 C   0  0  0  0  0  0  0  0  0  0  0  0
  -22.7578   -5.8742   23.2133 C   0  0  0  0  0  0  0  0  0  0  0  0
  -24.9836  -11.3477   20.5659 C   0  0  0  0  0  0  0  0  0  0  0  0
  -28.2609  -22.9367   20.1334 C   0  0  0  0  0  0  0  0  0  0  0  0
  -26.7193  -12.6957   20.4933 C   0  0  0  0  0  0  0  0  0  0  0  0
  -27.8133  -25.1651   20.1601 C   0  0  0  0  0  0  0  0  0  1  0  0
  -27.1758  -10.5109   21.6190 C   0  0  0  0  0  0  0  0  0  0  0  0
  -25.0015  -32.2642   21.1826 C   0  0  0  0  0  0  0  0  0  0  0  0
  -22.4282  -30.6586   22.3326 C   0  0  0  0  0  0  0  0  0  0  0  0
  -20.9636  -27.6580   23.0382 C   0  0  0  0  0  0  0  0  0  0  0  0
  -25.7466  -18.0783   20.1466 C   0  0  0  0  0  0  0  0  0  0  0  0
  -24.6431  -37.3560   21.1349 C   0  0  0  0  0  0  0  0  0  0  0  0
  -24.5492  -30.6337   19.3136 C   0  0  0  0  0  0  0  0  0  0  0  0
  -24.5257  -29.3077   21.9568 C   0  0  0  0  0  0  0  0  0  0  0  0
  -24.1232  -36.2333   22.0290 C   0  0  0  0  0  0  0  0  0  0  0  0
  -24.4058  -15.9802   17.4559 C   0  0  0  0  0  0  0  0  0  0  0  0
  -25.2520  -35.2737   22.3919 C   0  0  0  0  0  0  0  0  0  0  0  0
  -24.4959  -14.5967   18.0912 C   0  0  0  0  0  0  0  0  0  0  0  0
  -24.4199  -21.1040   20.7505 C   0  0  0  0  0  0  0  0  0  0  0  0
  -24.0967  -17.0719   18.4811 C   0  0  0  0  0  0  0  0  0  0  0  0
  -23.8757  -19.8975   19.9795 C   0  0  0  0  0  0  0  0  0  0  0  0
  -25.1203  -15.6929   20.2711 C   0  0  0  0  0  0  0  0  0  0  0  0
  -25.8346  -34.6083   21.1391 C   0  0  1  0  0  0  0  0  0  0  0  0
  -24.0045  -31.3303   20.5568 C   0  0  1  0  0  0  0  0  0  0  0  0
  -25.4965  -14.6042   19.2564 C   0  0  1  0  0  0  0  0  0  0  0  0
  -25.8405  -20.6168   20.4265 C   0  0  2  0  0  0  0  0  0  0  0  0
  -29.2173  -21.8282   20.4262 C   0  0  0  0  0  0  0  0  0  0  0  0
  -18.8723  -26.6663   24.0080 C   0  0  0  0  0  0  0  0  0  0  0  0
  -23.3927  -31.3738   25.1377 C   0  0  0  0  0  0  0  0  0  0  0  0
  -21.8629  -29.6085   26.0383 C   0  0  0  0  0  0  0  0  0  0  0  0
  -20.9212  -31.5615   24.8048 C   0  0  0  0  0  0  0  0  0  0  0  0
  -20.3125  -26.2655   20.5092 C   0  0  0  0  0  0  0  0  0  0  0  0
  -26.5559  -21.2678   19.2592 C   0  0  0  0  0  0  0  0  0  0  0  0
  -22.1673  -29.7716   23.5260 C   0  0  1  0  0  0  0  0  0  0  0  0
  -19.5766  -27.1188   22.7383 C   0  0  2  0  0  0  0  0  0  0  0  0
  -22.1059  -30.5723   24.8574 C   0  0  0  0  0  0  0  0  0  0  0  0
  -26.5818  -25.0293   19.6323 N   0  0  0  0  0  0  0  0  0  0  0  0
  -24.5351  -12.4372   19.9366 N   0  0  0  0  0  0  0  0  0  0  0  0
  -28.6905  -24.1803   20.4322 N   0  0  0  0  0  0  0  0  0  0  0  0
  -25.6135  -13.2386   19.9080 N   0  0  0  0  0  0  0  0  0  0  0  0
  -23.5911  -30.3872   21.5978 N   0  0  0  0  0  0  0  0  0  0  0  0
  -25.0002  -17.0106   19.6362 N   0  0  0  0  0  0  0  0  0  0  0  0
  -25.2219  -19.3471   20.0385 N   0  0  0  0  0  0  0  0  0  0  0  0
  -27.8895  -13.3662   20.5516 N   0  0  0  0  0  0  0  0  0  0  0  0
  -26.6238   -9.2812   22.0031 N   0  0  0  0  0  0  0  0  0  0  0  0
  -24.9626  -33.5497   20.6772 N   0  0  0  0  0  0  0  0  0  0  0  0
  -20.9518  -29.0246   23.2214 N   0  0  0  0  0  0  0  0  0  0  0  0
  -19.6622  -25.9571   21.8089 N   0  3  0  0  0  0  0  0  0  0  0  0
  -28.3739  -10.7592   21.8954 O   0  0  0  0  0  0  0  0  0  0  0  0
  -25.7497  -31.8495   22.0601 O   0  0  0  0  0  0  0  0  0  0  0  0
  -21.6260  -31.5546   22.0582 O   0  0  0  0  0  0  0  0  0  0  0  0
  -21.9575  -26.9383   23.1071 O   0  0  0  0  0  0  0  0  0  0  0  0
  -26.8351  -17.9046   20.7103 O   0  0  0  0  0  0  0  0  0  0  0  0
  -21.5633   -7.0156   21.4613 O   0  0  0  0  0  0  0  0  0  0  0  0
  -28.2182  -26.4469   20.4524 O   0  0  0  0  0  0  0  0  0  1  0  0
  -21.6232   -4.6937   26.4623 F   0  0  0  0  0  0  0  0  0  0  0  0
  -23.8792   -5.9013   22.4801 F   0  0  0  0  0  0  0  0  0  0  0  0
  1  2  1  0  0  0  0
  1  5  2  0  0  0  0
  2  6  2  0  0  0  0
  3  8  2  0  0  0  0
  3 16  1  0  0  0  0
  4  9  1  0  0  0  0
  4 16  2  0  0  0  0
  5 18  1  0  0  0  0
  6 20  1  0  0  0  0
  7 10  2  0  0  0  0
  7 19  1  0  0  0  0
  8 23  1  0  0  0  0
  9 23  2  0  0  0  0
 10 24  1  0  0  0  0
 11 12  2  0  0  0  0
 11 25  1  0  0  0  0
 12 26  1  0  0  0  0
 13 21  1  0  0  0  0
 13 24  2  0  0  0  0
 14 26  2  0  0  0  0
 14 27  1  0  0  0  0
 15 22  1  0  0  0  0
 15 62  2  0  0  0  0
 16 28  1  0  0  0  0
 17 28  1  0  0  0  0
 17 30  2  0  0  0  0
 17 32  1  0  0  0  0
 18 20  2  0  0  0  0
 18 37  1  0  0  0  0
 19 21  2  0  0  0  0
 19 38  1  0  0  0  0
 20 48  1  0  0  0  0
 21 39  1  0  0  0  0
 22 29  2  0  0  0  0
 22 58  1  0  0  0  0
 23 79  1  0  0  0  0
 24 80  1  0  0  0  0
 25 27  2  0  0  0  0
 25 79  1  0  0  0  0
 26 81  1  0  0  0  0
 27 82  1  0  0  0  0
 28 63  2  0  0  0  0
 29 52  1  0  0  0  0
 29 64  1  0  0  0  0
 30 65  1  0  0  0  0
 30 69  1  0  0  0  0
 31 62  1  0  0  0  0
 31 64  2  0  0  0  0
 31 80  1  0  0  0  0
 32 70  1  0  0  0  0
 32 74  2  0  0  0  0
 33 49  1  0  0  0  0
 33 71  1  0  0  0  0
 33 75  2  0  0  0  0
 34 59  1  0  0  0  0
 34 66  1  0  0  0  0
 34 76  2  0  0  0  0
 35 60  1  0  0  0  0
 35 72  1  0  0  0  0
 35 77  2  0  0  0  0
 36 67  1  0  0  0  0
 36 68  1  0  0  0  0
 36 78  2  0  0  0  0
 37 40  1  0  0  0  0
 38 49  1  0  0  0  0
 39 66  1  0  0  0  0
 40 42  1  0  0  0  0
 41 43  1  0  0  0  0
 41 45  1  0  0  0  0
 42 48  1  0  0  0  0
 43 50  1  0  0  0  0
 44 46  1  0  0  0  0
 44 51  1  0  0  0  0
 45 67  1  0  0  0  0
 46 68  1  0  0  0  0
 47 50  1  0  0  0  0
 47 67  1  0  0  0  0
 48 71  1  0  0  0  0
 49 66  1  0  0  0  0
 50 65  1  0  0  0  0
 51 58  1  0  0  0  0
 51 68  1  0  0  0  0
 53 60  1  0  0  0  0
 54 61  1  0  0  0  0
 55 61  1  0  0  0  0
 56 61  1  0  0  0  0
 57 73  1  0  0  0  0
 59 61  1  0  0  0  0
 59 72  1  0  0  0  0
 60 73  1  0  0  0  0
 63 65  1  0  0  0  0
M  CHG  1  73   1
M  ISO  4  31 101  36 100  68 100  80 101
M  END
> <Batch ID>
0179

> <Smiles>
CNC(C)C(=O)NC(C(=O)N1Cc2cc([101O:1][101c:1]3ncc(CC4CC[100N:0]4[100C:0](=O)N4CCCC(n5nc(-c6ccc(Oc7ccc(F)cc7F)cc6)c(C(N)=O)c5N)C4)c(C)n3)ccc2CC1C(=O)NC1CCCc2ccccc21)C(C)(C)C

> <Shape>
0.260

> <Color>
0.120

> <Negative vol penalty>
0.000

$$$$

  -OEChem-04052322573D

 82 91  0     1  0  0  0  0  0999 V2000
  -19.8132  -31.0516   21.3131 C   0  0  0  0  0  0  0  0  0  0  0  0
  -21.1340  -30.6187   21.3723 C   0  0  0  0  0  0  0  0  0  0  0  0
  -28.0422  -12.2247   22.2579 C   0  0  0  0  0  0  0  0  0  0  0  0
  -26.1007  -13.3629   21.3791 C   0  0  0  0  0  0  0  0  0  0  0  0
  -18.7816  -30.1921   21.6889 C   0  0  0  0  0  0  0  0  0  0  0  0
  -21.4241  -29.3264   21.8083 C   0  0  0  0  0  0  0  0  0  0  0  0
  -24.8518  -27.0133   18.8850 C   0  0  0  0  0  0  0  0  0  0  0  0
  -27.2285  -11.1862   22.7105 C   0  0  0  0  0  0  0  0  0  0  0  0
  -25.2870  -12.3243   21.8316 C   0  0  0  0  0  0  0  0  0  0  0  0
  -26.1877  -27.3674   19.0684 C   0  0  0  0  0  0  0  0  0  0  0  0
  -24.4575   -9.2007   20.8440 C   0  0  0  0  0  0  0  0  0  0  0  0
  -23.4818   -8.7171   19.9724 C   0  0  0  0  0  0  0  0  0  0  0  0
  -29.7738  -21.6337   17.5301 C   0  0  0  0  0  0  0  0  0  0  0  0
  -26.5253  -25.3822   20.3967 C   0  0  0  0  0  0  0  0  0  0  0  0
  -21.7644   -9.3164   21.5626 C   0  0  0  0  0  0  0  0  0  0  0  0
  -30.0874  -22.6129   16.6096 C   0  0  0  0  0  0  0  0  0  0  0  0
  -27.4783  -13.3132   21.5922 C   0  0  0  0  0  0  0  0  0  0  0  0
  -28.9466  -14.4894   19.8694 C   0  0  0  0  0  0  0  0  0  0  0  0
  -19.0586  -28.8854   22.1206 C   0  0  0  0  0  0  0  0  0  0  0  0
  -24.3389  -25.8447   19.4662 C   0  0  0  0  0  0  0  0  0  0  0  0
  -20.3954  -28.4491   22.1915 C   0  0  0  0  0  0  0  0  0  0  0  0
  -25.1831  -25.0142   20.2171 C   0  0  0  0  0  0  0  0  0  0  0  0
  -25.8509  -11.2360   22.4974 C   0  0  0  0  0  0  0  0  0  0  0  0
  -27.0240  -26.5533   19.8267 C   0  0  0  0  0  0  0  0  0  0  0  0
  -24.0867   -9.7422   22.0749 C   0  0  0  0  0  0  0  0  0  0  0  0
  -22.1352   -8.7749   20.3317 C   0  0  0  0  0  0  0  0  0  0  0  0
  -22.7402   -9.8000   22.4342 C   0  0  0  0  0  0  0  0  0  0  0  0
  -28.3183  -14.3866   21.1249 C   0  0  0  0  0  0  0  0  0  0  0  0
  -30.0104  -21.9578   18.8504 C   0  0  0  0  0  0  0  0  0  0  0  0
  -29.6227  -15.6839   19.9205 C   0  0  0  0  0  0  0  0  0  0  0  0
  -30.7783  -24.0143   18.2605 C   0  0  0  0  0  0  0  0  0  0  0  0
  -28.9214  -13.5860   18.7563 C   0  0  0  0  0  0  0  0  0  0  0  0
  -22.0743  -25.2103   21.6046 C   0  0  0  0  0  0  0  0  0  0  0  0
  -22.7397  -22.1341   20.8195 C   0  0  0  0  0  0  0  0  0  0  0  0
  -24.9805  -19.8817   19.5736 C   0  0  0  0  0  0  0  0  0  0  0  0
  -29.8604  -21.0947   21.2124 C   0  0  0  0  0  0  0  0  0  0  0  0
  -17.9135  -28.0085   22.5615 C   0  0  0  0  0  0  0  0  0  0  0  0
  -22.9022  -25.4630   19.2367 C   0  0  0  0  0  0  0  0  0  0  0  0
  -24.6866  -23.7386   20.8453 C   0  0  0  0  0  0  0  0  0  0  0  0
  -18.2800  -26.5296   22.6557 C   0  0  0  0  0  0  0  0  0  0  0  0
  -30.5618  -18.7729   23.8190 C   0  0  0  0  0  0  0  0  0  0  0  0
  -19.6062  -26.3539   23.3886 C   0  0  0  0  0  0  0  0  0  0  0  0
  -30.0923  -17.4332   23.2472 C   0  0  0  0  0  0  0  0  0  0  0  0
  -30.6680  -26.5953   18.1746 C   0  0  0  0  0  0  0  0  0  0  0  0
  -29.6498  -19.9221   23.3931 C   0  0  0  0  0  0  0  0  0  0  0  0
  -28.9550  -18.6928   21.3744 C   0  0  0  0  0  0  0  0  0  0  0  0
  -20.7487  -27.0462   22.6356 C   0  0  1  0  0  0  0  0  0  0  0  0
  -31.3333  -25.3297   18.6642 C   0  0  1  0  0  0  0  0  0  0  0  0
  -22.3580  -24.5166   20.3023 C   0  0  1  0  0  0  0  0  0  0  0  0
  -29.8794  -17.5147   21.7228 C   0  0  2  0  0  0  0  0  0  0  0  0
  -30.5889  -26.2407   19.6371 C   0  0  1  0  0  0  0  0  0  0  0  0
  -31.4196  -27.0459   20.6027 C   0  0  0  0  0  0  0  0  0  0  0  0
  -25.2519  -17.4342   19.0903 C   0  0  0  0  0  0  0  0  0  0  0  0
  -23.1465  -21.5942   23.7949 C   0  0  0  0  0  0  0  0  0  0  0  0
  -24.3117  -19.4658   23.1782 C   0  0  0  0  0  0  0  0  0  0  0  0
  -21.9159  -19.7962   22.5671 C   0  0  0  0  0  0  0  0  0  0  0  0
  -25.3638  -20.3768   16.6810 C   0  0  0  0  0  0  0  0  0  0  0  0
  -29.2626  -25.8320   20.1793 C   0  0  0  0  0  0  0  0  0  1  0  0
  -23.7011  -21.0857   21.3251 C   0  0  1  0  0  0  0  0  0  0  0  0
  -24.8348  -18.7863   18.5328 C   0  0  2  0  0  0  0  0  0  0  0  0
  -23.2780  -20.5104   22.7062 C   0  0  0  0  0  0  0  0  0  0  0  0
  -30.5931  -23.8190   16.9410 N   0  0  0  0  0  0  0  0  0  0  0  0
  -28.5726  -15.4323   21.9160 N   0  0  0  0  0  0  0  0  0  0  0  0
  -30.5138  -23.1431   19.2528 N   0  0  0  0  0  0  0  0  0  0  0  0
  -29.3684  -16.2035   21.1556 N   0  0  0  0  0  0  0  0  0  0  0  0
  -23.2726  -23.4118   20.5974 N   0  0  0  0  0  0  0  0  0  0  0  0
  -29.4979  -19.9394   21.9366 N   0  0  0  0  0  0  0  0  0  0  0  0
  -30.4040  -16.3299   19.0291 N   0  0  0  0  0  0  0  0  0  0  0  0
  -28.1771  -12.4040   18.8719 N   0  0  0  0  0  0  0  0  0  0  0  0
  -29.7031  -20.9826   19.8314 N   0  0  0  0  0  0  0  0  0  0  0  0
  -21.1656  -26.2465   21.5038 N   0  0  0  0  0  0  0  0  0  0  0  0
  -23.8071  -20.0855   20.2683 N   0  0  0  0  0  0  0  0  0  0  0  0
  -25.6816  -19.0857   17.3436 N   0  3  0  0  0  0  0  0  0  0  0  0
  -29.5538  -13.8121   17.6969 O   0  0  0  0  0  0  0  0  0  0  0  0
  -22.6370  -24.8325   22.6255 O   0  0  0  0  0  0  0  0  0  0  0  0
  -21.5610  -21.8287   20.6219 O   0  0  0  0  0  0  0  0  0  0  0  0
  -26.0314  -20.4928   19.7549 O   0  0  0  0  0  0  0  0  0  0  0  0
  -30.3053  -22.0994   21.7735 O   0  0  0  0  0  0  0  0  0  0  0  0
  -25.0566  -10.2226   22.9387 O   0  0  0  0  0  0  0  0  0  0  0  0
  -28.3282  -26.8968   20.0077 O   0  0  0  0  0  0  0  0  0  1  0  0
  -21.1982   -8.3118   19.4941 F   0  0  0  0  0  0  0  0  0  0  0  0
  -22.3778  -10.3201   23.6148 F   0  0  0  0  0  0  0  0  0  0  0  0
  1  2  1  0  0  0  0
  1  5  2  0  0  0  0
  2  6  2  0  0  0  0
  3  8  2  0  0  0  0
  3 17  1  0  0  0  0
  4  9  1  0  0  0  0
  4 17  2  0  0  0  0
  5 19  1  0  0  0  0
  6 21  1  0  0  0  0
  7 10  2  0  0  0  0
  7 20  1  0  0  0  0
  8 23  1  0  0  0  0
  9 23  2  0  0  0  0
 10 24  1  0  0  0  0
 11 12  2  0  0  0  0
 11 25  1  0  0  0  0
 12 26  1  0  0  0  0
 13 16  1  0  0  0  0
 13 29  2  0  0  0  0
 14 22  1  0  0  0  0
 14 24  2  0  0  0  0
 15 26  2  0  0  0  0
 15 27  1  0  0  0  0
 16 62  2  0  0  0  0
 17 28  1  0  0  0  0
 18 28  1  0  0  0  0
 18 30  2  0  0  0  0
 18 32  1  0  0  0  0
 19 21  2  0  0  0  0
 19 37  1  0  0  0  0
 20 22  2  0  0  0  0
 20 38  1  0  0  0  0
 21 47  1  0  0  0  0
 22 39  1  0  0  0  0
 23 79  1  0  0  0  0
 24 80  1  0  0  0  0
 25 27  2  0  0  0  0
 25 79  1  0  0  0  0
 26 81  1  0  0  0  0
 27 82  1  0  0  0  0
 28 63  2  0  0  0  0
 29 64  1  0  0  0  0
 29 70  1  0  0  0  0
 30 65  1  0  0  0  0
 30 68  1  0  0  0  0
 31 48  1  0  0  0  0
 31 62  1  0  0  0  0
 31 64  2  0  0  0  0
 32 69  1  0  0  0  0
 32 74  2  0  0  0  0
 33 49  1  0  0  0  0
 33 71  1  0  0  0  0
 33 75  2  0  0  0  0
 34 59  1  0  0  0  0
 34 66  1  0  0  0  0
 34 76  2  0  0  0  0
 35 60  1  0  0  0  0
 35 72  1  0  0  0  0
 35 77  2  0  0  0  0
 36 67  1  0  0  0  0
 36 70  1  0  0  0  0
 36 78  2  0  0  0  0
 37 40  1  0  0  0  0
 38 49  1  0  0  0  0
 39 66  1  0  0  0  0
 40 42  1  0  0  0  0
 41 43  1  0  0  0  0
 41 45  1  0  0  0  0
 42 47  1  0  0  0  0
 43 50  1  0  0  0  0
 44 48  1  0  0  0  0
 44 51  1  0  0  0  0
 45 67  1  0  0  0  0
 46 50  1  0  0  0  0
 46 67  1  0  0  0  0
 47 71  1  0  0  0  0
 48 51  1  0  0  0  0
 49 66  1  0  0  0  0
 50 65  1  0  0  0  0
 51 52  1  0  0  0  0
 51 58  1  0  0  0  0
 53 60  1  0  0  0  0
 54 61  1  0  0  0  0
 55 61  1  0  0  0  0
 56 61  1  0  0  0  0
 57 73  1  0  0  0  0
 58 80  1  0  0  0  0
 59 61  1  0  0  0  0
 59 72  1  0  0  0  0
 60 73  1  0  0  0  0
 63 65  1  0  0  0  0
M  CHG  1  73   1
M  ISO  4  36 100  58 101  70 100  80 101
M  END
> <Batch ID>
0179

> <Smiles>
CNC(C)C(=O)NC(C(=O)N1Cc2cc([101O:1][101CH2:1]C3(C)CC3c3nccc([100NH:0][100C:0](=O)N4CCCC(n5nc(-c6ccc(Oc7ccc(F)cc7F)cc6)c(C(N)=O)c5N)C4)n3)ccc2CC1C(=O)NC1CCCc2ccccc21)C(C)(C)C

> <Shape>
0.250

> <Color>
0.060

> <Negative vol penalty>
0.000

$$$$

  -OEChem-04052322573D

 86 95  0     1  0  0  0  0  0999 V2000
  -28.9822  -32.8776   25.4440 C   0  0  0  0  0  0  0  0  0  0  0  0
  -28.8939  -31.6491   24.7971 C   0  0  0  0  0  0  0  0  0  0  0  0
  -22.7148  -10.1646   20.0886 C   0  0  0  0  0  0  0  0  0  0  0  0
  -24.3660   -9.4187   21.6868 C   0  0  0  0  0  0  0  0  0  0  0  0
  -27.8276  -33.4994   25.9174 C   0  0  0  0  0  0  0  0  0  0  0  0
  -27.6509  -31.0413   24.6242 C   0  0  0  0  0  0  0  0  0  0  0  0
  -27.0284  -29.1860   19.9535 C   0  0  0  0  0  0  0  0  0  0  0  0
  -22.0444   -8.9478   20.2133 C   0  0  0  0  0  0  0  0  0  0  0  0
  -23.6956   -8.2019   21.8115 C   0  0  0  0  0  0  0  0  0  0  0  0
  -27.6534  -27.9746   19.6610 C   0  0  0  0  0  0  0  0  0  0  0  0
  -20.9629   -7.0178   23.4086 C   0  0  0  0  0  0  0  0  0  0  0  0
  -20.7684   -6.5157   24.6953 C   0  0  0  0  0  0  0  0  0  0  0  0
  -25.5619  -26.8209   19.9985 C   0  0  0  0  0  0  0  0  0  0  0  0
  -22.0241   -4.5356   24.1123 C   0  0  0  0  0  0  0  0  0  0  0  0
  -23.8757  -10.4000   20.8253 C   0  0  0  0  0  0  0  0  0  0  0  0
  -24.3615  -12.8237   21.4559 C   0  0  0  0  0  0  0  0  0  0  0  0
  -26.5688  -32.9035   25.7417 C   0  0  0  0  0  0  0  0  0  0  0  0
  -25.6656  -29.2228   20.2819 C   0  0  0  0  0  0  0  0  0  0  0  0
  -26.4785  -31.6551   25.0969 C   0  0  0  0  0  0  0  0  0  0  0  0
  -24.9214  -28.0344   20.2922 C   0  0  0  0  0  0  0  0  0  0  0  0
  -26.9662  -22.0291   18.8293 C   0  0  0  0  0  0  0  0  0  0  0  0
  -22.5348   -7.9664   21.0748 C   0  0  0  0  0  0  0  0  0  0  0  0
  -26.9209  -26.7915   19.6863 C   0  0  0  0  0  0  0  0  0  0  0  0
  -21.6879   -6.2788   22.4737 C   0  0  0  0  0  0  0  0  0  0  0  0
  -21.2991   -5.2746   25.0472 C   0  0  0  0  0  0  0  0  0  0  0  0
  -22.2185   -5.0378   22.8256 C   0  0  0  0  0  0  0  0  0  0  0  0
  -24.5689  -11.6566   20.6965 C   0  0  0  0  0  0  0  0  0  0  0  0
  -27.5579  -23.2347   19.1467 C   0  0  0  0  0  0  0  0  0  0  0  0
  -27.8342  -20.9879   18.5709 C   0  0  0  0  0  0  0  0  0  0  0  0
  -25.2622  -13.7280   20.9486 C   0  0  0  0  0  0  0  0  0  0  0  0
  -29.6323  -22.3293   18.9374 C   0  0  0  0  0  0  0  0  0  0  0  0
  -23.4373  -13.0684   22.5243 C   0  0  0  0  0  0  0  0  0  0  0  0
  -23.9977  -30.1038   22.8403 C   0  0  0  0  0  0  0  0  0  0  0  0
  -21.4614  -29.5487   20.8957 C   0  0  0  0  0  0  0  0  0  0  0  0
  -20.2030  -27.9343   18.1650 C   0  0  0  0  0  0  0  0  0  0  0  0
  -27.4258  -16.0444   16.2495 C   0  0  0  0  0  0  0  0  0  0  0  0
  -25.3540  -33.5913   26.3125 C   0  0  0  0  0  0  0  0  0  0  0  0
  -25.0001  -30.5408   20.5687 C   0  0  0  0  0  0  0  0  0  0  0  0
  -23.4511  -28.0223   20.6189 C   0  0  0  0  0  0  0  0  0  0  0  0
  -24.0355  -33.0588   25.7573 C   0  0  0  0  0  0  0  0  0  0  0  0
  -29.1292  -13.1255   17.7537 C   0  0  0  0  0  0  0  0  0  0  0  0
  -24.0314  -31.5334   25.7622 C   0  0  0  0  0  0  0  0  0  0  0  0
  -28.0469  -12.5421   18.6618 C   0  0  0  0  0  0  0  0  0  0  0  0
  -28.5318  -13.8611   16.5574 C   0  0  0  0  0  0  0  0  0  0  0  0
  -26.4422  -19.6161   17.0617 C   0  0  0  0  0  0  0  0  0  0  0  0
  -26.9278  -18.4483   16.2102 C   0  0  0  0  0  0  0  0  0  0  0  0
  -26.4654  -14.3240   17.8285 C   0  0  0  0  0  0  0  0  0  0  0  0
  -26.9151  -17.2903   18.4094 C   0  0  0  0  0  0  0  0  0  0  0  0
  -25.1457  -30.9758   24.8683 C   0  0  1  0  0  0  0  0  0  0  0  0
  -23.7240  -30.3991   21.3927 C   0  0  1  0  0  0  0  0  0  0  0  0
  -27.0324  -13.6242   19.0721 C   0  0  1  0  0  0  0  0  0  0  0  0
  -27.6462  -18.5189   18.9871 C   0  0  2  0  0  0  0  0  0  0  0  0
  -25.4868  -21.8724   18.7719 C   0  0  0  0  0  0  0  0  0  0  0  0
  -31.1128  -22.4960   18.9975 C   0  0  0  0  0  0  0  0  0  0  0  0
  -27.2678  -18.6444   20.4679 C   0  0  0  0  0  0  0  0  0  0  0  0
  -18.0870  -27.6501   16.8462 C   0  0  0  0  0  0  0  0  0  0  0  0
  -20.3568  -27.7131   23.0684 C   0  0  0  0  0  0  0  0  0  0  0  0
  -18.7964  -26.7499   21.3638 C   0  0  0  0  0  0  0  0  0  0  0  0
  -18.6483  -29.1669   21.9629 C   0  0  0  0  0  0  0  0  0  0  0  0
  -21.4447  -29.0367   15.7151 C   0  0  0  0  0  0  0  0  0  0  0  0
  -26.7197  -24.4340   19.4460 C   0  0  0  0  0  0  0  0  0  1  0  0
  -20.5998  -28.3505   20.5782 C   0  0  1  0  0  0  0  0  0  0  0  0
  -19.3828  -28.4333   16.9891 C   0  0  2  0  0  0  0  0  0  0  0  0
  -19.6285  -27.9948   21.7390 C   0  0  0  0  0  0  0  0  0  0  0  0
  -25.5262  -11.8032   19.7767 N   0  0  0  0  0  0  0  0  0  0  0  0
  -28.8926  -23.4210   19.2101 N   0  0  0  0  0  0  0  0  0  0  0  0
  -29.1777  -21.1031   18.6159 N   0  0  0  0  0  0  0  0  0  0  0  0
  -25.9282  -13.0732   19.9547 N   0  0  0  0  0  0  0  0  0  0  0  0
  -27.2961  -19.7444   18.2442 N   0  0  3  0  0  0  0  0  0  0  0  0
  -22.8472  -29.3356   20.8984 N   0  0  0  0  0  0  0  0  0  0  0  0
  -27.5423  -14.8525   16.9797 N   0  0  0  0  0  0  0  0  0  0  0  0
  -27.0331  -17.1959   16.9513 N   0  0  0  0  0  0  0  0  0  0  0  0
  -25.5415  -15.0115   21.2601 N   0  0  0  0  0  0  0  0  0  0  0  0
  -22.5836  -12.0298   22.9204 N   0  0  0  0  0  0  0  0  0  0  0  0
  -24.7659  -31.0616   23.4744 N   0  0  0  0  0  0  0  0  0  0  0  0
  -19.9360  -28.6486   19.3138 N   0  0  0  0  0  0  0  0  0  0  0  0
  -20.1565  -28.2968   15.7228 N   0  3  0  0  0  0  0  0  0  0  0  0
  -23.3591  -14.1805   23.0994 O   0  0  0  0  0  0  0  0  0  0  0  0
  -23.5442  -29.0834   23.3450 O   0  0  0  0  0  0  0  0  0  0  0  0
  -20.9250  -30.6354   21.1257 O   0  0  0  0  0  0  0  0  0  0  0  0
  -20.9982  -27.0016   18.0744 O   0  0  0  0  0  0  0  0  0  0  0  0
  -27.6765  -16.0840   15.0378 O   0  0  0  0  0  0  0  0  0  0  0  0
  -21.8807   -6.7791   21.1969 O   0  0  0  0  0  0  0  0  0  0  0  0
  -27.5329  -25.5992   19.3999 O   0  0  0  0  0  0  0  0  0  1  0  0
  -21.1136   -4.7932   26.2833 F   0  0  0  0  0  0  0  0  0  0  0  0
  -22.9170   -4.3238   21.9321 F   0  0  0  0  0  0  0  0  0  0  0  0
  1  2  1  0  0  0  0
  1  5  2  0  0  0  0
  2  6  2  0  0  0  0
  3  8  2  0  0  0  0
  3 15  1  0  0  0  0
  4  9  1  0  0  0  0
  4 15  2  0  0  0  0
  5 17  1  0  0  0  0
  6 19  1  0  0  0  0
  7 10  2  0  0  0  0
  7 18  1  0  0  0  0
  8 22  1  0  0  0  0
  9 22  2  0  0  0  0
 10 23  1  0  0  0  0
 11 12  2  0  0  0  0
 11 24  1  0  0  0  0
 12 25  1  0  0  0  0
 13 20  1  0  0  0  0
 13 23  2  0  0  0  0
 14 25  2  0  0  0  0
 14 26  1  0  0  0  0
 15 27  1  0  0  0  0
 16 27  1  0  0  0  0
 16 30  2  0  0  0  0
 16 32  1  0  0  0  0
 17 19  2  0  0  0  0
 17 37  1  0  0  0  0
 18 20  2  0  0  0  0
 18 38  1  0  0  0  0
 19 49  1  0  0  0  0
 20 39  1  0  0  0  0
 21 28  2  0  0  0  0
 21 29  1  0  0  0  0
 21 53  1  0  0  0  0
 22 83  1  0  0  0  0
 23 84  1  0  0  0  0
 24 26  2  0  0  0  0
 24 83  1  0  0  0  0
 25 85  1  0  0  0  0
 26 86  1  0  0  0  0
 27 65  2  0  0  0  0
 28 61  1  0  0  0  0
 28 66  1  0  0  0  0
 29 67  2  0  0  0  0
 29 69  1  0  0  0  0
 30 68  1  0  0  0  0
 30 73  1  0  0  0  0
 31 54  1  0  0  0  0
 31 66  2  0  0  0  0
 31 67  1  0  0  0  0
 32 74  1  0  0  0  0
 32 78  2  0  0  0  0
 33 50  1  0  0  0  0
 33 75  1  0  0  0  0
 33 79  2  0  0  0  0
 34 62  1  0  0  0  0
 34 70  1  0  0  0  0
 34 80  2  0  0  0  0
 35 63  1  0  0  0  0
 35 76  1  0  0  0  0
 35 81  2  0  0  0  0
 36 71  1  0  0  0  0
 36 72  1  0  0  0  0
 36 82  2  0  0  0  0
 37 40  1  0  0  0  0
 38 50  1  0  0  0  0
 39 70  1  0  0  0  0
 40 42  1  0  0  0  0
 41 43  1  0  0  0  0
 41 44  1  0  0  0  0
 42 49  1  0  0  0  0
 43 51  1  0  0  0  0
 44 71  1  0  0  0  0
 45 46  1  0  0  0  0
 45 69  1  0  0  0  0
 46 72  1  0  0  0  0
 47 51  1  0  0  0  0
 47 71  1  0  0  0  0
 48 52  1  0  0  0  0
 48 72  1  0  0  0  0
 49 75  1  0  0  0  0
 50 70  1  0  0  0  0
 51 68  1  0  0  0  0
 52 55  1  0  0  0  0
 52 69  1  0  0  0  0
 56 63  1  0  0  0  0
 57 64  1  0  0  0  0
 58 64  1  0  0  0  0
 59 64  1  0  0  0  0
 60 77  1  0  0  0  0
 61 84  1  0  0  0  0
 62 64  1  0  0  0  0
 62 76  1  0  0  0  0
 63 77  1  0  0  0  0
 65 68  1  0  0  0  0
M  CHG  1  77   1
M  ISO  4  36 100  61 101  72 100  84 101
M  END
> <Batch ID>
0179

> <Smiles>
CNC(C)C(=O)NC(C(=O)N1Cc2cc([101O:1][101CH2:1]c3nc(C)nc(N4CC[100N:0]([100C:0](=O)N5CCCC(n6nc(-c7ccc(Oc8ccc(F)cc8F)cc7)c(C(N)=O)c6N)C5)CC4C)c3C)ccc2CC1C(=O)NC1CCCc2ccccc21)C(C)(C)C

> <Shape>
0.344

> <Color>
0.170

> <Negative vol penalty>
0.000

$$$$

  -OEChem-04052322573D

 82 91  0     1  0  0  0  0  0999 V2000
  -27.5643  -26.7992   27.8684 C   0  0  0  0  0  0  0  0  0  0  0  0
  -28.1989  -25.7510   27.2095 C   0  0  0  0  0  0  0  0  0  0  0  0
  -23.2864   -9.7966   19.9068 C   0  0  0  0  0  0  0  0  0  0  0  0
  -23.7132   -9.9375   22.2806 C   0  0  0  0  0  0  0  0  0  0  0  0
  -26.6230  -27.5764   27.1948 C   0  0  0  0  0  0  0  0  0  0  0  0
  -27.8918  -25.4788   25.8769 C   0  0  0  0  0  0  0  0  0  0  0  0
  -30.8920  -23.0617   19.8376 C   0  0  0  0  0  0  0  0  0  0  0  0
  -22.5524   -8.6278   20.1081 C   0  0  0  0  0  0  0  0  0  0  0  0
  -22.9791   -8.7686   22.4819 C   0  0  0  0  0  0  0  0  0  0  0  0
  -30.6938  -22.1024   18.8455 C   0  0  0  0  0  0  0  0  0  0  0  0
  -20.2631   -5.8047   20.0396 C   0  0  0  0  0  0  0  0  0  0  0  0
  -19.0420   -5.6834   19.3765 C   0  0  0  0  0  0  0  0  0  0  0  0
  -29.1094  -23.5616   17.7594 C   0  0  0  0  0  0  0  0  0  0  0  0
  -18.2329   -7.6606   20.5049 C   0  0  0  0  0  0  0  0  0  0  0  0
  -23.8669  -10.4515   20.9931 C   0  0  0  0  0  0  0  0  0  0  0  0
  -24.1403  -12.9800   20.7948 C   0  0  0  0  0  0  0  0  0  0  0  0
  -26.3112  -27.3197   25.8503 C   0  0  0  0  0  0  0  0  0  0  0  0
  -30.1910  -24.2758   19.8039 C   0  0  0  0  0  0  0  0  0  0  0  0
  -26.9444  -26.2525   25.1850 C   0  0  0  0  0  0  0  0  0  0  0  0
  -29.3024  -24.5358   18.7508 C   0  0  0  0  0  0  0  0  0  0  0  0
  -22.3987   -8.1137   21.3956 C   0  0  0  0  0  0  0  0  0  0  0  0
  -29.8003  -22.3511   17.8078 C   0  0  0  0  0  0  0  0  0  0  0  0
  -20.4692   -6.8538   20.9355 C   0  0  0  0  0  0  0  0  0  0  0  0
  -18.0269   -6.6114   19.6091 C   0  0  0  0  0  0  0  0  0  0  0  0
  -19.4541   -7.7818   21.1681 C   0  0  0  0  0  0  0  0  0  0  0  0
  -24.6257  -11.6587   20.7857 C   0  0  0  0  0  0  0  0  0  0  0  0
  -28.9199  -15.6935   17.1149 C   0  0  0  0  0  0  0  0  0  0  0  0
  -27.8988  -15.4670   16.2222 C   0  0  0  0  0  0  0  0  0  0  0  0
  -25.2480  -13.7545   20.5506 C   0  0  0  0  0  0  0  0  0  0  0  0
  -27.7951  -17.5406   16.6913 C   0  0  0  0  0  0  0  0  0  0  0  0
  -22.8072  -13.4641   21.0053 C   0  0  0  0  0  0  0  0  0  0  0  0
  -29.9048  -14.7533   17.6652 C   0  0  0  0  0  0  0  0  0  0  0  0
  -28.0960  -25.7103   21.7162 C   0  0  0  0  0  0  0  0  0  0  0  0
  -28.4515  -28.1615   19.6216 C   0  0  0  0  0  0  0  0  0  0  0  0
  -29.2959  -29.1868   16.4779 C   0  0  0  0  0  0  0  0  0  0  0  0
  -25.2524  -28.1572   25.1780 C   0  0  0  0  0  0  0  0  0  0  0  0
  -30.4360  -25.3112   20.8670 C   0  0  0  0  0  0  0  0  0  0  0  0
  -28.5405  -25.8316   18.6577 C   0  0  0  0  0  0  0  0  0  0  0  0
  -25.2581  -28.0394   23.6560 C   0  0  0  0  0  0  0  0  0  0  0  0
  -30.1626  -12.5639   20.4726 C   0  0  0  0  0  0  0  0  0  0  0  0
  -25.3524  -26.5766   23.2341 C   0  0  0  0  0  0  0  0  0  0  0  0
  -28.7065  -12.2241   20.7955 C   0  0  0  0  0  0  0  0  0  0  0  0
  -26.6045  -19.5644   15.5226 C   0  0  0  0  0  0  0  0  0  0  0  0
  -30.3873  -12.7100   18.9697 C   0  0  0  0  0  0  0  0  0  0  0  0
  -28.0206  -13.3310   18.6265 C   0  0  0  0  0  0  0  0  0  0  0  0
  -26.6563  -25.9417   23.7323 C   0  0  1  0  0  0  0  0  0  0  0  0
  -27.3486  -19.0128   16.7195 C   0  0  2  0  0  0  0  0  0  0  0  0
  -29.2849  -26.3017   21.0130 C   0  0  1  0  0  0  0  0  0  0  0  0
  -28.0208  -19.9879   15.7754 C   0  0  2  0  0  0  0  0  0  0  0  0
  -27.7403  -13.2251   20.1345 C   0  0  1  0  0  0  0  0  0  0  0  0
  -27.5122  -14.2053   15.5695 C   0  0  0  0  0  0  0  0  0  0  0  0
  -29.3547  -17.5139   19.7629 C   0  0  0  0  0  0  0  0  0  0  0  0
  -29.4506  -31.2464   15.0527 C   0  0  0  0  0  0  0  0  0  0  0  0
  -25.4160  -28.1725   19.3123 C   0  0  0  0  0  0  0  0  0  0  0  0
  -25.7023  -29.5415   17.2358 C   0  0  0  0  0  0  0  0  0  0  0  0
  -26.4603  -30.4416   19.4353 C   0  0  0  0  0  0  0  0  0  0  0  0
  -32.2072  -28.8335   16.0798 C   0  0  0  0  0  0  0  0  0  0  0  0
  -28.3171  -21.3775   16.2240 C   0  0  0  0  0  0  0  0  0  1  0  0
  -29.7012  -17.7606   18.3047 C   0  0  0  0  0  0  0  0  0  0  0  0
  -27.7728  -28.5791   18.3395 C   0  0  1  0  0  0  0  0  0  0  0  0
  -30.1943  -30.3098   15.9920 C   0  0  2  0  0  0  0  0  0  0  0  0
  -26.3506  -29.1584   18.5832 C   0  0  0  0  0  0  0  0  0  0  0  0
  -25.9395  -11.5936   20.5539 N   0  0  0  0  0  0  0  0  0  0  0  0
  -27.2025  -16.6209   15.9627 N   0  0  0  0  0  0  0  0  0  0  0  0
  -28.8406  -17.0261   17.4063 N   0  0  0  0  0  0  0  0  0  0  0  0
  -26.2890  -12.8838   20.4150 N   0  0  0  0  0  0  0  0  0  0  0  0
  -29.4345  -13.6582   18.3939 N   0  0  0  0  0  0  0  0  0  0  0  0
  -28.8096  -26.8099   19.7246 N   0  0  0  0  0  0  0  0  0  0  0  0
  -25.4234  -15.0885   20.4406 N   0  0  0  0  0  0  0  0  0  0  0  0
  -21.7877  -12.5323   21.2431 N   0  0  0  0  0  0  0  0  0  0  0  0
  -27.7669  -26.3470   22.8976 N   0  0  0  0  0  0  0  0  0  0  0  0
  -28.6876  -29.5009   17.6748 N   0  0  0  0  0  0  0  0  0  0  0  0
  -31.3717  -29.7542   15.2666 N   0  3  0  0  0  0  0  0  0  0  0  0
  -22.5255  -14.6859   20.9669 O   0  0  0  0  0  0  0  0  0  0  0  0
  -31.0868  -15.0152   17.4476 O   0  0  0  0  0  0  0  0  0  0  0  0
  -27.5190  -24.7484   21.2227 O   0  0  0  0  0  0  0  0  0  0  0  0
  -28.6628  -29.0050   20.4965 O   0  0  0  0  0  0  0  0  0  0  0  0
  -29.1456  -28.1374   15.8560 O   0  0  0  0  0  0  0  0  0  0  0  0
  -21.6823   -6.9733   21.5925 O   0  0  0  0  0  0  0  0  0  0  0  0
  -29.6045  -21.4162   16.8386 O   0  0  0  0  0  0  0  0  0  1  0  0
  -16.8549   -6.4957   18.9711 F   0  0  0  0  0  0  0  0  0  0  0  0
  -19.6465   -8.7925   22.0267 F   0  0  0  0  0  0  0  0  0  0  0  0
  1  2  1  0  0  0  0
  1  5  2  0  0  0  0
  2  6  2  0  0  0  0
  3  8  2  0  0  0  0
  3 15  1  0  0  0  0
  4  9  1  0  0  0  0
  4 15  2  0  0  0  0
  5 17  1  0  0  0  0
  6 19  1  0  0  0  0
  7 10  2  0  0  0  0
  7 18  1  0  0  0  0
  8 21  1  0  0  0  0
  9 21  2  0  0  0  0
 10 22  1  0  0  0  0
 11 12  2  0  0  0  0
 11 23  1  0  0  0  0
 12 24  1  0  0  0  0
 13 20  1  0  0  0  0
 13 22  2  0  0  0  0
 14 24  2  0  0  0  0
 14 25  1  0  0  0  0
 15 26  1  0  0  0  0
 16 26  1  0  0  0  0
 16 29  2  0  0  0  0
 16 31  1  0  0  0  0
 17 19  2  0  0  0  0
 17 36  1  0  0  0  0
 18 20  2  0  0  0  0
 18 37  1  0  0  0  0
 19 46  1  0  0  0  0
 20 38  1  0  0  0  0
 21 79  1  0  0  0  0
 22 80  1  0  0  0  0
 23 25  2  0  0  0  0
 23 79  1  0  0  0  0
 24 81  1  0  0  0  0
 25 82  1  0  0  0  0
 26 63  2  0  0  0  0
 27 28  2  0  0  0  0
 27 32  1  0  0  0  0
 27 65  1  0  0  0  0
 28 51  1  0  0  0  0
 28 64  1  0  0  0  0
 29 66  1  0  0  0  0
 29 69  1  0  0  0  0
 30 47  1  0  0  0  0
 30 64  2  0  0  0  0
 30 65  1  0  0  0  0
 31 70  1  0  0  0  0
 31 74  2  0  0  0  0
 32 67  1  0  0  0  0
 32 75  2  0  0  0  0
 33 48  1  0  0  0  0
 33 71  1  0  0  0  0
 33 76  2  0  0  0  0
 34 60  1  0  0  0  0
 34 68  1  0  0  0  0
 34 77  2  0  0  0  0
 35 61  1  0  0  0  0
 35 72  1  0  0  0  0
 35 78  2  0  0  0  0
 36 39  1  0  0  0  0
 37 48  1  0  0  0  0
 38 68  1  0  0  0  0
 39 41  1  0  0  0  0
 40 42  1  0  0  0  0
 40 44  1  0  0  0  0
 41 46  1  0  0  0  0
 42 50  1  0  0  0  0
 43 47  1  0  0  0  0
 43 49  1  0  0  0  0
 44 67  1  0  0  0  0
 45 50  1  0  0  0  0
 45 67  1  0  0  0  0
 46 71  1  0  0  0  0
 47 49  1  0  0  0  0
 48 68  1  0  0  0  0
 49 58  1  0  0  0  0
 50 66  1  0  0  0  0
 52 59  1  0  0  0  0
 53 61  1  0  0  0  0
 54 62  1  0  0  0  0
 55 62  1  0  0  0  0
 56 62  1  0  0  0  0
 57 73  1  0  0  0  0
 58 80  1  0  0  0  0
 59 65  1  0  0  0  0
 60 62  1  0  0  0  0
 60 72  1  0  0  0  0
 61 73  1  0  0  0  0
 63 66  1  0  0  0  0
M  CHG  1  73   1
M  ISO  4  27 100  32 100  58 101  80 101
M  END
> <Batch ID>
0179

> <Smiles>
CCn1c(C2CC2[101CH2:1][101O:1]c2ccc3c(c2)CN(C(=O)C(NC(=O)C(C)NC)C(C)(C)C)C(C(=O)NC2CCCc4ccccc42)C3)nc(C)[100c:0]1[100C:0](=O)N1CCCC(n2nc(-c3ccc(Oc4ccc(F)cc4F)cc3)c(C(N)=O)c2N)C1

> <Shape>
0.205

> <Color>
0.177

> <Negative vol penalty>
0.000

$$$$

  -OEChem-04052322573D

 83 92  0     1  0  0  0  0  0999 V2000
  -28.3896  -11.1546   21.1739 C   0  0  0  0  0  0  0  0  0  0  0  0
  -28.8816  -12.3834   20.7455 C   0  0  0  0  0  0  0  0  0  0  0  0
  -19.9199  -28.7238   23.5156 C   0  0  0  0  0  0  0  0  0  0  0  0
  -20.5908  -26.7683   22.2654 C   0  0  0  0  0  0  0  0  0  0  0  0
  -27.0154  -10.9193   21.1806 C   0  0  0  0  0  0  0  0  0  0  0  0
  -27.9997  -13.3772   20.3224 C   0  0  0  0  0  0  0  0  0  0  0  0
  -28.6320  -19.4225   21.0708 C   0  0  0  0  0  0  0  0  0  0  0  0
  -18.6571  -28.6676   22.9260 C   0  0  0  0  0  0  0  0  0  0  0  0
  -19.3279  -26.7120   21.6758 C   0  0  0  0  0  0  0  0  0  0  0  0
  -29.0883  -20.4301   20.2221 C   0  0  0  0  0  0  0  0  0  0  0  0
  -17.6683  -28.2866   19.1864 C   0  0  0  0  0  0  0  0  0  0  0  0
  -17.6047  -28.0670   17.8104 C   0  0  0  0  0  0  0  0  0  0  0  0
  -26.8116  -20.9287   19.5999 C   0  0  0  0  0  0  0  0  0  0  0  0
  -16.3352  -26.0470   18.1916 C   0  0  0  0  0  0  0  0  0  0  0  0
  -31.5680  -27.2516   17.4568 C   0  0  0  0  0  0  0  0  0  0  0  0
  -31.5125  -29.0179   19.0882 C   0  0  0  0  0  0  0  0  0  0  0  0
  -20.8868  -27.7742   23.1852 C   0  0  0  0  0  0  0  0  0  0  0  0
  -22.6014  -27.2090   24.9876 C   0  0  0  0  0  0  0  0  0  0  0  0
  -26.1156  -11.9141   20.7665 C   0  0  0  0  0  0  0  0  0  0  0  0
  -27.2604  -19.1527   21.1824 C   0  0  0  0  0  0  0  0  0  0  0  0
  -26.6122  -13.1544   20.3223 C   0  0  0  0  0  0  0  0  0  0  0  0
  -26.3403  -19.9189   20.4527 C   0  0  0  0  0  0  0  0  0  0  0  0
  -18.3610  -27.6617   22.0061 C   0  0  0  0  0  0  0  0  0  0  0  0
  -28.1783  -21.1814   19.4843 C   0  0  0  0  0  0  0  0  0  0  0  0
  -17.0654  -27.3865   20.0650 C   0  0  0  0  0  0  0  0  0  0  0  0
  -16.9381  -26.9472   17.3130 C   0  0  0  0  0  0  0  0  0  0  0  0
  -16.3989  -26.2667   19.5676 C   0  0  0  0  0  0  0  0  0  0  0  0
  -31.6997  -28.5985   17.7758 C   0  0  0  0  0  0  0  0  0  0  0  0
  -22.1917  -27.8321   23.7935 C   0  0  0  0  0  0  0  0  0  0  0  0
  -31.2505  -26.3712   18.4785 C   0  0  0  0  0  0  0  0  0  0  0  0
  -31.1973  -28.0585   20.0368 C   0  0  0  0  0  0  0  0  0  0  0  0
  -23.9191  -27.5698   25.1285 C   0  0  0  0  0  0  0  0  0  0  0  0
  -21.8574  -26.3782   25.8887 C   0  0  0  0  0  0  0  0  0  0  0  0
  -25.4116  -16.6399   20.5729 C   0  0  0  0  0  0  0  0  0  0  0  0
  -23.1201  -18.4860   21.9378 C   0  0  0  0  0  0  0  0  0  0  0  0
  -22.0168  -21.6143   22.7398 C   0  0  0  0  0  0  0  0  0  0  0  0
  -28.5582  -28.4074   21.9365 C   0  0  0  0  0  0  0  0  0  0  0  0
  -24.6413  -11.5967   20.7465 C   0  0  0  0  0  0  0  0  0  0  0  0
  -26.7826  -18.0803   22.1226 C   0  0  0  0  0  0  0  0  0  0  0  0
  -24.8561  -19.6825   20.5522 C   0  0  0  0  0  0  0  0  0  0  0  0
  -23.7534  -12.8336   20.6372 C   0  0  0  0  0  0  0  0  0  0  0  0
  -26.7469  -31.2099   23.3375 C   0  0  0  0  0  0  0  0  0  0  0  0
  -24.2731  -13.7694   19.5503 C   0  0  0  0  0  0  0  0  0  0  0  0
  -25.4177  -30.5541   23.7164 C   0  0  0  0  0  0  0  0  0  0  0  0
  -30.1434  -24.5060   17.0713 C   0  0  0  0  0  0  0  0  0  0  0  0
  -27.2924  -30.6393   22.0317 C   0  0  0  0  0  0  0  0  0  0  0  0
  -26.1262  -28.5005   22.4047 C   0  0  0  0  0  0  0  0  0  0  0  0
  -25.6860  -14.2662   19.8793 C   0  0  1  0  0  0  0  0  0  0  0  0
  -31.1040  -24.9302   18.1611 C   0  0  2  0  0  0  0  0  0  0  0  0
  -25.3968  -17.5495   21.7688 C   0  0  1  0  0  0  0  0  0  0  0  0
  -29.8084  -24.2257   18.5060 C   0  0  2  0  0  0  0  0  0  0  0  0
  -25.5338  -29.0183   23.7279 C   0  0  2  0  0  0  0  0  0  0  0  0
  -20.0908  -22.8074   23.8190 C   0  0  0  0  0  0  0  0  0  0  0  0
  -21.4374  -18.0297   19.4337 C   0  0  0  0  0  0  0  0  0  0  0  0
  -19.9991  -19.9557   20.1337 C   0  0  0  0  0  0  0  0  0  0  0  0
  -20.1599  -17.9305   21.5813 C   0  0  0  0  0  0  0  0  0  0  0  0
  -23.7541  -22.7572   24.8456 C   0  0  0  0  0  0  0  0  0  0  0  0
  -30.9917  -28.4718   21.4559 C   0  0  0  0  0  0  0  0  0  0  0  0
  -29.8309  -22.8274   19.0203 C   0  0  0  0  0  0  0  0  0  1  0  0
  -22.1300  -19.5082   21.4338 C   0  0  1  0  0  0  0  0  0  0  0  0
  -21.4626  -22.1864   24.0321 C   0  0  2  0  0  0  0  0  0  0  0  0
  -20.9596  -18.8594   20.6421 C   0  0  0  0  0  0  0  0  0  0  0  0
  -23.1699  -28.5355   23.2170 N   0  0  0  0  0  0  0  0  0  0  0  0
  -31.0611  -26.7412   19.7648 N   0  0  0  0  0  0  0  0  0  0  0  0
  -24.2073  -28.3568   24.0525 N   0  0  0  0  0  0  0  0  0  0  0  0
  -24.4387  -18.6186   21.4803 N   0  0  0  0  0  0  0  0  0  0  0  0
  -27.3958  -29.1756   22.1153 N   0  0  0  0  0  0  0  0  0  0  0  0
  -24.8478  -27.2877   26.0668 N   0  0  0  0  0  0  0  0  0  0  0  0
  -20.5144  -26.1074   25.5932 N   0  0  0  0  0  0  0  0  0  0  0  0
  -25.6342  -15.3111   20.8794 N   0  0  0  0  0  0  0  0  0  0  0  0
  -21.7087  -20.2777   22.5995 N   0  0  0  0  0  0  0  0  0  0  0  0
  -29.7166  -29.1228   21.6589 N   0  0  0  0  0  0  0  0  0  0  0  0
  -22.3754  -23.2357   24.5676 N   0  3  0  0  0  0  0  0  0  0  0  0
  -22.3638  -25.9040   26.9337 O   0  0  0  0  0  0  0  0  0  0  0  0
  -25.2328  -17.1089   19.4549 O   0  0  0  0  0  0  0  0  0  0  0  0
  -22.7390  -17.6067   22.7145 O   0  0  0  0  0  0  0  0  0  0  0  0
  -22.6557  -22.2869   21.9336 O   0  0  0  0  0  0  0  0  0  0  0  0
  -28.5646  -27.1747   22.0231 O   0  0  0  0  0  0  0  0  0  0  0  0
  -17.1288  -27.6063   21.4307 O   0  0  0  0  0  0  0  0  0  0  0  0
  -28.6210  -22.1650   18.6546 O   0  0  0  0  0  0  0  0  0  1  0  0
  -16.8758  -26.7372   15.9916 F   0  0  0  0  0  0  0  0  0  0  0  0
  -15.8168  -25.3990   20.4067 F   0  0  0  0  0  0  0  0  0  0  0  0
  -32.0908  -29.7421   16.5516 Cl  0  0  0  0  0  0  0  0  0  0  0  0
  1  2  1  0  0  0  0
  1  5  2  0  0  0  0
  2  6  2  0  0  0  0
  3  8  2  0  0  0  0
  3 17  1  0  0  0  0
  4  9  1  0  0  0  0
  4 17  2  0  0  0  0
  5 19  1  0  0  0  0
  6 21  1  0  0  0  0
  7 10  2  0  0  0  0
  7 20  1  0  0  0  0
  8 23  1  0  0  0  0
  9 23  2  0  0  0  0
 10 24  1  0  0  0  0
 11 12  2  0  0  0  0
 11 25  1  0  0  0  0
 12 26  1  0  0  0  0
 13 22  1  0  0  0  0
 13 24  2  0  0  0  0
 14 26  2  0  0  0  0
 14 27  1  0  0  0  0
 15 28  2  0  0  0  0
 15 30  1  0  0  0  0
 16 28  1  0  0  0  0
 16 31  2  0  0  0  0
 17 29  1  0  0  0  0
 18 29  1  0  0  0  0
 18 32  2  0  0  0  0
 18 33  1  0  0  0  0
 19 21  2  0  0  0  0
 19 38  1  0  0  0  0
 20 22  2  0  0  0  0
 20 39  1  0  0  0  0
 21 48  1  0  0  0  0
 22 40  1  0  0  0  0
 23 79  1  0  0  0  0
 24 80  1  0  0  0  0
 25 27  2  0  0  0  0
 25 79  1  0  0  0  0
 26 81  1  0  0  0  0
 27 82  1  0  0  0  0
 28 83  1  0  0  0  0
 29 63  2  0  0  0  0
 30 49  1  0  0  0  0
 30 64  2  0  0  0  0
 31 58  1  0  0  0  0
 31 64  1  0  0  0  0
 32 65  1  0  0  0  0
 32 68  1  0  0  0  0
 33 69  1  0  0  0  0
 33 74  2  0  0  0  0
 34 50  1  0  0  0  0
 34 70  1  0  0  0  0
 34 75  2  0  0  0  0
 35 60  1  0  0  0  0
 35 66  1  0  0  0  0
 35 76  2  0  0  0  0
 36 61  1  0  0  0  0
 36 71  1  0  0  0  0
 36 77  2  0  0  0  0
 37 67  1  0  0  0  0
 37 72  1  0  0  0  0
 37 78  2  0  0  0  0
 38 41  1  0  0  0  0
 39 50  1  0  0  0  0
 40 66  1  0  0  0  0
 41 43  1  0  0  0  0
 42 44  1  0  0  0  0
 42 46  1  0  0  0  0
 43 48  1  0  0  0  0
 44 52  1  0  0  0  0
 45 49  1  0  0  0  0
 45 51  1  0  0  0  0
 46 67  1  0  0  0  0
 47 52  1  0  0  0  0
 47 67  1  0  0  0  0
 48 70  1  0  0  0  0
 49 51  1  0  0  0  0
 50 66  1  0  0  0  0
 51 59  1  0  0  0  0
 52 65  1  0  0  0  0
 53 61  1  0  0  0  0
 54 62  1  0  0  0  0
 55 62  1  0  0  0  0
 56 62  1  0  0  0  0
 57 73  1  0  0  0  0
 58 72  1  0  0  0  0
 59 80  1  0  0  0  0
 60 62  1  0  0  0  0
 60 71  1  0  0  0  0
 61 73  1  0  0  0  0
 63 65  1  0  0  0  0
M  CHG  1  73   1
M  ISO  4  37 100  59 101  72 100  80 101
M  END
> <Batch ID>
0179

> <Smiles>
CNC(C)C(=O)NC(C(=O)N1Cc2cc([101O:1][101CH2:1]C3CC3c3cc(Cl)cc(C[100NH:0][100C:0](=O)N4CCCC(n5nc(-c6ccc(Oc7ccc(F)cc7F)cc6)c(C(N)=O)c5N)C4)n3)ccc2CC1C(=O)NC1CCCc2ccccc21)C(C)(C)C

> <Shape>
0.213

> <Color>
0.077

> <Negative vol penalty>
0.000

$$$$

  -OEChem-04052322573D

 86 95  0     1  0  0  0  0  0999 V2000
  -26.5751  -38.5019   22.7482 C   0  0  0  0  0  0  0  0  0  0  0  0
  -27.2133  -37.5619   21.9454 C   0  0  0  0  0  0  0  0  0  0  0  0
  -24.5359  -10.1739   23.1518 C   0  0  0  0  0  0  0  0  0  0  0  0
  -24.4690   -8.6644   21.2666 C   0  0  0  0  0  0  0  0  0  0  0  0
  -25.8490  -38.0863   23.8635 C   0  0  0  0  0  0  0  0  0  0  0  0
  -27.1267  -36.2057   22.2582 C   0  0  0  0  0  0  0  0  0  0  0  0
  -26.8987  -29.7606   19.1396 C   0  0  0  0  0  0  0  0  0  0  0  0
  -23.3920   -9.5711   23.6751 C   0  0  0  0  0  0  0  0  0  0  0  0
  -23.3252   -8.0615   21.7900 C   0  0  0  0  0  0  0  0  0  0  0  0
  -27.5305  -28.5187   19.1861 C   0  0  0  0  0  0  0  0  0  0  0  0
  -22.5779   -5.8064   24.1934 C   0  0  0  0  0  0  0  0  0  0  0  0
  -22.5235   -4.4127   24.1923 C   0  0  0  0  0  0  0  0  0  0  0  0
  -26.1826  -27.9111   21.0922 C   0  0  0  0  0  0  0  0  0  0  0  0
  -30.6675  -23.1124   20.5528 C   0  0  0  0  0  0  0  0  0  0  0  0
  -20.5431   -4.4911   22.8105 C   0  0  0  0  0  0  0  0  0  0  0  0
  -28.9505  -23.7375   18.5262 C   0  0  0  0  0  0  0  0  0  0  0  0
  -25.0744   -9.7206   21.9475 C   0  0  0  0  0  0  0  0  0  0  0  0
  -27.5943   -9.9813   21.6483 C   0  0  0  0  0  0  0  0  0  0  0  0
  -25.7454  -36.7237   24.1846 C   0  0  0  0  0  0  0  0  0  0  0  0
  -25.9101  -30.0919   20.0774 C   0  0  0  0  0  0  0  0  0  0  0  0
  -26.3996  -35.7717   23.3796 C   0  0  0  0  0  0  0  0  0  0  0  0
  -25.5380  -29.1569   21.0539 C   0  0  0  0  0  0  0  0  0  0  0  0
  -30.1990  -24.4161   20.4334 C   0  0  0  0  0  0  0  0  0  0  0  0
  -29.3238  -24.7428   19.4035 C   0  0  0  0  0  0  0  0  0  0  0  0
  -22.7867   -8.5149   22.9942 C   0  0  0  0  0  0  0  0  0  0  0  0
  -27.1745  -27.5948   20.1642 C   0  0  0  0  0  0  0  0  0  0  0  0
  -21.6149   -6.5426   23.5032 C   0  0  0  0  0  0  0  0  0  0  0  0
  -21.5061   -3.7550   23.5008 C   0  0  0  0  0  0  0  0  0  0  0  0
  -20.5975   -5.8849   22.8117 C   0  0  0  0  0  0  0  0  0  0  0  0
  -26.2556  -10.3433   21.4062 C   0  0  0  0  0  0  0  0  0  0  0  0
  -30.2338  -22.1800   19.6241 C   0  0  0  0  0  0  0  0  0  0  0  0
  -28.3305  -10.8730   20.9071 C   0  0  0  0  0  0  0  0  0  0  0  0
  -28.1249   -8.9328   22.4697 C   0  0  0  0  0  0  0  0  0  0  0  0
  -25.6046  -32.3217   22.3220 C   0  0  0  0  0  0  0  0  0  0  0  0
  -22.6163  -31.0887   22.5903 C   0  0  0  0  0  0  0  0  0  0  0  0
  -20.5296  -28.4259   22.1403 C   0  0  0  0  0  0  0  0  0  0  0  0
  -29.4872  -15.8044   19.1327 C   0  0  0  0  0  0  0  0  0  0  0  0
  -24.9887  -36.3262   25.4272 C   0  0  0  0  0  0  0  0  0  0  0  0
  -25.2193  -31.4256   19.9972 C   0  0  0  0  0  0  0  0  0  0  0  0
  -24.4684  -29.4560   22.0712 C   0  0  0  0  0  0  0  0  0  0  0  0
  -24.6345  -34.8421   25.4761 C   0  0  0  0  0  0  0  0  0  0  0  0
  -26.9159  -14.1897   17.3691 C   0  0  0  0  0  0  0  0  0  0  0  0
  -25.8449  -33.9919   25.1031 C   0  0  0  0  0  0  0  0  0  0  0  0
  -26.6164  -13.0046   18.2867 C   0  0  0  0  0  0  0  0  0  0  0  0
  -28.9552  -19.2822   19.2362 C   0  0  0  0  0  0  0  0  0  0  0  0
  -31.3915  -18.6929   18.9443 C   0  0  0  0  0  0  0  0  0  0  0  0
  -27.1710  -15.4753   18.1579 C   0  0  0  0  0  0  0  0  0  0  0  0
  -28.5762  -18.0547   18.4024 C   0  0  0  0  0  0  0  0  0  0  0  0
  -30.9668  -17.4976   18.0958 C   0  0  0  0  0  0  0  0  0  0  0  0
  -27.9175  -14.1591   20.1146 C   0  0  0  0  0  0  0  0  0  0  0  0
  -26.3084  -34.2897   23.6720 C   0  0  1  0  0  0  0  0  0  0  0  0
  -24.5888  -31.8523   21.3192 C   0  0  1  0  0  0  0  0  0  0  0  0
  -27.7143  -12.8403   19.3528 C   0  0  1  0  0  0  0  0  0  0  0  0
  -30.3443  -19.8068   18.8652 C   0  0  0  0  0  0  0  0  0  0  0  0
  -29.9284  -25.3155   22.7581 C   0  0  0  0  0  0  0  0  0  0  0  0
  -18.1511  -27.7062   22.4891 C   0  0  0  0  0  0  0  0  0  0  0  0
  -23.1580  -30.7530   25.5742 C   0  0  0  0  0  0  0  0  0  0  0  0
  -21.1950  -29.2030   25.6853 C   0  0  0  0  0  0  0  0  0  0  0  0
  -20.8659  -31.5837   25.0171 C   0  0  0  0  0  0  0  0  0  0  0  0
  -20.1174  -27.9814   19.2435 C   0  0  0  0  0  0  0  0  0  0  0  0
  -30.6467  -25.4450   21.4180 C   0  0  0  0  0  0  0  0  0  0  0  0
  -28.7917  -26.1229   19.2294 C   0  0  0  0  0  0  0  0  0  1  0  0
  -21.9835  -29.9874   23.4062 C   0  0  1  0  0  0  0  0  0  0  0  0
  -19.1480  -28.3225   21.5200 C   0  0  2  0  0  0  0  0  0  0  0  0
  -21.8221  -30.3766   24.9029 C   0  0  0  0  0  0  0  0  0  0  0  0
  -29.3844  -22.4599   18.6103 N   0  0  0  0  0  0  0  0  0  0  0  0
  -26.1448  -11.3839   20.5762 N   0  0  0  0  0  0  0  0  0  0  0  0
  -27.4234  -11.6835   20.2904 N   0  0  0  0  0  0  0  0  0  0  0  0
  -23.8266  -30.7759   21.9554 N   0  0  0  0  0  0  0  0  0  0  0  0
  -28.1959  -15.2587   19.1885 N   0  0  0  0  0  0  0  0  0  0  0  0
  -29.6309  -17.0330   18.4709 N   0  0  0  0  0  0  0  0  0  0  0  0
  -29.6589  -11.0350   20.7293 N   0  0  0  0  0  0  0  0  0  0  0  0
  -27.2281   -8.1082   23.1627 N   0  0  0  0  0  0  0  0  0  0  0  0
  -30.7084  -20.8870   19.7556 N   0  0  0  0  0  0  0  0  0  0  0  0
  -25.4421  -33.6367   22.7141 N   0  0  0  0  0  0  0  0  0  0  0  0
  -20.7308  -29.6523   22.7376 N   0  0  0  0  0  0  0  0  0  0  0  0
  -19.1931  -27.4788   20.2924 N   0  3  0  0  0  0  0  0  0  0  0  0
  -29.3582   -8.7433   22.5986 O   0  0  0  0  0  0  0  0  0  0  0  0
  -26.4708  -31.5476   22.7122 O   0  0  0  0  0  0  0  0  0  0  0  0
  -22.0537  -32.1838   22.5131 O   0  0  0  0  0  0  0  0  0  0  0  0
  -21.3472  -27.5091   22.1021 O   0  0  0  0  0  0  0  0  0  0  0  0
  -30.4552  -15.2280   19.6443 O   0  0  0  0  0  0  0  0  0  0  0  0
  -21.6707   -7.9263   23.5047 O   0  0  0  0  0  0  0  0  0  0  0  0
  -27.7941  -26.3740   20.2126 O   0  0  0  0  0  0  0  0  0  1  0  0
  -21.4549   -2.4165   23.4985 F   0  0  0  0  0  0  0  0  0  0  0  0
  -19.6702   -6.5867   22.1458 F   0  0  0  0  0  0  0  0  0  0  0  0
  1  2  1  0  0  0  0
  1  5  2  0  0  0  0
  2  6  2  0  0  0  0
  3  8  2  0  0  0  0
  3 17  1  0  0  0  0
  4  9  1  0  0  0  0
  4 17  2  0  0  0  0
  5 19  1  0  0  0  0
  6 21  1  0  0  0  0
  7 10  2  0  0  0  0
  7 20  1  0  0  0  0
  8 25  1  0  0  0  0
  9 25  2  0  0  0  0
 10 26  1  0  0  0  0
 11 12  2  0  0  0  0
 11 27  1  0  0  0  0
 12 28  1  0  0  0  0
 13 22  1  0  0  0  0
 13 26  2  0  0  0  0
 14 23  1  0  0  0  0
 14 31  2  0  0  0  0
 15 28  2  0  0  0  0
 15 29  1  0  0  0  0
 16 24  1  0  0  0  0
 16 66  2  0  0  0  0
 17 30  1  0  0  0  0
 18 30  1  0  0  0  0
 18 32  2  0  0  0  0
 18 33  1  0  0  0  0
 19 21  2  0  0  0  0
 19 38  1  0  0  0  0
 20 22  2  0  0  0  0
 20 39  1  0  0  0  0
 21 51  1  0  0  0  0
 22 40  1  0  0  0  0
 23 24  2  0  0  0  0
 23 61  1  0  0  0  0
 24 62  1  0  0  0  0
 25 83  1  0  0  0  0
 26 84  1  0  0  0  0
 27 29  2  0  0  0  0
 27 83  1  0  0  0  0
 28 85  1  0  0  0  0
 29 86  1  0  0  0  0
 30 67  2  0  0  0  0
 31 66  1  0  0  0  0
 31 74  1  0  0  0  0
 32 68  1  0  0  0  0
 32 72  1  0  0  0  0
 33 73  1  0  0  0  0
 33 78  2  0  0  0  0
 34 52  1  0  0  0  0
 34 75  1  0  0  0  0
 34 79  2  0  0  0  0
 35 63  1  0  0  0  0
 35 69  1  0  0  0  0
 35 80  2  0  0  0  0
 36 64  1  0  0  0  0
 36 76  1  0  0  0  0
 36 81  2  0  0  0  0
 37 70  1  0  0  0  0
 37 71  1  0  0  0  0
 37 82  2  0  0  0  0
 38 41  1  0  0  0  0
 39 52  1  0  0  0  0
 40 69  1  0  0  0  0
 41 43  1  0  0  0  0
 42 44  1  0  0  0  0
 42 47  1  0  0  0  0
 43 51  1  0  0  0  0
 44 53  1  0  0  0  0
 45 48  1  0  0  0  0
 45 54  1  0  0  0  0
 46 49  1  0  0  0  0
 46 54  1  0  0  0  0
 47 70  1  0  0  0  0
 48 71  1  0  0  0  0
 49 71  1  0  0  0  0
 50 53  1  0  0  0  0
 50 70  1  0  0  0  0
 51 75  1  0  0  0  0
 52 69  1  0  0  0  0
 53 68  1  0  0  0  0
 54 74  1  0  0  0  0
 55 61  1  0  0  0  0
 56 64  1  0  0  0  0
 57 65  1  0  0  0  0
 58 65  1  0  0  0  0
 59 65  1  0  0  0  0
 60 77  1  0  0  0  0
 62 84  1  0  0  0  0
 63 65  1  0  0  0  0
 63 76  1  0  0  0  0
 64 77  1  0  0  0  0
 67 68  1  0  0  0  0
M  CHG  1  77   1
M  ISO  4  37 100  62 101  71 100  84 101
M  END
> <Batch ID>
0179

> <Smiles>
CCc1cc(NC2CC[100N:0]([100C:0](=O)N3CCCC(n4nc(-c5ccc(Oc6ccc(F)cc6F)cc5)c(C(N)=O)c4N)C3)CC2)ncc1[101CH2:1][101O:1]c1ccc2c(c1)CN(C(=O)C(NC(=O)C(C)NC)C(C)(C)C)C(C(=O)NC1CCCc3ccccc31)C2

> <Shape>
0.329

> <Color>
0.102

> <Negative vol penalty>
0.000

$$$$

  -OEChem-04052322573D

 88 97  0     1  0  0  0  0  0999 V2000
  -24.0469  -38.2925   20.8064 C   0  0  0  0  0  0  0  0  0  0  0  0
  -24.6798  -37.3630   19.9874 C   0  0  0  0  0  0  0  0  0  0  0  0
  -24.7756   -8.7556   21.1786 C   0  0  0  0  0  0  0  0  0  0  0  0
  -23.0217  -10.1255   20.2382 C   0  0  0  0  0  0  0  0  0  0  0  0
  -23.8747  -38.0214   22.1632 C   0  0  0  0  0  0  0  0  0  0  0  0
  -25.1420  -36.1622   20.5249 C   0  0  0  0  0  0  0  0  0  0  0  0
  -26.0949  -29.2746   18.8017 C   0  0  0  0  0  0  0  0  0  0  0  0
  -23.8498   -7.7433   21.4307 C   0  0  0  0  0  0  0  0  0  0  0  0
  -22.0959   -9.1131   20.4902 C   0  0  0  0  0  0  0  0  0  0  0  0
  -27.0806  -28.2886   18.8103 C   0  0  0  0  0  0  0  0  0  0  0  0
  -21.4690   -7.0620   23.7311 C   0  0  0  0  0  0  0  0  0  0  0  0
  -21.5156   -6.4378   24.9776 C   0  0  0  0  0  0  0  0  0  0  0  0
  -26.6571  -27.8940   21.1521 C   0  0  0  0  0  0  0  0  0  0  0  0
  -21.9284   -4.3155   23.8995 C   0  0  0  0  0  0  0  0  0  0  0  0
  -27.6464  -18.4514   17.7059 C   0  0  0  0  0  0  0  0  0  0  0  0
  -24.3616   -9.9468   20.5824 C   0  0  0  0  0  0  0  0  0  0  0  0
  -26.0838  -11.1736   19.1554 C   0  0  0  0  0  0  0  0  0  0  0  0
  -24.3264  -36.8125   22.7157 C   0  0  0  0  0  0  0  0  0  0  0  0
  -25.3893  -29.5858   19.9729 C   0  0  0  0  0  0  0  0  0  0  0  0
  -24.9769  -35.8752   21.8906 C   0  0  0  0  0  0  0  0  0  0  0  0
  -25.6612  -28.8826   21.1552 C   0  0  0  0  0  0  0  0  0  0  0  0
  -28.8799  -24.3278   19.7118 C   0  0  0  0  0  0  0  0  0  0  0  0
  -22.5099   -7.9220   21.0864 C   0  0  0  0  0  0  0  0  0  0  0  0
  -27.3638  -27.6002   19.9862 C   0  0  0  0  0  0  0  0  0  0  0  0
  -21.6520   -6.3129   22.5688 C   0  0  0  0  0  0  0  0  0  0  0  0
  -21.7453   -5.0646   25.0618 C   0  0  0  0  0  0  0  0  0  0  0  0
  -21.8817   -4.9397   22.6529 C   0  0  0  0  0  0  0  0  0  0  0  0
  -25.3174  -10.9932   20.3224 C   0  0  0  0  0  0  0  0  0  0  0  0
  -28.4011  -23.0677   19.4165 C   0  0  0  0  0  0  0  0  0  0  0  0
  -28.6154  -20.5012   17.4078 C   0  0  0  0  0  0  0  0  0  0  0  0
  -28.7186  -20.6511   18.7733 C   0  0  0  0  0  0  0  0  0  0  0  0
  -27.7503  -18.6008   19.0713 C   0  0  0  0  0  0  0  0  0  0  0  0
  -27.9406  -25.3387   19.7113 C   0  0  0  0  0  0  0  0  0  1  0  0
  -26.8289  -12.3002   19.4047 C   0  0  0  0  0  0  0  0  0  0  0  0
  -26.2894  -23.8725   19.1720 C   0  0  0  0  0  0  0  0  0  0  0  0
  -26.1190  -10.3928   17.9534 C   0  0  0  0  0  0  0  0  0  0  0  0
  -25.0723  -32.1832   21.7775 C   0  0  0  0  0  0  0  0  0  0  0  0
  -22.8862  -30.3603   23.3334 C   0  0  0  0  0  0  0  0  0  0  0  0
  -21.7548  -27.2403   24.1287 C   0  0  0  0  0  0  0  0  0  0  0  0
  -27.2874  -17.5165   21.2976 C   0  0  0  0  0  0  0  0  0  0  0  0
  -24.1598  -36.5844   24.1972 C   0  0  0  0  0  0  0  0  0  0  0  0
  -24.3105  -30.6334   19.9407 C   0  0  0  0  0  0  0  0  0  0  0  0
  -24.9180  -29.1647   22.4344 C   0  0  0  0  0  0  0  0  0  0  0  0
  -24.3440  -35.1274   24.6136 C   0  0  0  0  0  0  0  0  0  0  0  0
  -27.5443  -14.8940   23.6921 C   0  0  0  0  0  0  0  0  0  0  0  0
  -25.5905  -34.5389   23.9602 C   0  0  0  0  0  0  0  0  0  0  0  0
  -27.0509  -13.6602   22.9329 C   0  0  0  0  0  0  0  0  0  0  0  0
  -26.7631  -16.1484   23.3047 C   0  0  0  0  0  0  0  0  0  0  0  0
  -26.2107  -15.1887   21.1040 C   0  0  0  0  0  0  0  0  0  0  0  0
  -25.4699  -34.5507   22.4316 C   0  0  1  0  0  0  0  0  0  0  0  0
  -24.0112  -31.2253   21.3146 C   0  0  1  0  0  0  0  0  0  0  0  0
  -27.0106  -13.9126   21.4130 C   0  0  2  0  0  0  0  0  0  0  0  0
  -29.0963  -21.5569   16.4718 C   0  0  0  0  0  0  0  0  0  0  0  0
  -24.8507  -23.6195   18.8727 C   0  0  0  0  0  0  0  0  0  0  0  0
  -31.0535  -25.2172   18.8338 C   0  0  0  0  0  0  0  0  0  0  0  0
  -19.9705  -26.0690   25.4484 C   0  0  0  0  0  0  0  0  0  0  0  0
  -24.3927  -30.9780   25.9139 C   0  0  0  0  0  0  0  0  0  0  0  0
  -23.1791  -29.0742   26.9960 C   0  0  0  0  0  0  0  0  0  0  0  0
  -21.9011  -31.0303   26.1224 C   0  0  0  0  0  0  0  0  0  0  0  0
  -20.6462  -25.9518   21.7059 C   0  0  0  0  0  0  0  0  0  0  0  0
  -30.3136  -24.5851   20.0119 C   0  0  0  0  0  0  0  0  0  0  0  0
  -29.3257  -21.8954   19.3875 C   0  0  0  0  0  0  0  0  0  0  0  0
  -22.9304  -29.3943   24.4927 C   0  0  1  0  0  0  0  0  0  0  0  0
  -20.3638  -26.6336   24.0921 C   0  0  2  0  0  0  0  0  0  0  0  0
  -23.1163  -30.1150   25.8578 C   0  0  0  0  0  0  0  0  0  0  0  0
  -28.0772  -19.3989   16.8496 N   0  0  0  0  0  0  0  0  0  0  0  0
  -25.5539  -11.9300   21.2446 N   0  0  0  0  0  0  0  0  0  0  0  0
  -28.2882  -19.7034   19.6295 N   0  0  0  0  0  0  0  0  0  0  0  0
  -27.1072  -22.8031   19.1407 N   0  0  0  0  0  0  0  0  0  0  0  0
  -26.6321  -25.1459   19.4450 N   0  0  0  0  0  0  0  0  0  0  0  0
  -26.4774  -12.7099   20.6572 N   0  0  0  0  0  0  0  0  0  0  0  0
  -23.8767  -30.2024   22.3536 N   0  0  0  0  0  0  0  0  0  0  0  0
  -26.7717  -16.3254   21.8509 N   0  0  0  0  0  0  0  0  0  0  0  0
  -27.7439  -12.9704   18.6726 N   0  0  0  0  0  0  0  0  0  0  0  0
  -25.2890   -9.2670   17.8634 N   0  0  0  0  0  0  0  0  0  0  0  0
  -27.2737  -17.5579   19.9038 N   0  0  0  0  0  0  0  0  0  0  0  0
  -24.6163  -33.4712   21.9836 N   0  0  0  0  0  0  0  0  0  0  0  0
  -21.7158  -28.5913   24.4015 N   0  0  0  0  0  0  0  0  0  0  0  0
  -20.3051  -25.5325   23.0897 N   0  3  0  0  0  0  0  0  0  0  0  0
  -26.8764  -10.6753   16.9942 O   0  0  0  0  0  0  0  0  0  0  0  0
  -26.2194  -31.7829   21.9375 O   0  0  0  0  0  0  0  0  0  0  0  0
  -22.0011  -31.2186   23.2948 O   0  0  0  0  0  0  0  0  0  0  0  0
  -22.7743  -26.5809   23.9382 O   0  0  0  0  0  0  0  0  0  0  0  0
  -27.7350  -18.4210   22.0071 O   0  0  0  0  0  0  0  0  0  0  0  0
  -21.6063   -6.9342   21.3320 O   0  0  0  0  0  0  0  0  0  0  0  0
  -28.3259  -26.6378   19.9975 O   0  0  0  0  0  0  0  0  0  1  0  0
  -21.7916   -4.4656   26.2590 F   0  0  0  0  0  0  0  0  0  0  0  0
  -22.0595   -4.2150   21.5398 F   0  0  0  0  0  0  0  0  0  0  0  0
  1  2  1  0  0  0  0
  1  5  2  0  0  0  0
  2  6  2  0  0  0  0
  3  8  2  0  0  0  0
  3 16  1  0  0  0  0
  4  9  1  0  0  0  0
  4 16  2  0  0  0  0
  5 18  1  0  0  0  0
  6 20  1  0  0  0  0
  7 10  2  0  0  0  0
  7 19  1  0  0  0  0
  8 23  1  0  0  0  0
  9 23  2  0  0  0  0
 10 24  1  0  0  0  0
 11 12  2  0  0  0  0
 11 25  1  0  0  0  0
 12 26  1  0  0  0  0
 13 21  1  0  0  0  0
 13 24  2  0  0  0  0
 14 26  2  0  0  0  0
 14 27  1  0  0  0  0
 15 32  1  0  0  0  0
 15 66  2  0  0  0  0
 16 28  1  0  0  0  0
 17 28  1  0  0  0  0
 17 34  2  0  0  0  0
 17 36  1  0  0  0  0
 18 20  2  0  0  0  0
 18 41  1  0  0  0  0
 19 21  2  0  0  0  0
 19 42  1  0  0  0  0
 20 50  1  0  0  0  0
 21 43  1  0  0  0  0
 22 29  1  0  0  0  0
 22 33  2  0  0  0  0
 22 61  1  0  0  0  0
 23 85  1  0  0  0  0
 24 86  1  0  0  0  0
 25 27  2  0  0  0  0
 25 85  1  0  0  0  0
 26 87  1  0  0  0  0
 27 88  1  0  0  0  0
 28 67  2  0  0  0  0
 29 62  1  0  0  0  0
 29 69  2  0  0  0  0
 30 31  2  0  0  0  0
 30 53  1  0  0  0  0
 30 66  1  0  0  0  0
 31 62  1  0  0  0  0
 31 68  1  0  0  0  0
 32 68  2  0  0  0  0
 32 76  1  0  0  0  0
 33 70  1  0  0  0  0
 33 86  1  0  0  0  0
 34 71  1  0  0  0  0
 34 74  1  0  0  0  0
 35 54  1  0  0  0  0
 35 69  1  0  0  0  0
 35 70  2  0  0  0  0
 36 75  1  0  0  0  0
 36 80  2  0  0  0  0
 37 51  1  0  0  0  0
 37 77  1  0  0  0  0
 37 81  2  0  0  0  0
 38 63  1  0  0  0  0
 38 72  1  0  0  0  0
 38 82  2  0  0  0  0
 39 64  1  0  0  0  0
 39 78  1  0  0  0  0
 39 83  2  0  0  0  0
 40 73  1  0  0  0  0
 40 76  1  0  0  0  0
 40 84  2  0  0  0  0
 41 44  1  0  0  0  0
 42 51  1  0  0  0  0
 43 72  1  0  0  0  0
 44 46  1  0  0  0  0
 45 47  1  0  0  0  0
 45 48  1  0  0  0  0
 46 50  1  0  0  0  0
 47 52  1  0  0  0  0
 48 73  1  0  0  0  0
 49 52  1  0  0  0  0
 49 73  1  0  0  0  0
 50 77  1  0  0  0  0
 51 72  1  0  0  0  0
 52 71  1  0  0  0  0
 55 61  1  0  0  0  0
 56 64  1  0  0  0  0
 57 65  1  0  0  0  0
 58 65  1  0  0  0  0
 59 65  1  0  0  0  0
 60 79  1  0  0  0  0
 63 65  1  0  0  0  0
 63 78  1  0  0  0  0
 64 79  1  0  0  0  0
 67 71  1  0  0  0  0
M  CHG  1  79   1
M  ISO  4  33 101  40 100  76 100  86 101
M  END
> <Batch ID>
0179

> <Smiles>
CCc1c(Cc2nc([100NH:0][100C:0](=O)N3CCCC(n4nc(-c5ccc(Oc6ccc(F)cc6F)cc5)c(C(N)=O)c4N)C3)cnc2C)nc(C)n[101c:1]1[101O:1]c1ccc2c(c1)CN(C(=O)C(NC(=O)C(C)NC)C(C)(C)C)C(C(=O)NC1CCCc3ccccc31)C2

> <Shape>
0.315

> <Color>
0.115

> <Negative vol penalty>
0.000

$$$$

  -OEChem-04052322573D

 84 93  0     1  0  0  0  0  0999 V2000
  -28.8538  -36.6786   18.9423 C   0  0  0  0  0  0  0  0  0  0  0  0
  -28.9735  -35.3202   18.6665 C   0  0  0  0  0  0  0  0  0  0  0  0
  -22.6915  -11.3389   19.2239 C   0  0  0  0  0  0  0  0  0  0  0  0
  -23.2684   -9.9301   21.0999 C   0  0  0  0  0  0  0  0  0  0  0  0
  -28.4299  -37.0982   20.2025 C   0  0  0  0  0  0  0  0  0  0  0  0
  -28.6704  -34.3807   19.6513 C   0  0  0  0  0  0  0  0  0  0  0  0
  -26.1424  -28.8644   18.8232 C   0  0  0  0  0  0  0  0  0  0  0  0
  -21.6770  -10.4501   18.8684 C   0  0  0  0  0  0  0  0  0  0  0  0
  -22.2538   -9.0413   20.7445 C   0  0  0  0  0  0  0  0  0  0  0  0
  -26.6893  -27.5845   18.7431 C   0  0  0  0  0  0  0  0  0  0  0  0
  -21.7771   -6.5850   18.4707 C   0  0  0  0  0  0  0  0  0  0  0  0
  -22.0767   -5.2227   18.4788 C   0  0  0  0  0  0  0  0  0  0  0  0
  -26.2231  -27.2454   21.0856 C   0  0  0  0  0  0  0  0  0  0  0  0
  -20.3515   -4.8532   20.1294 C   0  0  0  0  0  0  0  0  0  0  0  0
  -29.2131  -23.1903   21.2064 C   0  0  0  0  0  0  0  0  0  0  0  0
  -23.4873  -11.0789   20.3396 C   0  0  0  0  0  0  0  0  0  0  0  0
  -24.4328  -13.1035   21.5703 C   0  0  0  0  0  0  0  0  0  0  0  0
  -28.1121  -36.1631   21.2001 C   0  0  0  0  0  0  0  0  0  0  0  0
  -25.6408  -29.3494   20.0396 C   0  0  0  0  0  0  0  0  0  0  0  0
  -28.2431  -34.7882   20.9265 C   0  0  0  0  0  0  0  0  0  0  0  0
  -25.6681  -28.5309   21.1778 C   0  0  0  0  0  0  0  0  0  0  0  0
  -27.9346  -23.4443   20.7534 C   0  0  0  0  0  0  0  0  0  0  0  0
  -21.4581   -9.3014   19.6287 C   0  0  0  0  0  0  0  0  0  0  0  0
  -26.7323  -26.7758   19.8751 C   0  0  0  0  0  0  0  0  0  0  0  0
  -20.7648   -7.0814   19.2921 C   0  0  0  0  0  0  0  0  0  0  0  0
  -21.3639   -4.3568   19.3081 C   0  0  0  0  0  0  0  0  0  0  0  0
  -20.0520   -6.2155   20.1214 C   0  0  0  0  0  0  0  0  0  0  0  0
  -24.5358  -11.9963   20.7070 C   0  0  0  0  0  0  0  0  0  0  0  0
  -27.3275  -22.4111   20.0690 C   0  0  0  0  0  0  0  0  0  0  0  0
  -25.6956  -13.6434   21.5885 C   0  0  0  0  0  0  0  0  0  0  0  0
  -29.1609  -21.0932   20.3310 C   0  0  0  0  0  0  0  0  0  0  0  0
  -23.2972  -13.5995   22.2914 C   0  0  0  0  0  0  0  0  0  0  0  0
  -26.3718  -31.7745   21.9601 C   0  0  0  0  0  0  0  0  0  0  0  0
  -23.7140  -30.8083   23.5491 C   0  0  0  0  0  0  0  0  0  0  0  0
  -21.5268  -28.2911   24.2747 C   0  0  0  0  0  0  0  0  0  0  0  0
  -30.1724  -15.3090   18.5783 C   0  0  0  0  0  0  0  0  0  0  0  0
  -27.7034  -36.6655   22.5622 C   0  0  0  0  0  0  0  0  0  0  0  0
  -25.0299  -30.7223   20.1032 C   0  0  0  0  0  0  0  0  0  0  0  0
  -25.1243  -28.9968   22.5028 C   0  0  0  0  0  0  0  0  0  0  0  0
  -27.0423  -35.5990   23.4316 C   0  0  0  0  0  0  0  0  0  0  0  0
  -30.0822  -11.8559   19.8195 C   0  0  0  0  0  0  0  0  0  0  0  0
  -27.8429  -34.3014   23.3859 C   0  0  0  0  0  0  0  0  0  0  0  0
  -28.6095  -11.6659   20.1856 C   0  0  0  0  0  0  0  0  0  0  0  0
  -28.2850  -17.9482   20.3071 C   0  0  0  0  0  0  0  0  0  0  0  0
  -30.2625  -12.8445   18.6698 C   0  0  0  0  0  0  0  0  0  0  0  0
  -28.2004  -16.6259   19.5520 C   0  0  0  0  0  0  0  0  0  0  0  0
  -28.1377  -13.9554   19.2394 C   0  0  0  0  0  0  0  0  0  0  0  0
  -30.2327  -17.7574   18.9567 C   0  0  0  0  0  0  0  0  0  0  0  0
  -27.8998  -33.7382   21.9607 C   0  0  1  0  0  0  0  0  0  0  0  0
  -25.0162  -31.3056   21.5128 C   0  0  1  0  0  0  0  0  0  0  0  0
  -27.9206  -13.0202   20.4371 C   0  0  1  0  0  0  0  0  0  0  0  0
  -29.1962  -18.7757   19.4072 C   0  0  2  0  0  0  0  0  0  0  0  0
  -25.9422  -22.5710   19.5352 C   0  0  0  0  0  0  0  0  0  0  0  0
  -19.4770  -27.7932   25.6339 C   0  0  0  0  0  0  0  0  0  0  0  0
  -25.4226  -30.6790   26.0738 C   0  0  0  0  0  0  0  0  0  0  0  0
  -23.6215  -29.3037   27.1383 C   0  0  0  0  0  0  0  0  0  0  0  0
  -23.1379  -31.6395   26.4084 C   0  0  0  0  0  0  0  0  0  0  0  0
  -19.9421  -27.6423   21.8608 C   0  0  0  0  0  0  0  0  0  0  0  0
  -27.2772  -24.7528   21.0004 C   0  0  0  0  0  0  0  0  0  1  0  0
  -23.4314  -29.8320   24.6653 C   0  0  1  0  0  0  0  0  0  0  0  0
  -20.0095  -28.2464   24.2834 C   0  0  2  0  0  0  0  0  0  0  0  0
  -23.9154  -30.3552   26.0471 C   0  0  0  0  0  0  0  0  0  0  0  0
  -29.8589  -22.0217   21.0122 N   0  0  0  0  0  0  0  0  0  0  0  0
  -25.7668  -11.8409   20.2124 N   0  0  0  0  0  0  0  0  0  0  0  0
  -27.9137  -21.2179   19.8387 N   0  0  0  0  0  0  0  0  0  0  0  0
  -26.4488  -12.8576   20.7667 N   0  0  0  0  0  0  0  0  0  0  0  0
  -24.5428  -30.3493   22.5156 N   0  0  0  0  0  0  0  0  0  0  0  0
  -29.5673  -14.1020   18.9453 N   0  0  0  0  0  0  0  0  0  0  0  0
  -29.5070  -16.4905   18.9029 N   0  0  0  0  0  0  0  0  0  0  0  0
  -26.2240  -14.7090   22.2271 N   0  0  0  0  0  0  0  0  0  0  0  0
  -22.0756  -12.9252   22.1598 N   0  0  0  0  0  0  0  0  0  0  0  0
  -29.7949  -19.8774   20.1134 N   0  0  0  0  0  0  0  0  0  0  0  0
  -26.6525  -33.0854   21.6251 N   0  0  0  0  0  0  0  0  0  0  0  0
  -22.0028  -29.5429   24.6028 N   0  0  0  0  0  0  0  0  0  0  0  0
  -19.5130  -27.3031   23.2420 N   0  3  0  0  0  0  0  0  0  0  0  0
  -23.3598  -14.6203   23.0177 O   0  0  0  0  0  0  0  0  0  0  0  0
  -27.1080  -31.0044   22.5657 O   0  0  0  0  0  0  0  0  0  0  0  0
  -23.2119  -31.9344   23.5891 O   0  0  0  0  0  0  0  0  0  0  0  0
  -22.2205  -27.3124   24.0073 O   0  0  0  0  0  0  0  0  0  0  0  0
  -31.2808  -15.3324   18.0269 O   0  0  0  0  0  0  0  0  0  0  0  0
  -20.4680   -8.4340   19.2823 O   0  0  0  0  0  0  0  0  0  0  0  0
  -27.2694  -25.5186   19.7994 O   0  0  0  0  0  0  0  0  0  1  0  0
  -21.6506   -3.0484   19.3146 F   0  0  0  0  0  0  0  0  0  0  0  0
  -19.0776   -6.6863   20.9117 F   0  0  0  0  0  0  0  0  0  0  0  0
  1  2  1  0  0  0  0
  1  5  2  0  0  0  0
  2  6  2  0  0  0  0
  3  8  2  0  0  0  0
  3 16  1  0  0  0  0
  4  9  1  0  0  0  0
  4 16  2  0  0  0  0
  5 18  1  0  0  0  0
  6 20  1  0  0  0  0
  7 10  2  0  0  0  0
  7 19  1  0  0  0  0
  8 23  1  0  0  0  0
  9 23  2  0  0  0  0
 10 24  1  0  0  0  0
 11 12  2  0  0  0  0
 11 25  1  0  0  0  0
 12 26  1  0  0  0  0
 13 21  1  0  0  0  0
 13 24  2  0  0  0  0
 14 26  2  0  0  0  0
 14 27  1  0  0  0  0
 15 22  1  0  0  0  0
 15 63  2  0  0  0  0
 16 28  1  0  0  0  0
 17 28  1  0  0  0  0
 17 30  2  0  0  0  0
 17 32  1  0  0  0  0
 18 20  2  0  0  0  0
 18 37  1  0  0  0  0
 19 21  2  0  0  0  0
 19 38  1  0  0  0  0
 20 49  1  0  0  0  0
 21 39  1  0  0  0  0
 22 29  2  0  0  0  0
 22 59  1  0  0  0  0
 23 81  1  0  0  0  0
 24 82  1  0  0  0  0
 25 27  2  0  0  0  0
 25 81  1  0  0  0  0
 26 83  1  0  0  0  0
 27 84  1  0  0  0  0
 28 64  2  0  0  0  0
 29 53  1  0  0  0  0
 29 65  1  0  0  0  0
 30 66  1  0  0  0  0
 30 70  1  0  0  0  0
 31 63  1  0  0  0  0
 31 65  2  0  0  0  0
 31 72  1  0  0  0  0
 32 71  1  0  0  0  0
 32 76  2  0  0  0  0
 33 50  1  0  0  0  0
 33 73  1  0  0  0  0
 33 77  2  0  0  0  0
 34 60  1  0  0  0  0
 34 67  1  0  0  0  0
 34 78  2  0  0  0  0
 35 61  1  0  0  0  0
 35 74  1  0  0  0  0
 35 79  2  0  0  0  0
 36 68  1  0  0  0  0
 36 69  1  0  0  0  0
 36 80  2  0  0  0  0
 37 40  1  0  0  0  0
 38 50  1  0  0  0  0
 39 67  1  0  0  0  0
 40 42  1  0  0  0  0
 41 43  1  0  0  0  0
 41 45  1  0  0  0  0
 42 49  1  0  0  0  0
 43 51  1  0  0  0  0
 44 46  1  0  0  0  0
 44 52  1  0  0  0  0
 45 68  1  0  0  0  0
 46 69  1  0  0  0  0
 47 51  1  0  0  0  0
 47 68  1  0  0  0  0
 48 52  1  0  0  0  0
 48 69  1  0  0  0  0
 49 73  1  0  0  0  0
 50 67  1  0  0  0  0
 51 66  1  0  0  0  0
 52 72  1  0  0  0  0
 54 61  1  0  0  0  0
 55 62  1  0  0  0  0
 56 62  1  0  0  0  0
 57 62  1  0  0  0  0
 58 75  1  0  0  0  0
 59 82  1  0  0  0  0
 60 62  1  0  0  0  0
 60 74  1  0  0  0  0
 61 75  1  0  0  0  0
 64 66  1  0  0  0  0
M  CHG  1  75   1
M  ISO  4  36 100  59 101  69 100  82 101
M  END
> <Batch ID>
0179

> <Smiles>
CNC(C)C(=O)NC(C(=O)N1Cc2cc([101O:1][101CH2:1]c3cnc(NC4CC[100N:0]([100C:0](=O)N5CCCC(n6nc(-c7ccc(Oc8ccc(F)cc8F)cc7)c(C(N)=O)c6N)C5)C4)nc3C)ccc2CC1C(=O)NC1CCCc2ccccc21)C(C)(C)C

> <Shape>
0.287

> <Color>
0.126

> <Negative vol penalty>
0.000

$$$$

  -OEChem-04052322573D

 85 94  0     1  0  0  0  0  0999 V2000
  -28.0282  -32.9172   26.8489 C   0  0  0  0  0  0  0  0  0  0  0  0
  -28.0547  -31.7115   26.1555 C   0  0  0  0  0  0  0  0  0  0  0  0
  -24.7567   -8.6046   21.5275 C   0  0  0  0  0  0  0  0  0  0  0  0
  -23.2237  -10.0426   20.3363 C   0  0  0  0  0  0  0  0  0  0  0  0
  -26.8197  -33.5880   27.0326 C   0  0  0  0  0  0  0  0  0  0  0  0
  -26.8725  -31.1751   25.6463 C   0  0  0  0  0  0  0  0  0  0  0  0
  -27.3935  -29.4696   20.8181 C   0  0  0  0  0  0  0  0  0  0  0  0
  -23.7340   -8.2397   22.4031 C   0  0  0  0  0  0  0  0  0  0  0  0
  -22.2010   -9.6777   21.2119 C   0  0  0  0  0  0  0  0  0  0  0  0
  -28.0152  -28.2385   20.6138 C   0  0  0  0  0  0  0  0  0  0  0  0
  -21.4381   -6.6526   24.7322 C   0  0  0  0  0  0  0  0  0  0  0  0
  -21.3040   -5.2999   25.0450 C   0  0  0  0  0  0  0  0  0  0  0  0
  -25.8535  -27.1843   20.4297 C   0  0  0  0  0  0  0  0  0  0  0  0
  -29.6660  -23.5288   20.9664 C   0  0  0  0  0  0  0  0  0  0  0  0
  -20.9418   -4.7959   22.7101 C   0  0  0  0  0  0  0  0  0  0  0  0
  -24.5015   -9.5061   20.4941 C   0  0  0  0  0  0  0  0  0  0  0  0
  -25.9066   -9.2542   18.3799 C   0  0  0  0  0  0  0  0  0  0  0  0
  -25.6236  -33.0644   26.5171 C   0  0  0  0  0  0  0  0  0  0  0  0
  -25.9946  -29.5662   20.8402 C   0  0  0  0  0  0  0  0  0  0  0  0
  -25.6468  -31.8388   25.8244 C   0  0  0  0  0  0  0  0  0  0  0  0
  -25.2167  -28.4185   20.6297 C   0  0  0  0  0  0  0  0  0  0  0  0
  -30.1130  -22.2416   20.6896 C   0  0  0  0  0  0  0  0  0  0  0  0
  -30.6214  -21.9440   19.4301 C   0  0  0  0  0  0  0  0  0  0  0  0
  -22.4562   -8.7762   22.2453 C   0  0  0  0  0  0  0  0  0  0  0  0
  -27.2452  -27.0953   20.4218 C   0  0  0  0  0  0  0  0  0  0  0  0
  -21.3239   -7.0770   23.4084 C   0  0  0  0  0  0  0  0  0  0  0  0
  -21.0559   -4.3715   24.0340 C   0  0  0  0  0  0  0  0  0  0  0  0
  -21.0758   -6.1486   22.3973 C   0  0  0  0  0  0  0  0  0  0  0  0
  -25.5576   -9.8839   19.5897 C   0  0  0  0  0  0  0  0  0  0  0  0
  -29.7482  -24.4748   19.9574 C   0  0  0  0  0  0  0  0  0  0  0  0
  -30.6606  -22.9609   18.4899 C   0  0  0  0  0  0  0  0  0  0  0  0
  -26.9648   -9.9888   17.9033 C   0  0  0  0  0  0  0  0  0  0  0  0
  -25.3262   -8.1078   17.7439 C   0  0  0  0  0  0  0  0  0  0  0  0
  -23.7664  -30.4777   22.9497 C   0  0  0  0  0  0  0  0  0  0  0  0
  -21.8086  -29.9853   20.3081 C   0  0  0  0  0  0  0  0  0  0  0  0
  -19.2856  -31.6013   21.9399 C   0  0  0  0  0  0  0  0  0  0  0  0
  -28.5359  -15.6119   18.7276 C   0  0  0  0  0  0  0  0  0  0  0  0
  -24.3348  -33.8017   26.7818 C   0  0  0  0  0  0  0  0  0  0  0  0
  -25.3435  -30.9092   21.0319 C   0  0  0  0  0  0  0  0  0  0  0  0
  -23.7127  -28.4702   20.6405 C   0  0  0  0  0  0  0  0  0  0  0  0
  -23.1820  -33.3540   25.8868 C   0  0  0  0  0  0  0  0  0  0  0  0
  -30.6023  -12.7179   19.3943 C   0  0  0  0  0  0  0  0  0  0  0  0
  -23.1080  -31.8314   25.8334 C   0  0  0  0  0  0  0  0  0  0  0  0
  -29.5605  -11.5980   19.4020 C   0  0  0  0  0  0  0  0  0  0  0  0
  -30.0504  -13.9922   20.0274 C   0  0  0  0  0  0  0  0  0  0  0  0
  -27.7454  -13.3702   19.4207 C   0  0  0  0  0  0  0  0  0  0  0  0
  -30.7898  -18.5523   17.7582 C   0  0  0  0  0  0  0  0  0  0  0  0
  -29.2125  -19.0257   19.0402 C   0  0  0  0  0  0  0  0  0  0  0  0
  -24.3891  -31.2373   25.2357 C   0  0  1  0  0  0  0  0  0  0  0  0
  -23.8899  -30.8225   21.4925 C   0  0  1  0  0  0  0  0  0  0  0  0
  -28.2344  -12.0627   18.7718 C   0  0  2  0  0  0  0  0  0  0  0  0
  -29.4536  -17.8552   18.0703 C   0  0  0  0  0  0  0  0  0  0  0  0
  -30.0340  -21.2007   21.7570 C   0  0  0  0  0  0  0  0  0  0  0  0
  -31.1973  -22.7025   17.1199 C   0  0  0  0  0  0  0  0  0  0  0  0
  -16.9818  -32.5282   21.5784 C   0  0  0  0  0  0  0  0  0  0  0  0
  -23.0035  -32.3680   18.8247 C   0  0  0  0  0  0  0  0  0  0  0  0
  -20.9095  -33.6434   19.3310 C   0  0  0  0  0  0  0  0  0  0  0  0
  -20.8038  -31.5802   17.9330 C   0  0  0  0  0  0  0  0  0  0  0  0
  -18.1142  -29.7946   23.9704 C   0  0  0  0  0  0  0  0  0  0  0  0
  -31.1104  -20.5726   19.1054 C   0  0  0  0  0  0  0  0  0  0  0  0
  -29.2763  -25.8747   20.2205 C   0  0  0  0  0  0  0  0  0  1  0  0
  -21.2303  -31.3741   20.4165 C   0  0  1  0  0  0  0  0  0  0  0  0
  -17.7957  -31.3216   22.0196 C   0  0  2  0  0  0  0  0  0  0  0  0
  -21.5023  -32.2301   19.1473 C   0  0  0  0  0  0  0  0  0  0  0  0
  -26.3314  -10.9373   19.8646 N   0  0  0  0  0  0  0  0  0  0  0  0
  -30.2357  -24.2232   18.7219 N   0  0  0  0  0  0  0  0  0  0  0  0
  -27.1772  -10.9752   18.8210 N   0  0  0  0  0  0  0  0  0  0  0  0
  -23.1277  -29.8132   20.7465 N   0  0  0  0  0  0  0  0  0  0  0  0
  -28.7979  -14.3909   19.3691 N   0  0  0  0  0  0  0  0  0  0  0  0
  -27.7250   -9.8807   16.7930 N   0  0  0  0  0  0  0  0  0  0  0  0
  -24.2450   -7.4724   18.3697 N   0  0  0  0  0  0  0  0  0  0  0  0
  -24.3869  -31.3773   23.7953 N   0  0  0  0  0  0  0  0  0  0  0  0
  -19.8159  -31.2040   20.7307 N   0  0  0  0  0  0  0  0  0  0  0  0
  -29.5795  -16.5312   18.7139 N   0  0  0  0  0  0  0  0  0  0  0  0
  -30.1757  -19.8017   18.2400 N   0  3  0  0  0  0  0  0  0  0  0  0
  -17.4071  -30.9780   23.4167 N   0  3  0  0  0  0  0  0  0  0  0  0
  -25.7641   -7.6504   16.6611 O   0  0  0  0  0  0  0  0  0  0  0  0
  -23.1522  -29.4708   23.2823 O   0  0  0  0  0  0  0  0  0  0  0  0
  -21.1145  -29.0781   19.8408 O   0  0  0  0  0  0  0  0  0  0  0  0
  -19.9153  -32.1236   22.8571 O   0  0  0  0  0  0  0  0  0  0  0  0
  -27.4505  -15.8703   18.1957 O   0  0  0  0  0  0  0  0  0  0  0  0
  -21.4580   -8.4202   23.0993 O   0  0  0  0  0  0  0  0  0  0  0  0
  -27.8495  -25.8925   20.2217 O   0  0  0  0  0  0  0  0  0  1  0  0
  -20.9288   -3.0724   24.3343 F   0  0  0  0  0  0  0  0  0  0  0  0
  -20.9663   -6.5501   21.1235 F   0  0  0  0  0  0  0  0  0  0  0  0
  1  2  1  0  0  0  0
  1  5  2  0  0  0  0
  2  6  2  0  0  0  0
  3  8  2  0  0  0  0
  3 16  1  0  0  0  0
  4  9  1  0  0  0  0
  4 16  2  0  0  0  0
  5 18  1  0  0  0  0
  6 20  1  0  0  0  0
  7 10  2  0  0  0  0
  7 19  1  0  0  0  0
  8 24  1  0  0  0  0
  9 24  2  0  0  0  0
 10 25  1  0  0  0  0
 11 12  2  0  0  0  0
 11 26  1  0  0  0  0
 12 27  1  0  0  0  0
 13 21  1  0  0  0  0
 13 25  2  0  0  0  0
 14 22  2  0  0  0  0
 14 30  1  0  0  0  0
 15 27  2  0  0  0  0
 15 28  1  0  0  0  0
 16 29  1  0  0  0  0
 17 29  1  0  0  0  0
 17 32  2  0  0  0  0
 17 33  1  0  0  0  0
 18 20  2  0  0  0  0
 18 38  1  0  0  0  0
 19 21  2  0  0  0  0
 19 39  1  0  0  0  0
 20 49  1  0  0  0  0
 21 40  1  0  0  0  0
 22 23  1  0  0  0  0
 22 53  1  0  0  0  0
 23 31  2  0  0  0  0
 23 60  1  0  0  0  0
 24 82  1  0  0  0  0
 25 83  1  0  0  0  0
 26 28  2  0  0  0  0
 26 82  1  0  0  0  0
 27 84  1  0  0  0  0
 28 85  1  0  0  0  0
 29 65  2  0  0  0  0
 30 61  1  0  0  0  0
 30 66  2  0  0  0  0
 31 54  1  0  0  0  0
 31 66  1  0  0  0  0
 32 67  1  0  0  0  0
 32 70  1  0  0  0  0
 33 71  1  0  0  0  0
 33 77  2  0  0  0  0
 34 50  1  0  0  0  0
 34 72  1  0  0  0  0
 34 78  2  0  0  0  0
 35 62  1  0  0  0  0
 35 68  1  0  0  0  0
 35 79  2  0  0  0  0
 36 63  1  0  0  0  0
 36 73  1  0  0  0  0
 36 80  2  0  0  0  0
 37 69  1  0  0  0  0
 37 74  1  0  0  0  0
 37 81  2  0  0  0  0
 38 41  1  0  0  0  0
 39 50  1  0  0  0  0
 40 68  1  0  0  0  0
 41 43  1  0  0  0  0
 42 44  1  0  0  0  0
 42 45  1  0  0  0  0
 43 49  1  0  0  0  0
 44 51  1  0  0  0  0
 45 69  1  0  0  0  0
 46 51  1  0  0  0  0
 46 69  1  0  0  0  0
 47 52  1  0  0  0  0
 47 75  1  0  0  0  0
 48 52  1  0  0  0  0
 48 75  1  0  0  0  0
 49 72  1  0  0  0  0
 50 68  1  0  0  0  0
 51 67  1  0  0  0  0
 52 74  1  0  0  0  0
 55 63  1  0  0  0  0
 56 64  1  0  0  0  0
 57 64  1  0  0  0  0
 58 64  1  0  0  0  0
 59 76  1  0  0  0  0
 60 75  1  0  0  0  0
 61 83  1  0  0  0  0
 62 64  1  0  0  0  0
 62 73  1  0  0  0  0
 63 76  1  0  0  0  0
 65 67  1  0  0  0  0
M  CHG  2  75   1  76   1
M  ISO  4  37 100  61 101  74 100  83 101
M  END
> <Batch ID>
0179

> <Smiles>
CNC(C)C(=O)NC(C(=O)N1Cc2cc([101O:1][101CH2:1]c3cc(C)c(CN4CC([100NH:0][100C:0](=O)N5CCCC(n6nc(-c7ccc(Oc8ccc(F)cc8F)cc7)c(C(N)=O)c6N)C5)C4)c(C)n3)ccc2CC1C(=O)NC1CCCc2ccccc21)C(C)(C)C

> <Shape>
0.326

> <Color>
0.098

> <Negative vol penalty>
0.000

$$$$

  -OEChem-04052322573D

 82 90  0     1  0  0  0  0  0999 V2000
  -16.8109  -30.3708   23.8826 C   0  0  0  0  0  0  0  0  0  0  0  0
  -18.0049  -30.8413   24.4195 C   0  0  0  0  0  0  0  0  0  0  0  0
  -26.4906  -18.9623   19.0695 C   0  0  0  0  0  0  0  0  0  0  0  0
  -28.4845  -18.6367   20.3944 C   0  0  0  0  0  0  0  0  0  0  0  0
  -16.8077  -29.2207   23.0945 C   0  0  0  0  0  0  0  0  0  0  0  0
  -19.1963  -30.1612   24.1696 C   0  0  0  0  0  0  0  0  0  0  0  0
  -26.2025  -31.3299   23.2404 C   0  0  0  0  0  0  0  0  0  0  0  0
  -26.1468  -17.6237   19.2578 C   0  0  0  0  0  0  0  0  0  0  0  0
  -28.1407  -17.2981   20.5828 C   0  0  0  0  0  0  0  0  0  0  0  0
  -27.4390  -30.9018   23.7216 C   0  0  0  0  0  0  0  0  0  0  0  0
  -27.9743  -13.7063   21.1133 C   0  0  0  0  0  0  0  0  0  0  0  0
  -28.9794  -12.7512   20.9610 C   0  0  0  0  0  0  0  0  0  0  0  0
  -27.3244  -28.9706   22.2805 C   0  0  0  0  0  0  0  0  0  0  0  0
  -34.0915  -29.4751   19.9642 C   0  0  0  0  0  0  0  0  0  0  0  0
  -32.8302  -27.4549   20.2994 C   0  0  0  0  0  0  0  0  0  0  0  0
  -29.3042  -13.4577   18.6736 C   0  0  0  0  0  0  0  0  0  0  0  0
  -27.6595  -19.4688   19.6377 C   0  0  0  0  0  0  0  0  0  0  0  0
  -27.6552  -21.9443   20.2541 C   0  0  0  0  0  0  0  0  0  0  0  0
  -18.0010  -28.5316   22.8268 C   0  0  0  0  0  0  0  0  0  0  0  0
  -25.5115  -30.5747   22.2820 C   0  0  0  0  0  0  0  0  0  0  0  0
  -19.2089  -29.0000   23.3783 C   0  0  0  0  0  0  0  0  0  0  0  0
  -26.0805  -29.3927   21.7869 C   0  0  0  0  0  0  0  0  0  0  0  0
  -33.3677  -28.6344   20.8025 C   0  0  0  0  0  0  0  0  0  0  0  0
  -26.9718  -16.7915   20.0145 C   0  0  0  0  0  0  0  0  0  0  0  0
  -27.9988  -29.7205   23.2438 C   0  0  0  0  0  0  0  0  0  0  0  0
  -27.6341  -14.5371   20.0457 C   0  0  0  0  0  0  0  0  0  0  0  0
  -29.6444  -12.6269   19.7412 C   0  0  0  0  0  0  0  0  0  0  0  0
  -28.2991  -14.4128   18.8258 C   0  0  0  0  0  0  0  0  0  0  0  0
  -28.0154  -20.8514   19.4431 C   0  0  0  0  0  0  0  0  0  0  0  0
  -34.2481  -29.0938   18.6414 C   0  0  0  0  0  0  0  0  0  0  0  0
  -33.0431  -27.1642   18.9615 C   0  0  0  0  0  0  0  0  0  0  0  0
  -28.2374  -23.0296   19.6461 C   0  0  0  0  0  0  0  0  0  0  0  0
  -26.8650  -21.9756   21.4500 C   0  0  0  0  0  0  0  0  0  0  0  0
  -22.7110  -29.0731   22.2025 C   0  0  0  0  0  0  0  0  0  0  0  0
  -23.4864  -28.6138   19.0864 C   0  0  0  0  0  0  0  0  0  0  0  0
  -25.9259  -28.3922   16.7102 C   0  0  0  0  0  0  0  0  0  0  0  0
  -32.5786  -25.4700   17.1559 C   0  0  0  0  0  0  0  0  0  0  0  0
  -17.9408  -27.2663   22.0083 C   0  0  0  0  0  0  0  0  0  0  0  0
  -24.1910  -31.0641   21.7535 C   0  0  0  0  0  0  0  0  0  0  0  0
  -25.3885  -28.5561   20.7430 C   0  0  0  0  0  0  0  0  0  0  0  0
  -19.3011  -26.8158   21.4822 C   0  0  0  0  0  0  0  0  0  0  0  0
  -30.4510  -23.4729   15.1157 C   0  0  0  0  0  0  0  0  0  0  0  0
  -20.3475  -26.8719   22.5907 C   0  0  0  0  0  0  0  0  0  0  0  0
  -29.5981  -22.7028   16.1263 C   0  0  0  0  0  0  0  0  0  0  0  0
  -31.8862  -23.6547   15.6066 C   0  0  0  0  0  0  0  0  0  0  0  0
  -31.1616  -23.4776   17.9545 C   0  0  0  0  0  0  0  0  0  0  0  0
  -20.5254  -28.3040   23.1094 C   0  0  1  0  0  0  0  0  0  0  0  0
  -23.3370  -29.9503   21.1555 C   0  0  1  0  0  0  0  0  0  0  0  0
  -29.6909  -23.3261   17.5329 C   0  0  2  0  0  0  0  0  0  0  0  0
  -35.0184  -29.9720   17.7126 C   0  0  0  0  0  0  0  0  0  0  0  0
  -26.2551  -27.9713   14.2583 C   0  0  0  0  0  0  0  0  0  0  0  0
  -23.0060  -25.6343   19.5358 C   0  0  0  0  0  0  0  0  0  0  0  0
  -24.2384  -25.1851   17.4033 C   0  0  0  0  0  0  0  0  0  0  0  0
  -22.1294  -26.5168   17.3661 C   0  0  0  0  0  0  0  0  0  0  0  0
  -27.1377  -31.0604   16.2966 C   0  0  0  0  0  0  0  0  0  0  0  0
  -33.1673  -28.9987   22.2441 C   0  0  0  0  0  0  0  0  0  0  0  0
  -31.5444  -29.7959   23.9673 C   0  0  0  0  0  0  0  0  0  0  0  0
  -30.1264  -30.3065   24.1303 C   0  0  0  0  0  0  0  0  0  1  0  0
  -24.2319  -27.5512   18.3156 C   0  0  1  0  0  0  0  0  0  0  0  0
  -26.0543  -29.0250   15.3363 C   0  0  2  0  0  0  0  0  0  0  0  0
  -23.4138  -26.2364   18.1763 C   0  0  0  0  0  0  0  0  0  0  0  0
  -28.7680  -21.2097   18.3994 N   0  0  0  0  0  0  0  0  0  0  0  0
  -33.7407  -27.9560   18.1166 N   0  0  0  0  0  0  0  0  0  0  0  0
  -28.8854  -22.5399   18.5504 N   0  0  0  0  0  0  0  0  0  0  0  0
  -24.0966  -29.0733   20.2621 N   0  0  0  0  0  0  0  0  0  0  0  0
  -31.8958  -24.2538   16.9429 N   0  0  0  0  0  0  0  0  0  0  0  0
  -28.2531  -24.3455   19.9472 N   0  0  0  0  0  0  0  0  0  0  0  0
  -26.3431  -20.7697   21.9377 N   0  0  0  0  0  0  0  0  0  0  0  0
  -32.4909  -25.9601   18.4584 N   0  0  0  0  0  0  0  0  0  0  0  0
  -21.3293  -29.0788   22.1886 N   0  0  0  0  0  0  0  0  0  0  0  0
  -24.6086  -28.1582   17.0436 N   0  0  0  0  0  0  0  0  0  0  0  0
  -27.2151  -29.9590   15.3027 N   0  3  0  0  0  0  0  0  0  0  0  0
  -31.7916  -29.4840   22.5370 N   0  3  0  0  0  0  0  0  0  0  0  0
  -26.6151  -23.0435   22.0588 O   0  0  0  0  0  0  0  0  0  0  0  0
  -23.4285  -28.4370   22.9656 O   0  0  0  0  0  0  0  0  0  0  0  0
  -22.4060  -29.0263   18.6572 O   0  0  0  0  0  0  0  0  0  0  0  0
  -26.8973  -28.1281   17.4153 O   0  0  0  0  0  0  0  0  0  0  0  0
  -33.1729  -26.0491   16.2429 O   0  0  0  0  0  0  0  0  0  0  0  0
  -26.6366  -15.4853   20.1987 O   0  0  0  0  0  0  0  0  0  0  0  0
  -29.2053  -29.3000   23.7123 O   0  0  0  0  0  0  0  0  0  1  0  0
  -30.6106  -11.7107   19.5956 F   0  0  0  0  0  0  0  0  0  0  0  0
  -27.9775  -15.2089   17.7969 F   0  0  0  0  0  0  0  0  0  0  0  0
  1  2  1  0  0  0  0
  1  5  2  0  0  0  0
  2  6  2  0  0  0  0
  3  8  2  0  0  0  0
  3 17  1  0  0  0  0
  4  9  1  0  0  0  0
  4 17  2  0  0  0  0
  5 19  1  0  0  0  0
  6 21  1  0  0  0  0
  7 10  2  0  0  0  0
  7 20  1  0  0  0  0
  8 24  1  0  0  0  0
  9 24  2  0  0  0  0
 10 25  1  0  0  0  0
 11 12  2  0  0  0  0
 11 26  1  0  0  0  0
 12 27  1  0  0  0  0
 13 22  1  0  0  0  0
 13 25  2  0  0  0  0
 14 23  1  0  0  0  0
 14 30  2  0  0  0  0
 15 23  2  0  0  0  0
 15 31  1  0  0  0  0
 16 27  2  0  0  0  0
 16 28  1  0  0  0  0
 17 29  1  0  0  0  0
 18 29  1  0  0  0  0
 18 32  2  0  0  0  0
 18 33  1  0  0  0  0
 19 21  2  0  0  0  0
 19 38  1  0  0  0  0
 20 22  2  0  0  0  0
 20 39  1  0  0  0  0
 21 47  1  0  0  0  0
 22 40  1  0  0  0  0
 23 56  1  0  0  0  0
 24 79  1  0  0  0  0
 25 80  1  0  0  0  0
 26 28  2  0  0  0  0
 26 79  1  0  0  0  0
 27 81  1  0  0  0  0
 28 82  1  0  0  0  0
 29 62  2  0  0  0  0
 30 50  1  0  0  0  0
 30 63  1  0  0  0  0
 31 63  2  0  0  0  0
 31 69  1  0  0  0  0
 32 64  1  0  0  0  0
 32 67  1  0  0  0  0
 33 68  1  0  0  0  0
 33 74  2  0  0  0  0
 34 48  1  0  0  0  0
 34 70  1  0  0  0  0
 34 75  2  0  0  0  0
 35 59  1  0  0  0  0
 35 65  1  0  0  0  0
 35 76  2  0  0  0  0
 36 60  1  0  0  0  0
 36 71  1  0  0  0  0
 36 77  2  0  0  0  0
 37 66  1  0  0  0  0
 37 69  1  0  0  0  0
 37 78  2  0  0  0  0
 38 41  1  0  0  0  0
 39 48  1  0  0  0  0
 40 65  1  0  0  0  0
 41 43  1  0  0  0  0
 42 44  1  0  0  0  0
 42 45  1  0  0  0  0
 43 47  1  0  0  0  0
 44 49  1  0  0  0  0
 45 66  1  0  0  0  0
 46 49  1  0  0  0  0
 46 66  1  0  0  0  0
 47 70  1  0  0  0  0
 48 65  1  0  0  0  0
 49 64  1  0  0  0  0
 51 60  1  0  0  0  0
 52 61  1  0  0  0  0
 53 61  1  0  0  0  0
 54 61  1  0  0  0  0
 55 72  1  0  0  0  0
 56 73  1  0  0  0  0
 57 58  1  0  0  0  0
 57 73  1  0  0  0  0
 58 80  1  0  0  0  0
 59 61  1  0  0  0  0
 59 71  1  0  0  0  0
 60 72  1  0  0  0  0
 62 64  1  0  0  0  0
M  CHG  2  72   1  73   1
M  ISO  4  37 100  58 101  69 100  80 101
M  END
> <Batch ID>
0179

> <Smiles>
CNC(C)C(=O)NC(C(=O)N1Cc2cc([101O:1][101CH2:1]CNCc3cc(C)nc([100NH:0][100C:0](=O)N4CCCC(n5nc(-c6ccc(Oc7ccc(F)cc7F)cc6)c(C(N)=O)c5N)C4)c3)ccc2CC1C(=O)NC1CCCc2ccccc21)C(C)(C)C

> <Shape>
0.261

> <Color>
0.096

> <Negative vol penalty>
0.000

$$$$

  -OEChem-04052322573D

 87 97  0     1  0  0  0  0  0999 V2000
  -26.0474  -28.9481   20.5567 C   0  0  0  0  0  0  0  0  0  0  0  0
  -26.7386  -28.0354   21.3469 C   0  0  0  0  0  0  0  0  0  0  0  0
  -23.4461   -9.6732   19.9665 C   0  0  0  0  0  0  0  0  0  0  0  0
  -24.1251   -9.8604   22.2776 C   0  0  0  0  0  0  0  0  0  0  0  0
  -25.8267  -28.6737   19.2076 C   0  0  0  0  0  0  0  0  0  0  0  0
  -27.2086  -26.8471   20.7888 C   0  0  0  0  0  0  0  0  0  0  0  0
  -31.9590  -25.7887   22.1884 C   0  0  0  0  0  0  0  0  0  0  0  0
  -22.8890   -8.4222   20.2315 C   0  0  0  0  0  0  0  0  0  0  0  0
  -23.5679   -8.6094   22.5426 C   0  0  0  0  0  0  0  0  0  0  0  0
  -32.1432  -25.2545   23.4629 C   0  0  0  0  0  0  0  0  0  0  0  0
  -20.4920   -7.3187   23.0848 C   0  0  0  0  0  0  0  0  0  0  0  0
  -19.7160   -7.1874   24.2364 C   0  0  0  0  0  0  0  0  0  0  0  0
  -32.3266  -23.0482   22.5050 C   0  0  0  0  0  0  0  0  0  0  0  0
  -21.2283   -5.4939   25.0624 C   0  0  0  0  0  0  0  0  0  0  0  0
  -29.8124  -22.0025   23.6817 C   0  0  0  0  0  0  0  0  0  0  0  0
  -24.0642  -10.3923   20.9896 C   0  0  0  0  0  0  0  0  0  0  0  0
  -24.0013  -12.9357   20.8030 C   0  0  0  0  0  0  0  0  0  0  0  0
  -26.3026  -27.4859   18.6304 C   0  0  0  0  0  0  0  0  0  0  0  0
  -31.9463  -24.9539   21.0617 C   0  0  0  0  0  0  0  0  0  0  0  0
  -26.9929  -26.5559   19.4311 C   0  0  0  0  0  0  0  0  0  0  0  0
  -32.1446  -23.5746   21.2171 C   0  0  0  0  0  0  0  0  0  0  0  0
  -30.6338  -21.9076   24.7763 C   0  0  0  0  0  0  0  0  0  0  0  0
  -22.9498   -7.8903   21.5195 C   0  0  0  0  0  0  0  0  0  0  0  0
  -32.3242  -23.8837   23.6217 C   0  0  0  0  0  0  0  0  0  0  0  0
  -21.6362   -6.5376   22.9220 C   0  0  0  0  0  0  0  0  0  0  0  0
  -20.0841   -6.2750   25.2252 C   0  0  0  0  0  0  0  0  0  0  0  0
  -22.0043   -5.6253   23.9108 C   0  0  0  0  0  0  0  0  0  0  0  0
  -24.6404  -11.6843   20.7164 C   0  0  0  0  0  0  0  0  0  0  0  0
  -30.9178  -20.6278   25.2292 C   0  0  0  0  0  0  0  0  0  0  0  0
  -24.9701  -13.8415   20.4459 C   0  0  0  0  0  0  0  0  0  0  0  0
  -29.6475  -19.7204   23.6059 C   0  0  0  0  0  0  0  0  0  0  0  0
  -22.6526  -13.2511   21.1732 C   0  0  0  0  0  0  0  0  0  0  0  0
  -29.8031  -24.2341   18.8274 C   0  0  0  0  0  0  0  0  0  0  0  0
  -32.2886  -22.6121   17.5182 C   0  0  0  0  0  0  0  0  0  0  0  0
  -35.2861  -21.0450   17.9720 C   0  0  0  0  0  0  0  0  0  0  0  0
  -30.2212  -15.6903   20.7698 C   0  0  0  0  0  0  0  0  0  0  0  0
  -25.9985  -27.2115   17.1789 C   0  0  0  0  0  0  0  0  0  0  0  0
  -31.7731  -25.5490   19.6912 C   0  0  0  0  0  0  0  0  0  0  0  0
  -32.1596  -22.6378   20.0378 C   0  0  0  0  0  0  0  0  0  0  0  0
  -26.8552  -26.1009   16.5765 C   0  0  0  0  0  0  0  0  0  0  0  0
  -29.5221  -13.1776   18.3864 C   0  0  0  0  0  0  0  0  0  0  0  0
  -26.9028  -24.8967   17.5116 C   0  0  0  0  0  0  0  0  0  0  0  0
  -28.1551  -12.6383   18.7982 C   0  0  0  0  0  0  0  0  0  0  0  0
  -28.8823  -17.2461   23.8097 C   0  0  0  0  0  0  0  0  0  0  0  0
  -31.7144  -22.1551   26.8439 C   0  0  0  0  0  0  0  0  0  0  0  0
  -30.3623  -13.5136   19.6112 C   0  0  0  0  0  0  0  0  0  0  0  0
  -28.7057  -16.1306   22.7882 C   0  0  0  0  0  0  0  0  0  0  0  0
  -29.9476  -17.9257   21.7993 C   0  0  0  0  0  0  0  0  0  0  0  0
  -28.3285  -14.0019   20.9437 C   0  0  0  0  0  0  0  0  0  0  0  0
  -27.5398  -25.2673   18.8563 C   0  0  1  0  0  0  0  0  0  0  0  0
  -29.0783  -18.4921   22.9309 C   0  0  2  0  0  0  0  0  0  0  0  0
  -31.2643  -24.5433   18.6631 C   0  0  1  0  0  0  0  0  0  0  0  0
  -27.4440  -13.6249   19.7373 C   0  0  2  0  0  0  0  0  0  0  0  0
  -31.3330  -22.9571   25.5751 C   0  0  2  0  0  0  0  0  0  1  0  0
  -31.8592  -20.6644   26.4158 C   0  0  0  0  0  0  0  0  0  0  0  0
  -30.4919  -24.1867   25.8915 C   0  0  0  0  0  0  0  0  0  0  0  0
  -33.2887  -20.3251   25.9797 C   0  0  0  0  0  0  0  0  0  0  0  0
  -31.4123  -19.7254   27.5390 C   0  0  0  0  0  0  0  0  0  0  0  0
  -37.0581  -19.7824   16.7217 C   0  0  0  0  0  0  0  0  0  0  0  0
  -30.4853  -20.1516   17.4520 C   0  0  0  0  0  0  0  0  0  0  0  0
  -32.5302  -18.7482   17.1096 C   0  0  0  0  0  0  0  0  0  0  0  0
  -31.8989  -20.4642   15.4127 C   0  0  0  0  0  0  0  0  0  0  0  0
  -37.3530  -23.0554   18.6391 C   0  0  0  0  0  0  0  0  0  0  0  0
  -32.8330  -21.2094   17.6408 C   0  0  1  0  0  0  0  0  0  0  0  0
  -36.5995  -21.1450   17.2174 C   0  0  2  0  0  0  0  0  0  0  0  0
  -31.9347  -20.1605   16.9264 C   0  0  0  0  0  0  0  0  0  0  0  0
  -29.2946  -20.9140   23.0723 N   0  0  0  0  0  0  0  0  0  0  0  0
  -25.9165  -11.7824   20.3341 N   0  0  0  0  0  0  0  0  0  0  0  0
  -30.4495  -19.5017   24.6679 N   0  0  0  0  0  0  0  0  0  0  0  0
  -26.0870  -13.1062   20.1772 N   0  0  0  0  0  0  0  0  0  0  0  0
  -31.9798  -23.2669   18.7189 N   0  0  0  0  0  0  0  0  0  0  0  0
  -29.6654  -14.4320   20.5136 N   0  0  0  0  0  0  0  0  0  0  0  0
  -29.5590  -16.5250   21.6692 N   0  0  0  0  0  0  0  0  0  0  0  0
  -24.9670  -15.1871   20.3385 N   0  0  0  0  0  0  0  0  0  0  0  0
  -21.7893  -12.2000   21.5112 N   0  0  0  0  0  0  0  0  0  0  0  0
  -28.9797  -25.3396   18.7306 N   0  0  0  0  0  0  0  0  0  0  0  0
  -34.2040  -21.2588   17.1446 N   0  0  0  0  0  0  0  0  0  0  0  0
  -37.6619  -21.7064   18.0989 N   0  3  0  0  0  0  0  0  0  0  0  0
  -22.2209  -14.4288   21.1875 O   0  0  0  0  0  0  0  0  0  0  0  0
  -29.4488  -23.0779   19.0256 O   0  0  0  0  0  0  0  0  0  0  0  0
  -32.1494  -23.1111   16.3987 O   0  0  0  0  0  0  0  0  0  0  0  0
  -35.2259  -20.7978   19.1745 O   0  0  0  0  0  0  0  0  0  0  0  0
  -31.2889  -16.0397   20.2483 O   0  0  0  0  0  0  0  0  0  0  0  0
  -22.4060   -6.6697   21.7785 O   0  0  0  0  0  0  0  0  0  0  0  0
  -32.5048  -23.3561   24.8730 O   0  0  0  0  0  0  0  0  0  1  0  0
  -19.3396   -6.1501   26.3317 F   0  0  0  0  0  0  0  0  0  0  0  0
  -23.1031   -4.8730   23.7605 F   0  0  0  0  0  0  0  0  0  0  0  0
  1  2  1  0  0  0  0
  1  5  2  0  0  0  0
  2  6  2  0  0  0  0
  3  8  2  0  0  0  0
  3 16  1  0  0  0  0
  4  9  1  0  0  0  0
  4 16  2  0  0  0  0
  5 18  1  0  0  0  0
  6 20  1  0  0  0  0
  7 10  2  0  0  0  0
  7 19  1  0  0  0  0
  8 23  1  0  0  0  0
  9 23  2  0  0  0  0
 10 24  1  0  0  0  0
 11 12  2  0  0  0  0
 11 25  1  0  0  0  0
 12 26  1  0  0  0  0
 13 21  1  0  0  0  0
 13 24  2  0  0  0  0
 14 26  2  0  0  0  0
 14 27  1  0  0  0  0
 15 22  1  0  0  0  0
 15 67  2  0  0  0  0
 16 28  1  0  0  0  0
 17 28  1  0  0  0  0
 17 30  2  0  0  0  0
 17 32  1  0  0  0  0
 18 20  2  0  0  0  0
 18 37  1  0  0  0  0
 19 21  2  0  0  0  0
 19 38  1  0  0  0  0
 20 50  1  0  0  0  0
 21 39  1  0  0  0  0
 22 29  2  0  0  0  0
 22 54  1  0  0  0  0
 23 84  1  0  0  0  0
 24 85  1  0  0  0  0
 25 27  2  0  0  0  0
 25 84  1  0  0  0  0
 26 86  1  0  0  0  0
 27 87  1  0  0  0  0
 28 68  2  0  0  0  0
 29 55  1  0  0  0  0
 29 69  1  0  0  0  0
 30 70  1  0  0  0  0
 30 74  1  0  0  0  0
 31 51  1  0  0  0  0
 31 67  1  0  0  0  0
 31 69  2  0  0  0  0
 32 75  1  0  0  0  0
 32 79  2  0  0  0  0
 33 52  1  0  0  0  0
 33 76  1  0  0  0  0
 33 80  2  0  0  0  0
 34 64  1  0  0  0  0
 34 71  1  0  0  0  0
 34 81  2  0  0  0  0
 35 65  1  0  0  0  0
 35 77  1  0  0  0  0
 35 82  2  0  0  0  0
 36 72  1  0  0  0  0
 36 73  1  0  0  0  0
 36 83  2  0  0  0  0
 37 40  1  0  0  0  0
 38 52  1  0  0  0  0
 39 71  1  0  0  0  0
 40 42  1  0  0  0  0
 41 43  1  0  0  0  0
 41 46  1  0  0  0  0
 42 50  1  0  0  0  0
 43 53  1  0  0  0  0
 44 47  1  0  0  0  0
 44 51  1  0  0  0  0
 45 54  1  0  0  0  0
 45 55  1  0  0  0  0
 46 72  1  0  0  0  0
 47 73  1  0  0  0  0
 48 51  1  0  0  0  0
 48 73  1  0  0  0  0
 49 53  1  0  0  0  0
 49 72  1  0  0  0  0
 50 76  1  0  0  0  0
 52 71  1  0  0  0  0
 53 70  1  0  0  0  0
 54 56  1  0  0  0  0
 54 85  1  0  0  0  0
 55 57  1  0  0  0  0
 55 58  1  0  0  0  0
 59 65  1  0  0  0  0
 60 66  1  0  0  0  0
 61 66  1  0  0  0  0
 62 66  1  0  0  0  0
 63 78  1  0  0  0  0
 64 66  1  0  0  0  0
 64 77  1  0  0  0  0
 65 78  1  0  0  0  0
 68 70  1  0  0  0  0
M  CHG  1  78   1
M  ISO  4  36 100  54 101  73 100  85 101
M  END
> <Batch ID>
0179

> <Smiles>
CNC(C)C(=O)NC(C(=O)N1Cc2cc([101O:1][101C:1]3(C)CC(C)(C)c4nc(C5CC[100N:0]([100C:0](=O)N6CCCC(n7nc(-c8ccc(Oc9ccc(F)cc9F)cc8)c(C(N)=O)c7N)C6)C5)ncc43)ccc2CC1C(=O)NC1CCCc2ccccc21)C(C)(C)C

> <Shape>
0.233

> <Color>
0.166

> <Negative vol penalty>
0.000

$$$$

  -OEChem-04052322573D

 84 93  0     1  0  0  0  0  0999 V2000
  -29.4036  -35.3506   19.1517 C   0  0  0  0  0  0  0  0  0  0  0  0
  -30.1002  -34.1720   18.9048 C   0  0  0  0  0  0  0  0  0  0  0  0
  -22.9186  -10.1388   19.8529 C   0  0  0  0  0  0  0  0  0  0  0  0
  -24.0184   -9.5452   21.9205 C   0  0  0  0  0  0  0  0  0  0  0  0
  -28.2671  -35.3312   19.9591 C   0  0  0  0  0  0  0  0  0  0  0  0
  -29.6614  -32.9733   19.4662 C   0  0  0  0  0  0  0  0  0  0  0  0
  -29.3717  -25.9465   18.1036 C   0  0  0  0  0  0  0  0  0  0  0  0
  -22.1650   -8.9669   19.9173 C   0  0  0  0  0  0  0  0  0  0  0  0
  -23.2648   -8.3733   21.9850 C   0  0  0  0  0  0  0  0  0  0  0  0
  -29.7069  -24.7227   18.6813 C   0  0  0  0  0  0  0  0  0  0  0  0
  -20.1304   -7.4751   22.8736 C   0  0  0  0  0  0  0  0  0  0  0  0
  -19.5597   -7.1401   24.1014 C   0  0  0  0  0  0  0  0  0  0  0  0
  -27.6854  -24.7961   19.9955 C   0  0  0  0  0  0  0  0  0  0  0  0
  -28.7671  -19.9777   20.8979 C   0  0  0  0  0  0  0  0  0  0  0  0
  -29.3925  -21.0736   22.9581 C   0  0  0  0  0  0  0  0  0  0  0  0
  -20.8007   -5.0673   24.1127 C   0  0  0  0  0  0  0  0  0  0  0  0
  -23.8454  -10.4280   20.8545 C   0  0  0  0  0  0  0  0  0  0  0  0
  -24.2903  -12.8951   21.3271 C   0  0  0  0  0  0  0  0  0  0  0  0
  -27.8085  -34.1301   20.5228 C   0  0  0  0  0  0  0  0  0  0  0  0
  -28.1942  -26.6107   18.4763 C   0  0  0  0  0  0  0  0  0  0  0  0
  -28.5185  -32.9380   20.2830 C   0  0  0  0  0  0  0  0  0  0  0  0
  -27.3362  -26.0270   19.4192 C   0  0  0  0  0  0  0  0  0  0  0  0
  -29.8383  -18.7180   22.6593 C   0  0  0  0  0  0  0  0  0  0  0  0
  -28.8269  -21.1282   21.6842 C   0  0  0  0  0  0  0  0  0  0  0  0
  -29.2727  -18.7726   21.3854 C   0  0  0  0  0  0  0  0  0  0  0  0
  -29.8982  -19.8685   23.4457 C   0  0  0  0  0  0  0  0  0  0  0  0
  -22.3381   -8.0841   20.9833 C   0  0  0  0  0  0  0  0  0  0  0  0
  -28.8652  -24.1487   19.6294 C   0  0  0  0  0  0  0  0  0  0  0  0
  -21.0363   -6.6062   22.2652 C   0  0  0  0  0  0  0  0  0  0  0  0
  -19.8948   -5.9362   24.7210 C   0  0  0  0  0  0  0  0  0  0  0  0
  -21.3714   -5.4022   22.8848 C   0  0  0  0  0  0  0  0  0  0  0  0
  -24.6246  -11.6382   20.7882 C   0  0  0  0  0  0  0  0  0  0  0  0
  -25.3503  -13.7034   20.9963 C   0  0  0  0  0  0  0  0  0  0  0  0
  -23.1258  -13.2960   22.0611 C   0  0  0  0  0  0  0  0  0  0  0  0
  -27.5299  -29.4059   19.8362 C   0  0  0  0  0  0  0  0  0  0  0  0
  -24.4677  -28.5471   19.1979 C   0  0  0  0  0  0  0  0  0  0  0  0
  -22.2240  -26.0448   18.6051 C   0  0  0  0  0  0  0  0  0  0  0  0
  -30.8334  -14.6052   20.5443 C   0  0  0  0  0  0  0  0  0  0  0  0
  -26.6023  -34.1667   21.4275 C   0  0  0  0  0  0  0  0  0  0  0  0
  -27.8336  -27.9173   17.8242 C   0  0  0  0  0  0  0  0  0  0  0  0
  -26.0504  -26.6898   19.8387 C   0  0  0  0  0  0  0  0  0  0  0  0
  -25.9879  -32.7921   21.6794 C   0  0  0  0  0  0  0  0  0  0  0  0
  -29.2399  -12.9141   17.8587 C   0  0  0  0  0  0  0  0  0  0  0  0
  -31.7126  -17.3820   24.0746 C   0  0  0  0  0  0  0  0  0  0  0  0
  -27.0740  -31.7758   22.0174 C   0  0  0  0  0  0  0  0  0  0  0  0
  -27.8709  -12.5328   18.4248 C   0  0  0  0  0  0  0  0  0  0  0  0
  -32.0736  -16.0132   23.4685 C   0  0  0  0  0  0  0  0  0  0  0  0
  -30.3369  -12.8085   18.9159 C   0  0  0  0  0  0  0  0  0  0  0  0
  -28.7063  -13.1733   20.7253 C   0  0  0  0  0  0  0  0  0  0  0  0
  -30.4134  -17.3467   23.2135 C   0  0  2  0  0  0  0  0  0  0  0  0
  -28.0595  -31.6138   20.8538 C   0  0  1  0  0  0  0  0  0  0  0  0
  -26.8663  -28.7535   18.6565 C   0  0  1  0  0  0  0  0  0  0  0  0
  -27.5574  -13.3184   19.7126 C   0  0  2  0  0  0  0  0  0  0  0  0
  -31.2120  -16.4099   22.2496 C   0  0  2  0  0  0  0  0  0  0  0  0
  -29.1983  -17.5534   20.5265 C   0  0  0  0  0  0  0  0  0  0  0  0
  -30.4982  -19.8334   24.8126 C   0  0  0  0  0  0  0  0  0  0  0  0
  -19.7868  -25.6498   18.1565 C   0  0  0  0  0  0  0  0  0  0  0  0
  -23.8485  -29.0351   22.1456 C   0  0  0  0  0  0  0  0  0  0  0  0
  -21.7242  -27.7456   21.8410 C   0  0  0  0  0  0  0  0  0  0  0  0
  -22.0952  -29.8548   20.5617 C   0  0  0  0  0  0  0  0  0  0  0  0
  -22.7879  -24.8262   15.9677 C   0  0  0  0  0  0  0  0  0  0  0  0
  -28.2821  -22.4241   21.1598 C   0  0  0  0  0  0  0  0  0  1  0  0
  -23.3967  -27.7798   19.9351 C   0  0  1  0  0  0  0  0  0  0  0  0
  -21.1568  -25.8808   17.5380 C   0  0  2  0  0  0  0  0  0  0  0  0
  -22.7913  -28.5920   21.1146 C   0  0  0  0  0  0  0  0  0  0  0  0
  -25.8046  -11.6428   20.1625 N   0  0  0  0  0  0  0  0  0  0  0  0
  -26.2210  -12.9124   20.3060 N   0  0  0  0  0  0  0  0  0  0  0  0
  -25.7449  -27.9691   19.1773 N   0  0  0  0  0  0  0  0  0  0  0  0
  -29.9780  -13.5813   20.1078 N   0  0  0  0  0  0  0  0  0  0  0  0
  -25.6132  -15.0065   21.2314 N   0  0  0  0  0  0  0  0  0  0  0  0
  -22.1330  -12.3395   22.3137 N   0  0  0  0  0  0  0  0  0  0  0  0
  -27.4836  -30.7868   19.8151 N   0  0  0  0  0  0  0  0  0  0  0  0
  -22.4225  -27.3702   18.9294 N   0  0  0  0  0  0  0  0  0  0  0  0
  -30.4222  -15.3006   21.6767 N   0  0  0  0  0  0  0  0  0  0  0  0
  -21.4772  -24.7208   16.6590 N   0  3  0  0  0  0  0  0  0  0  0  0
  -22.9626  -14.4719   22.4664 O   0  0  0  0  0  0  0  0  0  0  0  0
  -28.0445  -28.7081   20.7022 O   0  0  0  0  0  0  0  0  0  0  0  0
  -24.1798  -29.6163   18.6542 O   0  0  0  0  0  0  0  0  0  0  0  0
  -22.8192  -25.0922   19.1039 O   0  0  0  0  0  0  0  0  0  0  0  0
  -31.8875  -14.8908   19.9659 O   0  0  0  0  0  0  0  0  0  0  0  0
  -21.6027   -6.9405   21.0466 O   0  0  0  0  0  0  0  0  0  0  0  0
  -29.1903  -22.9545   20.1953 O   0  0  0  0  0  0  0  0  0  1  0  0
  -19.3478   -5.6154   25.9008 F   0  0  0  0  0  0  0  0  0  0  0  0
  -22.2420   -4.5639   22.3059 F   0  0  0  0  0  0  0  0  0  0  0  0
  1  2  1  0  0  0  0
  1  5  2  0  0  0  0
  2  6  2  0  0  0  0
  3  8  2  0  0  0  0
  3 17  1  0  0  0  0
  4  9  1  0  0  0  0
  4 17  2  0  0  0  0
  5 19  1  0  0  0  0
  6 21  1  0  0  0  0
  7 10  2  0  0  0  0
  7 20  1  0  0  0  0
  8 27  1  0  0  0  0
  9 27  2  0  0  0  0
 10 28  1  0  0  0  0
 11 12  2  0  0  0  0
 11 29  1  0  0  0  0
 12 30  1  0  0  0  0
 13 22  1  0  0  0  0
 13 28  2  0  0  0  0
 14 24  1  0  0  0  0
 14 25  2  0  0  0  0
 15 24  2  0  0  0  0
 15 26  1  0  0  0  0
 16 30  2  0  0  0  0
 16 31  1  0  0  0  0
 17 32  1  0  0  0  0
 18 32  1  0  0  0  0
 18 33  2  0  0  0  0
 18 34  1  0  0  0  0
 19 21  2  0  0  0  0
 19 39  1  0  0  0  0
 20 22  2  0  0  0  0
 20 40  1  0  0  0  0
 21 51  1  0  0  0  0
 22 41  1  0  0  0  0
 23 25  1  0  0  0  0
 23 26  2  0  0  0  0
 23 50  1  0  0  0  0
 24 62  1  0  0  0  0
 25 55  1  0  0  0  0
 26 56  1  0  0  0  0
 27 81  1  0  0  0  0
 28 82  1  0  0  0  0
 29 31  2  0  0  0  0
 29 81  1  0  0  0  0
 30 83  1  0  0  0  0
 31 84  1  0  0  0  0
 32 66  2  0  0  0  0
 33 67  1  0  0  0  0
 33 70  1  0  0  0  0
 34 71  1  0  0  0  0
 34 76  2  0  0  0  0
 35 52  1  0  0  0  0
 35 72  1  0  0  0  0
 35 77  2  0  0  0  0
 36 63  1  0  0  0  0
 36 68  1  0  0  0  0
 36 78  2  0  0  0  0
 37 64  1  0  0  0  0
 37 73  1  0  0  0  0
 37 79  2  0  0  0  0
 38 69  1  0  0  0  0
 38 74  1  0  0  0  0
 38 80  2  0  0  0  0
 39 42  1  0  0  0  0
 40 52  1  0  0  0  0
 41 68  1  0  0  0  0
 42 45  1  0  0  0  0
 43 46  1  0  0  0  0
 43 48  1  0  0  0  0
 44 47  1  0  0  0  0
 44 50  1  0  0  0  0
 45 51  1  0  0  0  0
 46 53  1  0  0  0  0
 47 54  1  0  0  0  0
 48 69  1  0  0  0  0
 49 53  1  0  0  0  0
 49 69  1  0  0  0  0
 50 54  1  0  0  0  0
 51 72  1  0  0  0  0
 52 68  1  0  0  0  0
 53 67  1  0  0  0  0
 54 74  1  0  0  0  0
 57 64  1  0  0  0  0
 58 65  1  0  0  0  0
 59 65  1  0  0  0  0
 60 65  1  0  0  0  0
 61 75  1  0  0  0  0
 62 82  1  0  0  0  0
 63 65  1  0  0  0  0
 63 73  1  0  0  0  0
 64 75  1  0  0  0  0
 66 67  1  0  0  0  0
M  CHG  1  75   1
M  ISO  4  38 100  62 101  74 100  82 101
M  END
> <Batch ID>
0179

> <Smiles>
CNC(C)C(=O)NC(C(=O)N1Cc2cc([101O:1][101CH2:1]c3cc(C)c(C4CCC4[100NH:0][100C:0](=O)N4CCCC(n5nc(-c6ccc(Oc7ccc(F)cc7F)cc6)c(C(N)=O)c5N)C4)c(C)c3)ccc2CC1C(=O)NC1CCCc2ccccc21)C(C)(C)C

> <Shape>
0.319

> <Color>
0.154

> <Negative vol penalty>
0.000

$$$$

  -OEChem-04052322573D

 85 94  0     1  0  0  0  0  0999 V2000
  -22.4285   -8.6802   20.5619 C   0  0  0  0  0  0  0  0  0  0  0  0
  -22.1460   -9.9471   20.0614 C   0  0  0  0  0  0  0  0  0  0  0  0
  -26.7886  -27.8254   22.3496 C   0  0  0  0  0  0  0  0  0  0  0  0
  -25.5642  -28.2651   20.3138 C   0  0  0  0  0  0  0  0  0  0  0  0
  -23.3834   -8.5256   21.5661 C   0  0  0  0  0  0  0  0  0  0  0  0
  -22.8175  -11.0604   20.5656 C   0  0  0  0  0  0  0  0  0  0  0  0
  -24.4987  -16.0639   17.4601 C   0  0  0  0  0  0  0  0  0  0  0  0
  -27.7060  -27.0580   21.6321 C   0  0  0  0  0  0  0  0  0  0  0  0
  -26.4817  -27.4977   19.5962 C   0  0  0  0  0  0  0  0  0  0  0  0
  -23.9236  -17.3278   17.3353 C   0  0  0  0  0  0  0  0  0  0  0  0
  -27.8689  -23.9425   20.3314 C   0  0  0  0  0  0  0  0  0  0  0  0
  -28.2498  -22.7149   20.8732 C   0  0  0  0  0  0  0  0  0  0  0  0
  -25.3665  -18.1505   19.0847 C   0  0  0  0  0  0  0  0  0  0  0  0
  -22.0589  -24.1685   18.0098 C   0  0  0  0  0  0  0  0  0  0  0  0
  -30.5485  -23.4561   20.9365 C   0  0  0  0  0  0  0  0  0  0  0  0
  -25.7176  -28.4290   21.6904 C   0  0  0  0  0  0  0  0  0  0  0  0
  -24.8347  -30.6036   22.6900 C   0  0  0  0  0  0  0  0  0  0  0  0
  -24.0738   -9.6364   22.0760 C   0  0  0  0  0  0  0  0  0  0  0  0
  -25.5062  -15.8307   18.4072 C   0  0  0  0  0  0  0  0  0  0  0  0
  -23.7816  -10.9207   21.5784 C   0  0  0  0  0  0  0  0  0  0  0  0
  -25.9546  -16.8834   19.2177 C   0  0  0  0  0  0  0  0  0  0  0  0
  -22.5381  -23.9860   19.3022 C   0  0  0  0  0  0  0  0  0  0  0  0
  -23.2632  -22.8412   19.6136 C   0  0  0  0  0  0  0  0  0  0  0  0
  -27.5527  -26.8941   20.2555 C   0  0  0  0  0  0  0  0  0  0  0  0
  -24.3554  -18.3706   18.1497 C   0  0  0  0  0  0  0  0  0  0  0  0
  -28.8278  -24.9269   20.0921 C   0  0  0  0  0  0  0  0  0  0  0  0
  -29.5896  -22.4717   21.1757 C   0  0  0  0  0  0  0  0  0  0  0  0
  -30.1675  -24.6838   20.3947 C   0  0  0  0  0  0  0  0  0  0  0  0
  -24.7692  -29.2214   22.4311 C   0  0  0  0  0  0  0  0  0  0  0  0
  -22.3296  -23.1844   17.0727 C   0  0  0  0  0  0  0  0  0  0  0  0
  -23.4798  -21.9164   18.6048 C   0  0  0  0  0  0  0  0  0  0  0  0
  -23.7055  -30.8691   23.4254 C   0  0  0  0  0  0  0  0  0  0  0  0
  -25.8275  -31.5619   22.3004 C   0  0  0  0  0  0  0  0  0  0  0  0
  -25.7980  -13.9537   20.9558 C   0  0  0  0  0  0  0  0  0  0  0  0
  -28.8448  -15.0667   20.9424 C   0  0  0  0  0  0  0  0  0  0  0  0
  -31.0268  -17.5263   20.0282 C   0  0  0  0  0  0  0  0  0  0  0  0
  -21.4109  -25.8518   23.2796 C   0  0  0  0  0  0  0  0  0  0  0  0
  -25.0635   -9.4253   23.1944 C   0  0  0  0  0  0  0  0  0  0  0  0
  -26.1351  -14.4683   18.5109 C   0  0  0  0  0  0  0  0  0  0  0  0
  -27.0473  -16.6901   20.2361 C   0  0  0  0  0  0  0  0  0  0  0  0
  -25.9993  -10.6115   23.4116 C   0  0  0  0  0  0  0  0  0  0  0  0
  -22.3866  -27.7750   26.1285 C   0  0  0  0  0  0  0  0  0  0  0  0
  -18.6177  -25.2956   21.0351 C   0  0  0  0  0  0  0  0  0  0  0  0
  -25.2116  -11.9177   23.4242 C   0  0  0  0  0  0  0  0  0  0  0  0
  -21.9756  -29.2046   25.7942 C   0  0  0  0  0  0  0  0  0  0  0  0
  -19.7448  -24.8016   20.1392 C   0  0  0  0  0  0  0  0  0  0  0  0
  -21.3808  -26.7827   25.5658 C   0  0  0  0  0  0  0  0  0  0  0  0
  -19.3163  -26.3230   21.9122 C   0  0  0  0  0  0  0  0  0  0  0  0
  -20.8600  -28.3086   23.6720 C   0  0  0  0  0  0  0  0  0  0  0  0
  -24.5066  -12.1497   22.0822 C   0  0  1  0  0  0  0  0  0  0  0  0
  -26.7952  -14.2163   19.8630 C   0  0  1  0  0  0  0  0  0  0  0  0
  -21.7461  -29.4152   24.2890 C   0  0  2  0  0  0  0  0  0  0  0  0
  -20.9522  -24.7669   21.0803 C   0  0  1  0  0  0  0  0  0  0  0  0
  -23.7918  -22.6197   20.9909 C   0  0  0  0  0  0  0  0  0  0  0  0
  -21.8321  -23.3473   15.6753 C   0  0  0  0  0  0  0  0  0  0  0  0
  -33.4457  -18.1743   20.1912 C   0  0  0  0  0  0  0  0  0  0  0  0
  -28.4295  -15.8755   23.8550 C   0  0  0  0  0  0  0  0  0  0  0  0
  -30.4606  -17.3274   23.6688 C   0  0  0  0  0  0  0  0  0  0  0  0
  -30.6612  -14.8599   23.3625 C   0  0  0  0  0  0  0  0  0  0  0  0
  -31.3500  -17.5073   17.0865 C   0  0  0  0  0  0  0  0  0  0  0  0
  -22.2569  -25.0374   20.3422 C   0  0  0  0  0  0  0  0  0  0  0  0
  -24.2531  -20.6678   18.8782 C   0  0  0  0  0  0  0  0  0  1  0  0
  -29.5547  -16.2466   21.5611 C   0  0  1  0  0  0  0  0  0  0  0  0
  -32.3877  -17.4676   19.3581 C   0  0  2  0  0  0  0  0  0  0  0  0
  -29.7545  -16.0808   23.0941 C   0  0  0  0  0  0  0  0  0  0  0  0
  -23.6842  -28.6488   22.9594 N   0  0  0  0  0  0  0  0  0  0  0  0
  -23.0302  -22.0590   17.3379 N   0  0  0  0  0  0  0  0  0  0  0  0
  -23.0577  -29.6762   23.5575 N   0  0  0  0  0  0  0  0  0  0  0  0
  -27.6264  -15.3382   20.3040 N   0  0  0  0  0  0  0  0  0  0  0  0
  -21.1943  -26.9505   24.1244 N   0  0  0  0  0  0  0  0  0  0  0  0
  -20.6619  -25.7792   22.1029 N   0  0  0  0  0  0  0  0  0  0  0  0
  -23.2135  -32.0043   23.9656 N   0  0  0  0  0  0  0  0  0  0  0  0
  -26.9234  -31.1198   21.5468 N   0  0  0  0  0  0  0  0  0  0  0  0
  -25.4492  -12.6235   21.0915 N   0  0  0  0  0  0  0  0  0  0  0  0
  -30.7950  -16.4156   20.8117 N   0  0  0  0  0  0  0  0  0  0  0  0
  -32.3336  -18.1172   18.0179 N   0  3  0  0  0  0  0  0  0  0  0  0
  -25.7537  -32.7712   22.6254 O   0  0  0  0  0  0  0  0  0  0  0  0
  -25.3773  -14.8886   21.6272 O   0  0  0  0  0  0  0  0  0  0  0  0
  -29.3561  -13.9465   21.0165 O   0  0  0  0  0  0  0  0  0  0  0  0
  -30.2489  -18.4655   19.8752 O   0  0  0  0  0  0  0  0  0  0  0  0
  -22.2300  -24.9692   23.5682 O   0  0  0  0  0  0  0  0  0  0  0  0
  -28.4479  -26.1455   19.5550 O   0  0  0  0  0  0  0  0  0  0  0  0
  -23.7842  -19.6295   18.0281 O   0  0  0  0  0  0  0  0  0  1  0  0
  -29.9550  -21.2934   21.6974 F   0  0  0  0  0  0  0  0  0  0  0  0
  -31.0931  -25.6260   20.1682 F   0  0  0  0  0  0  0  0  0  0  0  0
  1  2  1  0  0  0  0
  1  5  2  0  0  0  0
  2  6  2  0  0  0  0
  3  8  2  0  0  0  0
  3 16  1  0  0  0  0
  4  9  1  0  0  0  0
  4 16  2  0  0  0  0
  5 18  1  0  0  0  0
  6 20  1  0  0  0  0
  7 10  2  0  0  0  0
  7 19  1  0  0  0  0
  8 24  1  0  0  0  0
  9 24  2  0  0  0  0
 10 25  1  0  0  0  0
 11 12  2  0  0  0  0
 11 26  1  0  0  0  0
 12 27  1  0  0  0  0
 13 21  1  0  0  0  0
 13 25  2  0  0  0  0
 14 22  2  0  0  0  0
 14 30  1  0  0  0  0
 15 27  2  0  0  0  0
 15 28  1  0  0  0  0
 16 29  1  0  0  0  0
 17 29  1  0  0  0  0
 17 32  2  0  0  0  0
 17 33  1  0  0  0  0
 18 20  2  0  0  0  0
 18 38  1  0  0  0  0
 19 21  2  0  0  0  0
 19 39  1  0  0  0  0
 20 50  1  0  0  0  0
 21 40  1  0  0  0  0
 22 23  1  0  0  0  0
 22 61  1  0  0  0  0
 23 31  2  0  0  0  0
 23 54  1  0  0  0  0
 24 82  1  0  0  0  0
 25 83  1  0  0  0  0
 26 28  2  0  0  0  0
 26 82  1  0  0  0  0
 27 84  1  0  0  0  0
 28 85  1  0  0  0  0
 29 66  2  0  0  0  0
 30 55  1  0  0  0  0
 30 67  2  0  0  0  0
 31 62  1  0  0  0  0
 31 67  1  0  0  0  0
 32 68  1  0  0  0  0
 32 72  1  0  0  0  0
 33 73  1  0  0  0  0
 33 77  2  0  0  0  0
 34 51  1  0  0  0  0
 34 74  1  0  0  0  0
 34 78  2  0  0  0  0
 35 63  1  0  0  0  0
 35 69  1  0  0  0  0
 35 79  2  0  0  0  0
 36 64  1  0  0  0  0
 36 75  1  0  0  0  0
 36 80  2  0  0  0  0
 37 70  1  0  0  0  0
 37 71  1  0  0  0  0
 37 81  2  0  0  0  0
 38 41  1  0  0  0  0
 39 51  1  0  0  0  0
 40 69  1  0  0  0  0
 41 44  1  0  0  0  0
 42 45  1  0  0  0  0
 42 47  1  0  0  0  0
 43 46  1  0  0  0  0
 43 48  1  0  0  0  0
 44 50  1  0  0  0  0
 45 52  1  0  0  0  0
 46 53  1  0  0  0  0
 47 70  1  0  0  0  0
 48 71  1  0  0  0  0
 49 52  1  0  0  0  0
 49 70  1  0  0  0  0
 50 74  1  0  0  0  0
 51 69  1  0  0  0  0
 52 68  1  0  0  0  0
 53 61  1  0  0  0  0
 53 71  1  0  0  0  0
 56 64  1  0  0  0  0
 57 65  1  0  0  0  0
 58 65  1  0  0  0  0
 59 65  1  0  0  0  0
 60 76  1  0  0  0  0
 62 83  1  0  0  0  0
 63 65  1  0  0  0  0
 63 75  1  0  0  0  0
 64 76  1  0  0  0  0
 66 68  1  0  0  0  0
M  CHG  1  76   1
M  ISO  4  37 100  62 101  71 100  83 101
M  END
> <Batch ID>
0179

> <Smiles>
CNC(C)C(=O)NC(C(=O)N1Cc2cc([101O:1][101CH2:1]c3nc(C)cc(CC4CCC[100N:0]4[100C:0](=O)N4CCCC(n5nc(-c6ccc(Oc7ccc(F)cc7F)cc6)c(C(N)=O)c5N)C4)c3C)ccc2CC1C(=O)NC1CCCc2ccccc21)C(C)(C)C

> <Shape>
0.242

> <Color>
0.078

> <Negative vol penalty>
0.000

$$$$

  -OEChem-04052322573D

 86 96  0     1  0  0  0  0  0999 V2000
  -18.8045  -25.5167   22.4209 C   0  0  0  0  0  0  0  0  0  0  0  0
  -20.0280  -25.2696   21.8065 C   0  0  0  0  0  0  0  0  0  0  0  0
  -24.6545   -9.7808   21.4687 C   0  0  0  0  0  0  0  0  0  0  0  0
  -24.9075  -10.9031   23.5932 C   0  0  0  0  0  0  0  0  0  0  0  0
  -18.4463  -26.8211   22.7587 C   0  0  0  0  0  0  0  0  0  0  0  0
  -20.8935  -26.3270   21.5285 C   0  0  0  0  0  0  0  0  0  0  0  0
  -25.7646  -25.2890   22.8271 C   0  0  0  0  0  0  0  0  0  0  0  0
  -24.4459   -8.5718   22.1322 C   0  0  0  0  0  0  0  0  0  0  0  0
  -24.6989   -9.6940   24.2567 C   0  0  0  0  0  0  0  0  0  0  0  0
  -26.5176  -24.4776   21.9796 C   0  0  0  0  0  0  0  0  0  0  0  0
  -21.9159   -7.0272   23.7589 C   0  0  0  0  0  0  0  0  0  0  0  0
  -20.8675   -6.2190   23.3192 C   0  0  0  0  0  0  0  0  0  0  0  0
  -27.5180  -26.4409   20.9985 C   0  0  0  0  0  0  0  0  0  0  0  0
  -22.4368   -4.4470   22.8349 C   0  0  0  0  0  0  0  0  0  0  0  0
  -30.2090  -22.2861   21.7365 C   0  0  0  0  0  0  0  0  0  0  0  0
  -24.8854  -10.9465   22.1992 C   0  0  0  0  0  0  0  0  0  0  0  0
  -24.1257  -13.1364   21.1339 C   0  0  0  0  0  0  0  0  0  0  0  0
  -19.3119  -27.8939   22.4934 C   0  0  0  0  0  0  0  0  0  0  0  0
  -25.8748  -26.6855   22.7598 C   0  0  0  0  0  0  0  0  0  0  0  0
  -20.5459  -27.6471   21.8618 C   0  0  0  0  0  0  0  0  0  0  0  0
  -26.7688  -27.2676   21.8495 C   0  0  0  0  0  0  0  0  0  0  0  0
  -30.1212  -23.0255   20.5872 C   0  0  0  0  0  0  0  0  0  0  0  0
  -24.4681   -8.5283   23.5262 C   0  0  0  0  0  0  0  0  0  0  0  0
  -27.3927  -25.0536   21.0636 C   0  0  0  0  0  0  0  0  0  0  0  0
  -23.2247   -6.5454   23.7364 C   0  0  0  0  0  0  0  0  0  0  0  0
  -21.1279   -4.9289   22.8573 C   0  0  0  0  0  0  0  0  0  0  0  0
  -23.4851   -5.2553   23.2744 C   0  0  0  0  0  0  0  0  0  0  0  0
  -25.1015  -12.1957   21.5144 C   0  0  0  0  0  0  0  0  0  0  0  0
  -30.6222  -22.4476   19.4335 C   0  0  0  0  0  0  0  0  0  0  0  0
  -24.8363  -14.1391   20.5205 C   0  0  0  0  0  0  0  0  0  0  0  0
  -31.2199  -20.5984   20.5605 C   0  0  0  0  0  0  0  0  0  0  0  0
  -22.7042  -13.1066   21.3184 C   0  0  0  0  0  0  0  0  0  0  0  0
  -23.9152  -29.1386   22.1369 C   0  0  0  0  0  0  0  0  0  0  0  0
  -26.6324  -30.8510   22.9959 C   0  0  0  0  0  0  0  0  0  0  0  0
  -24.7291  -33.6756   23.1916 C   0  0  0  0  0  0  0  0  0  0  0  0
  -30.5336  -15.7708   21.2123 C   0  0  0  0  0  0  0  0  0  0  0  0
  -18.8607  -29.2922   22.8339 C   0  0  0  0  0  0  0  0  0  0  0  0
  -25.0757  -27.5422   23.7042 C   0  0  0  0  0  0  0  0  0  0  0  0
  -26.9261  -28.7603   21.7410 C   0  0  0  0  0  0  0  0  0  0  0  0
  -30.4078  -23.3510   18.2532 C   0  0  0  0  0  0  0  0  0  0  0  0
  -19.9958  -30.3128   22.8449 C   0  0  0  0  0  0  0  0  0  0  0  0
  -30.1574  -24.6985   18.9564 C   0  0  0  0  0  0  0  0  0  0  0  0
  -34.3919  -16.0687   21.7705 C   0  0  0  0  0  0  0  0  0  0  0  0
  -28.8253  -14.9389   18.0393 C   0  0  0  0  0  0  0  0  0  0  0  0
  -20.8702  -30.1521   21.6053 C   0  0  0  0  0  0  0  0  0  0  0  0
  -27.6132  -14.1693   18.5541 C   0  0  0  0  0  0  0  0  0  0  0  0
  -33.2023  -16.4506   22.6738 C   0  0  0  0  0  0  0  0  0  0  0  0
  -34.0195  -17.2630   20.8696 C   0  0  0  0  0  0  0  0  0  0  0  0
  -30.0575  -14.7270   18.9181 C   0  0  0  0  0  0  0  0  0  0  0  0
  -28.6032  -14.2624   20.8736 C   0  0  0  0  0  0  0  0  0  0  0  0
  -21.5224  -28.7648   21.5664 C   0  0  1  0  0  0  0  0  0  0  0  0
  -29.5396  -24.3697   20.3290 C   0  0  1  0  0  0  0  0  0  1  0  0
  -24.9266  -28.9889   23.2379 C   0  0  1  0  0  0  0  0  0  0  0  0
  -27.3444  -14.5073   20.0280 C   0  0  2  0  0  0  0  0  0  0  0  0
  -32.5822  -17.1885   21.4551 C   0  0  0  0  0  0  0  0  0  0  0  0
  -24.8281  -36.0700   23.9363 C   0  0  0  0  0  0  0  0  0  0  0  0
  -26.4294  -29.9515   25.9037 C   0  0  0  0  0  0  0  0  0  0  0  0
  -25.5911  -32.2394   26.4791 C   0  0  0  0  0  0  0  0  0  0  0  0
  -27.8802  -31.9540   25.5297 C   0  0  0  0  0  0  0  0  0  0  0  0
  -24.1633  -34.6692   20.4618 C   0  0  0  0  0  0  0  0  0  0  0  0
  -31.9133  -18.5171   21.7491 C   0  0  0  0  0  0  0  0  0  0  0  0
  -25.8686  -31.6382   24.0311 C   0  0  1  0  0  0  0  0  0  0  0  0
  -25.0058  -35.1080   22.7719 C   0  0  2  0  0  0  0  0  0  0  0  0
  -26.4290  -31.4299   25.4664 C   0  0  0  0  0  0  0  0  0  0  0  0
  -30.7649  -21.0551   21.7537 N   0  0  0  0  0  0  0  0  0  0  0  0
  -26.3376  -12.5674   21.1713 N   0  0  0  0  0  0  0  0  0  0  0  0
  -31.1783  -21.2302   19.3685 N   0  0  0  0  0  0  0  0  0  0  0  0
  -26.1435  -13.7529   20.5687 N   0  0  0  0  0  0  0  0  0  0  0  0
  -26.1899  -29.5471   22.7390 N   0  0  0  0  0  0  0  0  0  0  0  0
  -29.7649  -14.9823   20.3375 N   0  0  0  0  0  0  0  0  0  0  0  0
  -24.4642  -15.3046   19.9500 N   0  0  0  0  0  0  0  0  0  0  0  0
  -22.1379  -12.0017   21.9687 N   0  0  0  0  0  0  0  0  0  0  0  0
  -31.8009  -19.3107   20.5662 N   0  0  0  0  0  0  0  0  0  0  0  0
  -22.6465  -28.7091   22.4762 N   0  0  0  0  0  0  0  0  0  0  0  0
  -25.8813  -33.0256   23.5802 N   0  0  0  0  0  0  0  0  0  0  0  0
  -31.6761  -16.3470   20.6656 N   0  0  0  0  0  0  0  0  0  0  0  0
  -24.0780  -35.5161   21.6794 N   0  3  0  0  0  0  0  0  0  0  0  0
  -21.9566  -14.0246   20.9040 O   0  0  0  0  0  0  0  0  0  0  0  0
  -24.2601  -29.6103   21.0597 O   0  0  0  0  0  0  0  0  0  0  0  0
  -27.5999  -31.3727   22.4345 O   0  0  0  0  0  0  0  0  0  0  0  0
  -23.6028  -33.1838   23.1797 O   0  0  0  0  0  0  0  0  0  0  0  0
  -30.2333  -15.9469   22.3980 O   0  0  0  0  0  0  0  0  0  0  0  0
  -24.2644   -7.3487   24.1739 O   0  0  0  0  0  0  0  0  0  0  0  0
  -28.1294  -24.2638   20.2356 O   0  0  0  0  0  0  0  0  0  1  0  0
  -20.1209   -4.1523   22.4366 F   0  0  0  0  0  0  0  0  0  0  0  0
  -24.7403   -4.7864   23.2516 F   0  0  0  0  0  0  0  0  0  0  0  0
  1  2  1  0  0  0  0
  1  5  2  0  0  0  0
  2  6  2  0  0  0  0
  3  8  2  0  0  0  0
  3 16  1  0  0  0  0
  4  9  1  0  0  0  0
  4 16  2  0  0  0  0
  5 18  1  0  0  0  0
  6 20  1  0  0  0  0
  7 10  2  0  0  0  0
  7 19  1  0  0  0  0
  8 23  1  0  0  0  0
  9 23  2  0  0  0  0
 10 24  1  0  0  0  0
 11 12  2  0  0  0  0
 11 25  1  0  0  0  0
 12 26  1  0  0  0  0
 13 21  1  0  0  0  0
 13 24  2  0  0  0  0
 14 26  2  0  0  0  0
 14 27  1  0  0  0  0
 15 22  1  0  0  0  0
 15 65  2  0  0  0  0
 16 28  1  0  0  0  0
 17 28  1  0  0  0  0
 17 30  2  0  0  0  0
 17 32  1  0  0  0  0
 18 20  2  0  0  0  0
 18 37  1  0  0  0  0
 19 21  2  0  0  0  0
 19 38  1  0  0  0  0
 20 51  1  0  0  0  0
 21 39  1  0  0  0  0
 22 29  2  0  0  0  0
 22 52  1  0  0  0  0
 23 83  1  0  0  0  0
 24 84  1  0  0  0  0
 25 27  2  0  0  0  0
 25 83  1  0  0  0  0
 26 85  1  0  0  0  0
 27 86  1  0  0  0  0
 28 66  2  0  0  0  0
 29 40  1  0  0  0  0
 29 67  1  0  0  0  0
 30 68  1  0  0  0  0
 30 71  1  0  0  0  0
 31 65  1  0  0  0  0
 31 67  2  0  0  0  0
 31 73  1  0  0  0  0
 32 72  1  0  0  0  0
 32 78  2  0  0  0  0
 33 53  1  0  0  0  0
 33 74  1  0  0  0  0
 33 79  2  0  0  0  0
 34 62  1  0  0  0  0
 34 69  1  0  0  0  0
 34 80  2  0  0  0  0
 35 63  1  0  0  0  0
 35 75  1  0  0  0  0
 35 81  2  0  0  0  0
 36 70  1  0  0  0  0
 36 76  1  0  0  0  0
 36 82  2  0  0  0  0
 37 41  1  0  0  0  0
 38 53  1  0  0  0  0
 39 69  1  0  0  0  0
 40 42  1  0  0  0  0
 41 45  1  0  0  0  0
 42 52  1  0  0  0  0
 43 47  1  0  0  0  0
 43 48  1  0  0  0  0
 44 46  1  0  0  0  0
 44 49  1  0  0  0  0
 45 51  1  0  0  0  0
 46 54  1  0  0  0  0
 47 55  1  0  0  0  0
 48 55  1  0  0  0  0
 49 70  1  0  0  0  0
 50 54  1  0  0  0  0
 50 70  1  0  0  0  0
 51 74  1  0  0  0  0
 52 84  1  0  0  0  0
 53 69  1  0  0  0  0
 54 68  1  0  0  0  0
 55 61  1  0  0  0  0
 55 76  1  0  0  0  0
 56 63  1  0  0  0  0
 57 64  1  0  0  0  0
 58 64  1  0  0  0  0
 59 64  1  0  0  0  0
 60 77  1  0  0  0  0
 61 73  1  0  0  0  0
 62 64  1  0  0  0  0
 62 75  1  0  0  0  0
 63 77  1  0  0  0  0
 66 68  1  0  0  0  0
M  CHG  1  77   1
M  ISO  4  36 100  52 101  76 100  84 101
M  END
> <Batch ID>
0179

> <Smiles>
CNC(C)C(=O)NC(C(=O)N1Cc2cc([101O:1][101CH:1]3CCc4nc(NCC5([100NH:0][100C:0](=O)N6CCCC(n7nc(-c8ccc(Oc9ccc(F)cc9F)cc8)c(C(N)=O)c7N)C6)CCC5)ncc43)ccc2CC1C(=O)NC1CCCc2ccccc21)C(C)(C)C

> <Shape>
0.345

> <Color>
0.094

> <Negative vol penalty>
0.000

$$$$

  -OEChem-04052322573D

 85 94  0     1  0  0  0  0  0999 V2000
  -29.7916  -24.5168   17.4836 C   0  0  0  0  0  0  0  0  0  0  0  0
  -28.5624  -24.5528   18.1341 C   0  0  0  0  0  0  0  0  0  0  0  0
  -27.1182  -16.0697   21.3515 C   0  0  0  0  0  0  0  0  0  0  0  0
  -25.4642  -17.0651   19.8988 C   0  0  0  0  0  0  0  0  0  0  0  0
  -30.8585  -25.2713   17.9695 C   0  0  0  0  0  0  0  0  0  0  0  0
  -28.3997  -25.3428   19.2716 C   0  0  0  0  0  0  0  0  0  0  0  0
  -24.0820  -27.9879   19.1988 C   0  0  0  0  0  0  0  0  0  0  0  0
  -26.8884  -14.8268   20.7615 C   0  0  0  0  0  0  0  0  0  0  0  0
  -25.2345  -15.8223   19.3087 C   0  0  0  0  0  0  0  0  0  0  0  0
  -22.9100  -27.3026   19.5160 C   0  0  0  0  0  0  0  0  0  0  0  0
  -23.5386  -12.9911   20.0432 C   0  0  0  0  0  0  0  0  0  0  0  0
  -22.2138  -12.6063   19.8375 C   0  0  0  0  0  0  0  0  0  0  0  0
  -22.9937  -28.2061   21.7512 C   0  0  0  0  0  0  0  0  0  0  0  0
  -22.6259  -12.4576   17.4615 C   0  0  0  0  0  0  0  0  0  0  0  0
  -26.4060  -17.1889   20.9202 C   0  0  0  0  0  0  0  0  0  0  0  0
  -27.5790  -19.4446   21.1289 C   0  0  0  0  0  0  0  0  0  0  0  0
  -30.7061  -26.0784   19.1079 C   0  0  0  0  0  0  0  0  0  0  0  0
  -24.7256  -28.7801   20.1603 C   0  0  0  0  0  0  0  0  0  0  0  0
  -29.4660  -26.1078   19.7740 C   0  0  0  0  0  0  0  0  0  0  0  0
  -24.1723  -28.9025   21.4429 C   0  0  0  0  0  0  0  0  0  0  0  0
  -25.9466  -14.7031   19.7401 C   0  0  0  0  0  0  0  0  0  0  0  0
  -22.3673  -27.4093   20.7932 C   0  0  0  0  0  0  0  0  0  0  0  0
  -24.4071  -13.1092   18.9581 C   0  0  0  0  0  0  0  0  0  0  0  0
  -21.7574  -12.3396   18.5467 C   0  0  0  0  0  0  0  0  0  0  0  0
  -23.9507  -12.8424   17.6673 C   0  0  0  0  0  0  0  0  0  0  0  0
  -26.6425  -18.4729   21.5297 C   0  0  0  0  0  0  0  0  0  0  0  0
  -27.4109  -20.4730   22.0236 C   0  0  0  0  0  0  0  0  0  0  0  0
  -18.5260  -24.9937   24.4655 C   0  0  0  0  0  0  0  0  0  0  0  0
  -18.8831  -26.1698   23.9452 C   0  0  0  0  0  0  0  0  0  0  0  0
  -28.5169  -19.4198   20.0448 C   0  0  0  0  0  0  0  0  0  0  0  0
  -27.5756  -28.7278   21.5670 C   0  0  0  0  0  0  0  0  0  0  0  0
  -26.5685  -31.5387   22.8346 C   0  0  0  0  0  0  0  0  0  0  0  0
  -23.9546  -33.5467   23.7193 C   0  0  0  0  0  0  0  0  0  0  0  0
  -22.7895  -22.2207   25.4058 C   0  0  0  0  0  0  0  0  0  0  0  0
  -31.9017  -26.8398   19.6233 C   0  0  0  0  0  0  0  0  0  0  0  0
  -25.9745  -29.5343   19.7944 C   0  0  0  0  0  0  0  0  0  0  0  0
  -24.8136  -29.7563   22.5051 C   0  0  0  0  0  0  0  0  0  0  0  0
  -31.5404  -27.9415   20.6163 C   0  0  0  0  0  0  0  0  0  0  0  0
  -26.0490  -21.3316   26.5291 C   0  0  0  0  0  0  0  0  0  0  0  0
  -30.5530  -27.4205   21.6558 C   0  0  0  0  0  0  0  0  0  0  0  0
  -26.6552  -20.5858   25.3390 C   0  0  0  0  0  0  0  0  0  0  0  0
  -21.0631  -23.9466   22.6025 C   0  0  0  0  0  0  0  0  0  0  0  0
  -24.5574  -21.0399   26.6774 C   0  0  0  0  0  0  0  0  0  0  0  0
  -24.3617  -20.5350   24.2731 C   0  0  0  0  0  0  0  0  0  0  0  0
  -29.2433  -26.9717   20.9964 C   0  0  1  0  0  0  0  0  0  0  0  0
  -26.8264  -29.9028   21.0052 C   0  0  1  0  0  0  0  0  0  0  0  0
  -19.6326  -24.5004   22.4025 C   0  0  1  0  0  0  0  0  0  0  0  0
  -25.8525  -20.8413   24.0492 C   0  0  2  0  0  0  0  0  0  0  0  0
  -21.0834  -23.3286   23.9972 C   0  0  1  0  0  0  0  0  0  0  0  0
  -18.7645  -23.8279   23.5327 C   0  0  1  0  0  0  0  0  0  0  0  0
  -19.4417  -26.0468   22.5570 C   0  0  1  0  0  0  0  0  0  0  0  0
  -19.6769  -22.6958   24.1337 C   0  0  0  0  0  0  0  0  0  0  0  0
  -18.4097  -26.5679   21.5408 C   0  0  0  0  0  0  0  0  0  0  0  0
  -19.5651  -21.3766   23.3279 C   0  0  0  0  0  0  0  0  0  0  0  0
  -19.3624  -22.3605   25.6026 C   0  0  0  0  0  0  0  0  0  0  0  0
  -16.5297  -22.8914   24.1468 C   0  0  0  0  0  0  0  0  0  0  0  0
  -23.4446  -35.7688   24.7677 C   0  0  0  0  0  0  0  0  0  0  0  0
  -27.2195  -30.3880   25.5845 C   0  0  0  0  0  0  0  0  0  0  0  0
  -25.8378  -32.2132   26.5984 C   0  0  0  0  0  0  0  0  0  0  0  0
  -27.8737  -32.7818   25.2738 C   0  0  0  0  0  0  0  0  0  0  0  0
  -22.5926  -34.5167   21.2774 C   0  0  0  0  0  0  0  0  0  0  0  0
  -17.4035  -23.3349   23.0232 C   0  0  0  0  0  0  0  0  0  0  0  0
  -20.7164  -26.8872   22.4235 C   0  0  0  0  0  0  0  0  0  1  0  0
  -25.8114  -31.9408   24.0772 C   0  0  1  0  0  0  0  0  0  0  0  0
  -23.6851  -35.0191   23.4666 C   0  0  2  0  0  0  0  0  0  0  0  0
  -26.6743  -31.8132   25.3643 C   0  0  0  0  0  0  0  0  0  0  0  0
  -25.9322  -18.8502   22.5961 N   0  0  0  0  0  0  0  0  0  0  0  0
  -26.4227  -20.0704   22.8730 N   0  0  0  0  0  0  0  0  0  0  0  0
  -26.0367  -30.4690   22.1006 N   0  0  0  0  0  0  0  0  0  0  0  0
  -23.8537  -21.3040   25.4200 N   0  0  0  0  0  0  0  0  0  0  0  0
  -28.0135  -21.6734   22.1588 N   0  0  0  0  0  0  0  0  0  0  0  0
  -28.5577  -18.2856   19.2224 N   0  0  0  0  0  0  0  0  0  0  0  0
  -28.4259  -28.1188   20.6639 N   0  0  0  0  0  0  0  0  0  0  0  0
  -25.3042  -33.2860   23.8288 N   0  0  0  0  0  0  0  0  0  0  0  0
  -22.1813  -22.4173   24.1721 N   0  0  0  0  0  0  0  0  0  0  0  0
  -22.4840  -35.1845   22.5999 N   0  3  0  0  0  0  0  0  0  0  0  0
  -29.3071  -20.3682   19.8222 O   0  0  0  0  0  0  0  0  0  0  0  0
  -27.3967  -28.3990   22.7339 O   0  0  0  0  0  0  0  0  0  0  0  0
  -27.5901  -32.1557   22.5227 O   0  0  0  0  0  0  0  0  0  0  0  0
  -23.0575  -32.7119   23.8140 O   0  0  0  0  0  0  0  0  0  0  0  0
  -22.4129  -22.8235   26.4166 O   0  0  0  0  0  0  0  0  0  0  0  0
  -25.7223  -13.4905   19.1640 O   0  0  0  0  0  0  0  0  0  0  0  0
  -21.2126  -26.7343   21.1086 O   0  0  0  0  0  0  0  0  0  1  0  0
  -20.4855  -11.9686   18.3495 F   0  0  0  0  0  0  0  0  0  0  0  0
  -24.7807  -12.9530   16.6210 F   0  0  0  0  0  0  0  0  0  0  0  0
  1  2  1  0  0  0  0
  1  5  2  0  0  0  0
  2  6  2  0  0  0  0
  3  8  2  0  0  0  0
  3 15  1  0  0  0  0
  4  9  1  0  0  0  0
  4 15  2  0  0  0  0
  5 17  1  0  0  0  0
  6 19  1  0  0  0  0
  7 10  2  0  0  0  0
  7 18  1  0  0  0  0
  8 21  1  0  0  0  0
  9 21  2  0  0  0  0
 10 22  1  0  0  0  0
 11 12  2  0  0  0  0
 11 23  1  0  0  0  0
 12 24  1  0  0  0  0
 13 20  1  0  0  0  0
 13 22  2  0  0  0  0
 14 24  2  0  0  0  0
 14 25  1  0  0  0  0
 15 26  1  0  0  0  0
 16 26  1  0  0  0  0
 16 27  2  0  0  0  0
 16 30  1  0  0  0  0
 17 19  2  0  0  0  0
 17 35  1  0  0  0  0
 18 20  2  0  0  0  0
 18 36  1  0  0  0  0
 19 45  1  0  0  0  0
 20 37  1  0  0  0  0
 21 82  1  0  0  0  0
 22 83  1  0  0  0  0
 23 25  2  0  0  0  0
 23 82  1  0  0  0  0
 24 84  1  0  0  0  0
 25 85  1  0  0  0  0
 26 67  2  0  0  0  0
 27 68  1  0  0  0  0
 27 71  1  0  0  0  0
 28 29  2  0  0  0  0
 28 50  1  0  0  0  0
 29 51  1  0  0  0  0
 30 72  1  0  0  0  0
 30 77  2  0  0  0  0
 31 46  1  0  0  0  0
 31 73  1  0  0  0  0
 31 78  2  0  0  0  0
 32 64  1  0  0  0  0
 32 69  1  0  0  0  0
 32 79  2  0  0  0  0
 33 65  1  0  0  0  0
 33 74  1  0  0  0  0
 33 80  2  0  0  0  0
 34 70  1  0  0  0  0
 34 75  1  0  0  0  0
 34 81  2  0  0  0  0
 35 38  1  0  0  0  0
 36 46  1  0  0  0  0
 37 69  1  0  0  0  0
 38 40  1  0  0  0  0
 39 41  1  0  0  0  0
 39 43  1  0  0  0  0
 40 45  1  0  0  0  0
 41 48  1  0  0  0  0
 42 47  1  0  0  0  0
 42 49  1  0  0  0  0
 43 70  1  0  0  0  0
 44 48  1  0  0  0  0
 44 70  1  0  0  0  0
 45 73  1  0  0  0  0
 46 69  1  0  0  0  0
 47 50  1  0  0  0  0
 47 51  1  0  0  0  0
 48 68  1  0  0  0  0
 49 52  1  0  0  0  0
 49 75  1  0  0  0  0
 50 52  1  0  0  0  0
 50 62  1  0  0  0  0
 51 53  1  0  0  0  0
 51 63  1  0  0  0  0
 52 54  1  0  0  0  0
 52 55  1  0  0  0  0
 56 62  1  0  0  0  0
 57 65  1  0  0  0  0
 58 66  1  0  0  0  0
 59 66  1  0  0  0  0
 60 66  1  0  0  0  0
 61 76  1  0  0  0  0
 63 83  1  0  0  0  0
 64 66  1  0  0  0  0
 64 74  1  0  0  0  0
 65 76  1  0  0  0  0
 67 68  1  0  0  0  0
M  CHG  1  76   1
M  ISO  4  34 100  63 101  75 100  83 101
M  END
> <Batch ID>
0179

> <Smiles>
CCC12C=CC(C)([101CH2:1][101O:1]c3ccc4c(c3)CN(C(=O)C(NC(=O)C(C)NC)C(C)(C)C)C(C(=O)NC3CCCc5ccccc53)C4)C1CC([100NH:0][100C:0](=O)N1CCCC(n3nc(-c4ccc(Oc5ccc(F)cc5F)cc4)c(C(N)=O)c3N)C1)C2(C)C

> <Shape>
0.252

> <Color>
0.062

> <Negative vol penalty>
0.000

$$$$

  -OEChem-04052322573D

 86 95  0     1  0  0  0  0  0999 V2000
  -28.0917  -33.7025   26.1954 C   0  0  0  0  0  0  0  0  0  0  0  0
  -28.1608  -32.4398   25.6157 C   0  0  0  0  0  0  0  0  0  0  0  0
  -25.3137  -10.0621   23.1229 C   0  0  0  0  0  0  0  0  0  0  0  0
  -24.1789   -9.2131   21.1662 C   0  0  0  0  0  0  0  0  0  0  0  0
  -26.8528  -34.3112   26.3919 C   0  0  0  0  0  0  0  0  0  0  0  0
  -26.9909  -31.7845   25.2330 C   0  0  0  0  0  0  0  0  0  0  0  0
  -27.3602  -29.6692   20.6468 C   0  0  0  0  0  0  0  0  0  0  0  0
  -24.3789   -9.4272   23.9405 C   0  0  0  0  0  0  0  0  0  0  0  0
  -23.2441   -8.5781   21.9839 C   0  0  0  0  0  0  0  0  0  0  0  0
  -28.0562  -28.4646   20.5554 C   0  0  0  0  0  0  0  0  0  0  0  0
  -23.0735   -5.7676   23.8526 C   0  0  0  0  0  0  0  0  0  0  0  0
  -22.7326   -4.4509   23.5433 C   0  0  0  0  0  0  0  0  0  0  0  0
  -25.9639  -27.2642   20.5337 C   0  0  0  0  0  0  0  0  0  0  0  0
  -20.4281   -5.1157   23.2530 C   0  0  0  0  0  0  0  0  0  0  0  0
  -25.2137   -9.9551   21.7357 C   0  0  0  0  0  0  0  0  0  0  0  0
  -27.3933  -10.0806   20.4161 C   0  0  0  0  0  0  0  0  0  0  0  0
  -25.6677  -33.6672   26.0027 C   0  0  0  0  0  0  0  0  0  0  0  0
  -25.9587  -29.6796   20.6934 C   0  0  0  0  0  0  0  0  0  0  0  0
  -25.7349  -32.3846   25.4257 C   0  0  0  0  0  0  0  0  0  0  0  0
  -25.2524  -28.4704   20.6231 C   0  0  0  0  0  0  0  0  0  0  0  0
  -23.3441   -8.6852   23.3711 C   0  0  0  0  0  0  0  0  0  0  0  0
  -27.3582  -27.2617   20.5017 C   0  0  0  0  0  0  0  0  0  0  0  0
  -22.0917   -6.7584   23.8621 C   0  0  0  0  0  0  0  0  0  0  0  0
  -21.4099   -4.1250   23.2435 C   0  0  0  0  0  0  0  0  0  0  0  0
  -20.7690   -6.4325   23.5623 C   0  0  0  0  0  0  0  0  0  0  0  0
  -26.1787  -10.6112   20.8905 C   0  0  0  0  0  0  0  0  0  0  0  0
  -31.0254  -23.2118   18.9118 C   0  0  0  0  0  0  0  0  0  0  0  0
  -30.0561  -23.9065   21.3003 C   0  0  0  0  0  0  0  0  0  0  0  0
  -31.0534  -22.3339   19.9729 C   0  0  0  0  0  0  0  0  0  0  0  0
  -30.0288  -24.7847   20.2394 C   0  0  0  0  0  0  0  0  0  0  0  0
  -27.9377  -11.0906   19.6611 C   0  0  0  0  0  0  0  0  0  0  0  0
  -27.9772   -8.7900   20.6380 C   0  0  0  0  0  0  0  0  0  0  0  0
  -23.7920  -30.6396   22.8118 C   0  0  0  0  0  0  0  0  0  0  0  0
  -21.7113  -29.9034   20.4346 C   0  0  0  0  0  0  0  0  0  0  0  0
  -21.0622  -28.1095   17.6049 C   0  0  0  0  0  0  0  0  0  0  0  0
  -29.2873  -16.2138   18.7943 C   0  0  0  0  0  0  0  0  0  0  0  0
  -24.3489  -34.3449   26.2785 C   0  0  0  0  0  0  0  0  0  0  0  0
  -25.2220  -30.9891   20.7651 C   0  0  0  0  0  0  0  0  0  0  0  0
  -23.7470  -28.4286   20.6494 C   0  0  0  0  0  0  0  0  0  0  0  0
  -23.1805  -33.7425   25.5025 C   0  0  0  0  0  0  0  0  0  0  0  0
  -25.9470  -15.4374   18.0304 C   0  0  0  0  0  0  0  0  0  0  0  0
  -23.2070  -32.2201   25.5942 C   0  0  0  0  0  0  0  0  0  0  0  0
  -25.8017  -14.0584   18.6733 C   0  0  0  0  0  0  0  0  0  0  0  0
  -26.7613  -16.3941   18.9032 C   0  0  0  0  0  0  0  0  0  0  0  0
  -28.6543  -18.6480   19.1084 C   0  0  0  0  0  0  0  0  0  0  0  0
  -30.5416  -18.0158   17.6502 C   0  0  0  0  0  0  0  0  0  0  0  0
  -27.9386  -14.4844   19.9454 C   0  0  0  0  0  0  0  0  0  0  0  0
  -29.5789  -19.5345   19.9366 C   0  0  0  0  0  0  0  0  0  0  0  0
  -31.4968  -18.8695   18.4682 C   0  0  0  0  0  0  0  0  0  0  0  0
  -24.4897  -31.6523   24.9747 C   0  0  1  0  0  0  0  0  0  0  0  0
  -23.8094  -30.8500   21.3241 C   0  0  1  0  0  0  0  0  0  0  0  0
  -27.1749  -13.4839   19.0643 C   0  0  1  0  0  0  0  0  0  0  0  0
  -31.5636  -22.8325   17.5746 C   0  0  0  0  0  0  0  0  0  0  0  0
  -29.5178  -24.2853   22.6375 C   0  0  0  0  0  0  0  0  0  0  0  0
  -19.2614  -27.6897   15.9083 C   0  0  0  0  0  0  0  0  0  0  0  0
  -20.2299  -28.1495   22.4444 C   0  0  0  0  0  0  0  0  0  0  0  0
  -19.0650  -27.0496   20.5206 C   0  0  0  0  0  0  0  0  0  0  0  0
  -18.7494  -29.4886   20.9379 C   0  0  0  0  0  0  0  0  0  0  0  0
  -22.7487  -29.1214   15.3934 C   0  0  0  0  0  0  0  0  0  0  0  0
  -31.6274  -20.9549   19.8324 C   0  0  0  0  0  0  0  0  0  0  0  0
  -29.4597  -26.1552   20.3796 C   0  0  0  0  0  0  0  0  0  1  0  0
  -20.9562  -28.6634   20.0207 C   0  0  1  0  0  0  0  0  0  0  0  0
  -20.4854  -28.5201   16.2620 C   0  0  2  0  0  0  0  0  0  0  0  0
  -19.7785  -28.3381   20.9823 C   0  0  0  0  0  0  0  0  0  0  0  0
  -25.9638  -11.8613   20.4721 N   0  0  0  0  0  0  0  0  0  0  0  0
  -30.5690  -22.6653   21.1862 N   0  0  0  0  0  0  0  0  0  0  0  0
  -30.5129  -24.4531   19.0261 N   0  0  0  0  0  0  0  0  0  0  0  0
  -27.0508  -12.1247   19.7269 N   0  0  0  0  0  0  0  0  0  0  0  0
  -23.0722  -29.7348   20.7265 N   0  0  0  0  0  0  0  0  0  0  0  0
  -28.0441  -15.7870   19.2846 N   0  0  0  0  0  0  0  0  0  0  0  0
  -29.4069  -17.5699   18.4557 N   0  0  0  0  0  0  0  0  0  0  0  0
  -29.0837  -11.1862   18.9541 N   0  0  0  0  0  0  0  0  0  0  0  0
  -27.2844   -7.8720   21.4390 N   0  0  0  0  0  0  0  0  0  0  0  0
  -24.3968  -31.6531   23.5305 N   0  0  0  0  0  0  0  0  0  0  0  0
  -20.5546  -28.8739   18.6340 N   0  0  0  0  0  0  0  0  0  0  0  0
  -30.7261  -20.0155   19.0810 N   0  3  0  0  0  0  0  0  0  0  0  0
  -21.5010  -28.3423   15.1859 N   0  3  0  0  0  0  0  0  0  0  0  0
  -29.0884   -8.4665   20.1541 O   0  0  0  0  0  0  0  0  0  0  0  0
  -23.2673  -29.6330   23.2735 O   0  0  0  0  0  0  0  0  0  0  0  0
  -21.1172  -30.9830   20.4897 O   0  0  0  0  0  0  0  0  0  0  0  0
  -21.8784  -27.1990   17.7289 O   0  0  0  0  0  0  0  0  0  0  0  0
  -30.2356  -15.4290   18.6671 O   0  0  0  0  0  0  0  0  0  0  0  0
  -22.4319   -8.0653   24.1686 O   0  0  0  0  0  0  0  0  0  0  0  0
  -28.0397  -26.0765   20.4125 O   0  0  0  0  0  0  0  0  0  1  0  0
  -21.0830   -2.8608   22.9450 F   0  0  0  0  0  0  0  0  0  0  0  0
  -19.8216   -7.3802   23.5687 F   0  0  0  0  0  0  0  0  0  0  0  0
  1  2  1  0  0  0  0
  1  5  2  0  0  0  0
  2  6  2  0  0  0  0
  3  8  2  0  0  0  0
  3 15  1  0  0  0  0
  4  9  1  0  0  0  0
  4 15  2  0  0  0  0
  5 17  1  0  0  0  0
  6 19  1  0  0  0  0
  7 10  2  0  0  0  0
  7 18  1  0  0  0  0
  8 21  1  0  0  0  0
  9 21  2  0  0  0  0
 10 22  1  0  0  0  0
 11 12  2  0  0  0  0
 11 23  1  0  0  0  0
 12 24  1  0  0  0  0
 13 20  1  0  0  0  0
 13 22  2  0  0  0  0
 14 24  2  0  0  0  0
 14 25  1  0  0  0  0
 15 26  1  0  0  0  0
 16 26  1  0  0  0  0
 16 31  2  0  0  0  0
 16 32  1  0  0  0  0
 17 19  2  0  0  0  0
 17 37  1  0  0  0  0
 18 20  2  0  0  0  0
 18 38  1  0  0  0  0
 19 50  1  0  0  0  0
 20 39  1  0  0  0  0
 21 83  1  0  0  0  0
 22 84  1  0  0  0  0
 23 25  2  0  0  0  0
 23 83  1  0  0  0  0
 24 85  1  0  0  0  0
 25 86  1  0  0  0  0
 26 65  2  0  0  0  0
 27 29  1  0  0  0  0
 27 53  1  0  0  0  0
 27 67  2  0  0  0  0
 28 30  2  0  0  0  0
 28 54  1  0  0  0  0
 28 66  1  0  0  0  0
 29 60  1  0  0  0  0
 29 66  2  0  0  0  0
 30 61  1  0  0  0  0
 30 67  1  0  0  0  0
 31 68  1  0  0  0  0
 31 72  1  0  0  0  0
 32 73  1  0  0  0  0
 32 78  2  0  0  0  0
 33 51  1  0  0  0  0
 33 74  1  0  0  0  0
 33 79  2  0  0  0  0
 34 62  1  0  0  0  0
 34 69  1  0  0  0  0
 34 80  2  0  0  0  0
 35 63  1  0  0  0  0
 35 75  1  0  0  0  0
 35 81  2  0  0  0  0
 36 70  1  0  0  0  0
 36 71  1  0  0  0  0
 36 82  2  0  0  0  0
 37 40  1  0  0  0  0
 38 51  1  0  0  0  0
 39 69  1  0  0  0  0
 40 42  1  0  0  0  0
 41 43  1  0  0  0  0
 41 44  1  0  0  0  0
 42 50  1  0  0  0  0
 43 52  1  0  0  0  0
 44 70  1  0  0  0  0
 45 48  1  0  0  0  0
 45 71  1  0  0  0  0
 46 49  1  0  0  0  0
 46 71  1  0  0  0  0
 47 52  1  0  0  0  0
 47 70  1  0  0  0  0
 48 76  1  0  0  0  0
 49 76  1  0  0  0  0
 50 74  1  0  0  0  0
 51 69  1  0  0  0  0
 52 68  1  0  0  0  0
 55 63  1  0  0  0  0
 56 64  1  0  0  0  0
 57 64  1  0  0  0  0
 58 64  1  0  0  0  0
 59 77  1  0  0  0  0
 60 76  1  0  0  0  0
 61 84  1  0  0  0  0
 62 64  1  0  0  0  0
 62 75  1  0  0  0  0
 63 77  1  0  0  0  0
 65 68  1  0  0  0  0
M  CHG  2  76   1  77   1
M  ISO  4  36 100  61 101  71 100  84 101
M  END
> <Batch ID>
0179

> <Smiles>
CNC(C)C(=O)NC(C(=O)N1Cc2cc([101O:1][101CH2:1]c3nc(C)c(CN4CC[100N:0]([100C:0](=O)N5CCCC(n6nc(-c7ccc(Oc8ccc(F)cc8F)cc7)c(C(N)=O)c6N)C5)CC4)nc3C)ccc2CC1C(=O)NC1CCCc2ccccc21)C(C)(C)C

> <Shape>
0.301

> <Color>
0.086

> <Negative vol penalty>
0.000

$$$$

  -OEChem-04052322573D

 81 89  0     1  0  0  0  0  0999 V2000
  -16.9515  -30.0989   24.6822 C   0  0  0  0  0  0  0  0  0  0  0  0
  -17.7872  -29.0235   24.9662 C   0  0  0  0  0  0  0  0  0  0  0  0
  -24.5868   -9.7394   21.8650 C   0  0  0  0  0  0  0  0  0  0  0  0
  -24.6213  -11.0746   23.8782 C   0  0  0  0  0  0  0  0  0  0  0  0
  -17.0808  -30.7802   23.4727 C   0  0  0  0  0  0  0  0  0  0  0  0
  -18.7520  -28.6282   24.0403 C   0  0  0  0  0  0  0  0  0  0  0  0
  -25.3346  -25.8242   23.6889 C   0  0  0  0  0  0  0  0  0  0  0  0
  -24.2181   -8.6212   22.6128 C   0  0  0  0  0  0  0  0  0  0  0  0
  -24.2525   -9.9565   24.6261 C   0  0  0  0  0  0  0  0  0  0  0  0
  -26.0286  -24.7776   23.0832 C   0  0  0  0  0  0  0  0  0  0  0  0
  -21.4038   -7.3831   24.0198 C   0  0  0  0  0  0  0  0  0  0  0  0
  -20.3764   -6.5811   23.5231 C   0  0  0  0  0  0  0  0  0  0  0  0
  -26.2134  -26.0788   21.0604 C   0  0  0  0  0  0  0  0  0  0  0  0
  -21.8854   -4.6958   23.4459 C   0  0  0  0  0  0  0  0  0  0  0  0
  -24.7885  -10.9661   22.4976 C   0  0  0  0  0  0  0  0  0  0  0  0
  -24.3131  -13.0590   21.1187 C   0  0  0  0  0  0  0  0  0  0  0  0
  -18.0541  -30.3991   22.5356 C   0  0  0  0  0  0  0  0  0  0  0  0
  -25.0649  -27.0037   22.9801 C   0  0  0  0  0  0  0  0  0  0  0  0
  -18.8936  -29.3043   22.8165 C   0  0  0  0  0  0  0  0  0  0  0  0
  -25.5181  -27.1399   21.6602 C   0  0  0  0  0  0  0  0  0  0  0  0
  -24.0509   -8.7298   23.9934 C   0  0  0  0  0  0  0  0  0  0  0  0
  -26.4656  -24.9037   21.7678 C   0  0  0  0  0  0  0  0  0  0  0  0
  -22.6721   -6.8415   24.2295 C   0  0  0  0  0  0  0  0  0  0  0  0
  -20.6172   -5.2374   23.2362 C   0  0  0  0  0  0  0  0  0  0  0  0
  -22.9129   -5.4979   23.9426 C   0  0  0  0  0  0  0  0  0  0  0  0
  -25.1700  -12.1214   21.7257 C   0  0  0  0  0  0  0  0  0  0  0  0
  -25.1591  -13.9545   20.5114 C   0  0  0  0  0  0  0  0  0  0  0  0
  -22.8805  -13.1155   21.1052 C   0  0  0  0  0  0  0  0  0  0  0  0
  -22.4233  -28.5145   22.0617 C   0  0  0  0  0  0  0  0  0  0  0  0
  -24.5258  -30.7915   21.1040 C   0  0  0  0  0  0  0  0  0  0  0  0
  -27.7018  -31.5784   20.1342 C   0  0  0  0  0  0  0  0  0  0  0  0
  -29.7260  -17.1610   20.5945 C   0  0  0  0  0  0  0  0  0  0  0  0
  -18.1247  -31.1362   21.2216 C   0  0  0  0  0  0  0  0  0  0  0  0
  -24.3385  -28.1339   23.6565 C   0  0  0  0  0  0  0  0  0  0  0  0
  -25.2718  -28.3935   20.8625 C   0  0  0  0  0  0  0  0  0  0  0  0
  -19.4212  -30.8904   20.4543 C   0  0  0  0  0  0  0  0  0  0  0  0
  -30.1472  -13.7409   19.6991 C   0  0  0  0  0  0  0  0  0  0  0  0
  -19.7529  -29.4018   20.4296 C   0  0  0  0  0  0  0  0  0  0  0  0
  -28.8221  -13.0914   20.1021 C   0  0  0  0  0  0  0  0  0  0  0  0
  -27.3612  -21.3320   19.8134 C   0  0  0  0  0  0  0  0  0  0  0  0
  -30.5636  -14.8314   20.6836 C   0  0  0  0  0  0  0  0  0  0  0  0
  -28.2174  -15.2176   21.3319 C   0  0  0  0  0  0  0  0  0  0  0  0
  -19.9687  -28.8610   21.8482 C   0  0  1  0  0  0  0  0  0  0  0  0
  -23.6704  -29.0889   22.6720 C   0  0  1  0  0  0  0  0  0  0  0  0
  -27.7280  -14.1498   20.3387 C   0  0  2  0  0  0  0  0  0  0  0  0
  -28.7382  -19.4311   20.5441 C   0  0  1  0  0  0  0  0  0  0  0  0
  -27.7713  -19.8982   19.4496 C   0  0  2  0  0  0  0  0  0  0  0  0
  -28.1656  -21.7127   21.0823 C   0  0  1  0  0  0  0  0  0  0  0  0
  -28.4122  -20.3194   21.7728 C   0  0  0  0  0  0  0  0  0  0  0  0
  -29.4719  -22.4193   20.6478 C   0  0  0  0  0  0  0  0  0  0  0  0
  -29.5805  -20.3210   22.7723 C   0  0  0  0  0  0  0  0  0  0  0  0
  -27.1590  -19.8061   22.5245 C   0  0  0  0  0  0  0  0  0  0  0  0
  -29.1080  -33.5146   19.3783 C   0  0  0  0  0  0  0  0  0  0  0  0
  -23.2196  -30.6616   18.3496 C   0  0  0  0  0  0  0  0  0  0  0  0
  -25.2137  -31.8599   17.4243 C   0  0  0  0  0  0  0  0  0  0  0  0
  -23.7751  -32.9708   19.1328 C   0  0  0  0  0  0  0  0  0  0  0  0
  -29.5298  -31.3030   22.4454 C   0  0  0  0  0  0  0  0  0  0  0  0
  -27.3759  -22.7134   21.9416 C   0  0  0  0  0  0  0  0  0  1  0  0
  -25.2916  -31.0733   19.8339 C   0  0  1  0  0  0  0  0  0  0  0  0
  -28.6412  -32.6895   20.5674 C   0  0  2  0  0  0  0  0  0  0  0  0
  -24.3781  -31.6169   18.6993 C   0  0  0  0  0  0  0  0  0  0  0  0
  -26.4613  -12.3957   21.5223 N   0  0  0  0  0  0  0  0  0  0  0  0
  -26.4220  -13.5157   20.7807 N   0  0  0  0  0  0  0  0  0  0  0  0
  -24.5517  -29.4679   21.5658 N   0  0  0  0  0  0  0  0  0  0  0  0
  -29.4826  -15.8038   20.8622 N   0  0  0  0  0  0  0  0  0  0  0  0
  -24.9384  -15.0665   19.7785 N   0  0  0  0  0  0  0  0  0  0  0  0
  -22.1660  -12.1159   21.7795 N   0  0  0  0  0  0  0  0  0  0  0  0
  -21.2778  -29.2360   22.3383 N   0  0  0  0  0  0  0  0  0  0  0  0
  -26.3815  -31.9695   20.2047 N   0  0  0  0  0  0  0  0  0  0  0  0
  -28.6458  -18.0145   20.7832 N   0  0  0  0  0  0  0  0  0  0  0  0
  -29.8406  -32.1194   21.2438 N   0  3  0  0  0  0  0  0  0  0  0  0
  -22.2523  -14.0163   20.4990 O   0  0  0  0  0  0  0  0  0  0  0  0
  -22.4954  -27.4932   21.3882 O   0  0  0  0  0  0  0  0  0  0  0  0
  -23.9325  -31.7134   21.6696 O   0  0  0  0  0  0  0  0  0  0  0  0
  -28.0997  -30.4753   19.7663 O   0  0  0  0  0  0  0  0  0  0  0  0
  -30.8230  -17.5803   20.2103 O   0  0  0  0  0  0  0  0  0  0  0  0
  -28.4097  -19.8819   18.1811 O   0  0  0  0  0  0  0  0  0  0  0  0
  -23.6908   -7.6389   24.7234 O   0  0  0  0  0  0  0  0  0  0  0  0
  -27.1495  -23.8729   21.1680 O   0  0  0  0  0  0  0  0  0  1  0  0
  -19.6300   -4.4670   22.7607 F   0  0  0  0  0  0  0  0  0  0  0  0
  -24.1289   -4.9717   24.1431 F   0  0  0  0  0  0  0  0  0  0  0  0
  1  2  1  0  0  0  0
  1  5  2  0  0  0  0
  2  6  2  0  0  0  0
  3  8  2  0  0  0  0
  3 15  1  0  0  0  0
  4  9  1  0  0  0  0
  4 15  2  0  0  0  0
  5 17  1  0  0  0  0
  6 19  1  0  0  0  0
  7 10  2  0  0  0  0
  7 18  1  0  0  0  0
  8 21  1  0  0  0  0
  9 21  2  0  0  0  0
 10 22  1  0  0  0  0
 11 12  2  0  0  0  0
 11 23  1  0  0  0  0
 12 24  1  0  0  0  0
 13 20  1  0  0  0  0
 13 22  2  0  0  0  0
 14 24  2  0  0  0  0
 14 25  1  0  0  0  0
 15 26  1  0  0  0  0
 16 26  1  0  0  0  0
 16 27  2  0  0  0  0
 16 28  1  0  0  0  0
 17 19  2  0  0  0  0
 17 33  1  0  0  0  0
 18 20  2  0  0  0  0
 18 34  1  0  0  0  0
 19 43  1  0  0  0  0
 20 35  1  0  0  0  0
 21 78  1  0  0  0  0
 22 79  1  0  0  0  0
 23 25  2  0  0  0  0
 23 78  1  0  0  0  0
 24 80  1  0  0  0  0
 25 81  1  0  0  0  0
 26 62  2  0  0  0  0
 27 63  1  0  0  0  0
 27 66  1  0  0  0  0
 28 67  1  0  0  0  0
 28 72  2  0  0  0  0
 29 44  1  0  0  0  0
 29 68  1  0  0  0  0
 29 73  2  0  0  0  0
 30 59  1  0  0  0  0
 30 64  1  0  0  0  0
 30 74  2  0  0  0  0
 31 60  1  0  0  0  0
 31 69  1  0  0  0  0
 31 75  2  0  0  0  0
 32 65  1  0  0  0  0
 32 70  1  0  0  0  0
 32 76  2  0  0  0  0
 33 36  1  0  0  0  0
 34 44  1  0  0  0  0
 35 64  1  0  0  0  0
 36 38  1  0  0  0  0
 37 39  1  0  0  0  0
 37 41  1  0  0  0  0
 38 43  1  0  0  0  0
 39 45  1  0  0  0  0
 40 47  1  0  0  0  0
 40 48  1  0  0  0  0
 41 65  1  0  0  0  0
 42 45  1  0  0  0  0
 42 65  1  0  0  0  0
 43 68  1  0  0  0  0
 44 64  1  0  0  0  0
 45 63  1  0  0  0  0
 46 47  1  0  0  0  0
 46 49  1  0  0  0  0
 46 70  1  0  0  0  0
 47 77  1  0  0  0  0
 48 49  1  0  0  0  0
 48 50  1  0  0  0  0
 48 58  1  0  0  0  0
 49 51  1  0  0  0  0
 49 52  1  0  0  0  0
 53 60  1  0  0  0  0
 54 61  1  0  0  0  0
 55 61  1  0  0  0  0
 56 61  1  0  0  0  0
 57 71  1  0  0  0  0
 58 79  1  0  0  0  0
 59 61  1  0  0  0  0
 59 69  1  0  0  0  0
 60 71  1  0  0  0  0
 62 63  1  0  0  0  0
M  CHG  1  71   1
M  ISO  4  32 100  58 101  70 100  79 101
M  END
> <Batch ID>
0179

> <Smiles>
CNC(C)C(=O)NC(C(=O)N1Cc2cc([101O:1][101CH2:1]C3(C)CC(O)C([100NH:0][100C:0](=O)N4CCCC(n5nc(-c6ccc(Oc7ccc(F)cc7F)cc6)c(C(N)=O)c5N)C4)C3(C)C)ccc2CC1C(=O)NC1CCCc2ccccc21)C(C)(C)C

> <Shape>
0.270

> <Color>
0.124

> <Negative vol penalty>
0.000

$$$$

  -OEChem-04052322573D

 79 88  0     1  0  0  0  0  0999 V2000
  -18.5630  -28.0896   26.3981 C   0  0  0  0  0  0  0  0  0  0  0  0
  -19.9433  -27.9162   26.4095 C   0  0  0  0  0  0  0  0  0  0  0  0
  -24.6804  -11.8477   20.3906 C   0  0  0  0  0  0  0  0  0  0  0  0
  -25.1046  -12.5951   22.6486 C   0  0  0  0  0  0  0  0  0  0  0  0
  -17.8724  -28.0963   25.1870 C   0  0  0  0  0  0  0  0  0  0  0  0
  -20.6337  -27.7484   25.2096 C   0  0  0  0  0  0  0  0  0  0  0  0
  -26.9405  -29.2146   22.1453 C   0  0  0  0  0  0  0  0  0  0  0  0
  -24.8674  -10.5254   20.7931 C   0  0  0  0  0  0  0  0  0  0  0  0
  -25.2916  -11.2728   23.0511 C   0  0  0  0  0  0  0  0  0  0  0  0
  -27.9777  -28.5834   21.4601 C   0  0  0  0  0  0  0  0  0  0  0  0
  -24.8778   -6.9259   21.3019 C   0  0  0  0  0  0  0  0  0  0  0  0
  -23.9607   -5.9755   20.8533 C   0  0  0  0  0  0  0  0  0  0  0  0
  -26.6900  -28.6916   19.4232 C   0  0  0  0  0  0  0  0  0  0  0  0
  -22.1755   -7.1824   21.9459 C   0  0  0  0  0  0  0  0  0  0  0  0
  -24.7990  -12.8826   21.3183 C   0  0  0  0  0  0  0  0  0  0  0  0
  -23.3983  -14.9714   20.8910 C   0  0  0  0  0  0  0  0  0  0  0  0
  -18.5558  -27.9382   23.9711 C   0  0  0  0  0  0  0  0  0  0  0  0
  -25.7638  -29.5799   21.4757 C   0  0  0  0  0  0  0  0  0  0  0  0
  -19.9513  -27.7517   23.9811 C   0  0  0  0  0  0  0  0  0  0  0  0
  -25.6404  -29.3297   20.1016 C   0  0  0  0  0  0  0  0  0  0  0  0
  -25.1730  -10.2379   22.1234 C   0  0  0  0  0  0  0  0  0  0  0  0
  -27.8514  -28.3191   20.0995 C   0  0  0  0  0  0  0  0  0  0  0  0
  -24.4438   -8.0045   22.0726 C   0  0  0  0  0  0  0  0  0  0  0  0
  -22.6096   -6.1038   21.1753 C   0  0  0  0  0  0  0  0  0  0  0  0
  -23.0927   -8.1328   22.3946 C   0  0  0  0  0  0  0  0  0  0  0  0
  -24.6064  -14.2488   20.9030 C   0  0  0  0  0  0  0  0  0  0  0  0
  -23.7453  -16.2125   20.4158 C   0  0  0  0  0  0  0  0  0  0  0  0
  -22.0804  -14.5578   21.2750 C   0  0  0  0  0  0  0  0  0  0  0  0
  -22.6968  -28.7865   21.7351 C   0  0  0  0  0  0  0  0  0  0  0  0
  -22.3091  -31.1123   19.5074 C   0  0  0  0  0  0  0  0  0  0  0  0
  -23.6732  -32.9690   16.9897 C   0  0  0  0  0  0  0  0  0  0  0  0
  -28.9981  -19.0583   20.5352 C   0  0  0  0  0  0  0  0  0  0  0  0
  -17.7603  -27.9051   22.6901 C   0  0  0  0  0  0  0  0  0  0  0  0
  -24.6651  -30.2842   22.2234 C   0  0  0  0  0  0  0  0  0  0  0  0
  -24.4058  -29.7201   19.3322 C   0  0  0  0  0  0  0  0  0  0  0  0
  -18.6130  -28.0958   21.4384 C   0  0  0  0  0  0  0  0  0  0  0  0
  -26.9294  -18.3855   17.5837 C   0  0  0  0  0  0  0  0  0  0  0  0
  -19.8576  -27.2160   21.5012 C   0  0  0  0  0  0  0  0  0  0  0  0
  -25.9973  -17.2921   18.1081 C   0  0  0  0  0  0  0  0  0  0  0  0
  -28.3147  -18.2664   18.2073 C   0  0  0  0  0  0  0  0  0  0  0  0
  -30.1668  -21.3096   20.8247 C   0  0  0  0  0  0  0  0  0  0  0  0
  -28.9409  -21.2391   19.0877 C   0  0  0  0  0  0  0  0  0  0  0  0
  -27.3952  -17.2033   20.2285 C   0  0  0  0  0  0  0  0  0  0  0  0
  -28.3053  -25.2556   19.7498 C   0  0  0  0  0  0  0  0  0  0  0  0
  -29.7302  -25.6305   18.2693 C   0  0  0  0  0  0  0  0  0  0  0  0
  -20.7387  -27.5914   22.6988 C   0  0  1  0  0  0  0  0  0  0  0  0
  -23.3026  -30.1491   21.5506 C   0  0  1  0  0  0  0  0  0  0  0  0
  -29.3114  -22.3528   20.0854 C   0  0  0  0  0  0  0  0  0  0  0  0
  -25.9708  -17.2726   19.6475 C   0  0  2  0  0  0  0  0  0  0  0  0
  -28.5411  -26.4472   18.8048 C   0  0  0  0  0  0  0  0  0  1  0  0
  -23.0997  -34.7641   15.3326 C   0  0  0  0  0  0  0  0  0  0  0  0
  -20.8095  -29.0655   17.8128 C   0  0  0  0  0  0  0  0  0  0  0  0
  -21.1000  -30.5855   15.8447 C   0  0  0  0  0  0  0  0  0  0  0  0
  -19.7950  -31.3513   17.8280 C   0  0  0  0  0  0  0  0  0  0  0  0
  -25.6928  -34.8159   18.1163 C   0  0  0  0  0  0  0  0  0  0  0  0
  -30.0466  -23.5517   19.5211 C   0  0  0  0  0  0  0  0  0  0  0  0
  -22.3101  -31.1583   17.9985 C   0  0  1  0  0  0  0  0  0  0  0  0
  -23.6553  -34.4620   16.7156 C   0  0  2  0  0  0  0  0  0  0  0  0
  -21.0262  -30.5309   17.3856 C   0  0  0  0  0  0  0  0  0  0  0  0
  -25.6434  -14.9707   20.4697 N   0  0  0  0  0  0  0  0  0  0  0  0
  -25.0878  -16.1598   20.1810 N   0  0  0  0  0  0  0  0  0  0  0  0
  -23.3566  -30.4007   20.1091 N   0  0  0  0  0  0  0  0  0  0  0  0
  -28.2315  -18.2716   19.6713 N   0  0  0  0  0  0  0  0  0  0  0  0
  -29.3974  -20.3006   20.1017 N   0  0  0  0  0  0  0  0  0  0  0  0
  -23.0300  -17.3329   20.1802 N   0  0  0  0  0  0  0  0  0  0  0  0
  -21.9004  -13.2485   21.7415 N   0  0  0  0  0  0  0  0  0  0  0  0
  -21.4933  -28.7931   22.4140 N   0  0  0  0  0  0  0  0  0  0  0  0
  -22.5262  -32.5540   17.6328 N   0  0  0  0  0  0  0  0  0  0  0  0
  -29.0826  -24.4227   18.8136 N   0  3  0  0  0  0  0  0  0  0  0  0
  -25.0342  -35.0208   16.8006 N   0  3  0  0  0  0  0  0  0  0  0  0
  -21.0887  -15.3214   21.1911 O   0  0  0  0  0  0  0  0  0  0  0  0
  -23.2774  -27.8022   21.2928 O   0  0  0  0  0  0  0  0  0  0  0  0
  -21.4159  -31.6927   20.1295 O   0  0  0  0  0  0  0  0  0  0  0  0
  -24.6093  -32.2429   16.6626 O   0  0  0  0  0  0  0  0  0  0  0  0
  -29.2927  -18.6773   21.6760 O   0  0  0  0  0  0  0  0  0  0  0  0
  -25.3554   -8.9477   22.5166 O   0  0  0  0  0  0  0  0  0  0  0  0
  -28.8643  -27.7012   19.4270 O   0  0  0  0  0  0  0  0  0  1  0  0
  -21.7287   -5.1919   20.7431 F   0  0  0  0  0  0  0  0  0  0  0  0
  -22.6696   -9.1675   23.1336 F   0  0  0  0  0  0  0  0  0  0  0  0
  1  2  1  0  0  0  0
  1  5  2  0  0  0  0
  2  6  2  0  0  0  0
  3  8  2  0  0  0  0
  3 15  1  0  0  0  0
  4  9  1  0  0  0  0
  4 15  2  0  0  0  0
  5 17  1  0  0  0  0
  6 19  1  0  0  0  0
  7 10  2  0  0  0  0
  7 18  1  0  0  0  0
  8 21  1  0  0  0  0
  9 21  2  0  0  0  0
 10 22  1  0  0  0  0
 11 12  2  0  0  0  0
 11 23  1  0  0  0  0
 12 24  1  0  0  0  0
 13 20  1  0  0  0  0
 13 22  2  0  0  0  0
 14 24  2  0  0  0  0
 14 25  1  0  0  0  0
 15 26  1  0  0  0  0
 16 26  1  0  0  0  0
 16 27  2  0  0  0  0
 16 28  1  0  0  0  0
 17 19  2  0  0  0  0
 17 33  1  0  0  0  0
 18 20  2  0  0  0  0
 18 34  1  0  0  0  0
 19 46  1  0  0  0  0
 20 35  1  0  0  0  0
 21 76  1  0  0  0  0
 22 77  1  0  0  0  0
 23 25  2  0  0  0  0
 23 76  1  0  0  0  0
 24 78  1  0  0  0  0
 25 79  1  0  0  0  0
 26 60  2  0  0  0  0
 27 61  1  0  0  0  0
 27 65  1  0  0  0  0
 28 66  1  0  0  0  0
 28 71  2  0  0  0  0
 29 47  1  0  0  0  0
 29 67  1  0  0  0  0
 29 72  2  0  0  0  0
 30 57  1  0  0  0  0
 30 62  1  0  0  0  0
 30 73  2  0  0  0  0
 31 58  1  0  0  0  0
 31 68  1  0  0  0  0
 31 74  2  0  0  0  0
 32 63  1  0  0  0  0
 32 64  1  0  0  0  0
 32 75  2  0  0  0  0
 33 36  1  0  0  0  0
 34 47  1  0  0  0  0
 35 62  1  0  0  0  0
 36 38  1  0  0  0  0
 37 39  1  0  0  0  0
 37 40  1  0  0  0  0
 38 46  1  0  0  0  0
 39 49  1  0  0  0  0
 40 63  1  0  0  0  0
 41 48  1  0  0  0  0
 41 64  1  0  0  0  0
 42 48  1  0  0  0  0
 42 64  1  0  0  0  0
 43 49  1  0  0  0  0
 43 63  1  0  0  0  0
 44 50  1  0  0  0  0
 44 69  1  0  0  0  0
 45 50  1  0  0  0  0
 45 69  1  0  0  0  0
 46 67  1  0  0  0  0
 47 62  1  0  0  0  0
 48 56  1  0  0  0  0
 49 61  1  0  0  0  0
 50 77  1  0  0  0  0
 51 58  1  0  0  0  0
 52 59  1  0  0  0  0
 53 59  1  0  0  0  0
 54 59  1  0  0  0  0
 55 70  1  0  0  0  0
 56 69  1  0  0  0  0
 57 59  1  0  0  0  0
 57 68  1  0  0  0  0
 58 70  1  0  0  0  0
 60 61  1  0  0  0  0
M  CHG  2  69   1  70   1
M  ISO  4  32 100  50 101  64 100  77 101
M  END
> <Batch ID>
0179

> <Smiles>
CNC(C)C(=O)NC(C(=O)N1Cc2cc([101O:1][101CH:1]3CN(CC4C[100N:0]([100C:0](=O)N5CCCC(n6nc(-c7ccc(Oc8ccc(F)cc8F)cc7)c(C(N)=O)c6N)C5)C4)C3)ccc2CC1C(=O)NC1CCCc2ccccc21)C(C)(C)C

> <Shape>
0.272

> <Color>
0.095

> <Negative vol penalty>
0.000

$$$$

  -OEChem-04052322573D

 84 93  0     1  0  0  0  0  0999 V2000
  -29.7963  -37.3223   22.0352 C   0  0  0  0  0  0  0  0  0  0  0  0
  -30.0776  -36.0381   21.5802 C   0  0  0  0  0  0  0  0  0  0  0  0
  -24.8101   -8.2426   20.7792 C   0  0  0  0  0  0  0  0  0  0  0  0
  -23.1178   -9.7754   19.9893 C   0  0  0  0  0  0  0  0  0  0  0  0
  -28.7167  -37.5365   22.8910 C   0  0  0  0  0  0  0  0  0  0  0  0
  -29.2801  -34.9671   21.9818 C   0  0  0  0  0  0  0  0  0  0  0  0
  -26.7491  -28.6966   19.6170 C   0  0  0  0  0  0  0  0  0  0  0  0
  -23.8153   -7.3510   21.1804 C   0  0  0  0  0  0  0  0  0  0  0  0
  -22.1229   -8.8837   20.3906 C   0  0  0  0  0  0  0  0  0  0  0  0
  -26.6768  -27.3550   19.9892 C   0  0  0  0  0  0  0  0  0  0  0  0
  -21.6670   -7.0166   23.7684 C   0  0  0  0  0  0  0  0  0  0  0  0
  -21.7937   -6.4291   25.0271 C   0  0  0  0  0  0  0  0  0  0  0  0
  -24.7905  -27.8562   21.4069 C   0  0  0  0  0  0  0  0  0  0  0  0
  -21.8379   -4.2419   24.0017 C   0  0  0  0  0  0  0  0  0  0  0  0
  -24.4613   -9.4549   20.1837 C   0  0  0  0  0  0  0  0  0  0  0  0
  -26.1246  -10.4328   18.5149 C   0  0  0  0  0  0  0  0  0  0  0  0
  -27.8997  -36.4690   23.2956 C   0  0  0  0  0  0  0  0  0  0  0  0
  -25.8480  -29.6317   20.1463 C   0  0  0  0  0  0  0  0  0  0  0  0
  -28.1894  -35.1670   22.8449 C   0  0  0  0  0  0  0  0  0  0  0  0
  -24.8519  -29.2086   21.0379 C   0  0  0  0  0  0  0  0  0  0  0  0
  -27.2751  -22.3599   21.0237 C   0  0  0  0  0  0  0  0  0  0  0  0
  -22.4717   -7.6716   20.9861 C   0  0  0  0  0  0  0  0  0  0  0  0
  -25.6992  -26.9351   20.8865 C   0  0  0  0  0  0  0  0  0  0  0  0
  -21.6257   -6.2168   22.6263 C   0  0  0  0  0  0  0  0  0  0  0  0
  -21.8791   -5.0418   25.1438 C   0  0  0  0  0  0  0  0  0  0  0  0
  -21.7112   -4.8295   22.7430 C   0  0  0  0  0  0  0  0  0  0  0  0
  -25.4885  -10.3766   19.7695 C   0  0  0  0  0  0  0  0  0  0  0  0
  -26.9327  -21.1182   21.5191 C   0  0  0  0  0  0  0  0  0  0  0  0
  -26.3233  -23.3472   21.1774 C   0  0  0  0  0  0  0  0  0  0  0  0
  -27.0137  -11.4736   18.6271 C   0  0  0  0  0  0  0  0  0  0  0  0
  -24.9112  -21.8954   22.2095 C   0  0  0  0  0  0  0  0  0  0  0  0
  -25.9293   -9.6171   17.3520 C   0  0  0  0  0  0  0  0  0  0  0  0
  -26.1195  -32.2440   21.9368 C   0  0  0  0  0  0  0  0  0  0  0  0
  -22.9411  -32.5075   21.3450 C   0  0  0  0  0  0  0  0  0  0  0  0
  -20.0117  -30.9676   20.5119 C   0  0  0  0  0  0  0  0  0  0  0  0
  -27.9938  -16.6806   20.1073 C   0  0  0  0  0  0  0  0  0  0  0  0
  -26.7724  -36.7425   24.2595 C   0  0  0  0  0  0  0  0  0  0  0  0
  -25.9224  -31.0705   19.7142 C   0  0  0  0  0  0  0  0  0  0  0  0
  -23.8478  -30.1692   21.6190 C   0  0  0  0  0  0  0  0  0  0  0  0
  -25.7510  -35.6108   24.3389 C   0  0  0  0  0  0  0  0  0  0  0  0
  -28.5729  -14.0800   22.6404 C   0  0  0  0  0  0  0  0  0  0  0  0
  -26.4554  -34.2637   24.4646 C   0  0  0  0  0  0  0  0  0  0  0  0
  -27.8039  -12.9092   22.0385 C   0  0  0  0  0  0  0  0  0  0  0  0
  -27.9292  -15.4288   22.3182 C   0  0  0  0  0  0  0  0  0  0  0  0
  -27.3165  -18.4694   21.8654 C   0  0  0  0  0  0  0  0  0  0  0  0
  -28.1796  -19.2133   20.0721 C   0  0  0  0  0  0  0  0  0  0  0  0
  -26.9225  -14.4597   20.2614 C   0  0  0  0  0  0  0  0  0  0  0  0
  -27.3325  -33.9833   23.2384 C   0  0  1  0  0  0  0  0  0  0  0  0
  -27.8790  -19.8477   21.4458 C   0  0  0  0  0  0  0  0  0  0  0  0
  -25.2773  -32.0280   20.7114 C   0  0  1  0  0  0  0  0  0  0  0  0
  -27.6116  -13.1148   20.5290 C   0  0  2  0  0  0  0  0  0  0  0  0
  -23.5985  -21.6374   22.8680 C   0  0  0  0  0  0  0  0  0  0  0  0
  -28.4775  -22.6722   18.8459 C   0  0  0  0  0  0  0  0  0  0  0  0
  -17.5746  -31.4380   20.1421 C   0  0  0  0  0  0  0  0  0  0  0  0
  -22.5225  -32.6977   24.3614 C   0  0  0  0  0  0  0  0  0  0  0  0
  -20.0958  -32.2097   23.9852 C   0  0  0  0  0  0  0  0  0  0  0  0
  -21.1180  -34.2667   23.0124 C   0  0  0  0  0  0  0  0  0  0  0  0
  -20.1451  -30.0626   17.6973 C   0  0  0  0  0  0  0  0  0  0  0  0
  -28.5865  -22.6067   20.3690 C   0  0  0  0  0  0  0  0  0  0  0  0
  -26.5842  -24.7376   20.6774 C   0  0  0  0  0  0  0  0  0  1  0  0
  -21.6837  -32.0122   22.0178 C   0  0  1  0  0  0  0  0  0  0  0  0
  -18.9440  -31.3184   19.4914 C   0  0  2  0  0  0  0  0  0  0  0  0
  -21.3750  -32.7786   23.3349 C   0  0  0  0  0  0  0  0  0  0  0  0
  -25.9356  -11.3075   20.6165 N   0  0  0  0  0  0  0  0  0  0  0  0
  -25.7550  -20.8497   22.1201 N   0  0  0  0  0  0  0  0  0  0  0  0
  -25.1262  -23.1491   21.7674 N   0  0  0  0  0  0  0  0  0  0  0  0
  -26.8622  -11.9585   19.8929 N   0  0  0  0  0  0  0  0  0  0  0  0
  -23.9657  -31.5665   21.1706 N   0  0  0  0  0  0  0  0  0  0  0  0
  -27.6369  -15.5766   20.8887 N   0  0  0  0  0  0  0  0  0  0  0  0
  -28.0348  -17.9150   20.7242 N   0  0  0  0  0  0  0  0  0  0  0  0
  -27.9026  -12.0122   17.7656 N   0  0  0  0  0  0  0  0  0  0  0  0
  -24.9755   -8.5917   17.4078 N   0  0  0  0  0  0  0  0  0  0  0  0
  -26.5180  -33.5541   22.1218 N   0  0  0  0  0  0  0  0  0  0  0  0
  -20.6256  -32.0943   21.0167 N   0  0  0  0  0  0  0  0  0  0  0  0
  -18.8724  -30.2695   18.4352 N   0  3  0  0  0  0  0  0  0  0  0  0
  -26.5927   -9.7820   16.3003 O   0  0  0  0  0  0  0  0  0  0  0  0
  -26.3868  -31.2927   22.6616 O   0  0  0  0  0  0  0  0  0  0  0  0
  -23.0088  -33.6842   20.9810 O   0  0  0  0  0  0  0  0  0  0  0  0
  -20.2723  -29.8100   20.8322 O   0  0  0  0  0  0  0  0  0  0  0  0
  -28.2347  -16.5790   18.8976 O   0  0  0  0  0  0  0  0  0  0  0  0
  -21.5008   -6.8016   21.3773 O   0  0  0  0  0  0  0  0  0  0  0  0
  -25.6269  -25.6262   21.2519 O   0  0  0  0  0  0  0  0  0  1  0  0
  -22.0023   -4.4778   26.3525 F   0  0  0  0  0  0  0  0  0  0  0  0
  -21.6733   -4.0560   21.6494 F   0  0  0  0  0  0  0  0  0  0  0  0
  1  2  1  0  0  0  0
  1  5  2  0  0  0  0
  2  6  2  0  0  0  0
  3  8  2  0  0  0  0
  3 15  1  0  0  0  0
  4  9  1  0  0  0  0
  4 15  2  0  0  0  0
  5 17  1  0  0  0  0
  6 19  1  0  0  0  0
  7 10  2  0  0  0  0
  7 18  1  0  0  0  0
  8 22  1  0  0  0  0
  9 22  2  0  0  0  0
 10 23  1  0  0  0  0
 11 12  2  0  0  0  0
 11 24  1  0  0  0  0
 12 25  1  0  0  0  0
 13 20  1  0  0  0  0
 13 23  2  0  0  0  0
 14 25  2  0  0  0  0
 14 26  1  0  0  0  0
 15 27  1  0  0  0  0
 16 27  1  0  0  0  0
 16 30  2  0  0  0  0
 16 32  1  0  0  0  0
 17 19  2  0  0  0  0
 17 37  1  0  0  0  0
 18 20  2  0  0  0  0
 18 38  1  0  0  0  0
 19 48  1  0  0  0  0
 20 39  1  0  0  0  0
 21 28  1  0  0  0  0
 21 29  2  0  0  0  0
 21 59  1  0  0  0  0
 22 81  1  0  0  0  0
 23 82  1  0  0  0  0
 24 26  2  0  0  0  0
 24 81  1  0  0  0  0
 25 83  1  0  0  0  0
 26 84  1  0  0  0  0
 27 64  2  0  0  0  0
 28 49  1  0  0  0  0
 28 65  2  0  0  0  0
 29 60  1  0  0  0  0
 29 66  1  0  0  0  0
 30 67  1  0  0  0  0
 30 71  1  0  0  0  0
 31 52  1  0  0  0  0
 31 65  1  0  0  0  0
 31 66  2  0  0  0  0
 32 72  1  0  0  0  0
 32 76  2  0  0  0  0
 33 50  1  0  0  0  0
 33 73  1  0  0  0  0
 33 77  2  0  0  0  0
 34 61  1  0  0  0  0
 34 68  1  0  0  0  0
 34 78  2  0  0  0  0
 35 62  1  0  0  0  0
 35 74  1  0  0  0  0
 35 79  2  0  0  0  0
 36 69  1  0  0  0  0
 36 70  1  0  0  0  0
 36 80  2  0  0  0  0
 37 40  1  0  0  0  0
 38 50  1  0  0  0  0
 39 68  1  0  0  0  0
 40 42  1  0  0  0  0
 41 43  1  0  0  0  0
 41 44  1  0  0  0  0
 42 48  1  0  0  0  0
 43 51  1  0  0  0  0
 44 69  1  0  0  0  0
 45 49  1  0  0  0  0
 45 70  1  0  0  0  0
 46 49  1  0  0  0  0
 46 70  1  0  0  0  0
 47 51  1  0  0  0  0
 47 69  1  0  0  0  0
 48 73  1  0  0  0  0
 50 68  1  0  0  0  0
 51 67  1  0  0  0  0
 53 59  1  0  0  0  0
 54 62  1  0  0  0  0
 55 63  1  0  0  0  0
 56 63  1  0  0  0  0
 57 63  1  0  0  0  0
 58 75  1  0  0  0  0
 60 82  1  0  0  0  0
 61 63  1  0  0  0  0
 61 74  1  0  0  0  0
 62 75  1  0  0  0  0
 64 67  1  0  0  0  0
M  CHG  1  75   1
M  ISO  4  36 100  60 101  70 100  82 101
M  END
> <Batch ID>
0179

> <Smiles>
CCc1c(C2C[100N:0]([100C:0](=O)N3CCCC(n4nc(-c5ccc(Oc6ccc(F)cc6F)cc5)c(C(N)=O)c4N)C3)C2)nc(C)nc1[101CH2:1][101O:1]c1ccc2c(c1)CN(C(=O)C(NC(=O)C(C)NC)C(C)(C)C)C(C(=O)NC1CCCc3ccccc31)C2

> <Shape>
0.246

> <Color>
0.086

> <Negative vol penalty>
0.000

$$$$

  -OEChem-04052322573D

 82 91  0     1  0  0  0  0  0999 V2000
  -16.2897  -28.0798   21.9366 C   0  0  0  0  0  0  0  0  0  0  0  0
  -17.4311  -27.5942   21.3065 C   0  0  0  0  0  0  0  0  0  0  0  0
  -25.1513  -14.3025   21.4170 C   0  0  0  0  0  0  0  0  0  0  0  0
  -26.6395  -12.4033   21.2932 C   0  0  0  0  0  0  0  0  0  0  0  0
  -16.4086  -28.9763   22.9978 C   0  0  0  0  0  0  0  0  0  0  0  0
  -18.6921  -28.0058   21.7366 C   0  0  0  0  0  0  0  0  0  0  0  0
  -23.8220  -24.6622   21.8319 C   0  0  0  0  0  0  0  0  0  0  0  0
  -24.1516  -13.5601   20.7885 C   0  0  0  0  0  0  0  0  0  0  0  0
  -25.6398  -11.6609   20.6647 C   0  0  0  0  0  0  0  0  0  0  0  0
  -24.9058  -24.5820   20.9585 C   0  0  0  0  0  0  0  0  0  0  0  0
  -22.8483   -9.9818   21.5640 C   0  0  0  0  0  0  0  0  0  0  0  0
  -22.6369   -8.6763   22.0074 C   0  0  0  0  0  0  0  0  0  0  0  0
  -26.1197  -26.1517   22.3303 C   0  0  0  0  0  0  0  0  0  0  0  0
  -23.1494   -7.8430   19.7984 C   0  0  0  0  0  0  0  0  0  0  0  0
  -28.5343  -25.5171   17.6457 C   0  0  0  0  0  0  0  0  0  0  0  0
  -26.3953  -13.7241   21.6693 C   0  0  0  0  0  0  0  0  0  0  0  0
  -27.6715  -14.5906   23.7011 C   0  0  0  0  0  0  0  0  0  0  0  0
  -17.6720  -29.3916   23.4473 C   0  0  0  0  0  0  0  0  0  0  0  0
  -23.8749  -25.4974   22.9570 C   0  0  0  0  0  0  0  0  0  0  0  0
  -18.8279  -28.9098   22.8039 C   0  0  0  0  0  0  0  0  0  0  0  0
  -25.0362  -26.2387   23.2178 C   0  0  0  0  0  0  0  0  0  0  0  0
  -24.3958  -12.2393   20.4123 C   0  0  0  0  0  0  0  0  0  0  0  0
  -26.0537  -25.3290   21.2060 C   0  0  0  0  0  0  0  0  0  0  0  0
  -23.2102  -10.2179   20.2377 C   0  0  0  0  0  0  0  0  0  0  0  0
  -22.7875   -7.6069   21.1246 C   0  0  0  0  0  0  0  0  0  0  0  0
  -23.3608   -9.1485   19.3549 C   0  0  0  0  0  0  0  0  0  0  0  0
  -27.4286  -14.4906   22.3181 C   0  0  0  0  0  0  0  0  0  0  0  0
  -29.7249  -25.4623   16.9501 C   0  0  0  0  0  0  0  0  0  0  0  0
  -28.2518  -24.4197   18.4332 C   0  0  0  0  0  0  0  0  0  0  0  0
  -28.7535  -15.4310   23.7998 C   0  0  0  0  0  0  0  0  0  0  0  0
  -30.1932  -23.4125   17.8138 C   0  0  0  0  0  0  0  0  0  0  0  0
  -26.9810  -13.9786   24.7985 C   0  0  0  0  0  0  0  0  0  0  0  0
  -22.2270  -28.0267   23.9525 C   0  0  0  0  0  0  0  0  0  0  0  0
  -24.0342  -27.6656   26.6219 C   0  0  0  0  0  0  0  0  0  0  0  0
  -26.9047  -26.4832   28.0393 C   0  0  0  0  0  0  0  0  0  0  0  0
  -30.6754  -19.6743   20.0850 C   0  0  0  0  0  0  0  0  0  0  0  0
  -17.7490  -30.3987   24.5674 C   0  0  0  0  0  0  0  0  0  0  0  0
  -22.7076  -25.5523   23.9040 C   0  0  0  0  0  0  0  0  0  0  0  0
  -25.1511  -27.1350   24.4228 C   0  0  0  0  0  0  0  0  0  0  0  0
  -19.1323  -30.4953   25.2056 C   0  0  0  0  0  0  0  0  0  0  0  0
  -32.6353  -16.8490   21.4226 C   0  0  0  0  0  0  0  0  0  0  0  0
  -20.2118  -30.5741   24.1308 C   0  0  0  0  0  0  0  0  0  0  0  0
  -31.5226  -15.9111   21.8813 C   0  0  0  0  0  0  0  0  0  0  0  0
  -32.5504  -22.4725   18.2964 C   0  0  0  0  0  0  0  0  0  0  0  0
  -32.2400  -17.6424   20.1779 C   0  0  0  0  0  0  0  0  0  0  0  0
  -29.8459  -17.4525   20.7914 C   0  0  0  0  0  0  0  0  0  0  0  0
  -20.2140  -29.3135   23.2576 C   0  0  1  0  0  0  0  0  0  0  0  0
  -31.1150  -22.2432   17.9075 C   0  0  1  0  0  0  0  0  0  0  0  0
  -22.6756  -26.8282   24.7398 C   0  0  1  0  0  0  0  0  0  0  0  0
  -30.2071  -16.6819   22.0705 C   0  0  1  0  0  0  0  0  0  0  0  0
  -31.6152  -21.8144   19.2673 C   0  0  1  0  0  0  0  0  0  0  0  0
  -30.1165  -26.6035   16.0727 C   0  0  0  0  0  0  0  0  0  0  0  0
  -28.1179  -26.3726   30.2332 C   0  0  0  0  0  0  0  0  0  0  0  0
  -24.8379  -30.5938   26.3225 C   0  0  0  0  0  0  0  0  0  0  0  0
  -26.7242  -30.1663   27.9122 C   0  0  0  0  0  0  0  0  0  0  0  0
  -24.3657  -29.8766   28.6713 C   0  0  0  0  0  0  0  0  0  0  0  0
  -26.8441  -23.5244   28.0558 C   0  0  0  0  0  0  0  0  0  0  0  0
  -26.9794  -24.3881   19.2277 C   0  0  0  0  0  0  0  0  0  1  0  0
  -25.3737  -28.1859   27.0846 C   0  0  1  0  0  0  0  0  0  0  0  0
  -27.1457  -25.6700   29.2983 C   0  0  2  0  0  0  0  0  0  0  0  0
  -25.3228  -29.6903   27.4738 C   0  0  0  0  0  0  0  0  0  0  0  0
  -28.2870  -15.2101   21.5904 N   0  0  0  0  0  0  0  0  0  0  0  0
  -30.5814  -24.4216   17.0111 N   0  0  0  0  0  0  0  0  0  0  0  0
  -29.0616  -23.3460   18.5410 N   0  0  0  0  0  0  0  0  0  0  0  0
  -29.0799  -15.7703   22.5197 N   0  0  0  0  0  0  0  0  0  0  0  0
  -23.9806  -27.1595   25.3155 N   0  0  0  0  0  0  0  0  0  0  0  0
  -30.9468  -18.3211   20.3569 N   0  0  0  0  0  0  0  0  0  0  0  0
  -29.4479  -15.9054   24.8558 N   0  0  0  0  0  0  0  0  0  0  0  0
  -25.8907  -13.1433   24.5194 N   0  0  0  0  0  0  0  0  0  0  0  0
  -20.8587  -28.2192   23.9515 N   0  0  0  0  0  0  0  0  0  0  0  0
  -25.8035  -27.3036   28.1641 N   0  0  0  0  0  0  0  0  0  0  0  0
  -31.7425  -20.4199   19.5966 N   0  0  0  0  0  0  0  0  0  0  0  0
  -27.7086  -24.3342   28.9523 N   0  3  0  0  0  0  0  0  0  0  0  0
  -27.3105  -14.1798   25.9919 O   0  0  0  0  0  0  0  0  0  0  0  0
  -23.0608  -28.7260   23.3889 O   0  0  0  0  0  0  0  0  0  0  0  0
  -23.0726  -27.7002   27.3938 O   0  0  0  0  0  0  0  0  0  0  0  0
  -27.6238  -26.4018   27.0459 O   0  0  0  0  0  0  0  0  0  0  0  0
  -29.5621  -20.1821   20.2586 O   0  0  0  0  0  0  0  0  0  0  0  0
  -23.4205  -11.5145   19.7992 O   0  0  0  0  0  0  0  0  0  0  0  0
  -27.1127  -25.2531   20.3548 O   0  0  0  0  0  0  0  0  0  1  0  0
  -22.5859   -6.3532   21.5510 F   0  0  0  0  0  0  0  0  0  0  0  0
  -23.7094   -9.3690   18.0799 F   0  0  0  0  0  0  0  0  0  0  0  0
  1  2  1  0  0  0  0
  1  5  2  0  0  0  0
  2  6  2  0  0  0  0
  3  8  2  0  0  0  0
  3 16  1  0  0  0  0
  4  9  1  0  0  0  0
  4 16  2  0  0  0  0
  5 18  1  0  0  0  0
  6 20  1  0  0  0  0
  7 10  2  0  0  0  0
  7 19  1  0  0  0  0
  8 22  1  0  0  0  0
  9 22  2  0  0  0  0
 10 23  1  0  0  0  0
 11 12  2  0  0  0  0
 11 24  1  0  0  0  0
 12 25  1  0  0  0  0
 13 21  1  0  0  0  0
 13 23  2  0  0  0  0
 14 25  2  0  0  0  0
 14 26  1  0  0  0  0
 15 28  2  0  0  0  0
 15 29  1  0  0  0  0
 16 27  1  0  0  0  0
 17 27  1  0  0  0  0
 17 30  2  0  0  0  0
 17 32  1  0  0  0  0
 18 20  2  0  0  0  0
 18 37  1  0  0  0  0
 19 21  2  0  0  0  0
 19 38  1  0  0  0  0
 20 47  1  0  0  0  0
 21 39  1  0  0  0  0
 22 79  1  0  0  0  0
 23 80  1  0  0  0  0
 24 26  2  0  0  0  0
 24 79  1  0  0  0  0
 25 81  1  0  0  0  0
 26 82  1  0  0  0  0
 27 62  2  0  0  0  0
 28 52  1  0  0  0  0
 28 63  1  0  0  0  0
 29 58  1  0  0  0  0
 29 64  2  0  0  0  0
 30 65  1  0  0  0  0
 30 68  1  0  0  0  0
 31 48  1  0  0  0  0
 31 63  2  0  0  0  0
 31 64  1  0  0  0  0
 32 69  1  0  0  0  0
 32 74  2  0  0  0  0
 33 49  1  0  0  0  0
 33 70  1  0  0  0  0
 33 75  2  0  0  0  0
 34 59  1  0  0  0  0
 34 66  1  0  0  0  0
 34 76  2  0  0  0  0
 35 60  1  0  0  0  0
 35 71  1  0  0  0  0
 35 77  2  0  0  0  0
 36 67  1  0  0  0  0
 36 72  1  0  0  0  0
 36 78  2  0  0  0  0
 37 40  1  0  0  0  0
 38 49  1  0  0  0  0
 39 66  1  0  0  0  0
 40 42  1  0  0  0  0
 41 43  1  0  0  0  0
 41 45  1  0  0  0  0
 42 47  1  0  0  0  0
 43 50  1  0  0  0  0
 44 48  1  0  0  0  0
 44 51  1  0  0  0  0
 45 67  1  0  0  0  0
 46 50  1  0  0  0  0
 46 67  1  0  0  0  0
 47 70  1  0  0  0  0
 48 51  1  0  0  0  0
 49 66  1  0  0  0  0
 50 65  1  0  0  0  0
 51 72  1  0  0  0  0
 53 60  1  0  0  0  0
 54 61  1  0  0  0  0
 55 61  1  0  0  0  0
 56 61  1  0  0  0  0
 57 73  1  0  0  0  0
 58 80  1  0  0  0  0
 59 61  1  0  0  0  0
 59 71  1  0  0  0  0
 60 73  1  0  0  0  0
 62 65  1  0  0  0  0
M  CHG  1  73   1
M  ISO  4  36 100  58 101  72 100  80 101
M  END
> <Batch ID>
0179

> <Smiles>
CNC(C)C(=O)NC(C(=O)N1Cc2cc([101O:1][101CH2:1]c3cc(C)nc(C4CC4[100NH:0][100C:0](=O)N4CCCC(n5nc(-c6ccc(Oc7ccc(F)cc7F)cc6)c(C(N)=O)c5N)C4)n3)ccc2CC1C(=O)NC1CCCc2ccccc21)C(C)(C)C

> <Shape>
0.205

> <Color>
0.083

> <Negative vol penalty>
0.000

$$$$

  -OEChem-04052322573D

 86 96  0     1  0  0  0  0  0999 V2000
  -25.8264  -34.3698   24.4787 C   0  0  0  0  0  0  0  0  0  0  0  0
  -26.6951  -33.3016   24.2794 C   0  0  0  0  0  0  0  0  0  0  0  0
  -23.8286  -10.7278   22.3339 C   0  0  0  0  0  0  0  0  0  0  0  0
  -24.4671   -8.7971   21.0292 C   0  0  0  0  0  0  0  0  0  0  0  0
  -24.4490  -34.1723   24.3913 C   0  0  0  0  0  0  0  0  0  0  0  0
  -26.1868  -32.0349   23.9938 C   0  0  0  0  0  0  0  0  0  0  0  0
  -28.6852  -27.8036   20.3388 C   0  0  0  0  0  0  0  0  0  0  0  0
  -22.6689  -10.0687   22.7417 C   0  0  0  0  0  0  0  0  0  0  0  0
  -23.3074   -8.1380   21.4371 C   0  0  0  0  0  0  0  0  0  0  0  0
  -29.4616  -26.6761   20.6031 C   0  0  0  0  0  0  0  0  0  0  0  0
  -22.2160   -6.4847   24.1749 C   0  0  0  0  0  0  0  0  0  0  0  0
  -22.3368   -5.1562   24.5827 C   0  0  0  0  0  0  0  0  0  0  0  0
  -27.4796  -25.3027   20.5347 C   0  0  0  0  0  0  0  0  0  0  0  0
  -20.8159   -4.4804   22.8312 C   0  0  0  0  0  0  0  0  0  0  0  0
  -24.7277  -10.0920   21.4776 C   0  0  0  0  0  0  0  0  0  0  0  0
  -27.1811  -10.7573   21.6920 C   0  0  0  0  0  0  0  0  0  0  0  0
  -23.9238  -32.9046   24.0950 C   0  0  0  0  0  0  0  0  0  0  0  0
  -27.2964  -27.6904   20.1810 C   0  0  0  0  0  0  0  0  0  0  0  0
  -24.8010  -31.8200   23.9038 C   0  0  0  0  0  0  0  0  0  0  0  0
  -26.6882  -26.4299   20.2660 C   0  0  0  0  0  0  0  0  0  0  0  0
  -22.4083   -8.7738   22.2933 C   0  0  0  0  0  0  0  0  0  0  0  0
  -28.8585  -25.4259   20.7040 C   0  0  0  0  0  0  0  0  0  0  0  0
  -21.3952   -6.8110   23.0954 C   0  0  0  0  0  0  0  0  0  0  0  0
  -21.6368   -4.1541   23.9108 C   0  0  0  0  0  0  0  0  0  0  0  0
  -20.6952   -5.8089   22.4235 C   0  0  0  0  0  0  0  0  0  0  0  0
  -25.9255  -10.7725   21.0555 C   0  0  0  0  0  0  0  0  0  0  0  0
  -29.3242  -21.0426   19.7746 C   0  0  0  0  0  0  0  0  0  0  0  0
  -28.9293  -21.8227   18.7133 C   0  0  0  0  0  0  0  0  0  0  0  0
  -27.9758  -11.5524   20.9029 C   0  0  0  0  0  0  0  0  0  0  0  0
  -29.4277  -23.1878   20.2685 C   0  0  0  0  0  0  0  0  0  1  0  0
  -27.5922  -10.0846   22.8896 C   0  0  0  0  0  0  0  0  0  0  0  0
  -24.7632  -28.8412   21.7179 C   0  0  0  0  0  0  0  0  0  0  0  0
  -23.1392  -27.4556   19.2755 C   0  0  0  0  0  0  0  0  0  0  0  0
  -23.0647  -25.0839   16.8227 C   0  0  0  0  0  0  0  0  0  0  0  0
  -28.9008  -16.0293   17.8828 C   0  0  0  0  0  0  0  0  0  0  0  0
  -22.4262  -32.7299   24.0576 C   0  0  0  0  0  0  0  0  0  0  0  0
  -26.4765  -28.9124   19.8698 C   0  0  0  0  0  0  0  0  0  0  0  0
  -25.2037  -26.2519   20.0845 C   0  0  0  0  0  0  0  0  0  0  0  0
  -21.9807  -31.4361   23.3810 C   0  0  0  0  0  0  0  0  0  0  0  0
  -27.1856  -13.4788   16.3011 C   0  0  0  0  0  0  0  0  0  0  0  0
  -22.8009  -30.2562   23.8927 C   0  0  0  0  0  0  0  0  0  0  0  0
  -29.1556  -21.1875   24.4932 C   0  0  0  0  0  0  0  0  0  0  0  0
  -28.2015  -22.1239   23.8057 C   0  0  0  0  0  0  0  0  0  0  0  0
  -26.8028  -12.5363   17.4419 C   0  0  0  0  0  0  0  0  0  0  0  0
  -28.0624  -18.8452   19.8024 C   0  0  0  0  0  0  0  0  0  0  0  0
  -30.4514  -18.9209   18.9679 C   0  0  0  0  0  0  0  0  0  0  0  0
  -27.0112  -14.9355   16.7149 C   0  0  0  0  0  0  0  0  0  0  0  0
  -28.1813  -17.3245   19.9383 C   0  0  0  0  0  0  0  0  0  0  0  0
  -30.5224  -17.4073   19.1477 C   0  0  0  0  0  0  0  0  0  0  0  0
  -27.4055  -14.3762   19.0919 C   0  0  0  0  0  0  0  0  0  0  0  0
  -24.2887  -30.4363   23.5676 C   0  0  1  0  0  0  0  0  0  0  0  0
  -29.4299  -19.5383   19.9402 C   0  0  0  0  0  0  0  0  0  0  0  0
  -25.0044  -28.7537   20.2374 C   0  0  1  0  0  0  0  0  0  0  0  0
  -28.9933  -21.1321   22.9994 C   0  0  0  0  0  0  0  0  0  0  0  0
  -27.5700  -12.8862   18.7293 C   0  0  1  0  0  0  0  0  0  0  0  0
  -28.4784  -21.3940   17.3796 C   0  0  0  0  0  0  0  0  0  0  0  0
  -21.5879  -24.1682   15.0122 C   0  0  0  0  0  0  0  0  0  0  0  0
  -21.4699  -26.0020   21.3757 C   0  0  0  0  0  0  0  0  0  0  0  0
  -20.6988  -24.4378   19.5793 C   0  0  0  0  0  0  0  0  0  0  0  0
  -20.1671  -26.8702   19.4254 C   0  0  0  0  0  0  0  0  0  0  0  0
  -25.0151  -25.7931   14.7128 C   0  0  0  0  0  0  0  0  0  0  0  0
  -30.1132  -21.6069   22.0896 C   0  0  0  0  0  0  0  0  0  0  0  0
  -22.5397  -26.0925   19.0276 C   0  0  1  0  0  0  0  0  0  0  0  0
  -22.6848  -25.1641   15.3551 C   0  0  2  0  0  0  0  0  0  0  0  0
  -21.2466  -25.8539   19.8574 C   0  0  0  0  0  0  0  0  0  0  0  0
  -25.9182  -11.5183   19.9474 N   0  0  0  0  0  0  0  0  0  0  0  0
  -28.9962  -23.1570   19.0272 N   0  0  0  0  0  0  0  0  0  0  0  0
  -29.6402  -21.9313   20.7634 N   0  0  0  0  0  0  0  0  0  0  0  0
  -27.1789  -11.9791   19.8816 N   0  0  0  0  0  0  0  0  0  0  0  0
  -24.4440  -27.4777   19.7881 N   0  0  0  0  0  0  0  0  0  0  0  0
  -27.7514  -15.2269   17.9425 N   0  0  0  0  0  0  0  0  0  0  0  0
  -29.1986  -16.7990   19.0173 N   0  0  0  0  0  0  0  0  0  0  0  0
  -29.2715  -11.9212   20.9899 N   0  0  0  0  0  0  0  0  0  0  0  0
  -26.6492   -9.3088   23.5775 N   0  0  0  0  0  0  0  0  0  0  0  0
  -24.5434  -30.1258   22.1772 N   0  0  0  0  0  0  0  0  0  0  0  0
  -22.3520  -25.9853   17.5848 N   0  0  0  0  0  0  0  0  0  0  0  0
  -23.8682  -24.8739   14.4971 N   0  3  0  0  0  0  0  0  0  0  0  0
  -28.7568  -10.1822   23.3453 O   0  0  0  0  0  0  0  0  0  0  0  0
  -24.7740  -27.8187   22.3932 O   0  0  0  0  0  0  0  0  0  0  0  0
  -22.4769  -28.4636   19.0170 O   0  0  0  0  0  0  0  0  0  0  0  0
  -23.9065  -24.2974   17.2508 O   0  0  0  0  0  0  0  0  0  0  0  0
  -29.6195  -16.0563   16.8758 O   0  0  0  0  0  0  0  0  0  0  0  0
  -21.2769   -8.1303   22.6913 O   0  0  0  0  0  0  0  0  0  0  0  0
  -29.6371  -24.2899   20.9705 O   0  0  0  0  0  0  0  0  0  1  0  0
  -21.7540   -2.8783   24.3015 F   0  0  0  0  0  0  0  0  0  0  0  0
  -19.9060   -6.1162   21.3850 F   0  0  0  0  0  0  0  0  0  0  0  0
  1  2  1  0  0  0  0
  1  5  2  0  0  0  0
  2  6  2  0  0  0  0
  3  8  2  0  0  0  0
  3 15  1  0  0  0  0
  4  9  1  0  0  0  0
  4 15  2  0  0  0  0
  5 17  1  0  0  0  0
  6 19  1  0  0  0  0
  7 10  2  0  0  0  0
  7 18  1  0  0  0  0
  8 21  1  0  0  0  0
  9 21  2  0  0  0  0
 10 22  1  0  0  0  0
 11 12  2  0  0  0  0
 11 23  1  0  0  0  0
 12 24  1  0  0  0  0
 13 20  1  0  0  0  0
 13 22  2  0  0  0  0
 14 24  2  0  0  0  0
 14 25  1  0  0  0  0
 15 26  1  0  0  0  0
 16 26  1  0  0  0  0
 16 29  2  0  0  0  0
 16 31  1  0  0  0  0
 17 19  2  0  0  0  0
 17 36  1  0  0  0  0
 18 20  2  0  0  0  0
 18 37  1  0  0  0  0
 19 51  1  0  0  0  0
 20 38  1  0  0  0  0
 21 83  1  0  0  0  0
 22 84  1  0  0  0  0
 23 25  2  0  0  0  0
 23 83  1  0  0  0  0
 24 85  1  0  0  0  0
 25 86  1  0  0  0  0
 26 66  2  0  0  0  0
 27 28  2  0  0  0  0
 27 52  1  0  0  0  0
 27 68  1  0  0  0  0
 28 56  1  0  0  0  0
 28 67  1  0  0  0  0
 29 69  1  0  0  0  0
 29 73  1  0  0  0  0
 30 67  2  0  0  0  0
 30 68  1  0  0  0  0
 30 84  1  0  0  0  0
 31 74  1  0  0  0  0
 31 78  2  0  0  0  0
 32 53  1  0  0  0  0
 32 75  1  0  0  0  0
 32 79  2  0  0  0  0
 33 63  1  0  0  0  0
 33 70  1  0  0  0  0
 33 80  2  0  0  0  0
 34 64  1  0  0  0  0
 34 76  1  0  0  0  0
 34 81  2  0  0  0  0
 35 71  1  0  0  0  0
 35 72  1  0  0  0  0
 35 82  2  0  0  0  0
 36 39  1  0  0  0  0
 37 53  1  0  0  0  0
 38 70  1  0  0  0  0
 39 41  1  0  0  0  0
 40 44  1  0  0  0  0
 40 47  1  0  0  0  0
 41 51  1  0  0  0  0
 42 43  1  0  0  0  0
 42 54  1  0  0  0  0
 43 54  1  0  0  0  0
 44 55  1  0  0  0  0
 45 48  1  0  0  0  0
 45 52  1  0  0  0  0
 46 49  1  0  0  0  0
 46 52  1  0  0  0  0
 47 71  1  0  0  0  0
 48 72  1  0  0  0  0
 49 72  1  0  0  0  0
 50 55  1  0  0  0  0
 50 71  1  0  0  0  0
 51 75  1  0  0  0  0
 53 70  1  0  0  0  0
 54 62  1  0  0  0  0
 55 69  1  0  0  0  0
 57 64  1  0  0  0  0
 58 65  1  0  0  0  0
 59 65  1  0  0  0  0
 60 65  1  0  0  0  0
 61 77  1  0  0  0  0
 62 68  1  0  0  0  0
 63 65  1  0  0  0  0
 63 76  1  0  0  0  0
 64 77  1  0  0  0  0
 66 69  1  0  0  0  0
M  CHG  1  77   1
M  ISO  4  30 101  35 100  72 100  84 101
M  END
> <Batch ID>
0179

> <Smiles>
CNC(C)C(=O)NC(C(=O)N1Cc2cc([101O:1][101c:1]3nc(C)c(C4CC[100N:0]([100C:0](=O)N5CCCC(n6nc(-c7ccc(Oc8ccc(F)cc8F)cc7)c(C(N)=O)c6N)C5)CC4)n3CC3CC3)ccc2CC1C(=O)NC1CCCc2ccccc21)C(C)(C)C

> <Shape>
0.283

> <Color>
0.071

> <Negative vol penalty>
0.000

$$$$

  -OEChem-04052322573D

 86 95  0     1  0  0  0  0  0999 V2000
  -26.4008  -25.1175   28.9027 C   0  0  0  0  0  0  0  0  0  0  0  0
  -27.1046  -24.9300   27.7173 C   0  0  0  0  0  0  0  0  0  0  0  0
  -24.0835  -14.2381   22.1040 C   0  0  0  0  0  0  0  0  0  0  0  0
  -26.4874  -14.2068   21.8646 C   0  0  0  0  0  0  0  0  0  0  0  0
  -25.0248  -25.3395   28.8674 C   0  0  0  0  0  0  0  0  0  0  0  0
  -26.4325  -24.9632   26.4960 C   0  0  0  0  0  0  0  0  0  0  0  0
  -28.5866  -27.1720   21.1223 C   0  0  0  0  0  0  0  0  0  0  0  0
  -23.9972  -13.0403   21.3945 C   0  0  0  0  0  0  0  0  0  0  0  0
  -26.4011  -13.0089   21.1551 C   0  0  0  0  0  0  0  0  0  0  0  0
  -29.1485  -26.5708   19.9969 C   0  0  0  0  0  0  0  0  0  0  0  0
  -24.4649   -9.7468   22.0008 C   0  0  0  0  0  0  0  0  0  0  0  0
  -23.6261   -8.7534   22.5057 C   0  0  0  0  0  0  0  0  0  0  0  0
  -26.9750  -26.5080   18.9528 C   0  0  0  0  0  0  0  0  0  0  0  0
  -22.3334   -8.8079   20.4653 C   0  0  0  0  0  0  0  0  0  0  0  0
  -25.3286  -14.8214   22.3390 C   0  0  0  0  0  0  0  0  0  0  0  0
  -25.5592  -16.2149   24.4633 C   0  0  0  0  0  0  0  0  0  0  0  0
  -24.3371  -25.3850   27.6444 C   0  0  0  0  0  0  0  0  0  0  0  0
  -27.2105  -27.4370   21.1762 C   0  0  0  0  0  0  0  0  0  0  0  0
  -25.0457  -25.1846   26.4445 C   0  0  0  0  0  0  0  0  0  0  0  0
  -26.3990  -27.1170   20.0781 C   0  0  0  0  0  0  0  0  0  0  0  0
  -30.7294  -22.0662   16.8802 C   0  0  0  0  0  0  0  0  0  0  0  0
  -25.1560  -12.4256   20.9201 C   0  0  0  0  0  0  0  0  0  0  0  0
  -28.3423  -26.2367   18.9129 C   0  0  0  0  0  0  0  0  0  0  0  0
  -24.2380  -10.2709   20.7282 C   0  0  0  0  0  0  0  0  0  0  0  0
  -22.5604   -8.2839   21.7380 C   0  0  0  0  0  0  0  0  0  0  0  0
  -23.1723   -9.8014   19.9605 C   0  0  0  0  0  0  0  0  0  0  0  0
  -25.4183  -16.0590   23.0713 C   0  0  0  0  0  0  0  0  0  0  0  0
  -31.3699  -21.3205   17.8554 C   0  0  0  0  0  0  0  0  0  0  0  0
  -29.7105  -22.8817   17.3063 C   0  0  0  0  0  0  0  0  0  0  0  0
  -25.5968  -17.5745   24.6545 C   0  0  0  0  0  0  0  0  0  0  0  0
  -30.0379  -22.1730   19.4579 C   0  0  0  0  0  0  0  0  0  0  0  0
  -25.6482  -15.2196   25.4915 C   0  0  0  0  0  0  0  0  0  0  0  0
  -24.7511  -26.5599   23.0276 C   0  0  0  0  0  0  0  0  0  0  0  0
  -23.1932  -28.7933   21.1202 C   0  0  0  0  0  0  0  0  0  0  0  0
  -20.5636  -28.7402   23.2933 C   0  0  0  0  0  0  0  0  0  0  0  0
  -27.1639  -22.1472   21.1210 C   0  0  0  0  0  0  0  0  0  0  0  0
  -22.8417  -25.5808   27.6594 C   0  0  0  0  0  0  0  0  0  0  0  0
  -26.6291  -28.1140   22.3878 C   0  0  0  0  0  0  0  0  0  0  0  0
  -24.9181  -27.3843   20.0852 C   0  0  0  0  0  0  0  0  0  0  0  0
  -22.2653  -25.9743   26.3018 C   0  0  0  0  0  0  0  0  0  0  0  0
  -24.0293  -21.6697   22.7406 C   0  0  0  0  0  0  0  0  0  0  0  0
  -22.8341  -25.0835   25.2019 C   0  0  0  0  0  0  0  0  0  0  0  0
  -24.0426  -20.1917   23.1346 C   0  0  0  0  0  0  0  0  0  0  0  0
  -32.1698  -20.5751   15.7611 C   0  0  0  0  0  0  0  0  0  0  0  0
  -24.7143  -21.9014   21.3955 C   0  0  0  0  0  0  0  0  0  0  0  0
  -26.0958  -19.8818   21.6899 C   0  0  0  0  0  0  0  0  0  0  0  0
  -24.3562  -25.2383   25.0984 C   0  0  1  0  0  0  0  0  0  0  0  0
  -32.4732  -20.4786   17.2742 C   0  0  1  0  0  0  0  0  0  0  0  0
  -25.1195  -27.9273   22.5256 C   0  0  1  0  0  0  0  0  0  0  0  0
  -25.4657  -19.6058   23.0658 C   0  0  2  0  0  0  0  0  0  0  0  0
  -31.3081  -21.8481   15.5149 C   0  0  0  0  0  0  0  0  0  0  0  0
  -33.8552  -20.9911   17.6537 C   0  0  0  0  0  0  0  0  0  0  0  0
  -32.1675  -23.0433   15.0859 C   0  0  0  0  0  0  0  0  0  0  0  0
  -30.2334  -21.5784   14.4556 C   0  0  0  0  0  0  0  0  0  0  0  0
  -18.4097  -29.9205   23.8083 C   0  0  0  0  0  0  0  0  0  0  0  0
  -24.7583  -31.1096   22.3413 C   0  0  0  0  0  0  0  0  0  0  0  0
  -22.7014  -31.7288   23.6274 C   0  0  0  0  0  0  0  0  0  0  0  0
  -22.6737  -31.7806   21.1336 C   0  0  0  0  0  0  0  0  0  0  0  0
  -18.9764  -26.2813   22.8537 C   0  0  0  0  0  0  0  0  0  0  0  0
  -28.9112  -23.7311   16.3471 C   0  0  0  0  0  0  0  0  0  0  0  0
  -29.6334  -22.2374   20.8918 C   0  0  0  0  0  0  0  0  0  0  0  0
  -28.0531  -24.7664   17.0660 C   0  0  0  0  0  0  0  0  0  1  0  0
  -22.6994  -29.5518   22.3268 C   0  0  1  0  0  0  0  0  0  0  0  0
  -19.0637  -28.7689   23.0607 C   0  0  2  0  0  0  0  0  0  0  0  0
  -23.2195  -31.0167   22.3596 C   0  0  0  0  0  0  0  0  0  0  0  0
  -25.3696  -17.2264   22.4240 N   0  0  0  0  0  0  0  0  0  0  0  0
  -31.0565  -21.3407   19.1604 N   0  0  0  0  0  0  0  0  0  0  0  0
  -29.3372  -22.9546   18.6024 N   0  0  0  0  0  0  0  0  0  0  0  0
  -25.4803  -18.1288   23.4138 N   0  0  0  0  0  0  0  0  0  0  0  0
  -24.4150  -28.1211   21.2519 N   0  0  0  0  0  0  0  0  0  0  0  0
  -26.0603  -21.3233   21.3969 N   0  0  0  0  0  0  0  0  0  0  0  0
  -25.7177  -18.3380   25.7612 N   0  0  0  0  0  0  0  0  0  0  0  0
  -25.5929  -13.8691   25.1208 N   0  0  0  0  0  0  0  0  0  0  0  0
  -24.6937  -26.4629   24.4049 N   0  0  0  0  0  0  0  0  0  0  0  0
  -21.2453  -29.4341   22.3160 N   0  0  0  0  0  0  0  0  0  0  0  0
  -28.4040  -21.5210   21.1489 N   0  0  0  0  0  0  0  0  0  0  0  0
  -18.4433  -27.4954   23.5236 N   0  3  0  0  0  0  0  0  0  0  0  0
  -25.7565  -15.5193   26.7048 O   0  0  0  0  0  0  0  0  0  0  0  0
  -24.5335  -25.6599   22.2249 O   0  0  0  0  0  0  0  0  0  0  0  0
  -22.5199  -28.8014   20.0859 O   0  0  0  0  0  0  0  0  0  0  0  0
  -21.0786  -28.1634   24.2485 O   0  0  0  0  0  0  0  0  0  0  0  0
  -27.0528  -23.3528   20.8737 O   0  0  0  0  0  0  0  0  0  0  0  0
  -25.0722  -11.2566   20.2280 O   0  0  0  0  0  0  0  0  0  0  0  0
  -28.8882  -25.6503   17.8128 O   0  0  0  0  0  0  0  0  0  1  0  0
  -21.7558   -7.3288   22.2224 F   0  0  0  0  0  0  0  0  0  0  0  0
  -22.9500  -10.3002   18.7367 F   0  0  0  0  0  0  0  0  0  0  0  0
  1  2  1  0  0  0  0
  1  5  2  0  0  0  0
  2  6  2  0  0  0  0
  3  8  2  0  0  0  0
  3 15  1  0  0  0  0
  4  9  1  0  0  0  0
  4 15  2  0  0  0  0
  5 17  1  0  0  0  0
  6 19  1  0  0  0  0
  7 10  2  0  0  0  0
  7 18  1  0  0  0  0
  8 22  1  0  0  0  0
  9 22  2  0  0  0  0
 10 23  1  0  0  0  0
 11 12  2  0  0  0  0
 11 24  1  0  0  0  0
 12 25  1  0  0  0  0
 13 20  1  0  0  0  0
 13 23  2  0  0  0  0
 14 25  2  0  0  0  0
 14 26  1  0  0  0  0
 15 27  1  0  0  0  0
 16 27  1  0  0  0  0
 16 30  2  0  0  0  0
 16 32  1  0  0  0  0
 17 19  2  0  0  0  0
 17 37  1  0  0  0  0
 18 20  2  0  0  0  0
 18 38  1  0  0  0  0
 19 47  1  0  0  0  0
 20 39  1  0  0  0  0
 21 28  1  0  0  0  0
 21 29  2  0  0  0  0
 21 51  1  0  0  0  0
 22 83  1  0  0  0  0
 23 84  1  0  0  0  0
 24 26  2  0  0  0  0
 24 83  1  0  0  0  0
 25 85  1  0  0  0  0
 26 86  1  0  0  0  0
 27 66  2  0  0  0  0
 28 48  1  0  0  0  0
 28 67  2  0  0  0  0
 29 60  1  0  0  0  0
 29 68  1  0  0  0  0
 30 69  1  0  0  0  0
 30 72  1  0  0  0  0
 31 61  1  0  0  0  0
 31 67  1  0  0  0  0
 31 68  2  0  0  0  0
 32 73  1  0  0  0  0
 32 78  2  0  0  0  0
 33 49  1  0  0  0  0
 33 74  1  0  0  0  0
 33 79  2  0  0  0  0
 34 63  1  0  0  0  0
 34 70  1  0  0  0  0
 34 80  2  0  0  0  0
 35 64  1  0  0  0  0
 35 75  1  0  0  0  0
 35 81  2  0  0  0  0
 36 71  1  0  0  0  0
 36 76  1  0  0  0  0
 36 82  2  0  0  0  0
 37 40  1  0  0  0  0
 38 49  1  0  0  0  0
 39 70  1  0  0  0  0
 40 42  1  0  0  0  0
 41 43  1  0  0  0  0
 41 45  1  0  0  0  0
 42 47  1  0  0  0  0
 43 50  1  0  0  0  0
 44 48  1  0  0  0  0
 44 51  1  0  0  0  0
 45 71  1  0  0  0  0
 46 50  1  0  0  0  0
 46 71  1  0  0  0  0
 47 74  1  0  0  0  0
 48 52  1  0  0  0  0
 49 70  1  0  0  0  0
 50 69  1  0  0  0  0
 51 53  1  0  0  0  0
 51 54  1  0  0  0  0
 55 64  1  0  0  0  0
 56 65  1  0  0  0  0
 57 65  1  0  0  0  0
 58 65  1  0  0  0  0
 59 77  1  0  0  0  0
 60 62  1  0  0  0  0
 61 76  1  0  0  0  0
 62 84  1  0  0  0  0
 63 65  1  0  0  0  0
 63 75  1  0  0  0  0
 64 77  1  0  0  0  0
 66 69  1  0  0  0  0
M  CHG  1  77   1
M  ISO  4  36 100  62 101  76 100  84 101
M  END
> <Batch ID>
0179

> <Smiles>
CNC(C)C(=O)NC(C(=O)N1Cc2cc([101O:1][101CH2:1]Cc3nc(C[100NH:0][100C:0](=O)N4CCCC(n5nc(-c6ccc(Oc7ccc(F)cc7F)cc6)c(C(N)=O)c5N)C4)nc4c3C(C)(C)CC4C)ccc2CC1C(=O)NC1CCCc2ccccc21)C(C)(C)C

> <Shape>
0.218

> <Color>
0.063

> <Negative vol penalty>
0.000

$$$$

  -OEChem-04052322573D

 86 95  0     1  0  0  0  0  0999 V2000
  -32.7186  -22.0007   33.4457 C   0  0  0  0  0  0  0  0  0  0  0  0
  -31.8187  -21.7287   32.4202 C   0  0  0  0  0  0  0  0  0  0  0  0
  -23.2045   -9.8113   19.9261 C   0  0  0  0  0  0  0  0  0  0  0  0
  -23.5610  -10.0012   22.3081 C   0  0  0  0  0  0  0  0  0  0  0  0
  -33.2374  -20.9573   34.2113 C   0  0  0  0  0  0  0  0  0  0  0  0
  -31.4380  -20.4130   32.1589 C   0  0  0  0  0  0  0  0  0  0  0  0
  -25.9483  -18.4779   30.2552 C   0  0  0  0  0  0  0  0  0  0  0  0
  -22.4406   -8.6626   20.1319 C   0  0  0  0  0  0  0  0  0  0  0  0
  -22.7971   -8.8524   22.5139 C   0  0  0  0  0  0  0  0  0  0  0  0
  -25.4575  -18.1422   28.9942 C   0  0  0  0  0  0  0  0  0  0  0  0
  -23.2128   -5.5064   22.2648 C   0  0  0  0  0  0  0  0  0  0  0  0
  -23.7068   -4.5499   23.1517 C   0  0  0  0  0  0  0  0  0  0  0  0
  -26.3414  -14.4352   24.5794 C   0  0  0  0  0  0  0  0  0  0  0  0
  -25.9207  -15.8170   29.4394 C   0  0  0  0  0  0  0  0  0  0  0  0
  -21.7370   -4.8073   24.5267 C   0  0  0  0  0  0  0  0  0  0  0  0
  -27.6407  -13.9783   24.5976 C   0  0  0  0  0  0  0  0  0  0  0  0
  -27.6988  -16.1762   25.0223 C   0  0  0  0  0  0  0  0  0  0  0  0
  -23.7648  -10.4806   21.0141 C   0  0  0  0  0  0  0  0  0  0  0  0
  -24.0964  -12.9977   20.7648 C   0  0  0  0  0  0  0  0  0  0  0  0
  -32.8555  -19.6290   33.9655 C   0  0  0  0  0  0  0  0  0  0  0  0
  -26.4399  -17.4851   31.1151 C   0  0  0  0  0  0  0  0  0  0  0  0
  -31.9533  -19.3507   32.9210 C   0  0  0  0  0  0  0  0  0  0  0  0
  -26.4148  -16.1424   30.7119 C   0  0  0  0  0  0  0  0  0  0  0  0
  -26.3781  -15.8257   24.8482 C   0  0  0  0  0  0  0  0  0  0  0  0
  -22.2369   -8.1831   21.4258 C   0  0  0  0  0  0  0  0  0  0  0  0
  -25.4463  -16.8120   28.5850 C   0  0  0  0  0  0  0  0  0  0  0  0
  -21.9808   -6.1134   22.5089 C   0  0  0  0  0  0  0  0  0  0  0  0
  -22.9690   -4.2003   24.2827 C   0  0  0  0  0  0  0  0  0  0  0  0
  -21.2430   -5.7639   23.6399 C   0  0  0  0  0  0  0  0  0  0  0  0
  -24.5544  -11.6670   20.8021 C   0  0  0  0  0  0  0  0  0  0  0  0
  -25.2269  -13.7437   20.5370 C   0  0  0  0  0  0  0  0  0  0  0  0
  -22.7678  -13.5133   20.9221 C   0  0  0  0  0  0  0  0  0  0  0  0
  -29.2582  -16.8675   32.4490 C   0  0  0  0  0  0  0  0  0  0  0  0
  -27.5845  -14.5545   33.9889 C   0  0  0  0  0  0  0  0  0  0  0  0
  -24.8703  -12.4862   34.0352 C   0  0  0  0  0  0  0  0  0  0  0  0
  -31.0359  -12.7788   21.6211 C   0  0  0  0  0  0  0  0  0  0  0  0
  -33.4794  -18.5301   34.7888 C   0  0  0  0  0  0  0  0  0  0  0  0
  -26.9411  -17.8606   32.4826 C   0  0  0  0  0  0  0  0  0  0  0  0
  -26.9123  -15.0367   31.6054 C   0  0  0  0  0  0  0  0  0  0  0  0
  -32.7373  -17.1997   34.6911 C   0  0  0  0  0  0  0  0  0  0  0  0
  -29.5338  -13.4799   18.4701 C   0  0  0  0  0  0  0  0  0  0  0  0
  -32.4145  -16.8741   33.2362 C   0  0  0  0  0  0  0  0  0  0  0  0
  -28.0460  -13.2149   18.7071 C   0  0  0  0  0  0  0  0  0  0  0  0
  -30.4119  -12.4964   19.2405 C   0  0  0  0  0  0  0  0  0  0  0  0
  -28.6447  -12.1528   20.9235 C   0  0  0  0  0  0  0  0  0  0  0  0
  -31.6110  -14.4264   26.2377 C   0  0  0  0  0  0  0  0  0  0  0  0
  -31.4970  -17.9389   32.6231 C   0  0  1  0  0  0  0  0  0  0  0  0
  -27.8928  -16.8259   33.0750 C   0  0  1  0  0  0  0  0  0  0  0  0
  -30.7634  -13.6365   25.2240 C   0  0  1  0  0  0  0  0  0  0  0  0
  -27.7198  -13.1548   20.2115 C   0  0  2  0  0  0  0  0  0  0  0  0
  -30.0305  -14.9835   24.9823 C   0  0  1  0  0  0  0  0  0  0  0  0
  -23.7925  -10.6809   35.4051 C   0  0  0  0  0  0  0  0  0  0  0  0
  -32.1490  -11.7119   24.4200 C   0  0  0  0  0  0  0  0  0  0  0  0
  -23.8104  -16.0676   24.6827 C   0  0  0  0  0  0  0  0  0  0  0  0
  -25.3068  -17.8676   23.8469 C   0  0  0  0  0  0  0  0  0  0  0  0
  -29.6694  -12.5599   32.9964 C   0  0  0  0  0  0  0  0  0  0  0  0
  -28.0727  -10.7161   33.5613 C   0  0  0  0  0  0  0  0  0  0  0  0
  -28.9355  -12.2117   35.3617 C   0  0  0  0  0  0  0  0  0  0  0  0
  -22.4184  -14.0942   34.4369 C   0  0  0  0  0  0  0  0  0  0  0  0
  -25.1091  -17.4550   26.3203 C   0  0  0  0  0  0  0  0  0  1  0  0
  -27.2488  -13.1100   33.7064 C   0  0  1  0  0  0  0  0  0  0  0  0
  -23.8602  -12.1740   35.1246 C   0  0  2  0  0  0  0  0  0  0  0  0
  -31.5036  -13.0400   24.0444 C   0  0  1  0  0  0  0  0  0  0  0  0
  -25.1660  -16.7725   24.9292 C   0  0  0  0  0  0  0  0  0  0  0  0
  -28.4739  -12.1702   33.8886 C   0  0  0  0  0  0  0  0  0  0  0  0
  -25.8731  -11.5702   20.6130 N   0  0  0  0  0  0  0  0  0  0  0  0
  -28.4573  -15.0454   24.8674 N   0  0  0  0  0  0  0  0  0  0  0  0
  -26.2533  -12.8494   20.4546 N   0  0  0  0  0  0  0  0  0  0  0  0
  -27.3985  -15.4551   32.9306 N   0  0  0  0  0  0  0  0  0  0  0  0
  -30.0528  -12.4888   20.6607 N   0  0  0  0  0  0  0  0  0  0  0  0
  -25.4331  -15.0709   20.4011 N   0  0  0  0  0  0  0  0  0  0  0  0
  -21.7224  -12.6079   21.1499 N   0  0  0  0  0  0  0  0  0  0  0  0
  -30.1322  -17.7441   33.0631 N   0  0  0  0  0  0  0  0  0  0  0  0
  -26.1114  -12.7811   34.5587 N   0  0  0  0  0  0  0  0  0  0  0  0
  -30.6100  -12.7564   22.9436 N   0  0  0  0  0  0  0  0  0  0  0  0
  -30.5022  -15.3898   26.3336 N   0  3  0  0  0  0  0  0  0  0  0  0
  -22.5029  -12.6385   34.7210 N   0  3  0  0  0  0  0  0  0  0  0  0
  -22.5127  -14.7391   20.8460 O   0  0  0  0  0  0  0  0  0  0  0  0
  -29.5012  -16.1558   31.4815 O   0  0  0  0  0  0  0  0  0  0  0  0
  -27.9898  -14.8731   35.1095 O   0  0  0  0  0  0  0  0  0  0  0  0
  -24.5876  -12.4665   32.8393 O   0  0  0  0  0  0  0  0  0  0  0  0
  -32.2052  -13.0437   21.3219 O   0  0  0  0  0  0  0  0  0  0  0  0
  -21.4913   -7.0623   21.6271 O   0  0  0  0  0  0  0  0  0  0  0  0
  -24.9685  -16.4817   27.3543 O   0  0  0  0  0  0  0  0  0  1  0  0
  -23.4428   -3.2806   25.1334 F   0  0  0  0  0  0  0  0  0  0  0  0
  -20.0583   -6.3428   23.8790 F   0  0  0  0  0  0  0  0  0  0  0  0
  1  2  1  0  0  0  0
  1  5  2  0  0  0  0
  2  6  2  0  0  0  0
  3  8  2  0  0  0  0
  3 18  1  0  0  0  0
  4  9  1  0  0  0  0
  4 18  2  0  0  0  0
  5 20  1  0  0  0  0
  6 22  1  0  0  0  0
  7 10  2  0  0  0  0
  7 21  1  0  0  0  0
  8 25  1  0  0  0  0
  9 25  2  0  0  0  0
 10 26  1  0  0  0  0
 11 12  2  0  0  0  0
 11 27  1  0  0  0  0
 12 28  1  0  0  0  0
 13 16  2  0  0  0  0
 13 24  1  0  0  0  0
 14 23  1  0  0  0  0
 14 26  2  0  0  0  0
 15 28  2  0  0  0  0
 15 29  1  0  0  0  0
 16 67  1  0  0  0  0
 17 24  2  0  0  0  0
 17 67  1  0  0  0  0
 18 30  1  0  0  0  0
 19 30  1  0  0  0  0
 19 31  2  0  0  0  0
 19 32  1  0  0  0  0
 20 22  2  0  0  0  0
 20 37  1  0  0  0  0
 21 23  2  0  0  0  0
 21 38  1  0  0  0  0
 22 47  1  0  0  0  0
 23 39  1  0  0  0  0
 24 64  1  0  0  0  0
 25 83  1  0  0  0  0
 26 84  1  0  0  0  0
 27 29  2  0  0  0  0
 27 83  1  0  0  0  0
 28 85  1  0  0  0  0
 29 86  1  0  0  0  0
 30 66  2  0  0  0  0
 31 68  1  0  0  0  0
 31 71  1  0  0  0  0
 32 72  1  0  0  0  0
 32 78  2  0  0  0  0
 33 48  1  0  0  0  0
 33 73  1  0  0  0  0
 33 79  2  0  0  0  0
 34 61  1  0  0  0  0
 34 69  1  0  0  0  0
 34 80  2  0  0  0  0
 35 62  1  0  0  0  0
 35 74  1  0  0  0  0
 35 81  2  0  0  0  0
 36 70  1  0  0  0  0
 36 75  1  0  0  0  0
 36 82  2  0  0  0  0
 37 40  1  0  0  0  0
 38 48  1  0  0  0  0
 39 69  1  0  0  0  0
 40 42  1  0  0  0  0
 41 43  1  0  0  0  0
 41 44  1  0  0  0  0
 42 47  1  0  0  0  0
 43 50  1  0  0  0  0
 44 70  1  0  0  0  0
 45 50  1  0  0  0  0
 45 70  1  0  0  0  0
 46 49  1  0  0  0  0
 46 76  1  0  0  0  0
 47 73  1  0  0  0  0
 48 69  1  0  0  0  0
 49 51  1  0  0  0  0
 49 63  1  0  0  0  0
 50 68  1  0  0  0  0
 51 67  1  0  0  0  0
 51 76  1  0  0  0  0
 52 62  1  0  0  0  0
 53 63  1  0  0  0  0
 54 64  1  0  0  0  0
 55 64  1  0  0  0  0
 56 65  1  0  0  0  0
 57 65  1  0  0  0  0
 58 65  1  0  0  0  0
 59 77  1  0  0  0  0
 60 64  1  0  0  0  0
 60 84  1  0  0  0  0
 61 65  1  0  0  0  0
 61 74  1  0  0  0  0
 62 77  1  0  0  0  0
 63 75  1  0  0  0  0
 66 68  1  0  0  0  0
M  CHG  2  76   1  77   1
M  ISO  4  36 100  60 101  75 100  84 101
M  END
> <Batch ID>
0179

> <Smiles>
CNC(C)C(=O)NC(C(=O)N1Cc2cc([101O:1][101CH2:1]C(C)(C)c3ccn(C4NCC4C(C)[100NH:0][100C:0](=O)N4CCCC(n5nc(-c6ccc(Oc7ccc(F)cc7F)cc6)c(C(N)=O)c5N)C4)c3)ccc2CC1C(=O)NC1CCCc2ccccc21)C(C)(C)C

> <Shape>
0.138

> <Color>
0.170

> <Negative vol penalty>
0.000

$$$$

  -OEChem-04052322573D

 89 99  0     1  0  0  0  0  0999 V2000
  -19.4843  -16.0278   25.6998 C   0  0  0  0  0  0  0  0  0  0  0  0
  -20.1891  -16.7751   24.7617 C   0  0  0  0  0  0  0  0  0  0  0  0
  -25.9194  -32.1826   23.7859 C   0  0  0  0  0  0  0  0  0  0  0  0
  -26.3062  -33.4058   21.7387 C   0  0  0  0  0  0  0  0  0  0  0  0
  -20.0581  -14.8827   26.2507 C   0  0  0  0  0  0  0  0  0  0  0  0
  -21.4686  -16.3784   24.3747 C   0  0  0  0  0  0  0  0  0  0  0  0
  -22.1428  -16.6153   19.3612 C   0  0  0  0  0  0  0  0  0  0  0  0
  -30.6345  -22.1687   19.1341 C   0  0  0  0  0  0  0  0  0  0  0  0
  -26.4898  -33.2249   24.5165 C   0  0  0  0  0  0  0  0  0  0  0  0
  -26.8765  -34.4482   22.4693 C   0  0  0  0  0  0  0  0  0  0  0  0
  -22.3738  -17.8742   18.8086 C   0  0  0  0  0  0  0  0  0  0  0  0
  -28.1072  -37.5884   23.8268 C   0  0  0  0  0  0  0  0  0  0  0  0
  -27.7291  -38.8912   23.5027 C   0  0  0  0  0  0  0  0  0  0  0  0
  -31.5863  -23.1813   19.0904 C   0  0  0  0  0  0  0  0  0  0  0  0
  -24.7379  -17.4001   18.7320 C   0  0  0  0  0  0  0  0  0  0  0  0
  -25.4316  -38.3537   24.0224 C   0  0  0  0  0  0  0  0  0  0  0  0
  -25.8276  -32.2730   22.3969 C   0  0  0  0  0  0  0  0  0  0  0  0
  -23.8835  -31.0436   21.2940 C   0  0  0  0  0  0  0  0  0  0  0  0
  -21.3414  -14.4664   25.8631 C   0  0  0  0  0  0  0  0  0  0  0  0
  -23.2105  -15.7420   19.6139 C   0  0  0  0  0  0  0  0  0  0  0  0
  -22.0607  -15.2275   24.9219 C   0  0  0  0  0  0  0  0  0  0  0  0
  -29.3255  -22.5013   19.4525 C   0  0  0  0  0  0  0  0  0  0  0  0
  -24.5174  -16.1296   19.2855 C   0  0  0  0  0  0  0  0  0  0  0  0
  -26.9683  -34.3577   23.8582 C   0  0  0  0  0  0  0  0  0  0  0  0
  -23.6718  -18.2680   18.4966 C   0  0  0  0  0  0  0  0  0  0  0  0
  -27.1476  -36.6681   24.2486 C   0  0  0  0  0  0  0  0  0  0  0  0
  -26.3913  -39.2739   23.6005 C   0  0  0  0  0  0  0  0  0  0  0  0
  -25.8098  -37.0508   24.3465 C   0  0  0  0  0  0  0  0  0  0  0  0
  -25.2391  -31.1963   21.6416 C   0  0  0  0  0  0  0  0  0  0  0  0
  -31.1814  -24.4771   19.3863 C   0  0  0  0  0  0  0  0  0  0  0  0
  -29.0065  -23.8322   19.6951 C   0  0  0  0  0  0  0  0  0  0  0  0
  -23.8415  -29.8690   20.5833 C   0  0  0  0  0  0  0  0  0  0  0  0
  -22.7624  -31.8879   21.5873 C   0  0  0  0  0  0  0  0  0  0  0  0
  -24.4347  -14.3899   22.2172 C   0  0  0  0  0  0  0  0  0  0  0  0
  -25.9670  -22.6967   18.8960 C   0  0  0  0  0  0  0  0  0  0  0  0
  -26.2890  -12.8298   20.0608 C   0  0  0  0  0  0  0  0  0  0  0  0
  -27.6874  -12.7700   16.9483 C   0  0  0  0  0  0  0  0  0  0  0  0
  -26.9940  -25.0635   20.5431 C   0  0  0  0  0  0  0  0  0  0  0  0
  -21.9391  -13.2481   26.5214 C   0  0  0  0  0  0  0  0  0  0  0  0
  -22.9418  -14.3770   20.1856 C   0  0  0  0  0  0  0  0  0  0  0  0
  -25.6961  -15.2214   19.5183 C   0  0  0  0  0  0  0  0  0  0  0  0
  -23.1497  -12.6872   25.7796 C   0  0  0  0  0  0  0  0  0  0  0  0
  -26.5307  -27.0921   17.7664 C   0  0  0  0  0  0  0  0  0  0  0  0
  -24.1112  -13.8094   25.4016 C   0  0  0  0  0  0  0  0  0  0  0  0
  -27.3210  -19.7909   21.3936 C   0  0  0  0  0  0  0  0  0  0  0  0
  -28.5554  -19.2272   20.7468 C   0  0  0  0  0  0  0  0  0  0  0  0
  -25.9934  -28.3711   18.4089 C   0  0  0  0  0  0  0  0  0  0  0  0
  -27.6811  -26.4884   18.5743 C   0  0  0  0  0  0  0  0  0  0  0  0
  -26.8177  -27.5295   20.6427 C   0  0  0  0  0  0  0  0  0  0  0  0
  -23.4411  -14.8156   24.4582 C   0  0  1  0  0  0  0  0  0  0  0  0
  -24.1580  -13.7688   20.8772 C   0  0  1  0  0  0  0  0  0  0  0  0
  -27.0148  -22.6061   19.9697 C   0  0  1  0  0  0  0  0  0  0  0  0
  -28.3944  -20.7153   20.8896 C   0  0  0  0  0  0  0  0  0  0  0  0
  -25.6267  -28.1390   19.8860 C   0  0  1  0  0  0  0  0  0  0  0  0
  -28.1478  -21.5784   19.6646 C   0  0  2  0  0  0  0  0  0  0  0  0
  -32.1887  -25.5779   19.3639 C   0  0  0  0  0  0  0  0  0  0  0  0
  -27.9041  -20.6853   18.4402 C   0  0  0  0  0  0  0  0  0  0  0  0
  -29.1844  -11.3834   15.4876 C   0  0  0  0  0  0  0  0  0  0  0  0
  -28.7162  -13.7908   21.6403 C   0  0  0  0  0  0  0  0  0  0  0  0
  -30.1431  -13.2107   19.6665 C   0  0  0  0  0  0  0  0  0  0  0  0
  -28.8601  -11.4245   20.8438 C   0  0  0  0  0  0  0  0  0  0  0  0
  -25.5606  -12.3967   14.9244 C   0  0  0  0  0  0  0  0  0  0  0  0
  -23.7109  -21.8801   18.2435 C   0  0  0  0  0  0  0  0  0  0  0  0
  -22.9981  -20.5416   18.3156 C   0  0  0  0  0  0  0  0  0  1  0  0
  -27.6231  -13.0968   19.4066 C   0  0  1  0  0  0  0  0  0  0  0  0
  -27.7490  -11.6811   15.8925 C   0  0  2  0  0  0  0  0  0  0  0  0
  -28.8138  -12.8988   20.3866 C   0  0  0  0  0  0  0  0  0  0  0  0
  -26.0030  -30.1985   21.1891 N   0  0  0  0  0  0  0  0  0  0  0  0
  -29.9127  -24.8282   19.7019 N   0  0  0  0  0  0  0  0  0  0  0  0
  -25.1245  -29.4075   20.5500 N   0  0  0  0  0  0  0  0  0  0  0  0
  -27.6307  -23.9483   20.0027 N   0  0  0  0  0  0  0  0  0  0  0  0
  -25.3826  -13.8992   20.0851 N   0  0  0  0  0  0  0  0  0  0  0  0
  -27.2869  -26.3122   19.9791 N   0  0  0  0  0  0  0  0  0  0  0  0
  -22.8327  -29.1963   19.9899 N   0  0  0  0  0  0  0  0  0  0  0  0
  -22.9824  -33.0571   22.3283 N   0  0  0  0  0  0  0  0  0  0  0  0
  -23.3866  -14.2874   23.1119 N   0  0  0  0  0  0  0  0  0  0  0  0
  -24.8399  -21.9367   19.1441 N   0  0  0  0  0  0  0  0  0  0  0  0
  -27.6752  -12.2451   18.2233 N   0  0  0  0  0  0  0  0  0  0  0  0
  -26.9940  -12.0954   14.6763 N   0  3  0  0  0  0  0  0  0  0  0  0
  -21.5975  -31.6054   21.2177 O   0  0  0  0  0  0  0  0  0  0  0  0
  -25.5192  -14.9213   22.4244 O   0  0  0  0  0  0  0  0  0  0  0  0
  -26.1659  -23.4050   17.9160 O   0  0  0  0  0  0  0  0  0  0  0  0
  -26.0569  -11.7114   20.5265 O   0  0  0  0  0  0  0  0  0  0  0  0
  -27.6571  -13.9667   16.6699 O   0  0  0  0  0  0  0  0  0  0  0  0
  -26.1843  -24.9465   21.4719 O   0  0  0  0  0  0  0  0  0  0  0  0
  -27.5247  -35.3752   24.5708 O   0  0  0  0  0  0  0  0  0  0  0  0
  -23.9018  -19.5052   17.9539 O   0  0  0  0  0  0  0  0  0  1  0  0
  -26.0285  -40.5256   23.2908 F   0  0  0  0  0  0  0  0  0  0  0  0
  -24.8836  -36.1714   24.7523 F   0  0  0  0  0  0  0  0  0  0  0  0
  1  2  1  0  0  0  0
  1  5  2  0  0  0  0
  2  6  2  0  0  0  0
  3  9  2  0  0  0  0
  3 17  1  0  0  0  0
  4 10  1  0  0  0  0
  4 17  2  0  0  0  0
  5 19  1  0  0  0  0
  6 21  1  0  0  0  0
  7 11  2  0  0  0  0
  7 20  1  0  0  0  0
  8 14  2  0  0  0  0
  8 22  1  0  0  0  0
  9 24  1  0  0  0  0
 10 24  2  0  0  0  0
 11 25  1  0  0  0  0
 12 13  2  0  0  0  0
 12 26  1  0  0  0  0
 13 27  1  0  0  0  0
 14 30  1  0  0  0  0
 15 23  1  0  0  0  0
 15 25  2  0  0  0  0
 16 27  2  0  0  0  0
 16 28  1  0  0  0  0
 17 29  1  0  0  0  0
 18 29  1  0  0  0  0
 18 32  2  0  0  0  0
 18 33  1  0  0  0  0
 19 21  2  0  0  0  0
 19 39  1  0  0  0  0
 20 23  2  0  0  0  0
 20 40  1  0  0  0  0
 21 50  1  0  0  0  0
 22 31  2  0  0  0  0
 22 55  1  0  0  0  0
 23 41  1  0  0  0  0
 24 86  1  0  0  0  0
 25 87  1  0  0  0  0
 26 28  2  0  0  0  0
 26 86  1  0  0  0  0
 27 88  1  0  0  0  0
 28 89  1  0  0  0  0
 29 68  2  0  0  0  0
 30 56  1  0  0  0  0
 30 69  2  0  0  0  0
 31 69  1  0  0  0  0
 31 71  1  0  0  0  0
 32 70  1  0  0  0  0
 32 74  1  0  0  0  0
 33 75  1  0  0  0  0
 33 80  2  0  0  0  0
 34 51  1  0  0  0  0
 34 76  1  0  0  0  0
 34 81  2  0  0  0  0
 35 52  1  0  0  0  0
 35 77  1  0  0  0  0
 35 82  2  0  0  0  0
 36 65  1  0  0  0  0
 36 72  1  0  0  0  0
 36 83  2  0  0  0  0
 37 66  1  0  0  0  0
 37 78  1  0  0  0  0
 37 84  2  0  0  0  0
 38 71  1  0  0  0  0
 38 73  1  0  0  0  0
 38 85  2  0  0  0  0
 39 42  1  0  0  0  0
 40 51  1  0  0  0  0
 41 72  1  0  0  0  0
 42 44  1  0  0  0  0
 43 47  1  0  0  0  0
 43 48  1  0  0  0  0
 44 50  1  0  0  0  0
 45 46  1  0  0  0  0
 45 53  1  0  0  0  0
 46 53  1  0  0  0  0
 47 54  1  0  0  0  0
 48 73  1  0  0  0  0
 49 54  1  0  0  0  0
 49 73  1  0  0  0  0
 50 76  1  0  0  0  0
 51 72  1  0  0  0  0
 52 55  1  0  0  0  0
 52 71  1  0  0  0  0
 53 55  1  0  0  0  0
 54 70  1  0  0  0  0
 55 57  1  0  0  0  0
 58 66  1  0  0  0  0
 59 67  1  0  0  0  0
 60 67  1  0  0  0  0
 61 67  1  0  0  0  0
 62 79  1  0  0  0  0
 63 64  1  0  0  0  0
 63 77  1  0  0  0  0
 64 87  1  0  0  0  0
 65 67  1  0  0  0  0
 65 78  1  0  0  0  0
 66 79  1  0  0  0  0
 68 70  1  0  0  0  0
M  CHG  1  79   1
M  ISO  4  38 100  64 101  71 100  87 101
M  END
> <Batch ID>
0179

> <Smiles>
CNC(C)C(=O)NC(C(=O)N1Cc2cc([101O:1][101CH2:1]CNC(=O)C3[100N:0]([100C:0](=O)N4CCCC(n5nc(-c6ccc(Oc7ccc(F)cc7F)cc6)c(C(N)=O)c5N)C4)c4nc(C)ccc4C3(C)C3CC3)ccc2CC1C(=O)NC1CCCc2ccccc21)C(C)(C)C

> <Shape>
0.265

> <Color>
0.045

> <Negative vol penalty>
0.000

$$$$

  -OEChem-04052322573D

 81 90  0     1  0  0  0  0  0999 V2000
  -27.0869  -35.1833   16.3913 C   0  0  0  0  0  0  0  0  0  0  0  0
  -27.3959  -33.8845   16.0002 C   0  0  0  0  0  0  0  0  0  0  0  0
  -22.6777  -16.1074   21.3561 C   0  0  0  0  0  0  0  0  0  0  0  0
  -22.0677  -14.9232   19.3406 C   0  0  0  0  0  0  0  0  0  0  0  0
  -27.0948  -35.5236   17.7434 C   0  0  0  0  0  0  0  0  0  0  0  0
  -27.7141  -32.9253   16.9611 C   0  0  0  0  0  0  0  0  0  0  0  0
  -27.0995  -25.9076   18.2613 C   0  0  0  0  0  0  0  0  0  0  0  0
  -32.1766  -20.6505   20.7523 C   0  0  0  0  0  0  0  0  0  0  0  0
  -21.5314  -16.8937   21.2411 C   0  0  0  0  0  0  0  0  0  0  0  0
  -20.9213  -15.7095   19.2256 C   0  0  0  0  0  0  0  0  0  0  0  0
  -27.8769  -24.8056   18.6149 C   0  0  0  0  0  0  0  0  0  0  0  0
  -20.5165  -19.5686   19.4413 C   0  0  0  0  0  0  0  0  0  0  0  0
  -20.6515  -20.9427   19.6395 C   0  0  0  0  0  0  0  0  0  0  0  0
  -31.4761  -21.7290   20.2268 C   0  0  0  0  0  0  0  0  0  0  0  0
  -27.7816  -25.4876   20.9268 C   0  0  0  0  0  0  0  0  0  0  0  0
  -19.0868  -20.8314   21.4771 C   0  0  0  0  0  0  0  0  0  0  0  0
  -22.9459  -15.1222   20.4058 C   0  0  0  0  0  0  0  0  0  0  0  0
  -24.2563  -13.0847   21.2053 C   0  0  0  0  0  0  0  0  0  0  0  0
  -27.4039  -34.5657   18.7219 C   0  0  0  0  0  0  0  0  0  0  0  0
  -26.6657  -26.8154   19.2382 C   0  0  0  0  0  0  0  0  0  0  0  0
  -27.7275  -33.2534   18.3274 C   0  0  0  0  0  0  0  0  0  0  0  0
  -31.5620  -19.4002   20.8560 C   0  0  0  0  0  0  0  0  0  0  0  0
  -26.9966  -26.5989   20.5834 C   0  0  0  0  0  0  0  0  0  0  0  0
  -20.6532  -16.6947   20.1759 C   0  0  0  0  0  0  0  0  0  0  0  0
  -28.2205  -24.5970   19.9473 C   0  0  0  0  0  0  0  0  0  0  0  0
  -19.6666  -18.8259   20.2610 C   0  0  0  0  0  0  0  0  0  0  0  0
  -19.9367  -21.5741   20.6574 C   0  0  0  0  0  0  0  0  0  0  0  0
  -18.9519  -19.4573   21.2789 C   0  0  0  0  0  0  0  0  0  0  0  0
  -24.1302  -14.3100   20.5238 C   0  0  0  0  0  0  0  0  0  0  0  0
  -30.2468  -19.2779   20.3946 C   0  0  0  0  0  0  0  0  0  0  0  0
  -30.1745  -21.5138   19.8122 C   0  0  0  0  0  0  0  0  0  0  0  0
  -25.5681  -12.7222   21.0203 C   0  0  0  0  0  0  0  0  0  0  0  0
  -23.2753  -12.3406   21.9400 C   0  0  0  0  0  0  0  0  0  0  0  0
  -27.1294  -29.9119   19.7866 C   0  0  0  0  0  0  0  0  0  0  0  0
  -24.9358  -29.4273   22.1266 C   0  0  0  0  0  0  0  0  0  0  0  0
  -23.4027  -27.2424   24.2532 C   0  0  0  0  0  0  0  0  0  0  0  0
  -30.5415  -15.6993   19.9516 C   0  0  0  0  0  0  0  0  0  0  0  0
  -27.4458  -34.9924   20.1679 C   0  0  0  0  0  0  0  0  0  0  0  0
  -25.8054  -27.9846   18.8440 C   0  0  0  0  0  0  0  0  0  0  0  0
  -32.3227  -18.2187   21.3930 C   0  0  0  0  0  0  0  0  0  0  0  0
  -26.5390  -27.5328   21.6729 C   0  0  0  0  0  0  0  0  0  0  0  0
  -29.5111  -17.9613   20.4780 C   0  0  0  0  0  0  0  0  0  0  0  0
  -27.4280  -33.8230   21.1489 C   0  0  0  0  0  0  0  0  0  0  0  0
  -29.1974  -13.1980   17.9533 C   0  0  0  0  0  0  0  0  0  0  0  0
  -28.4211  -32.7488   20.7170 C   0  0  0  0  0  0  0  0  0  0  0  0
  -27.7542  -13.0745   18.4398 C   0  0  0  0  0  0  0  0  0  0  0  0
  -31.3900  -17.0880   21.8155 C   0  0  0  0  0  0  0  0  0  0  0  0
  -29.6306  -14.6582   17.8993 C   0  0  0  0  0  0  0  0  0  0  0  0
  -28.0529  -15.2606   19.7078 C   0  0  0  0  0  0  0  0  0  0  0  0
  -28.0537  -32.1787   19.3416 C   0  0  1  0  0  0  0  0  0  0  0  0
  -25.8500  -29.1268   19.8543 C   0  0  1  0  0  0  0  0  0  0  0  0
  -27.5615  -13.8005   19.7826 C   0  0  1  0  0  0  0  0  0  0  0  0
  -21.6780  -27.1474   26.0736 C   0  0  0  0  0  0  0  0  0  0  0  0
  -26.9348  -30.6497   24.0809 C   0  0  0  0  0  0  0  0  0  0  0  0
  -25.5908  -29.6768   25.9559 C   0  0  0  0  0  0  0  0  0  0  0  0
  -24.5636  -31.3632   24.4314 C   0  0  0  0  0  0  0  0  0  0  0  0
  -21.6932  -25.3947   22.6967 C   0  0  0  0  0  0  0  0  0  0  0  0
  -29.3901  -22.6492   19.2446 C   0  0  0  0  0  0  0  0  0  1  0  0
  -24.9944  -29.0220   23.5796 C   0  0  1  0  0  0  0  0  0  0  0  0
  -21.9378  -27.0159   24.5810 C   0  0  2  0  0  0  0  0  0  0  0  0
  -25.5313  -30.1612   24.4914 C   0  0  0  0  0  0  0  0  0  0  0  0
  -25.2710  -14.7000   19.9488 N   0  0  0  0  0  0  0  0  0  0  0  0
  -29.5447  -20.3204   19.8839 N   0  0  0  0  0  0  0  0  0  0  0  0
  -26.1264  -13.7140   20.2687 N   0  0  0  0  0  0  0  0  0  0  0  0
  -25.7052  -28.6649   21.2363 N   0  0  0  0  0  0  0  0  0  0  0  0
  -30.4015  -16.8293   20.7709 N   0  0  0  0  0  0  0  0  0  0  0  0
  -29.4278  -15.3192   19.1886 N   0  0  0  0  0  0  0  0  0  0  0  0
  -26.2870  -11.6552   21.4288 N   0  0  0  0  0  0  0  0  0  0  0  0
  -21.9755  -12.8568   22.0310 N   0  0  0  0  0  0  0  0  0  0  0  0
  -26.9559  -31.2431   19.4592 N   0  0  0  0  0  0  0  0  0  0  0  0
  -23.6558  -28.5583   23.9284 N   0  0  0  0  0  0  0  0  0  0  0  0
  -21.5149  -25.6539   24.1486 N   0  3  0  0  0  0  0  0  0  0  0  0
  -23.5477  -11.2585   22.5129 O   0  0  0  0  0  0  0  0  0  0  0  0
  -28.1949  -29.3517   20.0159 O   0  0  0  0  0  0  0  0  0  0  0  0
  -24.2277  -30.3806   21.7928 O   0  0  0  0  0  0  0  0  0  0  0  0
  -24.2394  -26.3427   24.2859 O   0  0  0  0  0  0  0  0  0  0  0  0
  -31.6056  -15.0696   19.8984 O   0  0  0  0  0  0  0  0  0  0  0  0
  -19.5343  -17.4617   20.0635 O   0  0  0  0  0  0  0  0  0  0  0  0
  -28.9850  -23.5150   20.2975 O   0  0  0  0  0  0  0  0  0  1  0  0
  -20.0676  -22.8934   20.8486 F   0  0  0  0  0  0  0  0  0  0  0  0
  -18.1348  -18.7488   22.0703 F   0  0  0  0  0  0  0  0  0  0  0  0
  1  2  1  0  0  0  0
  1  5  2  0  0  0  0
  2  6  2  0  0  0  0
  3  9  2  0  0  0  0
  3 17  1  0  0  0  0
  4 10  1  0  0  0  0
  4 17  2  0  0  0  0
  5 19  1  0  0  0  0
  6 21  1  0  0  0  0
  7 11  2  0  0  0  0
  7 20  1  0  0  0  0
  8 14  2  0  0  0  0
  8 22  1  0  0  0  0
  9 24  1  0  0  0  0
 10 24  2  0  0  0  0
 11 25  1  0  0  0  0
 12 13  2  0  0  0  0
 12 26  1  0  0  0  0
 13 27  1  0  0  0  0
 14 31  1  0  0  0  0
 15 23  1  0  0  0  0
 15 25  2  0  0  0  0
 16 27  2  0  0  0  0
 16 28  1  0  0  0  0
 17 29  1  0  0  0  0
 18 29  1  0  0  0  0
 18 32  2  0  0  0  0
 18 33  1  0  0  0  0
 19 21  2  0  0  0  0
 19 38  1  0  0  0  0
 20 23  2  0  0  0  0
 20 39  1  0  0  0  0
 21 50  1  0  0  0  0
 22 30  2  0  0  0  0
 22 40  1  0  0  0  0
 23 41  1  0  0  0  0
 24 78  1  0  0  0  0
 25 79  1  0  0  0  0
 26 28  2  0  0  0  0
 26 78  1  0  0  0  0
 27 80  1  0  0  0  0
 28 81  1  0  0  0  0
 29 62  2  0  0  0  0
 30 42  1  0  0  0  0
 30 63  1  0  0  0  0
 31 58  1  0  0  0  0
 31 63  2  0  0  0  0
 32 64  1  0  0  0  0
 32 68  1  0  0  0  0
 33 69  1  0  0  0  0
 33 73  2  0  0  0  0
 34 51  1  0  0  0  0
 34 70  1  0  0  0  0
 34 74  2  0  0  0  0
 35 59  1  0  0  0  0
 35 65  1  0  0  0  0
 35 75  2  0  0  0  0
 36 60  1  0  0  0  0
 36 71  1  0  0  0  0
 36 76  2  0  0  0  0
 37 66  1  0  0  0  0
 37 67  1  0  0  0  0
 37 77  2  0  0  0  0
 38 43  1  0  0  0  0
 39 51  1  0  0  0  0
 40 47  1  0  0  0  0
 41 65  1  0  0  0  0
 42 66  1  0  0  0  0
 43 45  1  0  0  0  0
 44 46  1  0  0  0  0
 44 48  1  0  0  0  0
 45 50  1  0  0  0  0
 46 52  1  0  0  0  0
 47 66  1  0  0  0  0
 48 67  1  0  0  0  0
 49 52  1  0  0  0  0
 49 67  1  0  0  0  0
 50 70  1  0  0  0  0
 51 65  1  0  0  0  0
 52 64  1  0  0  0  0
 53 60  1  0  0  0  0
 54 61  1  0  0  0  0
 55 61  1  0  0  0  0
 56 61  1  0  0  0  0
 57 72  1  0  0  0  0
 58 79  1  0  0  0  0
 59 61  1  0  0  0  0
 59 71  1  0  0  0  0
 60 72  1  0  0  0  0
 62 64  1  0  0  0  0
M  CHG  1  72   1
M  ISO  4  37 100  58 101  66 100  79 101
M  END
> <Batch ID>
0179

> <Smiles>
CNC(C)C(=O)NC(C(=O)N1Cc2cc([101O:1][101CH2:1]c3ccc4c(n3)C[100N:0]([100C:0](=O)N3CCCC(n5nc(-c6ccc(Oc7ccc(F)cc7F)cc6)c(C(N)=O)c5N)C3)CC4)ccc2CC1C(=O)NC1CCCc2ccccc21)C(C)(C)C

> <Shape>
0.211

> <Color>
0.103

> <Negative vol penalty>
0.000

$$$$

  -OEChem-04052322573D

 84 93  0     1  0  0  0  0  0999 V2000
  -20.3911  -32.3163   14.4868 C   0  0  0  0  0  0  0  0  0  0  0  0
  -21.0655  -31.1629   14.8744 C   0  0  0  0  0  0  0  0  0  0  0  0
  -24.4731   -9.2962   21.6214 C   0  0  0  0  0  0  0  0  0  0  0  0
  -22.7878  -10.0961   20.0862 C   0  0  0  0  0  0  0  0  0  0  0  0
  -20.8853  -33.5677   14.8527 C   0  0  0  0  0  0  0  0  0  0  0  0
  -22.2352  -31.2602   15.6273 C   0  0  0  0  0  0  0  0  0  0  0  0
  -24.1361  -27.4063   19.9907 C   0  0  0  0  0  0  0  0  0  0  0  0
  -23.6754   -8.1922   21.9220 C   0  0  0  0  0  0  0  0  0  0  0  0
  -21.9900   -8.9920   20.3867 C   0  0  0  0  0  0  0  0  0  0  0  0
  -25.0501  -26.3535   19.9792 C   0  0  0  0  0  0  0  0  0  0  0  0
  -20.9722   -7.5203   23.8366 C   0  0  0  0  0  0  0  0  0  0  0  0
  -20.8336   -7.1682   25.1791 C   0  0  0  0  0  0  0  0  0  0  0  0
  -26.7635  -27.8401   20.8001 C   0  0  0  0  0  0  0  0  0  0  0  0
  -21.7856   -4.9981   24.7082 C   0  0  0  0  0  0  0  0  0  0  0  0
  -24.0293  -10.2482   20.7035 C   0  0  0  0  0  0  0  0  0  0  0  0
  -25.8231  -11.4861   19.3779 C   0  0  0  0  0  0  0  0  0  0  0  0
  -22.0563  -33.6800   15.6187 C   0  0  0  0  0  0  0  0  0  0  0  0
  -24.5324  -28.6885   20.3973 C   0  0  0  0  0  0  0  0  0  0  0  0
  -22.7462  -32.5143   16.0027 C   0  0  0  0  0  0  0  0  0  0  0  0
  -25.8519  -28.9068   20.8183 C   0  0  0  0  0  0  0  0  0  0  0  0
  -22.4339   -8.0401   21.3046 C   0  0  0  0  0  0  0  0  0  0  0  0
  -26.3648  -26.5710   20.3812 C   0  0  0  0  0  0  0  0  0  0  0  0
  -21.5175   -6.6114   22.9299 C   0  0  0  0  0  0  0  0  0  0  0  0
  -21.2403   -5.9071   25.6149 C   0  0  0  0  0  0  0  0  0  0  0  0
  -21.9243   -5.3503   23.3657 C   0  0  0  0  0  0  0  0  0  0  0  0
  -24.8526  -11.3891   20.3930 C   0  0  0  0  0  0  0  0  0  0  0  0
  -26.3186  -12.7616   19.4972 C   0  0  0  0  0  0  0  0  0  0  0  0
  -29.8148  -22.4256   19.2162 C   0  0  0  0  0  0  0  0  0  0  0  0
  -27.9004  -23.2756   20.0220 C   0  0  0  0  0  0  0  0  0  0  0  0
  -28.8777  -21.5376   21.0521 C   0  0  0  0  0  0  0  0  0  0  0  0
  -26.2395  -10.5105   18.4132 C   0  0  0  0  0  0  0  0  0  0  0  0
  -24.6730  -31.5408   19.0015 C   0  0  0  0  0  0  0  0  0  0  0  0
  -25.4725  -32.5291   21.9858 C   0  0  0  0  0  0  0  0  0  0  0  0
  -26.7672  -31.7505   25.0460 C   0  0  0  0  0  0  0  0  0  0  0  0
  -28.3348  -16.7448   22.7251 C   0  0  0  0  0  0  0  0  0  0  0  0
  -22.5778  -35.0559   15.9500 C   0  0  0  0  0  0  0  0  0  0  0  0
  -23.5276  -29.8073   20.4294 C   0  0  0  0  0  0  0  0  0  0  0  0
  -26.3224  -30.2600   21.2830 C   0  0  0  0  0  0  0  0  0  0  0  0
  -23.6187  -35.0602   17.0666 C   0  0  0  0  0  0  0  0  0  0  0  0
  -24.6860  -16.7043   22.1800 C   0  0  0  0  0  0  0  0  0  0  0  0
  -24.6559  -33.9662   16.8338 C   0  0  0  0  0  0  0  0  0  0  0  0
  -32.3369  -22.5538   18.6719 C   0  0  0  0  0  0  0  0  0  0  0  0
  -31.6863  -23.7132   17.9843 C   0  0  0  0  0  0  0  0  0  0  0  0
  -24.4872  -15.2950   21.6300 C   0  0  0  0  0  0  0  0  0  0  0  0
  -25.8146  -16.7647   23.2084 C   0  0  0  0  0  0  0  0  0  0  0  0
  -26.9078  -14.8052   22.1549 C   0  0  0  0  0  0  0  0  0  0  0  0
  -24.0046  -32.5780   16.8409 C   0  0  1  0  0  0  0  0  0  0  0  0
  -30.9100  -22.4415   18.2035 C   0  0  0  0  0  0  0  0  0  0  0  0
  -24.1705  -31.1896   20.3733 C   0  0  1  0  0  0  0  0  0  0  0  0
  -25.8091  -14.7346   21.0834 C   0  0  1  0  0  0  0  0  0  0  0  0
  -27.3281  -32.7762   27.2665 C   0  0  0  0  0  0  0  0  0  0  0  0
  -27.9418  -33.8337   20.7568 C   0  0  0  0  0  0  0  0  0  0  0  0
  -28.9147  -33.9977   23.0579 C   0  0  0  0  0  0  0  0  0  0  0  0
  -26.8013  -35.2045   22.5103 C   0  0  0  0  0  0  0  0  0  0  0  0
  -24.8947  -29.9600   26.4766 C   0  0  0  0  0  0  0  0  0  0  0  0
  -26.7825  -24.2726   19.9353 C   0  0  0  0  0  0  0  0  0  1  0  0
  -29.9246  -19.6049   22.2328 C   0  0  0  0  0  0  0  0  0  0  0  0
  -29.6589  -18.7130   23.4360 C   0  0  0  0  0  0  0  0  0  0  0  0
  -26.7653  -32.6878   22.7490 C   0  0  1  0  0  0  0  0  0  0  0  0
  -26.2745  -32.0419   26.4519 C   0  0  2  0  0  0  0  0  0  0  0  0
  -27.5977  -33.9057   22.2580 C   0  0  0  0  0  0  0  0  0  0  0  0
  -24.7370  -12.5134   21.1049 N   0  0  0  0  0  0  0  0  0  0  0  0
  -28.8498  -23.3489   19.0755 N   0  0  0  0  0  0  0  0  0  0  0  0
  -29.8949  -21.4907   20.1768 N   0  0  0  0  0  0  0  0  0  0  0  0
  -27.8480  -22.3993   21.0381 N   0  0  0  0  0  0  0  0  0  0  0  0
  -25.6413  -13.3288   20.5363 N   0  0  0  0  0  0  0  0  0  0  0  0
  -25.3042  -31.3233   21.2904 N   0  0  0  0  0  0  0  0  0  0  0  0
  -27.0536  -16.1654   22.6879 N   0  0  0  0  0  0  0  0  0  0  0  0
  -27.2631  -13.4420   18.8136 N   0  0  0  0  0  0  0  0  0  0  0  0
  -25.6267   -9.2501   18.4304 N   0  0  0  0  0  0  0  0  0  0  0  0
  -28.8922  -20.5836   22.0926 N   0  0  0  0  0  0  0  0  0  0  0  0
  -23.7316  -32.1547   18.1976 N   0  0  0  0  0  0  0  0  0  0  0  0
  -26.4018  -32.7427   24.1608 N   0  0  0  0  0  0  0  0  0  0  0  0
  -28.4153  -17.9992   23.3193 N   0  0  0  0  0  0  0  0  0  0  0  0
  -25.9365  -30.7726   27.1558 N   0  3  0  0  0  0  0  0  0  0  0  0
  -27.1401  -10.7439   17.5718 O   0  0  0  0  0  0  0  0  0  0  0  0
  -25.8296  -31.2758   18.6955 O   0  0  0  0  0  0  0  0  0  0  0  0
  -24.6394  -33.4385   22.0118 O   0  0  0  0  0  0  0  0  0  0  0  0
  -27.4149  -30.7453   24.7621 O   0  0  0  0  0  0  0  0  0  0  0  0
  -29.3370  -16.1843   22.2678 O   0  0  0  0  0  0  0  0  0  0  0  0
  -21.6553   -6.9628   21.5975 O   0  0  0  0  0  0  0  0  0  0  0  0
  -27.2591  -25.5454   20.3703 O   0  0  0  0  0  0  0  0  0  1  0  0
  -21.1085   -5.5696   26.9045 F   0  0  0  0  0  0  0  0  0  0  0  0
  -22.4499   -4.4733   22.4995 F   0  0  0  0  0  0  0  0  0  0  0  0
  1  2  1  0  0  0  0
  1  5  2  0  0  0  0
  2  6  2  0  0  0  0
  3  8  2  0  0  0  0
  3 15  1  0  0  0  0
  4  9  1  0  0  0  0
  4 15  2  0  0  0  0
  5 17  1  0  0  0  0
  6 19  1  0  0  0  0
  7 10  2  0  0  0  0
  7 18  1  0  0  0  0
  8 21  1  0  0  0  0
  9 21  2  0  0  0  0
 10 22  1  0  0  0  0
 11 12  2  0  0  0  0
 11 23  1  0  0  0  0
 12 24  1  0  0  0  0
 13 20  1  0  0  0  0
 13 22  2  0  0  0  0
 14 24  2  0  0  0  0
 14 25  1  0  0  0  0
 15 26  1  0  0  0  0
 16 26  1  0  0  0  0
 16 27  2  0  0  0  0
 16 31  1  0  0  0  0
 17 19  2  0  0  0  0
 17 36  1  0  0  0  0
 18 20  2  0  0  0  0
 18 37  1  0  0  0  0
 19 47  1  0  0  0  0
 20 38  1  0  0  0  0
 21 81  1  0  0  0  0
 22 82  1  0  0  0  0
 23 25  2  0  0  0  0
 23 81  1  0  0  0  0
 24 83  1  0  0  0  0
 25 84  1  0  0  0  0
 26 62  2  0  0  0  0
 27 66  1  0  0  0  0
 27 69  1  0  0  0  0
 28 48  1  0  0  0  0
 28 63  1  0  0  0  0
 28 64  2  0  0  0  0
 29 56  1  0  0  0  0
 29 63  2  0  0  0  0
 29 65  1  0  0  0  0
 30 64  1  0  0  0  0
 30 65  2  0  0  0  0
 30 71  1  0  0  0  0
 31 70  1  0  0  0  0
 31 76  2  0  0  0  0
 32 49  1  0  0  0  0
 32 72  1  0  0  0  0
 32 77  2  0  0  0  0
 33 59  1  0  0  0  0
 33 67  1  0  0  0  0
 33 78  2  0  0  0  0
 34 60  1  0  0  0  0
 34 73  1  0  0  0  0
 34 79  2  0  0  0  0
 35 68  1  0  0  0  0
 35 74  1  0  0  0  0
 35 80  2  0  0  0  0
 36 39  1  0  0  0  0
 37 49  1  0  0  0  0
 38 67  1  0  0  0  0
 39 41  1  0  0  0  0
 40 44  1  0  0  0  0
 40 45  1  0  0  0  0
 41 47  1  0  0  0  0
 42 43  1  0  0  0  0
 42 48  1  0  0  0  0
 43 48  1  0  0  0  0
 44 50  1  0  0  0  0
 45 68  1  0  0  0  0
 46 50  1  0  0  0  0
 46 68  1  0  0  0  0
 47 72  1  0  0  0  0
 49 67  1  0  0  0  0
 50 66  1  0  0  0  0
 51 60  1  0  0  0  0
 52 61  1  0  0  0  0
 53 61  1  0  0  0  0
 54 61  1  0  0  0  0
 55 75  1  0  0  0  0
 56 82  1  0  0  0  0
 57 58  1  0  0  0  0
 57 71  1  0  0  0  0
 58 74  1  0  0  0  0
 59 61  1  0  0  0  0
 59 73  1  0  0  0  0
 60 75  1  0  0  0  0
 62 66  1  0  0  0  0
M  CHG  1  75   1
M  ISO  4  35 100  56 101  74 100  82 101
M  END
> <Batch ID>
0179

> <Smiles>
CNC(C)C(=O)NC(C(=O)N1Cc2cc([101O:1][101CH2:1]c3nc(NCC[100NH:0][100C:0](=O)N4CCCC(n5nc(-c6ccc(Oc7ccc(F)cc7F)cc6)c(C(N)=O)c5N)C4)nc(C4CC4)n3)ccc2CC1C(=O)NC1CCCc2ccccc21)C(C)(C)C

> <Shape>
0.295

> <Color>
0.105

> <Negative vol penalty>
0.000

$$$$

  -OEChem-04052322573D

 83 92  0     1  0  0  0  0  0999 V2000
  -28.3911  -37.8945   21.3584 C   0  0  0  0  0  0  0  0  0  0  0  0
  -28.5044  -36.8250   20.4760 C   0  0  0  0  0  0  0  0  0  0  0  0
  -24.6283   -8.8728   21.9100 C   0  0  0  0  0  0  0  0  0  0  0  0
  -24.5429   -8.1074   19.6201 C   0  0  0  0  0  0  0  0  0  0  0  0
  -28.1396  -37.6585   22.7093 C   0  0  0  0  0  0  0  0  0  0  0  0
  -28.3675  -35.5187   20.9442 C   0  0  0  0  0  0  0  0  0  0  0  0
  -25.9832  -29.0785   18.9058 C   0  0  0  0  0  0  0  0  0  0  0  0
  -23.4391   -8.1960   22.1807 C   0  0  0  0  0  0  0  0  0  0  0  0
  -23.3536   -7.4305   19.8907 C   0  0  0  0  0  0  0  0  0  0  0  0
  -26.3991  -27.7498   18.8320 C   0  0  0  0  0  0  0  0  0  0  0  0
  -22.4686   -5.0180   22.8064 C   0  0  0  0  0  0  0  0  0  0  0  0
  -22.4029   -4.2667   23.9798 C   0  0  0  0  0  0  0  0  0  0  0  0
  -26.9311  -21.2893   19.8788 C   0  0  0  0  0  0  0  0  0  0  0  0
  -25.8873  -27.4658   21.1722 C   0  0  0  0  0  0  0  0  0  0  0  0
  -28.4680  -23.1414   21.2897 C   0  0  0  0  0  0  0  0  0  0  0  0
  -20.5508   -5.6183   24.7415 C   0  0  0  0  0  0  0  0  0  0  0  0
  -25.1802   -8.8285   20.6297 C   0  0  0  0  0  0  0  0  0  0  0  0
  -27.7183   -9.0264   20.4679 C   0  0  0  0  0  0  0  0  0  0  0  0
  -27.9900  -36.3491   23.1927 C   0  0  0  0  0  0  0  0  0  0  0  0
  -25.5257  -29.6147   20.1181 C   0  0  0  0  0  0  0  0  0  0  0  0
  -28.1152  -35.2649   22.3031 C   0  0  0  0  0  0  0  0  0  0  0  0
  -28.1976  -20.9348   20.3434 C   0  0  0  0  0  0  0  0  0  0  0  0
  -25.4637  -28.8009   21.2582 C   0  0  0  0  0  0  0  0  0  0  0  0
  -26.4330  -22.5698   20.1196 C   0  0  0  0  0  0  0  0  0  0  0  0
  -28.9661  -21.8608   21.0489 C   0  0  0  0  0  0  0  0  0  0  0  0
  -27.2015  -23.4958   20.8250 C   0  0  0  0  0  0  0  0  0  0  0  0
  -22.8018   -7.4748   21.1710 C   0  0  0  0  0  0  0  0  0  0  0  0
  -26.3540  -26.9441   19.9659 C   0  0  0  0  0  0  0  0  0  0  0  0
  -21.5754   -6.0695   22.6006 C   0  0  0  0  0  0  0  0  0  0  0  0
  -21.4440   -4.5668   24.9473 C   0  0  0  0  0  0  0  0  0  0  0  0
  -20.6166   -6.3697   23.5682 C   0  0  0  0  0  0  0  0  0  0  0  0
  -26.4083   -9.5280   20.3494 C   0  0  0  0  0  0  0  0  0  0  0  0
  -28.5224  -10.0729   20.0873 C   0  0  0  0  0  0  0  0  0  0  0  0
  -28.1682   -7.7305   20.8848 C   0  0  0  0  0  0  0  0  0  0  0  0
  -26.4852  -31.9595   22.0377 C   0  0  0  0  0  0  0  0  0  0  0  0
  -23.7343  -31.2698   23.6123 C   0  0  0  0  0  0  0  0  0  0  0  0
  -21.3010  -28.9871   24.3298 C   0  0  0  0  0  0  0  0  0  0  0  0
  -27.5153  -15.9435   20.2320 C   0  0  0  0  0  0  0  0  0  0  0  0
  -27.7660  -36.1416   24.6696 C   0  0  0  0  0  0  0  0  0  0  0  0
  -25.0554  -31.0423   20.1748 C   0  0  0  0  0  0  0  0  0  0  0  0
  -24.9616  -29.3228   22.5788 C   0  0  0  0  0  0  0  0  0  0  0  0
  -27.2617  -34.7438   25.0188 C   0  0  0  0  0  0  0  0  0  0  0  0
  -28.5764  -13.9506   17.3139 C   0  0  0  0  0  0  0  0  0  0  0  0
  -28.0799  -33.6833   24.2889 C   0  0  0  0  0  0  0  0  0  0  0  0
  -28.2026  -12.5428   17.7686 C   0  0  0  0  0  0  0  0  0  0  0  0
  -29.1748  -18.7131   21.2276 C   0  0  0  0  0  0  0  0  0  0  0  0
  -27.6040  -15.0023   17.8463 C   0  0  0  0  0  0  0  0  0  0  0  0
  -27.0630  -13.5525   19.7827 C   0  0  0  0  0  0  0  0  0  0  0  0
  -28.7115  -19.5594   20.0735 C   0  0  1  0  0  0  0  0  0  0  0  0
  -27.9483  -33.8346   22.7686 C   0  0  1  0  0  0  0  0  0  0  0  0
  -25.0920  -31.6280   21.5830 C   0  0  1  0  0  0  0  0  0  0  0  0
  -28.0575  -12.4870   19.2970 C   0  0  1  0  0  0  0  0  0  0  0  0
  -27.8933  -18.3731   20.5258 C   0  0  1  0  0  0  0  0  0  0  0  0
  -25.0742  -22.9267   19.6129 C   0  0  0  0  0  0  0  0  0  0  0  0
  -30.3248  -21.5054   21.5577 C   0  0  0  0  0  0  0  0  0  0  0  0
  -19.2034  -28.7015   25.6774 C   0  0  0  0  0  0  0  0  0  0  0  0
  -25.4061  -30.9765   26.1478 C   0  0  0  0  0  0  0  0  0  0  0  0
  -23.4697  -29.7922   27.2041 C   0  0  0  0  0  0  0  0  0  0  0  0
  -23.2276  -32.1627   26.4661 C   0  0  0  0  0  0  0  0  0  0  0  0
  -19.6735  -28.4940   21.9075 C   0  0  0  0  0  0  0  0  0  0  0  0
  -26.6869  -24.8787   21.0970 C   0  0  0  0  0  0  0  0  0  1  0  0
  -23.3484  -30.3299   24.7288 C   0  0  1  0  0  0  0  0  0  0  0  0
  -19.7868  -29.0951   24.3292 C   0  0  2  0  0  0  0  0  0  0  0  0
  -23.8743  -30.8057   26.1125 C   0  0  0  0  0  0  0  0  0  0  0  0
  -26.3774  -10.7946   19.9267 N   0  0  0  0  0  0  0  0  0  0  0  0
  -27.6780  -11.0978   19.7763 N   0  0  0  0  0  0  0  0  0  0  0  0
  -24.5189  -30.7269   22.5850 N   0  0  0  0  0  0  0  0  0  0  0  0
  -27.4303  -14.8906   19.3032 N   0  0  0  0  0  0  0  0  0  0  0  0
  -29.8622  -10.2072   19.9916 N   0  0  0  0  0  0  0  0  0  0  0  0
  -27.2089   -6.7730   21.2414 N   0  0  0  0  0  0  0  0  0  0  0  0
  -26.6827  -33.2988   22.3150 N   0  0  0  0  0  0  0  0  0  0  0  0
  -21.8984  -30.1856   24.6581 N   0  0  0  0  0  0  0  0  0  0  0  0
  -27.7836  -17.1999   19.7006 N   0  0  0  0  0  0  0  0  0  0  0  0
  -19.2042  -28.2035   23.2868 N   0  3  0  0  0  0  0  0  0  0  0  0
  -29.3855   -7.4357   20.9551 O   0  0  0  0  0  0  0  0  0  0  0  0
  -27.3188  -31.0662   22.1315 O   0  0  0  0  0  0  0  0  0  0  0  0
  -23.3477  -32.4407   23.6467 O   0  0  0  0  0  0  0  0  0  0  0  0
  -21.8944  -27.9429   24.0689 O   0  0  0  0  0  0  0  0  0  0  0  0
  -27.3582  -15.7793   21.4469 O   0  0  0  0  0  0  0  0  0  0  0  0
  -21.6414   -6.8140   21.4348 O   0  0  0  0  0  0  0  0  0  0  0  0
  -26.7600  -25.6471   19.8968 O   0  0  0  0  0  0  0  0  0  1  0  0
  -21.3800   -3.8443   26.0734 F   0  0  0  0  0  0  0  0  0  0  0  0
  -19.7551   -7.3779   23.3755 F   0  0  0  0  0  0  0  0  0  0  0  0
  1  2  1  0  0  0  0
  1  5  2  0  0  0  0
  2  6  2  0  0  0  0
  3  8  2  0  0  0  0
  3 17  1  0  0  0  0
  4  9  1  0  0  0  0
  4 17  2  0  0  0  0
  5 19  1  0  0  0  0
  6 21  1  0  0  0  0
  7 10  2  0  0  0  0
  7 20  1  0  0  0  0
  8 27  1  0  0  0  0
  9 27  2  0  0  0  0
 10 28  1  0  0  0  0
 11 12  2  0  0  0  0
 11 29  1  0  0  0  0
 12 30  1  0  0  0  0
 13 22  2  0  0  0  0
 13 24  1  0  0  0  0
 14 23  1  0  0  0  0
 14 28  2  0  0  0  0
 15 25  2  0  0  0  0
 15 26  1  0  0  0  0
 16 30  2  0  0  0  0
 16 31  1  0  0  0  0
 17 32  1  0  0  0  0
 18 32  1  0  0  0  0
 18 33  2  0  0  0  0
 18 34  1  0  0  0  0
 19 21  2  0  0  0  0
 19 39  1  0  0  0  0
 20 23  2  0  0  0  0
 20 40  1  0  0  0  0
 21 50  1  0  0  0  0
 22 25  1  0  0  0  0
 22 49  1  0  0  0  0
 23 41  1  0  0  0  0
 24 26  2  0  0  0  0
 24 54  1  0  0  0  0
 25 55  1  0  0  0  0
 26 61  1  0  0  0  0
 27 80  1  0  0  0  0
 28 81  1  0  0  0  0
 29 31  2  0  0  0  0
 29 80  1  0  0  0  0
 30 82  1  0  0  0  0
 31 83  1  0  0  0  0
 32 65  2  0  0  0  0
 33 66  1  0  0  0  0
 33 69  1  0  0  0  0
 34 70  1  0  0  0  0
 34 75  2  0  0  0  0
 35 51  1  0  0  0  0
 35 71  1  0  0  0  0
 35 76  2  0  0  0  0
 36 62  1  0  0  0  0
 36 67  1  0  0  0  0
 36 77  2  0  0  0  0
 37 63  1  0  0  0  0
 37 72  1  0  0  0  0
 37 78  2  0  0  0  0
 38 68  1  0  0  0  0
 38 73  1  0  0  0  0
 38 79  2  0  0  0  0
 39 42  1  0  0  0  0
 40 51  1  0  0  0  0
 41 67  1  0  0  0  0
 42 44  1  0  0  0  0
 43 45  1  0  0  0  0
 43 47  1  0  0  0  0
 44 50  1  0  0  0  0
 45 52  1  0  0  0  0
 46 49  1  0  0  0  0
 46 53  1  0  0  0  0
 47 68  1  0  0  0  0
 48 52  1  0  0  0  0
 48 68  1  0  0  0  0
 49 53  1  0  0  0  0
 50 71  1  0  0  0  0
 51 67  1  0  0  0  0
 52 66  1  0  0  0  0
 53 73  1  0  0  0  0
 56 63  1  0  0  0  0
 57 64  1  0  0  0  0
 58 64  1  0  0  0  0
 59 64  1  0  0  0  0
 60 74  1  0  0  0  0
 61 81  1  0  0  0  0
 62 64  1  0  0  0  0
 62 72  1  0  0  0  0
 63 74  1  0  0  0  0
 65 66  1  0  0  0  0
M  CHG  1  74   1
M  ISO  4  38 100  61 101  73 100  81 101
M  END
> <Batch ID>
0179

> <Smiles>
CNC(C)C(=O)NC(C(=O)N1Cc2cc([101O:1][101CH2:1]c3cc(C)c(C4CC4[100NH:0][100C:0](=O)N4CCCC(n5nc(-c6ccc(Oc7ccc(F)cc7F)cc6)c(C(N)=O)c5N)C4)cc3C)ccc2CC1C(=O)NC1CCCc2ccccc21)C(C)(C)C

> <Shape>
0.279

> <Color>
0.102

> <Negative vol penalty>
0.000

$$$$

  -OEChem-04052322573D

 83 92  0     1  0  0  0  0  0999 V2000
  -26.9830  -32.9639   17.7024 C   0  0  0  0  0  0  0  0  0  0  0  0
  -27.5270  -31.8132   18.2641 C   0  0  0  0  0  0  0  0  0  0  0  0
  -23.0674   -9.8379   19.9503 C   0  0  0  0  0  0  0  0  0  0  0  0
  -23.8380   -9.8591   22.2400 C   0  0  0  0  0  0  0  0  0  0  0  0
  -26.1468  -32.8674   16.5910 C   0  0  0  0  0  0  0  0  0  0  0  0
  -27.2341  -30.5653   17.7153 C   0  0  0  0  0  0  0  0  0  0  0  0
  -30.9666  -25.7212   17.3847 C   0  0  0  0  0  0  0  0  0  0  0  0
  -22.3336   -8.6801   20.2080 C   0  0  0  0  0  0  0  0  0  0  0  0
  -23.1041   -8.7013   22.4977 C   0  0  0  0  0  0  0  0  0  0  0  0
  -31.0914  -24.5777   18.1726 C   0  0  0  0  0  0  0  0  0  0  0  0
  -19.8849   -7.8812   23.1184 C   0  0  0  0  0  0  0  0  0  0  0  0
  -19.1338   -7.8399   24.2930 C   0  0  0  0  0  0  0  0  0  0  0  0
  -29.6835  -23.3691   16.6311 C   0  0  0  0  0  0  0  0  0  0  0  0
  -20.3934   -5.9146   25.0307 C   0  0  0  0  0  0  0  0  0  0  0  0
  -23.8197  -10.4274   20.9663 C   0  0  0  0  0  0  0  0  0  0  0  0
  -24.1418  -12.9546   20.8355 C   0  0  0  0  0  0  0  0  0  0  0  0
  -25.8512  -31.6185   16.0224 C   0  0  0  0  0  0  0  0  0  0  0  0
  -30.1891  -25.7001   16.2179 C   0  0  0  0  0  0  0  0  0  0  0  0
  -26.3921  -30.4519   16.5960 C   0  0  0  0  0  0  0  0  0  0  0  0
  -29.5525  -24.5129   15.8287 C   0  0  0  0  0  0  0  0  0  0  0  0
  -30.1102  -20.0088   19.1080 C   0  0  0  0  0  0  0  0  0  0  0  0
  -22.3518   -8.1118   21.4817 C   0  0  0  0  0  0  0  0  0  0  0  0
  -30.4475  -23.4023   17.7974 C   0  0  0  0  0  0  0  0  0  0  0  0
  -20.8903   -6.9392   22.8999 C   0  0  0  0  0  0  0  0  0  0  0  0
  -19.3880   -6.8566   25.2491 C   0  0  0  0  0  0  0  0  0  0  0  0
  -21.1445   -5.9560   23.8560 C   0  0  0  0  0  0  0  0  0  0  0  0
  -24.5785  -11.6231   20.7006 C   0  0  0  0  0  0  0  0  0  0  0  0
  -29.1385  -19.6020   19.9994 C   0  0  0  0  0  0  0  0  0  0  0  0
  -31.3101  -19.3315   19.1826 C   0  0  0  0  0  0  0  0  0  0  0  0
  -25.2265  -13.7110   20.4643 C   0  0  0  0  0  0  0  0  0  0  0  0
  -30.5271  -18.0283   20.8724 C   0  0  0  0  0  0  0  0  0  0  0  0
  -22.8694  -13.4623   21.2585 C   0  0  0  0  0  0  0  0  0  0  0  0
  -27.5866  -27.2338   15.2286 C   0  0  0  0  0  0  0  0  0  0  0  0
  -28.2059  -25.6852   12.4464 C   0  0  0  0  0  0  0  0  0  0  0  0
  -29.6696  -23.0368   10.8684 C   0  0  0  0  0  0  0  0  0  0  0  0
  -30.7031  -14.7723   20.6230 C   0  0  0  0  0  0  0  0  0  0  0  0
  -24.9043  -31.5604   14.8500 C   0  0  0  0  0  0  0  0  0  0  0  0
  -30.0862  -26.9346   15.3647 C   0  0  0  0  0  0  0  0  0  0  0  0
  -28.7227  -24.4324   14.5744 C   0  0  0  0  0  0  0  0  0  0  0  0
  -24.9439  -30.2313   14.1002 C   0  0  0  0  0  0  0  0  0  0  0  0
  -29.5725  -12.3705   18.2504 C   0  0  0  0  0  0  0  0  0  0  0  0
  -24.9011  -29.0637   15.0809 C   0  0  0  0  0  0  0  0  0  0  0  0
  -26.6082  -19.5114   20.5129 C   0  0  0  0  0  0  0  0  0  0  0  0
  -26.7429  -19.7901   19.0485 C   0  0  0  0  0  0  0  0  0  0  0  0
  -28.1394  -12.0675   18.6912 C   0  0  0  0  0  0  0  0  0  0  0  0
  -30.4936  -12.6027   19.4461 C   0  0  0  0  0  0  0  0  0  0  0  0
  -28.5929  -13.3244   20.8390 C   0  0  0  0  0  0  0  0  0  0  0  0
  -26.1178  -29.0821   16.0141 C   0  0  1  0  0  0  0  0  0  0  0  0
  -27.8025  -20.2713   20.0025 C   0  0  0  0  0  0  0  0  0  0  0  0
  -28.8504  -26.9414   14.4702 C   0  0  1  0  0  0  0  0  0  0  0  0
  -27.6145  -13.1381   19.6666 C   0  0  2  0  0  0  0  0  0  0  0  0
  -32.4367  -19.6837   18.2675 C   0  0  0  0  0  0  0  0  0  0  0  0
  -29.9721  -22.0208    8.5938 C   0  0  0  0  0  0  0  0  0  0  0  0
  -25.3384  -24.6459   12.5319 C   0  0  0  0  0  0  0  0  0  0  0  0
  -25.9816  -22.9342   10.8218 C   0  0  0  0  0  0  0  0  0  0  0  0
  -26.1212  -25.3623   10.2673 C   0  0  0  0  0  0  0  0  0  0  0  0
  -32.6126  -23.3165   11.0073 C   0  0  0  0  0  0  0  0  0  0  0  0
  -29.8806  -21.1154   18.1210 C   0  0  0  0  0  0  0  0  0  1  0  0
  -30.7584  -16.9279   21.8517 C   0  0  0  0  0  0  0  0  0  0  0  0
  -27.8123  -24.3539   11.8533 C   0  0  1  0  0  0  0  0  0  0  0  0
  -30.5545  -22.9614    9.6373 C   0  0  2  0  0  0  0  0  0  0  0  0
  -26.3274  -24.3258   11.3933 C   0  0  0  0  0  0  0  0  0  0  0  0
  -25.8421  -11.5354   20.2767 N   0  0  0  0  0  0  0  0  0  0  0  0
  -29.3136  -18.6114   20.8986 N   0  0  0  0  0  0  0  0  0  0  0  0
  -31.5540  -18.3325   20.0561 N   0  0  0  0  0  0  0  0  0  0  0  0
  -26.2086  -12.8213   20.1419 N   0  0  0  0  0  0  0  0  0  0  0  0
  -28.6474  -25.6677   13.7770 N   0  0  0  0  0  0  0  0  0  0  0  0
  -29.9394  -13.6303   20.3309 N   0  0  0  0  0  0  0  0  0  0  0  0
  -25.4264  -15.0438   20.3854 N   0  0  0  0  0  0  0  0  0  0  0  0
  -21.8660  -12.5468   21.6038 N   0  0  0  0  0  0  0  0  0  0  0  0
  -27.2887  -28.5795   15.3280 N   0  0  0  0  0  0  0  0  0  0  0  0
  -28.7727  -24.0811   10.7895 N   0  0  0  0  0  0  0  0  0  0  0  0
  -30.1009  -15.6997   21.4645 N   0  0  0  0  0  0  0  0  0  0  0  0
  -31.9132  -22.4718   10.0052 N   0  3  0  0  0  0  0  0  0  0  0  0
  -22.6241  -14.6913   21.3124 O   0  0  0  0  0  0  0  0  0  0  0  0
  -26.9296  -26.3071   15.6881 O   0  0  0  0  0  0  0  0  0  0  0  0
  -28.1313  -26.7022   11.7522 O   0  0  0  0  0  0  0  0  0  0  0  0
  -29.7620  -22.2459   11.8046 O   0  0  0  0  0  0  0  0  0  0  0  0
  -31.8356  -14.9547   20.1634 O   0  0  0  0  0  0  0  0  0  0  0  0
  -21.6356   -6.9821   21.7336 O   0  0  0  0  0  0  0  0  0  0  0  0
  -30.5672  -22.2850   18.5649 O   0  0  0  0  0  0  0  0  0  1  0  0
  -18.6677   -6.8179   26.3778 F   0  0  0  0  0  0  0  0  0  0  0  0
  -22.1098   -5.0490   23.6522 F   0  0  0  0  0  0  0  0  0  0  0  0
  1  2  1  0  0  0  0
  1  5  2  0  0  0  0
  2  6  2  0  0  0  0
  3  8  2  0  0  0  0
  3 15  1  0  0  0  0
  4  9  1  0  0  0  0
  4 15  2  0  0  0  0
  5 17  1  0  0  0  0
  6 19  1  0  0  0  0
  7 10  2  0  0  0  0
  7 18  1  0  0  0  0
  8 22  1  0  0  0  0
  9 22  2  0  0  0  0
 10 23  1  0  0  0  0
 11 12  2  0  0  0  0
 11 24  1  0  0  0  0
 12 25  1  0  0  0  0
 13 20  1  0  0  0  0
 13 23  2  0  0  0  0
 14 25  2  0  0  0  0
 14 26  1  0  0  0  0
 15 27  1  0  0  0  0
 16 27  1  0  0  0  0
 16 30  2  0  0  0  0
 16 32  1  0  0  0  0
 17 19  2  0  0  0  0
 17 37  1  0  0  0  0
 18 20  2  0  0  0  0
 18 38  1  0  0  0  0
 19 48  1  0  0  0  0
 20 39  1  0  0  0  0
 21 28  2  0  0  0  0
 21 29  1  0  0  0  0
 21 58  1  0  0  0  0
 22 80  1  0  0  0  0
 23 81  1  0  0  0  0
 24 26  2  0  0  0  0
 24 80  1  0  0  0  0
 25 82  1  0  0  0  0
 26 83  1  0  0  0  0
 27 63  2  0  0  0  0
 28 49  1  0  0  0  0
 28 64  1  0  0  0  0
 29 52  1  0  0  0  0
 29 65  2  0  0  0  0
 30 66  1  0  0  0  0
 30 69  1  0  0  0  0
 31 59  1  0  0  0  0
 31 64  2  0  0  0  0
 31 65  1  0  0  0  0
 32 70  1  0  0  0  0
 32 75  2  0  0  0  0
 33 50  1  0  0  0  0
 33 71  1  0  0  0  0
 33 76  2  0  0  0  0
 34 60  1  0  0  0  0
 34 67  1  0  0  0  0
 34 77  2  0  0  0  0
 35 61  1  0  0  0  0
 35 72  1  0  0  0  0
 35 78  2  0  0  0  0
 36 68  1  0  0  0  0
 36 73  1  0  0  0  0
 36 79  2  0  0  0  0
 37 40  1  0  0  0  0
 38 50  1  0  0  0  0
 39 67  1  0  0  0  0
 40 42  1  0  0  0  0
 41 45  1  0  0  0  0
 41 46  1  0  0  0  0
 42 48  1  0  0  0  0
 43 44  1  0  0  0  0
 43 49  1  0  0  0  0
 44 49  1  0  0  0  0
 45 51  1  0  0  0  0
 46 68  1  0  0  0  0
 47 51  1  0  0  0  0
 47 68  1  0  0  0  0
 48 71  1  0  0  0  0
 50 67  1  0  0  0  0
 51 66  1  0  0  0  0
 53 61  1  0  0  0  0
 54 62  1  0  0  0  0
 55 62  1  0  0  0  0
 56 62  1  0  0  0  0
 57 74  1  0  0  0  0
 58 81  1  0  0  0  0
 59 73  1  0  0  0  0
 60 62  1  0  0  0  0
 60 72  1  0  0  0  0
 61 74  1  0  0  0  0
 63 66  1  0  0  0  0
M  CHG  1  74   1
M  ISO  4  36 100  58 101  73 100  81 101
M  END
> <Batch ID>
0179

> <Smiles>
CNC(C)C(=O)NC(C(=O)N1Cc2cc([101O:1][101CH2:1]c3c(C)nc(C[100NH:0][100C:0](=O)N4CCCC(n5nc(-c6ccc(Oc7ccc(F)cc7F)cc6)c(C(N)=O)c5N)C4)nc3C3CC3)ccc2CC1C(=O)NC1CCCc2ccccc21)C(C)(C)C

> <Shape>
0.231

> <Color>
0.198

> <Negative vol penalty>
0.000

$$$$

  -OEChem-04052322573D

 77 85  0     1  0  0  0  0  0999 V2000
  -30.7027  -26.2456   16.9521 C   0  0  0  0  0  0  0  0  0  0  0  0
  -29.3215  -26.1278   17.0700 C   0  0  0  0  0  0  0  0  0  0  0  0
  -26.6319  -19.7837   20.5869 C   0  0  0  0  0  0  0  0  0  0  0  0
  -25.6544  -20.8104   18.6305 C   0  0  0  0  0  0  0  0  0  0  0  0
  -31.4541  -26.7264   18.0236 C   0  0  0  0  0  0  0  0  0  0  0  0
  -28.6910  -26.4897   18.2599 C   0  0  0  0  0  0  0  0  0  0  0  0
  -23.1544  -29.0361   18.8658 C   0  0  0  0  0  0  0  0  0  0  0  0
  -27.6000  -19.1785   19.7856 C   0  0  0  0  0  0  0  0  0  0  0  0
  -26.6225  -20.2052   17.8292 C   0  0  0  0  0  0  0  0  0  0  0  0
  -21.9039  -28.5005   19.1713 C   0  0  0  0  0  0  0  0  0  0  0  0
  -30.1129  -17.0745   18.2101 C   0  0  0  0  0  0  0  0  0  0  0  0
  -30.3983  -15.7286   18.4398 C   0  0  0  0  0  0  0  0  0  0  0  0
  -22.2263  -29.0854   21.4893 C   0  0  0  0  0  0  0  0  0  0  0  0
  -28.1009  -15.1588   17.9552 C   0  0  0  0  0  0  0  0  0  0  0  0
  -25.6590  -20.5996   20.0094 C   0  0  0  0  0  0  0  0  0  0  0  0
  -24.7360  -22.4849   21.4590 C   0  0  0  0  0  0  0  0  0  0  0  0
  -30.8314  -27.1035   19.2239 C   0  0  0  0  0  0  0  0  0  0  0  0
  -23.9562  -29.5915   19.8734 C   0  0  0  0  0  0  0  0  0  0  0  0
  -29.4350  -26.9748   19.3489 C   0  0  0  0  0  0  0  0  0  0  0  0
  -23.4854  -29.6297   21.1936 C   0  0  0  0  0  0  0  0  0  0  0  0
  -27.5953  -19.3893   18.4067 C   0  0  0  0  0  0  0  0  0  0  0  0
  -21.4409  -28.5225   20.4836 C   0  0  0  0  0  0  0  0  0  0  0  0
  -28.8215  -17.4626   17.8530 C   0  0  0  0  0  0  0  0  0  0  0  0
  -29.3923  -14.7708   18.3123 C   0  0  0  0  0  0  0  0  0  0  0  0
  -27.8156  -16.5047   17.7256 C   0  0  0  0  0  0  0  0  0  0  0  0
  -24.6584  -21.2246   20.8365 C   0  0  0  0  0  0  0  0  0  0  0  0
  -23.5406  -22.6141   22.1230 C   0  0  0  0  0  0  0  0  0  0  0  0
  -25.7939  -23.4524   21.4386 C   0  0  0  0  0  0  0  0  0  0  0  0
  -26.8207  -28.9287   21.0811 C   0  0  0  0  0  0  0  0  0  0  0  0
  -26.3256  -31.6725   22.7392 C   0  0  0  0  0  0  0  0  0  0  0  0
  -24.1021  -33.9211   24.0223 C   0  0  0  0  0  0  0  0  0  0  0  0
  -18.0990  -22.1258   22.4703 C   0  0  0  0  0  0  0  0  0  0  0  0
  -31.6906  -27.5732   20.3711 C   0  0  0  0  0  0  0  0  0  0  0  0
  -25.2912  -30.1893   19.5231 C   0  0  0  0  0  0  0  0  0  0  0  0
  -24.2989  -30.2329   22.3084 C   0  0  0  0  0  0  0  0  0  0  0  0
  -30.9051  -28.2884   21.4674 C   0  0  0  0  0  0  0  0  0  0  0  0
  -19.9037  -19.2382   23.0692 C   0  0  0  0  0  0  0  0  0  0  0  0
  -29.6480  -27.5012   21.8234 C   0  0  0  0  0  0  0  0  0  0  0  0
  -21.3150  -19.5881   22.5976 C   0  0  0  0  0  0  0  0  0  0  0  0
  -18.8105  -25.6536   23.3506 C   0  0  0  0  0  0  0  0  0  0  0  0
  -19.5053  -25.2508   20.9623 C   0  0  0  0  0  0  0  0  0  0  0  0
  -18.8549  -19.7947   22.1130 C   0  0  0  0  0  0  0  0  0  0  0  0
  -17.8735  -24.4523   23.2611 C   0  0  0  0  0  0  0  0  0  0  0  0
  -18.5518  -24.0614   20.9161 C   0  0  0  0  0  0  0  0  0  0  0  0
  -20.3586  -21.6359   21.4313 C   0  0  0  0  0  0  0  0  0  0  0  0
  -28.7119  -27.3805   20.6149 C   0  0  1  0  0  0  0  0  0  0  0  0
  -26.2424  -30.2659   20.7134 C   0  0  1  0  0  0  0  0  0  0  0  0
  -19.0359  -26.3010   21.9782 C   0  0  0  0  0  0  0  0  0  0  0  0
  -21.4613  -21.1029   22.3681 C   0  0  2  0  0  0  0  0  0  0  0  0
  -23.9949  -36.0410   25.3609 C   0  0  0  0  0  0  0  0  0  0  0  0
  -26.9061  -30.0921   25.2839 C   0  0  0  0  0  0  0  0  0  0  0  0
  -25.8749  -31.9589   26.5953 C   0  0  0  0  0  0  0  0  0  0  0  0
  -27.9154  -32.3794   25.2234 C   0  0  0  0  0  0  0  0  0  0  0  0
  -22.8050  -35.3921   21.8058 C   0  0  0  0  0  0  0  0  0  0  0  0
  -20.0385  -27.4484   22.0759 C   0  0  0  0  0  0  0  0  0  1  0  0
  -25.6962  -32.0208   24.0664 C   0  0  1  0  0  0  0  0  0  0  0  0
  -24.0573  -35.4375   23.9665 C   0  0  2  0  0  0  0  0  0  0  0  0
  -26.5834  -31.5996   25.2718 C   0  0  0  0  0  0  0  0  0  0  0  0
  -23.5050  -20.5978   21.0833 N   0  0  0  0  0  0  0  0  0  0  0  0
  -22.8469  -21.4678   21.8682 N   0  0  0  0  0  0  0  0  0  0  0  0
  -25.6003  -30.7989   21.9166 N   0  0  0  0  0  0  0  0  0  0  0  0
  -19.0305  -21.2338   21.9180 N   0  0  0  0  0  0  0  0  0  0  0  0
  -18.3254  -23.4949   22.2525 N   0  0  0  0  0  0  0  0  0  0  0  0
  -23.0258  -23.5952   22.8943 N   0  0  0  0  0  0  0  0  0  0  0  0
  -26.9529  -23.1598   20.7069 N   0  0  0  0  0  0  0  0  0  0  0  0
  -27.9881  -28.6170   20.4107 N   0  0  0  0  0  0  0  0  0  0  0  0
  -25.3971  -33.4477   24.0144 N   0  0  0  0  0  0  0  0  0  0  0  0
  -22.8608  -35.8926   23.2034 N   0  3  0  0  0  0  0  0  0  0  0  0
  -25.7206  -24.5369   22.0647 O   0  0  0  0  0  0  0  0  0  0  0  0
  -26.2509  -28.2321   21.9128 O   0  0  0  0  0  0  0  0  0  0  0  0
  -27.4171  -32.1632   22.4402 O   0  0  0  0  0  0  0  0  0  0  0  0
  -23.0896  -33.2262   24.0720 O   0  0  0  0  0  0  0  0  0  0  0  0
  -17.1262  -21.7266   23.1225 O   0  0  0  0  0  0  0  0  0  0  0  0
  -28.5400  -18.7991   17.6245 O   0  0  0  0  0  0  0  0  0  0  0  0
  -20.2071  -27.9938   20.7880 O   0  0  0  0  0  0  0  0  0  1  0  0
  -29.6669  -13.4782   18.5314 F   0  0  0  0  0  0  0  0  0  0  0  0
  -26.5733  -16.8714   17.3817 F   0  0  0  0  0  0  0  0  0  0  0  0
  1  2  1  0  0  0  0
  1  5  2  0  0  0  0
  2  6  2  0  0  0  0
  3  8  2  0  0  0  0
  3 15  1  0  0  0  0
  4  9  1  0  0  0  0
  4 15  2  0  0  0  0
  5 17  1  0  0  0  0
  6 19  1  0  0  0  0
  7 10  2  0  0  0  0
  7 18  1  0  0  0  0
  8 21  1  0  0  0  0
  9 21  2  0  0  0  0
 10 22  1  0  0  0  0
 11 12  2  0  0  0  0
 11 23  1  0  0  0  0
 12 24  1  0  0  0  0
 13 20  1  0  0  0  0
 13 22  2  0  0  0  0
 14 24  2  0  0  0  0
 14 25  1  0  0  0  0
 15 26  1  0  0  0  0
 16 26  1  0  0  0  0
 16 27  2  0  0  0  0
 16 28  1  0  0  0  0
 17 19  2  0  0  0  0
 17 33  1  0  0  0  0
 18 20  2  0  0  0  0
 18 34  1  0  0  0  0
 19 46  1  0  0  0  0
 20 35  1  0  0  0  0
 21 74  1  0  0  0  0
 22 75  1  0  0  0  0
 23 25  2  0  0  0  0
 23 74  1  0  0  0  0
 24 76  1  0  0  0  0
 25 77  1  0  0  0  0
 26 59  2  0  0  0  0
 27 60  1  0  0  0  0
 27 64  1  0  0  0  0
 28 65  1  0  0  0  0
 28 69  2  0  0  0  0
 29 47  1  0  0  0  0
 29 66  1  0  0  0  0
 29 70  2  0  0  0  0
 30 56  1  0  0  0  0
 30 61  1  0  0  0  0
 30 71  2  0  0  0  0
 31 57  1  0  0  0  0
 31 67  1  0  0  0  0
 31 72  2  0  0  0  0
 32 62  1  0  0  0  0
 32 63  1  0  0  0  0
 32 73  2  0  0  0  0
 33 36  1  0  0  0  0
 34 47  1  0  0  0  0
 35 61  1  0  0  0  0
 36 38  1  0  0  0  0
 37 39  1  0  0  0  0
 37 42  1  0  0  0  0
 38 46  1  0  0  0  0
 39 49  1  0  0  0  0
 40 43  1  0  0  0  0
 40 48  1  0  0  0  0
 41 44  1  0  0  0  0
 41 48  1  0  0  0  0
 42 62  1  0  0  0  0
 43 63  1  0  0  0  0
 44 63  1  0  0  0  0
 45 49  1  0  0  0  0
 45 62  1  0  0  0  0
 46 66  1  0  0  0  0
 47 61  1  0  0  0  0
 48 55  1  0  0  0  0
 49 60  1  0  0  0  0
 50 57  1  0  0  0  0
 51 58  1  0  0  0  0
 52 58  1  0  0  0  0
 53 58  1  0  0  0  0
 54 68  1  0  0  0  0
 55 75  1  0  0  0  0
 56 58  1  0  0  0  0
 56 67  1  0  0  0  0
 57 68  1  0  0  0  0
 59 60  1  0  0  0  0
M  CHG  1  68   1
M  ISO  4  32 100  55 101  63 100  75 101
M  END
> <Batch ID>
0179

> <Smiles>
CNC(C)C(=O)NC(C(=O)N1Cc2cc([101O:1][101CH2:1]C3CC[100N:0]([100C:0](=O)N4CCCC(n5nc(-c6ccc(Oc7ccc(F)cc7F)cc6)c(C(N)=O)c5N)C4)CC3)ccc2CC1C(=O)NC1CCCc2ccccc21)C(C)(C)C

> <Shape>
0.230

> <Color>
0.058

> <Negative vol penalty>
0.000

$$$$

  -OEChem-04052322573D

 81 89  0     1  0  0  0  0  0999 V2000
  -28.2903  -36.1651   22.7437 C   0  0  0  0  0  0  0  0  0  0  0  0
  -28.5401  -34.8065   22.5787 C   0  0  0  0  0  0  0  0  0  0  0  0
  -24.9761  -14.1651   20.8297 C   0  0  0  0  0  0  0  0  0  0  0  0
  -26.3916  -12.3188   20.1780 C   0  0  0  0  0  0  0  0  0  0  0  0
  -27.0880  -36.5879   23.3090 C   0  0  0  0  0  0  0  0  0  0  0  0
  -27.5882  -33.8699   22.9800 C   0  0  0  0  0  0  0  0  0  0  0  0
  -26.8884  -30.2165   19.5438 C   0  0  0  0  0  0  0  0  0  0  0  0
  -23.8582  -13.3343   20.7553 C   0  0  0  0  0  0  0  0  0  0  0  0
  -25.2737  -11.4880   20.1036 C   0  0  0  0  0  0  0  0  0  0  0  0
  -27.8471  -29.2060   19.4845 C   0  0  0  0  0  0  0  0  0  0  0  0
  -22.8364   -8.7903   20.0923 C   0  0  0  0  0  0  0  0  0  0  0  0
  -22.9325   -7.5200   20.6605 C   0  0  0  0  0  0  0  0  0  0  0  0
  -26.3992  -27.7653   20.7681 C   0  0  0  0  0  0  0  0  0  0  0  0
  -23.3816   -8.5176   22.8146 C   0  0  0  0  0  0  0  0  0  0  0  0
  -26.2429  -13.6574   20.5410 C   0  0  0  0  0  0  0  0  0  0  0  0
  -28.2143  -14.7442   21.7409 C   0  0  0  0  0  0  0  0  0  0  0  0
  -26.1168  -35.6564   23.7086 C   0  0  0  0  0  0  0  0  0  0  0  0
  -25.6804  -30.0124   20.2261 C   0  0  0  0  0  0  0  0  0  0  0  0
  -26.3723  -34.2806   23.5525 C   0  0  0  0  0  0  0  0  0  0  0  0
  -25.4258  -28.7740   20.8324 C   0  0  0  0  0  0  0  0  0  0  0  0
  -24.0070  -11.9957   20.3923 C   0  0  0  0  0  0  0  0  0  0  0  0
  -27.6038  -27.9812   20.0992 C   0  0  0  0  0  0  0  0  0  0  0  0
  -23.0129   -9.9242   20.8853 C   0  0  0  0  0  0  0  0  0  0  0  0
  -23.2051   -7.3837   22.0216 C   0  0  0  0  0  0  0  0  0  0  0  0
  -23.2855   -9.7878   22.2465 C   0  0  0  0  0  0  0  0  0  0  0  0
  -27.3980  -14.5153   20.6171 C   0  0  0  0  0  0  0  0  0  0  0  0
  -29.1669  -15.6294   21.2988 C   0  0  0  0  0  0  0  0  0  0  0  0
  -28.1201  -14.2047   23.0660 C   0  0  0  0  0  0  0  0  0  0  0  0
  -24.2687  -31.3541   22.7382 C   0  0  0  0  0  0  0  0  0  0  0  0
  -21.8096  -29.4105   21.9031 C   0  0  0  0  0  0  0  0  0  0  0  0
  -29.8150  -25.4690   18.6668 C   0  0  0  0  0  0  0  0  0  0  0  0
  -20.7697  -26.5691   20.3245 C   0  0  0  0  0  0  0  0  0  0  0  0
  -30.7408  -20.0339   18.6653 C   0  0  0  0  0  0  0  0  0  0  0  0
  -24.8521  -36.1596   24.3582 C   0  0  0  0  0  0  0  0  0  0  0  0
  -24.6453  -31.1033   20.2580 C   0  0  0  0  0  0  0  0  0  0  0  0
  -24.1364  -28.4974   21.5600 C   0  0  0  0  0  0  0  0  0  0  0  0
  -23.7388  -35.1166   24.4129 C   0  0  0  0  0  0  0  0  0  0  0  0
  -30.3078  -17.2010   16.6350 C   0  0  0  0  0  0  0  0  0  0  0  0
  -24.2835  -33.7797   24.9057 C   0  0  0  0  0  0  0  0  0  0  0  0
  -29.5709  -16.2567   17.5844 C   0  0  0  0  0  0  0  0  0  0  0  0
  -29.9393  -22.9764   16.9119 C   0  0  0  0  0  0  0  0  0  0  0  0
  -31.9292  -23.2785   18.4352 C   0  0  0  0  0  0  0  0  0  0  0  0
  -29.8118  -18.6425   16.7615 C   0  0  0  0  0  0  0  0  0  0  0  0
  -30.3795  -21.5327   16.6531 C   0  0  0  0  0  0  0  0  0  0  0  0
  -32.3424  -21.8429   18.1243 C   0  0  0  0  0  0  0  0  0  0  0  0
  -29.1057  -18.2237   19.0951 C   0  0  0  0  0  0  0  0  0  0  0  0
  -25.3541  -33.2351   23.9526 C   0  0  1  0  0  0  0  0  0  0  0  0
  -23.6653  -30.9633   21.4188 C   0  0  1  0  0  0  0  0  0  0  0  0
  -29.6221  -16.7780   19.0316 C   0  0  1  0  0  0  0  0  0  0  0  0
  -31.1255  -23.8734   17.2752 C   0  0  0  0  0  0  0  0  0  0  0  0
  -18.7055  -25.2252   19.8444 C   0  0  0  0  0  0  0  0  0  0  0  0
  -21.8243  -28.3679   24.7707 C   0  0  0  0  0  0  0  0  0  0  0  0
  -20.4481  -26.4246   23.9973 C   0  0  0  0  0  0  0  0  0  0  0  0
  -19.5465  -28.7428   23.8087 C   0  0  0  0  0  0  0  0  0  0  0  0
  -31.1801  -26.2712   16.7171 C   0  0  0  0  0  0  0  0  0  0  0  0
  -21.0967  -26.8953   17.4013 C   0  0  0  0  0  0  0  0  0  0  0  0
  -29.4124  -26.9067   18.9190 C   0  0  0  0  0  0  0  0  0  1  0  0
  -21.3949  -28.0013   22.2513 C   0  0  1  0  0  0  0  0  0  0  0  0
  -19.6378  -26.3178   19.3447 C   0  0  2  0  0  0  0  0  0  0  0  0
  -20.8287  -27.8897   23.6950 C   0  0  0  0  0  0  0  0  0  0  0  0
  -27.7969  -15.2000   19.5419 N   0  0  0  0  0  0  0  0  0  0  0  0
  -28.8744  -15.8680   19.9881 N   0  0  0  0  0  0  0  0  0  0  0  0
  -23.1583  -29.5978   21.5689 N   0  0  0  0  0  0  0  0  0  0  0  0
  -29.8409  -19.0818   18.1636 N   0  0  0  0  0  0  0  0  0  0  0  0
  -31.1815  -21.0242   17.7747 N   0  0  0  0  0  0  0  0  0  0  0  0
  -30.2177  -16.2194   21.9071 N   0  0  0  0  0  0  0  0  0  0  0  0
  -27.0807  -13.3085   23.3501 N   0  0  0  0  0  0  0  0  0  0  0  0
  -24.7377  -32.6533   22.7795 N   0  0  0  0  0  0  0  0  0  0  0  0
  -20.4636  -27.5808   21.2100 N   0  0  0  0  0  0  0  0  0  0  0  0
  -30.6768  -25.2069   17.5919 N   0  0  0  0  0  0  0  0  0  0  0  0
  -20.1815  -25.9025   18.0207 N   0  3  0  0  0  0  0  0  0  0  0  0
  -28.9238  -14.5212   23.9756 O   0  0  0  0  0  0  0  0  0  0  0  0
  -24.3047  -30.5380   23.6516 O   0  0  0  0  0  0  0  0  0  0  0  0
  -20.9663  -30.3106   21.9199 O   0  0  0  0  0  0  0  0  0  0  0  0
  -29.3782  -24.5905   19.4167 O   0  0  0  0  0  0  0  0  0  0  0  0
  -21.8189  -25.9291   20.3086 O   0  0  0  0  0  0  0  0  0  0  0  0
  -31.1277  -20.0015   19.8402 O   0  0  0  0  0  0  0  0  0  0  0  0
  -22.9163  -11.1846   20.3199 O   0  0  0  0  0  0  0  0  0  0  0  0
  -28.5599  -26.9704   20.0422 O   0  0  0  0  0  0  0  0  0  1  0  0
  -23.2959   -6.1638   22.5674 F   0  0  0  0  0  0  0  0  0  0  0  0
  -23.4549  -10.8735   23.0136 F   0  0  0  0  0  0  0  0  0  0  0  0
  1  2  1  0  0  0  0
  1  5  2  0  0  0  0
  2  6  2  0  0  0  0
  3  8  2  0  0  0  0
  3 15  1  0  0  0  0
  4  9  1  0  0  0  0
  4 15  2  0  0  0  0
  5 17  1  0  0  0  0
  6 19  1  0  0  0  0
  7 10  2  0  0  0  0
  7 18  1  0  0  0  0
  8 21  1  0  0  0  0
  9 21  2  0  0  0  0
 10 22  1  0  0  0  0
 11 12  2  0  0  0  0
 11 23  1  0  0  0  0
 12 24  1  0  0  0  0
 13 20  1  0  0  0  0
 13 22  2  0  0  0  0
 14 24  2  0  0  0  0
 14 25  1  0  0  0  0
 15 26  1  0  0  0  0
 16 26  1  0  0  0  0
 16 27  2  0  0  0  0
 16 28  1  0  0  0  0
 17 19  2  0  0  0  0
 17 34  1  0  0  0  0
 18 20  2  0  0  0  0
 18 35  1  0  0  0  0
 19 47  1  0  0  0  0
 20 36  1  0  0  0  0
 21 78  1  0  0  0  0
 22 79  1  0  0  0  0
 23 25  2  0  0  0  0
 23 78  1  0  0  0  0
 24 80  1  0  0  0  0
 25 81  1  0  0  0  0
 26 61  2  0  0  0  0
 27 62  1  0  0  0  0
 27 66  1  0  0  0  0
 28 67  1  0  0  0  0
 28 72  2  0  0  0  0
 29 48  1  0  0  0  0
 29 68  1  0  0  0  0
 29 73  2  0  0  0  0
 30 58  1  0  0  0  0
 30 63  1  0  0  0  0
 30 74  2  0  0  0  0
 31 57  1  0  0  0  0
 31 70  1  0  0  0  0
 31 75  2  0  0  0  0
 32 59  1  0  0  0  0
 32 69  1  0  0  0  0
 32 76  2  0  0  0  0
 33 64  1  0  0  0  0
 33 65  1  0  0  0  0
 33 77  2  0  0  0  0
 34 37  1  0  0  0  0
 35 48  1  0  0  0  0
 36 63  1  0  0  0  0
 37 39  1  0  0  0  0
 38 40  1  0  0  0  0
 38 43  1  0  0  0  0
 39 47  1  0  0  0  0
 40 49  1  0  0  0  0
 41 44  1  0  0  0  0
 41 50  1  0  0  0  0
 42 45  1  0  0  0  0
 42 50  1  0  0  0  0
 43 64  1  0  0  0  0
 44 65  1  0  0  0  0
 45 65  1  0  0  0  0
 46 49  1  0  0  0  0
 46 64  1  0  0  0  0
 47 68  1  0  0  0  0
 48 63  1  0  0  0  0
 49 62  1  0  0  0  0
 50 70  1  0  0  0  0
 51 59  1  0  0  0  0
 52 60  1  0  0  0  0
 53 60  1  0  0  0  0
 54 60  1  0  0  0  0
 55 70  1  0  0  0  0
 56 71  1  0  0  0  0
 57 79  1  0  0  0  0
 58 60  1  0  0  0  0
 58 69  1  0  0  0  0
 59 71  1  0  0  0  0
 61 62  1  0  0  0  0
M  CHG  1  71   1
M  ISO  4  33 100  57 101  65 100  79 101
M  END
> <Batch ID>
0179

> <Smiles>
CNC(C)C(=O)NC(C(=O)N1Cc2cc([101O:1][101CH2:1]C(=O)N(C)C3CC[100N:0]([100C:0](=O)N4CCCC(n5nc(-c6ccc(Oc7ccc(F)cc7F)cc6)c(C(N)=O)c5N)C4)CC3)ccc2CC1C(=O)NC1CCCc2ccccc21)C(C)(C)C

> <Shape>
0.332

> <Color>
0.080

> <Negative vol penalty>
0.000

$$$$

  -OEChem-04052322573D

 82 91  0     1  0  0  0  0  0999 V2000
  -16.8251  -28.4433   23.9324 C   0  0  0  0  0  0  0  0  0  0  0  0
  -17.7356  -27.3976   24.0468 C   0  0  0  0  0  0  0  0  0  0  0  0
  -23.0960   -9.9440   21.5462 C   0  0  0  0  0  0  0  0  0  0  0  0
  -23.7753  -11.0272   23.5962 C   0  0  0  0  0  0  0  0  0  0  0  0
  -17.1268  -29.5444   23.1321 C   0  0  0  0  0  0  0  0  0  0  0  0
  -18.9480  -27.4520   23.3601 C   0  0  0  0  0  0  0  0  0  0  0  0
  -24.3489  -25.2666   25.2469 C   0  0  0  0  0  0  0  0  0  0  0  0
  -22.3827   -8.9981   22.2823 C   0  0  0  0  0  0  0  0  0  0  0  0
  -23.0619  -10.0813   24.3324 C   0  0  0  0  0  0  0  0  0  0  0  0
  -25.0326  -24.0847   24.9653 C   0  0  0  0  0  0  0  0  0  0  0  0
  -23.0545   -6.2043   24.0622 C   0  0  0  0  0  0  0  0  0  0  0  0
  -23.1881   -4.8648   23.6969 C   0  0  0  0  0  0  0  0  0  0  0  0
  -26.2971  -25.2296   23.2596 C   0  0  0  0  0  0  0  0  0  0  0  0
  -20.8130   -4.7442   23.2708 C   0  0  0  0  0  0  0  0  0  0  0  0
  -28.1376  -19.3516   22.8843 C   0  0  0  0  0  0  0  0  0  0  0  0
  -23.7924  -10.9586   22.2031 C   0  0  0  0  0  0  0  0  0  0  0  0
  -24.0540  -13.1658   20.9512 C   0  0  0  0  0  0  0  0  0  0  0  0
  -18.3476  -29.6167   22.4429 C   0  0  0  0  0  0  0  0  0  0  0  0
  -24.6270  -26.4382   24.5283 C   0  0  0  0  0  0  0  0  0  0  0  0
  -19.2658  -28.5545   22.5488 C   0  0  0  0  0  0  0  0  0  0  0  0
  -25.6174  -26.4257   23.5357 C   0  0  0  0  0  0  0  0  0  0  0  0
  -22.3656   -9.0667   23.6754 C   0  0  0  0  0  0  0  0  0  0  0  0
  -26.0048  -24.0653   23.9696 C   0  0  0  0  0  0  0  0  0  0  0  0
  -21.8002   -6.8138   24.0319 C   0  0  0  0  0  0  0  0  0  0  0  0
  -22.0674   -4.1347   23.3012 C   0  0  0  0  0  0  0  0  0  0  0  0
  -20.6795   -6.0837   23.6362 C   0  0  0  0  0  0  0  0  0  0  0  0
  -24.5299  -11.9357   21.4432 C   0  0  0  0  0  0  0  0  0  0  0  0
  -29.3072  -19.1652   22.1809 C   0  0  0  0  0  0  0  0  0  0  0  0
  -29.4260  -21.4140   21.7826 C   0  0  0  0  0  0  0  0  0  0  0  0
  -28.2561  -21.6003   22.4854 C   0  0  0  0  0  0  0  0  0  0  0  0
  -25.1326  -13.7169   20.3036 C   0  0  0  0  0  0  0  0  0  0  0  0
  -22.7533  -13.7574   21.0691 C   0  0  0  0  0  0  0  0  0  0  0  0
  -22.9542  -28.3451   22.6126 C   0  0  0  0  0  0  0  0  0  0  0  0
  -25.6387  -30.1629   22.7223 C   0  0  0  0  0  0  0  0  0  0  0  0
  -29.0087  -30.3252   23.2351 C   0  0  0  0  0  0  0  0  0  0  0  0
  -30.6482  -14.9154   20.3094 C   0  0  0  0  0  0  0  0  0  0  0  0
  -18.6092  -30.8055   21.5524 C   0  0  0  0  0  0  0  0  0  0  0  0
  -23.8995  -27.7116   24.8624 C   0  0  0  0  0  0  0  0  0  0  0  0
  -25.9676  -27.6616   22.7493 C   0  0  0  0  0  0  0  0  0  0  0  0
  -20.0751  -30.9580   21.1549 C   0  0  0  0  0  0  0  0  0  0  0  0
  -29.5786  -11.7398   19.0039 C   0  0  0  0  0  0  0  0  0  0  0  0
  -20.6481  -29.6182   20.7039 C   0  0  0  0  0  0  0  0  0  0  0  0
  -28.1540  -11.5786   19.5238 C   0  0  0  0  0  0  0  0  0  0  0  0
  -30.4475  -12.4737   20.0166 C   0  0  0  0  0  0  0  0  0  0  0  0
  -29.1014  -16.5173   21.6883 C   0  0  0  0  0  0  0  0  0  0  0  0
  -30.6534  -17.4529   20.5887 C   0  0  0  0  0  0  0  0  0  0  0  0
  -28.4775  -13.7016   20.8912 C   0  0  0  0  0  0  0  0  0  0  0  0
  -20.6019  -28.5883   21.8391 C   0  0  1  0  0  0  0  0  0  0  0  0
  -29.9933  -17.7542   21.9539 C   0  0  0  0  0  0  0  0  0  0  0  0
  -23.9019  -28.7193   23.7170 C   0  0  1  0  0  0  0  0  0  0  0  0
  -27.5646  -12.9437   19.9070 C   0  0  2  0  0  0  0  0  0  0  0  0
  -30.1510  -22.5591   21.1621 C   0  0  0  0  0  0  0  0  0  0  0  0
  -30.9284  -31.9413   23.2172 C   0  0  0  0  0  0  0  0  0  0  0  0
  -25.6359  -30.1285   19.6713 C   0  0  0  0  0  0  0  0  0  0  0  0
  -28.0148  -30.9068   19.7298 C   0  0  0  0  0  0  0  0  0  0  0  0
  -26.2118  -32.3391   20.6891 C   0  0  0  0  0  0  0  0  0  0  0  0
  -29.5896  -29.8465   26.0973 C   0  0  0  0  0  0  0  0  0  0  0  0
  -27.6566  -22.9647   22.6595 C   0  0  0  0  0  0  0  0  0  1  0  0
  -26.9110  -30.2405   21.9135 C   0  0  1  0  0  0  0  0  0  0  0  0
  -29.8570  -31.2726   24.0642 C   0  0  2  0  0  0  0  0  0  0  0  0
  -26.6856  -30.8798   20.5142 C   0  0  0  0  0  0  0  0  0  0  0  0
  -27.5910  -20.5725   23.0492 N   0  0  0  0  0  0  0  0  0  0  0  0
  -25.8110  -11.7177   21.1345 N   0  0  0  0  0  0  0  0  0  0  0  0
  -29.9724  -20.1931   21.6174 N   0  0  0  0  0  0  0  0  0  0  0  0
  -26.1492  -12.8183   20.4414 N   0  0  0  0  0  0  0  0  0  0  0  0
  -25.2241  -28.8804   23.1087 N   0  0  0  0  0  0  0  0  0  0  0  0
  -29.8661  -13.7597   20.4135 N   0  0  0  0  0  0  0  0  0  0  0  0
  -30.1018  -16.1096   20.7167 N   0  0  0  0  0  0  0  0  0  0  0  0
  -25.3010  -14.8777   19.6353 N   0  0  0  0  0  0  0  0  0  0  0  0
  -21.7611  -13.0560   21.7676 N   0  0  0  0  0  0  0  0  0  0  0  0
  -21.6714  -28.8292   22.7840 N   0  0  0  0  0  0  0  0  0  0  0  0
  -27.8802  -30.9470   22.7441 N   0  0  0  0  0  0  0  0  0  0  0  0
  -30.5266  -30.5337   25.1718 N   0  3  0  0  0  0  0  0  0  0  0  0
  -22.4745  -14.8675   20.5557 O   0  0  0  0  0  0  0  0  0  0  0  0
  -23.3575  -27.6685   21.6738 O   0  0  0  0  0  0  0  0  0  0  0  0
  -25.0387  -31.2024   23.0070 O   0  0  0  0  0  0  0  0  0  0  0  0
  -29.3183  -29.1520   23.0393 O   0  0  0  0  0  0  0  0  0  0  0  0
  -31.8136  -14.8800   19.8925 O   0  0  0  0  0  0  0  0  0  0  0  0
  -21.6694   -8.1440   24.3941 O   0  0  0  0  0  0  0  0  0  0  0  0
  -26.6732  -22.9128   23.6922 O   0  0  0  0  0  0  0  0  0  1  0  0
  -22.1960   -2.8488   22.9490 F   0  0  0  0  0  0  0  0  0  0  0  0
  -19.4720   -6.6642   23.6039 F   0  0  0  0  0  0  0  0  0  0  0  0
  1  2  1  0  0  0  0
  1  5  2  0  0  0  0
  2  6  2  0  0  0  0
  3  8  2  0  0  0  0
  3 16  1  0  0  0  0
  4  9  1  0  0  0  0
  4 16  2  0  0  0  0
  5 18  1  0  0  0  0
  6 20  1  0  0  0  0
  7 10  2  0  0  0  0
  7 19  1  0  0  0  0
  8 22  1  0  0  0  0
  9 22  2  0  0  0  0
 10 23  1  0  0  0  0
 11 12  2  0  0  0  0
 11 24  1  0  0  0  0
 12 25  1  0  0  0  0
 13 21  1  0  0  0  0
 13 23  2  0  0  0  0
 14 25  2  0  0  0  0
 14 26  1  0  0  0  0
 15 28  1  0  0  0  0
 15 62  2  0  0  0  0
 16 27  1  0  0  0  0
 17 27  1  0  0  0  0
 17 31  2  0  0  0  0
 17 32  1  0  0  0  0
 18 20  2  0  0  0  0
 18 37  1  0  0  0  0
 19 21  2  0  0  0  0
 19 38  1  0  0  0  0
 20 48  1  0  0  0  0
 21 39  1  0  0  0  0
 22 79  1  0  0  0  0
 23 80  1  0  0  0  0
 24 26  2  0  0  0  0
 24 79  1  0  0  0  0
 25 81  1  0  0  0  0
 26 82  1  0  0  0  0
 27 63  2  0  0  0  0
 28 49  1  0  0  0  0
 28 64  2  0  0  0  0
 29 30  2  0  0  0  0
 29 52  1  0  0  0  0
 29 64  1  0  0  0  0
 30 58  1  0  0  0  0
 30 62  1  0  0  0  0
 31 65  1  0  0  0  0
 31 69  1  0  0  0  0
 32 70  1  0  0  0  0
 32 74  2  0  0  0  0
 33 50  1  0  0  0  0
 33 71  1  0  0  0  0
 33 75  2  0  0  0  0
 34 59  1  0  0  0  0
 34 66  1  0  0  0  0
 34 76  2  0  0  0  0
 35 60  1  0  0  0  0
 35 72  1  0  0  0  0
 35 77  2  0  0  0  0
 36 67  1  0  0  0  0
 36 68  1  0  0  0  0
 36 78  2  0  0  0  0
 37 40  1  0  0  0  0
 38 50  1  0  0  0  0
 39 66  1  0  0  0  0
 40 42  1  0  0  0  0
 41 43  1  0  0  0  0
 41 44  1  0  0  0  0
 42 48  1  0  0  0  0
 43 51  1  0  0  0  0
 44 67  1  0  0  0  0
 45 49  1  0  0  0  0
 45 68  1  0  0  0  0
 46 49  1  0  0  0  0
 46 68  1  0  0  0  0
 47 51  1  0  0  0  0
 47 67  1  0  0  0  0
 48 71  1  0  0  0  0
 50 66  1  0  0  0  0
 51 65  1  0  0  0  0
 53 60  1  0  0  0  0
 54 61  1  0  0  0  0
 55 61  1  0  0  0  0
 56 61  1  0  0  0  0
 57 73  1  0  0  0  0
 58 80  1  0  0  0  0
 59 61  1  0  0  0  0
 59 72  1  0  0  0  0
 60 73  1  0  0  0  0
 63 65  1  0  0  0  0
M  CHG  1  73   1
M  ISO  4  36 100  58 101  68 100  80 101
M  END
> <Batch ID>
0179

> <Smiles>
CNC(C)C(=O)NC(C(=O)N1Cc2cc([101O:1][101CH2:1]c3ncc(C4C[100N:0]([100C:0](=O)N5CCCC(n6nc(-c7ccc(Oc8ccc(F)cc8F)cc7)c(C(N)=O)c6N)C5)C4)nc3C)ccc2CC1C(=O)NC1CCCc2ccccc21)C(C)(C)C

> <Shape>
0.282

> <Color>
0.172

> <Negative vol penalty>
0.000

$$$$

  -OEChem-04052322573D

 86 95  0     1  0  0  0  0  0999 V2000
  -29.2804  -36.9614   20.5565 C   0  0  0  0  0  0  0  0  0  0  0  0
  -29.5171  -35.6165   20.2907 C   0  0  0  0  0  0  0  0  0  0  0  0
  -25.9981   -7.2047   21.5531 C   0  0  0  0  0  0  0  0  0  0  0  0
  -25.3457   -6.8746   19.2504 C   0  0  0  0  0  0  0  0  0  0  0  0
  -28.3785  -37.3251   21.5556 C   0  0  0  0  0  0  0  0  0  0  0  0
  -28.8528  -34.6344   21.0247 C   0  0  0  0  0  0  0  0  0  0  0  0
  -26.9393  -29.1831   18.9933 C   0  0  0  0  0  0  0  0  0  0  0  0
  -25.0979   -6.2159   21.9499 C   0  0  0  0  0  0  0  0  0  0  0  0
  -24.4455   -5.8857   19.6472 C   0  0  0  0  0  0  0  0  0  0  0  0
  -27.4867  -27.9039   19.0824 C   0  0  0  0  0  0  0  0  0  0  0  0
  -21.7687   -5.9400   22.4642 C   0  0  0  0  0  0  0  0  0  0  0  0
  -20.9618   -6.2054   23.5706 C   0  0  0  0  0  0  0  0  0  0  0  0
  -26.1176  -27.4596   21.0183 C   0  0  0  0  0  0  0  0  0  0  0  0
  -28.8605  -23.3931   22.1544 C   0  0  0  0  0  0  0  0  0  0  0  0
  -21.9026   -4.2965   24.7144 C   0  0  0  0  0  0  0  0  0  0  0  0
  -26.1219   -7.5341   20.2033 C   0  0  0  0  0  0  0  0  0  0  0  0
  -28.4016   -8.3827   19.4349 C   0  0  0  0  0  0  0  0  0  0  0  0
  -27.6956  -36.3470   22.2957 C   0  0  0  0  0  0  0  0  0  0  0  0
  -25.9833  -29.6147   19.9240 C   0  0  0  0  0  0  0  0  0  0  0  0
  -27.9419  -34.9854   22.0356 C   0  0  0  0  0  0  0  0  0  0  0  0
  -25.5578  -28.7438   20.9372 C   0  0  0  0  0  0  0  0  0  0  0  0
  -27.8641  -23.6592   21.2219 C   0  0  0  0  0  0  0  0  0  0  0  0
  -29.5267  -22.1730   22.1227 C   0  0  0  0  0  0  0  0  0  0  0  0
  -24.3217   -5.5563   20.9970 C   0  0  0  0  0  0  0  0  0  0  0  0
  -27.0780  -27.0430   20.0968 C   0  0  0  0  0  0  0  0  0  0  0  0
  -22.6424   -4.8529   22.4828 C   0  0  0  0  0  0  0  0  0  0  0  0
  -21.0288   -5.3837   24.6957 C   0  0  0  0  0  0  0  0  0  0  0  0
  -22.7094   -4.0312   23.6079 C   0  0  0  0  0  0  0  0  0  0  0  0
  -27.0512   -8.5559   19.7928 C   0  0  0  0  0  0  0  0  0  0  0  0
  -27.5737  -22.6799   20.2857 C   0  0  0  0  0  0  0  0  0  0  0  0
  -29.1617  -21.2602   21.1464 C   0  0  0  0  0  0  0  0  0  0  0  0
  -28.8405   -9.6475   19.1283 C   0  0  0  0  0  0  0  0  0  0  0  0
  -29.1889   -7.1855   19.3839 C   0  0  0  0  0  0  0  0  0  0  0  0
  -25.8477  -31.9416   22.0851 C   0  0  0  0  0  0  0  0  0  0  0  0
  -22.7858  -30.9236   22.4181 C   0  0  0  0  0  0  0  0  0  0  0  0
  -20.5214  -28.3926   22.0813 C   0  0  0  0  0  0  0  0  0  0  0  0
  -29.2711  -14.9147   20.0648 C   0  0  0  0  0  0  0  0  0  0  0  0
  -26.7655  -36.7885   23.3978 C   0  0  0  0  0  0  0  0  0  0  0  0
  -25.3829  -30.9880   19.7981 C   0  0  0  0  0  0  0  0  0  0  0  0
  -24.5196  -29.1517   21.9492 C   0  0  0  0  0  0  0  0  0  0  0  0
  -25.8219  -35.6879   23.8759 C   0  0  0  0  0  0  0  0  0  0  0  0
  -26.2931  -13.9597   18.4685 C   0  0  0  0  0  0  0  0  0  0  0  0
  -26.5877  -34.3875   24.0981 C   0  0  0  0  0  0  0  0  0  0  0  0
  -26.3295  -12.4415   18.6415 C   0  0  0  0  0  0  0  0  0  0  0  0
  -28.2707  -18.2528   20.5595 C   0  0  0  0  0  0  0  0  0  0  0  0
  -30.7310  -18.0568   20.0335 C   0  0  0  0  0  0  0  0  0  0  0  0
  -26.7696  -14.6913   19.7246 C   0  0  0  0  0  0  0  0  0  0  0  0
  -27.9959  -17.0631   19.6350 C   0  0  0  0  0  0  0  0  0  0  0  0
  -30.4053  -16.8935   19.1009 C   0  0  0  0  0  0  0  0  0  0  0  0
  -28.1358  -12.7357   20.3786 C   0  0  0  0  0  0  0  0  0  0  0  0
  -27.2222  -33.8910   22.7934 C   0  0  1  0  0  0  0  0  0  0  0  0
  -24.7940  -31.5049   21.1071 C   0  0  1  0  0  0  0  0  0  0  0  0
  -27.7177  -11.9724   19.1124 C   0  0  1  0  0  0  0  0  0  0  0  0
  -29.5359  -19.0073   20.1442 C   0  0  0  0  0  0  0  0  0  0  0  0
  -30.5946  -21.8909   23.1242 C   0  0  0  0  0  0  0  0  0  0  0  0
  -26.5130  -22.9111   19.2598 C   0  0  0  0  0  0  0  0  0  0  0  0
  -18.1030  -27.8482   22.4717 C   0  0  0  0  0  0  0  0  0  0  0  0
  -23.3298  -30.6630   25.4091 C   0  0  0  0  0  0  0  0  0  0  0  0
  -21.2682  -29.2539   25.5905 C   0  0  0  0  0  0  0  0  0  0  0  0
  -21.0937  -31.6250   24.8354 C   0  0  0  0  0  0  0  0  0  0  0  0
  -20.0550  -27.8698   19.2059 C   0  0  0  0  0  0  0  0  0  0  0  0
  -27.1467  -24.9646   21.2506 C   0  0  0  0  0  0  0  0  0  1  0  0
  -22.0876  -29.8984   23.2787 C   0  0  1  0  0  0  0  0  0  0  0  0
  -19.1305  -28.3596   21.4740 C   0  0  2  0  0  0  0  0  0  0  0  0
  -21.9658  -30.3528   24.7607 C   0  0  0  0  0  0  0  0  0  0  0  0
  -26.6581   -9.8304   19.7209 N   0  0  0  0  0  0  0  0  0  0  0  0
  -28.1991  -21.4830   20.2237 N   0  0  0  0  0  0  0  0  0  0  0  0
  -27.7682  -10.4695   19.3143 N   0  0  0  0  0  0  0  0  0  0  0  0
  -23.9669  -30.5067   21.7879 N   0  0  0  0  0  0  0  0  0  0  0  0
  -28.0782  -14.1823   20.1583 N   0  0  0  0  0  0  0  0  0  0  0  0
  -29.1846  -16.2057   19.5227 N   0  0  0  0  0  0  0  0  0  0  0  0
  -30.0353  -10.1257   18.7205 N   0  0  0  0  0  0  0  0  0  0  0  0
  -28.5814   -5.9711   19.7310 N   0  0  0  0  0  0  0  0  0  0  0  0
  -29.8214  -20.0445   21.1110 N   0  0  0  0  0  0  0  0  0  0  0  0
  -26.2246  -33.2645   21.9527 N   0  0  0  0  0  0  0  0  0  0  0  0
  -20.8096  -29.6239   22.6309 N   0  0  0  0  0  0  0  0  0  0  0  0
  -19.1082  -27.4699   20.2786 N   0  3  0  0  0  0  0  0  0  0  0  0
  -30.3998   -7.1947   19.0567 O   0  0  0  0  0  0  0  0  0  0  0  0
  -26.2852  -31.1384   22.9006 O   0  0  0  0  0  0  0  0  0  0  0  0
  -22.2973  -32.0504   22.3033 O   0  0  0  0  0  0  0  0  0  0  0  0
  -21.2752  -27.4220   22.0726 O   0  0  0  0  0  0  0  0  0  0  0  0
  -30.3505  -14.4431   20.4437 O   0  0  0  0  0  0  0  0  0  0  0  0
  -23.4434   -4.5912   21.3839 O   0  0  0  0  0  0  0  0  0  0  0  0
  -27.6147  -25.7858   20.1871 O   0  0  0  0  0  0  0  0  0  1  0  0
  -20.2551   -5.6396   25.7588 F   0  0  0  0  0  0  0  0  0  0  0  0
  -23.5477   -2.9859   23.6322 F   0  0  0  0  0  0  0  0  0  0  0  0
  1  2  1  0  0  0  0
  1  5  2  0  0  0  0
  2  6  2  0  0  0  0
  3  8  2  0  0  0  0
  3 16  1  0  0  0  0
  4  9  1  0  0  0  0
  4 16  2  0  0  0  0
  5 18  1  0  0  0  0
  6 20  1  0  0  0  0
  7 10  2  0  0  0  0
  7 19  1  0  0  0  0
  8 24  1  0  0  0  0
  9 24  2  0  0  0  0
 10 25  1  0  0  0  0
 11 12  2  0  0  0  0
 11 26  1  0  0  0  0
 12 27  1  0  0  0  0
 13 21  1  0  0  0  0
 13 25  2  0  0  0  0
 14 22  1  0  0  0  0
 14 23  2  0  0  0  0
 15 27  2  0  0  0  0
 15 28  1  0  0  0  0
 16 29  1  0  0  0  0
 17 29  1  0  0  0  0
 17 32  2  0  0  0  0
 17 33  1  0  0  0  0
 18 20  2  0  0  0  0
 18 38  1  0  0  0  0
 19 21  2  0  0  0  0
 19 39  1  0  0  0  0
 20 51  1  0  0  0  0
 21 40  1  0  0  0  0
 22 30  2  0  0  0  0
 22 62  1  0  0  0  0
 23 31  1  0  0  0  0
 23 55  1  0  0  0  0
 24 83  1  0  0  0  0
 25 84  1  0  0  0  0
 26 28  2  0  0  0  0
 26 83  1  0  0  0  0
 27 85  1  0  0  0  0
 28 86  1  0  0  0  0
 29 66  2  0  0  0  0
 30 56  1  0  0  0  0
 30 67  1  0  0  0  0
 31 67  2  0  0  0  0
 31 74  1  0  0  0  0
 32 68  1  0  0  0  0
 32 72  1  0  0  0  0
 33 73  1  0  0  0  0
 33 78  2  0  0  0  0
 34 52  1  0  0  0  0
 34 75  1  0  0  0  0
 34 79  2  0  0  0  0
 35 63  1  0  0  0  0
 35 69  1  0  0  0  0
 35 80  2  0  0  0  0
 36 64  1  0  0  0  0
 36 76  1  0  0  0  0
 36 81  2  0  0  0  0
 37 70  1  0  0  0  0
 37 71  1  0  0  0  0
 37 82  2  0  0  0  0
 38 41  1  0  0  0  0
 39 52  1  0  0  0  0
 40 69  1  0  0  0  0
 41 43  1  0  0  0  0
 42 44  1  0  0  0  0
 42 47  1  0  0  0  0
 43 51  1  0  0  0  0
 44 53  1  0  0  0  0
 45 48  1  0  0  0  0
 45 54  1  0  0  0  0
 46 49  1  0  0  0  0
 46 54  1  0  0  0  0
 47 70  1  0  0  0  0
 48 71  1  0  0  0  0
 49 71  1  0  0  0  0
 50 53  1  0  0  0  0
 50 70  1  0  0  0  0
 51 75  1  0  0  0  0
 52 69  1  0  0  0  0
 53 68  1  0  0  0  0
 54 74  1  0  0  0  0
 57 64  1  0  0  0  0
 58 65  1  0  0  0  0
 59 65  1  0  0  0  0
 60 65  1  0  0  0  0
 61 77  1  0  0  0  0
 62 84  1  0  0  0  0
 63 65  1  0  0  0  0
 63 76  1  0  0  0  0
 64 77  1  0  0  0  0
 66 68  1  0  0  0  0
M  CHG  1  77   1
M  ISO  4  37 100  62 101  71 100  84 101
M  END
> <Batch ID>
0179

> <Smiles>
CNC(C)C(=O)NC(C(=O)N1Cc2cc([101O:1][101CH2:1]c3cc(C)c(NC4CC[100N:0]([100C:0](=O)N5CCCC(n6nc(-c7ccc(Oc8ccc(F)cc8F)cc7)c(C(N)=O)c6N)C5)CC4)nc3C)ccc2CC1C(=O)NC1CCCc2ccccc21)C(C)(C)C

> <Shape>
0.274

> <Color>
0.071

> <Negative vol penalty>
0.000

$$$$

  -OEChem-04052322573D

 85 94  0     1  0  0  0  0  0999 V2000
  -26.9420  -37.2137   25.1514 C   0  0  0  0  0  0  0  0  0  0  0  0
  -26.7884  -36.8010   23.8327 C   0  0  0  0  0  0  0  0  0  0  0  0
  -26.2553  -16.6533   23.6329 C   0  0  0  0  0  0  0  0  0  0  0  0
  -24.9746  -17.4434   21.7428 C   0  0  0  0  0  0  0  0  0  0  0  0
  -27.1240  -36.2669   26.1573 C   0  0  0  0  0  0  0  0  0  0  0  0
  -26.8049  -35.4411   23.5209 C   0  0  0  0  0  0  0  0  0  0  0  0
  -26.5301  -28.9374   18.9547 C   0  0  0  0  0  0  0  0  0  0  0  0
  -25.9677  -17.8322   24.3207 C   0  0  0  0  0  0  0  0  0  0  0  0
  -24.6869  -18.6224   22.4306 C   0  0  0  0  0  0  0  0  0  0  0  0
  -26.8638  -27.5841   18.9248 C   0  0  0  0  0  0  0  0  0  0  0  0
  -27.0607  -21.0305   24.3463 C   0  0  0  0  0  0  0  0  0  0  0  0
  -28.1091  -21.6617   25.0156 C   0  0  0  0  0  0  0  0  0  0  0  0
  -25.5908  -27.2318   20.9434 C   0  0  0  0  0  0  0  0  0  0  0  0
  -26.9204  -21.4205   27.1051 C   0  0  0  0  0  0  0  0  0  0  0  0
  -25.7588  -16.4589   22.3440 C   0  0  0  0  0  0  0  0  0  0  0  0
  -25.3087  -14.0486   21.6402 C   0  0  0  0  0  0  0  0  0  0  0  0
  -27.1550  -34.8955   25.8552 C   0  0  0  0  0  0  0  0  0  0  0  0
  -25.7319  -29.4511   19.9870 C   0  0  0  0  0  0  0  0  0  0  0  0
  -26.9634  -34.4690   24.5252 C   0  0  0  0  0  0  0  0  0  0  0  0
  -25.2463  -28.5915   20.9827 C   0  0  0  0  0  0  0  0  0  0  0  0
  -28.7844  -21.5966   19.9113 C   0  0  0  0  0  0  0  0  0  0  0  0
  -28.6289  -22.9709   19.8667 C   0  0  0  0  0  0  0  0  0  0  0  0
  -25.1835  -18.8167   23.7196 C   0  0  0  0  0  0  0  0  0  0  0  0
  -26.3965  -26.7316   19.9208 C   0  0  0  0  0  0  0  0  0  0  0  0
  -25.9421  -20.5943   25.0563 C   0  0  0  0  0  0  0  0  0  0  0  0
  -28.0390  -21.8567   26.3950 C   0  0  0  0  0  0  0  0  0  0  0  0
  -25.8720  -20.7893   26.4357 C   0  0  0  0  0  0  0  0  0  0  0  0
  -26.0561  -15.2416   21.6327 C   0  0  0  0  0  0  0  0  0  0  0  0
  -28.0630  -20.8354   19.0138 C   0  0  0  0  0  0  0  0  0  0  0  0
  -27.7625  -23.4930   18.9274 C   0  0  0  0  0  0  0  0  0  0  0  0
  -26.0054  -13.2019   20.8130 C   0  0  0  0  0  0  0  0  0  0  0  0
  -24.0934  -13.7340   22.3327 C   0  0  0  0  0  0  0  0  0  0  0  0
  -26.1467  -31.6146   22.2785 C   0  0  0  0  0  0  0  0  0  0  0  0
  -22.9929  -31.0793   22.8162 C   0  0  0  0  0  0  0  0  0  0  0  0
  -20.7878  -28.2258   22.9280 C   0  0  0  0  0  0  0  0  0  0  0  0
  -29.9299  -16.7039   19.1414 C   0  0  0  0  0  0  0  0  0  0  0  0
  -27.3472  -33.9135   26.9838 C   0  0  0  0  0  0  0  0  0  0  0  0
  -25.3589  -30.9082   19.9902 C   0  0  0  0  0  0  0  0  0  0  0  0
  -24.3695  -29.0894   22.1015 C   0  0  0  0  0  0  0  0  0  0  0  0
  -27.7928  -32.5360   26.5039 C   0  0  0  0  0  0  0  0  0  0  0  0
  -30.3038  -13.5802   20.8355 C   0  0  0  0  0  0  0  0  0  0  0  0
  -29.6675  -18.1325   15.8188 C   0  0  0  0  0  0  0  0  0  0  0  0
  -26.8937  -32.0643   25.3710 C   0  0  0  0  0  0  0  0  0  0  0  0
  -29.2750  -12.6594   20.1888 C   0  0  0  0  0  0  0  0  0  0  0  0
  -29.0111  -19.2534   16.6124 C   0  0  0  0  0  0  0  0  0  0  0  0
  -30.8945  -14.5308   19.8058 C   0  0  0  0  0  0  0  0  0  0  0  0
  -29.3688  -16.9059   16.6669 C   0  0  0  0  0  0  0  0  0  0  0  0
  -28.7724  -14.5237   18.5086 C   0  0  0  0  0  0  0  0  0  0  0  0
  -27.0085  -32.9967   24.1583 C   0  0  1  0  0  0  0  0  0  0  0  0
  -24.9643  -31.4209   21.3718 C   0  0  1  0  0  0  0  0  0  0  0  0
  -28.1831  -13.4339   19.4336 C   0  0  2  0  0  0  0  0  0  0  0  0
  -29.2844  -18.8609   18.0669 C   0  0  1  0  0  0  0  0  0  0  0  0
  -29.7026  -20.9586   20.8989 C   0  0  0  0  0  0  0  0  0  0  0  0
  -29.3755  -23.8597   20.8040 C   0  0  0  0  0  0  0  0  0  0  0  0
  -18.3218  -28.0516   22.4966 C   0  0  0  0  0  0  0  0  0  0  0  0
  -22.7335  -31.4314   25.8359 C   0  0  0  0  0  0  0  0  0  0  0  0
  -20.8628  -29.7679   25.7990 C   0  0  0  0  0  0  0  0  0  0  0  0
  -20.6459  -31.9141   24.5462 C   0  0  0  0  0  0  0  0  0  0  0  0
  -21.1770  -26.1271   20.8779 C   0  0  0  0  0  0  0  0  0  0  0  0
  -28.1786  -19.3345   19.0015 C   0  0  0  0  0  0  0  0  0  0  0  0
  -27.5441  -24.9646   18.8178 C   0  0  0  0  0  0  0  0  0  1  0  0
  -22.2022  -30.1221   23.6750 C   0  0  1  0  0  0  0  0  0  0  0  0
  -19.7151  -27.8660   21.9159 C   0  0  2  0  0  0  0  0  0  0  0  0
  -21.6368  -30.8020   24.9539 C   0  0  0  0  0  0  0  0  0  0  0  0
  -27.1442  -15.1636   20.8622 N   0  0  0  0  0  0  0  0  0  0  0  0
  -27.2220  -21.3733   18.1051 N   0  0  0  0  0  0  0  0  0  0  0  0
  -27.0695  -22.7241   18.0612 N   0  0  0  0  0  0  0  0  0  0  0  0
  -27.0858  -13.9114   20.3777 N   0  0  0  0  0  0  0  0  0  0  0  0
  -24.0376  -30.5233   22.0644 N   0  0  0  0  0  0  0  0  0  0  0  0
  -29.8602  -15.3030   19.1171 N   0  0  0  0  0  0  0  0  0  0  0  0
  -29.4166  -17.3992   18.0442 N   0  0  0  0  0  0  0  0  0  0  0  0
  -25.7932  -11.9270   20.4230 N   0  0  0  0  0  0  0  0  0  0  0  0
  -23.5105  -14.7196   23.1408 N   0  0  0  0  0  0  0  0  0  0  0  0
  -25.9937  -32.6406   23.1913 N   0  0  0  0  0  0  0  0  0  0  0  0
  -21.1836  -29.5411   22.8071 N   0  0  0  0  0  0  0  0  0  0  0  0
  -19.8610  -26.4456   21.4892 N   0  3  0  0  0  0  0  0  0  0  0  0
  -23.5495  -12.6066   22.2508 O   0  0  0  0  0  0  0  0  0  0  0  0
  -27.1249  -30.8860   22.1597 O   0  0  0  0  0  0  0  0  0  0  0  0
  -22.6900  -32.2751   22.8070 O   0  0  0  0  0  0  0  0  0  0  0  0
  -21.2278  -27.4216   23.7466 O   0  0  0  0  0  0  0  0  0  0  0  0
  -30.4374  -17.3069   20.0964 O   0  0  0  0  0  0  0  0  0  0  0  0
  -24.9024  -19.9671   24.3905 O   0  0  0  0  0  0  0  0  0  0  0  0
  -26.7235  -25.4012   19.8942 O   0  0  0  0  0  0  0  0  0  1  0  0
  -29.0466  -22.4615   27.0378 F   0  0  0  0  0  0  0  0  0  0  0  0
  -24.8004  -20.3714   27.1234 F   0  0  0  0  0  0  0  0  0  0  0  0
  1  2  1  0  0  0  0
  1  5  2  0  0  0  0
  2  6  2  0  0  0  0
  3  8  2  0  0  0  0
  3 15  1  0  0  0  0
  4  9  1  0  0  0  0
  4 15  2  0  0  0  0
  5 17  1  0  0  0  0
  6 19  1  0  0  0  0
  7 10  2  0  0  0  0
  7 18  1  0  0  0  0
  8 23  1  0  0  0  0
  9 23  2  0  0  0  0
 10 24  1  0  0  0  0
 11 12  2  0  0  0  0
 11 25  1  0  0  0  0
 12 26  1  0  0  0  0
 13 20  1  0  0  0  0
 13 24  2  0  0  0  0
 14 26  2  0  0  0  0
 14 27  1  0  0  0  0
 15 28  1  0  0  0  0
 16 28  1  0  0  0  0
 16 31  2  0  0  0  0
 16 32  1  0  0  0  0
 17 19  2  0  0  0  0
 17 37  1  0  0  0  0
 18 20  2  0  0  0  0
 18 38  1  0  0  0  0
 19 49  1  0  0  0  0
 20 39  1  0  0  0  0
 21 22  1  0  0  0  0
 21 29  2  0  0  0  0
 21 53  1  0  0  0  0
 22 30  2  0  0  0  0
 22 54  1  0  0  0  0
 23 82  1  0  0  0  0
 24 83  1  0  0  0  0
 25 27  2  0  0  0  0
 25 82  1  0  0  0  0
 26 84  1  0  0  0  0
 27 85  1  0  0  0  0
 28 65  2  0  0  0  0
 29 60  1  0  0  0  0
 29 66  1  0  0  0  0
 30 61  1  0  0  0  0
 30 67  1  0  0  0  0
 31 68  1  0  0  0  0
 31 72  1  0  0  0  0
 32 73  1  0  0  0  0
 32 77  2  0  0  0  0
 33 50  1  0  0  0  0
 33 74  1  0  0  0  0
 33 78  2  0  0  0  0
 34 62  1  0  0  0  0
 34 69  1  0  0  0  0
 34 79  2  0  0  0  0
 35 63  1  0  0  0  0
 35 75  1  0  0  0  0
 35 80  2  0  0  0  0
 36 70  1  0  0  0  0
 36 71  1  0  0  0  0
 36 81  2  0  0  0  0
 37 40  1  0  0  0  0
 38 50  1  0  0  0  0
 39 69  1  0  0  0  0
 40 43  1  0  0  0  0
 41 44  1  0  0  0  0
 41 46  1  0  0  0  0
 42 45  1  0  0  0  0
 42 47  1  0  0  0  0
 43 49  1  0  0  0  0
 44 51  1  0  0  0  0
 45 52  1  0  0  0  0
 46 70  1  0  0  0  0
 47 71  1  0  0  0  0
 48 51  1  0  0  0  0
 48 70  1  0  0  0  0
 49 74  1  0  0  0  0
 50 69  1  0  0  0  0
 51 68  1  0  0  0  0
 52 60  1  0  0  0  0
 52 71  1  0  0  0  0
 55 63  1  0  0  0  0
 56 64  1  0  0  0  0
 57 64  1  0  0  0  0
 58 64  1  0  0  0  0
 59 76  1  0  0  0  0
 61 83  1  0  0  0  0
 62 64  1  0  0  0  0
 62 75  1  0  0  0  0
 63 76  1  0  0  0  0
 65 68  1  0  0  0  0
 66 67  2  0  0  0  0
M  CHG  1  76   1
M  ISO  4  36 100  61 101  71 100  83 101
M  END
> <Batch ID>
0179

> <Smiles>
CNC(C)C(=O)NC(C(=O)N1Cc2cc([101O:1][101CH2:1]c3nnc(CC4CCC[100N:0]4[100C:0](=O)N4CCCC(n5nc(-c6ccc(Oc7ccc(F)cc7F)cc6)c(C(N)=O)c5N)C4)c(C)c3C)ccc2CC1C(=O)NC1CCCc2ccccc21)C(C)(C)C

> <Shape>
0.299

> <Color>
0.095

> <Negative vol penalty>
0.000

$$$$

  -OEChem-04052322573D

 88 98  0     1  0  0  0  0  0999 V2000
  -17.3327  -25.1501   21.7233 C   0  0  0  0  0  0  0  0  0  0  0  0
  -18.6182  -24.6436   21.8861 C   0  0  0  0  0  0  0  0  0  0  0  0
  -22.4335  -12.2240   19.4973 C   0  0  0  0  0  0  0  0  0  0  0  0
  -22.8372  -10.4897   21.1302 C   0  0  0  0  0  0  0  0  0  0  0  0
  -17.1110  -26.5243   21.8023 C   0  0  0  0  0  0  0  0  0  0  0  0
  -19.6829  -25.5112   22.1269 C   0  0  0  0  0  0  0  0  0  0  0  0
  -22.7332  -23.8657   25.8192 C   0  0  0  0  0  0  0  0  0  0  0  0
  -21.2370  -11.6051   19.1357 C   0  0  0  0  0  0  0  0  0  0  0  0
  -21.6405   -9.8708   20.7687 C   0  0  0  0  0  0  0  0  0  0  0  0
  -23.6385  -22.8563   25.4947 C   0  0  0  0  0  0  0  0  0  0  0  0
  -20.5179   -7.8838   18.2742 C   0  0  0  0  0  0  0  0  0  0  0  0
  -20.5327   -6.5009   18.0923 C   0  0  0  0  0  0  0  0  0  0  0  0
  -25.3898  -24.5022   25.2868 C   0  0  0  0  0  0  0  0  0  0  0  0
  -18.8852   -6.2531   19.8420 C   0  0  0  0  0  0  0  0  0  0  0  0
  -28.4624  -19.7819   21.5359 C   0  0  0  0  0  0  0  0  0  0  0  0
  -23.2337  -11.6662   20.4946 C   0  0  0  0  0  0  0  0  0  0  0  0
  -24.6547  -13.2839   21.8627 C   0  0  0  0  0  0  0  0  0  0  0  0
  -18.1720  -27.4085   22.0537 C   0  0  0  0  0  0  0  0  0  0  0  0
  -23.1476  -25.2044   25.8693 C   0  0  0  0  0  0  0  0  0  0  0  0
  -19.4754  -26.8987   22.2079 C   0  0  0  0  0  0  0  0  0  0  0  0
  -24.4883  -25.5264   25.6146 C   0  0  0  0  0  0  0  0  0  0  0  0
  -20.8405  -10.4285   19.7714 C   0  0  0  0  0  0  0  0  0  0  0  0
  -24.9664  -23.1748   25.2256 C   0  0  0  0  0  0  0  0  0  0  0  0
  -19.6869   -8.4513   19.2401 C   0  0  0  0  0  0  0  0  0  0  0  0
  -19.7164   -5.6856   18.8761 C   0  0  0  0  0  0  0  0  0  0  0  0
  -18.8705   -7.6360   20.0240 C   0  0  0  0  0  0  0  0  0  0  0  0
  -24.4701  -12.3048   20.8681 C   0  0  0  0  0  0  0  0  0  0  0  0
  -29.4548  -19.5220   20.6129 C   0  0  0  0  0  0  0  0  0  0  0  0
  -27.9010  -21.0408   21.4703 C   0  0  0  0  0  0  0  0  0  0  0  0
  -25.9994  -13.5613   21.8261 C   0  0  0  0  0  0  0  0  0  0  0  0
  -29.2495  -21.6066   19.7300 C   0  0  0  0  0  0  0  0  0  0  0  0
  -23.6963  -13.8885   22.7411 C   0  0  0  0  0  0  0  0  0  0  0  0
  -22.3762  -27.8521   24.2887 C   0  0  0  0  0  0  0  0  0  0  0  0
  -24.3368  -29.2534   26.4600 C   0  0  0  0  0  0  0  0  0  0  0  0
  -26.9373  -28.9333   28.6467 C   0  0  0  0  0  0  0  0  0  0  0  0
  -30.4098  -14.7495   18.4617 C   0  0  0  0  0  0  0  0  0  0  0  0
  -17.8910  -28.8899   22.0834 C   0  0  0  0  0  0  0  0  0  0  0  0
  -22.1647  -26.2785   26.2471 C   0  0  0  0  0  0  0  0  0  0  0  0
  -24.9883  -26.9459   25.6751 C   0  0  0  0  0  0  0  0  0  0  0  0
  -19.0133  -29.7103   22.7140 C   0  0  0  0  0  0  0  0  0  0  0  0
  -29.8083  -11.2297   19.4680 C   0  0  0  0  0  0  0  0  0  0  0  0
  -20.3673  -29.2753   22.1625 C   0  0  0  0  0  0  0  0  0  0  0  0
  -28.3519  -11.2685   19.9295 C   0  0  0  0  0  0  0  0  0  0  0  0
  -31.4314  -15.9007   21.5850 C   0  0  0  0  0  0  0  0  0  0  0  0
  -32.1529  -17.2178   21.2618 C   0  0  0  0  0  0  0  0  0  0  0  0
  -30.1022  -12.3045   18.4255 C   0  0  0  0  0  0  0  0  0  0  0  0
  -28.2821  -13.7158   19.3165 C   0  0  0  0  0  0  0  0  0  0  0  0
  -29.2889  -17.0844   21.0959 C   0  0  0  0  0  0  0  0  0  0  0  0
  -31.2466  -17.0271   18.9403 C   0  0  0  0  0  0  0  0  0  0  0  0
  -20.6522  -27.8058   22.4952 C   0  0  1  0  0  0  0  0  0  0  0  0
  -22.5806  -27.6650   25.7655 C   0  0  1  0  0  0  0  0  0  0  0  0
  -27.9663  -12.6800   20.4050 C   0  0  1  0  0  0  0  0  0  0  0  0
  -30.1203  -15.8242   20.7790 C   0  0  1  0  0  0  0  0  0  0  0  0
  -31.4000  -17.9712   20.1435 C   0  0  1  0  0  0  0  0  0  0  0  0
  -29.6865  -22.6199   18.7273 C   0  0  0  0  0  0  0  0  0  0  0  0
  -28.3387  -30.2623   30.2490 C   0  0  0  0  0  0  0  0  0  0  0  0
  -25.8536  -30.4789   24.1132 C   0  0  0  0  0  0  0  0  0  0  0  0
  -27.7380  -30.9806   25.6834 C   0  0  0  0  0  0  0  0  0  0  0  0
  -25.5015  -32.0233   26.0485 C   0  0  0  0  0  0  0  0  0  0  0  0
  -26.0869  -27.2757   30.9463 C   0  0  0  0  0  0  0  0  0  0  0  0
  -26.4221  -20.4165   23.3805 C   0  0  0  0  0  0  0  0  0  0  0  0
  -25.3357  -21.0427   24.2387 C   0  0  0  0  0  0  0  0  0  1  0  0
  -25.8134  -29.5602   26.5258 C   0  0  1  0  0  0  0  0  0  0  0  0
  -27.1054  -29.3877   30.0854 C   0  0  2  0  0  0  0  0  0  0  0  0
  -26.2171  -30.7341   25.5896 C   0  0  0  0  0  0  0  0  0  0  0  0
  -25.6067  -11.9820   20.2451 N   0  0  0  0  0  0  0  0  0  0  0  0
  -29.8747  -20.4145   19.6923 N   0  0  0  0  0  0  0  0  0  0  0  0
  -28.2718  -21.9814   20.5770 N   0  0  0  0  0  0  0  0  0  0  0  0
  -26.5183  -12.7628   20.8497 N   0  0  0  0  0  0  0  0  0  0  0  0
  -30.0453  -18.2669   20.6458 N   0  0  3  0  0  0  0  0  0  0  0  0
  -23.9876  -27.9612   26.0427 N   0  0  0  0  0  0  0  0  0  0  0  0
  -29.6833  -13.6282   18.8861 N   0  0  0  0  0  0  0  0  0  0  0  0
  -30.4759  -15.8403   19.3376 N   0  0  0  0  0  0  0  0  0  0  0  0
  -26.7767  -14.4079   22.5342 N   0  0  0  0  0  0  0  0  0  0  0  0
  -22.3566  -13.4879   22.6456 N   0  0  0  0  0  0  0  0  0  0  0  0
  -26.8781  -21.3482   22.4006 N   0  0  0  0  0  0  0  0  0  0  0  0
  -21.0704  -27.6717   23.8742 N   0  0  0  0  0  0  0  0  0  0  0  0
  -26.1211  -29.7860   27.9339 N   0  0  0  0  0  0  0  0  0  0  0  0
  -27.2414  -28.2097   30.9881 N   0  3  0  0  0  0  0  0  0  0  0  0
  -24.0156  -14.7701   23.5743 O   0  0  0  0  0  0  0  0  0  0  0  0
  -23.3321  -28.1402   23.5782 O   0  0  0  0  0  0  0  0  0  0  0  0
  -23.5233  -30.1258   26.7744 O   0  0  0  0  0  0  0  0  0  0  0  0
  -27.4790  -27.9251   28.1990 O   0  0  0  0  0  0  0  0  0  0  0  0
  -30.9849  -14.7664   17.3658 O   0  0  0  0  0  0  0  0  0  0  0  0
  -19.6728   -9.8244   19.4190 O   0  0  0  0  0  0  0  0  0  0  0  0
  -25.8582  -22.1847   24.9057 O   0  0  0  0  0  0  0  0  0  1  0  0
  -19.7295   -4.3578   18.7002 F   0  0  0  0  0  0  0  0  0  0  0  0
  -18.0691   -8.1755   20.9527 F   0  0  0  0  0  0  0  0  0  0  0  0
  1  2  1  0  0  0  0
  1  5  2  0  0  0  0
  2  6  2  0  0  0  0
  3  8  2  0  0  0  0
  3 16  1  0  0  0  0
  4  9  1  0  0  0  0
  4 16  2  0  0  0  0
  5 18  1  0  0  0  0
  6 20  1  0  0  0  0
  7 10  2  0  0  0  0
  7 19  1  0  0  0  0
  8 22  1  0  0  0  0
  9 22  2  0  0  0  0
 10 23  1  0  0  0  0
 11 12  2  0  0  0  0
 11 24  1  0  0  0  0
 12 25  1  0  0  0  0
 13 21  1  0  0  0  0
 13 23  2  0  0  0  0
 14 25  2  0  0  0  0
 14 26  1  0  0  0  0
 15 28  2  0  0  0  0
 15 29  1  0  0  0  0
 16 27  1  0  0  0  0
 17 27  1  0  0  0  0
 17 30  2  0  0  0  0
 17 32  1  0  0  0  0
 18 20  2  0  0  0  0
 18 37  1  0  0  0  0
 19 21  2  0  0  0  0
 19 38  1  0  0  0  0
 20 50  1  0  0  0  0
 21 39  1  0  0  0  0
 22 85  1  0  0  0  0
 23 86  1  0  0  0  0
 24 26  2  0  0  0  0
 24 85  1  0  0  0  0
 25 87  1  0  0  0  0
 26 88  1  0  0  0  0
 27 66  2  0  0  0  0
 28 67  1  0  0  0  0
 28 70  1  0  0  0  0
 29 68  2  0  0  0  0
 29 76  1  0  0  0  0
 30 69  1  0  0  0  0
 30 74  1  0  0  0  0
 31 55  1  0  0  0  0
 31 67  2  0  0  0  0
 31 68  1  0  0  0  0
 32 75  1  0  0  0  0
 32 80  2  0  0  0  0
 33 51  1  0  0  0  0
 33 77  1  0  0  0  0
 33 81  2  0  0  0  0
 34 63  1  0  0  0  0
 34 71  1  0  0  0  0
 34 82  2  0  0  0  0
 35 64  1  0  0  0  0
 35 78  1  0  0  0  0
 35 83  2  0  0  0  0
 36 72  1  0  0  0  0
 36 73  1  0  0  0  0
 36 84  2  0  0  0  0
 37 40  1  0  0  0  0
 38 51  1  0  0  0  0
 39 71  1  0  0  0  0
 40 42  1  0  0  0  0
 41 43  1  0  0  0  0
 41 46  1  0  0  0  0
 42 50  1  0  0  0  0
 43 52  1  0  0  0  0
 44 45  1  0  0  0  0
 44 53  1  0  0  0  0
 45 54  1  0  0  0  0
 46 72  1  0  0  0  0
 47 52  1  0  0  0  0
 47 72  1  0  0  0  0
 48 53  1  0  0  0  0
 48 70  1  0  0  0  0
 49 54  1  0  0  0  0
 49 73  1  0  0  0  0
 50 77  1  0  0  0  0
 51 71  1  0  0  0  0
 52 69  1  0  0  0  0
 53 73  1  0  0  0  0
 54 70  1  0  0  0  0
 56 64  1  0  0  0  0
 57 65  1  0  0  0  0
 58 65  1  0  0  0  0
 59 65  1  0  0  0  0
 60 79  1  0  0  0  0
 61 62  1  0  0  0  0
 61 76  1  0  0  0  0
 62 86  1  0  0  0  0
 63 65  1  0  0  0  0
 63 78  1  0  0  0  0
 64 79  1  0  0  0  0
 66 69  1  0  0  0  0
M  CHG  1  79   1
M  ISO  4  36 100  62 101  73 100  86 101
M  END
> <Batch ID>
0179

> <Smiles>
CNC(C)C(=O)NC(C(=O)N1Cc2cc([101O:1][101CH2:1]CNc3cc(N4CC5CCC4C[100N:0]5[100C:0](=O)N4CCCC(n5nc(-c6ccc(Oc7ccc(F)cc7F)cc6)c(C(N)=O)c5N)C4)nc(C)n3)ccc2CC1C(=O)NC1CCCc2ccccc21)C(C)(C)C

> <Shape>
0.245

> <Color>
0.097

> <Negative vol penalty>
0.000

$$$$

  -OEChem-04052322573D

 81 89  0     1  0  0  0  0  0999 V2000
  -21.2579  -19.7761   27.3378 C   0  0  0  0  0  0  0  0  0  0  0  0
  -22.5684  -20.0517   26.9609 C   0  0  0  0  0  0  0  0  0  0  0  0
  -27.6556  -12.9118   22.7097 C   0  0  0  0  0  0  0  0  0  0  0  0
  -26.8664  -12.9657   20.4269 C   0  0  0  0  0  0  0  0  0  0  0  0
  -20.1980  -20.2351   26.5569 C   0  0  0  0  0  0  0  0  0  0  0  0
  -22.8198  -20.7856   25.8022 C   0  0  0  0  0  0  0  0  0  0  0  0
  -27.4667  -25.5125   23.0857 C   0  0  0  0  0  0  0  0  0  0  0  0
  -27.0886  -11.6483   22.8759 C   0  0  0  0  0  0  0  0  0  0  0  0
  -26.2995  -11.7022   20.5930 C   0  0  0  0  0  0  0  0  0  0  0  0
  -28.2735  -25.7079   21.9656 C   0  0  0  0  0  0  0  0  0  0  0  0
  -24.3341   -8.6456   20.5255 C   0  0  0  0  0  0  0  0  0  0  0  0
  -23.0409   -8.4466   20.0421 C   0  0  0  0  0  0  0  0  0  0  0  0
  -26.3617  -26.5174   20.7372 C   0  0  0  0  0  0  0  0  0  0  0  0
  -22.2251  -10.1836   21.5099 C   0  0  0  0  0  0  0  0  0  0  0  0
  -30.6643  -22.1485   18.3275 C   0  0  0  0  0  0  0  0  0  0  0  0
  -27.5445  -13.5706   21.4852 C   0  0  0  0  0  0  0  0  0  0  0  0
  -29.4323  -15.1720   20.8694 C   0  0  0  0  0  0  0  0  0  0  0  0
  -20.4362  -20.9833   25.3932 C   0  0  0  0  0  0  0  0  0  0  0  0
  -26.0968  -25.8083   23.0366 C   0  0  0  0  0  0  0  0  0  0  0  0
  -21.7621  -21.2539   25.0043 C   0  0  0  0  0  0  0  0  0  0  0  0
  -25.5402  -26.3272   21.8589 C   0  0  0  0  0  0  0  0  0  0  0  0
  -26.4106  -11.0435   21.8176 C   0  0  0  0  0  0  0  0  0  0  0  0
  -27.7205  -26.2077   20.7902 C   0  0  0  0  0  0  0  0  0  0  0  0
  -24.5728   -9.6135   21.5011 C   0  0  0  0  0  0  0  0  0  0  0  0
  -21.9864   -9.2156   20.5343 C   0  0  0  0  0  0  0  0  0  0  0  0
  -23.5183  -10.3826   21.9933 C   0  0  0  0  0  0  0  0  0  0  0  0
  -28.1295  -14.8760   21.3130 C   0  0  0  0  0  0  0  0  0  0  0  0
  -30.8701  -24.2218   17.3849 C   0  0  0  0  0  0  0  0  0  0  0  0
  -29.5640  -24.5037   17.7197 C   0  0  0  0  0  0  0  0  0  0  0  0
  -29.3584  -22.4306   18.6631 C   0  0  0  0  0  0  0  0  0  0  0  0
  -29.4950  -16.5440   20.8793 C   0  0  0  0  0  0  0  0  0  0  0  0
  -30.4912  -14.2859   20.4829 C   0  0  0  0  0  0  0  0  0  0  0  0
  -23.4241  -24.1201   23.3685 C   0  0  0  0  0  0  0  0  0  0  0  0
  -22.0189  -27.0371   23.1724 C   0  0  0  0  0  0  0  0  0  0  0  0
  -22.2024  -30.2760   22.1127 C   0  0  0  0  0  0  0  0  0  0  0  0
  -27.2798  -21.5293   19.7645 C   0  0  0  0  0  0  0  0  0  0  0  0
  -19.2594  -21.4176   24.5559 C   0  0  0  0  0  0  0  0  0  0  0  0
  -25.2454  -25.6171   24.2617 C   0  0  0  0  0  0  0  0  0  0  0  0
  -24.0792  -26.6798   21.7606 C   0  0  0  0  0  0  0  0  0  0  0  0
  -19.6012  -22.5089   23.5446 C   0  0  0  0  0  0  0  0  0  0  0  0
  -26.3163  -19.9728   22.8184 C   0  0  0  0  0  0  0  0  0  0  0  0
  -20.8877  -22.1638   22.8012 C   0  0  0  0  0  0  0  0  0  0  0  0
  -26.8093  -18.5324   22.6625 C   0  0  0  0  0  0  0  0  0  0  0  0
  -25.7989  -20.5412   21.4982 C   0  0  0  0  0  0  0  0  0  0  0  0
  -27.2254  -18.9973   20.2135 C   0  0  0  0  0  0  0  0  0  0  0  0
  -22.0746  -22.0682   23.7675 C   0  0  1  0  0  0  0  0  0  0  0  0
  -23.7615  -25.4678   23.9407 C   0  0  1  0  0  0  0  0  0  0  0  0
  -27.8163  -18.4039   21.5028 C   0  0  2  0  0  0  0  0  0  0  0  0
  -31.7214  -25.2161   16.6718 C   0  0  0  0  0  0  0  0  0  0  0  0
  -28.3177  -25.8195   15.9741 C   0  0  0  0  0  0  0  0  0  0  0  0
  -20.8837  -32.4105   22.0643 C   0  0  0  0  0  0  0  0  0  0  0  0
  -20.2862  -25.9129   20.9266 C   0  0  0  0  0  0  0  0  0  0  0  0
  -19.6985  -28.2638   20.2974 C   0  0  0  0  0  0  0  0  0  0  0  0
  -19.0718  -27.3824   22.5453 C   0  0  0  0  0  0  0  0  0  0  0  0
  -24.2486  -31.7120   23.6970 C   0  0  0  0  0  0  0  0  0  0  0  0
  -27.8830  -26.2648   18.4183 C   0  0  0  0  0  0  0  0  0  1  0  0
  -28.9292  -25.8426   17.3778 C   0  0  1  0  0  0  0  0  0  0  0  0
  -21.4963  -27.8987   22.0483 C   0  0  1  0  0  0  0  0  0  0  0  0
  -21.9123  -31.5861   22.8227 C   0  0  2  0  0  0  0  0  0  0  0  0
  -20.1654  -27.3561   21.4553 C   0  0  0  0  0  0  0  0  0  0  0  0
  -31.4436  -23.0390   17.6825 N   0  0  0  0  0  0  0  0  0  0  0  0
  -27.4160  -15.9719   21.5850 N   0  0  0  0  0  0  0  0  0  0  0  0
  -28.7848  -23.6133   18.3651 N   0  0  0  0  0  0  0  0  0  0  0  0
  -28.2736  -16.9699   21.3117 N   0  0  0  0  0  0  0  0  0  0  0  0
  -23.2868  -26.4691   22.9834 N   0  0  0  0  0  0  0  0  0  0  0  0
  -26.8075  -20.3885   20.4474 N   0  0  0  0  0  0  0  0  0  0  0  0
  -30.4753  -17.4156   20.5602 N   0  0  0  0  0  0  0  0  0  0  0  0
  -30.2579  -12.9048   20.5318 N   0  0  0  0  0  0  0  0  0  0  0  0
  -28.6054  -21.4401   19.3411 N   0  0  0  0  0  0  0  0  0  0  0  0
  -22.5353  -23.3901   24.1344 N   0  0  0  0  0  0  0  0  0  0  0  0
  -21.4045  -29.2536   22.5812 N   0  0  0  0  0  0  0  0  0  0  0  0
  -23.1588  -32.3926   22.9513 N   0  3  0  0  0  0  0  0  0  0  0  0
  -31.6164  -14.7061   20.1211 O   0  0  0  0  0  0  0  0  0  0  0  0
  -23.9314  -23.7690   22.3097 O   0  0  0  0  0  0  0  0  0  0  0  0
  -21.3307  -26.8799   24.1840 O   0  0  0  0  0  0  0  0  0  0  0  0
  -23.0493  -30.1710   21.2283 O   0  0  0  0  0  0  0  0  0  0  0  0
  -26.5697  -22.5236   19.5936 O   0  0  0  0  0  0  0  0  0  0  0  0
  -25.8574   -9.8104   21.9793 O   0  0  0  0  0  0  0  0  0  0  0  0
  -28.5056  -26.3987   19.6953 O   0  0  0  0  0  0  0  0  0  1  0  0
  -20.7448   -9.0255   20.0690 F   0  0  0  0  0  0  0  0  0  0  0  0
  -23.7416  -11.3148   22.9297 F   0  0  0  0  0  0  0  0  0  0  0  0
  1  2  1  0  0  0  0
  1  5  2  0  0  0  0
  2  6  2  0  0  0  0
  3  8  2  0  0  0  0
  3 16  1  0  0  0  0
  4  9  1  0  0  0  0
  4 16  2  0  0  0  0
  5 18  1  0  0  0  0
  6 20  1  0  0  0  0
  7 10  2  0  0  0  0
  7 19  1  0  0  0  0
  8 22  1  0  0  0  0
  9 22  2  0  0  0  0
 10 23  1  0  0  0  0
 11 12  2  0  0  0  0
 11 24  1  0  0  0  0
 12 25  1  0  0  0  0
 13 21  1  0  0  0  0
 13 23  2  0  0  0  0
 14 25  2  0  0  0  0
 14 26  1  0  0  0  0
 15 30  1  0  0  0  0
 15 61  2  0  0  0  0
 16 27  1  0  0  0  0
 17 27  1  0  0  0  0
 17 31  2  0  0  0  0
 17 32  1  0  0  0  0
 18 20  2  0  0  0  0
 18 37  1  0  0  0  0
 19 21  2  0  0  0  0
 19 38  1  0  0  0  0
 20 46  1  0  0  0  0
 21 39  1  0  0  0  0
 22 78  1  0  0  0  0
 23 79  1  0  0  0  0
 24 26  2  0  0  0  0
 24 78  1  0  0  0  0
 25 80  1  0  0  0  0
 26 81  1  0  0  0  0
 27 62  2  0  0  0  0
 28 29  2  0  0  0  0
 28 49  1  0  0  0  0
 28 61  1  0  0  0  0
 29 57  1  0  0  0  0
 29 63  1  0  0  0  0
 30 63  2  0  0  0  0
 30 69  1  0  0  0  0
 31 64  1  0  0  0  0
 31 67  1  0  0  0  0
 32 68  1  0  0  0  0
 32 73  2  0  0  0  0
 33 47  1  0  0  0  0
 33 70  1  0  0  0  0
 33 74  2  0  0  0  0
 34 58  1  0  0  0  0
 34 65  1  0  0  0  0
 34 75  2  0  0  0  0
 35 59  1  0  0  0  0
 35 71  1  0  0  0  0
 35 76  2  0  0  0  0
 36 66  1  0  0  0  0
 36 69  1  0  0  0  0
 36 77  2  0  0  0  0
 37 40  1  0  0  0  0
 38 47  1  0  0  0  0
 39 65  1  0  0  0  0
 40 42  1  0  0  0  0
 41 43  1  0  0  0  0
 41 44  1  0  0  0  0
 42 46  1  0  0  0  0
 43 48  1  0  0  0  0
 44 66  1  0  0  0  0
 45 48  1  0  0  0  0
 45 66  1  0  0  0  0
 46 70  1  0  0  0  0
 47 65  1  0  0  0  0
 48 64  1  0  0  0  0
 50 57  1  0  0  0  0
 51 59  1  0  0  0  0
 52 60  1  0  0  0  0
 53 60  1  0  0  0  0
 54 60  1  0  0  0  0
 55 72  1  0  0  0  0
 56 57  1  0  0  0  0
 56 79  1  0  0  0  0
 58 60  1  0  0  0  0
 58 71  1  0  0  0  0
 59 72  1  0  0  0  0
 62 64  1  0  0  0  0
M  CHG  1  72   1
M  ISO  4  36 100  56 101  69 100  79 101
M  END
> <Batch ID>
0179

> <Smiles>
CNC(C)C(=O)NC(C(=O)N1Cc2cc([101O:1][101CH2:1]C(C)c3nc([100NH:0][100C:0](=O)N4CCCC(n5nc(-c6ccc(Oc7ccc(F)cc7F)cc6)c(C(N)=O)c5N)C4)cnc3C)ccc2CC1C(=O)NC1CCCc2ccccc21)C(C)(C)C

> <Shape>
0.225

> <Color>
0.092

> <Negative vol penalty>
0.000

$$$$

  -OEChem-04052322573D

 84 93  0     1  0  0  0  0  0999 V2000
  -27.7193  -37.0811   18.7345 C   0  0  0  0  0  0  0  0  0  0  0  0
  -28.2017  -35.8805   18.2233 C   0  0  0  0  0  0  0  0  0  0  0  0
  -23.0435  -10.1982   20.1210 C   0  0  0  0  0  0  0  0  0  0  0  0
  -24.1107   -9.3953   22.1344 C   0  0  0  0  0  0  0  0  0  0  0  0
  -27.1316  -37.1131   19.9985 C   0  0  0  0  0  0  0  0  0  0  0  0
  -28.0976  -34.7114   18.9761 C   0  0  0  0  0  0  0  0  0  0  0  0
  -27.1673  -27.6488   18.2207 C   0  0  0  0  0  0  0  0  0  0  0  0
  -22.2642   -9.0423   20.0732 C   0  0  0  0  0  0  0  0  0  0  0  0
  -23.3314   -8.2394   22.0866 C   0  0  0  0  0  0  0  0  0  0  0  0
  -27.7438  -26.4392   18.6058 C   0  0  0  0  0  0  0  0  0  0  0  0
  -20.1701   -7.3348   22.8667 C   0  0  0  0  0  0  0  0  0  0  0  0
  -19.5808   -6.9028   24.0548 C   0  0  0  0  0  0  0  0  0  0  0  0
  -30.2658  -20.4746   20.8837 C   0  0  0  0  0  0  0  0  0  0  0  0
  -26.6381  -26.5999   20.7437 C   0  0  0  0  0  0  0  0  0  0  0  0
  -20.7766   -4.8101   23.8871 C   0  0  0  0  0  0  0  0  0  0  0  0
  -30.7642  -21.6940   21.2946 C   0  0  0  0  0  0  0  0  0  0  0  0
  -23.9668  -10.3746   21.1516 C   0  0  0  0  0  0  0  0  0  0  0  0
  -24.4604  -12.7782   21.8495 C   0  0  0  0  0  0  0  0  0  0  0  0
  -27.0115  -35.9420   20.7632 C   0  0  0  0  0  0  0  0  0  0  0  0
  -26.3292  -28.3496   19.0998 C   0  0  0  0  0  0  0  0  0  0  0  0
  -27.5090  -34.7281   20.2521 C   0  0  0  0  0  0  0  0  0  0  0  0
  -26.0502  -27.8169   20.3664 C   0  0  0  0  0  0  0  0  0  0  0  0
  -22.4081   -8.0630   21.0560 C   0  0  0  0  0  0  0  0  0  0  0  0
  -27.4816  -25.9160   19.8686 C   0  0  0  0  0  0  0  0  0  0  0  0
  -21.0627   -6.5044   22.1887 C   0  0  0  0  0  0  0  0  0  0  0  0
  -19.8840   -5.6405   24.5650 C   0  0  0  0  0  0  0  0  0  0  0  0
  -21.3660   -5.2422   22.6990 C   0  0  0  0  0  0  0  0  0  0  0  0
  -24.7725  -11.5681   21.2012 C   0  0  0  0  0  0  0  0  0  0  0  0
  -29.2833  -20.5266   19.9161 C   0  0  0  0  0  0  0  0  0  0  0  0
  -25.5407  -13.5892   21.6013 C   0  0  0  0  0  0  0  0  0  0  0  0
  -29.3818  -22.7971   19.8666 C   0  0  0  0  0  0  0  0  0  0  0  0
  -23.2980  -13.1369   22.6082 C   0  0  0  0  0  0  0  0  0  0  0  0
  -26.4268  -31.2036   20.4959 C   0  0  0  0  0  0  0  0  0  0  0  0
  -23.4497  -30.3860   21.4913 C   0  0  0  0  0  0  0  0  0  0  0  0
  -21.2054  -27.9112   22.1876 C   0  0  0  0  0  0  0  0  0  0  0  0
  -29.1237  -15.5367   17.6647 C   0  0  0  0  0  0  0  0  0  0  0  0
  -26.4114  -36.0349   22.1438 C   0  0  0  0  0  0  0  0  0  0  0  0
  -25.6938  -29.6398   18.6592 C   0  0  0  0  0  0  0  0  0  0  0  0
  -25.1410  -28.5201   21.3398 C   0  0  0  0  0  0  0  0  0  0  0  0
  -26.0015  -34.6829   22.7219 C   0  0  0  0  0  0  0  0  0  0  0  0
  -30.0827  -12.5612   19.6423 C   0  0  0  0  0  0  0  0  0  0  0  0
  -27.1119  -33.6568   22.5193 C   0  0  0  0  0  0  0  0  0  0  0  0
  -28.7437  -12.1003   20.2176 C   0  0  0  0  0  0  0  0  0  0  0  0
  -29.9094  -13.2900   18.3127 C   0  0  0  0  0  0  0  0  0  0  0  0
  -28.2591  -19.2038   18.1001 C   0  0  0  0  0  0  0  0  0  0  0  0
  -28.8629  -17.9679   17.4422 C   0  0  0  0  0  0  0  0  0  0  0  0
  -27.6166  -13.9617   18.9386 C   0  0  0  0  0  0  0  0  0  0  0  0
  -28.1357  -16.9066   19.5687 C   0  0  0  0  0  0  0  0  0  0  0  0
  -27.3920  -33.4342   21.0282 C   0  0  1  0  0  0  0  0  0  0  0  0
  -25.2659  -30.5242   19.8264 C   0  0  1  0  0  0  0  0  0  0  0  0
  -27.7505  -13.2728   20.3044 C   0  0  1  0  0  0  0  0  0  0  0  0
  -28.7771  -18.0986   20.3071 C   0  0  2  0  0  0  0  0  0  0  0  0
  -28.0107  -18.3140   21.6179 C   0  0  0  0  0  0  0  0  0  0  0  0
  -18.8654  -27.5508   23.0197 C   0  0  0  0  0  0  0  0  0  0  0  0
  -24.3713  -30.9890   24.3368 C   0  0  0  0  0  0  0  0  0  0  0  0
  -22.3741  -29.7336   25.1754 C   0  0  0  0  0  0  0  0  0  0  0  0
  -22.0643  -31.7888   23.7959 C   0  0  0  0  0  0  0  0  0  0  0  0
  -20.3889  -26.5901   19.6683 C   0  0  0  0  0  0  0  0  0  0  0  0
  -28.8916  -24.0868   19.3013 C   0  0  0  0  0  0  0  0  0  1  0  0
  -22.8837  -29.6670   22.6920 C   0  0  1  0  0  0  0  0  0  0  0  0
  -19.7497  -27.7320   21.7958 C   0  0  2  0  0  0  0  0  0  0  0  0
  -22.9421  -30.5321   23.9827 C   0  0  0  0  0  0  0  0  0  0  0  0
  -30.3436  -22.8790   20.8055 N   0  0  0  0  0  0  0  0  0  0  0  0
  -25.9582  -11.6030   20.5872 N   0  0  0  0  0  0  0  0  0  0  0  0
  -28.8157  -21.6747   19.3835 N   0  0  0  0  0  0  0  0  0  0  0  0
  -26.4006  -12.8448   20.8485 N   0  0  0  0  0  0  0  0  0  0  0  0
  -28.7548  -19.3154   19.4733 N   0  0  3  0  0  0  0  0  0  0  0  0
  -24.5488  -29.7816   20.8650 N   0  0  0  0  0  0  0  0  0  0  0  0
  -28.9291  -14.3707   18.4196 N   0  0  0  0  0  0  0  0  0  0  0  0
  -28.6494  -16.7430   18.2056 N   0  0  0  0  0  0  0  0  0  0  0  0
  -25.8294  -14.8595   21.9556 N   0  0  0  0  0  0  0  0  0  0  0  0
  -22.2825  -12.1838   22.7656 N   0  0  0  0  0  0  0  0  0  0  0  0
  -26.3769  -32.5835   20.4448 N   0  0  0  0  0  0  0  0  0  0  0  0
  -21.5391  -29.2427   22.3174 N   0  0  0  0  0  0  0  0  0  0  0  0
  -19.5923  -26.5357   20.9210 N   0  3  0  0  0  0  0  0  0  0  0  0
  -23.1564  -14.2746   23.1173 O   0  0  0  0  0  0  0  0  0  0  0  0
  -27.3022  -30.5259   21.0214 O   0  0  0  0  0  0  0  0  0  0  0  0
  -22.9311  -31.4413   21.1185 O   0  0  0  0  0  0  0  0  0  0  0  0
  -21.9689  -26.9645   22.3648 O   0  0  0  0  0  0  0  0  0  0  0  0
  -29.7066  -15.5068   16.5728 O   0  0  0  0  0  0  0  0  0  0  0  0
  -21.6476   -6.9351   21.0097 O   0  0  0  0  0  0  0  0  0  0  0  0
  -28.0473  -24.7278   20.2498 O   0  0  0  0  0  0  0  0  0  1  0  0
  -19.3192   -5.2264   25.7068 F   0  0  0  0  0  0  0  0  0  0  0  0
  -22.2236   -4.4405   22.0528 F   0  0  0  0  0  0  0  0  0  0  0  0
  1  2  1  0  0  0  0
  1  5  2  0  0  0  0
  2  6  2  0  0  0  0
  3  8  2  0  0  0  0
  3 17  1  0  0  0  0
  4  9  1  0  0  0  0
  4 17  2  0  0  0  0
  5 19  1  0  0  0  0
  6 21  1  0  0  0  0
  7 10  2  0  0  0  0
  7 20  1  0  0  0  0
  8 23  1  0  0  0  0
  9 23  2  0  0  0  0
 10 24  1  0  0  0  0
 11 12  2  0  0  0  0
 11 25  1  0  0  0  0
 12 26  1  0  0  0  0
 13 16  1  0  0  0  0
 13 29  2  0  0  0  0
 14 22  1  0  0  0  0
 14 24  2  0  0  0  0
 15 26  2  0  0  0  0
 15 27  1  0  0  0  0
 16 63  2  0  0  0  0
 17 28  1  0  0  0  0
 18 28  1  0  0  0  0
 18 30  2  0  0  0  0
 18 32  1  0  0  0  0
 19 21  2  0  0  0  0
 19 37  1  0  0  0  0
 20 22  2  0  0  0  0
 20 38  1  0  0  0  0
 21 49  1  0  0  0  0
 22 39  1  0  0  0  0
 23 81  1  0  0  0  0
 24 82  1  0  0  0  0
 25 27  2  0  0  0  0
 25 81  1  0  0  0  0
 26 83  1  0  0  0  0
 27 84  1  0  0  0  0
 28 64  2  0  0  0  0
 29 65  1  0  0  0  0
 29 67  1  0  0  0  0
 30 66  1  0  0  0  0
 30 71  1  0  0  0  0
 31 59  1  0  0  0  0
 31 63  1  0  0  0  0
 31 65  2  0  0  0  0
 32 72  1  0  0  0  0
 32 76  2  0  0  0  0
 33 50  1  0  0  0  0
 33 73  1  0  0  0  0
 33 77  2  0  0  0  0
 34 60  1  0  0  0  0
 34 68  1  0  0  0  0
 34 78  2  0  0  0  0
 35 61  1  0  0  0  0
 35 74  1  0  0  0  0
 35 79  2  0  0  0  0
 36 69  1  0  0  0  0
 36 70  1  0  0  0  0
 36 80  2  0  0  0  0
 37 40  1  0  0  0  0
 38 50  1  0  0  0  0
 39 68  1  0  0  0  0
 40 42  1  0  0  0  0
 41 43  1  0  0  0  0
 41 44  1  0  0  0  0
 42 49  1  0  0  0  0
 43 51  1  0  0  0  0
 44 69  1  0  0  0  0
 45 46  1  0  0  0  0
 45 67  1  0  0  0  0
 46 70  1  0  0  0  0
 47 51  1  0  0  0  0
 47 69  1  0  0  0  0
 48 52  1  0  0  0  0
 48 70  1  0  0  0  0
 49 73  1  0  0  0  0
 50 68  1  0  0  0  0
 51 66  1  0  0  0  0
 52 53  1  0  0  0  0
 52 67  1  0  0  0  0
 54 61  1  0  0  0  0
 55 62  1  0  0  0  0
 56 62  1  0  0  0  0
 57 62  1  0  0  0  0
 58 75  1  0  0  0  0
 59 82  1  0  0  0  0
 60 62  1  0  0  0  0
 60 74  1  0  0  0  0
 61 75  1  0  0  0  0
 64 66  1  0  0  0  0
M  CHG  1  75   1
M  ISO  4  36 100  59 101  70 100  82 101
M  END
> <Batch ID>
0179

> <Smiles>
CNC(C)C(=O)NC(C(=O)N1Cc2cc([101O:1][101CH2:1]c3nccc(N4CC[100N:0]([100C:0](=O)N5CCCC(n6nc(-c7ccc(Oc8ccc(F)cc8F)cc7)c(C(N)=O)c6N)C5)CC4C)n3)ccc2CC1C(=O)NC1CCCc2ccccc21)C(C)(C)C

> <Shape>
0.347

> <Color>
0.133

> <Negative vol penalty>
0.000

$$$$

  -OEChem-04052322573D

 81 89  0     1  0  0  0  0  0999 V2000
  -24.1850  -30.0655   26.7020 C   0  0  0  0  0  0  0  0  0  0  0  0
  -25.2707  -29.1957   26.6916 C   0  0  0  0  0  0  0  0  0  0  0  0
  -22.9990   -9.8920   19.9847 C   0  0  0  0  0  0  0  0  0  0  0  0
  -23.7219   -9.9506   22.2893 C   0  0  0  0  0  0  0  0  0  0  0  0
  -23.2649  -30.0426   25.6548 C   0  0  0  0  0  0  0  0  0  0  0  0
  -25.4363  -28.3017   25.6343 C   0  0  0  0  0  0  0  0  0  0  0  0
  -30.7315  -26.4115   23.2066 C   0  0  0  0  0  0  0  0  0  0  0  0
  -22.2322   -8.7584   20.2540 C   0  0  0  0  0  0  0  0  0  0  0  0
  -22.9551   -8.8169   22.5586 C   0  0  0  0  0  0  0  0  0  0  0  0
  -31.4909  -25.2575   23.3952 C   0  0  0  0  0  0  0  0  0  0  0  0
  -23.2001   -5.4765   22.0979 C   0  0  0  0  0  0  0  0  0  0  0  0
  -23.7870   -4.4618   22.8539 C   0  0  0  0  0  0  0  0  0  0  0  0
  -30.4567  -24.2670   21.4538 C   0  0  0  0  0  0  0  0  0  0  0  0
  -29.7589  -17.7012   22.6580 C   0  0  0  0  0  0  0  0  0  0  0  0
  -22.0615   -4.7101   24.5266 C   0  0  0  0  0  0  0  0  0  0  0  0
  -23.7438  -10.4881   21.0023 C   0  0  0  0  0  0  0  0  0  0  0  0
  -24.1292  -13.0031   20.8185 C   0  0  0  0  0  0  0  0  0  0  0  0
  -23.4246  -29.1546   24.5793 C   0  0  0  0  0  0  0  0  0  0  0  0
  -29.8196  -26.4978   22.1448 C   0  0  0  0  0  0  0  0  0  0  0  0
  -24.5167  -28.2661   24.5723 C   0  0  0  0  0  0  0  0  0  0  0  0
  -29.6889  -25.4242   21.2525 C   0  0  0  0  0  0  0  0  0  0  0  0
  -30.2470  -18.9390   23.0617 C   0  0  0  0  0  0  0  0  0  0  0  0
  -31.5229  -19.3359   22.6775 C   0  0  0  0  0  0  0  0  0  0  0  0
  -22.2103   -8.2208   21.5410 C   0  0  0  0  0  0  0  0  0  0  0  0
  -31.3514  -24.1840   22.5204 C   0  0  0  0  0  0  0  0  0  0  0  0
  -22.0439   -6.1081   22.5563 C   0  0  0  0  0  0  0  0  0  0  0  0
  -23.2177   -4.0786   24.0682 C   0  0  0  0  0  0  0  0  0  0  0  0
  -21.4746   -5.7248   23.7706 C   0  0  0  0  0  0  0  0  0  0  0  0
  -24.5365  -11.6589   20.7246 C   0  0  0  0  0  0  0  0  0  0  0  0
  -32.2650  -18.4654   21.8956 C   0  0  0  0  0  0  0  0  0  0  0  0
  -30.5798  -16.9040   21.8768 C   0  0  0  0  0  0  0  0  0  0  0  0
  -25.2393  -13.7246   20.4528 C   0  0  0  0  0  0  0  0  0  0  0  0
  -22.8608  -13.5507   21.2020 C   0  0  0  0  0  0  0  0  0  0  0  0
  -26.6705  -26.8651   21.9169 C   0  0  0  0  0  0  0  0  0  0  0  0
  -27.3159  -27.0696   18.7445 C   0  0  0  0  0  0  0  0  0  0  0  0
  -29.4199  -26.3269   16.1622 C   0  0  0  0  0  0  0  0  0  0  0  0
  -30.7185  -14.6868   20.6889 C   0  0  0  0  0  0  0  0  0  0  0  0
  -22.3781  -29.1340   23.4934 C   0  0  0  0  0  0  0  0  0  0  0  0
  -29.0274  -27.7598   21.9394 C   0  0  0  0  0  0  0  0  0  0  0  0
  -28.7386  -25.4745   20.0850 C   0  0  0  0  0  0  0  0  0  0  0  0
  -22.8307  -28.4151   22.2250 C   0  0  0  0  0  0  0  0  0  0  0  0
  -29.6026  -12.2262   18.3700 C   0  0  0  0  0  0  0  0  0  0  0  0
  -23.4918  -27.0850   22.5723 C   0  0  0  0  0  0  0  0  0  0  0  0
  -28.1516  -11.9698   18.7835 C   0  0  0  0  0  0  0  0  0  0  0  0
  -30.5019  -12.4736   19.5798 C   0  0  0  0  0  0  0  0  0  0  0  0
  -28.5852  -13.2667   20.9089 C   0  0  0  0  0  0  0  0  0  0  0  0
  -24.7442  -27.2989   23.4308 C   0  0  1  0  0  0  0  0  0  0  0  0
  -27.7550  -27.5410   21.1266 C   0  0  1  0  0  0  0  0  0  0  0  0
  -27.6287  -13.0764   19.7204 C   0  0  2  0  0  0  0  0  0  0  0  0
  -29.3858  -19.8204   23.9047 C   0  0  0  0  0  0  0  0  0  0  0  0
  -33.6428  -18.8375   21.4535 C   0  0  0  0  0  0  0  0  0  0  0  0
  -29.6610  -26.5932   13.6786 C   0  0  0  0  0  0  0  0  0  0  0  0
  -25.2534  -24.8633   18.3101 C   0  0  0  0  0  0  0  0  0  0  0  0
  -26.2068  -24.5187   16.0209 C   0  0  0  0  0  0  0  0  0  0  0  0
  -25.1772  -26.7092   16.6245 C   0  0  0  0  0  0  0  0  0  0  0  0
  -31.9198  -27.8837   16.4550 C   0  0  0  0  0  0  0  0  0  0  0  0
  -32.0794  -20.6741   23.0994 C   0  0  0  0  0  0  0  0  0  0  0  0
  -31.5126  -21.8241   22.2739 C   0  0  0  0  0  0  0  0  0  1  0  0
  -27.4196  -26.0805   17.6087 C   0  0  1  0  0  0  0  0  0  0  0  0
  -29.9822  -27.1841   15.0426 C   0  0  2  0  0  0  0  0  0  0  0  0
  -26.0308  -25.5409   17.1641 C   0  0  0  0  0  0  0  0  0  0  0  0
  -25.8062  -11.5311   20.3301 N   0  0  0  0  0  0  0  0  0  0  0  0
  -31.8248  -17.2554   21.4839 N   0  0  0  0  0  0  0  0  0  0  0  0
  -26.2062  -12.8044   20.1727 N   0  0  0  0  0  0  0  0  0  0  0  0
  -27.9816  -26.7277   19.9301 N   0  0  0  0  0  0  0  0  0  0  0  0
  -29.9460  -13.5373   20.4191 N   0  0  0  0  0  0  0  0  0  0  0  0
  -25.4728  -15.0500   20.3466 N   0  0  0  0  0  0  0  0  0  0  0  0
  -21.8288  -12.6677   21.5474 N   0  0  0  0  0  0  0  0  0  0  0  0
  -30.0734  -15.6445   21.4707 N   0  0  0  0  0  0  0  0  0  0  0  0
  -25.8517  -27.7371   22.6087 N   0  0  0  0  0  0  0  0  0  0  0  0
  -28.1667  -26.7513   16.5503 N   0  0  0  0  0  0  0  0  0  0  0  0
  -31.4629  -27.2958   15.1695 N   0  3  0  0  0  0  0  0  0  0  0  0
  -22.6440  -14.7861   21.2215 O   0  0  0  0  0  0  0  0  0  0  0  0
  -26.5820  -25.6430   21.8990 O   0  0  0  0  0  0  0  0  0  0  0  0
  -26.6740  -28.1105   18.5832 O   0  0  0  0  0  0  0  0  0  0  0  0
  -30.0298  -25.3737   16.6418 O   0  0  0  0  0  0  0  0  0  0  0  0
  -31.8576  -14.8243   20.2356 O   0  0  0  0  0  0  0  0  0  0  0  0
  -21.4620   -7.1148   21.8042 O   0  0  0  0  0  0  0  0  0  0  0  0
  -32.0909  -23.0562   22.7026 O   0  0  0  0  0  0  0  0  0  1  0  0
  -23.7805   -3.1031   24.7934 F   0  0  0  0  0  0  0  0  0  0  0  0
  -20.3633   -6.3271   24.2156 F   0  0  0  0  0  0  0  0  0  0  0  0
  1  2  1  0  0  0  0
  1  5  2  0  0  0  0
  2  6  2  0  0  0  0
  3  8  2  0  0  0  0
  3 16  1  0  0  0  0
  4  9  1  0  0  0  0
  4 16  2  0  0  0  0
  5 18  1  0  0  0  0
  6 20  1  0  0  0  0
  7 10  2  0  0  0  0
  7 19  1  0  0  0  0
  8 24  1  0  0  0  0
  9 24  2  0  0  0  0
 10 25  1  0  0  0  0
 11 12  2  0  0  0  0
 11 26  1  0  0  0  0
 12 27  1  0  0  0  0
 13 21  1  0  0  0  0
 13 25  2  0  0  0  0
 14 22  2  0  0  0  0
 14 31  1  0  0  0  0
 15 27  2  0  0  0  0
 15 28  1  0  0  0  0
 16 29  1  0  0  0  0
 17 29  1  0  0  0  0
 17 32  2  0  0  0  0
 17 33  1  0  0  0  0
 18 20  2  0  0  0  0
 18 38  1  0  0  0  0
 19 21  2  0  0  0  0
 19 39  1  0  0  0  0
 20 47  1  0  0  0  0
 21 40  1  0  0  0  0
 22 23  1  0  0  0  0
 22 50  1  0  0  0  0
 23 30  2  0  0  0  0
 23 57  1  0  0  0  0
 24 78  1  0  0  0  0
 25 79  1  0  0  0  0
 26 28  2  0  0  0  0
 26 78  1  0  0  0  0
 27 80  1  0  0  0  0
 28 81  1  0  0  0  0
 29 62  2  0  0  0  0
 30 51  1  0  0  0  0
 30 63  1  0  0  0  0
 31 63  2  0  0  0  0
 31 69  1  0  0  0  0
 32 64  1  0  0  0  0
 32 67  1  0  0  0  0
 33 68  1  0  0  0  0
 33 73  2  0  0  0  0
 34 48  1  0  0  0  0
 34 70  1  0  0  0  0
 34 74  2  0  0  0  0
 35 59  1  0  0  0  0
 35 65  1  0  0  0  0
 35 75  2  0  0  0  0
 36 60  1  0  0  0  0
 36 71  1  0  0  0  0
 36 76  2  0  0  0  0
 37 66  1  0  0  0  0
 37 69  1  0  0  0  0
 37 77  2  0  0  0  0
 38 41  1  0  0  0  0
 39 48  1  0  0  0  0
 40 65  1  0  0  0  0
 41 43  1  0  0  0  0
 42 44  1  0  0  0  0
 42 45  1  0  0  0  0
 43 47  1  0  0  0  0
 44 49  1  0  0  0  0
 45 66  1  0  0  0  0
 46 49  1  0  0  0  0
 46 66  1  0  0  0  0
 47 70  1  0  0  0  0
 48 65  1  0  0  0  0
 49 64  1  0  0  0  0
 52 60  1  0  0  0  0
 53 61  1  0  0  0  0
 54 61  1  0  0  0  0
 55 61  1  0  0  0  0
 56 72  1  0  0  0  0
 57 58  1  0  0  0  0
 58 79  1  0  0  0  0
 59 61  1  0  0  0  0
 59 71  1  0  0  0  0
 60 72  1  0  0  0  0
 62 64  1  0  0  0  0
M  CHG  1  72   1
M  ISO  4  37 100  58 101  69 100  79 101
M  END
> <Batch ID>
0179

> <Smiles>
CNC(C)C(=O)NC(C(=O)N1Cc2cc([101O:1][101CH2:1]Cc3c(C)cc([100NH:0][100C:0](=O)N4CCCC(n5nc(-c6ccc(Oc7ccc(F)cc7F)cc6)c(C(N)=O)c5N)C4)nc3C)ccc2CC1C(=O)NC1CCCc2ccccc21)C(C)(C)C

> <Shape>
0.252

> <Color>
0.202

> <Negative vol penalty>
0.000

$$$$

  -OEChem-04052322573D

 83 92  0     1  0  0  0  0  0999 V2000
  -28.6908  -31.8924   26.9464 C   0  0  0  0  0  0  0  0  0  0  0  0
  -28.6091  -30.6230   26.3829 C   0  0  0  0  0  0  0  0  0  0  0  0
  -23.3731   -9.9020   21.9124 C   0  0  0  0  0  0  0  0  0  0  0  0
  -24.0093  -11.2764   23.7949 C   0  0  0  0  0  0  0  0  0  0  0  0
  -27.5804  -32.7353   26.9267 C   0  0  0  0  0  0  0  0  0  0  0  0
  -27.4165  -30.1954   25.8005 C   0  0  0  0  0  0  0  0  0  0  0  0
  -28.1428  -27.9091   21.3407 C   0  0  0  0  0  0  0  0  0  0  0  0
  -22.7228   -9.0205   22.7758 C   0  0  0  0  0  0  0  0  0  0  0  0
  -23.3589  -10.3948   24.6583 C   0  0  0  0  0  0  0  0  0  0  0  0
  -28.5943  -26.5903   21.3673 C   0  0  0  0  0  0  0  0  0  0  0  0
  -23.5721   -6.5210   24.8868 C   0  0  0  0  0  0  0  0  0  0  0  0
  -23.7788   -5.1552   24.6937 C   0  0  0  0  0  0  0  0  0  0  0  0
  -26.3423  -25.8179   20.9781 C   0  0  0  0  0  0  0  0  0  0  0  0
  -27.6617  -21.1124   22.2549 C   0  0  0  0  0  0  0  0  0  0  0  0
  -21.4105   -4.8484   24.3277 C   0  0  0  0  0  0  0  0  0  0  0  0
  -24.0165  -11.0300   22.4220 C   0  0  0  0  0  0  0  0  0  0  0  0
  -24.1381  -13.0687   20.8935 C   0  0  0  0  0  0  0  0  0  0  0  0
  -26.3765  -32.3215   26.3352 C   0  0  0  0  0  0  0  0  0  0  0  0
  -26.7837  -28.1923   21.1431 C   0  0  0  0  0  0  0  0  0  0  0  0
  -26.2885  -31.0331   25.7741 C   0  0  0  0  0  0  0  0  0  0  0  0
  -25.8766  -27.1413   20.9469 C   0  0  0  0  0  0  0  0  0  0  0  0
  -28.2831  -19.8710   22.3330 C   0  0  0  0  0  0  0  0  0  0  0  0
  -27.8230  -21.8940   21.1163 C   0  0  0  0  0  0  0  0  0  0  0  0
  -22.7157   -9.2669   24.1488 C   0  0  0  0  0  0  0  0  0  0  0  0
  -27.6935  -25.5443   21.1889 C   0  0  0  0  0  0  0  0  0  0  0  0
  -22.2845   -7.0506   24.8004 C   0  0  0  0  0  0  0  0  0  0  0  0
  -22.6981   -4.3189   24.4142 C   0  0  0  0  0  0  0  0  0  0  0  0
  -21.2037   -6.2143   24.5208 C   0  0  0  0  0  0  0  0  0  0  0  0
  -24.6889  -11.9407   21.5306 C   0  0  0  0  0  0  0  0  0  0  0  0
  -29.0492  -19.4603   21.2541 C   0  0  0  0  0  0  0  0  0  0  0  0
  -28.6099  -21.3927   20.0919 C   0  0  0  0  0  0  0  0  0  0  0  0
  -25.1767  -13.5912   20.1621 C   0  0  0  0  0  0  0  0  0  0  0  0
  -22.8068  -13.5971   20.9571 C   0  0  0  0  0  0  0  0  0  0  0  0
  -24.5175  -29.6183   22.8561 C   0  0  0  0  0  0  0  0  0  0  0  0
  -22.7708  -29.2267   20.1509 C   0  0  0  0  0  0  0  0  0  0  0  0
  -22.2764  -27.5067   17.2451 C   0  0  0  0  0  0  0  0  0  0  0  0
  -30.6140  -15.0863   19.9192 C   0  0  0  0  0  0  0  0  0  0  0  0
  -25.1888  -33.2499   26.3801 C   0  0  0  0  0  0  0  0  0  0  0  0
  -26.3170  -29.6212   21.0904 C   0  0  0  0  0  0  0  0  0  0  0  0
  -24.4105  -27.3928   20.7109 C   0  0  0  0  0  0  0  0  0  0  0  0
  -24.0753  -32.8618   25.4107 C   0  0  0  0  0  0  0  0  0  0  0  0
  -29.7160  -11.7144   19.0496 C   0  0  0  0  0  0  0  0  0  0  0  0
  -23.7866  -31.3667   25.5002 C   0  0  0  0  0  0  0  0  0  0  0  0
  -28.3083  -11.5423   19.6104 C   0  0  0  0  0  0  0  0  0  0  0  0
  -30.5513  -12.6199   19.9448 C   0  0  0  0  0  0  0  0  0  0  0  0
  -28.9913  -16.7636   21.1082 C   0  0  0  0  0  0  0  0  0  0  0  0
  -30.4759  -17.6350   19.8712 C   0  0  0  0  0  0  0  0  0  0  0  0
  -28.5226  -13.8384   20.6889 C   0  0  0  0  0  0  0  0  0  0  0  0
  -25.0198  -30.5425   25.1110 C   0  0  1  0  0  0  0  0  0  0  0  0
  -29.8132  -18.0723   21.1978 C   0  0  0  0  0  0  0  0  0  0  0  0
  -24.8301  -29.7757   21.3949 C   0  0  1  0  0  0  0  0  0  0  0  0
  -27.6451  -12.9102   19.8258 C   0  0  2  0  0  0  0  0  0  0  0  0
  -28.1219  -19.0220   23.5449 C   0  0  0  0  0  0  0  0  0  0  0  0
  -28.8199  -22.1882   18.8451 C   0  0  0  0  0  0  0  0  0  0  0  0
  -20.7456  -27.3920   15.2599 C   0  0  0  0  0  0  0  0  0  0  0  0
  -20.6527  -27.8555   21.8665 C   0  0  0  0  0  0  0  0  0  0  0  0
  -19.6413  -26.9436   19.7656 C   0  0  0  0  0  0  0  0  0  0  0  0
  -19.7435  -29.4092   20.1305 C   0  0  0  0  0  0  0  0  0  0  0  0
  -24.4816  -28.1045   15.3640 C   0  0  0  0  0  0  0  0  0  0  0  0
  -27.1540  -23.2339   21.0253 C   0  0  0  0  0  0  0  0  0  1  0  0
  -21.8694  -28.1445   19.6077 C   0  0  1  0  0  0  0  0  0  0  0  0
  -22.0298  -27.9799   15.8240 C   0  0  2  0  0  0  0  0  0  0  0  0
  -20.5040  -28.0831   20.3489 C   0  0  0  0  0  0  0  0  0  0  0  0
  -25.9773  -11.7566   21.2302 N   0  0  0  0  0  0  0  0  0  0  0  0
  -29.2293  -20.1917   20.1315 N   0  0  0  0  0  0  0  0  0  0  0  0
  -26.2447  -12.7759   20.3962 N   0  0  0  0  0  0  0  0  0  0  0  0
  -24.0019  -28.8067   20.6743 N   0  0  0  0  0  0  0  0  0  0  0  0
  -29.9007  -13.9118   20.1839 N   0  0  0  0  0  0  0  0  0  0  0  0
  -30.0039  -16.2907   20.1796 N   0  0  0  0  0  0  0  0  0  0  0  0
  -25.2714  -14.6638   19.3479 N   0  0  0  0  0  0  0  0  0  0  0  0
  -21.8636  -12.9372   21.7566 N   0  0  0  0  0  0  0  0  0  0  0  0
  -25.1773  -30.5170   23.6726 N   0  0  0  0  0  0  0  0  0  0  0  0
  -21.7601  -28.3861   18.1731 N   0  0  0  0  0  0  0  0  0  0  0  0
  -23.1596  -27.5759   14.9400 N   0  3  0  0  0  0  0  0  0  0  0  0
  -22.4594  -14.6145   20.3107 O   0  0  0  0  0  0  0  0  0  0  0  0
  -23.7345  -28.7471   23.2161 O   0  0  0  0  0  0  0  0  0  0  0  0
  -22.3995  -30.4022   20.1059 O   0  0  0  0  0  0  0  0  0  0  0  0
  -22.8647  -26.4596   17.5058 O   0  0  0  0  0  0  0  0  0  0  0  0
  -31.7752  -15.0627   19.4902 O   0  0  0  0  0  0  0  0  0  0  0  0
  -22.0809   -8.4070   24.9915 O   0  0  0  0  0  0  0  0  0  0  0  0
  -28.1314  -24.2562   21.2151 O   0  0  0  0  0  0  0  0  0  1  0  0
  -22.8970   -3.0075   24.2273 F   0  0  0  0  0  0  0  0  0  0  0  0
  -19.9646   -6.7174   24.4354 F   0  0  0  0  0  0  0  0  0  0  0  0
  1  2  1  0  0  0  0
  1  5  2  0  0  0  0
  2  6  2  0  0  0  0
  3  8  2  0  0  0  0
  3 16  1  0  0  0  0
  4  9  1  0  0  0  0
  4 16  2  0  0  0  0
  5 18  1  0  0  0  0
  6 20  1  0  0  0  0
  7 10  2  0  0  0  0
  7 19  1  0  0  0  0
  8 24  1  0  0  0  0
  9 24  2  0  0  0  0
 10 25  1  0  0  0  0
 11 12  2  0  0  0  0
 11 26  1  0  0  0  0
 12 27  1  0  0  0  0
 13 21  1  0  0  0  0
 13 25  2  0  0  0  0
 14 22  2  0  0  0  0
 14 23  1  0  0  0  0
 15 27  2  0  0  0  0
 15 28  1  0  0  0  0
 16 29  1  0  0  0  0
 17 29  1  0  0  0  0
 17 32  2  0  0  0  0
 17 33  1  0  0  0  0
 18 20  2  0  0  0  0
 18 38  1  0  0  0  0
 19 21  2  0  0  0  0
 19 39  1  0  0  0  0
 20 49  1  0  0  0  0
 21 40  1  0  0  0  0
 22 30  1  0  0  0  0
 22 53  1  0  0  0  0
 23 31  2  0  0  0  0
 23 60  1  0  0  0  0
 24 80  1  0  0  0  0
 25 81  1  0  0  0  0
 26 28  2  0  0  0  0
 26 80  1  0  0  0  0
 27 82  1  0  0  0  0
 28 83  1  0  0  0  0
 29 64  2  0  0  0  0
 30 50  1  0  0  0  0
 30 65  2  0  0  0  0
 31 54  1  0  0  0  0
 31 65  1  0  0  0  0
 32 66  1  0  0  0  0
 32 70  1  0  0  0  0
 33 71  1  0  0  0  0
 33 75  2  0  0  0  0
 34 51  1  0  0  0  0
 34 72  1  0  0  0  0
 34 76  2  0  0  0  0
 35 61  1  0  0  0  0
 35 67  1  0  0  0  0
 35 77  2  0  0  0  0
 36 62  1  0  0  0  0
 36 73  1  0  0  0  0
 36 78  2  0  0  0  0
 37 68  1  0  0  0  0
 37 69  1  0  0  0  0
 37 79  2  0  0  0  0
 38 41  1  0  0  0  0
 39 51  1  0  0  0  0
 40 67  1  0  0  0  0
 41 43  1  0  0  0  0
 42 44  1  0  0  0  0
 42 45  1  0  0  0  0
 43 49  1  0  0  0  0
 44 52  1  0  0  0  0
 45 68  1  0  0  0  0
 46 50  1  0  0  0  0
 46 69  1  0  0  0  0
 47 50  1  0  0  0  0
 47 69  1  0  0  0  0
 48 52  1  0  0  0  0
 48 68  1  0  0  0  0
 49 72  1  0  0  0  0
 51 67  1  0  0  0  0
 52 66  1  0  0  0  0
 55 62  1  0  0  0  0
 56 63  1  0  0  0  0
 57 63  1  0  0  0  0
 58 63  1  0  0  0  0
 59 74  1  0  0  0  0
 60 81  1  0  0  0  0
 61 63  1  0  0  0  0
 61 73  1  0  0  0  0
 62 74  1  0  0  0  0
 64 66  1  0  0  0  0
M  CHG  1  74   1
M  ISO  4  37 100  60 101  69 100  81 101
M  END
> <Batch ID>
0179

> <Smiles>
CNC(C)C(=O)NC(C(=O)N1Cc2cc([101O:1][101CH2:1]c3cc(C)c(C4C[100N:0]([100C:0](=O)N5CCCC(n6nc(-c7ccc(Oc8ccc(F)cc8F)cc7)c(C(N)=O)c6N)C5)C4)nc3C)ccc2CC1C(=O)NC1CCCc2ccccc21)C(C)(C)C

> <Shape>
0.320

> <Color>
0.163

> <Negative vol penalty>
0.000

$$$$

  -OEChem-04052322573D

 87 96  0     1  0  0  0  0  0999 V2000
  -27.6794  -38.0472   22.0019 C   0  0  0  0  0  0  0  0  0  0  0  0
  -28.1965  -36.8391   21.5452 C   0  0  0  0  0  0  0  0  0  0  0  0
  -23.5261  -11.9970   19.4704 C   0  0  0  0  0  0  0  0  0  0  0  0
  -23.6890  -13.6620   17.7274 C   0  0  0  0  0  0  0  0  0  0  0  0
  -26.7125  -38.0550   23.0064 C   0  0  0  0  0  0  0  0  0  0  0  0
  -27.7476  -35.6381   22.0934 C   0  0  0  0  0  0  0  0  0  0  0  0
  -27.0434  -30.2973   19.1805 C   0  0  0  0  0  0  0  0  0  0  0  0
  -22.4010  -11.4558   18.8484 C   0  0  0  0  0  0  0  0  0  0  0  0
  -22.5640  -13.1208   17.1052 C   0  0  0  0  0  0  0  0  0  0  0  0
  -27.8472  -29.1612   19.0972 C   0  0  0  0  0  0  0  0  0  0  0  0
  -21.7388   -9.4260   16.2265 C   0  0  0  0  0  0  0  0  0  0  0  0
  -21.6709   -8.0383   16.1030 C   0  0  0  0  0  0  0  0  0  0  0  0
  -26.5857  -28.1449   20.8847 C   0  0  0  0  0  0  0  0  0  0  0  0
  -30.6484  -23.4986   18.0251 C   0  0  0  0  0  0  0  0  0  0  0  0
  -19.6331   -8.0225   17.4008 C   0  0  0  0  0  0  0  0  0  0  0  0
  -24.1701  -13.1001   18.9100 C   0  0  0  0  0  0  0  0  0  0  0  0
  -26.6768  -13.3035   19.3374 C   0  0  0  0  0  0  0  0  0  0  0  0
  -26.2446  -36.8531   23.5604 C   0  0  0  0  0  0  0  0  0  0  0  0
  -26.0099  -30.3702   20.1255 C   0  0  0  0  0  0  0  0  0  0  0  0
  -26.7745  -35.6299   23.1071 C   0  0  0  0  0  0  0  0  0  0  0  0
  -25.7686  -29.2820   20.9762 C   0  0  0  0  0  0  0  0  0  0  0  0
  -30.1677  -25.6696   18.9415 C   0  0  0  0  0  0  0  0  0  0  0  0
  -21.9200  -12.0177   17.6658 C   0  0  0  0  0  0  0  0  0  0  0  0
  -27.6203  -28.0859   19.9512 C   0  0  0  0  0  0  0  0  0  0  0  0
  -20.7539  -10.1120   16.9373 C   0  0  0  0  0  0  0  0  0  0  0  0
  -29.9620  -24.7060   17.9604 C   0  0  0  0  0  0  0  0  0  0  0  0
  -20.6181   -7.3366   16.6901 C   0  0  0  0  0  0  0  0  0  0  0  0
  -19.7011   -9.4102   17.5244 C   0  0  0  0  0  0  0  0  0  0  0  0
  -25.3319  -13.6599   19.5524 C   0  0  0  0  0  0  0  0  0  0  0  0
  -31.5224  -23.3052   19.0826 C   0  0  0  0  0  0  0  0  0  0  0  0
  -31.0630  -25.3790   19.9581 C   0  0  0  0  0  0  0  0  0  0  0  0
  -27.3877  -14.1200   20.1826 C   0  0  0  0  0  0  0  0  0  0  0  0
  -27.2335  -12.3222   18.4527 C   0  0  0  0  0  0  0  0  0  0  0  0
  -25.3682  -32.2498   22.6073 C   0  0  0  0  0  0  0  0  0  0  0  0
  -22.5868  -30.5813   22.6545 C   0  0  0  0  0  0  0  0  0  0  0  0
  -20.9095  -27.7219   21.8438 C   0  0  0  0  0  0  0  0  0  0  0  0
  -28.3638  -19.1370   22.4237 C   0  0  0  0  0  0  0  0  0  0  0  0
  -25.2328  -36.9140   24.6772 C   0  0  0  0  0  0  0  0  0  0  0  0
  -25.1347  -31.5920   20.1847 C   0  0  0  0  0  0  0  0  0  0  0  0
  -24.6590  -29.3023   21.9945 C   0  0  0  0  0  0  0  0  0  0  0  0
  -24.5382  -35.5809   24.9432 C   0  0  0  0  0  0  0  0  0  0  0  0
  -25.8265  -17.1419   23.9266 C   0  0  0  0  0  0  0  0  0  0  0  0
  -25.5588  -34.4485   24.9971 C   0  0  0  0  0  0  0  0  0  0  0  0
  -25.5785  -16.0331   22.9024 C   0  0  0  0  0  0  0  0  0  0  0  0
  -31.7410  -18.9043   20.8637 C   0  0  0  0  0  0  0  0  0  0  0  0
  -26.1234  -18.4786   23.2504 C   0  0  0  0  0  0  0  0  0  0  0  0
  -26.9700  -17.3345   21.2384 C   0  0  0  0  0  0  0  0  0  0  0  0
  -32.7834  -19.9773   20.5905 C   0  0  0  0  0  0  0  0  0  0  0  0
  -30.5301  -20.9281   20.6382 C   0  0  0  0  0  0  0  0  0  0  0  0
  -26.2949  -34.3052   23.6596 C   0  0  1  0  0  0  0  0  0  0  0  0
  -24.4387  -31.7639   21.5313 C   0  0  1  0  0  0  0  0  0  0  0  0
  -26.7215  -15.9552   21.8724 C   0  0  2  0  0  0  0  0  0  0  0  0
  -30.5858  -19.6713   21.4840 C   0  0  1  0  0  0  0  0  0  0  0  0
  -31.3239  -26.3753   21.0404 C   0  0  0  0  0  0  0  0  0  0  0  0
  -18.6568  -26.6348   22.0464 C   0  0  0  0  0  0  0  0  0  0  0  0
  -23.1474  -29.9722   25.5913 C   0  0  0  0  0  0  0  0  0  0  0  0
  -21.4276  -28.1568   25.4710 C   0  0  0  0  0  0  0  0  0  0  0  0
  -20.7640  -30.5291   25.0779 C   0  0  0  0  0  0  0  0  0  0  0  0
  -20.5887  -27.5723   18.9055 C   0  0  0  0  0  0  0  0  0  0  0  0
  -28.9479  -23.8829   15.9730 C   0  0  0  0  0  0  0  0  0  0  0  0
  -29.4402  -26.9810   18.8915 C   0  0  0  0  0  0  0  0  0  1  0  0
  -32.2758  -22.0212   19.1838 C   0  0  0  0  0  0  0  0  0  0  0  0
  -22.1129  -29.3118   23.3198 C   0  0  1  0  0  0  0  0  0  0  0  0
  -19.5621  -27.4978   21.1813 C   0  0  2  0  0  0  0  0  0  0  0  0
  -21.8852  -29.4925   24.8472 C   0  0  0  0  0  0  0  0  0  0  0  0
  -25.1942  -14.6274   20.4629 N   0  0  0  0  0  0  0  0  0  0  0  0
  -31.7482  -24.2176   20.0543 N   0  0  0  0  0  0  0  0  0  0  0  0
  -26.4616  -14.8857   20.8276 N   0  0  0  0  0  0  0  0  0  0  0  0
  -23.8346  -30.5219   22.0179 N   0  0  0  0  0  0  0  0  0  0  0  0
  -27.2178  -18.3364   22.2871 N   0  0  0  0  0  0  0  0  0  0  0  0
  -28.7085  -14.2504   20.4296 N   0  0  0  0  0  0  0  0  0  0  0  0
  -26.3607  -11.5706   17.6542 N   0  0  0  0  0  0  0  0  0  0  0  0
  -25.4591  -33.6260   22.6929 N   0  0  0  0  0  0  0  0  0  0  0  0
  -20.9270  -28.8842   22.5854 N   0  0  0  0  0  0  0  0  0  0  0  0
  -29.3561  -18.9343   21.4724 N   0  0  0  0  0  0  0  0  0  0  0  0
  -31.9938  -21.2662   20.4428 N   0  3  2  0  0  0  0  0  0  0  0  0
  -19.7382  -26.8218   19.8649 N   0  3  0  0  0  0  0  0  0  0  0  0
  -28.4674  -12.1065   18.3846 O   0  0  0  0  0  0  0  0  0  0  0  0
  -25.9581  -31.4364   23.3088 O   0  0  0  0  0  0  0  0  0  0  0  0
  -21.8729  -31.5865   22.6919 O   0  0  0  0  0  0  0  0  0  0  0  0
  -21.8510  -26.9418   21.7192 O   0  0  0  0  0  0  0  0  0  0  0  0
  -28.4954  -19.9669   23.3297 O   0  0  0  0  0  0  0  0  0  0  0  0
  -20.8223  -11.4898   17.0583 O   0  0  0  0  0  0  0  0  0  0  0  0
  -29.0957  -24.9273   16.9333 O   0  0  0  0  0  0  0  0  0  0  0  0
  -28.4038  -26.9761   19.8724 O   0  0  0  0  0  0  0  0  0  1  0  0
  -20.5522   -6.0041   16.5701 F   0  0  0  0  0  0  0  0  0  0  0  0
  -18.7513  -10.0639   18.2074 F   0  0  0  0  0  0  0  0  0  0  0  0
  1  2  1  0  0  0  0
  1  5  2  0  0  0  0
  2  6  2  0  0  0  0
  3  8  2  0  0  0  0
  3 16  1  0  0  0  0
  4  9  1  0  0  0  0
  4 16  2  0  0  0  0
  5 18  1  0  0  0  0
  6 20  1  0  0  0  0
  7 10  2  0  0  0  0
  7 19  1  0  0  0  0
  8 23  1  0  0  0  0
  9 23  2  0  0  0  0
 10 24  1  0  0  0  0
 11 12  2  0  0  0  0
 11 25  1  0  0  0  0
 12 27  1  0  0  0  0
 13 21  1  0  0  0  0
 13 24  2  0  0  0  0
 14 26  2  0  0  0  0
 14 30  1  0  0  0  0
 15 27  2  0  0  0  0
 15 28  1  0  0  0  0
 16 29  1  0  0  0  0
 17 29  1  0  0  0  0
 17 32  2  0  0  0  0
 17 33  1  0  0  0  0
 18 20  2  0  0  0  0
 18 38  1  0  0  0  0
 19 21  2  0  0  0  0
 19 39  1  0  0  0  0
 20 50  1  0  0  0  0
 21 40  1  0  0  0  0
 22 26  1  0  0  0  0
 22 31  2  0  0  0  0
 22 61  1  0  0  0  0
 23 83  1  0  0  0  0
 24 85  1  0  0  0  0
 25 28  2  0  0  0  0
 25 83  1  0  0  0  0
 26 84  1  0  0  0  0
 27 86  1  0  0  0  0
 28 87  1  0  0  0  0
 29 66  2  0  0  0  0
 30 62  1  0  0  0  0
 30 67  2  0  0  0  0
 31 54  1  0  0  0  0
 31 67  1  0  0  0  0
 32 68  1  0  0  0  0
 32 71  1  0  0  0  0
 33 72  1  0  0  0  0
 33 78  2  0  0  0  0
 34 51  1  0  0  0  0
 34 73  1  0  0  0  0
 34 79  2  0  0  0  0
 35 63  1  0  0  0  0
 35 69  1  0  0  0  0
 35 80  2  0  0  0  0
 36 64  1  0  0  0  0
 36 74  1  0  0  0  0
 36 81  2  0  0  0  0
 37 70  1  0  0  0  0
 37 75  1  0  0  0  0
 37 82  2  0  0  0  0
 38 41  1  0  0  0  0
 39 51  1  0  0  0  0
 40 69  1  0  0  0  0
 41 43  1  0  0  0  0
 42 44  1  0  0  0  0
 42 46  1  0  0  0  0
 43 50  1  0  0  0  0
 44 52  1  0  0  0  0
 45 48  1  0  0  0  0
 45 53  1  0  0  0  0
 46 70  1  0  0  0  0
 47 52  1  0  0  0  0
 47 70  1  0  0  0  0
 48 76  1  0  0  0  0
 49 53  1  0  0  0  0
 49 76  1  0  0  0  0
 50 73  1  0  0  0  0
 51 69  1  0  0  0  0
 52 68  1  0  0  0  0
 53 75  1  0  0  0  0
 55 64  1  0  0  0  0
 56 65  1  0  0  0  0
 57 65  1  0  0  0  0
 58 65  1  0  0  0  0
 59 77  1  0  0  0  0
 60 84  1  0  0  0  0
 61 85  1  0  0  0  0
 62 76  1  0  0  0  0
 63 65  1  0  0  0  0
 63 74  1  0  0  0  0
 64 77  1  0  0  0  0
 66 68  1  0  0  0  0
M  CHG  2  76   1  77   1
M  ISO  4  37 100  61 101  75 100  85 101
M  END
> <Batch ID>
0179

> <Smiles>
CNC(C)C(=O)NC(C(=O)N1Cc2cc([101O:1][101CH2:1]c3c(OC)cc(CN4CCC([100NH:0][100C:0](=O)N5CCCC(n6nc(-c7ccc(Oc8ccc(F)cc8F)cc7)c(C(N)=O)c6N)C5)C4)nc3C)ccc2CC1C(=O)NC1CCCc2ccccc21)C(C)(C)C

> <Shape>
0.270

> <Color>
0.063

> <Negative vol penalty>
0.000

$$$$

  -OEChem-04052322573D

 81 90  0     1  0  0  0  0  0999 V2000
  -27.6880  -17.1271   17.5194 C   0  0  0  0  0  0  0  0  0  0  0  0
  -26.8261  -18.1334   17.9404 C   0  0  0  0  0  0  0  0  0  0  0  0
  -22.8710  -16.9200   22.5795 C   0  0  0  0  0  0  0  0  0  0  0  0
  -22.2038  -17.7663   20.4171 C   0  0  0  0  0  0  0  0  0  0  0  0
  -29.0322  -17.1683   17.8837 C   0  0  0  0  0  0  0  0  0  0  0  0
  -27.3104  -19.1875   18.7158 C   0  0  0  0  0  0  0  0  0  0  0  0
  -24.4411  -25.5127   19.2848 C   0  0  0  0  0  0  0  0  0  0  0  0
  -23.0448  -15.6503   22.0289 C   0  0  0  0  0  0  0  0  0  0  0  0
  -22.3776  -16.4965   19.8665 C   0  0  0  0  0  0  0  0  0  0  0  0
  -23.8242  -26.7426   19.5149 C   0  0  0  0  0  0  0  0  0  0  0  0
  -24.0116  -12.2666   21.1172 C   0  0  0  0  0  0  0  0  0  0  0  0
  -25.1650  -11.5624   21.4626 C   0  0  0  0  0  0  0  0  0  0  0  0
  -25.6008  -27.3616   21.0342 C   0  0  0  0  0  0  0  0  0  0  0  0
  -26.5232  -13.3276   20.5265 C   0  0  0  0  0  0  0  0  0  0  0  0
  -20.2537  -27.2554   22.1126 C   0  0  0  0  0  0  0  0  0  0  0  0
  -22.4504  -17.9780   21.7736 C   0  0  0  0  0  0  0  0  0  0  0  0
  -23.2331  -20.3115   22.4443 C   0  0  0  0  0  0  0  0  0  0  0  0
  -29.5298  -18.2171   18.6745 C   0  0  0  0  0  0  0  0  0  0  0  0
  -25.6496  -25.2084   19.9175 C   0  0  0  0  0  0  0  0  0  0  0  0
  -28.6688  -19.2595   19.0739 C   0  0  0  0  0  0  0  0  0  0  0  0
  -26.2298  -26.1363   20.7980 C   0  0  0  0  0  0  0  0  0  0  0  0
  -22.7982  -15.4385   20.6725 C   0  0  0  0  0  0  0  0  0  0  0  0
  -24.4025  -27.6646   20.3876 C   0  0  0  0  0  0  0  0  0  0  0  0
  -24.1140  -13.5014   20.4764 C   0  0  0  0  0  0  0  0  0  0  0  0
  -26.4208  -12.0929   21.1673 C   0  0  0  0  0  0  0  0  0  0  0  0
  -25.3697  -14.0319   20.1811 C   0  0  0  0  0  0  0  0  0  0  0  0
  -22.2701  -19.2898   22.3418 C   0  0  0  0  0  0  0  0  0  0  0  0
  -20.3122  -28.6314   22.0256 C   0  0  0  0  0  0  0  0  0  0  0  0
  -19.1848  -26.7470   22.8220 C   0  0  0  0  0  0  0  0  0  0  0  0
  -22.5700  -21.3484   23.0539 C   0  0  0  0  0  0  0  0  0  0  0  0
  -18.4079  -28.8401   23.2492 C   0  0  0  0  0  0  0  0  0  0  0  0
  -24.6044  -20.3223   22.0259 C   0  0  0  0  0  0  0  0  0  0  0  0
  -28.4189  -22.7257   20.4103 C   0  0  0  0  0  0  0  0  0  0  0  0
  -29.7242  -25.4975   20.2563 C   0  0  0  0  0  0  0  0  0  0  0  0
  -30.8003  -28.6703   19.6141 C   0  0  0  0  0  0  0  0  0  0  0  0
  -18.0943  -24.6148   23.6037 C   0  0  0  0  0  0  0  0  0  0  0  0
  -30.9949  -18.2163   19.0332 C   0  0  0  0  0  0  0  0  0  0  0  0
  -26.3179  -23.8712   19.7469 C   0  0  0  0  0  0  0  0  0  0  0  0
  -27.5127  -25.7520   21.4831 C   0  0  0  0  0  0  0  0  0  0  0  0
  -31.3180  -19.1242   20.2153 C   0  0  0  0  0  0  0  0  0  0  0  0
  -18.0402  -21.4894   25.3084 C   0  0  0  0  0  0  0  0  0  0  0  0
  -30.6965  -20.4964   20.0020 C   0  0  0  0  0  0  0  0  0  0  0  0
  -19.2151  -20.7226   24.6970 C   0  0  0  0  0  0  0  0  0  0  0  0
  -22.2927  -30.2898   21.9690 C   0  0  0  0  0  0  0  0  0  0  0  0
  -17.3218  -22.3488   24.2697 C   0  0  0  0  0  0  0  0  0  0  0  0
  -19.3635  -22.4918   22.8984 C   0  0  0  0  0  0  0  0  0  0  0  0
  -29.1667  -20.3998   19.9435 C   0  0  1  0  0  0  0  0  0  0  0  0
  -21.4302  -29.2578   21.2806 C   0  0  1  0  0  0  0  0  0  0  0  0
  -27.8546  -23.9577   19.7661 C   0  0  1  0  0  0  0  0  0  0  0  0
  -20.1581  -21.6621   23.9202 C   0  0  2  0  0  0  0  0  0  0  0  0
  -22.8548  -28.9329   21.6735 C   0  0  1  0  0  0  0  0  0  1  0  0
  -17.3833  -29.7196   23.8817 C   0  0  0  0  0  0  0  0  0  0  0  0
  -32.8942  -30.0421   19.4369 C   0  0  0  0  0  0  0  0  0  0  0  0
  -29.9523  -25.5355   23.2977 C   0  0  0  0  0  0  0  0  0  0  0  0
  -31.3717  -27.5878   23.0948 C   0  0  0  0  0  0  0  0  0  0  0  0
  -32.1391  -25.4382   22.0883 C   0  0  0  0  0  0  0  0  0  0  0  0
  -30.2640  -29.3344   16.7803 C   0  0  0  0  0  0  0  0  0  0  0  0
  -30.2319  -26.7003   21.0106 C   0  0  1  0  0  0  0  0  0  0  0  0
  -31.8761  -29.2003   18.6834 C   0  0  2  0  0  0  0  0  0  0  0  0
  -30.8975  -26.3148   22.3618 C   0  0  0  0  0  0  0  0  0  0  0  0
  -21.0854  -19.6453   22.8460 N   0  0  0  0  0  0  0  0  0  0  0  0
  -19.4029  -29.4571   22.5839 N   0  0  0  0  0  0  0  0  0  0  0  0
  -18.2399  -27.5131   23.4057 N   0  0  0  0  0  0  0  0  0  0  0  0
  -21.2997  -20.9020   23.2712 N   0  0  0  0  0  0  0  0  0  0  0  0
  -28.4131  -25.0878   20.5277 N   0  0  0  0  0  0  0  0  0  0  0  0
  -18.2772  -23.2160   23.5768 N   0  0  0  0  0  0  0  0  0  0  0  0
  -22.9554  -22.5894   23.4198 N   0  0  0  0  0  0  0  0  0  0  0  0
  -25.1260  -19.1732   21.4161 N   0  0  0  0  0  0  0  0  0  0  0  0
  -19.0833  -25.3385   22.9383 N   0  0  0  0  0  0  0  0  0  0  0  0
  -28.6283  -21.6781   19.5338 N   0  0  0  0  0  0  0  0  0  0  0  0
  -31.1123  -27.4156   20.0933 N   0  0  0  0  0  0  0  0  0  0  0  0
  -31.2679  -30.0430   17.6153 N   0  3  0  0  0  0  0  0  0  0  0  0
  -25.3498  -21.3156   22.2029 O   0  0  0  0  0  0  0  0  0  0  0  0
  -28.6495  -22.7248   21.6139 O   0  0  0  0  0  0  0  0  0  0  0  0
  -30.4695  -24.9313   19.4519 O   0  0  0  0  0  0  0  0  0  0  0  0
  -29.7865  -29.3073   19.8914 O   0  0  0  0  0  0  0  0  0  0  0  0
  -17.1461  -25.1340   24.1981 O   0  0  0  0  0  0  0  0  0  0  0  0
  -22.9679  -14.1997   20.1349 O   0  0  0  0  0  0  0  0  0  0  0  0
  -23.7973  -28.8652   20.6041 O   0  0  0  0  0  0  0  0  0  1  0  0
  -27.5283  -11.4172   21.5004 F   0  0  0  0  0  0  0  0  0  0  0  0
  -25.4744  -15.2182   19.5666 F   0  0  0  0  0  0  0  0  0  0  0  0
  1  2  1  0  0  0  0
  1  5  2  0  0  0  0
  2  6  2  0  0  0  0
  3  8  2  0  0  0  0
  3 16  1  0  0  0  0
  4  9  1  0  0  0  0
  4 16  2  0  0  0  0
  5 18  1  0  0  0  0
  6 20  1  0  0  0  0
  7 10  2  0  0  0  0
  7 19  1  0  0  0  0
  8 22  1  0  0  0  0
  9 22  2  0  0  0  0
 10 23  1  0  0  0  0
 11 12  2  0  0  0  0
 11 24  1  0  0  0  0
 12 25  1  0  0  0  0
 13 21  1  0  0  0  0
 13 23  2  0  0  0  0
 14 25  2  0  0  0  0
 14 26  1  0  0  0  0
 15 28  1  0  0  0  0
 15 29  2  0  0  0  0
 16 27  1  0  0  0  0
 17 27  1  0  0  0  0
 17 30  2  0  0  0  0
 17 32  1  0  0  0  0
 18 20  2  0  0  0  0
 18 37  1  0  0  0  0
 19 21  2  0  0  0  0
 19 38  1  0  0  0  0
 20 47  1  0  0  0  0
 21 39  1  0  0  0  0
 22 78  1  0  0  0  0
 23 79  1  0  0  0  0
 24 26  2  0  0  0  0
 24 78  1  0  0  0  0
 25 80  1  0  0  0  0
 26 81  1  0  0  0  0
 27 61  2  0  0  0  0
 28 48  1  0  0  0  0
 28 62  2  0  0  0  0
 29 63  1  0  0  0  0
 29 69  1  0  0  0  0
 30 64  1  0  0  0  0
 30 67  1  0  0  0  0
 31 52  1  0  0  0  0
 31 62  1  0  0  0  0
 31 63  2  0  0  0  0
 32 68  1  0  0  0  0
 32 73  2  0  0  0  0
 33 49  1  0  0  0  0
 33 70  1  0  0  0  0
 33 74  2  0  0  0  0
 34 58  1  0  0  0  0
 34 65  1  0  0  0  0
 34 75  2  0  0  0  0
 35 59  1  0  0  0  0
 35 71  1  0  0  0  0
 35 76  2  0  0  0  0
 36 66  1  0  0  0  0
 36 69  1  0  0  0  0
 36 77  2  0  0  0  0
 37 40  1  0  0  0  0
 38 49  1  0  0  0  0
 39 65  1  0  0  0  0
 40 42  1  0  0  0  0
 41 43  1  0  0  0  0
 41 45  1  0  0  0  0
 42 47  1  0  0  0  0
 43 50  1  0  0  0  0
 44 48  1  0  0  0  0
 44 51  1  0  0  0  0
 45 66  1  0  0  0  0
 46 50  1  0  0  0  0
 46 66  1  0  0  0  0
 47 70  1  0  0  0  0
 48 51  1  0  0  0  0
 49 65  1  0  0  0  0
 50 64  1  0  0  0  0
 51 79  1  0  0  0  0
 53 59  1  0  0  0  0
 54 60  1  0  0  0  0
 55 60  1  0  0  0  0
 56 60  1  0  0  0  0
 57 72  1  0  0  0  0
 58 60  1  0  0  0  0
 58 71  1  0  0  0  0
 59 72  1  0  0  0  0
 61 64  1  0  0  0  0
M  CHG  1  72   1
M  ISO  4  36 100  51 101  69 100  79 101
M  END
> <Batch ID>
0179

> <Smiles>
CNC(C)C(=O)NC(C(=O)N1Cc2cc([101O:1][101CH:1]3CC3c3cc([100NH:0][100C:0](=O)N4CCCC(n5nc(-c6ccc(Oc7ccc(F)cc7F)cc6)c(C(N)=O)c5N)C4)nc(C)n3)ccc2CC1C(=O)NC1CCCc2ccccc21)C(C)(C)C

> <Shape>
0.211

> <Color>
0.058

> <Negative vol penalty>
0.000

$$$$

  -OEChem-04052322573D

 82 91  0     1  0  0  0  0  0999 V2000
  -22.6453  -28.4237   23.2378 C   0  0  0  0  0  0  0  0  0  0  0  0
  -23.3432  -27.2514   23.5100 C   0  0  0  0  0  0  0  0  0  0  0  0
  -23.0782   -9.8646   19.9482 C   0  0  0  0  0  0  0  0  0  0  0  0
  -23.8282   -9.8912   22.2447 C   0  0  0  0  0  0  0  0  0  0  0  0
  -21.3071  -28.3632   22.8514 C   0  0  0  0  0  0  0  0  0  0  0  0
  -22.7029  -26.0179   23.3970 C   0  0  0  0  0  0  0  0  0  0  0  0
  -25.5308  -22.5743   20.9908 C   0  0  0  0  0  0  0  0  0  0  0  0
  -22.3352   -8.7123   20.2042 C   0  0  0  0  0  0  0  0  0  0  0  0
  -23.0850   -8.7389   22.5007 C   0  0  0  0  0  0  0  0  0  0  0  0
  -26.5534  -21.9686   21.7195 C   0  0  0  0  0  0  0  0  0  0  0  0
  -21.0988   -6.0092   23.8506 C   0  0  0  0  0  0  0  0  0  0  0  0
  -20.3375   -5.9738   25.0188 C   0  0  0  0  0  0  0  0  0  0  0  0
  -25.1532  -20.0350   22.0656 C   0  0  0  0  0  0  0  0  0  0  0  0
  -29.7235  -17.7365   22.6956 C   0  0  0  0  0  0  0  0  0  0  0  0
  -19.0930   -7.9031   24.2664 C   0  0  0  0  0  0  0  0  0  0  0  0
  -32.2447  -18.5521   21.9089 C   0  0  0  0  0  0  0  0  0  0  0  0
  -23.8248  -10.4541   20.9685 C   0  0  0  0  0  0  0  0  0  0  0  0
  -24.1630  -12.9788   20.8297 C   0  0  0  0  0  0  0  0  0  0  0  0
  -20.6527  -27.1278   22.7242 C   0  0  0  0  0  0  0  0  0  0  0  0
  -24.3057  -21.9184   20.8029 C   0  0  0  0  0  0  0  0  0  0  0  0
  -21.3542  -25.9409   23.0098 C   0  0  0  0  0  0  0  0  0  0  0  0
  -24.1175  -20.6335   21.3319 C   0  0  0  0  0  0  0  0  0  0  0  0
  -30.2195  -18.9575   23.1141 C   0  0  0  0  0  0  0  0  0  0  0  0
  -31.4949  -19.3705   22.7217 C   0  0  0  0  0  0  0  0  0  0  0  0
  -22.3385   -8.1494   21.4804 C   0  0  0  0  0  0  0  0  0  0  0  0
  -26.3637  -20.6999   22.2595 C   0  0  0  0  0  0  0  0  0  0  0  0
  -20.8572   -6.9917   22.8903 C   0  0  0  0  0  0  0  0  0  0  0  0
  -19.3346   -6.9206   25.2267 C   0  0  0  0  0  0  0  0  0  0  0  0
  -19.8543   -7.9385   23.0982 C   0  0  0  0  0  0  0  0  0  0  0  0
  -24.5930  -11.6441   20.7046 C   0  0  0  0  0  0  0  0  0  0  0  0
  -30.5556  -16.9740   21.8881 C   0  0  0  0  0  0  0  0  0  0  0  0
  -25.2555  -13.7271   20.4652 C   0  0  0  0  0  0  0  0  0  0  0  0
  -22.8899  -13.4958   21.2390 C   0  0  0  0  0  0  0  0  0  0  0  0
  -21.2914  -22.5211   21.6119 C   0  0  0  0  0  0  0  0  0  0  0  0
  -20.6904  -19.8971   19.8019 C   0  0  0  0  0  0  0  0  0  0  0  0
  -21.8401  -16.9769   18.4614 C   0  0  0  0  0  0  0  0  0  0  0  0
  -30.7192  -14.7832   20.6552 C   0  0  0  0  0  0  0  0  0  0  0  0
  -19.1919  -27.1152   22.3493 C   0  0  0  0  0  0  0  0  0  0  0  0
  -23.2222  -22.5743   19.9917 C   0  0  0  0  0  0  0  0  0  0  0  0
  -31.8210  -20.7284   23.2442 C   0  0  0  0  0  0  0  0  0  0  0  0
  -22.8283  -19.8785   21.1415 C   0  0  0  0  0  0  0  0  0  0  0  0
  -18.6926  -25.7476   21.8903 C   0  0  0  0  0  0  0  0  0  0  0  0
  -30.7926  -20.8566   24.3795 C   0  0  0  0  0  0  0  0  0  0  0  0
  -29.6190  -12.3487   18.3015 C   0  0  0  0  0  0  0  0  0  0  0  0
  -19.1700  -24.6573   22.8442 C   0  0  0  0  0  0  0  0  0  0  0  0
  -28.1780  -12.0581   18.7272 C   0  0  0  0  0  0  0  0  0  0  0  0
  -30.5285  -12.5886   19.5052 C   0  0  0  0  0  0  0  0  0  0  0  0
  -28.6144  -13.3209   20.8724 C   0  0  0  0  0  0  0  0  0  0  0  0
  -20.7014  -24.5824   22.8744 C   0  0  1  0  0  0  0  0  0  0  0  0
  -21.8315  -22.0279   20.2994 C   0  0  1  0  0  0  0  0  0  0  0  0
  -27.6470  -13.1366   19.6918 C   0  0  2  0  0  0  0  0  0  0  0  0
  -29.5550  -20.0129   23.9667 C   0  0  2  0  0  0  0  0  0  0  0  0
  -28.8478  -19.4425   25.1984 C   0  0  0  0  0  0  0  0  0  0  0  0
  -21.1060  -15.0293   17.0594 C   0  0  0  0  0  0  0  0  0  0  0  0
  -19.1834  -18.7472   22.1928 C   0  0  0  0  0  0  0  0  0  0  0  0
  -19.3052  -16.4982   21.0993 C   0  0  0  0  0  0  0  0  0  0  0  0
  -18.0809  -18.3621   19.9813 C   0  0  0  0  0  0  0  0  0  0  0  0
  -23.8430  -17.5801   16.3677 C   0  0  0  0  0  0  0  0  0  0  0  0
  -28.5736  -20.8410   23.1269 C   0  0  0  0  0  0  0  0  0  1  0  0
  -20.6072  -18.4130   20.0651 C   0  0  1  0  0  0  0  0  0  0  0  0
  -21.7478  -16.4081   17.0570 C   0  0  2  0  0  0  0  0  0  0  0  0
  -19.3179  -18.0199   20.8400 C   0  0  0  0  0  0  0  0  0  0  0  0
  -31.7992  -17.3478   21.4848 N   0  0  0  0  0  0  0  0  0  0  0  0
  -25.8599  -11.5471   20.2925 N   0  0  0  0  0  0  0  0  0  0  0  0
  -26.2352  -12.8302   20.1556 N   0  0  0  0  0  0  0  0  0  0  0  0
  -21.7968  -20.5647   20.3461 N   0  0  0  0  0  0  0  0  0  0  0  0
  -29.9641  -13.6255   20.3719 N   0  0  0  0  0  0  0  0  0  0  0  0
  -25.4641  -15.0583   20.3824 N   0  0  0  0  0  0  0  0  0  0  0  0
  -21.8780  -12.5877   21.5792 N   0  0  0  0  0  0  0  0  0  0  0  0
  -30.0668  -15.7137   21.4634 N   0  0  0  0  0  0  0  0  0  0  0  0
  -21.1971  -23.8969   21.7001 N   0  0  0  0  0  0  0  0  0  0  0  0
  -20.7474  -17.7599   18.7681 N   0  0  0  0  0  0  0  0  0  0  0  0
  -23.1060  -16.2932   16.4543 N   0  3  0  0  0  0  0  0  0  0  0  0
  -22.6514  -14.7264   21.2855 O   0  0  0  0  0  0  0  0  0  0  0  0
  -20.9817  -21.7132   22.4797 O   0  0  0  0  0  0  0  0  0  0  0  0
  -19.8101  -20.4427   19.1319 O   0  0  0  0  0  0  0  0  0  0  0  0
  -22.7851  -16.7464   19.2126 O   0  0  0  0  0  0  0  0  0  0  0  0
  -31.8500  -14.9500   20.1911 O   0  0  0  0  0  0  0  0  0  0  0  0
  -21.6134   -7.0251   21.7306 O   0  0  0  0  0  0  0  0  0  0  0  0
  -27.3599  -20.1066   22.9718 O   0  0  0  0  0  0  0  0  0  1  0  0
  -18.6026   -6.8855   26.3479 F   0  0  0  0  0  0  0  0  0  0  0  0
  -19.6168   -8.8840   22.1787 F   0  0  0  0  0  0  0  0  0  0  0  0
  1  2  1  0  0  0  0
  1  5  2  0  0  0  0
  2  6  2  0  0  0  0
  3  8  2  0  0  0  0
  3 17  1  0  0  0  0
  4  9  1  0  0  0  0
  4 17  2  0  0  0  0
  5 19  1  0  0  0  0
  6 21  1  0  0  0  0
  7 10  2  0  0  0  0
  7 20  1  0  0  0  0
  8 25  1  0  0  0  0
  9 25  2  0  0  0  0
 10 26  1  0  0  0  0
 11 12  2  0  0  0  0
 11 27  1  0  0  0  0
 12 28  1  0  0  0  0
 13 22  1  0  0  0  0
 13 26  2  0  0  0  0
 14 23  1  0  0  0  0
 14 31  2  0  0  0  0
 15 28  2  0  0  0  0
 15 29  1  0  0  0  0
 16 24  1  0  0  0  0
 16 63  2  0  0  0  0
 17 30  1  0  0  0  0
 18 30  1  0  0  0  0
 18 32  2  0  0  0  0
 18 33  1  0  0  0  0
 19 21  2  0  0  0  0
 19 38  1  0  0  0  0
 20 22  2  0  0  0  0
 20 39  1  0  0  0  0
 21 49  1  0  0  0  0
 22 41  1  0  0  0  0
 23 24  2  0  0  0  0
 23 52  1  0  0  0  0
 24 40  1  0  0  0  0
 25 79  1  0  0  0  0
 26 80  1  0  0  0  0
 27 29  2  0  0  0  0
 27 79  1  0  0  0  0
 28 81  1  0  0  0  0
 29 82  1  0  0  0  0
 30 64  2  0  0  0  0
 31 63  1  0  0  0  0
 31 70  1  0  0  0  0
 32 65  1  0  0  0  0
 32 68  1  0  0  0  0
 33 69  1  0  0  0  0
 33 74  2  0  0  0  0
 34 50  1  0  0  0  0
 34 71  1  0  0  0  0
 34 75  2  0  0  0  0
 35 60  1  0  0  0  0
 35 66  1  0  0  0  0
 35 76  2  0  0  0  0
 36 61  1  0  0  0  0
 36 72  1  0  0  0  0
 36 77  2  0  0  0  0
 37 67  1  0  0  0  0
 37 70  1  0  0  0  0
 37 78  2  0  0  0  0
 38 42  1  0  0  0  0
 39 50  1  0  0  0  0
 40 43  1  0  0  0  0
 41 66  1  0  0  0  0
 42 45  1  0  0  0  0
 43 52  1  0  0  0  0
 44 46  1  0  0  0  0
 44 47  1  0  0  0  0
 45 49  1  0  0  0  0
 46 51  1  0  0  0  0
 47 67  1  0  0  0  0
 48 51  1  0  0  0  0
 48 67  1  0  0  0  0
 49 71  1  0  0  0  0
 50 66  1  0  0  0  0
 51 65  1  0  0  0  0
 52 53  1  0  0  0  0
 52 59  1  0  0  0  0
 54 61  1  0  0  0  0
 55 62  1  0  0  0  0
 56 62  1  0  0  0  0
 57 62  1  0  0  0  0
 58 73  1  0  0  0  0
 59 80  1  0  0  0  0
 60 62  1  0  0  0  0
 60 72  1  0  0  0  0
 61 73  1  0  0  0  0
 64 65  1  0  0  0  0
M  CHG  1  73   1
M  ISO  4  37 100  59 101  70 100  80 101
M  END
> <Batch ID>
0179

> <Smiles>
CNC(C)C(=O)NC(C(=O)N1Cc2cc([101O:1][101CH2:1]C3(C)CCc4cnc([100NH:0][100C:0](=O)N5CCCC(n6nc(-c7ccc(Oc8ccc(F)cc8F)cc7)c(C(N)=O)c6N)C5)cc43)ccc2CC1C(=O)NC1CCCc2ccccc21)C(C)(C)C

> <Shape>
0.215

> <Color>
0.192

> <Negative vol penalty>
0.000

$$$$

  -OEChem-04052322573D

 85 94  0     1  0  0  0  0  0999 V2000
  -30.5658  -22.5014   24.1729 C   0  0  0  0  0  0  0  0  0  0  0  0
  -29.5986  -22.9310   23.2699 C   0  0  0  0  0  0  0  0  0  0  0  0
  -26.8617  -14.9987   21.6881 C   0  0  0  0  0  0  0  0  0  0  0  0
  -26.4211  -15.0759   19.3138 C   0  0  0  0  0  0  0  0  0  0  0  0
  -30.7712  -23.2043   25.3594 C   0  0  0  0  0  0  0  0  0  0  0  0
  -28.8355  -24.0632   23.5533 C   0  0  0  0  0  0  0  0  0  0  0  0
  -26.7435  -28.1916   19.5427 C   0  0  0  0  0  0  0  0  0  0  0  0
  -26.5736  -13.6340   21.6972 C   0  0  0  0  0  0  0  0  0  0  0  0
  -26.1330  -13.7111   19.3229 C   0  0  0  0  0  0  0  0  0  0  0  0
  -25.5037  -28.3563   18.9267 C   0  0  0  0  0  0  0  0  0  0  0  0
  -23.8233  -11.6692   21.6893 C   0  0  0  0  0  0  0  0  0  0  0  0
  -23.0083  -11.1865   22.7131 C   0  0  0  0  0  0  0  0  0  0  0  0
  -24.8810  -29.9560   20.6215 C   0  0  0  0  0  0  0  0  0  0  0  0
  -21.5077  -26.6659   18.8121 C   0  0  0  0  0  0  0  0  0  0  0  0
  -24.7868   -9.7207   23.4379 C   0  0  0  0  0  0  0  0  0  0  0  0
  -26.7854  -15.7197   20.4964 C   0  0  0  0  0  0  0  0  0  0  0  0
  -28.3363  -17.7328   20.2731 C   0  0  0  0  0  0  0  0  0  0  0  0
  -30.0170  -24.3512   25.6530 C   0  0  0  0  0  0  0  0  0  0  0  0
  -27.0578  -28.9009   20.7108 C   0  0  0  0  0  0  0  0  0  0  0  0
  -29.0302  -24.7813   24.7455 C   0  0  0  0  0  0  0  0  0  0  0  0
  -26.1264  -29.8004   21.2490 C   0  0  0  0  0  0  0  0  0  0  0  0
  -20.7924  -27.7159   19.3583 C   0  0  0  0  0  0  0  0  0  0  0  0
  -19.7661  -27.4794   20.2737 C   0  0  0  0  0  0  0  0  0  0  0  0
  -26.2093  -12.9902   20.5146 C   0  0  0  0  0  0  0  0  0  0  0  0
  -24.5711  -29.2365   19.4677 C   0  0  0  0  0  0  0  0  0  0  0  0
  -25.1201  -11.1776   21.5396 C   0  0  0  0  0  0  0  0  0  0  0  0
  -23.4900  -10.2123   23.5874 C   0  0  0  0  0  0  0  0  0  0  0  0
  -25.6018  -10.2034   22.4139 C   0  0  0  0  0  0  0  0  0  0  0  0
  -27.0823  -17.1296   20.4864 C   0  0  0  0  0  0  0  0  0  0  0  0
  -21.1474  -25.3916   19.2230 C   0  0  0  0  0  0  0  0  0  0  0  0
  -19.4859  -26.1756   20.6252 C   0  0  0  0  0  0  0  0  0  0  0  0
  -28.0886  -19.0808   20.3621 C   0  0  0  0  0  0  0  0  0  0  0  0
  -29.6112  -17.1285   20.0173 C   0  0  0  0  0  0  0  0  0  0  0  0
  -27.7697  -28.0941   23.7018 C   0  0  0  0  0  0  0  0  0  0  0  0
  -28.3129  -31.2765   24.0183 C   0  0  0  0  0  0  0  0  0  0  0  0
  -27.6975  -34.4449   22.9097 C   0  0  0  0  0  0  0  0  0  0  0  0
  -23.2045  -22.2543   19.3976 C   0  0  0  0  0  0  0  0  0  0  0  0
  -30.2424  -25.0508   26.9700 C   0  0  0  0  0  0  0  0  0  0  0  0
  -28.4097  -28.7319   21.3482 C   0  0  0  0  0  0  0  0  0  0  0  0
  -26.4226  -30.6007   22.4900 C   0  0  0  0  0  0  0  0  0  0  0  0
  -29.6500  -26.4567   27.0222 C   0  0  0  0  0  0  0  0  0  0  0  0
  -25.1399  -22.2162   22.4554 C   0  0  0  0  0  0  0  0  0  0  0  0
  -28.2260  -26.4566   26.4753 C   0  0  0  0  0  0  0  0  0  0  0  0
  -25.9807  -20.9521   22.2675 C   0  0  0  0  0  0  0  0  0  0  0  0
  -19.6930  -29.7737   19.7205 C   0  0  0  0  0  0  0  0  0  0  0  0
  -23.7307  -22.0303   21.9007 C   0  0  0  0  0  0  0  0  0  0  0  0
  -24.5210  -20.3494   20.2810 C   0  0  0  0  0  0  0  0  0  0  0  0
  -20.9785  -29.1811   19.0984 C   0  0  1  0  0  0  0  0  0  0  0  0
  -28.1995  -26.0191   25.0058 C   0  0  1  0  0  0  0  0  0  0  0  0
  -28.4276  -29.1204   22.8233 C   0  0  1  0  0  0  0  0  0  0  0  0
  -25.9640  -20.4809   20.8012 C   0  0  2  0  0  0  0  0  0  0  0  0
  -19.1371  -28.7568   20.7580 C   0  0  0  0  0  0  0  0  0  0  0  0
  -18.3898  -25.8314   21.5738 C   0  0  0  0  0  0  0  0  0  0  0  0
  -19.5980  -29.0874   22.1829 C   0  0  0  0  0  0  0  0  0  0  0  0
  -17.6052  -28.7176   20.7076 C   0  0  0  0  0  0  0  0  0  0  0  0
  -28.2544  -36.8437   23.3923 C   0  0  0  0  0  0  0  0  0  0  0  0
  -26.4020  -31.2390   26.3967 C   0  0  0  0  0  0  0  0  0  0  0  0
  -26.2588  -33.7331   26.2319 C   0  0  0  0  0  0  0  0  0  0  0  0
  -28.4470  -32.6411   26.7235 C   0  0  0  0  0  0  0  0  0  0  0  0
  -28.9414  -34.8123   20.2494 C   0  0  0  0  0  0  0  0  0  0  0  0
  -21.8745  -24.2153   18.6611 C   0  0  0  0  0  0  0  0  0  0  0  0
  -22.2583  -29.7337   19.7117 C   0  0  0  0  0  0  0  0  0  1  0  0
  -27.4724  -32.4720   24.3967 C   0  0  1  0  0  0  0  0  0  0  0  0
  -28.6296  -35.6020   22.5984 C   0  0  2  0  0  0  0  0  0  0  0  0
  -27.1384  -32.5049   25.9149 C   0  0  0  0  0  0  0  0  0  0  0  0
  -26.1101  -18.0213   20.6953 N   0  0  0  0  0  0  0  0  0  0  0  0
  -20.1580  -25.1189   20.1132 N   0  0  0  0  0  0  0  0  0  0  0  0
  -26.7533  -19.1985   20.6138 N   0  0  0  0  0  0  0  0  0  0  0  0
  -27.7558  -30.3959   23.0801 N   0  0  0  0  0  0  0  0  0  0  0  0
  -23.7851  -21.5996   20.4966 N   0  0  0  0  0  0  0  0  0  0  0  0
  -28.8848  -20.1650   20.2488 N   0  0  0  0  0  0  0  0  0  0  0  0
  -29.6881  -15.7303   19.9584 N   0  0  0  0  0  0  0  0  0  0  0  0
  -28.6245  -27.1042   24.1477 N   0  0  0  0  0  0  0  0  0  0  0  0
  -28.1939  -33.6462   23.9180 N   0  0  0  0  0  0  0  0  0  0  0  0
  -22.5194  -23.4277   19.6881 N   0  0  0  0  0  0  0  0  0  0  0  0
  -28.5729  -35.9370   21.1474 N   0  3  0  0  0  0  0  0  0  0  0  0
  -30.6543  -17.8078   19.8625 O   0  0  0  0  0  0  0  0  0  0  0  0
  -26.5754  -28.1939   23.9574 O   0  0  0  0  0  0  0  0  0  0  0  0
  -29.4258  -31.1330   24.5306 O   0  0  0  0  0  0  0  0  0  0  0  0
  -26.6336  -34.2694   22.3199 O   0  0  0  0  0  0  0  0  0  0  0  0
  -23.2947  -21.8275   18.2414 O   0  0  0  0  0  0  0  0  0  0  0  0
  -25.9283  -11.6584   20.5231 O   0  0  0  0  0  0  0  0  0  0  0  0
  -23.3599  -29.3987   18.8688 O   0  0  0  0  0  0  0  0  0  1  0  0
  -22.7078   -9.7500   24.5716 F   0  0  0  0  0  0  0  0  0  0  0  0
  -26.8472   -9.7281   22.2759 F   0  0  0  0  0  0  0  0  0  0  0  0
  1  2  1  0  0  0  0
  1  5  2  0  0  0  0
  2  6  2  0  0  0  0
  3  8  2  0  0  0  0
  3 16  1  0  0  0  0
  4  9  1  0  0  0  0
  4 16  2  0  0  0  0
  5 18  1  0  0  0  0
  6 20  1  0  0  0  0
  7 10  2  0  0  0  0
  7 19  1  0  0  0  0
  8 24  1  0  0  0  0
  9 24  2  0  0  0  0
 10 25  1  0  0  0  0
 11 12  2  0  0  0  0
 11 26  1  0  0  0  0
 12 27  1  0  0  0  0
 13 21  1  0  0  0  0
 13 25  2  0  0  0  0
 14 22  2  0  0  0  0
 14 30  1  0  0  0  0
 15 27  2  0  0  0  0
 15 28  1  0  0  0  0
 16 29  1  0  0  0  0
 17 29  1  0  0  0  0
 17 32  2  0  0  0  0
 17 33  1  0  0  0  0
 18 20  2  0  0  0  0
 18 38  1  0  0  0  0
 19 21  2  0  0  0  0
 19 39  1  0  0  0  0
 20 49  1  0  0  0  0
 21 40  1  0  0  0  0
 22 23  1  0  0  0  0
 22 48  1  0  0  0  0
 23 31  2  0  0  0  0
 23 52  1  0  0  0  0
 24 82  1  0  0  0  0
 25 83  1  0  0  0  0
 26 28  2  0  0  0  0
 26 82  1  0  0  0  0
 27 84  1  0  0  0  0
 28 85  1  0  0  0  0
 29 66  2  0  0  0  0
 30 61  1  0  0  0  0
 30 67  2  0  0  0  0
 31 53  1  0  0  0  0
 31 67  1  0  0  0  0
 32 68  1  0  0  0  0
 32 71  1  0  0  0  0
 33 72  1  0  0  0  0
 33 77  2  0  0  0  0
 34 50  1  0  0  0  0
 34 73  1  0  0  0  0
 34 78  2  0  0  0  0
 35 63  1  0  0  0  0
 35 69  1  0  0  0  0
 35 79  2  0  0  0  0
 36 64  1  0  0  0  0
 36 74  1  0  0  0  0
 36 80  2  0  0  0  0
 37 70  1  0  0  0  0
 37 75  1  0  0  0  0
 37 81  2  0  0  0  0
 38 41  1  0  0  0  0
 39 50  1  0  0  0  0
 40 69  1  0  0  0  0
 41 43  1  0  0  0  0
 42 44  1  0  0  0  0
 42 46  1  0  0  0  0
 43 49  1  0  0  0  0
 44 51  1  0  0  0  0
 45 48  1  0  0  0  0
 45 52  1  0  0  0  0
 46 70  1  0  0  0  0
 47 51  1  0  0  0  0
 47 70  1  0  0  0  0
 48 62  1  0  0  0  0
 49 73  1  0  0  0  0
 50 69  1  0  0  0  0
 51 68  1  0  0  0  0
 52 54  1  0  0  0  0
 52 55  1  0  0  0  0
 56 64  1  0  0  0  0
 57 65  1  0  0  0  0
 58 65  1  0  0  0  0
 59 65  1  0  0  0  0
 60 76  1  0  0  0  0
 61 75  1  0  0  0  0
 62 83  1  0  0  0  0
 63 65  1  0  0  0  0
 63 74  1  0  0  0  0
 64 76  1  0  0  0  0
 66 68  1  0  0  0  0
M  CHG  1  76   1
M  ISO  4  37 100  62 101  75 100  83 101
M  END
> <Batch ID>
0179

> <Smiles>
CNC(C)C(=O)NC(C(=O)N1Cc2cc([101O:1][101CH2:1]C3CC(C)(C)c4c3cc(C[100NH:0][100C:0](=O)N3CCCC(n5nc(-c6ccc(Oc7ccc(F)cc7F)cc6)c(C(N)=O)c5N)C3)nc4C)ccc2CC1C(=O)NC1CCCc2ccccc21)C(C)(C)C

> <Shape>
0.207

> <Color>
0.072

> <Negative vol penalty>
0.000

$$$$

  -OEChem-04052322573D

 84 93  0     1  0  0  0  0  0999 V2000
  -26.4241  -24.2791   16.4467 C   0  0  0  0  0  0  0  0  0  0  0  0
  -25.3099  -24.7618   17.1256 C   0  0  0  0  0  0  0  0  0  0  0  0
  -26.8159  -14.7779   19.3160 C   0  0  0  0  0  0  0  0  0  0  0  0
  -24.8199  -15.0296   20.6538 C   0  0  0  0  0  0  0  0  0  0  0  0
  -27.6954  -24.4321   16.9984 C   0  0  0  0  0  0  0  0  0  0  0  0
  -25.4662  -25.3968   18.3572 C   0  0  0  0  0  0  0  0  0  0  0  0
  -22.7170  -29.6341   18.7211 C   0  0  0  0  0  0  0  0  0  0  0  0
  -26.8821  -13.4299   19.6683 C   0  0  0  0  0  0  0  0  0  0  0  0
  -24.8861  -13.6816   21.0061 C   0  0  0  0  0  0  0  0  0  0  0  0
  -21.3542  -29.4889   18.9771 C   0  0  0  0  0  0  0  0  0  0  0  0
  -24.1137  -10.7029   19.6092 C   0  0  0  0  0  0  0  0  0  0  0  0
  -22.9318   -9.9636   19.5621 C   0  0  0  0  0  0  0  0  0  0  0  0
  -21.7452  -29.9829   21.3057 C   0  0  0  0  0  0  0  0  0  0  0  0
  -23.1396   -9.4812   21.9204 C   0  0  0  0  0  0  0  0  0  0  0  0
  -18.4305  -27.3966   23.7849 C   0  0  0  0  0  0  0  0  0  0  0  0
  -18.1782  -29.2549   22.4756 C   0  0  0  0  0  0  0  0  0  0  0  0
  -25.7848  -15.5778   19.8088 C   0  0  0  0  0  0  0  0  0  0  0  0
  -25.0459  -17.5289   18.3409 C   0  0  0  0  0  0  0  0  0  0  0  0
  -27.8684  -25.0779   18.2328 C   0  0  0  0  0  0  0  0  0  0  0  0
  -23.6071  -29.9446   19.7592 C   0  0  0  0  0  0  0  0  0  0  0  0
  -26.7409  -25.5574   18.9265 C   0  0  0  0  0  0  0  0  0  0  0  0
  -23.1184  -30.1340   21.0597 C   0  0  0  0  0  0  0  0  0  0  0  0
  -25.9172  -12.8818   20.5134 C   0  0  0  0  0  0  0  0  0  0  0  0
  -20.8685  -29.6604   20.2701 C   0  0  0  0  0  0  0  0  0  0  0  0
  -24.8085  -10.8314   20.8119 C   0  0  0  0  0  0  0  0  0  0  0  0
  -22.4448   -9.3527   20.7177 C   0  0  0  0  0  0  0  0  0  0  0  0
  -24.3215  -10.2205   21.9674 C   0  0  0  0  0  0  0  0  0  0  0  0
  -25.7162  -16.9705   19.4457 C   0  0  0  0  0  0  0  0  0  0  0  0
  -19.4110  -26.9318   22.9361 C   0  0  0  0  0  0  0  0  0  0  0  0
  -19.1584  -28.7900   21.6267 C   0  0  0  0  0  0  0  0  0  1  0  0
  -25.2826  -18.8781   18.4417 C   0  0  0  0  0  0  0  0  0  0  0  0
  -24.2779  -16.8856   17.3152 C   0  0  0  0  0  0  0  0  0  0  0  0
  -26.1072  -28.4924   21.0799 C   0  0  0  0  0  0  0  0  0  0  0  0
  -26.3697  -31.2815   22.7153 C   0  0  0  0  0  0  0  0  0  0  0  0
  -24.8500  -34.0948   23.9078 C   0  0  0  0  0  0  0  0  0  0  0  0
  -25.8475  -22.7252   22.9162 C   0  0  0  0  0  0  0  0  0  0  0  0
  -29.2575  -25.1777   18.8115 C   0  0  0  0  0  0  0  0  0  0  0  0
  -25.0705  -30.1241   19.4617 C   0  0  0  0  0  0  0  0  0  0  0  0
  -24.0296  -30.4881   22.2055 C   0  0  0  0  0  0  0  0  0  0  0  0
  -29.3741  -26.1949   19.9437 C   0  0  0  0  0  0  0  0  0  0  0  0
  -28.6434  -21.6838   20.7165 C   0  0  0  0  0  0  0  0  0  0  0  0
  -28.2246  -26.0273   20.9324 C   0  0  0  0  0  0  0  0  0  0  0  0
  -28.1288  -20.3717   20.1274 C   0  0  0  0  0  0  0  0  0  0  0  0
  -22.8622  -24.2006   23.8900 C   0  0  0  0  0  0  0  0  0  0  0  0
  -22.8619  -23.8121   21.3938 C   0  0  0  0  0  0  0  0  0  0  0  0
  -28.0446  -21.9608   22.0918 C   0  0  0  0  0  0  0  0  0  0  0  0
  -23.6570  -22.9083   24.0579 C   0  0  0  0  0  0  0  0  0  0  0  0
  -23.6825  -22.5371   21.6098 C   0  0  0  0  0  0  0  0  0  0  0  0
  -26.0395  -20.6267   21.5245 C   0  0  0  0  0  0  0  0  0  0  0  0
  -26.8722  -26.2739   20.2530 C   0  0  1  0  0  0  0  0  0  0  0  0
  -25.9573  -29.9353   20.6886 C   0  0  1  0  0  0  0  0  0  0  0  0
  -26.5907  -20.3412   20.1194 C   0  0  2  0  0  0  0  0  0  0  0  0
  -22.0136  -24.1355   22.6218 C   0  0  0  0  0  0  0  0  0  0  0  0
  -25.3139  -36.1704   25.2398 C   0  0  0  0  0  0  0  0  0  0  0  0
  -26.3689  -29.6316   25.2819 C   0  0  0  0  0  0  0  0  0  0  0  0
  -25.8769  -31.7333   26.5503 C   0  0  0  0  0  0  0  0  0  0  0  0
  -28.0016  -31.5259   25.2600 C   0  0  0  0  0  0  0  0  0  0  0  0
  -24.1216  -35.8523   21.6408 C   0  0  0  0  0  0  0  0  0  0  0  0
  -20.0957  -25.6247   23.2070 C   0  0  0  0  0  0  0  0  0  0  0  0
  -25.8193  -31.8138   24.0163 C   0  0  1  0  0  0  0  0  0  0  0  0
  -25.2505  -35.5579   23.8493 C   0  0  2  0  0  0  0  0  0  0  0  0
  -26.4995  -31.1676   25.2561 C   0  0  0  0  0  0  0  0  0  0  0  0
  -17.7966  -28.5666   23.5700 N   0  0  0  0  0  0  0  0  0  0  0  0
  -26.3326  -17.8897   20.1933 N   0  0  0  0  0  0  0  0  0  0  0  0
  -19.7924  -27.6202   21.8416 N   0  0  0  0  0  0  0  0  0  0  0  0
  -26.0507  -19.0394   19.5571 N   0  0  0  0  0  0  0  0  0  0  0  0
  -25.4532  -30.6466   21.8651 N   0  0  0  0  0  0  0  0  0  0  0  0
  -26.5840  -21.8796   22.0698 N   0  0  0  0  0  0  0  0  0  0  0  0
  -24.4496  -22.6167   22.8618 N   0  0  0  0  0  0  0  0  0  0  0  0
  -24.9066  -19.9303   17.6841 N   0  0  0  0  0  0  0  0  0  0  0  0
  -24.1347  -15.4922   17.3624 N   0  0  0  0  0  0  0  0  0  0  0  0
  -26.6411  -27.6929   20.0873 N   0  0  0  0  0  0  0  0  0  0  0  0
  -25.9506  -33.2654   23.9515 N   0  0  0  0  0  0  0  0  0  0  0  0
  -21.3441  -25.4461   22.4182 N   0  3  0  0  0  0  0  0  0  0  0  0
  -24.2679  -36.3319   23.0392 N   0  3  0  0  0  0  0  0  0  0  0  0
  -23.7483  -17.5257   16.3753 O   0  0  0  0  0  0  0  0  0  0  0  0
  -25.7653  -28.1314   22.1999 O   0  0  0  0  0  0  0  0  0  0  0  0
  -27.5673  -31.4300   22.4594 O   0  0  0  0  0  0  0  0  0  0  0  0
  -23.6780  -33.7249   23.9179 O   0  0  0  0  0  0  0  0  0  0  0  0
  -26.4065  -23.5294   23.6724 O   0  0  0  0  0  0  0  0  0  0  0  0
  -25.9813  -11.5664   20.8572 O   0  0  0  0  0  0  0  0  0  0  0  0
  -19.5178  -29.5163   20.5268 O   0  0  0  0  0  0  0  0  0  1  0  0
  -21.3090   -8.6441   20.6726 F   0  0  0  0  0  0  0  0  0  0  0  0
  -24.9840  -10.3414   23.1260 F   0  0  0  0  0  0  0  0  0  0  0  0
  1  2  1  0  0  0  0
  1  5  2  0  0  0  0
  2  6  2  0  0  0  0
  3  8  2  0  0  0  0
  3 17  1  0  0  0  0
  4  9  1  0  0  0  0
  4 17  2  0  0  0  0
  5 19  1  0  0  0  0
  6 21  1  0  0  0  0
  7 10  2  0  0  0  0
  7 20  1  0  0  0  0
  8 23  1  0  0  0  0
  9 23  2  0  0  0  0
 10 24  1  0  0  0  0
 11 12  2  0  0  0  0
 11 25  1  0  0  0  0
 12 26  1  0  0  0  0
 13 22  1  0  0  0  0
 13 24  2  0  0  0  0
 14 26  2  0  0  0  0
 14 27  1  0  0  0  0
 15 29  2  0  0  0  0
 15 63  1  0  0  0  0
 16 30  1  0  0  0  0
 16 63  2  0  0  0  0
 17 28  1  0  0  0  0
 18 28  1  0  0  0  0
 18 31  2  0  0  0  0
 18 32  1  0  0  0  0
 19 21  2  0  0  0  0
 19 37  1  0  0  0  0
 20 22  2  0  0  0  0
 20 38  1  0  0  0  0
 21 50  1  0  0  0  0
 22 39  1  0  0  0  0
 23 81  1  0  0  0  0
 24 82  1  0  0  0  0
 25 27  2  0  0  0  0
 25 81  1  0  0  0  0
 26 83  1  0  0  0  0
 27 84  1  0  0  0  0
 28 64  2  0  0  0  0
 29 59  1  0  0  0  0
 29 65  1  0  0  0  0
 30 65  2  0  0  0  0
 30 82  1  0  0  0  0
 31 66  1  0  0  0  0
 31 70  1  0  0  0  0
 32 71  1  0  0  0  0
 32 76  2  0  0  0  0
 33 51  1  0  0  0  0
 33 72  1  0  0  0  0
 33 77  2  0  0  0  0
 34 60  1  0  0  0  0
 34 67  1  0  0  0  0
 34 78  2  0  0  0  0
 35 61  1  0  0  0  0
 35 73  1  0  0  0  0
 35 79  2  0  0  0  0
 36 68  1  0  0  0  0
 36 69  1  0  0  0  0
 36 80  2  0  0  0  0
 37 40  1  0  0  0  0
 38 51  1  0  0  0  0
 39 67  1  0  0  0  0
 40 42  1  0  0  0  0
 41 43  1  0  0  0  0
 41 46  1  0  0  0  0
 42 50  1  0  0  0  0
 43 52  1  0  0  0  0
 44 47  1  0  0  0  0
 44 53  1  0  0  0  0
 45 48  1  0  0  0  0
 45 53  1  0  0  0  0
 46 68  1  0  0  0  0
 47 69  1  0  0  0  0
 48 69  1  0  0  0  0
 49 52  1  0  0  0  0
 49 68  1  0  0  0  0
 50 72  1  0  0  0  0
 51 67  1  0  0  0  0
 52 66  1  0  0  0  0
 53 74  1  0  0  0  0
 54 61  1  0  0  0  0
 55 62  1  0  0  0  0
 56 62  1  0  0  0  0
 57 62  1  0  0  0  0
 58 75  1  0  0  0  0
 59 74  1  0  0  0  0
 60 62  1  0  0  0  0
 60 73  1  0  0  0  0
 61 75  1  0  0  0  0
 64 66  1  0  0  0  0
M  CHG  2  74   1  75   1
M  ISO  4  30 101  36 100  69 100  82 101
M  END
> <Batch ID>
0179

> <Smiles>
CNC(C)C(=O)NC(C(=O)N1Cc2cc([101O:1][101c:1]3cncc(CNC4CC[100N:0]([100C:0](=O)N5CCCC(n6nc(-c7ccc(Oc8ccc(F)cc8F)cc7)c(C(N)=O)c6N)C5)CC4)n3)ccc2CC1C(=O)NC1CCCc2ccccc21)C(C)(C)C

> <Shape>
0.308

> <Color>
0.079

> <Negative vol penalty>
0.000

$$$$

  -OEChem-04052322573D

 83 92  0     1  0  0  0  0  0999 V2000
  -22.7600  -33.6321   24.3900 C   0  0  0  0  0  0  0  0  0  0  0  0
  -23.6283  -32.5656   24.1797 C   0  0  0  0  0  0  0  0  0  0  0  0
  -23.0039   -9.9037   19.9299 C   0  0  0  0  0  0  0  0  0  0  0  0
  -23.9160   -9.7444   22.1614 C   0  0  0  0  0  0  0  0  0  0  0  0
  -21.3819  -33.4303   24.3275 C   0  0  0  0  0  0  0  0  0  0  0  0
  -23.1188  -31.2964   23.9080 C   0  0  0  0  0  0  0  0  0  0  0  0
  -25.5654  -27.0580   20.2262 C   0  0  0  0  0  0  0  0  0  0  0  0
  -22.2804   -8.7301   20.1418 C   0  0  0  0  0  0  0  0  0  0  0  0
  -23.1925   -8.5709   22.3734 C   0  0  0  0  0  0  0  0  0  0  0  0
  -26.3496  -25.9339   20.4812 C   0  0  0  0  0  0  0  0  0  0  0  0
  -19.4376   -7.8077   21.7230 C   0  0  0  0  0  0  0  0  0  0  0  0
  -18.1011   -7.7891   21.3240 C   0  0  0  0  0  0  0  0  0  0  0  0
  -24.3708  -24.5545   20.4528 C   0  0  0  0  0  0  0  0  0  0  0  0
  -18.5740   -5.9540   19.8254 C   0  0  0  0  0  0  0  0  0  0  0  0
  -29.2974  -21.8273   20.2221 C   0  0  0  0  0  0  0  0  0  0  0  0
  -23.8218  -10.4108   20.9396 C   0  0  0  0  0  0  0  0  0  0  0  0
  -24.1506  -12.9401   20.9867 C   0  0  0  0  0  0  0  0  0  0  0  0
  -20.8554  -32.1600   24.0453 C   0  0  0  0  0  0  0  0  0  0  0  0
  -24.1744  -26.9402   20.0932 C   0  0  0  0  0  0  0  0  0  0  0  0
  -21.7322  -31.0771   23.8430 C   0  0  0  0  0  0  0  0  0  0  0  0
  -23.5715  -25.6783   20.1936 C   0  0  0  0  0  0  0  0  0  0  0  0
  -28.5859  -22.4621   21.2197 C   0  0  0  0  0  0  0  0  0  0  0  0
  -22.3747   -8.0638   21.3636 C   0  0  0  0  0  0  0  0  0  0  0  0
  -25.7521  -24.6823   20.5974 C   0  0  0  0  0  0  0  0  0  0  0  0
  -20.3423   -6.8995   21.1731 C   0  0  0  0  0  0  0  0  0  0  0  0
  -17.6694   -6.8623   20.3753 C   0  0  0  0  0  0  0  0  0  0  0  0
  -19.9105   -5.9727   20.2244 C   0  0  0  0  0  0  0  0  0  0  0  0
  -24.5699  -11.6227   20.7211 C   0  0  0  0  0  0  0  0  0  0  0  0
  -28.5344  -21.8006   22.4297 C   0  0  0  0  0  0  0  0  0  0  0  0
  -25.2147  -13.7219   20.6085 C   0  0  0  0  0  0  0  0  0  0  0  0
  -29.7917  -20.0945   21.6078 C   0  0  0  0  0  0  0  0  0  0  0  0
  -22.9103  -13.4147   21.5270 C   0  0  0  0  0  0  0  0  0  0  0  0
  -21.6650  -28.0897   21.6697 C   0  0  0  0  0  0  0  0  0  0  0  0
  -20.0027  -26.6898   19.2615 C   0  0  0  0  0  0  0  0  0  0  0  0
  -19.8923  -24.3083   16.8195 C   0  0  0  0  0  0  0  0  0  0  0  0
  -30.6886  -14.7722   20.4897 C   0  0  0  0  0  0  0  0  0  0  0  0
  -19.3579  -31.9807   24.0349 C   0  0  0  0  0  0  0  0  0  0  0  0
  -23.3456  -28.1586   19.7916 C   0  0  0  0  0  0  0  0  0  0  0  0
  -22.0846  -25.4953   20.0389 C   0  0  0  0  0  0  0  0  0  0  0  0
  -18.9044  -30.6830   23.3712 C   0  0  0  0  0  0  0  0  0  0  0  0
  -29.4081  -12.5527   18.0308 C   0  0  0  0  0  0  0  0  0  0  0  0
  -19.7370  -29.5075   23.8729 C   0  0  0  0  0  0  0  0  0  0  0  0
  -28.0022  -12.2192   18.5329 C   0  0  0  0  0  0  0  0  0  0  0  0
  -30.4010  -12.6898   19.1831 C   0  0  0  0  0  0  0  0  0  0  0  0
  -28.5945  -13.3027   20.7410 C   0  0  0  0  0  0  0  0  0  0  0  0
  -30.0027  -17.8369   22.6985 C   0  0  0  0  0  0  0  0  0  0  0  0
  -30.9008  -17.9842   20.8034 C   0  0  0  0  0  0  0  0  0  0  0  0
  -21.2183  -29.6906   23.5212 C   0  0  1  0  0  0  0  0  0  0  0  0
  -21.8806  -27.9971   20.1855 C   0  0  1  0  0  0  0  0  0  0  0  0
  -27.5447  -13.2102   19.6203 C   0  0  2  0  0  0  0  0  0  0  0  0
  -30.8514  -16.8711   21.8596 C   0  0  0  0  0  0  0  0  0  0  0  0
  -27.7953  -22.3944   23.5833 C   0  0  0  0  0  0  0  0  0  0  0  0
  -18.3868  -23.3812   15.0387 C   0  0  0  0  0  0  0  0  0  0  0  0
  -18.3747  -25.2397   21.3961 C   0  0  0  0  0  0  0  0  0  0  0  0
  -17.5769  -23.6662   19.6195 C   0  0  0  0  0  0  0  0  0  0  0  0
  -17.0355  -26.0964   19.4656 C   0  0  0  0  0  0  0  0  0  0  0  0
  -21.8034  -25.0149   14.6731 C   0  0  0  0  0  0  0  0  0  0  0  0
  -27.9216  -23.7856   20.9782 C   0  0  0  0  0  0  0  0  0  1  0  0
  -19.4030  -25.3240   19.0293 C   0  0  1  0  0  0  0  0  0  0  0  0
  -19.4866  -24.3817   15.3585 C   0  0  2  0  0  0  0  0  0  0  0  0
  -18.1253  -25.0850   19.8825 C   0  0  0  0  0  0  0  0  0  0  0  0
  -29.9151  -20.6385   20.3821 N   0  0  0  0  0  0  0  0  0  0  0  0
  -25.8040  -11.5668   20.2132 N   0  0  0  0  0  0  0  0  0  0  0  0
  -29.1279  -20.6110   22.6596 N   0  0  0  0  0  0  0  0  0  0  0  0
  -26.1693  -12.8589   20.1566 N   0  0  0  0  0  0  0  0  0  0  0  0
  -30.4266  -18.8497   21.8119 N   0  0  0  0  0  0  0  0  0  0  0  0
  -21.3162  -26.7177   19.7510 N   0  0  0  0  0  0  0  0  0  0  0  0
  -29.9079  -13.6487   20.1750 N   0  0  0  0  0  0  0  0  0  0  0  0
  -25.4175  -15.0565   20.6216 N   0  0  0  0  0  0  0  0  0  0  0  0
  -21.9248  -12.4761   21.8620 N   0  0  0  0  0  0  0  0  0  0  0  0
  -21.4495  -29.3754   22.1278 N   0  0  0  0  0  0  0  0  0  0  0  0
  -19.1904  -25.2107   17.5904 N   0  0  0  0  0  0  0  0  0  0  0  0
  -30.1514  -15.6420   21.4330 N   0  0  0  0  0  0  0  0  0  0  0  0
  -20.6557  -24.0915   14.4811 N   0  3  0  0  0  0  0  0  0  0  0  0
  -22.6763  -14.6360   21.6921 O   0  0  0  0  0  0  0  0  0  0  0  0
  -21.6907  -27.0699   22.3487 O   0  0  0  0  0  0  0  0  0  0  0  0
  -19.3330  -27.6949   19.0107 O   0  0  0  0  0  0  0  0  0  0  0  0
  -20.7438  -23.5259   17.2358 O   0  0  0  0  0  0  0  0  0  0  0  0
  -31.7851  -14.9953   19.9651 O   0  0  0  0  0  0  0  0  0  0  0  0
  -21.6686   -6.9187   21.5708 O   0  0  0  0  0  0  0  0  0  0  0  0
  -26.5151  -23.5835   20.8470 O   0  0  0  0  0  0  0  0  0  1  0  0
  -16.3856   -6.8435   19.9934 F   0  0  0  0  0  0  0  0  0  0  0  0
  -20.7748   -5.0969   19.6934 F   0  0  0  0  0  0  0  0  0  0  0  0
  1  2  1  0  0  0  0
  1  5  2  0  0  0  0
  2  6  2  0  0  0  0
  3  8  2  0  0  0  0
  3 16  1  0  0  0  0
  4  9  1  0  0  0  0
  4 16  2  0  0  0  0
  5 18  1  0  0  0  0
  6 20  1  0  0  0  0
  7 10  2  0  0  0  0
  7 19  1  0  0  0  0
  8 23  1  0  0  0  0
  9 23  2  0  0  0  0
 10 24  1  0  0  0  0
 11 12  2  0  0  0  0
 11 25  1  0  0  0  0
 12 26  1  0  0  0  0
 13 21  1  0  0  0  0
 13 24  2  0  0  0  0
 14 26  2  0  0  0  0
 14 27  1  0  0  0  0
 15 22  1  0  0  0  0
 15 62  2  0  0  0  0
 16 28  1  0  0  0  0
 17 28  1  0  0  0  0
 17 30  2  0  0  0  0
 17 32  1  0  0  0  0
 18 20  2  0  0  0  0
 18 37  1  0  0  0  0
 19 21  2  0  0  0  0
 19 38  1  0  0  0  0
 20 48  1  0  0  0  0
 21 39  1  0  0  0  0
 22 29  2  0  0  0  0
 22 58  1  0  0  0  0
 23 80  1  0  0  0  0
 24 81  1  0  0  0  0
 25 27  2  0  0  0  0
 25 80  1  0  0  0  0
 26 82  1  0  0  0  0
 27 83  1  0  0  0  0
 28 63  2  0  0  0  0
 29 52  1  0  0  0  0
 29 64  1  0  0  0  0
 30 65  1  0  0  0  0
 30 69  1  0  0  0  0
 31 62  1  0  0  0  0
 31 64  2  0  0  0  0
 31 66  1  0  0  0  0
 32 70  1  0  0  0  0
 32 75  2  0  0  0  0
 33 49  1  0  0  0  0
 33 71  1  0  0  0  0
 33 76  2  0  0  0  0
 34 59  1  0  0  0  0
 34 67  1  0  0  0  0
 34 77  2  0  0  0  0
 35 60  1  0  0  0  0
 35 72  1  0  0  0  0
 35 78  2  0  0  0  0
 36 68  1  0  0  0  0
 36 73  1  0  0  0  0
 36 79  2  0  0  0  0
 37 40  1  0  0  0  0
 38 49  1  0  0  0  0
 39 67  1  0  0  0  0
 40 42  1  0  0  0  0
 41 43  1  0  0  0  0
 41 44  1  0  0  0  0
 42 48  1  0  0  0  0
 43 50  1  0  0  0  0
 44 68  1  0  0  0  0
 45 50  1  0  0  0  0
 45 68  1  0  0  0  0
 46 51  1  0  0  0  0
 46 66  1  0  0  0  0
 47 51  1  0  0  0  0
 47 66  1  0  0  0  0
 48 71  1  0  0  0  0
 49 67  1  0  0  0  0
 50 65  1  0  0  0  0
 51 73  1  0  0  0  0
 53 60  1  0  0  0  0
 54 61  1  0  0  0  0
 55 61  1  0  0  0  0
 56 61  1  0  0  0  0
 57 74  1  0  0  0  0
 58 81  1  0  0  0  0
 59 61  1  0  0  0  0
 59 72  1  0  0  0  0
 60 74  1  0  0  0  0
 63 65  1  0  0  0  0
M  CHG  1  74   1
M  ISO  4  36 100  58 101  73 100  81 101
M  END
> <Batch ID>
0179

> <Smiles>
CNC(C)C(=O)NC(C(=O)N1Cc2cc([101O:1][101CH2:1]c3cnc(N4CC([100NH:0][100C:0](=O)N5CCCC(n6nc(-c7ccc(Oc8ccc(F)cc8F)cc7)c(C(N)=O)c6N)C5)C4)nc3C)ccc2CC1C(=O)NC1CCCc2ccccc21)C(C)(C)C

> <Shape>
0.265

> <Color>
0.218

> <Negative vol penalty>
0.000

$$$$

  -OEChem-04052322573D

 84 93  0     1  0  0  0  0  0999 V2000
  -20.8359  -26.6804   19.9448 C   0  0  0  0  0  0  0  0  0  0  0  0
  -21.4472  -25.5096   20.3820 C   0  0  0  0  0  0  0  0  0  0  0  0
  -23.0733   -9.8663   19.9533 C   0  0  0  0  0  0  0  0  0  0  0  0
  -23.8356   -9.8826   22.2458 C   0  0  0  0  0  0  0  0  0  0  0  0
  -20.9667  -27.8530   20.6875 C   0  0  0  0  0  0  0  0  0  0  0  0
  -22.1907  -25.5112   21.5617 C   0  0  0  0  0  0  0  0  0  0  0  0
  -22.6811  -20.9424   25.6103 C   0  0  0  0  0  0  0  0  0  0  0  0
  -22.3305   -8.7136   20.2084 C   0  0  0  0  0  0  0  0  0  0  0  0
  -23.0928   -8.7298   22.5009 C   0  0  0  0  0  0  0  0  0  0  0  0
  -23.6562  -19.9659   25.8091 C   0  0  0  0  0  0  0  0  0  0  0  0
  -19.3844   -7.9204   21.6658 C   0  0  0  0  0  0  0  0  0  0  0  0
  -18.0770   -7.8713   21.1821 C   0  0  0  0  0  0  0  0  0  0  0  0
  -24.6763  -21.3395   27.5096 C   0  0  0  0  0  0  0  0  0  0  0  0
  -18.6368   -5.9236   19.8667 C   0  0  0  0  0  0  0  0  0  0  0  0
  -31.1789  -17.4979   24.3692 C   0  0  0  0  0  0  0  0  0  0  0  0
  -23.8259  -10.4508   20.9719 C   0  0  0  0  0  0  0  0  0  0  0  0
  -24.1657  -12.9757   20.8419 C   0  0  0  0  0  0  0  0  0  0  0  0
  -21.7041  -27.8667   21.8820 C   0  0  0  0  0  0  0  0  0  0  0  0
  -22.7027  -22.1315   26.3532 C   0  0  0  0  0  0  0  0  0  0  0  0
  -22.3326  -26.6855   22.3204 C   0  0  0  0  0  0  0  0  0  0  0  0
  -23.6989  -22.3283   27.3201 C   0  0  0  0  0  0  0  0  0  0  0  0
  -22.3402   -8.1453   21.4822 C   0  0  0  0  0  0  0  0  0  0  0  0
  -24.6557  -20.1656   26.7568 C   0  0  0  0  0  0  0  0  0  0  0  0
  -20.3180   -6.9711   21.2499 C   0  0  0  0  0  0  0  0  0  0  0  0
  -17.7032   -6.8730   20.2826 C   0  0  0  0  0  0  0  0  0  0  0  0
  -19.9442   -5.9727   20.3504 C   0  0  0  0  0  0  0  0  0  0  0  0
  -24.5938  -11.6412   20.7089 C   0  0  0  0  0  0  0  0  0  0  0  0
  -30.3208  -17.9811   25.3307 C   0  0  0  0  0  0  0  0  0  0  0  0
  -30.3851  -17.3778   23.2115 C   0  0  0  0  0  0  0  0  0  0  0  0
  -25.2569  -13.7246   20.4747 C   0  0  0  0  0  0  0  0  0  0  0  0
  -22.8953  -13.4922   21.2603 C   0  0  0  0  0  0  0  0  0  0  0  0
  -23.0043  -25.2150   25.6430 C   0  0  0  0  0  0  0  0  0  0  0  0
  -22.3949  -25.6028   28.8053 C   0  0  0  0  0  0  0  0  0  0  0  0
  -22.4432  -24.2758   31.9492 C   0  0  0  0  0  0  0  0  0  0  0  0
  -30.7401  -14.7484   20.6533 C   0  0  0  0  0  0  0  0  0  0  0  0
  -21.8567  -29.1696   22.6261 C   0  0  0  0  0  0  0  0  0  0  0  0
  -21.6281  -23.1633   26.1456 C   0  0  0  0  0  0  0  0  0  0  0  0
  -23.7548  -23.5787   28.1580 C   0  0  0  0  0  0  0  0  0  0  0  0
  -30.5070  -18.3076   26.7688 C   0  0  0  0  0  0  0  0  0  0  0  0
  -22.3499  -28.9978   24.0604 C   0  0  0  0  0  0  0  0  0  0  0  0
  -29.3634  -19.1744   27.3085 C   0  0  0  0  0  0  0  0  0  0  0  0
  -29.6017  -12.3540   18.2768 C   0  0  0  0  0  0  0  0  0  0  0  0
  -23.5311  -28.0337   24.1069 C   0  0  0  0  0  0  0  0  0  0  0  0
  -28.1650  -12.0608   18.7124 C   0  0  0  0  0  0  0  0  0  0  0  0
  -27.9064  -18.6496   25.3114 C   0  0  0  0  0  0  0  0  0  0  0  0
  -30.5200  -12.5800   19.4759 C   0  0  0  0  0  0  0  0  0  0  0  0
  -28.6192  -13.3150   20.8617 C   0  0  0  0  0  0  0  0  0  0  0  0
  -23.1267  -26.6413   23.6078 C   0  0  1  0  0  0  0  0  0  0  0  0
  -22.0456  -24.5597   26.5964 C   0  0  1  0  0  0  0  0  0  0  0  0
  -27.6439  -13.1352   19.6858 C   0  0  2  0  0  0  0  0  0  0  0  0
  -27.9637  -18.6843   26.8575 C   0  0  1  0  0  0  0  0  0  0  0  0
  -27.6589  -17.2880   27.4340 C   0  0  0  0  0  0  0  0  0  0  0  0
  -30.6244  -17.9557   20.7680 C   0  0  0  0  0  0  0  0  0  0  0  0
  -21.9197  -24.8460   34.3363 C   0  0  0  0  0  0  0  0  0  0  0  0
  -24.9482  -27.2657   28.9656 C   0  0  0  0  0  0  0  0  0  0  0  0
  -24.8822  -26.9998   31.4542 C   0  0  0  0  0  0  0  0  0  0  0  0
  -23.0248  -28.1783   30.2779 C   0  0  0  0  0  0  0  0  0  0  0  0
  -20.4153  -22.1286   32.1388 C   0  0  0  0  0  0  0  0  0  0  0  0
  -26.8955  -19.6621   27.3777 C   0  0  0  0  0  0  0  0  0  1  0  0
  -30.8057  -16.9037   21.8819 C   0  0  2  0  0  0  0  0  0  0  0  0
  -23.2375  -25.6688   30.0562 C   0  0  1  0  0  0  0  0  0  0  0  0
  -21.3924  -24.2415   33.0442 C   0  0  2  0  0  0  0  0  0  0  0  0
  -24.0235  -27.0053   30.1715 C   0  0  0  0  0  0  0  0  0  0  0  0
  -25.8583  -11.5447   20.2896 N   0  0  0  0  0  0  0  0  0  0  0  0
  -29.1188  -17.7543   23.4109 N   0  0  0  0  0  0  0  0  0  0  0  0
  -29.1088  -18.1073   24.7083 N   0  0  0  0  0  0  0  0  0  0  0  0
  -26.2341  -12.8281   20.1560 N   0  0  0  0  0  0  0  0  0  0  0  0
  -22.6855  -24.5607   27.9135 N   0  0  0  0  0  0  0  0  0  0  0  0
  -29.9696  -13.6115   20.3586 N   0  0  0  0  0  0  0  0  0  0  0  0
  -25.4663  -15.0559   20.3964 N   0  0  0  0  0  0  0  0  0  0  0  0
  -21.8844  -12.5836   21.6021 N   0  0  0  0  0  0  0  0  0  0  0  0
  -22.3916  -25.9310   24.6323 N   0  0  0  0  0  0  0  0  0  0  0  0
  -22.3335  -25.4092   31.1715 N   0  0  0  0  0  0  0  0  0  0  0  0
  -30.1412  -15.6800   21.4925 N   0  0  0  0  0  0  0  0  0  0  0  0
  -20.9756  -22.8372   33.3182 N   0  3  0  0  0  0  0  0  0  0  0  0
  -22.6582  -14.7228   21.3132 O   0  0  0  0  0  0  0  0  0  0  0  0
  -24.2106  -25.0822   25.8125 O   0  0  0  0  0  0  0  0  0  0  0  0
  -21.5068  -26.4406   28.6295 O   0  0  0  0  0  0  0  0  0  0  0  0
  -23.2801  -23.3881   31.8010 O   0  0  0  0  0  0  0  0  0  0  0  0
  -31.8754  -14.9229   20.1978 O   0  0  0  0  0  0  0  0  0  0  0  0
  -21.6154   -7.0206   21.7316 O   0  0  0  0  0  0  0  0  0  0  0  0
  -25.6090  -19.2145   26.9524 O   0  0  0  0  0  0  0  0  0  1  0  0
  -16.4473   -6.8251   19.8194 F   0  0  0  0  0  0  0  0  0  0  0  0
  -20.8363   -5.0573   19.9481 F   0  0  0  0  0  0  0  0  0  0  0  0
  1  2  1  0  0  0  0
  1  5  2  0  0  0  0
  2  6  2  0  0  0  0
  3  8  2  0  0  0  0
  3 16  1  0  0  0  0
  4  9  1  0  0  0  0
  4 16  2  0  0  0  0
  5 18  1  0  0  0  0
  6 20  1  0  0  0  0
  7 10  2  0  0  0  0
  7 19  1  0  0  0  0
  8 22  1  0  0  0  0
  9 22  2  0  0  0  0
 10 23  1  0  0  0  0
 11 12  2  0  0  0  0
 11 24  1  0  0  0  0
 12 25  1  0  0  0  0
 13 21  1  0  0  0  0
 13 23  2  0  0  0  0
 14 25  2  0  0  0  0
 14 26  1  0  0  0  0
 15 28  2  0  0  0  0
 15 29  1  0  0  0  0
 16 27  1  0  0  0  0
 17 27  1  0  0  0  0
 17 30  2  0  0  0  0
 17 31  1  0  0  0  0
 18 20  2  0  0  0  0
 18 36  1  0  0  0  0
 19 21  2  0  0  0  0
 19 37  1  0  0  0  0
 20 48  1  0  0  0  0
 21 38  1  0  0  0  0
 22 81  1  0  0  0  0
 23 82  1  0  0  0  0
 24 26  2  0  0  0  0
 24 81  1  0  0  0  0
 25 83  1  0  0  0  0
 26 84  1  0  0  0  0
 27 64  2  0  0  0  0
 28 39  1  0  0  0  0
 28 66  1  0  0  0  0
 29 60  1  0  0  0  0
 29 65  2  0  0  0  0
 30 67  1  0  0  0  0
 30 70  1  0  0  0  0
 31 71  1  0  0  0  0
 31 76  2  0  0  0  0
 32 49  1  0  0  0  0
 32 72  1  0  0  0  0
 32 77  2  0  0  0  0
 33 61  1  0  0  0  0
 33 68  1  0  0  0  0
 33 78  2  0  0  0  0
 34 62  1  0  0  0  0
 34 73  1  0  0  0  0
 34 79  2  0  0  0  0
 35 69  1  0  0  0  0
 35 74  1  0  0  0  0
 35 80  2  0  0  0  0
 36 40  1  0  0  0  0
 37 49  1  0  0  0  0
 38 68  1  0  0  0  0
 39 41  1  0  0  0  0
 40 43  1  0  0  0  0
 41 51  1  0  0  0  0
 42 44  1  0  0  0  0
 42 46  1  0  0  0  0
 43 48  1  0  0  0  0
 44 50  1  0  0  0  0
 45 51  1  0  0  0  0
 45 66  1  0  0  0  0
 46 69  1  0  0  0  0
 47 50  1  0  0  0  0
 47 69  1  0  0  0  0
 48 72  1  0  0  0  0
 49 68  1  0  0  0  0
 50 67  1  0  0  0  0
 51 52  1  0  0  0  0
 51 59  1  0  0  0  0
 53 60  1  0  0  0  0
 54 62  1  0  0  0  0
 55 63  1  0  0  0  0
 56 63  1  0  0  0  0
 57 63  1  0  0  0  0
 58 75  1  0  0  0  0
 59 82  1  0  0  0  0
 60 74  1  0  0  0  0
 61 63  1  0  0  0  0
 61 73  1  0  0  0  0
 62 75  1  0  0  0  0
 64 67  1  0  0  0  0
 65 66  1  0  0  0  0
M  CHG  1  75   1
M  ISO  4  35 100  59 101  74 100  82 101
M  END
> <Batch ID>
0179

> <Smiles>
CNC(C)C(=O)NC(C(=O)N1Cc2cc([101O:1][101CH2:1]C3(C)CCc4cc(C(C)[100NH:0][100C:0](=O)N5CCCC(n6nc(-c7ccc(Oc8ccc(F)cc8F)cc7)c(C(N)=O)c6N)C5)nn4C3)ccc2CC1C(=O)NC1CCCc2ccccc21)C(C)(C)C

> <Shape>
0.180

> <Color>
0.191

> <Negative vol penalty>
0.000

$$$$

  -OEChem-04052322573D

 89 98  0     1  0  0  0  0  0999 V2000
  -24.4076   -8.4277   21.6344 C   0  0  0  0  0  0  0  0  0  0  0  0
  -24.8475   -9.5370   20.9193 C   0  0  0  0  0  0  0  0  0  0  0  0
  -22.7984  -28.8198   25.0356 C   0  0  0  0  0  0  0  0  0  0  0  0
  -21.3250  -27.6821   23.4955 C   0  0  0  0  0  0  0  0  0  0  0  0
  -23.1131   -8.4017   22.1516 C   0  0  0  0  0  0  0  0  0  0  0  0
  -23.9927  -10.6205   20.7200 C   0  0  0  0  0  0  0  0  0  0  0  0
  -26.2721  -15.0688   21.5331 C   0  0  0  0  0  0  0  0  0  0  0  0
  -30.3232  -22.0988   17.8363 C   0  0  0  0  0  0  0  0  0  0  0  0
  -22.0992  -28.2706   26.1103 C   0  0  0  0  0  0  0  0  0  0  0  0
  -20.6258  -27.1329   24.5702 C   0  0  0  0  0  0  0  0  0  0  0  0
  -27.1061  -15.5506   20.5251 C   0  0  0  0  0  0  0  0  0  0  0  0
  -21.0259  -24.5927   26.7630 C   0  0  0  0  0  0  0  0  0  0  0  0
  -20.7060  -23.2365   26.7009 C   0  0  0  0  0  0  0  0  0  0  0  0
  -30.0065  -23.3723   17.3767 C   0  0  0  0  0  0  0  0  0  0  0  0
  -25.3410  -17.0122   19.7718 C   0  0  0  0  0  0  0  0  0  0  0  0
  -18.3571  -23.7839   26.8433 C   0  0  0  0  0  0  0  0  0  0  0  0
  -22.4113  -28.5256   23.7282 C   0  0  0  0  0  0  0  0  0  0  0  0
  -23.3041  -30.4593   22.3240 C   0  0  0  0  0  0  0  0  0  0  0  0
  -22.2452   -9.4894   21.9668 C   0  0  0  0  0  0  0  0  0  0  0  0
  -24.9605  -15.5480   21.6615 C   0  0  0  0  0  0  0  0  0  0  0  0
  -22.6849  -10.6084   21.2340 C   0  0  0  0  0  0  0  0  0  0  0  0
  -30.8831  -21.9408   19.0991 C   0  0  0  0  0  0  0  0  0  0  0  0
  -24.4933  -16.5368   20.7839 C   0  0  0  0  0  0  0  0  0  0  0  0
  -21.0129  -27.4271   25.8777 C   0  0  0  0  0  0  0  0  0  0  0  0
  -26.6396  -16.5204   19.6424 C   0  0  0  0  0  0  0  0  0  0  0  0
  -20.0114  -25.5446   26.8653 C   0  0  0  0  0  0  0  0  0  0  0  0
  -19.3717  -22.8321   26.7410 C   0  0  0  0  0  0  0  0  0  0  0  0
  -18.6770  -25.1402   26.9054 C   0  0  0  0  0  0  0  0  0  0  0  0
  -23.1329  -29.0931   22.6176 C   0  0  0  0  0  0  0  0  0  0  0  0
  -30.2674  -24.4466   18.2118 C   0  0  0  0  0  0  0  0  0  0  0  0
  -31.1050  -23.0793   19.8571 C   0  0  0  0  0  0  0  0  0  0  0  0
  -24.0590  -30.4719   21.1767 C   0  0  0  0  0  0  0  0  0  0  0  0
  -22.8237  -31.6136   23.0257 C   0  0  0  0  0  0  0  0  0  0  0  0
  -22.0678  -14.2432   21.4800 C   0  0  0  0  0  0  0  0  0  0  0  0
  -21.1051  -17.1904   22.4335 C   0  0  0  0  0  0  0  0  0  0  0  0
  -21.9699  -20.6127   21.6869 C   0  0  0  0  0  0  0  0  0  0  0  0
  -27.9036  -26.5812   18.9548 C   0  0  0  0  0  0  0  0  0  0  0  0
  -20.8391   -9.3956   22.5041 C   0  0  0  0  0  0  0  0  0  0  0  0
  -24.0824  -15.0375   22.7708 C   0  0  0  0  0  0  0  0  0  0  0  0
  -23.1001  -17.0988   20.8918 C   0  0  0  0  0  0  0  0  0  0  0  0
  -20.1211  -10.7411   22.5697 C   0  0  0  0  0  0  0  0  0  0  0  0
  -24.9726  -27.8677   17.2663 C   0  0  0  0  0  0  0  0  0  0  0  0
  -20.3127  -11.5125   21.2678 C   0  0  0  0  0  0  0  0  0  0  0  0
  -24.1840  -28.4609   18.4352 C   0  0  0  0  0  0  0  0  0  0  0  0
  -25.6785  -26.5778   17.6736 C   0  0  0  0  0  0  0  0  0  0  0  0
  -25.7891  -27.3057   20.0255 C   0  0  0  0  0  0  0  0  0  0  0  0
  -29.0448  -19.6990   20.1690 C   0  0  0  0  0  0  0  0  0  0  0  0
  -30.9317  -19.3561   18.6491 C   0  0  0  0  0  0  0  0  0  0  0  0
  -21.7954  -11.8135   21.0180 C   0  0  1  0  0  0  0  0  0  0  0  0
  -22.5947  -15.2238   22.4891 C   0  0  1  0  0  0  0  0  0  0  0  0
  -30.3399  -20.1584   20.8372 C   0  0  2  0  0  0  0  0  0  0  0  0
  -25.0706  -28.6238   19.6840 C   0  0  2  0  0  0  0  0  0  0  0  0
  -31.2386  -20.5280   19.6152 C   0  0  2  0  0  0  0  0  0  0  0  0
  -31.7011  -22.9700   21.2222 C   0  0  0  0  0  0  0  0  0  0  0  0
  -30.9026  -19.0633   21.7518 C   0  0  0  0  0  0  0  0  0  0  0  0
  -33.5587  -20.8335   18.7117 C   0  0  0  0  0  0  0  0  0  0  0  0
  -21.7718  -22.6876   23.0844 C   0  0  0  0  0  0  0  0  0  0  0  0
  -18.4204  -17.5338   21.0248 C   0  0  0  0  0  0  0  0  0  0  0  0
  -18.8552  -19.9982   20.9471 C   0  0  0  0  0  0  0  0  0  0  0  0
  -18.6596  -18.8366   23.1461 C   0  0  0  0  0  0  0  0  0  0  0  0
  -24.8419  -21.2475   21.3590 C   0  0  0  0  0  0  0  0  0  0  0  0
  -29.9383  -25.8275   17.7511 C   0  0  0  0  0  0  0  0  0  0  0  0
  -32.7494  -20.5245   19.9262 C   0  0  0  0  0  0  0  0  0  0  0  0
  -28.5644  -18.9489   17.8124 C   0  0  0  0  0  0  0  0  0  0  0  0
  -27.2420  -18.3378   18.2317 C   0  0  0  0  0  0  0  0  0  1  0  0
  -20.7213  -18.4695   21.7295 C   0  0  1  0  0  0  0  0  0  0  0  0
  -22.6988  -21.5851   22.5967 C   0  0  2  0  0  0  0  0  0  0  0  0
  -19.1826  -18.6912   21.7004 C   0  0  0  0  0  0  0  0  0  0  0  0
  -23.7308  -28.2958   21.7284 N   0  0  0  0  0  0  0  0  0  0  0  0
  -30.8104  -24.3326   19.4446 N   0  0  0  0  0  0  0  0  0  0  0  0
  -24.2850  -29.1635   20.8647 N   0  0  0  0  0  0  0  0  0  0  0  0
  -22.2775  -16.5630   21.9890 N   0  0  0  0  0  0  0  0  0  0  0  0
  -26.5204  -26.8056   18.8566 N   0  0  0  0  0  0  0  0  0  0  0  0
  -24.5447  -31.4744   20.4142 N   0  0  0  0  0  0  0  0  0  0  0  0
  -21.5707  -32.1349   22.6755 N   0  0  0  0  0  0  0  0  0  0  0  0
  -22.2323  -12.9199   21.8423 N   0  0  0  0  0  0  0  0  0  0  0  0
  -21.4665  -19.5371   22.3876 N   0  0  0  0  0  0  0  0  0  0  0  0
  -28.5194  -26.1008   17.8056 N   0  0  0  0  0  0  0  0  0  0  0  0
  -29.5126  -18.9139   18.9677 N   0  3  2  0  0  0  0  0  0  0  0  0
  -23.8392  -22.2155   21.8736 N   0  3  0  0  0  0  0  0  0  0  0  0
  -23.4932  -32.1763   23.9250 O   0  0  0  0  0  0  0  0  0  0  0  0
  -21.5489  -14.6565   20.4496 O   0  0  0  0  0  0  0  0  0  0  0  0
  -20.3948  -16.7674   23.3490 O   0  0  0  0  0  0  0  0  0  0  0  0
  -21.8552  -20.7914   20.4764 O   0  0  0  0  0  0  0  0  0  0  0  0
  -28.5441  -26.7981   19.9892 O   0  0  0  0  0  0  0  0  0  0  0  0
  -20.3305  -26.8908   26.9261 O   0  0  0  0  0  0  0  0  0  0  0  0
  -27.4513  -16.9919   18.6571 O   0  0  0  0  0  0  0  0  0  1  0  0
  -19.0646  -21.5297   26.6798 F   0  0  0  0  0  0  0  0  0  0  0  0
  -17.6980  -26.0501   27.0025 F   0  0  0  0  0  0  0  0  0  0  0  0
  1  2  1  0  0  0  0
  1  5  2  0  0  0  0
  2  6  2  0  0  0  0
  3  9  2  0  0  0  0
  3 17  1  0  0  0  0
  4 10  1  0  0  0  0
  4 17  2  0  0  0  0
  5 19  1  0  0  0  0
  6 21  1  0  0  0  0
  7 11  2  0  0  0  0
  7 20  1  0  0  0  0
  8 14  2  0  0  0  0
  8 22  1  0  0  0  0
  9 24  1  0  0  0  0
 10 24  2  0  0  0  0
 11 25  1  0  0  0  0
 12 13  2  0  0  0  0
 12 26  1  0  0  0  0
 13 27  1  0  0  0  0
 14 30  1  0  0  0  0
 15 23  1  0  0  0  0
 15 25  2  0  0  0  0
 16 27  2  0  0  0  0
 16 28  1  0  0  0  0
 17 29  1  0  0  0  0
 18 29  1  0  0  0  0
 18 32  2  0  0  0  0
 18 33  1  0  0  0  0
 19 21  2  0  0  0  0
 19 38  1  0  0  0  0
 20 23  2  0  0  0  0
 20 39  1  0  0  0  0
 21 49  1  0  0  0  0
 22 31  2  0  0  0  0
 22 53  1  0  0  0  0
 23 40  1  0  0  0  0
 24 86  1  0  0  0  0
 25 87  1  0  0  0  0
 26 28  2  0  0  0  0
 26 86  1  0  0  0  0
 27 88  1  0  0  0  0
 28 89  1  0  0  0  0
 29 69  2  0  0  0  0
 30 62  1  0  0  0  0
 30 70  2  0  0  0  0
 31 54  1  0  0  0  0
 31 70  1  0  0  0  0
 32 71  1  0  0  0  0
 32 74  1  0  0  0  0
 33 75  1  0  0  0  0
 33 81  2  0  0  0  0
 34 50  1  0  0  0  0
 34 76  1  0  0  0  0
 34 82  2  0  0  0  0
 35 66  1  0  0  0  0
 35 72  1  0  0  0  0
 35 83  2  0  0  0  0
 36 67  1  0  0  0  0
 36 77  1  0  0  0  0
 36 84  2  0  0  0  0
 37 73  1  0  0  0  0
 37 78  1  0  0  0  0
 37 85  2  0  0  0  0
 38 41  1  0  0  0  0
 39 50  1  0  0  0  0
 40 72  1  0  0  0  0
 41 43  1  0  0  0  0
 42 44  1  0  0  0  0
 42 45  1  0  0  0  0
 43 49  1  0  0  0  0
 44 52  1  0  0  0  0
 45 73  1  0  0  0  0
 46 52  1  0  0  0  0
 46 73  1  0  0  0  0
 47 51  1  0  0  0  0
 47 79  1  0  0  0  0
 48 53  1  0  0  0  0
 48 79  1  0  0  0  0
 49 76  1  0  0  0  0
 50 72  1  0  0  0  0
 51 53  1  0  0  0  0
 51 55  1  0  0  0  0
 52 71  1  0  0  0  0
 53 63  1  0  0  0  0
 56 63  1  0  0  0  0
 57 67  1  0  0  0  0
 58 68  1  0  0  0  0
 59 68  1  0  0  0  0
 60 68  1  0  0  0  0
 61 80  1  0  0  0  0
 62 78  1  0  0  0  0
 64 65  1  0  0  0  0
 64 79  1  0  0  0  0
 65 87  1  0  0  0  0
 66 68  1  0  0  0  0
 66 77  1  0  0  0  0
 67 80  1  0  0  0  0
 69 71  1  0  0  0  0
M  CHG  2  79   1  80   1
M  ISO  4  37 100  65 101  78 100  87 101
M  END
> <Batch ID>
0179

> <Smiles>
CCC1(c2ccc(C[100NH:0][100C:0](=O)N3CCCC(n4nc(-c5ccc(Oc6ccc(F)cc6F)cc5)c(C(N)=O)c4N)C3)nc2C)CN(C[101CH2:1][101O:1]c2ccc3c(c2)CN(C(=O)C(NC(=O)C(C)NC)C(C)(C)C)C(C(=O)NC2CCCc4ccccc42)C3)CC1C

> <Shape>
0.202

> <Color>
0.087

> <Negative vol penalty>
0.000

$$$$

  -OEChem-04052322573D

 85 94  0     1  0  0  0  0  0999 V2000
  -24.0906  -31.8224   17.3133 C   0  0  0  0  0  0  0  0  0  0  0  0
  -23.8365  -30.5280   17.7550 C   0  0  0  0  0  0  0  0  0  0  0  0
  -22.9333   -9.9019   20.0503 C   0  0  0  0  0  0  0  0  0  0  0  0
  -23.6334  -10.0411   22.3585 C   0  0  0  0  0  0  0  0  0  0  0  0
  -25.3988  -32.3038   17.2844 C   0  0  0  0  0  0  0  0  0  0  0  0
  -24.8907  -29.7136   18.1673 C   0  0  0  0  0  0  0  0  0  0  0  0
  -26.4248  -24.5056   22.8406 C   0  0  0  0  0  0  0  0  0  0  0  0
  -22.1342   -8.8011   20.3591 C   0  0  0  0  0  0  0  0  0  0  0  0
  -22.8342   -8.9403   22.6673 C   0  0  0  0  0  0  0  0  0  0  0  0
  -26.9795  -23.2274   22.8849 C   0  0  0  0  0  0  0  0  0  0  0  0
  -22.9960   -5.5779   22.3529 C   0  0  0  0  0  0  0  0  0  0  0  0
  -23.5480   -4.5819   23.1585 C   0  0  0  0  0  0  0  0  0  0  0  0
  -29.1902  -24.1927   22.8668 C   0  0  0  0  0  0  0  0  0  0  0  0
  -21.8122   -4.9467   24.7990 C   0  0  0  0  0  0  0  0  0  0  0  0
  -23.6829  -10.5219   21.0500 C   0  0  0  0  0  0  0  0  0  0  0  0
  -24.1363  -13.0158   20.7630 C   0  0  0  0  0  0  0  0  0  0  0  0
  -26.4685  -31.4982   17.7057 C   0  0  0  0  0  0  0  0  0  0  0  0
  -27.2500  -25.6386   22.7979 C   0  0  0  0  0  0  0  0  0  0  0  0
  -26.2146  -30.1842   18.1428 C   0  0  0  0  0  0  0  0  0  0  0  0
  -28.6434  -25.4843   22.8245 C   0  0  0  0  0  0  0  0  0  0  0  0
  -29.4957  -18.8373   21.9850 C   0  0  0  0  0  0  0  0  0  0  0  0
  -28.7875  -19.4451   23.0442 C   0  0  0  0  0  0  0  0  0  0  0  0
  -22.0846   -8.3203   21.6675 C   0  0  0  0  0  0  0  0  0  0  0  0
  -28.3624  -23.0706   22.8951 C   0  0  0  0  0  0  0  0  0  0  0  0
  -21.8521   -6.2584   22.7704 C   0  0  0  0  0  0  0  0  0  0  0  0
  -22.9561   -4.2663   24.3815 C   0  0  0  0  0  0  0  0  0  0  0  0
  -21.2602   -5.9427   23.9934 C   0  0  0  0  0  0  0  0  0  0  0  0
  -24.5090  -11.6587   20.7316 C   0  0  0  0  0  0  0  0  0  0  0  0
  -30.0713  -17.6904   22.4819 C   0  0  0  0  0  0  0  0  0  0  0  0
  -28.9443  -18.6566   24.1676 C   0  0  0  0  0  0  0  0  0  0  0  0
  -25.2687  -13.6919   20.3797 C   0  0  0  0  0  0  0  0  0  0  0  0
  -29.6445  -16.6843   25.9961 C   0  0  0  0  0  0  0  0  0  0  0  0
  -30.0954  -16.5780   24.7354 C   0  0  0  0  0  0  0  0  0  0  0  0
  -28.7946  -17.8774   26.2922 C   0  0  0  0  0  0  0  0  0  0  0  0
  -22.8788  -13.6121   21.1080 C   0  0  0  0  0  0  0  0  0  0  0  0
  -27.7097  -28.0020   20.7226 C   0  0  0  0  0  0  0  0  0  0  0  0
  -29.6084  -29.1768   23.0758 C   0  0  0  0  0  0  0  0  0  0  0  0
  -31.5161  -28.5610   25.8377 C   0  0  0  0  0  0  0  0  0  0  0  0
  -30.7846  -14.4951   20.6538 C   0  0  0  0  0  0  0  0  0  0  0  0
  -27.8706  -32.0461   17.6118 C   0  0  0  0  0  0  0  0  0  0  0  0
  -26.6359  -27.0115   22.7773 C   0  0  0  0  0  0  0  0  0  0  0  0
  -29.5731  -26.6691   22.8006 C   0  0  0  0  0  0  0  0  0  0  0  0
  -28.8915  -31.2484   18.4192 C   0  0  0  0  0  0  0  0  0  0  0  0
  -29.6072  -11.9954   18.4084 C   0  0  0  0  0  0  0  0  0  0  0  0
  -28.7164  -29.7533   18.1728 C   0  0  0  0  0  0  0  0  0  0  0  0
  -28.1477  -11.7927   18.8193 C   0  0  0  0  0  0  0  0  0  0  0  0
  -30.5017  -12.2633   19.6167 C   0  0  0  0  0  0  0  0  0  0  0  0
  -28.5981  -13.1691   20.8933 C   0  0  0  0  0  0  0  0  0  0  0  0
  -27.3289  -29.2790   18.6214 C   0  0  1  0  0  0  0  0  0  0  0  0
  -27.5731  -28.0769   22.2171 C   0  0  1  0  0  0  0  0  0  0  0  0
  -27.6480  -12.9512   19.7033 C   0  0  2  0  0  0  0  0  0  0  0  0
  -29.6000  -19.3396   20.5993 C   0  0  0  0  0  0  0  0  0  0  0  0
  -30.9557  -15.4095   24.3538 C   0  0  0  0  0  0  0  0  0  0  0  0
  -28.2776  -18.0152   27.7022 C   0  0  0  0  0  0  0  0  0  0  0  0
  -32.9745  -29.7160   27.5219 C   0  0  0  0  0  0  0  0  0  0  0  0
  -31.8411  -29.3716   21.0052 C   0  0  0  0  0  0  0  0  0  0  0  0
  -33.4731  -29.6053   22.8894 C   0  0  0  0  0  0  0  0  0  0  0  0
  -31.6916  -31.3209   22.5647 C   0  0  0  0  0  0  0  0  0  0  0  0
  -29.7624  -27.7550   28.0814 C   0  0  0  0  0  0  0  0  0  0  0  0
  -28.0016  -20.7211   22.9703 C   0  0  0  0  0  0  0  0  0  1  0  0
  -30.9112  -16.7239   21.7381 C   0  0  0  0  0  0  0  0  0  0  0  0
  -31.0654  -29.0350   23.4447 C   0  0  1  0  0  0  0  0  0  0  0  0
  -31.5687  -29.2359   27.1965 C   0  0  2  0  0  0  0  0  0  0  0  0
  -32.0006  -29.8106   22.4745 C   0  0  0  0  0  0  0  0  0  0  0  0
  -25.7789  -11.4813   20.3577 N   0  0  0  0  0  0  0  0  0  0  0  0
  -28.4652  -18.7991   25.4353 N   0  0  0  0  0  0  0  0  0  0  0  0
  -29.7412  -17.5726   23.8156 N   0  0  0  0  0  0  0  0  0  0  0  0
  -26.2140  -12.7358   20.1505 N   0  0  0  0  0  0  0  0  0  0  0  0
  -28.9245  -27.9905   22.7743 N   0  0  0  0  0  0  0  0  0  0  0  0
  -29.9733  -13.3742   20.4122 N   0  0  0  0  0  0  0  0  0  0  0  0
  -25.5381  -15.0050   20.2195 N   0  0  0  0  0  0  0  0  0  0  0  0
  -21.8203  -12.7717   21.4790 N   0  0  0  0  0  0  0  0  0  0  0  0
  -27.2840  -29.1380   20.0611 N   0  0  0  0  0  0  0  0  0  0  0  0
  -31.1755  -29.4489   24.8393 N   0  0  0  0  0  0  0  0  0  0  0  0
  -30.2045  -15.5055   21.4110 N   0  0  0  0  0  0  0  0  0  0  0  0
  -31.1371  -28.2882   28.2626 N   0  3  0  0  0  0  0  0  0  0  0  0
  -22.6944  -14.8523   21.0721 O   0  0  0  0  0  0  0  0  0  0  0  0
  -28.1689  -26.9891   20.2080 O   0  0  0  0  0  0  0  0  0  0  0  0
  -29.0942  -30.2979   23.0627 O   0  0  0  0  0  0  0  0  0  0  0  0
  -31.7570  -27.3666   25.6775 O   0  0  0  0  0  0  0  0  0  0  0  0
  -31.9384  -14.5909   20.2218 O   0  0  0  0  0  0  0  0  0  0  0  0
  -21.3048   -7.2464   21.9692 O   0  0  0  0  0  0  0  0  0  0  0  0
  -28.9066  -21.8240   22.9377 O   0  0  0  0  0  0  0  0  0  1  0  0
  -23.4854   -3.3088   25.1542 F   0  0  0  0  0  0  0  0  0  0  0  0
  -20.1605   -6.5922   24.3993 F   0  0  0  0  0  0  0  0  0  0  0  0
  1  2  1  0  0  0  0
  1  5  2  0  0  0  0
  2  6  2  0  0  0  0
  3  8  2  0  0  0  0
  3 15  1  0  0  0  0
  4  9  1  0  0  0  0
  4 15  2  0  0  0  0
  5 17  1  0  0  0  0
  6 19  1  0  0  0  0
  7 10  2  0  0  0  0
  7 18  1  0  0  0  0
  8 23  1  0  0  0  0
  9 23  2  0  0  0  0
 10 24  1  0  0  0  0
 11 12  2  0  0  0  0
 11 25  1  0  0  0  0
 12 26  1  0  0  0  0
 13 20  1  0  0  0  0
 13 24  2  0  0  0  0
 14 26  2  0  0  0  0
 14 27  1  0  0  0  0
 15 28  1  0  0  0  0
 16 28  1  0  0  0  0
 16 31  2  0  0  0  0
 16 35  1  0  0  0  0
 17 19  2  0  0  0  0
 17 40  1  0  0  0  0
 18 20  2  0  0  0  0
 18 41  1  0  0  0  0
 19 49  1  0  0  0  0
 20 42  1  0  0  0  0
 21 22  1  0  0  0  0
 21 29  2  0  0  0  0
 21 52  1  0  0  0  0
 22 30  2  0  0  0  0
 22 60  1  0  0  0  0
 23 82  1  0  0  0  0
 24 83  1  0  0  0  0
 25 27  2  0  0  0  0
 25 82  1  0  0  0  0
 26 84  1  0  0  0  0
 27 85  1  0  0  0  0
 28 65  2  0  0  0  0
 29 61  1  0  0  0  0
 29 67  1  0  0  0  0
 30 66  1  0  0  0  0
 30 67  1  0  0  0  0
 31 68  1  0  0  0  0
 31 71  1  0  0  0  0
 32 33  2  0  0  0  0
 32 34  1  0  0  0  0
 33 53  1  0  0  0  0
 33 67  1  0  0  0  0
 34 54  1  0  0  0  0
 34 66  2  0  0  0  0
 35 72  1  0  0  0  0
 35 77  2  0  0  0  0
 36 50  1  0  0  0  0
 36 73  1  0  0  0  0
 36 78  2  0  0  0  0
 37 62  1  0  0  0  0
 37 69  1  0  0  0  0
 37 79  2  0  0  0  0
 38 63  1  0  0  0  0
 38 74  1  0  0  0  0
 38 80  2  0  0  0  0
 39 70  1  0  0  0  0
 39 75  1  0  0  0  0
 39 81  2  0  0  0  0
 40 43  1  0  0  0  0
 41 50  1  0  0  0  0
 42 69  1  0  0  0  0
 43 45  1  0  0  0  0
 44 46  1  0  0  0  0
 44 47  1  0  0  0  0
 45 49  1  0  0  0  0
 46 51  1  0  0  0  0
 47 70  1  0  0  0  0
 48 51  1  0  0  0  0
 48 70  1  0  0  0  0
 49 73  1  0  0  0  0
 50 69  1  0  0  0  0
 51 68  1  0  0  0  0
 55 63  1  0  0  0  0
 56 64  1  0  0  0  0
 57 64  1  0  0  0  0
 58 64  1  0  0  0  0
 59 76  1  0  0  0  0
 60 83  1  0  0  0  0
 61 75  1  0  0  0  0
 62 64  1  0  0  0  0
 62 74  1  0  0  0  0
 63 76  1  0  0  0  0
 65 68  1  0  0  0  0
M  CHG  1  76   1
M  ISO  4  39 100  60 101  75 100  83 101
M  END
> <Batch ID>
0179

> <Smiles>
CNC(C)C(=O)NC(C(=O)N1Cc2cc([101O:1][101CH2:1]c3c(C)c(C[100NH:0][100C:0](=O)N4CCCC(n5nc(-c6ccc(Oc7ccc(F)cc7F)cc6)c(C(N)=O)c5N)C4)n4c(C)cc(C)nc34)ccc2CC1C(=O)NC1CCCc2ccccc21)C(C)(C)C

> <Shape>
0.219

> <Color>
0.214

> <Negative vol penalty>
0.000

$$$$

  -OEChem-04052322573D

 86 95  0     1  0  0  0  0  0999 V2000
  -25.2474  -26.1867   18.9138 C   0  0  0  0  0  0  0  0  0  0  0  0
  -24.8829  -24.8458   18.8461 C   0  0  0  0  0  0  0  0  0  0  0  0
  -20.8204  -26.4458   23.1959 C   0  0  0  0  0  0  0  0  0  0  0  0
  -22.7897  -25.6037   22.0780 C   0  0  0  0  0  0  0  0  0  0  0  0
  -26.5836  -26.5358   19.1052 C   0  0  0  0  0  0  0  0  0  0  0  0
  -25.8545  -23.8532   18.9688 C   0  0  0  0  0  0  0  0  0  0  0  0
  -25.1990  -18.3657   21.6075 C   0  0  0  0  0  0  0  0  0  0  0  0
  -21.4708  -27.6575   23.4289 C   0  0  0  0  0  0  0  0  0  0  0  0
  -23.4401  -26.8154   22.3110 C   0  0  0  0  0  0  0  0  0  0  0  0
  -24.9545  -17.0966   21.0845 C   0  0  0  0  0  0  0  0  0  0  0  0
  -23.4668  -29.9221   20.9811 C   0  0  0  0  0  0  0  0  0  0  0  0
  -24.1795  -30.4871   19.9235 C   0  0  0  0  0  0  0  0  0  0  0  0
  -27.3211  -16.6309   21.1244 C   0  0  0  0  0  0  0  0  0  0  0  0
  -21.7185  -13.3986   21.7543 C   0  0  0  0  0  0  0  0  0  0  0  0
  -26.2071  -30.3807   21.2330 C   0  0  0  0  0  0  0  0  0  0  0  0
  -21.4799  -25.4188   22.5205 C   0  0  0  0  0  0  0  0  0  0  0  0
  -20.0268  -23.8225   21.1612 C   0  0  0  0  0  0  0  0  0  0  0  0
  -27.5708  -25.5469   19.2400 C   0  0  0  0  0  0  0  0  0  0  0  0
  -26.5095  -18.7816   21.8831 C   0  0  0  0  0  0  0  0  0  0  0  0
  -27.2054  -24.1895   19.1609 C   0  0  0  0  0  0  0  0  0  0  0  0
  -27.5793  -17.9048   21.6532 C   0  0  0  0  0  0  0  0  0  0  0  0
  -22.9311  -12.7827   21.4653 C   0  0  0  0  0  0  0  0  0  0  0  0
  -24.0492  -13.0621   22.2432 C   0  0  0  0  0  0  0  0  0  0  0  0
  -22.7806  -27.8424   22.9864 C   0  0  0  0  0  0  0  0  0  0  0  0
  -26.0158  -16.2301   20.8402 C   0  0  0  0  0  0  0  0  0  0  0  0
  -24.1243  -29.5864   22.1647 C   0  0  0  0  0  0  0  0  0  0  0  0
  -25.5496  -30.7164   20.0495 C   0  0  0  0  0  0  0  0  0  0  0  0
  -25.4944  -29.8157   22.2906 C   0  0  0  0  0  0  0  0  0  0  0  0
  -20.8088  -24.1667   22.2800 C   0  0  0  0  0  0  0  0  0  0  0  0
  -21.6768  -14.2790   22.8234 C   0  0  0  0  0  0  0  0  0  0  0  0
  -23.9033  -13.9577   23.2902 C   0  0  0  0  0  0  0  0  0  0  0  0
  -19.6187  -22.5349   21.4105 C   0  0  0  0  0  0  0  0  0  0  0  0
  -19.6986  -24.5973   20.0004 C   0  0  0  0  0  0  0  0  0  0  0  0
  -28.3948  -21.1090   20.8189 C   0  0  0  0  0  0  0  0  0  0  0  0
  -30.3793  -20.0371   23.1502 C   0  0  0  0  0  0  0  0  0  0  0  0
  -31.3489  -17.4658   25.1738 C   0  0  0  0  0  0  0  0  0  0  0  0
  -20.7352  -17.4078   22.9639 C   0  0  0  0  0  0  0  0  0  0  0  0
  -29.0087  -25.9734   19.3982 C   0  0  0  0  0  0  0  0  0  0  0  0
  -26.7541  -20.1438   22.4720 C   0  0  0  0  0  0  0  0  0  0  0  0
  -29.0030  -18.2956   21.9509 C   0  0  0  0  0  0  0  0  0  0  0  0
  -29.9242  -24.8569   19.8937 C   0  0  0  0  0  0  0  0  0  0  0  0
  -19.9269  -19.7366   25.6136 C   0  0  0  0  0  0  0  0  0  0  0  0
  -22.0571  -10.6605   20.2793 C   0  0  0  0  0  0  0  0  0  0  0  0
  -23.5094  -10.4321   20.5604 C   0  0  0  0  0  0  0  0  0  0  0  0
  -29.6672  -23.5707   19.1150 C   0  0  0  0  0  0  0  0  0  0  0  0
  -20.0215  -21.0760   24.8806 C   0  0  0  0  0  0  0  0  0  0  0  0
  -20.9978  -18.7640   25.1282 C   0  0  0  0  0  0  0  0  0  0  0  0
  -21.0852  -19.8610   22.9231 C   0  0  0  0  0  0  0  0  0  0  0  0
  -23.0047  -11.8293   20.3181 C   0  0  0  0  0  0  0  0  0  0  0  0
  -28.2269  -23.0835   19.3143 C   0  0  1  0  0  0  0  0  0  0  0  0
  -28.1725  -20.6522   22.2329 C   0  0  1  0  0  0  0  0  0  0  0  0
  -20.0147  -20.8804   23.3529 C   0  0  2  0  0  0  0  0  0  0  0  0
  -25.0671  -14.2999   24.1630 C   0  0  0  0  0  0  0  0  0  0  0  0
  -33.0241  -16.8791   26.9478 C   0  0  0  0  0  0  0  0  0  0  0  0
  -26.9564  -11.4541   20.5743 C   0  0  0  0  0  0  0  0  0  0  0  0
  -32.5476  -19.7907   21.0177 C   0  0  0  0  0  0  0  0  0  0  0  0
  -33.8420  -18.3455   22.6001 C   0  0  0  0  0  0  0  0  0  0  0  0
  -33.3356  -20.7120   23.2051 C   0  0  0  0  0  0  0  0  0  0  0  0
  -29.2259  -16.9305   27.1651 C   0  0  0  0  0  0  0  0  0  0  0  0
  -20.3921  -14.9583   23.1624 C   0  0  0  0  0  0  0  0  0  0  0  0
  -26.6929  -13.9552   20.6898 C   0  0  0  0  0  0  0  0  0  1  0  0
  -31.4744  -19.0011   23.2292 C   0  0  1  0  0  0  0  0  0  0  0  0
  -31.6262  -17.4072   26.6652 C   0  0  2  0  0  0  0  0  0  0  0  0
  -25.9737  -12.6084   20.7213 C   0  0  2  0  0  0  0  0  0  0  0  0
  -32.7734  -19.4554   22.5055 C   0  0  0  0  0  0  0  0  0  0  0  0
  -20.8938  -23.1776   23.1737 N   0  0  0  0  0  0  0  0  0  0  0  0
  -22.7418  -14.5755   23.6016 N   0  0  0  0  0  0  0  0  0  0  0  0
  -20.1598  -22.1993   22.6167 N   0  0  0  0  0  0  0  0  0  0  0  0
  -29.1914  -19.6404   22.5199 N   0  0  0  0  0  0  0  0  0  0  0  0
  -20.9251  -18.6081   23.6686 N   0  0  0  0  0  0  0  0  0  0  0  0
  -18.8534  -21.6684   20.7135 N   0  0  0  0  0  0  0  0  0  0  0  0
  -20.2010  -25.9022   19.9041 N   0  0  0  0  0  0  0  0  0  0  0  0
  -25.2678  -12.4646   21.9788 N   0  0  0  0  0  0  0  0  0  0  0  0
  -28.0853  -22.4381   20.6018 N   0  0  0  0  0  0  0  0  0  0  0  0
  -31.6529  -18.7029   24.6461 N   0  0  0  0  0  0  0  0  0  0  0  0
  -20.5992  -16.2659   23.7439 N   0  0  0  0  0  0  0  0  0  0  0  0
  -30.6415  -16.5154   27.3405 N   0  3  0  0  0  0  0  0  0  0  0  0
  -18.9676  -24.1517   19.0835 O   0  0  0  0  0  0  0  0  0  0  0  0
  -28.8173  -20.3149   19.9867 O   0  0  0  0  0  0  0  0  0  0  0  0
  -30.5682  -21.1550   23.6364 O   0  0  0  0  0  0  0  0  0  0  0  0
  -30.9103  -16.5087   24.5397 O   0  0  0  0  0  0  0  0  0  0  0  0
  -20.6851  -17.3578   21.7302 O   0  0  0  0  0  0  0  0  0  0  0  0
  -23.4155  -29.0247   23.2134 O   0  0  0  0  0  0  0  0  0  0  0  0
  -25.7801  -14.9911   20.3292 O   0  0  0  0  0  0  0  0  0  1  0  0
  -26.2341  -31.2576   19.0333 F   0  0  0  0  0  0  0  0  0  0  0  0
  -26.1317  -29.4941   23.4247 F   0  0  0  0  0  0  0  0  0  0  0  0
  1  2  1  0  0  0  0
  1  5  2  0  0  0  0
  2  6  2  0  0  0  0
  3  8  2  0  0  0  0
  3 16  1  0  0  0  0
  4  9  1  0  0  0  0
  4 16  2  0  0  0  0
  5 18  1  0  0  0  0
  6 20  1  0  0  0  0
  7 10  2  0  0  0  0
  7 19  1  0  0  0  0
  8 24  1  0  0  0  0
  9 24  2  0  0  0  0
 10 25  1  0  0  0  0
 11 12  2  0  0  0  0
 11 26  1  0  0  0  0
 12 27  1  0  0  0  0
 13 21  1  0  0  0  0
 13 25  2  0  0  0  0
 14 22  2  0  0  0  0
 14 30  1  0  0  0  0
 15 27  2  0  0  0  0
 15 28  1  0  0  0  0
 16 29  1  0  0  0  0
 17 29  1  0  0  0  0
 17 32  2  0  0  0  0
 17 33  1  0  0  0  0
 18 20  2  0  0  0  0
 18 38  1  0  0  0  0
 19 21  2  0  0  0  0
 19 39  1  0  0  0  0
 20 50  1  0  0  0  0
 21 40  1  0  0  0  0
 22 23  1  0  0  0  0
 22 49  1  0  0  0  0
 23 31  2  0  0  0  0
 23 73  1  0  0  0  0
 24 83  1  0  0  0  0
 25 84  1  0  0  0  0
 26 28  2  0  0  0  0
 26 83  1  0  0  0  0
 27 85  1  0  0  0  0
 28 86  1  0  0  0  0
 29 66  2  0  0  0  0
 30 60  1  0  0  0  0
 30 67  2  0  0  0  0
 31 53  1  0  0  0  0
 31 67  1  0  0  0  0
 32 68  1  0  0  0  0
 32 71  1  0  0  0  0
 33 72  1  0  0  0  0
 33 78  2  0  0  0  0
 34 51  1  0  0  0  0
 34 74  1  0  0  0  0
 34 79  2  0  0  0  0
 35 62  1  0  0  0  0
 35 69  1  0  0  0  0
 35 80  2  0  0  0  0
 36 63  1  0  0  0  0
 36 75  1  0  0  0  0
 36 81  2  0  0  0  0
 37 70  1  0  0  0  0
 37 76  1  0  0  0  0
 37 82  2  0  0  0  0
 38 41  1  0  0  0  0
 39 51  1  0  0  0  0
 40 69  1  0  0  0  0
 41 45  1  0  0  0  0
 42 46  1  0  0  0  0
 42 47  1  0  0  0  0
 43 44  1  0  0  0  0
 43 49  1  0  0  0  0
 44 49  1  0  0  0  0
 45 50  1  0  0  0  0
 46 52  1  0  0  0  0
 47 70  1  0  0  0  0
 48 52  1  0  0  0  0
 48 70  1  0  0  0  0
 50 74  1  0  0  0  0
 51 69  1  0  0  0  0
 52 68  1  0  0  0  0
 54 63  1  0  0  0  0
 55 64  1  0  0  0  0
 56 65  1  0  0  0  0
 57 65  1  0  0  0  0
 58 65  1  0  0  0  0
 59 77  1  0  0  0  0
 60 76  1  0  0  0  0
 61 64  1  0  0  0  0
 61 84  1  0  0  0  0
 62 65  1  0  0  0  0
 62 75  1  0  0  0  0
 63 77  1  0  0  0  0
 64 73  1  0  0  0  0
 66 68  1  0  0  0  0
M  CHG  1  77   1
M  ISO  4  37 100  61 101  76 100  84 101
M  END
> <Batch ID>
0179

> <Smiles>
CNC(C)C(=O)NC(C(=O)N1Cc2cc([101O:1][101CH2:1]C(C)Nc3c(C4CC4)cc(C[100NH:0][100C:0](=O)N4CCCC(n5nc(-c6ccc(Oc7ccc(F)cc7F)cc6)c(C(N)=O)c5N)C4)nc3C)ccc2CC1C(=O)NC1CCCc2ccccc21)C(C)(C)C

> <Shape>
0.186

> <Color>
0.067

> <Negative vol penalty>
0.000

$$$$

  -OEChem-04052322573D

 81 89  0     1  0  0  0  0  0999 V2000
  -19.6411  -26.7054   22.8339 C   0  0  0  0  0  0  0  0  0  0  0  0
  -19.8138  -27.4706   21.9249 C   0  0  0  0  0  0  0  0  0  1  0  0
  -27.8637  -23.8272   17.7925 C   0  0  0  0  0  0  0  0  0  0  0  0
  -26.6568  -24.2021   18.3743 C   0  0  0  0  0  0  0  0  0  0  0  0
  -25.6528  -15.2370   21.3931 C   0  0  0  0  0  0  0  0  0  0  0  0
  -23.5138  -14.3072   20.7628 C   0  0  0  0  0  0  0  0  0  0  0  0
  -29.0666  -24.2852   18.3284 C   0  0  0  0  0  0  0  0  0  0  0  0
  -26.6523  -25.0344   19.4931 C   0  0  0  0  0  0  0  0  0  0  0  0
  -23.1981  -28.7223   19.1568 C   0  0  0  0  0  0  0  0  0  0  0  0
  -26.2565  -13.9996   21.1698 C   0  0  0  0  0  0  0  0  0  0  0  0
  -24.1175  -13.0697   20.5395 C   0  0  0  0  0  0  0  0  0  0  0  0
  -21.8721  -28.3783   19.4163 C   0  0  0  0  0  0  0  0  0  0  0  0
  -27.3187  -12.1883   18.5195 C   0  0  0  0  0  0  0  0  0  0  0  0
  -28.5197  -12.1715   17.8103 C   0  0  0  0  0  0  0  0  0  0  0  0
  -22.0798  -29.2819   21.6433 C   0  0  0  0  0  0  0  0  0  0  0  0
  -29.6252  -11.1615   19.7064 C   0  0  0  0  0  0  0  0  0  0  0  0
  -24.2814  -15.3908   21.1897 C   0  0  0  0  0  0  0  0  0  0  0  0
  -23.4793  -17.7088   20.4889 C   0  0  0  0  0  0  0  0  0  0  0  0
  -29.0764  -25.1314   19.4485 C   0  0  0  0  0  0  0  0  0  0  0  0
  -23.9795  -29.3398   20.1440 C   0  0  0  0  0  0  0  0  0  0  0  0
  -27.8565  -25.5031   20.0453 C   0  0  0  0  0  0  0  0  0  0  0  0
  -23.4147  -29.6350   21.3930 C   0  0  0  0  0  0  0  0  0  0  0  0
  -25.4889  -12.9159   20.7429 C   0  0  0  0  0  0  0  0  0  0  0  0
  -21.3137  -28.6555   20.6606 C   0  0  0  0  0  0  0  0  0  0  0  0
  -27.2710  -11.6918   19.8222 C   0  0  0  0  0  0  0  0  0  0  0  0
  -29.6729  -11.6581   18.4037 C   0  0  0  0  0  0  0  0  0  0  0  0
  -28.4242  -11.1784   20.4156 C   0  0  0  0  0  0  0  0  0  0  0  0
  -23.6571  -16.6687   21.4207 C   0  0  0  0  0  0  0  0  0  0  0  0
  -22.8401  -18.6977   21.1961 C   0  0  0  0  0  0  0  0  0  0  0  0
  -23.8579  -17.7752   19.1077 C   0  0  0  0  0  0  0  0  0  0  0  0
  -26.6396  -28.5718   21.7052 C   0  0  0  0  0  0  0  0  0  0  0  0
  -21.4111  -24.2888   24.1251 C   0  0  0  0  0  0  0  0  0  0  0  0
  -26.3503  -31.5788   22.8869 C   0  0  0  0  0  0  0  0  0  0  0  0
  -24.3203  -34.2261   23.6065 C   0  0  0  0  0  0  0  0  0  0  0  0
  -22.2402  -21.7818   25.7652 C   0  0  0  0  0  0  0  0  0  0  0  0
  -30.4034  -25.5627   20.0209 C   0  0  0  0  0  0  0  0  0  0  0  0
  -25.4002  -29.7287   19.8394 C   0  0  0  0  0  0  0  0  0  0  0  0
  -24.2050  -30.3150   22.4800 C   0  0  0  0  0  0  0  0  0  0  0  0
  -30.2973  -26.7445   20.9813 C   0  0  0  0  0  0  0  0  0  0  0  0
  -24.9667  -23.6435   24.3143 C   0  0  0  0  0  0  0  0  0  0  0  0
  -20.6873  -18.6361   25.7580 C   0  0  0  0  0  0  0  0  0  0  0  0
  -29.1564  -26.5279   21.9703 C   0  0  0  0  0  0  0  0  0  0  0  0
  -23.8767  -24.7001   24.1855 C   0  0  0  0  0  0  0  0  0  0  0  0
  -21.3139  -17.9128   24.5680 C   0  0  0  0  0  0  0  0  0  0  0  0
  -21.7262  -19.4748   26.4913 C   0  0  0  0  0  0  0  0  0  0  0  0
  -24.1940  -22.3379   24.2272 C   0  0  0  0  0  0  0  0  0  0  0  0
  -23.0365  -19.7821   24.4121 C   0  0  0  0  0  0  0  0  0  0  0  0
  -27.8094  -26.4246   21.2448 C   0  0  1  0  0  0  0  0  0  0  0  0
  -26.2573  -29.8888   21.0912 C   0  0  1  0  0  0  0  0  0  0  0  0
  -22.6777  -24.0735   24.8916 C   0  0  2  0  0  0  0  0  0  0  0  0
  -22.0284  -18.9075   23.6386 C   0  0  1  0  0  0  0  0  0  0  0  0
  -24.3648  -36.5289   24.6026 C   0  0  0  0  0  0  0  0  0  0  0  0
  -26.5348  -30.3644   25.6800 C   0  0  0  0  0  0  0  0  0  0  0  0
  -25.6364  -32.5135   26.5979 C   0  0  0  0  0  0  0  0  0  0  0  0
  -27.8140  -32.4925   25.3811 C   0  0  0  0  0  0  0  0  0  0  0  0
  -23.3879  -35.4613   21.0838 C   0  0  0  0  0  0  0  0  0  0  0  0
  -19.4254  -25.7738   23.9403 C   0  0  0  0  0  0  0  0  0  0  0  0
  -25.6654  -32.1965   24.0820 C   0  0  1  0  0  0  0  0  0  0  0  0
  -24.4632  -35.7108   23.3244 C   0  0  2  0  0  0  0  0  0  0  0  0
  -26.3981  -31.8772   25.4156 C   0  0  0  0  0  0  0  0  0  0  0  0
  -23.1703  -16.9689   22.6278 N   0  0  0  0  0  0  0  0  0  0  0  0
  -22.6804  -18.2089   22.4593 N   0  0  0  0  0  0  0  0  0  0  0  0
  -25.5918  -30.6698   22.1358 N   0  0  0  0  0  0  0  0  0  0  0  0
  -22.4047  -20.4023   25.5850 N   0  0  0  0  0  0  0  0  0  0  0  0
  -22.9251  -22.6325   24.8927 N   0  0  0  0  0  0  0  0  0  0  0  0
  -22.4048  -19.9290   20.8543 N   0  0  0  0  0  0  0  0  0  0  0  0
  -24.5065  -16.6706   18.5389 N   0  0  0  0  0  0  0  0  0  0  0  0
  -27.3426  -27.7382   20.8563 N   0  0  0  0  0  0  0  0  0  0  0  0
  -20.6791  -25.3833   24.5442 N   0  0  0  0  0  0  0  0  0  0  0  0
  -25.5455  -33.6214   23.7924 N   0  0  0  0  0  0  0  0  0  0  0  0
  -23.3938  -36.1661   22.3915 N   0  3  0  0  0  0  0  0  0  0  0  0
  -23.6426  -18.7905   18.4032 O   0  0  0  0  0  0  0  0  0  0  0  0
  -26.3218  -28.3304   22.8638 O   0  0  0  0  0  0  0  0  0  0  0  0
  -21.1163  -23.5205   23.2171 O   0  0  0  0  0  0  0  0  0  0  0  0
  -27.5131  -31.8967   22.6252 O   0  0  0  0  0  0  0  0  0  0  0  0
  -23.2307  -33.6601   23.6604 O   0  0  0  0  0  0  0  0  0  0  0  0
  -21.5327  -22.2331   26.6753 O   0  0  0  0  0  0  0  0  0  0  0  0
  -20.0062  -28.3167   20.9194 O   0  0  0  0  0  0  0  0  0  1  0  0
  -26.0777  -11.7084   20.5247 O   0  0  0  0  0  0  0  0  0  0  0  0
  -30.8258  -11.6407   17.7220 F   0  0  0  0  0  0  0  0  0  0  0  0
  -28.3843  -10.6988   21.6663 F   0  0  0  0  0  0  0  0  0  0  0  0
  1  2  3  0  0  0  0
  1 57  1  0  0  0  0
  2 78  1  0  0  0  0
  3  4  1  0  0  0  0
  3  7  2  0  0  0  0
  4  8  2  0  0  0  0
  5 10  2  0  0  0  0
  5 17  1  0  0  0  0
  6 11  1  0  0  0  0
  6 17  2  0  0  0  0
  7 19  1  0  0  0  0
  8 21  1  0  0  0  0
  9 12  2  0  0  0  0
  9 20  1  0  0  0  0
 10 23  1  0  0  0  0
 11 23  2  0  0  0  0
 12 24  1  0  0  0  0
 13 14  2  0  0  0  0
 13 25  1  0  0  0  0
 14 26  1  0  0  0  0
 15 22  1  0  0  0  0
 15 24  2  0  0  0  0
 16 26  2  0  0  0  0
 16 27  1  0  0  0  0
 17 28  1  0  0  0  0
 18 28  1  0  0  0  0
 18 29  2  0  0  0  0
 18 30  1  0  0  0  0
 19 21  2  0  0  0  0
 19 36  1  0  0  0  0
 20 22  2  0  0  0  0
 20 37  1  0  0  0  0
 21 48  1  0  0  0  0
 22 38  1  0  0  0  0
 23 79  1  0  0  0  0
 24 78  1  0  0  0  0
 25 27  2  0  0  0  0
 25 79  1  0  0  0  0
 26 80  1  0  0  0  0
 27 81  1  0  0  0  0
 28 61  2  0  0  0  0
 29 62  1  0  0  0  0
 29 66  1  0  0  0  0
 30 67  1  0  0  0  0
 30 72  2  0  0  0  0
 31 49  1  0  0  0  0
 31 68  1  0  0  0  0
 31 73  2  0  0  0  0
 32 50  1  0  0  0  0
 32 69  1  0  0  0  0
 32 74  2  0  0  0  0
 33 58  1  0  0  0  0
 33 63  1  0  0  0  0
 33 75  2  0  0  0  0
 34 59  1  0  0  0  0
 34 70  1  0  0  0  0
 34 76  2  0  0  0  0
 35 64  1  0  0  0  0
 35 65  1  0  0  0  0
 35 77  2  0  0  0  0
 36 39  1  0  0  0  0
 37 49  1  0  0  0  0
 38 63  1  0  0  0  0
 39 42  1  0  0  0  0
 40 43  1  0  0  0  0
 40 46  1  0  0  0  0
 41 44  1  0  0  0  0
 41 45  1  0  0  0  0
 42 48  1  0  0  0  0
 43 50  1  0  0  0  0
 44 51  1  0  0  0  0
 45 64  1  0  0  0  0
 46 65  1  0  0  0  0
 47 51  1  0  0  0  0
 47 64  1  0  0  0  0
 48 68  1  0  0  0  0
 49 63  1  0  0  0  0
 50 65  1  0  0  0  0
 51 62  1  0  0  0  0
 52 59  1  0  0  0  0
 53 60  1  0  0  0  0
 54 60  1  0  0  0  0
 55 60  1  0  0  0  0
 56 71  1  0  0  0  0
 57 69  1  0  0  0  0
 58 60  1  0  0  0  0
 58 70  1  0  0  0  0
 59 71  1  0  0  0  0
 61 62  1  0  0  0  0
M  CHG  1  71   1
M  ISO  4   2 101  35 100  65 100  78 101
M  END
> <Batch ID>
0179

> <Smiles>
CNC(C)C(=O)NC(C(=O)N1Cc2cc([101O:1][101C:1]#CCNC(=O)C3CCC[100N:0]3[100C:0](=O)N3CCCC(n4nc(-c5ccc(Oc6ccc(F)cc6F)cc5)c(C(N)=O)c4N)C3)ccc2CC1C(=O)NC1CCCc2ccccc21)C(C)(C)C

> <Shape>
0.263

> <Color>
0.074

> <Negative vol penalty>
0.000

$$$$

  -OEChem-04052322573D

 82 91  0     1  0  0  0  0  0999 V2000
  -18.1937  -26.1022   13.2900 C   0  0  0  0  0  0  0  0  0  0  0  0
  -19.5363  -25.8804   13.5794 C   0  0  0  0  0  0  0  0  0  0  0  0
  -22.9904   -9.9007   19.9940 C   0  0  0  0  0  0  0  0  0  0  0  0
  -23.7256   -9.9589   22.2947 C   0  0  0  0  0  0  0  0  0  0  0  0
  -17.2055  -25.5035   14.0703 C   0  0  0  0  0  0  0  0  0  0  0  0
  -19.8914  -25.0605   14.6499 C   0  0  0  0  0  0  0  0  0  0  0  0
  -24.9543  -20.4210   16.6891 C   0  0  0  0  0  0  0  0  0  0  0  0
  -22.2193   -8.7713   20.2689 C   0  0  0  0  0  0  0  0  0  0  0  0
  -22.9545   -8.8295   22.5697 C   0  0  0  0  0  0  0  0  0  0  0  0
  -25.8278  -20.1766   17.7479 C   0  0  0  0  0  0  0  0  0  0  0  0
  -23.1801   -5.4872   22.1126 C   0  0  0  0  0  0  0  0  0  0  0  0
  -23.7658   -4.4706   22.8670 C   0  0  0  0  0  0  0  0  0  0  0  0
  -24.0350  -19.1317   18.9779 C   0  0  0  0  0  0  0  0  0  0  0  0
  -29.8436  -18.6234   23.2092 C   0  0  0  0  0  0  0  0  0  0  0  0
  -22.0503   -4.7301   24.5483 C   0  0  0  0  0  0  0  0  0  0  0  0
  -23.7435  -10.4944   21.0069 C   0  0  0  0  0  0  0  0  0  0  0  0
  -24.1407  -13.0072   20.8173 C   0  0  0  0  0  0  0  0  0  0  0  0
  -17.5486  -24.6681   15.1450 C   0  0  0  0  0  0  0  0  0  0  0  0
  -23.6096  -20.0317   16.7714 C   0  0  0  0  0  0  0  0  0  0  0  0
  -18.9068  -24.4511   15.4461 C   0  0  0  0  0  0  0  0  0  0  0  0
  -23.1470  -19.3700   17.9178 C   0  0  0  0  0  0  0  0  0  0  0  0
  -28.9564  -19.6778   23.2826 C   0  0  0  0  0  0  0  0  0  0  0  0
  -28.1988  -20.0509   22.1731 C   0  0  0  0  0  0  0  0  0  0  0  0
  -22.2014   -8.2357   21.5568 C   0  0  0  0  0  0  0  0  0  0  0  0
  -25.3675  -19.5345   18.8937 C   0  0  0  0  0  0  0  0  0  0  0  0
  -22.0296   -6.1253   22.5760 C   0  0  0  0  0  0  0  0  0  0  0  0
  -23.2009   -4.0920   24.0848 C   0  0  0  0  0  0  0  0  0  0  0  0
  -21.4646   -5.7467   23.7938 C   0  0  0  0  0  0  0  0  0  0  0  0
  -24.5407  -11.6607   20.7233 C   0  0  0  0  0  0  0  0  0  0  0  0
  -29.9179  -17.9692   21.9879 C   0  0  0  0  0  0  0  0  0  0  0  0
  -28.3478  -19.3516   20.9988 C   0  0  0  0  0  0  0  0  0  0  0  0
  -25.2524  -13.7225   20.4448 C   0  0  0  0  0  0  0  0  0  0  0  0
  -22.8771  -13.5618   21.2066 C   0  0  0  0  0  0  0  0  0  0  0  0
  -20.8242  -21.5624   16.7234 C   0  0  0  0  0  0  0  0  0  0  0  0
  -19.6139  -18.5529   16.7023 C   0  0  0  0  0  0  0  0  0  0  0  0
  -19.5562  -15.1025   17.7553 C   0  0  0  0  0  0  0  0  0  0  0  0
  -30.7544  -14.6307   20.6657 C   0  0  0  0  0  0  0  0  0  0  0  0
  -16.4453  -24.0809   15.9891 C   0  0  0  0  0  0  0  0  0  0  0  0
  -22.6865  -20.2787   15.6098 C   0  0  0  0  0  0  0  0  0  0  0  0
  -28.6879  -20.5881   24.4381 C   0  0  0  0  0  0  0  0  0  0  0  0
  -27.3511  -21.2416   22.4685 C   0  0  0  0  0  0  0  0  0  0  0  0
  -21.7175  -18.9138   18.0476 C   0  0  0  0  0  0  0  0  0  0  0  0
  -16.9050  -22.9257   16.8748 C   0  0  0  0  0  0  0  0  0  0  0  0
  -27.3610  -21.2332   24.0055 C   0  0  0  0  0  0  0  0  0  0  0  0
  -29.5917  -12.2017   18.3366 C   0  0  0  0  0  0  0  0  0  0  0  0
  -18.2041  -23.2850   17.5891 C   0  0  0  0  0  0  0  0  0  0  0  0
  -28.1437  -11.9512   18.7615 C   0  0  0  0  0  0  0  0  0  0  0  0
  -30.5004  -12.4383   19.5409 C   0  0  0  0  0  0  0  0  0  0  0  0
  -28.6000  -13.2497   20.8839 C   0  0  0  0  0  0  0  0  0  0  0  0
  -19.3318  -23.5483   16.5839 C   0  0  1  0  0  0  0  0  0  0  0  0
  -21.2146  -20.2988   16.0101 C   0  0  1  0  0  0  0  0  0  0  0  0
  -27.6350  -13.0612   19.7009 C   0  0  2  0  0  0  0  0  0  0  0  0
  -18.0738  -13.2053   17.0477 C   0  0  0  0  0  0  0  0  0  0  0  0
  -17.9320  -19.3467   19.1212 C   0  0  0  0  0  0  0  0  0  0  0  0
  -17.5237  -16.9138   19.5482 C   0  0  0  0  0  0  0  0  0  0  0  0
  -16.7296  -17.9562   17.4255 C   0  0  0  0  0  0  0  0  0  0  0  0
  -21.8725  -13.4167   17.0126 C   0  0  0  0  0  0  0  0  0  0  0  0
  -30.8530  -16.8148   21.8402 C   0  0  0  0  0  0  0  0  0  0  0  0
  -27.5684  -19.7291   19.7735 C   0  0  0  0  0  0  0  0  0  1  0  0
  -19.2036  -17.5581   17.7611 C   0  0  1  0  0  0  0  0  0  0  0  0
  -19.4231  -13.8820   16.8624 C   0  0  2  0  0  0  0  0  0  0  0  0
  -17.8737  -17.9539   18.4626 C   0  0  0  0  0  0  0  0  0  0  0  0
  -25.8076  -11.5260   20.3224 N   0  0  0  0  0  0  0  0  0  0  0  0
  -29.1956  -18.3035   20.8841 N   0  0  0  0  0  0  0  0  0  0  0  0
  -26.2133  -12.7970   20.1611 N   0  0  0  0  0  0  0  0  0  0  0  0
  -20.8522  -19.1839   16.8875 N   0  0  0  0  0  0  0  0  0  0  0  0
  -29.9625  -13.5038   20.3902 N   0  0  0  0  0  0  0  0  0  0  0  0
  -25.4921  -15.0465   20.3355 N   0  0  0  0  0  0  0  0  0  0  0  0
  -21.8424  -12.6844   21.5586 N   0  0  0  0  0  0  0  0  0  0  0  0
  -19.8541  -22.2996   16.0717 N   0  0  0  0  0  0  0  0  0  0  0  0
  -19.1687  -16.2553   17.1055 N   0  0  0  0  0  0  0  0  0  0  0  0
  -30.1663  -15.5963   21.4735 N   0  0  0  0  0  0  0  0  0  0  0  0
  -20.4922  -12.8921   17.1756 N   0  3  0  0  0  0  0  0  0  0  0  0
  -22.6666  -14.7982   21.2254 O   0  0  0  0  0  0  0  0  0  0  0  0
  -21.3623  -21.8466   17.7870 O   0  0  0  0  0  0  0  0  0  0  0  0
  -18.8665  -18.7572   15.7424 O   0  0  0  0  0  0  0  0  0  0  0  0
  -19.9598  -15.0390   18.9144 O   0  0  0  0  0  0  0  0  0  0  0  0
  -31.8987  -14.7688   20.2201 O   0  0  0  0  0  0  0  0  0  0  0  0
  -21.4489   -7.1338   21.8255 O   0  0  0  0  0  0  0  0  0  0  0  0
  -26.2179  -19.2952   19.9289 O   0  0  0  0  0  0  0  0  0  1  0  0
  -23.7625   -3.1147   24.8085 F   0  0  0  0  0  0  0  0  0  0  0  0
  -20.3587   -6.3552   24.2437 F   0  0  0  0  0  0  0  0  0  0  0  0
  1  2  1  0  0  0  0
  1  5  2  0  0  0  0
  2  6  2  0  0  0  0
  3  8  2  0  0  0  0
  3 16  1  0  0  0  0
  4  9  1  0  0  0  0
  4 16  2  0  0  0  0
  5 18  1  0  0  0  0
  6 20  1  0  0  0  0
  7 10  2  0  0  0  0
  7 19  1  0  0  0  0
  8 24  1  0  0  0  0
  9 24  2  0  0  0  0
 10 25  1  0  0  0  0
 11 12  2  0  0  0  0
 11 26  1  0  0  0  0
 12 27  1  0  0  0  0
 13 21  1  0  0  0  0
 13 25  2  0  0  0  0
 14 22  2  0  0  0  0
 14 30  1  0  0  0  0
 15 27  2  0  0  0  0
 15 28  1  0  0  0  0
 16 29  1  0  0  0  0
 17 29  1  0  0  0  0
 17 32  2  0  0  0  0
 17 33  1  0  0  0  0
 18 20  2  0  0  0  0
 18 38  1  0  0  0  0
 19 21  2  0  0  0  0
 19 39  1  0  0  0  0
 20 50  1  0  0  0  0
 21 42  1  0  0  0  0
 22 23  1  0  0  0  0
 22 40  1  0  0  0  0
 23 31  2  0  0  0  0
 23 41  1  0  0  0  0
 24 79  1  0  0  0  0
 25 80  1  0  0  0  0
 26 28  2  0  0  0  0
 26 79  1  0  0  0  0
 27 81  1  0  0  0  0
 28 82  1  0  0  0  0
 29 63  2  0  0  0  0
 30 58  1  0  0  0  0
 30 64  2  0  0  0  0
 31 59  1  0  0  0  0
 31 64  1  0  0  0  0
 32 65  1  0  0  0  0
 32 68  1  0  0  0  0
 33 69  1  0  0  0  0
 33 74  2  0  0  0  0
 34 51  1  0  0  0  0
 34 70  1  0  0  0  0
 34 75  2  0  0  0  0
 35 60  1  0  0  0  0
 35 66  1  0  0  0  0
 35 76  2  0  0  0  0
 36 61  1  0  0  0  0
 36 71  1  0  0  0  0
 36 77  2  0  0  0  0
 37 67  1  0  0  0  0
 37 72  1  0  0  0  0
 37 78  2  0  0  0  0
 38 43  1  0  0  0  0
 39 51  1  0  0  0  0
 40 44  1  0  0  0  0
 41 44  1  0  0  0  0
 42 66  1  0  0  0  0
 43 46  1  0  0  0  0
 45 47  1  0  0  0  0
 45 48  1  0  0  0  0
 46 50  1  0  0  0  0
 47 52  1  0  0  0  0
 48 67  1  0  0  0  0
 49 52  1  0  0  0  0
 49 67  1  0  0  0  0
 50 70  1  0  0  0  0
 51 66  1  0  0  0  0
 52 65  1  0  0  0  0
 53 61  1  0  0  0  0
 54 62  1  0  0  0  0
 55 62  1  0  0  0  0
 56 62  1  0  0  0  0
 57 73  1  0  0  0  0
 58 72  1  0  0  0  0
 59 80  1  0  0  0  0
 60 62  1  0  0  0  0
 60 71  1  0  0  0  0
 61 73  1  0  0  0  0
 63 65  1  0  0  0  0
M  CHG  1  73   1
M  ISO  4  37 100  59 101  72 100  80 101
M  END
> <Batch ID>
0179

> <Smiles>
CNC(C)C(=O)NC(C(=O)N1Cc2cc([101O:1][101CH2:1]c3nc(C[100NH:0][100C:0](=O)N4CCCC(n5nc(-c6ccc(Oc7ccc(F)cc7F)cc6)c(C(N)=O)c5N)C4)cc4c3CCC4)ccc2CC1C(=O)NC1CCCc2ccccc21)C(C)(C)C

> <Shape>
0.197

> <Color>
0.199

> <Negative vol penalty>
0.000

$$$$

  -OEChem-04052322573D

 84 93  0     1  0  0  0  0  0999 V2000
  -30.3429  -31.0834   25.9992 C   0  0  0  0  0  0  0  0  0  0  0  0
  -30.1435  -29.9036   25.2894 C   0  0  0  0  0  0  0  0  0  0  0  0
  -24.0112  -10.3107   23.1932 C   0  0  0  0  0  0  0  0  0  0  0  0
  -24.5525  -12.4639   24.1459 C   0  0  0  0  0  0  0  0  0  0  0  0
  -29.2694  -31.9390   26.2426 C   0  0  0  0  0  0  0  0  0  0  0  0
  -28.8700  -29.5782   24.8237 C   0  0  0  0  0  0  0  0  0  0  0  0
  -28.9181  -27.9061   20.0439 C   0  0  0  0  0  0  0  0  0  0  0  0
  -23.5919   -9.8620   24.4456 C   0  0  0  0  0  0  0  0  0  0  0  0
  -24.1332  -12.0153   25.3983 C   0  0  0  0  0  0  0  0  0  0  0  0
  -29.3235  -26.5887   19.8342 C   0  0  0  0  0  0  0  0  0  0  0  0
  -25.3620  -10.0988   27.8979 C   0  0  0  0  0  0  0  0  0  0  0  0
  -26.1733  -10.3880   28.9949 C   0  0  0  0  0  0  0  0  0  0  0  0
  -29.5241  -20.3705   17.7826 C   0  0  0  0  0  0  0  0  0  0  0  0
  -27.0146  -25.9128   19.6571 C   0  0  0  0  0  0  0  0  0  0  0  0
  -24.3569  -11.6106   30.0161 C   0  0  0  0  0  0  0  0  0  0  0  0
  -28.8083  -19.9294   20.0073 C   0  0  0  0  0  0  0  0  0  0  0  0
  -24.4916  -11.6116   23.0434 C   0  0  0  0  0  0  0  0  0  0  0  0
  -24.1412  -12.7079   20.7667 C   0  0  0  0  0  0  0  0  0  0  0  0
  -27.9840  -31.6287   25.7713 C   0  0  0  0  0  0  0  0  0  0  0  0
  -27.5554  -28.2355   20.0726 C   0  0  0  0  0  0  0  0  0  0  0  0
  -27.7780  -30.4299   25.0622 C   0  0  0  0  0  0  0  0  0  0  0  0
  -29.4468  -19.4924   18.8579 C   0  0  0  0  0  0  0  0  0  0  0  0
  -26.5946  -27.2355   19.8647 C   0  0  0  0  0  0  0  0  0  0  0  0
  -28.9684  -21.6407   17.8880 C   0  0  0  0  0  0  0  0  0  0  0  0
  -23.6528  -10.7143   25.5481 C   0  0  0  0  0  0  0  0  0  0  0  0
  -28.3716  -25.5914   19.6437 C   0  0  0  0  0  0  0  0  0  0  0  0
  -24.0480  -10.5655   27.8598 C   0  0  0  0  0  0  0  0  0  0  0  0
  -25.6708  -11.1439   30.0541 C   0  0  0  0  0  0  0  0  0  0  0  0
  -23.5455  -11.3214   28.9189 C   0  0  0  0  0  0  0  0  0  0  0  0
  -24.9254  -12.0755   21.7501 C   0  0  0  0  0  0  0  0  0  0  0  0
  -28.3512  -21.9814   19.0808 C   0  0  0  0  0  0  0  0  0  0  0  0
  -25.0136  -12.9469   19.7331 C   0  0  0  0  0  0  0  0  0  0  0  0
  -22.7488  -13.0490   20.7860 C   0  0  0  0  0  0  0  0  0  0  0  0
  -25.5873  -29.4526   22.2518 C   0  0  0  0  0  0  0  0  0  0  0  0
  -23.4841  -29.4596   19.7822 C   0  0  0  0  0  0  0  0  0  0  0  0
  -22.5490  -28.1576   16.7694 C   0  0  0  0  0  0  0  0  0  0  0  0
  -30.0793  -14.7711   18.0394 C   0  0  0  0  0  0  0  0  0  0  0  0
  -26.8455  -32.5617   26.1000 C   0  0  0  0  0  0  0  0  0  0  0  0
  -27.1351  -29.6657   20.2733 C   0  0  0  0  0  0  0  0  0  0  0  0
  -25.1196  -27.5404   19.8662 C   0  0  0  0  0  0  0  0  0  0  0  0
  -25.6003  -32.3266   25.2487 C   0  0  0  0  0  0  0  0  0  0  0  0
  -29.7025  -11.3025   18.9109 C   0  0  0  0  0  0  0  0  0  0  0  0
  -25.2749  -30.8380   25.1785 C   0  0  0  0  0  0  0  0  0  0  0  0
  -28.3942  -11.2500   19.6929 C   0  0  0  0  0  0  0  0  0  0  0  0
  -30.4402  -12.6089   19.1720 C   0  0  0  0  0  0  0  0  0  0  0  0
  -29.3106  -16.8553   19.4267 C   0  0  0  0  0  0  0  0  0  0  0  0
  -29.9470  -17.2499   17.4436 C   0  0  0  0  0  0  0  0  0  0  0  0
  -28.2998  -13.7919   19.5878 C   0  0  0  0  0  0  0  0  0  0  0  0
  -30.0661  -18.0358   18.7697 C   0  0  0  0  0  0  0  0  0  0  0  0
  -26.4163  -30.0543   24.5193 C   0  0  1  0  0  0  0  0  0  0  0  0
  -25.7081  -29.8015   20.7954 C   0  0  1  0  0  0  0  0  0  0  0  0
  -27.5270  -12.4757   19.3715 C   0  0  2  0  0  0  0  0  0  0  0  0
  -30.4858  -22.8940   16.3007 C   0  0  0  0  0  0  0  0  0  0  0  0
  -20.7649  -28.3378   15.0139 C   0  0  0  0  0  0  0  0  0  0  0  0
  -21.5669  -27.9030   21.5742 C   0  0  0  0  0  0  0  0  0  0  0  0
  -20.2546  -27.3008   19.5289 C   0  0  0  0  0  0  0  0  0  0  0  0
  -20.4890  -29.6922   20.1990 C   0  0  0  0  0  0  0  0  0  0  0  0
  -24.5039  -28.9691   14.7008 C   0  0  0  0  0  0  0  0  0  0  0  0
  -27.7381  -23.3329   19.2513 C   0  0  0  0  0  0  0  0  0  1  0  0
  -29.0474  -22.5857   16.7394 C   0  0  1  0  0  0  0  0  0  0  0  0
  -22.4818  -28.4757   19.2288 C   0  0  1  0  0  0  0  0  0  0  0  0
  -22.1321  -28.8230   15.4702 C   0  0  2  0  0  0  0  0  0  0  0  0
  -21.2257  -28.3365   20.1346 C   0  0  0  0  0  0  0  0  0  0  0  0
  -28.2566  -21.1556   20.1470 N   0  0  0  0  0  0  0  0  0  0  0  0
  -26.1981  -11.9222   21.3747 N   0  0  0  0  0  0  0  0  0  0  0  0
  -26.2202  -12.4616   20.1440 N   0  0  0  0  0  0  0  0  0  0  0  0
  -24.7587  -28.9527   20.0727 N   0  0  0  0  0  0  0  0  0  0  0  0
  -29.6002  -13.7802   18.9036 N   0  0  0  0  0  0  0  0  0  0  0  0
  -29.6963  -16.0721   18.2653 N   0  0  0  0  0  0  0  0  0  0  0  0
  -24.8586  -13.5225   18.5219 N   0  0  0  0  0  0  0  0  0  0  0  0
  -21.9989  -12.7319   21.9268 N   0  0  0  0  0  0  0  0  0  0  0  0
  -26.3802  -30.2214   23.0822 N   0  0  0  0  0  0  0  0  0  0  0  0
  -22.1912  -28.9114   17.8671 N   0  0  0  0  0  0  0  0  0  0  0  0
  -28.3025  -22.1119   15.5218 N   0  3  0  0  0  0  0  0  0  0  0  0
  -23.1198  -28.5243   14.3950 N   0  3  0  0  0  0  0  0  0  0  0  0
  -22.1824  -13.6033   19.8136 O   0  0  0  0  0  0  0  0  0  0  0  0
  -24.8296  -28.5534   22.5969 O   0  0  0  0  0  0  0  0  0  0  0  0
  -23.1507  -30.6362   19.9439 O   0  0  0  0  0  0  0  0  0  0  0  0
  -23.1305  -27.0754   16.8068 O   0  0  0  0  0  0  0  0  0  0  0  0
  -30.8523  -14.5079   17.1086 O   0  0  0  0  0  0  0  0  0  0  0  0
  -23.2435  -10.2769   26.7703 O   0  0  0  0  0  0  0  0  0  0  0  0
  -28.7674  -24.2954   19.4380 O   0  0  0  0  0  0  0  0  0  1  0  0
  -26.4496  -11.4202   31.1082 F   0  0  0  0  0  0  0  0  0  0  0  0
  -22.2836  -11.7716   28.8886 F   0  0  0  0  0  0  0  0  0  0  0  0
  1  2  1  0  0  0  0
  1  5  2  0  0  0  0
  2  6  2  0  0  0  0
  3  8  2  0  0  0  0
  3 17  1  0  0  0  0
  4  9  1  0  0  0  0
  4 17  2  0  0  0  0
  5 19  1  0  0  0  0
  6 21  1  0  0  0  0
  7 10  2  0  0  0  0
  7 20  1  0  0  0  0
  8 25  1  0  0  0  0
  9 25  2  0  0  0  0
 10 26  1  0  0  0  0
 11 12  2  0  0  0  0
 11 27  1  0  0  0  0
 12 28  1  0  0  0  0
 13 22  2  0  0  0  0
 13 24  1  0  0  0  0
 14 23  1  0  0  0  0
 14 26  2  0  0  0  0
 15 28  2  0  0  0  0
 15 29  1  0  0  0  0
 16 22  1  0  0  0  0
 16 64  2  0  0  0  0
 17 30  1  0  0  0  0
 18 30  1  0  0  0  0
 18 32  2  0  0  0  0
 18 33  1  0  0  0  0
 19 21  2  0  0  0  0
 19 38  1  0  0  0  0
 20 23  2  0  0  0  0
 20 39  1  0  0  0  0
 21 50  1  0  0  0  0
 22 49  1  0  0  0  0
 23 40  1  0  0  0  0
 24 31  2  0  0  0  0
 24 60  1  0  0  0  0
 25 81  1  0  0  0  0
 26 82  1  0  0  0  0
 27 29  2  0  0  0  0
 27 81  1  0  0  0  0
 28 83  1  0  0  0  0
 29 84  1  0  0  0  0
 30 65  2  0  0  0  0
 31 59  1  0  0  0  0
 31 64  1  0  0  0  0
 32 66  1  0  0  0  0
 32 70  1  0  0  0  0
 33 71  1  0  0  0  0
 33 76  2  0  0  0  0
 34 51  1  0  0  0  0
 34 72  1  0  0  0  0
 34 77  2  0  0  0  0
 35 61  1  0  0  0  0
 35 67  1  0  0  0  0
 35 78  2  0  0  0  0
 36 62  1  0  0  0  0
 36 73  1  0  0  0  0
 36 79  2  0  0  0  0
 37 68  1  0  0  0  0
 37 69  1  0  0  0  0
 37 80  2  0  0  0  0
 38 41  1  0  0  0  0
 39 51  1  0  0  0  0
 40 67  1  0  0  0  0
 41 43  1  0  0  0  0
 42 44  1  0  0  0  0
 42 45  1  0  0  0  0
 43 50  1  0  0  0  0
 44 52  1  0  0  0  0
 45 68  1  0  0  0  0
 46 49  1  0  0  0  0
 46 69  1  0  0  0  0
 47 49  1  0  0  0  0
 47 69  1  0  0  0  0
 48 52  1  0  0  0  0
 48 68  1  0  0  0  0
 50 72  1  0  0  0  0
 51 67  1  0  0  0  0
 52 66  1  0  0  0  0
 53 60  1  0  0  0  0
 54 62  1  0  0  0  0
 55 63  1  0  0  0  0
 56 63  1  0  0  0  0
 57 63  1  0  0  0  0
 58 75  1  0  0  0  0
 59 82  1  0  0  0  0
 60 74  1  0  0  0  0
 61 63  1  0  0  0  0
 61 73  1  0  0  0  0
 62 75  1  0  0  0  0
 65 66  1  0  0  0  0
M  CHG  2  74   1  75   1
M  ISO  4  37 100  59 101  69 100  82 101
M  END
> <Batch ID>
0179

> <Smiles>
CNC(C)C(=O)NC(C(=O)N1Cc2cc([101O:1][101CH2:1]c3ncc(C4C[100N:0]([100C:0](=O)N5CCCC(n6nc(-c7ccc(Oc8ccc(F)cc8F)cc7)c(C(N)=O)c6N)C5)C4)cc3C(C)N)ccc2CC1C(=O)NC1CCCc2ccccc21)C(C)(C)C

> <Shape>
0.264

> <Color>
0.090

> <Negative vol penalty>
0.000

$$$$

  -OEChem-04052322573D

 87 97  0     1  0  0  0  0  0999 V2000
  -26.3522  -38.0651   22.6868 C   0  0  0  0  0  0  0  0  0  0  0  0
  -27.0309  -37.1403   21.8997 C   0  0  0  0  0  0  0  0  0  0  0  0
  -26.3556  -10.3487   23.0751 C   0  0  0  0  0  0  0  0  0  0  0  0
  -25.4319   -9.0343   21.2706 C   0  0  0  0  0  0  0  0  0  0  0  0
  -25.6131  -37.6331   23.7873 C   0  0  0  0  0  0  0  0  0  0  0  0
  -26.9717  -35.7829   22.2134 C   0  0  0  0  0  0  0  0  0  0  0  0
  -26.9728  -29.3294   19.1040 C   0  0  0  0  0  0  0  0  0  0  0  0
  -25.9037   -9.4030   23.9953 C   0  0  0  0  0  0  0  0  0  0  0  0
  -24.9800   -8.0885   22.1908 C   0  0  0  0  0  0  0  0  0  0  0  0
  -27.6346  -28.1038   19.1665 C   0  0  0  0  0  0  0  0  0  0  0  0
  -22.4040   -7.7505   24.3544 C   0  0  0  0  0  0  0  0  0  0  0  0
  -21.1037   -7.2689   24.2030 C   0  0  0  0  0  0  0  0  0  0  0  0
  -26.2619  -27.4653   21.0447 C   0  0  0  0  0  0  0  0  0  0  0  0
  -21.9645   -5.0265   23.9426 C   0  0  0  0  0  0  0  0  0  0  0  0
  -27.9227  -22.6614   20.5944 C   0  0  0  0  0  0  0  0  0  0  0  0
  -26.1197  -10.1644   21.7127 C   0  0  0  0  0  0  0  0  0  0  0  0
  -27.8321  -11.1634   20.1073 C   0  0  0  0  0  0  0  0  0  0  0  0
  -25.5370  -36.2688   24.1089 C   0  0  0  0  0  0  0  0  0  0  0  0
  -25.9564  -29.6370   20.0198 C   0  0  0  0  0  0  0  0  0  0  0  0
  -26.2320  -35.3323   23.3200 C   0  0  0  0  0  0  0  0  0  0  0  0
  -25.5871  -28.6945   20.9901 C   0  0  0  0  0  0  0  0  0  0  0  0
  -28.9823  -21.7670   20.6566 C   0  0  0  0  0  0  0  0  0  0  0  0
  -30.0504  -22.4677   21.2332 C   0  0  0  0  0  0  0  0  0  0  0  0
  -25.2158   -8.2729   23.5532 C   0  0  0  0  0  0  0  0  0  0  0  0
  -27.2811  -27.1727   20.1388 C   0  0  0  0  0  0  0  0  0  0  0  0
  -23.4846   -6.8701   24.2997 C   0  0  0  0  0  0  0  0  0  0  0  0
  -20.8840   -5.9069   23.9972 C   0  0  0  0  0  0  0  0  0  0  0  0
  -23.2649   -5.5081   24.0939 C   0  0  0  0  0  0  0  0  0  0  0  0
  -26.5859  -11.1413   20.7616 C   0  0  0  0  0  0  0  0  0  0  0  0
  -29.6202  -23.7381   21.4967 C   0  0  0  0  0  0  0  0  0  0  0  0
  -27.7839  -12.2841   19.3146 C   0  0  0  0  0  0  0  0  0  0  0  0
  -28.9348  -10.2524   20.2070 C   0  0  0  0  0  0  0  0  0  0  0  0
  -25.5469  -31.8618   22.2528 C   0  0  0  0  0  0  0  0  0  0  0  0
  -22.5856  -30.5542   22.4599 C   0  0  0  0  0  0  0  0  0  0  0  0
  -20.5768  -27.8390   21.9710 C   0  0  0  0  0  0  0  0  0  0  0  0
  -26.5437  -17.5420   18.3995 C   0  0  0  0  0  0  0  0  0  0  0  0
  -24.7641  -35.8542   25.3359 C   0  0  0  0  0  0  0  0  0  0  0  0
  -25.2341  -30.9527   19.9222 C   0  0  0  0  0  0  0  0  0  0  0  0
  -24.4889  -28.9679   21.9838 C   0  0  0  0  0  0  0  0  0  0  0  0
  -30.6185  -24.6304   22.1057 C   0  0  0  0  0  0  0  0  0  0  0  0
  -24.4466  -34.3617   25.3803 C   0  0  0  0  0  0  0  0  0  0  0  0
  -31.7105  -23.5817   22.5183 C   0  0  0  0  0  0  0  0  0  0  0  0
  -23.9237  -15.3070   18.1015 C   0  0  0  0  0  0  0  0  0  0  0  0
  -25.6856  -33.5418   25.0350 C   0  0  0  0  0  0  0  0  0  0  0  0
  -24.4748  -14.0178   18.7103 C   0  0  0  0  0  0  0  0  0  0  0  0
  -27.9576  -19.4705   20.9685 C   0  0  0  0  0  0  0  0  0  0  0  0
  -28.7184  -20.2141   18.6712 C   0  0  0  0  0  0  0  0  0  0  0  0
  -24.3483  -16.5215   18.9190 C   0  0  0  0  0  0  0  0  0  0  0  0
  -27.9281  -18.0241   20.4664 C   0  0  0  0  0  0  0  0  0  0  0  0
  -28.6964  -18.7528   18.2323 C   0  0  0  0  0  0  0  0  0  0  0  0
  -26.3937  -15.3668   19.6945 C   0  0  0  0  0  0  0  0  0  0  0  0
  -28.9708  -20.3249   20.1857 C   0  0  0  0  0  0  0  0  0  0  0  0
  -26.1719  -33.8490   23.6134 C   0  0  1  0  0  0  0  0  0  0  0  0
  -24.5649  -31.3654   21.2296 C   0  0  1  0  0  0  0  0  0  0  0  0
  -25.9994  -14.1042   18.9015 C   0  0  1  0  0  0  0  0  0  0  0  0
  -31.4740  -22.2785   21.6353 C   0  0  0  0  0  0  0  0  0  0  0  0
  -32.4032  -22.2875   20.4156 C   0  0  0  0  0  0  0  0  0  0  0  0
  -31.6956  -21.0131   22.4635 C   0  0  0  0  0  0  0  0  0  0  0  0
  -18.2101  -27.0600   22.2705 C   0  0  0  0  0  0  0  0  0  0  0  0
  -23.0717  -30.2369   25.4554 C   0  0  0  0  0  0  0  0  0  0  0  0
  -21.1465  -28.6380   25.5277 C   0  0  0  0  0  0  0  0  0  0  0  0
  -20.7718  -31.0087   24.8478 C   0  0  0  0  0  0  0  0  0  0  0  0
  -20.2378  -27.3798   19.0670 C   0  0  0  0  0  0  0  0  0  0  0  0
  -27.5166  -25.0621   21.2239 C   0  0  0  0  0  0  0  0  0  1  0  0
  -21.9634  -29.4386   23.2644 C   0  0  1  0  0  0  0  0  0  0  0  0
  -19.2117  -27.6998   21.3216 C   0  0  2  0  0  0  0  0  0  0  0  0
  -21.7604  -29.8259   24.7565 C   0  0  0  0  0  0  0  0  0  0  0  0
  -25.8032  -12.1665   20.4149 N   0  0  0  0  0  0  0  0  0  0  0  0
  -28.3298  -23.8754   21.1158 N   0  0  0  0  0  0  0  0  0  0  0  0
  -26.5595  -12.8434   19.5340 N   0  0  0  0  0  0  0  0  0  0  0  0
  -23.8167  -30.2711   21.8516 N   0  0  0  0  0  0  0  0  0  0  0  0
  -25.8014  -16.5658   19.0811 N   0  0  0  0  0  0  0  0  0  0  0  0
  -27.7265  -17.9837   19.0113 N   0  0  0  0  0  0  0  0  0  0  0  0
  -28.6698  -12.8357   18.4583 N   0  0  0  0  0  0  0  0  0  0  0  0
  -28.8175   -9.1532   21.0686 N   0  0  0  0  0  0  0  0  0  0  0  0
  -25.3430  -33.1729   22.6386 N   0  0  0  0  0  0  0  0  0  0  0  0
  -20.7342  -29.0710   22.5699 N   0  0  0  0  0  0  0  0  0  0  0  0
  -19.3043  -26.8557   20.0970 N   0  3  0  0  0  0  0  0  0  0  0  0
  -29.9990  -10.4175   19.5638 O   0  0  0  0  0  0  0  0  0  0  0  0
  -26.4238  -31.1105   22.6630 O   0  0  0  0  0  0  0  0  0  0  0  0
  -21.9974  -31.6346   22.3684 O   0  0  0  0  0  0  0  0  0  0  0  0
  -21.4178  -26.9430   21.9522 O   0  0  0  0  0  0  0  0  0  0  0  0
  -26.1726  -17.9923   17.3084 O   0  0  0  0  0  0  0  0  0  0  0  0
  -24.7749   -7.3497   24.4509 O   0  0  0  0  0  0  0  0  0  0  0  0
  -27.9300  -25.9682   20.2028 O   0  0  0  0  0  0  0  0  0  1  0  0
  -19.6351   -5.4443   23.8535 F   0  0  0  0  0  0  0  0  0  0  0  0
  -24.2989   -4.6574   24.0417 F   0  0  0  0  0  0  0  0  0  0  0  0
  1  2  1  0  0  0  0
  1  5  2  0  0  0  0
  2  6  2  0  0  0  0
  3  8  2  0  0  0  0
  3 16  1  0  0  0  0
  4  9  1  0  0  0  0
  4 16  2  0  0  0  0
  5 18  1  0  0  0  0
  6 20  1  0  0  0  0
  7 10  2  0  0  0  0
  7 19  1  0  0  0  0
  8 24  1  0  0  0  0
  9 24  2  0  0  0  0
 10 25  1  0  0  0  0
 11 12  2  0  0  0  0
 11 26  1  0  0  0  0
 12 27  1  0  0  0  0
 13 21  1  0  0  0  0
 13 25  2  0  0  0  0
 14 27  2  0  0  0  0
 14 28  1  0  0  0  0
 15 22  2  0  0  0  0
 15 69  1  0  0  0  0
 16 29  1  0  0  0  0
 17 29  1  0  0  0  0
 17 31  2  0  0  0  0
 17 32  1  0  0  0  0
 18 20  2  0  0  0  0
 18 37  1  0  0  0  0
 19 21  2  0  0  0  0
 19 38  1  0  0  0  0
 20 53  1  0  0  0  0
 21 39  1  0  0  0  0
 22 23  1  0  0  0  0
 22 52  1  0  0  0  0
 23 30  2  0  0  0  0
 23 56  1  0  0  0  0
 24 84  1  0  0  0  0
 25 85  1  0  0  0  0
 26 28  2  0  0  0  0
 26 84  1  0  0  0  0
 27 86  1  0  0  0  0
 28 87  1  0  0  0  0
 29 68  2  0  0  0  0
 30 40  1  0  0  0  0
 30 69  1  0  0  0  0
 31 70  1  0  0  0  0
 31 74  1  0  0  0  0
 32 75  1  0  0  0  0
 32 79  2  0  0  0  0
 33 54  1  0  0  0  0
 33 76  1  0  0  0  0
 33 80  2  0  0  0  0
 34 65  1  0  0  0  0
 34 71  1  0  0  0  0
 34 81  2  0  0  0  0
 35 66  1  0  0  0  0
 35 77  1  0  0  0  0
 35 82  2  0  0  0  0
 36 72  1  0  0  0  0
 36 73  1  0  0  0  0
 36 83  2  0  0  0  0
 37 41  1  0  0  0  0
 38 54  1  0  0  0  0
 39 71  1  0  0  0  0
 40 42  1  0  0  0  0
 41 44  1  0  0  0  0
 42 56  1  0  0  0  0
 43 45  1  0  0  0  0
 43 48  1  0  0  0  0
 44 53  1  0  0  0  0
 45 55  1  0  0  0  0
 46 49  1  0  0  0  0
 46 52  1  0  0  0  0
 47 50  1  0  0  0  0
 47 52  1  0  0  0  0
 48 72  1  0  0  0  0
 49 73  1  0  0  0  0
 50 73  1  0  0  0  0
 51 55  1  0  0  0  0
 51 72  1  0  0  0  0
 53 76  1  0  0  0  0
 54 71  1  0  0  0  0
 55 70  1  0  0  0  0
 56 57  1  0  0  0  0
 56 58  1  0  0  0  0
 59 66  1  0  0  0  0
 60 67  1  0  0  0  0
 61 67  1  0  0  0  0
 62 67  1  0  0  0  0
 63 78  1  0  0  0  0
 64 69  1  0  0  0  0
 64 85  1  0  0  0  0
 65 67  1  0  0  0  0
 65 77  1  0  0  0  0
 66 78  1  0  0  0  0
 68 70  1  0  0  0  0
M  CHG  1  78   1
M  ISO  4  36 100  64 101  73 100  85 101
M  END
> <Batch ID>
0179

> <Smiles>
CNC(C)C(=O)NC(C(=O)N1Cc2cc([101O:1][101CH2:1]n3cc(C4CC[100N:0]([100C:0](=O)N5CCCC(n6nc(-c7ccc(Oc8ccc(F)cc8F)cc7)c(C(N)=O)c6N)C5)CC4)c4c3CCC4(C)C)ccc2CC1C(=O)NC1CCCc2ccccc21)C(C)(C)C

> <Shape>
0.313

> <Color>
0.069

> <Negative vol penalty>
0.000

$$$$

  -OEChem-04052322573D

 80 89  0     1  0  0  0  0  0999 V2000
  -18.7418  -28.1929   23.9399 C   0  0  0  0  0  0  0  0  0  0  0  0
  -19.5339  -27.0661   23.7447 C   0  0  0  0  0  0  0  0  0  0  0  0
  -23.5560   -9.5667   21.3526 C   0  0  0  0  0  0  0  0  0  0  0  0
  -24.1013  -10.6169   23.4591 C   0  0  0  0  0  0  0  0  0  0  0  0
  -18.8353  -29.2703   23.0599 C   0  0  0  0  0  0  0  0  0  0  0  0
  -20.4194  -27.0156   22.6687 C   0  0  0  0  0  0  0  0  0  0  0  0
  -25.9157  -24.3170   22.5476 C   0  0  0  0  0  0  0  0  0  0  0  0
  -22.9482   -8.5131   22.0352 C   0  0  0  0  0  0  0  0  0  0  0  0
  -23.4934   -9.5632   24.1417 C   0  0  0  0  0  0  0  0  0  0  0  0
  -26.3429  -23.0800   22.0669 C   0  0  0  0  0  0  0  0  0  0  0  0
  -20.3548   -8.5886   24.9288 C   0  0  0  0  0  0  0  0  0  0  0  0
  -19.5081   -8.9086   25.9900 C   0  0  0  0  0  0  0  0  0  0  0  0
  -27.0107  -24.1220   19.9963 C   0  0  0  0  0  0  0  0  0  0  0  0
  -20.9190   -7.6510   27.4950 C   0  0  0  0  0  0  0  0  0  0  0  0
  -24.1326  -10.6186   22.0646 C   0  0  0  0  0  0  0  0  0  0  0  0
  -24.1544  -12.8997   20.9227 C   0  0  0  0  0  0  0  0  0  0  0  0
  -19.7294  -29.2369   21.9782 C   0  0  0  0  0  0  0  0  0  0  0  0
  -26.0229  -25.4659   21.7507 C   0  0  0  0  0  0  0  0  0  0  0  0
  -20.5241  -28.0930   21.7727 C   0  0  0  0  0  0  0  0  0  0  0  0
  -26.5865  -25.3728   20.4701 C   0  0  0  0  0  0  0  0  0  0  0  0
  -22.9169   -8.5113   23.4297 C   0  0  0  0  0  0  0  0  0  0  0  0
  -26.8878  -22.9818   20.7900 C   0  0  0  0  0  0  0  0  0  0  0  0
  -21.4836   -7.7996   25.1506 C   0  0  0  0  0  0  0  0  0  0  0  0
  -19.7902   -8.4399   27.2731 C   0  0  0  0  0  0  0  0  0  0  0  0
  -21.7657   -7.3309   26.4337 C   0  0  0  0  0  0  0  0  0  0  0  0
  -24.7611  -11.7071   21.3600 C   0  0  0  0  0  0  0  0  0  0  0  0
  -25.1684  -13.5975   20.3134 C   0  0  0  0  0  0  0  0  0  0  0  0
  -22.7957  -13.3378   21.0555 C   0  0  0  0  0  0  0  0  0  0  0  0
  -23.9553  -27.5414   20.5175 C   0  0  0  0  0  0  0  0  0  0  0  0
  -26.6538  -29.1009   19.6184 C   0  0  0  0  0  0  0  0  0  0  0  0
  -29.9838  -28.9439   18.8879 C   0  0  0  0  0  0  0  0  0  0  0  0
  -30.4356  -15.4395   20.2183 C   0  0  0  0  0  0  0  0  0  0  0  0
  -19.7612  -30.4064   21.0263 C   0  0  0  0  0  0  0  0  0  0  0  0
  -25.5821  -26.7974   22.2940 C   0  0  0  0  0  0  0  0  0  0  0  0
  -26.7423  -26.5797   19.5827 C   0  0  0  0  0  0  0  0  0  0  0  0
  -20.9948  -30.4267   20.1274 C   0  0  0  0  0  0  0  0  0  0  0  0
  -29.8331  -12.1497   18.9975 C   0  0  0  0  0  0  0  0  0  0  0  0
  -21.2441  -29.0447   19.5318 C   0  0  0  0  0  0  0  0  0  0  0  0
  -28.4129  -11.8377   19.4725 C   0  0  0  0  0  0  0  0  0  0  0  0
  -28.3223  -19.1076   19.4155 C   0  0  0  0  0  0  0  0  0  0  0  0
  -29.4434  -18.8126   21.4938 C   0  0  0  0  0  0  0  0  0  0  0  0
  -30.6033  -12.9756   20.0255 C   0  0  0  0  0  0  0  0  0  0  0  0
  -28.5071  -13.9011   20.9327 C   0  0  0  0  0  0  0  0  0  0  0  0
  -30.5301  -19.7995   18.9078 C   0  0  0  0  0  0  0  0  0  0  0  0
  -21.5145  -28.0107   20.6314 C   0  0  1  0  0  0  0  0  0  0  0  0
  -25.2654  -27.8135   21.2010 C   0  0  1  0  0  0  0  0  0  0  0  0
  -29.7028  -18.5253   19.1120 C   0  0  1  0  0  0  0  0  0  0  0  0
  -27.6725  -13.1174   19.9052 C   0  0  2  0  0  0  0  0  0  0  0  0
  -30.1124  -17.8884   20.4587 C   0  0  2  0  0  0  0  0  0  0  0  0
  -28.8214  -19.9146   20.6178 C   0  0  2  0  0  0  0  0  0  0  0  0
  -31.9077  -30.3750   18.1478 C   0  0  0  0  0  0  0  0  0  0  0  0
  -25.5551  -29.1017   16.7719 C   0  0  0  0  0  0  0  0  0  0  0  0
  -27.8571  -29.6551   15.9579 C   0  0  0  0  0  0  0  0  0  0  0  0
  -26.6554  -31.2376   17.4660 C   0  0  0  0  0  0  0  0  0  0  0  0
  -30.9511  -21.3898   20.8445 C   0  0  0  0  0  0  0  0  0  0  0  0
  -31.5055  -28.3808   21.3630 C   0  0  0  0  0  0  0  0  0  0  0  0
  -27.7932  -20.8018   21.2864 C   0  0  0  0  0  0  0  0  0  1  0  0
  -27.5534  -29.0693   18.4065 C   0  0  1  0  0  0  0  0  0  0  0  0
  -31.1549  -29.7990   19.3371 C   0  0  2  0  0  0  0  0  0  0  0  0
  -26.9007  -29.7427   17.1663 C   0  0  0  0  0  0  0  0  0  0  0  0
  -26.0600  -11.6471   21.0543 N   0  0  0  0  0  0  0  0  0  0  0  0
  -26.2777  -12.8108   20.4183 N   0  0  0  0  0  0  0  0  0  0  0  0
  -26.2908  -27.8581   20.1565 N   0  0  0  0  0  0  0  0  0  0  0  0
  -29.8477  -14.1758   20.3921 N   0  0  0  0  0  0  0  0  0  0  0  0
  -25.2106  -14.8010   19.7033 N   0  0  0  0  0  0  0  0  0  0  0  0
  -21.8838  -12.4979   21.7094 N   0  0  0  0  0  0  0  0  0  0  0  0
  -22.8685  -28.1405   21.1254 N   0  0  0  0  0  0  0  0  0  0  0  0
  -28.8156  -29.6733   18.8192 N   0  0  0  0  0  0  0  0  0  0  0  0
  -29.6488  -16.5246   20.5848 N   0  0  0  0  0  0  0  0  0  0  0  0
  -29.9392  -20.7382   19.9569 N   0  3  1  0  0  0  0  0  0  0  0  0
  -32.1069  -28.9886   20.1482 N   0  3  0  0  0  0  0  0  0  0  0  0
  -22.3981  -14.4340   20.5932 O   0  0  0  0  0  0  0  0  0  0  0  0
  -23.9323  -26.8411   19.5122 O   0  0  0  0  0  0  0  0  0  0  0  0
  -26.2926  -30.1883   20.0753 O   0  0  0  0  0  0  0  0  0  0  0  0
  -30.0949  -27.7494   18.6209 O   0  0  0  0  0  0  0  0  0  0  0  0
  -31.5752  -15.5900   19.7649 O   0  0  0  0  0  0  0  0  0  0  0  0
  -22.3237   -7.4834   24.0961 O   0  0  0  0  0  0  0  0  0  0  0  0
  -27.3050  -21.7755   20.3181 O   0  0  0  0  0  0  0  0  0  1  0  0
  -18.9778   -8.7486   28.2924 F   0  0  0  0  0  0  0  0  0  0  0  0
  -22.8493   -6.5736   26.6532 F   0  0  0  0  0  0  0  0  0  0  0  0
  1  2  1  0  0  0  0
  1  5  2  0  0  0  0
  2  6  2  0  0  0  0
  3  8  2  0  0  0  0
  3 15  1  0  0  0  0
  4  9  1  0  0  0  0
  4 15  2  0  0  0  0
  5 17  1  0  0  0  0
  6 19  1  0  0  0  0
  7 10  2  0  0  0  0
  7 18  1  0  0  0  0
  8 21  1  0  0  0  0
  9 21  2  0  0  0  0
 10 22  1  0  0  0  0
 11 12  2  0  0  0  0
 11 23  1  0  0  0  0
 12 24  1  0  0  0  0
 13 20  1  0  0  0  0
 13 22  2  0  0  0  0
 14 24  2  0  0  0  0
 14 25  1  0  0  0  0
 15 26  1  0  0  0  0
 16 26  1  0  0  0  0
 16 27  2  0  0  0  0
 16 28  1  0  0  0  0
 17 19  2  0  0  0  0
 17 33  1  0  0  0  0
 18 20  2  0  0  0  0
 18 34  1  0  0  0  0
 19 45  1  0  0  0  0
 20 35  1  0  0  0  0
 21 77  1  0  0  0  0
 22 78  1  0  0  0  0
 23 25  2  0  0  0  0
 23 77  1  0  0  0  0
 24 79  1  0  0  0  0
 25 80  1  0  0  0  0
 26 61  2  0  0  0  0
 27 62  1  0  0  0  0
 27 65  1  0  0  0  0
 28 66  1  0  0  0  0
 28 72  2  0  0  0  0
 29 46  1  0  0  0  0
 29 67  1  0  0  0  0
 29 73  2  0  0  0  0
 30 58  1  0  0  0  0
 30 63  1  0  0  0  0
 30 74  2  0  0  0  0
 31 59  1  0  0  0  0
 31 68  1  0  0  0  0
 31 75  2  0  0  0  0
 32 64  1  0  0  0  0
 32 69  1  0  0  0  0
 32 76  2  0  0  0  0
 33 36  1  0  0  0  0
 34 46  1  0  0  0  0
 35 63  1  0  0  0  0
 36 38  1  0  0  0  0
 37 39  1  0  0  0  0
 37 42  1  0  0  0  0
 38 45  1  0  0  0  0
 39 48  1  0  0  0  0
 40 47  1  0  0  0  0
 40 50  1  0  0  0  0
 41 49  1  0  0  0  0
 41 50  1  0  0  0  0
 42 64  1  0  0  0  0
 43 48  1  0  0  0  0
 43 64  1  0  0  0  0
 44 47  1  0  0  0  0
 44 70  1  0  0  0  0
 45 67  1  0  0  0  0
 46 63  1  0  0  0  0
 47 49  1  0  0  0  0
 48 62  1  0  0  0  0
 49 69  1  0  0  0  0
 50 57  1  0  0  0  0
 50 70  1  0  0  0  0
 51 59  1  0  0  0  0
 52 60  1  0  0  0  0
 53 60  1  0  0  0  0
 54 60  1  0  0  0  0
 55 70  1  0  0  0  0
 56 71  1  0  0  0  0
 57 78  1  0  0  0  0
 58 60  1  0  0  0  0
 58 68  1  0  0  0  0
 59 71  1  0  0  0  0
 61 62  1  0  0  0  0
M  CHG  2  70   1  71   1
M  ISO  4  32 100  57 101  69 100  78 101
M  END
> <Batch ID>
0179

> <Smiles>
CNC(C)C(=O)NC(C(=O)N1Cc2cc([101O:1][101CH2:1]C34CC(CN3C)C([100NH:0][100C:0](=O)N3CCCC(n5nc(-c6ccc(Oc7ccc(F)cc7F)cc6)c(C(N)=O)c5N)C3)C4)ccc2CC1C(=O)NC1CCCc2ccccc21)C(C)(C)C

> <Shape>
0.265

> <Color>
0.119

> <Negative vol penalty>
0.000

$$$$

  -OEChem-04052322573D

 85 94  0     1  0  0  0  0  0999 V2000
  -19.6556  -29.5298   25.8718 C   0  0  0  0  0  0  0  0  0  0  0  0
  -20.9259  -28.9633   25.8990 C   0  0  0  0  0  0  0  0  0  0  0  0
  -22.7975  -13.4874   18.6287 C   0  0  0  0  0  0  0  0  0  0  0  0
  -22.9201  -11.0950   18.9427 C   0  0  0  0  0  0  0  0  0  0  0  0
  -18.8237  -29.3206   24.7727 C   0  0  0  0  0  0  0  0  0  0  0  0
  -21.3648  -28.1865   24.8274 C   0  0  0  0  0  0  0  0  0  0  0  0
  -27.3204  -26.5113   21.2162 C   0  0  0  0  0  0  0  0  0  0  0  0
  -21.7530  -13.3148   17.7206 C   0  0  0  0  0  0  0  0  0  0  0  0
  -21.8755  -10.9224   18.0345 C   0  0  0  0  0  0  0  0  0  0  0  0
  -28.0406  -25.3987   20.7835 C   0  0  0  0  0  0  0  0  0  0  0  0
  -18.5075  -11.1997   18.0325 C   0  0  0  0  0  0  0  0  0  0  0  0
  -17.4896  -10.3112   18.3791 C   0  0  0  0  0  0  0  0  0  0  0  0
  -26.5472  -25.1710   18.9028 C   0  0  0  0  0  0  0  0  0  0  0  0
  -17.9808   -8.9847   16.4204 C   0  0  0  0  0  0  0  0  0  0  0  0
  -23.3811  -12.3775   19.2397 C   0  0  0  0  0  0  0  0  0  0  0  0
  -24.3562  -12.7324   21.5702 C   0  0  0  0  0  0  0  0  0  0  0  0
  -19.2562  -28.5488   23.6828 C   0  0  0  0  0  0  0  0  0  0  0  0
  -26.1998  -26.9563   20.5002 C   0  0  0  0  0  0  0  0  0  0  0  0
  -20.5374  -27.9657   23.7132 C   0  0  0  0  0  0  0  0  0  0  0  0
  -25.8160  -26.2910   19.3271 C   0  0  0  0  0  0  0  0  0  0  0  0
  -21.2920  -12.0323   17.4235 C   0  0  0  0  0  0  0  0  0  0  0  0
  -27.6523  -24.7266   19.6283 C   0  0  0  0  0  0  0  0  0  0  0  0
  -19.2619  -10.9808   16.8798 C   0  0  0  0  0  0  0  0  0  0  0  0
  -17.2263   -9.2036   17.5731 C   0  0  0  0  0  0  0  0  0  0  0  0
  -18.9986   -9.8733   16.0738 C   0  0  0  0  0  0  0  0  0  0  0  0
  -24.4605  -12.5552   20.1775 C   0  0  0  0  0  0  0  0  0  0  0  0
  -25.6553  -12.8544   21.9990 C   0  0  0  0  0  0  0  0  0  0  0  0
  -23.1893  -12.7822   22.4018 C   0  0  0  0  0  0  0  0  0  0  0  0
  -23.1035  -27.2691   21.1475 C   0  0  0  0  0  0  0  0  0  0  0  0
  -23.0321  -28.6697   18.2225 C   0  0  0  0  0  0  0  0  0  0  0  0
  -24.4624  -29.0240   15.1443 C   0  0  0  0  0  0  0  0  0  0  0  0
  -30.6484  -14.6473   19.5333 C   0  0  0  0  0  0  0  0  0  0  0  0
  -18.3037  -28.3116   22.5378 C   0  0  0  0  0  0  0  0  0  0  0  0
  -25.4495  -28.1741   20.9655 C   0  0  0  0  0  0  0  0  0  0  0  0
  -24.6325  -26.7408   18.5113 C   0  0  0  0  0  0  0  0  0  0  0  0
  -18.9854  -27.7855   21.2773 C   0  0  0  0  0  0  0  0  0  0  0  0
  -30.1153  -11.5234   20.9003 C   0  0  0  0  0  0  0  0  0  0  0  0
  -19.9453  -26.6515   21.6233 C   0  0  0  0  0  0  0  0  0  0  0  0
  -28.5934  -11.4357   21.0170 C   0  0  0  0  0  0  0  0  0  0  0  0
  -27.0972  -21.7609   20.3404 C   0  0  0  0  0  0  0  0  0  0  0  0
  -29.0009  -21.2126   19.5477 C   0  0  0  0  0  0  0  0  0  0  0  0
  -30.5263  -12.1740   19.5840 C   0  0  0  0  0  0  0  0  0  0  0  0
  -28.4138  -13.4527   19.4803 C   0  0  0  0  0  0  0  0  0  0  0  0
  -30.4466  -17.0442   20.0888 C   0  0  0  0  0  0  0  0  0  0  0  0
  -29.1091  -16.1603   18.2258 C   0  0  0  0  0  0  0  0  0  0  0  0
  -21.0587  -27.1373   22.5591 C   0  0  1  0  0  0  0  0  0  0  0  0
  -24.0178  -28.2301   20.4417 C   0  0  1  0  0  0  0  0  0  0  0  0
  -27.9313  -20.4571   20.3731 C   0  0  0  0  0  0  0  0  0  0  0  0
  -27.9425  -12.8138   20.8017 C   0  0  1  0  0  0  0  0  0  0  0  0
  -28.4203  -22.5292   20.1155 C   0  0  0  0  0  0  0  0  0  1  0  0
  -29.2852  -17.9160   20.5663 C   0  0  2  0  0  0  0  0  0  0  0  0
  -27.9030  -17.0260   18.6049 C   0  0  2  0  0  0  0  0  0  0  0  0
  -28.4904  -17.2523   21.6916 C   0  0  0  0  0  0  0  0  0  0  0  0
  -24.1550  -30.2095   12.9540 C   0  0  0  0  0  0  0  0  0  0  0  0
  -28.0599  -18.2806   16.4359 C   0  0  0  0  0  0  0  0  0  0  0  0
  -26.6321  -16.2216   16.5949 C   0  0  0  0  0  0  0  0  0  0  0  0
  -20.8111  -26.7144   17.4786 C   0  0  0  0  0  0  0  0  0  0  0  0
  -21.2082  -27.2864   15.0738 C   0  0  0  0  0  0  0  0  0  0  0  0
  -20.4571  -29.0531   16.6667 C   0  0  0  0  0  0  0  0  0  0  0  0
  -27.0431  -30.4464   15.4195 C   0  0  0  0  0  0  0  0  0  0  0  0
  -27.3099  -19.2381   19.7234 C   0  0  0  0  0  0  0  0  0  0  0  0
  -22.8265  -28.1824   16.8086 C   0  0  1  0  0  0  0  0  0  0  0  0
  -24.8042  -30.2577   14.3284 C   0  0  2  0  0  0  0  0  0  0  0  0
  -27.1556  -17.4467   17.3399 C   0  0  0  0  0  0  0  0  0  0  0  0
  -21.3469  -27.7992   16.5232 C   0  0  0  0  0  0  0  0  0  0  0  0
  -25.7259  -12.5634   19.7500 N   0  0  0  0  0  0  0  0  0  0  0  0
  -26.4286  -12.7473   20.8807 N   0  0  0  0  0  0  0  0  0  0  0  0
  -23.9274  -27.9328   19.0108 N   0  0  0  0  0  0  0  0  0  0  0  0
  -29.8826  -13.4771   19.4180 N   0  0  0  0  0  0  0  0  0  0  0  0
  -29.9713  -15.8662   19.3727 N   0  0  0  0  0  0  0  0  0  0  0  0
  -26.2001  -13.0418   23.2199 N   0  0  0  0  0  0  0  0  0  0  0  0
  -21.9323  -12.6395   21.7985 N   0  0  0  0  0  0  0  0  0  0  0  0
  -22.0572  -27.8757   21.8159 N   0  0  0  0  0  0  0  0  0  0  0  0
  -23.3521  -29.2270   15.9363 N   0  0  0  0  0  0  0  0  0  0  0  0
  -28.3995  -18.2552   19.3661 N   0  3  1  0  0  0  0  0  0  0  0  0
  -26.2795  -30.3667   14.1477 N   0  3  0  0  0  0  0  0  0  0  0  0
  -23.2584  -12.9649   23.6409 O   0  0  0  0  0  0  0  0  0  0  0  0
  -23.3297  -26.0662   21.0888 O   0  0  0  0  0  0  0  0  0  0  0  0
  -22.4264  -29.6716   18.6110 O   0  0  0  0  0  0  0  0  0  0  0  0
  -25.1128  -27.9830   15.0822 O   0  0  0  0  0  0  0  0  0  0  0  0
  -31.8615  -14.6075   19.7732 O   0  0  0  0  0  0  0  0  0  0  0  0
  -20.2726  -11.8634   16.5375 O   0  0  0  0  0  0  0  0  0  0  0  0
  -28.3545  -23.6378   19.2032 O   0  0  0  0  0  0  0  0  0  1  0  0
  -16.2499   -8.3496   17.9069 F   0  0  0  0  0  0  0  0  0  0  0  0
  -19.7208   -9.6570   14.9659 F   0  0  0  0  0  0  0  0  0  0  0  0
  1  2  1  0  0  0  0
  1  5  2  0  0  0  0
  2  6  2  0  0  0  0
  3  8  2  0  0  0  0
  3 15  1  0  0  0  0
  4  9  1  0  0  0  0
  4 15  2  0  0  0  0
  5 17  1  0  0  0  0
  6 19  1  0  0  0  0
  7 10  2  0  0  0  0
  7 18  1  0  0  0  0
  8 21  1  0  0  0  0
  9 21  2  0  0  0  0
 10 22  1  0  0  0  0
 11 12  2  0  0  0  0
 11 23  1  0  0  0  0
 12 24  1  0  0  0  0
 13 20  1  0  0  0  0
 13 22  2  0  0  0  0
 14 24  2  0  0  0  0
 14 25  1  0  0  0  0
 15 26  1  0  0  0  0
 16 26  1  0  0  0  0
 16 27  2  0  0  0  0
 16 28  1  0  0  0  0
 17 19  2  0  0  0  0
 17 33  1  0  0  0  0
 18 20  2  0  0  0  0
 18 34  1  0  0  0  0
 19 46  1  0  0  0  0
 20 35  1  0  0  0  0
 21 82  1  0  0  0  0
 22 83  1  0  0  0  0
 23 25  2  0  0  0  0
 23 82  1  0  0  0  0
 24 84  1  0  0  0  0
 25 85  1  0  0  0  0
 26 66  2  0  0  0  0
 27 67  1  0  0  0  0
 27 71  1  0  0  0  0
 28 72  1  0  0  0  0
 28 77  2  0  0  0  0
 29 47  1  0  0  0  0
 29 73  1  0  0  0  0
 29 78  2  0  0  0  0
 30 62  1  0  0  0  0
 30 68  1  0  0  0  0
 30 79  2  0  0  0  0
 31 63  1  0  0  0  0
 31 74  1  0  0  0  0
 31 80  2  0  0  0  0
 32 69  1  0  0  0  0
 32 70  1  0  0  0  0
 32 81  2  0  0  0  0
 33 36  1  0  0  0  0
 34 47  1  0  0  0  0
 35 68  1  0  0  0  0
 36 38  1  0  0  0  0
 37 39  1  0  0  0  0
 37 42  1  0  0  0  0
 38 46  1  0  0  0  0
 39 49  1  0  0  0  0
 40 48  1  0  0  0  0
 40 50  1  0  0  0  0
 41 48  1  0  0  0  0
 41 50  1  0  0  0  0
 42 69  1  0  0  0  0
 43 49  1  0  0  0  0
 43 69  1  0  0  0  0
 44 51  1  0  0  0  0
 44 70  1  0  0  0  0
 45 52  1  0  0  0  0
 45 70  1  0  0  0  0
 46 73  1  0  0  0  0
 47 68  1  0  0  0  0
 48 61  1  0  0  0  0
 49 67  1  0  0  0  0
 50 83  1  0  0  0  0
 51 53  1  0  0  0  0
 51 75  1  0  0  0  0
 52 64  1  0  0  0  0
 52 75  1  0  0  0  0
 54 63  1  0  0  0  0
 55 64  1  0  0  0  0
 56 64  1  0  0  0  0
 57 65  1  0  0  0  0
 58 65  1  0  0  0  0
 59 65  1  0  0  0  0
 60 76  1  0  0  0  0
 61 75  1  0  0  0  0
 62 65  1  0  0  0  0
 62 74  1  0  0  0  0
 63 76  1  0  0  0  0
 66 67  1  0  0  0  0
M  CHG  2  75   1  76   1
M  ISO  4  32 100  50 101  70 100  83 101
M  END
> <Batch ID>
0179

> <Smiles>
CNC(C)C(=O)NC(C(=O)N1Cc2cc([101O:1][101CH:1]3CC(CN4C(C)C[100N:0]([100C:0](=O)N5CCCC(n6nc(-c7ccc(Oc8ccc(F)cc8F)cc7)c(C(N)=O)c6N)C5)CC4C(C)C)C3)ccc2CC1C(=O)NC1CCCc2ccccc21)C(C)(C)C

> <Shape>
0.223

> <Color>
0.098

> <Negative vol penalty>
0.000

$$$$

  -OEChem-04052322573D

 83 92  0     1  0  0  0  0  0999 V2000
  -26.5086  -31.8195   15.0740 C   0  0  0  0  0  0  0  0  0  0  0  0
  -27.1740  -30.7156   15.5976 C   0  0  0  0  0  0  0  0  0  0  0  0
  -24.0132   -9.3490   19.9879 C   0  0  0  0  0  0  0  0  0  0  0  0
  -22.9479  -10.2534   21.9588 C   0  0  0  0  0  0  0  0  0  0  0  0
  -25.8401  -32.6978   15.9259 C   0  0  0  0  0  0  0  0  0  0  0  0
  -27.1722  -30.4900   16.9736 C   0  0  0  0  0  0  0  0  0  0  0  0
  -26.2649  -25.6481   18.1473 C   0  0  0  0  0  0  0  0  0  0  0  0
  -23.3564   -8.1352   20.1898 C   0  0  0  0  0  0  0  0  0  0  0  0
  -22.2910   -9.0396   22.1607 C   0  0  0  0  0  0  0  0  0  0  0  0
  -27.3225  -24.7504   18.0087 C   0  0  0  0  0  0  0  0  0  0  0  0
  -23.0276   -5.9863   23.4118 C   0  0  0  0  0  0  0  0  0  0  0  0
  -23.0061   -5.4686   24.7069 C   0  0  0  0  0  0  0  0  0  0  0  0
  -27.7238  -24.8658   20.3846 C   0  0  0  0  0  0  0  0  0  0  0  0
  -20.5913   -5.5446   24.6971 C   0  0  0  0  0  0  0  0  0  0  0  0
  -29.6487  -19.8639   21.6695 C   0  0  0  0  0  0  0  0  0  0  0  0
  -23.8090  -10.4082   20.8724 C   0  0  0  0  0  0  0  0  0  0  0  0
  -24.0311  -12.7616   19.9135 C   0  0  0  0  0  0  0  0  0  0  0  0
  -25.8221  -32.4775   17.3122 C   0  0  0  0  0  0  0  0  0  0  0  0
  -25.9351  -26.1707   19.4061 C   0  0  0  0  0  0  0  0  0  0  0  0
  -26.5041  -31.3669   17.8450 C   0  0  0  0  0  0  0  0  0  0  0  0
  -26.6599  -25.7680   20.5369 C   0  0  0  0  0  0  0  0  0  0  0  0
  -28.3421  -19.4347   21.7833 C   0  0  0  0  0  0  0  0  0  0  0  0
  -22.4953   -7.9805   21.2762 C   0  0  0  0  0  0  0  0  0  0  0  0
  -28.0540  -24.3613   19.1270 C   0  0  0  0  0  0  0  0  0  0  0  0
  -21.8309   -6.2832   22.7594 C   0  0  0  0  0  0  0  0  0  0  0  0
  -21.7879   -5.2477   25.3495 C   0  0  0  0  0  0  0  0  0  0  0  0
  -20.6128   -6.0623   23.4021 C   0  0  0  0  0  0  0  0  0  0  0  0
  -24.4877  -11.6621   20.6647 C   0  0  0  0  0  0  0  0  0  0  0  0
  -27.5441  -19.6515   20.6786 C   0  0  0  0  0  0  0  0  0  0  0  0
  -25.0323  -13.6949   20.0275 C   0  0  0  0  0  0  0  0  0  0  0  0
  -29.2711  -20.6144   19.5573 C   0  0  0  0  0  0  0  0  0  0  0  0
  -22.8109  -12.9248   19.1785 C   0  0  0  0  0  0  0  0  0  0  0  0
  -25.8711  -29.0824   20.6794 C   0  0  0  0  0  0  0  0  0  0  0  0
  -24.5555  -27.5261   23.2031 C   0  0  0  0  0  0  0  0  0  0  0  0
  -24.1579  -24.6013   24.9160 C   0  0  0  0  0  0  0  0  0  0  0  0
  -28.7647  -16.4771   23.1054 C   0  0  0  0  0  0  0  0  0  0  0  0
  -25.1259  -33.4805   18.1976 C   0  0  0  0  0  0  0  0  0  0  0  0
  -24.7744  -27.1175   19.5427 C   0  0  0  0  0  0  0  0  0  0  0  0
  -26.3332  -26.2843   21.9135 C   0  0  0  0  0  0  0  0  0  0  0  0
  -24.8565  -32.9639   19.6085 C   0  0  0  0  0  0  0  0  0  0  0  0
  -29.7258  -13.2801   21.8675 C   0  0  0  0  0  0  0  0  0  0  0  0
  -26.1006  -32.2881   20.1762 C   0  0  0  0  0  0  0  0  0  0  0  0
  -25.1279  -19.9317   19.8082 C   0  0  0  0  0  0  0  0  0  0  0  0
  -25.0833  -20.1532   21.2878 C   0  0  0  0  0  0  0  0  0  0  0  0
  -28.4107  -12.6630   21.3884 C   0  0  0  0  0  0  0  0  0  0  0  0
  -29.5288  -14.1208   23.1271 C   0  0  0  0  0  0  0  0  0  0  0  0
  -27.1720  -14.5425   22.5426 C   0  0  0  0  0  0  0  0  0  0  0  0
  -26.5041  -31.0747   19.3299 C   0  0  1  0  0  0  0  0  0  0  0  0
  -26.1123  -19.2252   20.7007 C   0  0  0  0  0  0  0  0  0  0  0  0
  -24.8537  -27.9830   20.7965 C   0  0  1  0  0  0  0  0  0  0  0  0
  -27.3102  -13.7311   21.2429 C   0  0  2  0  0  0  0  0  0  0  0  0
  -23.0582  -23.6501   26.9613 C   0  0  0  0  0  0  0  0  0  0  0  0
  -26.7110  -28.7960   24.9497 C   0  0  0  0  0  0  0  0  0  0  0  0
  -26.1676  -27.1135   26.7224 C   0  0  0  0  0  0  0  0  0  0  0  0
  -24.4320  -28.7434   25.9782 C   0  0  0  0  0  0  0  0  0  0  0  0
  -22.5143  -22.7382   23.3077 C   0  0  0  0  0  0  0  0  0  0  0  0
  -27.8553  -18.7849   23.0272 C   0  0  0  0  0  0  0  0  0  0  0  0
  -29.7921  -21.2805   18.3071 C   0  0  0  0  0  0  0  0  0  0  0  0
  -28.9962  -22.5283   17.9402 C   0  0  0  0  0  0  0  0  0  1  0  0
  -25.0938  -26.8490   24.4403 C   0  0  1  0  0  0  0  0  0  0  0  0
  -22.9204  -23.9191   25.4708 C   0  0  2  0  0  0  0  0  0  0  0  0
  -25.6088  -27.8671   25.4966 C   0  0  0  0  0  0  0  0  0  0  0  0
  -30.1486  -20.4597   20.5670 N   0  0  0  0  0  0  0  0  0  0  0  0
  -25.6859  -11.8755   21.2150 N   0  0  0  0  0  0  0  0  0  0  0  0
  -27.9773  -20.2408   19.5449 N   0  0  0  0  0  0  0  0  0  0  0  0
  -25.9906  -13.1199   20.8093 N   0  0  0  0  0  0  0  0  0  0  0  0
  -25.1934  -27.2127   21.9945 N   0  0  0  0  0  0  0  0  0  0  0  0
  -28.4729  -15.1154   22.9223 N   0  0  0  0  0  0  0  0  0  0  0  0
  -25.1777  -14.9431   19.5342 N   0  0  0  0  0  0  0  0  0  0  0  0
  -21.8917  -11.8669   19.1662 N   0  0  0  0  0  0  0  0  0  0  0  0
  -25.6474  -29.9460   19.6240 N   0  0  0  0  0  0  0  0  0  0  0  0
  -24.0304  -25.9742   24.9223 N   0  0  0  0  0  0  0  0  0  0  0  0
  -27.7092  -17.3534   22.8849 N   0  0  0  0  0  0  0  0  0  0  0  0
  -22.6906  -22.6198   24.7780 N   0  3  0  0  0  0  0  0  0  0  0  0
  -22.5509  -13.9714   18.5377 O   0  0  0  0  0  0  0  0  0  0  0  0
  -26.7902  -29.1437   21.4876 O   0  0  0  0  0  0  0  0  0  0  0  0
  -23.5994  -28.2990   23.3042 O   0  0  0  0  0  0  0  0  0  0  0  0
  -25.1408  -23.9786   24.5203 O   0  0  0  0  0  0  0  0  0  0  0  0
  -29.8845  -16.8824   23.4355 O   0  0  0  0  0  0  0  0  0  0  0  0
  -21.8539   -6.7963   21.4734 O   0  0  0  0  0  0  0  0  0  0  0  0
  -29.0873  -23.4857   18.9945 O   0  0  0  0  0  0  0  0  0  1  0  0
  -21.7674   -4.7492   26.5926 F   0  0  0  0  0  0  0  0  0  0  0  0
  -19.4599   -6.3444   22.7799 F   0  0  0  0  0  0  0  0  0  0  0  0
  1  2  1  0  0  0  0
  1  5  2  0  0  0  0
  2  6  2  0  0  0  0
  3  8  2  0  0  0  0
  3 16  1  0  0  0  0
  4  9  1  0  0  0  0
  4 16  2  0  0  0  0
  5 18  1  0  0  0  0
  6 20  1  0  0  0  0
  7 10  2  0  0  0  0
  7 19  1  0  0  0  0
  8 23  1  0  0  0  0
  9 23  2  0  0  0  0
 10 24  1  0  0  0  0
 11 12  2  0  0  0  0
 11 25  1  0  0  0  0
 12 26  1  0  0  0  0
 13 21  1  0  0  0  0
 13 24  2  0  0  0  0
 14 26  2  0  0  0  0
 14 27  1  0  0  0  0
 15 22  1  0  0  0  0
 15 63  2  0  0  0  0
 16 28  1  0  0  0  0
 17 28  1  0  0  0  0
 17 30  2  0  0  0  0
 17 32  1  0  0  0  0
 18 20  2  0  0  0  0
 18 37  1  0  0  0  0
 19 21  2  0  0  0  0
 19 38  1  0  0  0  0
 20 48  1  0  0  0  0
 21 39  1  0  0  0  0
 22 29  2  0  0  0  0
 22 57  1  0  0  0  0
 23 80  1  0  0  0  0
 24 81  1  0  0  0  0
 25 27  2  0  0  0  0
 25 80  1  0  0  0  0
 26 82  1  0  0  0  0
 27 83  1  0  0  0  0
 28 64  2  0  0  0  0
 29 49  1  0  0  0  0
 29 65  1  0  0  0  0
 30 66  1  0  0  0  0
 30 69  1  0  0  0  0
 31 58  1  0  0  0  0
 31 63  1  0  0  0  0
 31 65  2  0  0  0  0
 32 70  1  0  0  0  0
 32 75  2  0  0  0  0
 33 50  1  0  0  0  0
 33 71  1  0  0  0  0
 33 76  2  0  0  0  0
 34 60  1  0  0  0  0
 34 67  1  0  0  0  0
 34 77  2  0  0  0  0
 35 61  1  0  0  0  0
 35 72  1  0  0  0  0
 35 78  2  0  0  0  0
 36 68  1  0  0  0  0
 36 73  1  0  0  0  0
 36 79  2  0  0  0  0
 37 40  1  0  0  0  0
 38 50  1  0  0  0  0
 39 67  1  0  0  0  0
 40 42  1  0  0  0  0
 41 45  1  0  0  0  0
 41 46  1  0  0  0  0
 42 48  1  0  0  0  0
 43 44  1  0  0  0  0
 43 49  1  0  0  0  0
 44 49  1  0  0  0  0
 45 51  1  0  0  0  0
 46 68  1  0  0  0  0
 47 51  1  0  0  0  0
 47 68  1  0  0  0  0
 48 71  1  0  0  0  0
 50 67  1  0  0  0  0
 51 66  1  0  0  0  0
 52 61  1  0  0  0  0
 53 62  1  0  0  0  0
 54 62  1  0  0  0  0
 55 62  1  0  0  0  0
 56 74  1  0  0  0  0
 57 73  1  0  0  0  0
 58 59  1  0  0  0  0
 59 81  1  0  0  0  0
 60 62  1  0  0  0  0
 60 72  1  0  0  0  0
 61 74  1  0  0  0  0
 64 66  1  0  0  0  0
M  CHG  1  74   1
M  ISO  4  36 100  59 101  73 100  81 101
M  END
> <Batch ID>
0179

> <Smiles>
CNC(C)C(=O)NC(C(=O)N1Cc2cc([101O:1][101CH2:1]Cc3ncc(C[100NH:0][100C:0](=O)N4CCCC(n5nc(-c6ccc(Oc7ccc(F)cc7F)cc6)c(C(N)=O)c5N)C4)c(C4CC4)n3)ccc2CC1C(=O)NC1CCCc2ccccc21)C(C)(C)C

> <Shape>
0.200

> <Color>
0.142

> <Negative vol penalty>
0.000

$$$$

  -OEChem-04052322573D

 83 92  0     1  0  0  0  0  0999 V2000
  -26.8730  -36.4601   22.4930 C   0  0  0  0  0  0  0  0  0  0  0  0
  -27.7265  -35.5689   21.8504 C   0  0  0  0  0  0  0  0  0  0  0  0
  -25.9359   -9.4589   21.3813 C   0  0  0  0  0  0  0  0  0  0  0  0
  -24.3744  -10.0660   23.1220 C   0  0  0  0  0  0  0  0  0  0  0  0
  -25.8883  -35.9811   23.3561 C   0  0  0  0  0  0  0  0  0  0  0  0
  -27.5966  -34.1983   22.0716 C   0  0  0  0  0  0  0  0  0  0  0  0
  -28.3784  -27.9066   18.7371 C   0  0  0  0  0  0  0  0  0  0  0  0
  -25.7107   -8.1088   21.6501 C   0  0  0  0  0  0  0  0  0  0  0  0
  -24.1491   -8.7160   23.3908 C   0  0  0  0  0  0  0  0  0  0  0  0
  -29.0084  -26.6733   18.8980 C   0  0  0  0  0  0  0  0  0  0  0  0
  -22.3632   -6.1765   22.0559 C   0  0  0  0  0  0  0  0  0  0  0  0
  -21.0421   -5.7630   22.2270 C   0  0  0  0  0  0  0  0  0  0  0  0
  -29.9784  -22.0276   21.9215 C   0  0  0  0  0  0  0  0  0  0  0  0
  -27.2197  -25.9556   20.3488 C   0  0  0  0  0  0  0  0  0  0  0  0
  -21.5663   -5.0135   24.4632 C   0  0  0  0  0  0  0  0  0  0  0  0
  -25.2678  -10.4375   22.1174 C   0  0  0  0  0  0  0  0  0  0  0  0
  -24.8012  -12.6463   20.9295 C   0  0  0  0  0  0  0  0  0  0  0  0
  -25.7400  -34.6033   23.5804 C   0  0  0  0  0  0  0  0  0  0  0  0
  -27.1678  -28.1780   19.3906 C   0  0  0  0  0  0  0  0  0  0  0  0
  -26.6098  -33.7006   22.9395 C   0  0  0  0  0  0  0  0  0  0  0  0
  -30.7541  -20.8752   21.9811 C   0  0  0  0  0  0  0  0  0  0  0  0
  -26.5751  -27.1922   20.1925 C   0  0  0  0  0  0  0  0  0  0  0  0
  -29.2349  -22.3001   20.7786 C   0  0  0  0  0  0  0  0  0  0  0  0
  -24.8172   -7.7374   22.6548 C   0  0  0  0  0  0  0  0  0  0  0  0
  -28.4306  -25.6986   19.7062 C   0  0  0  0  0  0  0  0  0  0  0  0
  -23.2859   -6.0084   23.0884 C   0  0  0  0  0  0  0  0  0  0  0  0
  -20.6436   -5.1816   23.4307 C   0  0  0  0  0  0  0  0  0  0  0  0
  -22.8875   -5.4269   24.2920 C   0  0  0  0  0  0  0  0  0  0  0  0
  -25.5006  -11.8322   21.8406 C   0  0  0  0  0  0  0  0  0  0  0  0
  -30.7521  -20.0344   20.8799 C   0  0  0  0  0  0  0  0  0  0  0  0
  -29.3011  -21.3956   19.7311 C   0  0  0  0  0  0  0  0  0  0  0  0
  -25.4005  -13.8773   21.0390 C   0  0  0  0  0  0  0  0  0  0  0  0
  -23.7076  -12.3191   20.0620 C   0  0  0  0  0  0  0  0  0  0  0  0
  -26.2174  -30.2935   21.5643 C   0  0  0  0  0  0  0  0  0  0  0  0
  -23.2994  -29.0050   20.9748 C   0  0  0  0  0  0  0  0  0  0  0  0
  -21.4797  -26.3362   19.8737 C   0  0  0  0  0  0  0  0  0  0  0  0
  -30.0282  -16.8633   21.1801 C   0  0  0  0  0  0  0  0  0  0  0  0
  -24.6916  -34.1359   24.5587 C   0  0  0  0  0  0  0  0  0  0  0  0
  -26.4873  -29.5037   19.1854 C   0  0  0  0  0  0  0  0  0  0  0  0
  -25.2662  -27.4265   20.8998 C   0  0  0  0  0  0  0  0  0  0  0  0
  -24.3773  -32.6461   24.4490 C   0  0  0  0  0  0  0  0  0  0  0  0
  -28.7021  -15.6589   24.4056 C   0  0  0  0  0  0  0  0  0  0  0  0
  -30.9655  -19.6807   24.2620 C   0  0  0  0  0  0  0  0  0  0  0  0
  -31.1136  -21.1466   24.5258 C   0  0  0  0  0  0  0  0  0  0  0  0
  -25.6657  -31.8326   24.3766 C   0  0  0  0  0  0  0  0  0  0  0  0
  -27.7287  -14.5808   23.9383 C   0  0  0  0  0  0  0  0  0  0  0  0
  -29.9251  -15.7608   23.4951 C   0  0  0  0  0  0  0  0  0  0  0  0
  -28.6067  -14.8797   21.5899 C   0  0  0  0  0  0  0  0  0  0  0  0
  -31.5536  -20.5761   23.2022 C   0  0  0  0  0  0  0  0  0  0  0  0
  -26.4842  -32.2051   23.1345 C   0  0  1  0  0  0  0  0  0  0  0  0
  -25.5173  -29.8575   20.3084 C   0  0  1  0  0  0  0  0  0  0  0  0
  -27.3471  -14.7958   22.4657 C   0  0  1  0  0  0  0  0  0  0  0  0
  -28.5237  -21.6369   18.4786 C   0  0  0  0  0  0  0  0  0  0  0  0
  -19.1141  -25.5655   19.5457 C   0  0  0  0  0  0  0  0  0  0  0  0
  -23.0385  -28.5356   23.9784 C   0  0  0  0  0  0  0  0  0  0  0  0
  -21.1590  -26.9531   23.4973 C   0  0  0  0  0  0  0  0  0  0  0  0
  -20.9549  -29.3579   22.8661 C   0  0  0  0  0  0  0  0  0  0  0  0
  -21.8633  -26.0242   16.9557 C   0  0  0  0  0  0  0  0  0  0  0  0
  -28.3958  -23.5419   20.7079 C   0  0  0  0  0  0  0  0  0  1  0  0
  -31.5661  -18.7818   20.8861 C   0  0  0  0  0  0  0  0  0  0  0  0
  -22.5026  -27.8569   21.5456 C   0  0  1  0  0  0  0  0  0  0  0  0
  -20.3155  -26.2420   18.9040 C   0  0  2  0  0  0  0  0  0  0  0  0
  -21.9394  -28.1718   22.9602 C   0  0  0  0  0  0  0  0  0  0  0  0
  -26.4701  -12.4906   22.4814 N   0  0  0  0  0  0  0  0  0  0  0  0
  -30.0431  -20.2657   19.7523 N   0  0  0  0  0  0  0  0  0  0  0  0
  -26.3843  -13.7313   21.9723 N   0  0  0  0  0  0  0  0  0  0  0  0
  -24.6429  -28.7408   20.6728 N   0  0  0  0  0  0  0  0  0  0  0  0
  -29.5380  -15.9022   22.0826 N   0  0  0  0  0  0  0  0  0  0  0  0
  -25.1768  -15.0596   20.4268 N   0  0  0  0  0  0  0  0  0  0  0  0
  -23.2136  -11.0076   20.0753 N   0  0  0  0  0  0  0  0  0  0  0  0
  -25.9212  -31.5858   21.9539 N   0  0  0  0  0  0  0  0  0  0  0  0
  -21.4819  -27.5355   20.5540 N   0  0  0  0  0  0  0  0  0  0  0  0
  -30.9705  -17.7489   21.6909 N   0  0  0  0  0  0  0  0  0  0  0  0
  -20.7076  -25.4586   17.6984 N   0  3  0  0  0  0  0  0  0  0  0  0
  -23.1948  -13.1605   19.2858 O   0  0  0  0  0  0  0  0  0  0  0  0
  -26.9694  -29.5147   22.1384 O   0  0  0  0  0  0  0  0  0  0  0  0
  -22.7482  -30.0941   20.7966 O   0  0  0  0  0  0  0  0  0  0  0  0
  -22.3024  -25.4344   20.0163 O   0  0  0  0  0  0  0  0  0  0  0  0
  -29.6588  -16.9261   20.0023 O   0  0  0  0  0  0  0  0  0  0  0  0
  -24.5970   -6.4201   22.9172 O   0  0  0  0  0  0  0  0  0  0  0  0
  -29.0437  -24.4942   19.8655 O   0  0  0  0  0  0  0  0  0  1  0  0
  -19.3745   -4.7860   23.5954 F   0  0  0  0  0  0  0  0  0  0  0  0
  -23.7691   -5.2639   25.2880 F   0  0  0  0  0  0  0  0  0  0  0  0
  1  2  1  0  0  0  0
  1  5  2  0  0  0  0
  2  6  2  0  0  0  0
  3  8  2  0  0  0  0
  3 16  1  0  0  0  0
  4  9  1  0  0  0  0
  4 16  2  0  0  0  0
  5 18  1  0  0  0  0
  6 20  1  0  0  0  0
  7 10  2  0  0  0  0
  7 19  1  0  0  0  0
  8 24  1  0  0  0  0
  9 24  2  0  0  0  0
 10 25  1  0  0  0  0
 11 12  2  0  0  0  0
 11 26  1  0  0  0  0
 12 27  1  0  0  0  0
 13 21  2  0  0  0  0
 13 23  1  0  0  0  0
 14 22  1  0  0  0  0
 14 25  2  0  0  0  0
 15 27  2  0  0  0  0
 15 28  1  0  0  0  0
 16 29  1  0  0  0  0
 17 29  1  0  0  0  0
 17 32  2  0  0  0  0
 17 33  1  0  0  0  0
 18 20  2  0  0  0  0
 18 38  1  0  0  0  0
 19 22  2  0  0  0  0
 19 39  1  0  0  0  0
 20 50  1  0  0  0  0
 21 30  1  0  0  0  0
 21 49  1  0  0  0  0
 22 40  1  0  0  0  0
 23 31  2  0  0  0  0
 23 59  1  0  0  0  0
 24 80  1  0  0  0  0
 25 81  1  0  0  0  0
 26 28  2  0  0  0  0
 26 80  1  0  0  0  0
 27 82  1  0  0  0  0
 28 83  1  0  0  0  0
 29 64  2  0  0  0  0
 30 60  1  0  0  0  0
 30 65  2  0  0  0  0
 31 53  1  0  0  0  0
 31 65  1  0  0  0  0
 32 66  1  0  0  0  0
 32 69  1  0  0  0  0
 33 70  1  0  0  0  0
 33 75  2  0  0  0  0
 34 51  1  0  0  0  0
 34 71  1  0  0  0  0
 34 76  2  0  0  0  0
 35 61  1  0  0  0  0
 35 67  1  0  0  0  0
 35 77  2  0  0  0  0
 36 62  1  0  0  0  0
 36 72  1  0  0  0  0
 36 78  2  0  0  0  0
 37 68  1  0  0  0  0
 37 73  1  0  0  0  0
 37 79  2  0  0  0  0
 38 41  1  0  0  0  0
 39 51  1  0  0  0  0
 40 67  1  0  0  0  0
 41 45  1  0  0  0  0
 42 46  1  0  0  0  0
 42 47  1  0  0  0  0
 43 44  1  0  0  0  0
 43 49  1  0  0  0  0
 44 49  1  0  0  0  0
 45 50  1  0  0  0  0
 46 52  1  0  0  0  0
 47 68  1  0  0  0  0
 48 52  1  0  0  0  0
 48 68  1  0  0  0  0
 50 71  1  0  0  0  0
 51 67  1  0  0  0  0
 52 66  1  0  0  0  0
 54 62  1  0  0  0  0
 55 63  1  0  0  0  0
 56 63  1  0  0  0  0
 57 63  1  0  0  0  0
 58 74  1  0  0  0  0
 59 81  1  0  0  0  0
 60 73  1  0  0  0  0
 61 63  1  0  0  0  0
 61 72  1  0  0  0  0
 62 74  1  0  0  0  0
 64 66  1  0  0  0  0
M  CHG  1  74   1
M  ISO  4  37 100  59 101  73 100  81 101
M  END
> <Batch ID>
0179

> <Smiles>
CNC(C)C(=O)NC(C(=O)N1Cc2cc([101O:1][101CH2:1]c3cc(C4CC4)c(C[100NH:0][100C:0](=O)N4CCCC(n5nc(-c6ccc(Oc7ccc(F)cc7F)cc6)c(C(N)=O)c5N)C4)nc3C)ccc2CC1C(=O)NC1CCCc2ccccc21)C(C)(C)C

> <Shape>
0.300

> <Color>
0.095

> <Negative vol penalty>
0.000

$$$$

  -OEChem-04052322573D

 83 92  0     1  0  0  0  0  0999 V2000
  -28.1828  -25.1036   16.1423 C   0  0  0  0  0  0  0  0  0  0  0  0
  -27.0256  -25.1792   16.9108 C   0  0  0  0  0  0  0  0  0  0  0  0
  -27.4241  -17.5986   20.5707 C   0  0  0  0  0  0  0  0  0  0  0  0
  -26.9159  -17.5156   22.9312 C   0  0  0  0  0  0  0  0  0  0  0  0
  -29.3703  -25.6597   16.6160 C   0  0  0  0  0  0  0  0  0  0  0  0
  -27.0555  -25.8101   18.1539 C   0  0  0  0  0  0  0  0  0  0  0  0
  -23.1005  -28.8921   18.8641 C   0  0  0  0  0  0  0  0  0  0  0  0
  -28.7178  -18.0295   20.8643 C   0  0  0  0  0  0  0  0  0  0  0  0
  -28.2096  -17.9465   23.2248 C   0  0  0  0  0  0  0  0  0  0  0  0
  -21.8844  -28.2998   19.2020 C   0  0  0  0  0  0  0  0  0  0  0  0
  -31.3049  -16.5999   23.3877 C   0  0  0  0  0  0  0  0  0  0  0  0
  -31.9912  -15.9383   24.4060 C   0  0  0  0  0  0  0  0  0  0  0  0
  -22.2632  -28.8576   21.5181 C   0  0  0  0  0  0  0  0  0  0  0  0
  -32.1778  -18.0138   25.6285 C   0  0  0  0  0  0  0  0  0  0  0  0
  -18.2491  -25.4010   21.0480 C   0  0  0  0  0  0  0  0  0  0  0  0
  -26.5231  -17.3417   21.6041 C   0  0  0  0  0  0  0  0  0  0  0  0
  -24.7441  -15.5682   21.1596 C   0  0  0  0  0  0  0  0  0  0  0  0
  -29.4125  -26.3062   17.8613 C   0  0  0  0  0  0  0  0  0  0  0  0
  -23.9135  -29.4628   19.8538 C   0  0  0  0  0  0  0  0  0  0  0  0
  -28.2450  -26.3742   18.6453 C   0  0  0  0  0  0  0  0  0  0  0  0
  -23.4879  -29.4587   21.1899 C   0  0  0  0  0  0  0  0  0  0  0  0
  -29.1106  -18.2034   22.1914 C   0  0  0  0  0  0  0  0  0  0  0  0
  -21.4669  -28.2800   20.5295 C   0  0  0  0  0  0  0  0  0  0  0  0
  -31.0551  -17.9684   23.4897 C   0  0  0  0  0  0  0  0  0  0  0  0
  -32.4276  -16.6452   25.5264 C   0  0  0  0  0  0  0  0  0  0  0  0
  -31.4916  -18.6753   24.6102 C   0  0  0  0  0  0  0  0  0  0  0  0
  -25.1864  -16.8971   21.3014 C   0  0  0  0  0  0  0  0  0  0  0  0
  -18.2359  -26.5867   20.3421 C   0  0  0  0  0  0  0  0  0  0  0  0
  -17.0234  -24.9683   21.5112 C   0  0  0  0  0  0  0  0  0  0  0  0
  -23.4049  -15.6804   20.8761 C   0  0  0  0  0  0  0  0  0  0  0  0
  -15.9860  -26.7762   20.6044 C   0  0  0  0  0  0  0  0  0  0  0  0
  -25.4782  -14.3419   21.2741 C   0  0  0  0  0  0  0  0  0  0  0  0
  -26.8431  -28.8988   20.9506 C   0  0  0  0  0  0  0  0  0  0  0  0
  -26.2944  -31.5906   22.6755 C   0  0  0  0  0  0  0  0  0  0  0  0
  -24.0269  -33.7227   24.0754 C   0  0  0  0  0  0  0  0  0  0  0  0
  -19.5220  -19.9529   22.2077 C   0  0  0  0  0  0  0  0  0  0  0  0
  -30.7305  -26.8508   18.3522 C   0  0  0  0  0  0  0  0  0  0  0  0
  -25.2100  -30.1214   19.4694 C   0  0  0  0  0  0  0  0  0  0  0  0
  -24.3145  -30.0758   22.2873 C   0  0  0  0  0  0  0  0  0  0  0  0
  -30.5899  -27.8308   19.5142 C   0  0  0  0  0  0  0  0  0  0  0  0
  -20.2211  -18.6038   18.8723 C   0  0  0  0  0  0  0  0  0  0  0  0
  -29.6365  -27.2761   20.5679 C   0  0  0  0  0  0  0  0  0  0  0  0
  -21.5737  -17.9383   19.1037 C   0  0  0  0  0  0  0  0  0  0  0  0
  -20.0449  -19.8701   19.7113 C   0  0  0  0  0  0  0  0  0  0  0  0
  -21.6448  -18.9916   21.3905 C   0  0  0  0  0  0  0  0  0  0  0  0
  -17.7723  -21.5957   23.0827 C   0  0  0  0  0  0  0  0  0  0  0  0
  -18.6836  -22.2532   21.2760 C   0  0  0  0  0  0  0  0  0  0  0  0
  -28.2316  -27.0722   19.9880 C   0  0  1  0  0  0  0  0  0  0  0  0
  -26.1982  -30.2169   20.6278 C   0  0  1  0  0  0  0  0  0  0  0  0
  -21.7991  -17.6838   20.6015 C   0  0  2  0  0  0  0  0  0  0  0  0
  -18.1345  -22.9727   22.5153 C   0  0  0  0  0  0  0  0  0  0  0  0
  -14.7292  -27.5398   20.3579 C   0  0  0  0  0  0  0  0  0  0  0  0
  -23.8800  -35.8129   25.4561 C   0  0  0  0  0  0  0  0  0  0  0  0
  -27.0274  -29.9921   25.1689 C   0  0  0  0  0  0  0  0  0  0  0  0
  -25.9671  -31.7917   26.5494 C   0  0  0  0  0  0  0  0  0  0  0  0
  -27.9396  -32.3201   25.1167 C   0  0  0  0  0  0  0  0  0  0  0  0
  -22.5944  -35.1765   21.9322 C   0  0  0  0  0  0  0  0  0  0  0  0
  -19.5138  -27.1349   19.8015 C   0  0  0  0  0  0  0  0  0  1  0  0
  -25.6980  -31.8896   24.0296 C   0  0  1  0  0  0  0  0  0  0  0  0
  -23.9183  -35.2366   24.0493 C   0  0  2  0  0  0  0  0  0  0  0  0
  -26.6431  -31.4850   25.1960 C   0  0  0  0  0  0  0  0  0  0  0  0
  -24.2075  -17.7882   21.1225 N   0  0  0  0  0  0  0  0  0  0  0  0
  -17.1184  -27.3030   20.1007 N   0  0  0  0  0  0  0  0  0  0  0  0
  -15.8674  -25.6335   21.3071 N   0  0  0  0  0  0  0  0  0  0  0  0
  -23.1369  -17.0176   20.8653 N   0  0  0  0  0  0  0  0  0  0  0  0
  -25.5772  -30.7021   21.8619 N   0  0  0  0  0  0  0  0  0  0  0  0
  -20.3527  -19.6362   21.1274 N   0  0  0  0  0  0  0  0  0  0  0  0
  -18.6966  -21.0474   22.0929 N   0  0  0  0  0  0  0  0  0  0  0  0
  -22.4422  -14.7646   20.6374 N   0  0  0  0  0  0  0  0  0  0  0  0
  -26.8466  -14.4076   21.5702 N   0  0  0  0  0  0  0  0  0  0  0  0
  -16.9938  -23.7697   22.2319 N   0  0  0  0  0  0  0  0  0  0  0  0
  -27.5349  -28.3372   19.8944 N   0  0  0  0  0  0  0  0  0  0  0  0
  -25.3392  -33.3037   24.0145 N   0  0  0  0  0  0  0  0  0  0  0  0
  -22.6784  -35.6548   23.3362 N   0  3  0  0  0  0  0  0  0  0  0  0
  -24.9403  -13.2218   21.1022 O   0  0  0  0  0  0  0  0  0  0  0  0
  -26.7234  -28.4269   22.0752 O   0  0  0  0  0  0  0  0  0  0  0  0
  -27.3539  -32.1313   22.3486 O   0  0  0  0  0  0  0  0  0  0  0  0
  -23.0460  -32.9856   24.1466 O   0  0  0  0  0  0  0  0  0  0  0  0
  -19.5375  -19.2975   23.2580 O   0  0  0  0  0  0  0  0  0  0  0  0
  -30.3730  -18.6236   22.4783 O   0  0  0  0  0  0  0  0  0  0  0  0
  -20.2724  -27.6980   20.8645 O   0  0  0  0  0  0  0  0  0  1  0  0
  -33.0853  -16.0095   26.5049 F   0  0  0  0  0  0  0  0  0  0  0  0
  -31.2535  -19.9900   24.7144 F   0  0  0  0  0  0  0  0  0  0  0  0
  1  2  1  0  0  0  0
  1  5  2  0  0  0  0
  2  6  2  0  0  0  0
  3  8  2  0  0  0  0
  3 16  1  0  0  0  0
  4  9  1  0  0  0  0
  4 16  2  0  0  0  0
  5 18  1  0  0  0  0
  6 20  1  0  0  0  0
  7 10  2  0  0  0  0
  7 19  1  0  0  0  0
  8 22  1  0  0  0  0
  9 22  2  0  0  0  0
 10 23  1  0  0  0  0
 11 12  2  0  0  0  0
 11 24  1  0  0  0  0
 12 25  1  0  0  0  0
 13 21  1  0  0  0  0
 13 23  2  0  0  0  0
 14 25  2  0  0  0  0
 14 26  1  0  0  0  0
 15 28  1  0  0  0  0
 15 29  2  0  0  0  0
 16 27  1  0  0  0  0
 17 27  1  0  0  0  0
 17 30  2  0  0  0  0
 17 32  1  0  0  0  0
 18 20  2  0  0  0  0
 18 37  1  0  0  0  0
 19 21  2  0  0  0  0
 19 38  1  0  0  0  0
 20 48  1  0  0  0  0
 21 39  1  0  0  0  0
 22 80  1  0  0  0  0
 23 81  1  0  0  0  0
 24 26  2  0  0  0  0
 24 80  1  0  0  0  0
 25 82  1  0  0  0  0
 26 83  1  0  0  0  0
 27 62  2  0  0  0  0
 28 58  1  0  0  0  0
 28 63  2  0  0  0  0
 29 64  1  0  0  0  0
 29 71  1  0  0  0  0
 30 65  1  0  0  0  0
 30 69  1  0  0  0  0
 31 52  1  0  0  0  0
 31 63  1  0  0  0  0
 31 64  2  0  0  0  0
 32 70  1  0  0  0  0
 32 75  2  0  0  0  0
 33 49  1  0  0  0  0
 33 72  1  0  0  0  0
 33 76  2  0  0  0  0
 34 59  1  0  0  0  0
 34 66  1  0  0  0  0
 34 77  2  0  0  0  0
 35 60  1  0  0  0  0
 35 73  1  0  0  0  0
 35 78  2  0  0  0  0
 36 67  1  0  0  0  0
 36 68  1  0  0  0  0
 36 79  2  0  0  0  0
 37 40  1  0  0  0  0
 38 49  1  0  0  0  0
 39 66  1  0  0  0  0
 40 42  1  0  0  0  0
 41 43  1  0  0  0  0
 41 44  1  0  0  0  0
 42 48  1  0  0  0  0
 43 50  1  0  0  0  0
 44 67  1  0  0  0  0
 45 50  1  0  0  0  0
 45 67  1  0  0  0  0
 46 51  1  0  0  0  0
 46 68  1  0  0  0  0
 47 51  1  0  0  0  0
 47 68  1  0  0  0  0
 48 72  1  0  0  0  0
 49 66  1  0  0  0  0
 50 65  1  0  0  0  0
 51 71  1  0  0  0  0
 53 60  1  0  0  0  0
 54 61  1  0  0  0  0
 55 61  1  0  0  0  0
 56 61  1  0  0  0  0
 57 74  1  0  0  0  0
 58 81  1  0  0  0  0
 59 61  1  0  0  0  0
 59 73  1  0  0  0  0
 60 74  1  0  0  0  0
 62 65  1  0  0  0  0
M  CHG  1  74   1
M  ISO  4  36 100  58 101  68 100  81 101
M  END
> <Batch ID>
0179

> <Smiles>
CNC(C)C(=O)NC(C(=O)N1Cc2cc([101O:1][101CH2:1]c3cc(NC4C[100N:0]([100C:0](=O)N5CCCC(n6nc(-c7ccc(Oc8ccc(F)cc8F)cc7)c(C(N)=O)c6N)C5)C4)nc(C)n3)ccc2CC1C(=O)NC1CCCc2ccccc21)C(C)(C)C

> <Shape>
0.221

> <Color>
0.073

> <Negative vol penalty>
0.000

$$$$

  -OEChem-04052322573D

 85 94  0     1  0  0  0  0  0999 V2000
  -29.5092  -33.5698   25.2601 C   0  0  0  0  0  0  0  0  0  0  0  0
  -29.3094  -32.3052   24.7157 C   0  0  0  0  0  0  0  0  0  0  0  0
  -23.1929  -10.4546   21.8095 C   0  0  0  0  0  0  0  0  0  0  0  0
  -24.4683   -8.6134   20.9037 C   0  0  0  0  0  0  0  0  0  0  0  0
  -28.4212  -34.3068   25.7259 C   0  0  0  0  0  0  0  0  0  0  0  0
  -28.0215  -31.7765   24.6377 C   0  0  0  0  0  0  0  0  0  0  0  0
  -27.0743  -29.6213   20.1541 C   0  0  0  0  0  0  0  0  0  0  0  0
  -22.0124   -9.7446   21.5905 C   0  0  0  0  0  0  0  0  0  0  0  0
  -23.2878   -7.9034   20.6848 C   0  0  0  0  0  0  0  0  0  0  0  0
  -27.6019  -28.3496   19.9347 C   0  0  0  0  0  0  0  0  0  0  0  0
  -20.6361   -5.4599   20.2200 C   0  0  0  0  0  0  0  0  0  0  0  0
  -20.6100   -4.1145   20.5874 C   0  0  0  0  0  0  0  0  0  0  0  0
  -25.4527  -27.3774   20.4399 C   0  0  0  0  0  0  0  0  0  0  0  0
  -21.0782   -4.7304   22.8762 C   0  0  0  0  0  0  0  0  0  0  0  0
  -24.4209   -9.8890   21.4660 C   0  0  0  0  0  0  0  0  0  0  0  0
  -26.4405  -10.6061   22.8498 C   0  0  0  0  0  0  0  0  0  0  0  0
  -27.1182  -33.7907   25.6448 C   0  0  0  0  0  0  0  0  0  0  0  0
  -25.7325  -29.7802   20.5293 C   0  0  0  0  0  0  0  0  0  0  0  0
  -26.9152  -32.5067   25.1041 C   0  0  0  0  0  0  0  0  0  0  0  0
  -24.9099  -28.6524   20.6609 C   0  0  0  0  0  0  0  0  0  0  0  0
  -22.0599   -8.4690   21.0282 C   0  0  0  0  0  0  0  0  0  0  0  0
  -26.7919  -27.2272   20.0805 C   0  0  0  0  0  0  0  0  0  0  0  0
  -20.8833   -6.4405   21.1808 C   0  0  0  0  0  0  0  0  0  0  0  0
  -20.8310   -3.7498   21.9154 C   0  0  0  0  0  0  0  0  0  0  0  0
  -21.1043   -6.0758   22.5088 C   0  0  0  0  0  0  0  0  0  0  0  0
  -25.6407  -10.6221   21.6914 C   0  0  0  0  0  0  0  0  0  0  0  0
  -29.3064  -23.8262   18.0730 C   0  0  0  0  0  0  0  0  0  0  0  0
  -29.0718  -24.5124   19.2412 C   0  0  0  0  0  0  0  0  0  0  0  0
  -27.4756  -11.4625   22.5642 C   0  0  0  0  0  0  0  0  0  0  0  0
  -29.6190  -22.4142   19.6348 C   0  0  0  0  0  0  0  0  0  0  0  0
  -26.2636   -9.8817   24.0744 C   0  0  0  0  0  0  0  0  0  0  0  0
  -24.2398  -30.9700   23.0709 C   0  0  0  0  0  0  0  0  0  0  0  0
  -21.5906  -30.4517   21.2722 C   0  0  0  0  0  0  0  0  0  0  0  0
  -20.1091  -28.7288   18.7259 C   0  0  0  0  0  0  0  0  0  0  0  0
  -29.4884  -16.0603   20.6632 C   0  0  0  0  0  0  0  0  0  0  0  0
  -25.9788  -34.6050   26.2047 C   0  0  0  0  0  0  0  0  0  0  0  0
  -25.1716  -31.1605   20.7361 C   0  0  0  0  0  0  0  0  0  0  0  0
  -23.4576  -28.7703   21.0422 C   0  0  0  0  0  0  0  0  0  0  0  0
  -24.6044  -34.1275   25.7428 C   0  0  0  0  0  0  0  0  0  0  0  0
  -28.8771  -13.6179   18.2158 C   0  0  0  0  0  0  0  0  0  0  0  0
  -24.4962  -32.6112   25.8679 C   0  0  0  0  0  0  0  0  0  0  0  0
  -28.0371  -12.6085   18.9978 C   0  0  0  0  0  0  0  0  0  0  0  0
  -28.9975  -19.2958   19.3674 C   0  0  0  0  0  0  0  0  0  0  0  0
  -30.9605  -19.1839   20.9491 C   0  0  0  0  0  0  0  0  0  0  0  0
  -28.5001  -15.0614   18.5540 C   0  0  0  0  0  0  0  0  0  0  0  0
  -29.3157  -17.8727   18.8991 C   0  0  0  0  0  0  0  0  0  0  0  0
  -31.2558  -17.7790   20.4310 C   0  0  0  0  0  0  0  0  0  0  0  0
  -27.6939  -14.3573   20.7840 C   0  0  0  0  0  0  0  0  0  0  0  0
  -25.5304  -31.9091   24.9797 C   0  0  1  0  0  0  0  0  0  0  0  0
  -23.9253  -31.1733   21.6158 C   0  0  1  0  0  0  0  0  0  0  0  0
  -28.0898  -12.8985   20.5084 C   0  0  1  0  0  0  0  0  0  0  0  0
  -30.2497  -20.0134   19.8766 C   0  0  0  0  0  0  0  0  0  0  0  0
  -29.2324  -24.3218   16.6892 C   0  0  0  0  0  0  0  0  0  0  0  0
  -17.9241  -28.4974   17.5136 C   0  0  0  0  0  0  0  0  0  0  0  0
  -20.4570  -28.8700   23.6223 C   0  0  0  0  0  0  0  0  0  0  0  0
  -18.7628  -27.8943   22.0583 C   0  0  0  0  0  0  0  0  0  0  0  0
  -18.8062  -30.3542   22.4705 C   0  0  0  0  0  0  0  0  0  0  0  0
  -29.1495  -23.8407   21.6528 C   0  0  0  0  0  0  0  0  0  0  0  0
  -21.3172  -29.5505   16.1522 C   0  0  0  0  0  0  0  0  0  0  0  0
  -28.6849  -25.9114   19.4966 C   0  0  0  0  0  0  0  0  0  1  0  0
  -20.6362  -29.2975   21.0824 C   0  0  1  0  0  0  0  0  0  0  0  0
  -19.2753  -29.1945   17.5459 C   0  0  2  0  0  0  0  0  0  0  0  0
  -19.6934  -29.1013   22.3031 C   0  0  0  0  0  0  0  0  0  0  0  0
  -26.1259  -11.4253   20.7409 N   0  0  0  0  0  0  0  0  0  0  0  0
  -29.6463  -22.5206   18.3249 N   0  0  0  0  0  0  0  0  0  0  0  0
  -29.2755  -23.5947   20.2329 N   0  0  0  0  0  0  0  0  0  0  0  0
  -27.2418  -11.9218   21.3015 N   0  0  0  0  0  0  0  0  0  0  0  0
  -22.9574  -30.1408   21.2398 N   0  0  0  0  0  0  0  0  0  0  0  0
  -28.5255  -15.2790   20.0072 N   0  0  0  0  0  0  0  0  0  0  0  0
  -30.0383  -17.1308   19.9423 N   0  0  0  0  0  0  0  0  0  0  0  0
  -28.5538  -11.8599   23.2726 N   0  0  0  0  0  0  0  0  0  0  0  0
  -25.1456   -9.0460   24.2008 N   0  0  0  0  0  0  0  0  0  0  0  0
  -29.8830  -21.3039   20.4170 N   0  0  0  0  0  0  0  0  0  0  0  0
  -25.0981  -31.9157   23.5985 N   0  0  0  0  0  0  0  0  0  0  0  0
  -19.9409  -29.5455   19.8241 N   0  0  0  0  0  0  0  0  0  0  0  0
  -19.9830  -28.9073   16.2662 N   0  3  0  0  0  0  0  0  0  0  0  0
  -27.0642   -9.9854   25.0345 O   0  0  0  0  0  0  0  0  0  0  0  0
  -23.7396  -30.0259   23.6710 O   0  0  0  0  0  0  0  0  0  0  0  0
  -21.1401  -31.5883   21.4357 O   0  0  0  0  0  0  0  0  0  0  0  0
  -20.8340  -27.7374   18.6794 O   0  0  0  0  0  0  0  0  0  0  0  0
  -29.8365  -15.8162   21.8253 O   0  0  0  0  0  0  0  0  0  0  0  0
  -20.9082   -7.7758   20.8147 O   0  0  0  0  0  0  0  0  0  0  0  0
  -27.3070  -25.9786   19.8666 O   0  0  0  0  0  0  0  0  0  1  0  0
  -20.8043   -2.4579   22.2683 F   0  0  0  0  0  0  0  0  0  0  0  0
  -21.3411   -7.0134   23.4365 F   0  0  0  0  0  0  0  0  0  0  0  0
  1  2  1  0  0  0  0
  1  5  2  0  0  0  0
  2  6  2  0  0  0  0
  3  8  2  0  0  0  0
  3 15  1  0  0  0  0
  4  9  1  0  0  0  0
  4 15  2  0  0  0  0
  5 17  1  0  0  0  0
  6 19  1  0  0  0  0
  7 10  2  0  0  0  0
  7 18  1  0  0  0  0
  8 21  1  0  0  0  0
  9 21  2  0  0  0  0
 10 22  1  0  0  0  0
 11 12  2  0  0  0  0
 11 23  1  0  0  0  0
 12 24  1  0  0  0  0
 13 20  1  0  0  0  0
 13 22  2  0  0  0  0
 14 24  2  0  0  0  0
 14 25  1  0  0  0  0
 15 26  1  0  0  0  0
 16 26  1  0  0  0  0
 16 29  2  0  0  0  0
 16 31  1  0  0  0  0
 17 19  2  0  0  0  0
 17 36  1  0  0  0  0
 18 20  2  0  0  0  0
 18 37  1  0  0  0  0
 19 49  1  0  0  0  0
 20 38  1  0  0  0  0
 21 82  1  0  0  0  0
 22 83  1  0  0  0  0
 23 25  2  0  0  0  0
 23 82  1  0  0  0  0
 24 84  1  0  0  0  0
 25 85  1  0  0  0  0
 26 64  2  0  0  0  0
 27 28  2  0  0  0  0
 27 53  1  0  0  0  0
 27 65  1  0  0  0  0
 28 60  1  0  0  0  0
 28 66  1  0  0  0  0
 29 67  1  0  0  0  0
 29 71  1  0  0  0  0
 30 65  2  0  0  0  0
 30 66  1  0  0  0  0
 30 73  1  0  0  0  0
 31 72  1  0  0  0  0
 31 77  2  0  0  0  0
 32 50  1  0  0  0  0
 32 74  1  0  0  0  0
 32 78  2  0  0  0  0
 33 61  1  0  0  0  0
 33 68  1  0  0  0  0
 33 79  2  0  0  0  0
 34 62  1  0  0  0  0
 34 75  1  0  0  0  0
 34 80  2  0  0  0  0
 35 69  1  0  0  0  0
 35 70  1  0  0  0  0
 35 81  2  0  0  0  0
 36 39  1  0  0  0  0
 37 50  1  0  0  0  0
 38 68  1  0  0  0  0
 39 41  1  0  0  0  0
 40 42  1  0  0  0  0
 40 45  1  0  0  0  0
 41 49  1  0  0  0  0
 42 51  1  0  0  0  0
 43 46  1  0  0  0  0
 43 52  1  0  0  0  0
 44 47  1  0  0  0  0
 44 52  1  0  0  0  0
 45 69  1  0  0  0  0
 46 70  1  0  0  0  0
 47 70  1  0  0  0  0
 48 51  1  0  0  0  0
 48 69  1  0  0  0  0
 49 74  1  0  0  0  0
 50 68  1  0  0  0  0
 51 67  1  0  0  0  0
 52 73  1  0  0  0  0
 54 62  1  0  0  0  0
 55 63  1  0  0  0  0
 56 63  1  0  0  0  0
 57 63  1  0  0  0  0
 58 66  1  0  0  0  0
 59 76  1  0  0  0  0
 60 83  1  0  0  0  0
 61 63  1  0  0  0  0
 61 75  1  0  0  0  0
 62 76  1  0  0  0  0
 64 67  1  0  0  0  0
M  CHG  1  76   1
M  ISO  4  35 100  60 101  70 100  83 101
M  END
> <Batch ID>
0179

> <Smiles>
CNC(C)C(=O)NC(C(=O)N1Cc2cc([101O:1][101CH2:1]c3c(C)nc(NC4CC[100N:0]([100C:0](=O)N5CCCC(n6nc(-c7ccc(Oc8ccc(F)cc8F)cc7)c(C(N)=O)c6N)C5)CC4)n3C)ccc2CC1C(=O)NC1CCCc2ccccc21)C(C)(C)C

> <Shape>
0.346

> <Color>
0.089

> <Negative vol penalty>
0.000

$$$$

  -OEChem-04052322573D

 85 94  0     1  0  0  0  0  0999 V2000
  -23.5004   -7.9699   21.5190 C   0  0  0  0  0  0  0  0  0  0  0  0
  -24.2375   -8.9468   20.8574 C   0  0  0  0  0  0  0  0  0  0  0  0
  -22.7541  -27.5721   20.6518 C   0  0  0  0  0  0  0  0  0  0  0  0
  -23.9270  -26.5079   22.4763 C   0  0  0  0  0  0  0  0  0  0  0  0
  -22.2287   -8.2684   22.0064 C   0  0  0  0  0  0  0  0  0  0  0  0
  -23.7028  -10.2227   20.6820 C   0  0  0  0  0  0  0  0  0  0  0  0
  -27.0410  -13.8872   21.7177 C   0  0  0  0  0  0  0  0  0  0  0  0
  -21.5366  -27.3004   21.2760 C   0  0  0  0  0  0  0  0  0  0  0  0
  -22.7096  -26.2363   23.1006 C   0  0  0  0  0  0  0  0  0  0  0  0
  -28.0031  -14.1649   20.7477 C   0  0  0  0  0  0  0  0  0  0  0  0
  -18.1383  -27.2066   22.5636 C   0  0  0  0  0  0  0  0  0  0  0  0
  -17.1915  -28.2298   22.6113 C   0  0  0  0  0  0  0  0  0  0  0  0
  -26.7068  -16.0623   20.0138 C   0  0  0  0  0  0  0  0  0  0  0  0
  -31.1131  -19.8762   19.0940 C   0  0  0  0  0  0  0  0  0  0  0  0
  -18.7427  -29.6076   23.8493 C   0  0  0  0  0  0  0  0  0  0  0  0
  -23.9493  -27.1758   21.2519 C   0  0  0  0  0  0  0  0  0  0  0  0
  -26.0058  -28.6043   20.7642 C   0  0  0  0  0  0  0  0  0  0  0  0
  -21.6821   -9.5513   21.8454 C   0  0  0  0  0  0  0  0  0  0  0  0
  -25.8973  -14.6899   21.8361 C   0  0  0  0  0  0  0  0  0  0  0  0
  -22.4221  -10.5383   21.1666 C   0  0  0  0  0  0  0  0  0  0  0  0
  -25.7329  -15.7942   20.9878 C   0  0  0  0  0  0  0  0  0  0  0  0
  -30.5072  -20.8918   19.8252 C   0  0  0  0  0  0  0  0  0  0  0  0
  -29.4893  -20.5837   20.7210 C   0  0  0  0  0  0  0  0  0  0  0  0
  -21.5144  -26.6326   22.5004 C   0  0  0  0  0  0  0  0  0  0  0  0
  -27.8347  -15.2508   19.8936 C   0  0  0  0  0  0  0  0  0  0  0  0
  -19.3874  -27.3839   23.1588 C   0  0  0  0  0  0  0  0  0  0  0  0
  -17.4936  -29.4302   23.2541 C   0  0  0  0  0  0  0  0  0  0  0  0
  -19.6895  -28.5844   23.8016 C   0  0  0  0  0  0  0  0  0  0  0  0
  -25.2072  -27.4556   20.6074 C   0  0  0  0  0  0  0  0  0  0  0  0
  -30.6683  -18.5792   19.2935 C   0  0  0  0  0  0  0  0  0  0  0  0
  -29.1171  -19.2550   20.8475 C   0  0  0  0  0  0  0  0  0  0  0  0
  -27.0856  -28.3863   19.9439 C   0  0  0  0  0  0  0  0  0  0  0  0
  -31.2943  -17.4875   18.5311 C   0  0  0  0  0  0  0  0  0  0  0  0
  -31.1018  -16.1502   18.4894 C   0  0  0  0  0  0  0  0  0  0  0  0
  -25.7907  -29.7645   21.5786 C   0  0  0  0  0  0  0  0  0  0  0  0
  -22.7709  -14.1977   21.5408 C   0  0  0  0  0  0  0  0  0  0  0  0
  -22.5842  -17.2623   22.5875 C   0  0  0  0  0  0  0  0  0  0  0  0
  -24.0915  -20.3055   22.9249 C   0  0  0  0  0  0  0  0  0  0  0  0
  -29.6650  -23.4117   17.8340 C   0  0  0  0  0  0  0  0  0  0  0  0
  -20.2844   -9.8132   22.3478 C   0  0  0  0  0  0  0  0  0  0  0  0
  -24.8818  -14.3929   22.9053 C   0  0  0  0  0  0  0  0  0  0  0  0
  -24.5329  -16.6989   21.0872 C   0  0  0  0  0  0  0  0  0  0  0  0
  -32.4032  -17.4471   17.4922 C   0  0  0  0  0  0  0  0  0  0  0  0
  -32.1851  -15.9303   17.4509 C   0  0  0  0  0  0  0  0  0  0  0  0
  -19.9420  -11.2973   22.4502 C   0  0  0  0  0  0  0  0  0  0  0  0
  -28.3370  -26.1089   15.9266 C   0  0  0  0  0  0  0  0  0  0  0  0
  -20.3696  -12.0324   21.1839 C   0  0  0  0  0  0  0  0  0  0  0  0
  -27.4563  -26.8636   16.9241 C   0  0  0  0  0  0  0  0  0  0  0  0
  -28.2838  -24.6001   16.1557 C   0  0  0  0  0  0  0  0  0  0  0  0
  -27.7110  -24.9262   18.5305 C   0  0  0  0  0  0  0  0  0  0  0  0
  -21.8864  -11.9411   20.9785 C   0  0  1  0  0  0  0  0  0  0  0  0
  -23.5044  -14.9726   22.5987 C   0  0  1  0  0  0  0  0  0  0  0  0
  -27.7756  -26.4552   18.3748 C   0  0  2  0  0  0  0  0  0  0  0  0
  -28.8210  -21.6525   21.5188 C   0  0  0  0  0  0  0  0  0  0  0  0
  -28.0295  -18.8633   21.7939 C   0  0  0  0  0  0  0  0  0  0  0  0
  -24.3959  -22.6838   23.6653 C   0  0  0  0  0  0  0  0  0  0  0  0
  -20.8712  -17.8636   20.1352 C   0  0  0  0  0  0  0  0  0  0  0  0
  -21.2840  -20.3011   20.5308 C   0  0  0  0  0  0  0  0  0  0  0  0
  -20.0847  -18.9461   22.2480 C   0  0  0  0  0  0  0  0  0  0  0  0
  -25.3300  -19.4732   25.4807 C   0  0  0  0  0  0  0  0  0  0  0  0
  -30.9651  -22.2997   19.6319 C   0  0  0  0  0  0  0  0  0  0  0  0
  -30.1201  -15.1618   19.2417 C   0  0  0  0  0  0  0  0  0  1  0  0
  -22.5709  -18.6191   21.9258 C   0  0  1  0  0  0  0  0  0  0  0  0
  -24.2159  -21.2417   24.1134 C   0  0  2  0  0  0  0  0  0  0  0  0
  -21.2245  -18.9145   21.2065 C   0  0  0  0  0  0  0  0  0  0  0  0
  -25.7346  -26.5734   19.7544 N   0  0  0  0  0  0  0  0  0  0  0  0
  -29.6824  -18.2413   20.1545 N   0  0  0  0  0  0  0  0  0  0  0  0
  -26.8762  -27.1680   19.3678 N   0  0  0  0  0  0  0  0  0  0  0  0
  -23.5648  -16.3634   22.1445 N   0  0  0  0  0  0  0  0  0  0  0  0
  -28.5977  -24.2797   17.5503 N   0  0  0  0  0  0  0  0  0  0  0  0
  -28.1844  -29.1199   19.6664 N   0  0  0  0  0  0  0  0  0  0  0  0
  -24.6291  -29.8261   22.3604 N   0  0  0  0  0  0  0  0  0  0  0  0
  -22.5718  -12.8668   21.8547 N   0  0  0  0  0  0  0  0  0  0  0  0
  -22.9176  -19.5832   22.9644 N   0  0  0  0  0  0  0  0  0  0  0  0
  -29.8987  -23.1662   19.1816 N   0  0  0  0  0  0  0  0  0  0  0  0
  -25.3869  -20.8606   24.9527 N   0  3  0  0  0  0  0  0  0  0  0  0
  -26.5965  -30.7257   21.5996 O   0  0  0  0  0  0  0  0  0  0  0  0
  -22.4109  -14.7655   20.5163 O   0  0  0  0  0  0  0  0  0  0  0  0
  -21.7597  -17.0118   23.4701 O   0  0  0  0  0  0  0  0  0  0  0  0
  -24.9482  -20.2258   22.0472 O   0  0  0  0  0  0  0  0  0  0  0  0
  -30.3616  -22.8982   16.9520 O   0  0  0  0  0  0  0  0  0  0  0  0
  -20.3266  -26.3675   23.1099 O   0  0  0  0  0  0  0  0  0  0  0  0
  -28.7719  -15.5237   18.9454 O   0  0  0  0  0  0  0  0  0  1  0  0
  -16.5848  -30.4132   23.2985 F   0  0  0  0  0  0  0  0  0  0  0  0
  -20.8882  -28.7610   24.3742 F   0  0  0  0  0  0  0  0  0  0  0  0
  1  2  1  0  0  0  0
  1  5  2  0  0  0  0
  2  6  2  0  0  0  0
  3  8  2  0  0  0  0
  3 16  1  0  0  0  0
  4  9  1  0  0  0  0
  4 16  2  0  0  0  0
  5 18  1  0  0  0  0
  6 20  1  0  0  0  0
  7 10  2  0  0  0  0
  7 19  1  0  0  0  0
  8 24  1  0  0  0  0
  9 24  2  0  0  0  0
 10 25  1  0  0  0  0
 11 12  2  0  0  0  0
 11 26  1  0  0  0  0
 12 27  1  0  0  0  0
 13 21  1  0  0  0  0
 13 25  2  0  0  0  0
 14 22  2  0  0  0  0
 14 30  1  0  0  0  0
 15 27  2  0  0  0  0
 15 28  1  0  0  0  0
 16 29  1  0  0  0  0
 17 29  1  0  0  0  0
 17 32  2  0  0  0  0
 17 35  1  0  0  0  0
 18 20  2  0  0  0  0
 18 40  1  0  0  0  0
 19 21  2  0  0  0  0
 19 41  1  0  0  0  0
 20 51  1  0  0  0  0
 21 42  1  0  0  0  0
 22 23  1  0  0  0  0
 22 61  1  0  0  0  0
 23 31  2  0  0  0  0
 23 54  1  0  0  0  0
 24 82  1  0  0  0  0
 25 83  1  0  0  0  0
 26 28  2  0  0  0  0
 26 82  1  0  0  0  0
 27 84  1  0  0  0  0
 28 85  1  0  0  0  0
 29 66  2  0  0  0  0
 30 33  1  0  0  0  0
 30 67  2  0  0  0  0
 31 55  1  0  0  0  0
 31 67  1  0  0  0  0
 32 68  1  0  0  0  0
 32 71  1  0  0  0  0
 33 34  2  0  0  0  0
 33 43  1  0  0  0  0
 34 44  1  0  0  0  0
 34 62  1  0  0  0  0
 35 72  1  0  0  0  0
 35 77  2  0  0  0  0
 36 52  1  0  0  0  0
 36 73  1  0  0  0  0
 36 78  2  0  0  0  0
 37 63  1  0  0  0  0
 37 69  1  0  0  0  0
 37 79  2  0  0  0  0
 38 64  1  0  0  0  0
 38 74  1  0  0  0  0
 38 80  2  0  0  0  0
 39 70  1  0  0  0  0
 39 75  1  0  0  0  0
 39 81  2  0  0  0  0
 40 45  1  0  0  0  0
 41 52  1  0  0  0  0
 42 69  1  0  0  0  0
 43 44  1  0  0  0  0
 45 47  1  0  0  0  0
 46 48  1  0  0  0  0
 46 49  1  0  0  0  0
 47 51  1  0  0  0  0
 48 53  1  0  0  0  0
 49 70  1  0  0  0  0
 50 53  1  0  0  0  0
 50 70  1  0  0  0  0
 51 73  1  0  0  0  0
 52 69  1  0  0  0  0
 53 68  1  0  0  0  0
 56 64  1  0  0  0  0
 57 65  1  0  0  0  0
 58 65  1  0  0  0  0
 59 65  1  0  0  0  0
 60 76  1  0  0  0  0
 61 75  1  0  0  0  0
 62 83  1  0  0  0  0
 63 65  1  0  0  0  0
 63 74  1  0  0  0  0
 64 76  1  0  0  0  0
 66 68  1  0  0  0  0
M  CHG  1  76   1
M  ISO  4  39 100  62 101  75 100  83 101
M  END
> <Batch ID>
0179

> <Smiles>
CNC(C)C(=O)NC(C(=O)N1Cc2cc([101O:1][101CH2:1]C3=C(c4cc(C[100NH:0][100C:0](=O)N5CCCC(n6nc(-c7ccc(Oc8ccc(F)cc8F)cc7)c(C(N)=O)c6N)C5)c(C)c(C)n4)CC3)ccc2CC1C(=O)NC1CCCc2ccccc21)C(C)(C)C

> <Shape>
0.252

> <Color>
0.081

> <Negative vol penalty>
0.000

$$$$

  -OEChem-04052322573D

 83 92  0     1  0  0  0  0  0999 V2000
  -25.9054  -38.1370   22.1057 C   0  0  0  0  0  0  0  0  0  0  0  0
  -26.6802  -37.0611   21.6844 C   0  0  0  0  0  0  0  0  0  0  0  0
  -26.5596  -11.9245   20.7875 C   0  0  0  0  0  0  0  0  0  0  0  0
  -25.0658  -13.3714   19.5579 C   0  0  0  0  0  0  0  0  0  0  0  0
  -24.8811  -37.9372   23.0302 C   0  0  0  0  0  0  0  0  0  0  0  0
  -26.4318  -35.7848   22.1883 C   0  0  0  0  0  0  0  0  0  0  0  0
  -27.0014  -30.4709   19.1977 C   0  0  0  0  0  0  0  0  0  0  0  0
  -25.4679  -11.3515   21.4398 C   0  0  0  0  0  0  0  0  0  0  0  0
  -23.9740  -12.7984   20.2102 C   0  0  0  0  0  0  0  0  0  0  0  0
  -28.0141  -29.5130   19.1718 C   0  0  0  0  0  0  0  0  0  0  0  0
  -23.0820   -9.0552   20.7561 C   0  0  0  0  0  0  0  0  0  0  0  0
  -23.0516   -7.6655   20.8706 C   0  0  0  0  0  0  0  0  0  0  0  0
  -26.8399  -28.2353   20.8475 C   0  0  0  0  0  0  0  0  0  0  0  0
  -23.0172   -7.8646   23.2782 C   0  0  0  0  0  0  0  0  0  0  0  0
  -26.3586  -12.9344   19.8466 C   0  0  0  0  0  0  0  0  0  0  0  0
  -28.0719  -13.1054   17.9643 C   0  0  0  0  0  0  0  0  0  0  0  0
  -24.6137  -36.6562   23.5384 C   0  0  0  0  0  0  0  0  0  0  0  0
  -25.9039  -30.3234   20.0580 C   0  0  0  0  0  0  0  0  0  0  0  0
  -25.4038  -35.5679   23.1215 C   0  0  0  0  0  0  0  0  0  0  0  0
  -25.8134  -29.1915   20.8806 C   0  0  0  0  0  0  0  0  0  0  0  0
  -24.1751  -11.7885   21.1511 C   0  0  0  0  0  0  0  0  0  0  0  0
  -27.9349  -28.3964   19.9989 C   0  0  0  0  0  0  0  0  0  0  0  0
  -23.0801   -9.8498   21.9026 C   0  0  0  0  0  0  0  0  0  0  0  0
  -23.0192   -7.0701   22.1316 C   0  0  0  0  0  0  0  0  0  0  0  0
  -23.0477   -9.2544   23.1636 C   0  0  0  0  0  0  0  0  0  0  0  0
  -27.4860  -13.5271   19.1729 C   0  0  0  0  0  0  0  0  0  0  0  0
  -31.3959  -24.4030   19.8813 C   0  0  0  0  0  0  0  0  0  0  0  0
  -32.6709  -24.4872   19.3668 C   0  0  0  0  0  0  0  0  0  0  0  0
  -32.2472  -26.6227   18.6666 C   0  0  0  0  0  0  0  0  0  0  0  0
  -30.9720  -26.5381   19.1806 C   0  0  0  0  0  0  0  0  0  0  0  0
  -29.1008  -13.9907   17.7543 C   0  0  0  0  0  0  0  0  0  0  0  0
  -27.7177  -12.0113   17.1080 C   0  0  0  0  0  0  0  0  0  0  0  0
  -24.7216  -31.9915   22.4918 C   0  0  0  0  0  0  0  0  0  0  0  0
  -22.3209  -29.8177   22.3083 C   0  0  0  0  0  0  0  0  0  0  0  0
  -21.2966  -26.7064   21.3504 C   0  0  0  0  0  0  0  0  0  0  0  0
  -29.7790  -19.5993   19.6736 C   0  0  0  0  0  0  0  0  0  0  0  0
  -23.5266  -36.4975   24.5716 C   0  0  0  0  0  0  0  0  0  0  0  0
  -24.8067  -31.3523   20.0546 C   0  0  0  0  0  0  0  0  0  0  0  0
  -24.6460  -28.9761   21.8076 C   0  0  0  0  0  0  0  0  0  0  0  0
  -23.0850  -35.0502   24.7738 C   0  0  0  0  0  0  0  0  0  0  0  0
  -32.1673  -16.8042   20.0759 C   0  0  0  0  0  0  0  0  0  0  0  0
  -24.2985  -34.1349   24.9020 C   0  0  0  0  0  0  0  0  0  0  0  0
  -31.2557  -15.6052   19.8348 C   0  0  0  0  0  0  0  0  0  0  0  0
  -29.4501  -22.8668   20.6072 C   0  0  0  0  0  0  0  0  0  0  0  0
  -31.4312  -17.9602   20.7521 C   0  0  0  0  0  0  0  0  0  0  0  0
  -29.2834  -17.1790   19.7868 C   0  0  0  0  0  0  0  0  0  0  0  0
  -25.1490  -34.1643   23.6264 C   0  0  1  0  0  0  0  0  0  0  0  0
  -30.9253  -23.1604   20.5591 C   0  0  1  0  0  0  0  0  0  0  0  0
  -23.9893  -31.3583   21.3427 C   0  0  1  0  0  0  0  0  0  0  0  0
  -29.9983  -16.0290   19.0614 C   0  0  2  0  0  0  0  0  0  0  0  0
  -30.3407  -22.0473   19.7209 C   0  0  1  0  0  0  0  0  0  0  0  0
  -33.6283  -23.3491   19.4638 C   0  0  0  0  0  0  0  0  0  0  0  0
  -32.7310  -27.8582   17.9873 C   0  0  0  0  0  0  0  0  0  0  0  0
  -19.2884  -25.2017   21.3670 C   0  0  0  0  0  0  0  0  0  0  0  0
  -22.7617  -29.2663   25.2768 C   0  0  0  0  0  0  0  0  0  0  0  0
  -21.4405  -27.1565   25.0097 C   0  0  0  0  0  0  0  0  0  0  0  0
  -20.3621  -29.3642   24.5790 C   0  0  0  0  0  0  0  0  0  0  0  0
  -21.2375  -26.5598   18.3951 C   0  0  0  0  0  0  0  0  0  0  0  0
  -30.0103  -27.6854   19.0807 C   0  0  0  0  0  0  0  0  0  1  0  0
  -22.0522  -28.4669   22.9265 C   0  0  1  0  0  0  0  0  0  0  0  0
  -20.0731  -26.2410   20.5817 C   0  0  2  0  0  0  0  0  0  0  0  0
  -21.6772  -28.5682   24.4320 C   0  0  0  0  0  0  0  0  0  0  0  0
  -28.0923  -14.5969   19.6942 N   0  0  0  0  0  0  0  0  0  0  0  0
  -30.5235  -25.4269   19.7974 N   0  0  0  0  0  0  0  0  0  0  0  0
  -33.1195  -25.5986   18.7502 N   0  0  0  0  0  0  0  0  0  0  0  0
  -29.0700  -14.8549   18.8090 N   0  0  0  0  0  0  0  0  0  0  0  0
  -23.6017  -30.0132   21.7725 N   0  0  0  0  0  0  0  0  0  0  0  0
  -30.1896  -18.3055   20.0417 N   0  0  0  0  0  0  0  0  0  0  0  0
  -30.0199  -14.1063   16.7723 N   0  0  0  0  0  0  0  0  0  0  0  0
  -26.6339  -11.2010   17.4729 N   0  0  0  0  0  0  0  0  0  0  0  0
  -24.5373  -33.3573   22.5924 N   0  0  0  0  0  0  0  0  0  0  0  0
  -21.0316  -27.8345   22.0978 N   0  0  0  0  0  0  0  0  0  0  0  0
  -30.6382  -20.6339   20.0308 N   0  0  0  0  0  0  0  0  0  0  0  0
  -20.4774  -25.6395   19.2795 N   0  3  0  0  0  0  0  0  0  0  0  0
  -28.3541  -11.7497   16.0592 O   0  0  0  0  0  0  0  0  0  0  0  0
  -25.4022  -31.2924   23.2333 O   0  0  0  0  0  0  0  0  0  0  0  0
  -21.4250  -30.6656   22.2948 O   0  0  0  0  0  0  0  0  0  0  0  0
  -22.3781  -26.1251   21.2964 O   0  0  0  0  0  0  0  0  0  0  0  0
  -28.7209  -19.8242   19.0761 O   0  0  0  0  0  0  0  0  0  0  0  0
  -23.1095  -11.2294   21.7872 O   0  0  0  0  0  0  0  0  0  0  0  0
  -28.9223  -27.4603   19.9761 O   0  0  0  0  0  0  0  0  0  1  0  0
  -22.9884   -5.7355   22.2414 F   0  0  0  0  0  0  0  0  0  0  0  0
  -23.0445  -10.0125   24.2686 F   0  0  0  0  0  0  0  0  0  0  0  0
  1  2  1  0  0  0  0
  1  5  2  0  0  0  0
  2  6  2  0  0  0  0
  3  8  2  0  0  0  0
  3 15  1  0  0  0  0
  4  9  1  0  0  0  0
  4 15  2  0  0  0  0
  5 17  1  0  0  0  0
  6 19  1  0  0  0  0
  7 10  2  0  0  0  0
  7 18  1  0  0  0  0
  8 21  1  0  0  0  0
  9 21  2  0  0  0  0
 10 22  1  0  0  0  0
 11 12  2  0  0  0  0
 11 23  1  0  0  0  0
 12 24  1  0  0  0  0
 13 20  1  0  0  0  0
 13 22  2  0  0  0  0
 14 24  2  0  0  0  0
 14 25  1  0  0  0  0
 15 26  1  0  0  0  0
 16 26  1  0  0  0  0
 16 31  2  0  0  0  0
 16 32  1  0  0  0  0
 17 19  2  0  0  0  0
 17 37  1  0  0  0  0
 18 20  2  0  0  0  0
 18 38  1  0  0  0  0
 19 47  1  0  0  0  0
 20 39  1  0  0  0  0
 21 80  1  0  0  0  0
 22 81  1  0  0  0  0
 23 25  2  0  0  0  0
 23 80  1  0  0  0  0
 24 82  1  0  0  0  0
 25 83  1  0  0  0  0
 26 63  2  0  0  0  0
 27 28  1  0  0  0  0
 27 48  1  0  0  0  0
 27 64  2  0  0  0  0
 28 52  1  0  0  0  0
 28 65  2  0  0  0  0
 29 30  2  0  0  0  0
 29 53  1  0  0  0  0
 29 65  1  0  0  0  0
 30 59  1  0  0  0  0
 30 64  1  0  0  0  0
 31 66  1  0  0  0  0
 31 69  1  0  0  0  0
 32 70  1  0  0  0  0
 32 75  2  0  0  0  0
 33 49  1  0  0  0  0
 33 71  1  0  0  0  0
 33 76  2  0  0  0  0
 34 60  1  0  0  0  0
 34 67  1  0  0  0  0
 34 77  2  0  0  0  0
 35 61  1  0  0  0  0
 35 72  1  0  0  0  0
 35 78  2  0  0  0  0
 36 68  1  0  0  0  0
 36 73  1  0  0  0  0
 36 79  2  0  0  0  0
 37 40  1  0  0  0  0
 38 49  1  0  0  0  0
 39 67  1  0  0  0  0
 40 42  1  0  0  0  0
 41 43  1  0  0  0  0
 41 45  1  0  0  0  0
 42 47  1  0  0  0  0
 43 50  1  0  0  0  0
 44 48  1  0  0  0  0
 44 51  1  0  0  0  0
 45 68  1  0  0  0  0
 46 50  1  0  0  0  0
 46 68  1  0  0  0  0
 47 71  1  0  0  0  0
 48 51  1  0  0  0  0
 49 67  1  0  0  0  0
 50 66  1  0  0  0  0
 51 73  1  0  0  0  0
 54 61  1  0  0  0  0
 55 62  1  0  0  0  0
 56 62  1  0  0  0  0
 57 62  1  0  0  0  0
 58 74  1  0  0  0  0
 59 81  1  0  0  0  0
 60 62  1  0  0  0  0
 60 72  1  0  0  0  0
 61 74  1  0  0  0  0
 63 66  1  0  0  0  0
M  CHG  1  74   1
M  ISO  4  36 100  59 101  73 100  81 101
M  END
> <Batch ID>
0179

> <Smiles>
CNC(C)C(=O)NC(C(=O)N1Cc2cc([101O:1][101CH2:1]c3nc(C4CC4[100NH:0][100C:0](=O)N4CCCC(n5nc(-c6ccc(Oc7ccc(F)cc7F)cc6)c(C(N)=O)c5N)C4)c(C)nc3C)ccc2CC1C(=O)NC1CCCc2ccccc21)C(C)(C)C

> <Shape>
0.337

> <Color>
0.076

> <Negative vol penalty>
0.000

$$$$

  -OEChem-04052322573D

 81 90  0     1  0  0  0  0  0999 V2000
  -27.6501  -10.0309   22.2268 C   0  0  0  0  0  0  0  0  0  0  0  0
  -28.3336  -11.2060   21.9311 C   0  0  0  0  0  0  0  0  0  0  0  0
  -19.7464  -28.7813   22.3322 C   0  0  0  0  0  0  0  0  0  0  0  0
  -20.4130  -26.5431   22.9513 C   0  0  0  0  0  0  0  0  0  0  0  0
  -26.2976   -9.9138   21.9093 C   0  0  0  0  0  0  0  0  0  0  0  0
  -27.6651  -12.2643   21.3166 C   0  0  0  0  0  0  0  0  0  0  0  0
  -28.6261  -18.2452   22.2173 C   0  0  0  0  0  0  0  0  0  0  0  0
  -18.4213  -28.3582   22.2290 C   0  0  0  0  0  0  0  0  0  0  0  0
  -19.0878  -26.1199   22.8482 C   0  0  0  0  0  0  0  0  0  0  0  0
  -29.3544  -19.1961   21.5038 C   0  0  0  0  0  0  0  0  0  0  0  0
  -16.9254  -25.2785   20.3892 C   0  0  0  0  0  0  0  0  0  0  0  0
  -16.6782  -24.0788   19.7218 C   0  0  0  0  0  0  0  0  0  0  0  0
  -27.3392  -19.8767   20.3659 C   0  0  0  0  0  0  0  0  0  0  0  0
  -15.6873  -23.1671   21.7278 C   0  0  0  0  0  0  0  0  0  0  0  0
  -32.4840  -24.0429   17.7988 C   0  0  0  0  0  0  0  0  0  0  0  0
  -32.4104  -21.8373   18.3982 C   0  0  0  0  0  0  0  0  0  0  0  0
  -20.7423  -27.8737   22.6932 C   0  0  0  0  0  0  0  0  0  0  0  0
  -22.7554  -28.8181   23.9434 C   0  0  0  0  0  0  0  0  0  0  0  0
  -25.6098  -10.9747   21.2994 C   0  0  0  0  0  0  0  0  0  0  0  0
  -27.2486  -18.0952   22.0023 C   0  0  0  0  0  0  0  0  0  0  0  0
  -26.3024  -12.1607   20.9894 C   0  0  0  0  0  0  0  0  0  0  0  0
  -26.5952  -18.9250   21.0799 C   0  0  0  0  0  0  0  0  0  0  0  0
  -18.0920  -27.0275   22.4871 C   0  0  0  0  0  0  0  0  0  0  0  0
  -28.7115  -20.0101   20.5758 C   0  0  0  0  0  0  0  0  0  0  0  0
  -16.5536  -25.4224   21.7259 C   0  0  0  0  0  0  0  0  0  0  0  0
  -16.0592  -23.0232   20.3911 C   0  0  0  0  0  0  0  0  0  0  0  0
  -15.9346  -24.3668   22.3952 C   0  0  0  0  0  0  0  0  0  0  0  0
  -22.1114  -28.3101   22.7993 C   0  0  0  0  0  0  0  0  0  0  0  0
  -31.4852  -24.3226   18.7053 C   0  0  0  0  0  0  0  0  0  0  0  0
  -31.4122  -22.1170   19.3053 C   0  0  0  0  0  0  0  0  0  0  0  0
  -24.0369  -29.0835   23.5266 C   0  0  0  0  0  0  0  0  0  0  0  0
  -22.2413  -29.0310   25.2648 C   0  0  0  0  0  0  0  0  0  0  0  0
  -25.3835  -15.7396   20.9649 C   0  0  0  0  0  0  0  0  0  0  0  0
  -23.0047  -17.7965   21.7604 C   0  0  0  0  0  0  0  0  0  0  0  0
  -22.0198  -21.0202   22.2934 C   0  0  0  0  0  0  0  0  0  0  0  0
  -28.5689  -27.4039   20.8989 C   0  0  0  0  0  0  0  0  0  0  0  0
  -24.1595  -10.7839   20.9321 C   0  0  0  0  0  0  0  0  0  0  0  0
  -26.4724  -17.0830   22.7994 C   0  0  0  0  0  0  0  0  0  0  0  0
  -25.1144  -18.8177   20.8267 C   0  0  0  0  0  0  0  0  0  0  0  0
  -23.4327  -12.0901   20.6221 C   0  0  0  0  0  0  0  0  0  0  0  0
  -26.0601  -29.2222   18.9203 C   0  0  0  0  0  0  0  0  0  0  0  0
  -24.2719  -12.9601   19.6917 C   0  0  0  0  0  0  0  0  0  0  0  0
  -24.8399  -29.1179   19.8284 C   0  0  0  0  0  0  0  0  0  0  0  0
  -26.9664  -27.9947   19.0168 C   0  0  0  0  0  0  0  0  0  0  0  0
  -29.3489  -25.9621   18.8835 C   0  0  0  0  0  0  0  0  0  0  0  0
  -30.8086  -26.3223   20.3848 C   0  0  0  0  0  0  0  0  0  0  0  0
  -26.1399  -27.5628   21.3219 C   0  0  0  0  0  0  0  0  0  0  0  0
  -25.6059  -13.3400   20.3457 C   0  0  1  0  0  0  0  0  0  0  0  0
  -30.8822  -25.7694   18.9464 C   0  0  0  0  0  0  0  0  0  0  0  0
  -25.1676  -16.6666   22.1276 C   0  0  1  0  0  0  0  0  0  0  0  0
  -25.2714  -28.8271   21.2731 C   0  0  2  0  0  0  0  0  0  0  0  0
  -20.0054  -22.3908   22.8945 C   0  0  0  0  0  0  0  0  0  0  0  0
  -21.9233  -17.4442   18.9291 C   0  0  0  0  0  0  0  0  0  0  0  0
  -20.5336  -19.4971   19.2793 C   0  0  0  0  0  0  0  0  0  0  0  0
  -20.1740  -17.4896   20.7158 C   0  0  0  0  0  0  0  0  0  0  0  0
  -23.3071  -22.0453   24.7533 C   0  0  0  0  0  0  0  0  0  0  0  0
  -30.8190  -21.0247   20.1457 C   0  0  0  0  0  0  0  0  0  1  0  0
  -22.2530  -18.8909   21.0420 C   0  0  1  0  0  0  0  0  0  0  0  0
  -21.2297  -21.6587   23.4215 C   0  0  2  0  0  0  0  0  0  0  0  0
  -21.2492  -18.3314   19.9947 C   0  0  0  0  0  0  0  0  0  0  0  0
  -32.9645  -22.7952   17.6289 N   0  0  0  0  0  0  0  0  0  0  0  0
  -22.9172  -28.2552   21.7356 N   0  0  0  0  0  0  0  0  0  0  0  0
  -30.9314  -23.3647   19.4749 N   0  0  0  0  0  0  0  0  0  0  0  0
  -24.0808  -28.7324   22.2094 N   0  0  0  0  0  0  0  0  0  0  0  0
  -24.4003  -17.8086   21.6263 N   0  0  0  0  0  0  0  0  0  0  0  0
  -27.2824  -27.6464   20.4059 N   0  0  0  0  0  0  0  0  0  0  0  0
  -29.4896  -26.8430   20.0366 N   0  0  0  0  0  0  0  0  0  0  0  0
  -25.1193  -29.5808   24.1619 N   0  0  0  0  0  0  0  0  0  0  0  0
  -20.9028  -28.7042   25.5216 N   0  0  0  0  0  0  0  0  0  0  0  0
  -25.4119  -14.4017   21.3098 N   0  0  0  0  0  0  0  0  0  0  0  0
  -21.6384  -19.7126   22.0791 N   0  0  0  0  0  0  0  0  0  0  0  0
  -22.0790  -22.6349   24.1609 N   0  3  0  0  0  0  0  0  0  0  0  0
  -22.9433  -29.5125   26.1861 O   0  0  0  0  0  0  0  0  0  0  0  0
  -25.5132  -16.2036   19.8382 O   0  0  0  0  0  0  0  0  0  0  0  0
  -22.3774  -16.9658   22.4222 O   0  0  0  0  0  0  0  0  0  0  0  0
  -22.8858  -21.6225   21.6627 O   0  0  0  0  0  0  0  0  0  0  0  0
  -28.8792  -27.6457   22.0723 O   0  0  0  0  0  0  0  0  0  0  0  0
  -16.7990  -26.6143   22.3868 O   0  0  0  0  0  0  0  0  0  0  0  0
  -29.4201  -20.9386   19.8775 O   0  0  0  0  0  0  0  0  0  1  0  0
  -15.8204  -21.8717   19.7497 F   0  0  0  0  0  0  0  0  0  0  0  0
  -15.5740  -24.4996   23.6790 F   0  0  0  0  0  0  0  0  0  0  0  0
  1  2  1  0  0  0  0
  1  5  2  0  0  0  0
  2  6  2  0  0  0  0
  3  8  2  0  0  0  0
  3 17  1  0  0  0  0
  4  9  1  0  0  0  0
  4 17  2  0  0  0  0
  5 19  1  0  0  0  0
  6 21  1  0  0  0  0
  7 10  2  0  0  0  0
  7 20  1  0  0  0  0
  8 23  1  0  0  0  0
  9 23  2  0  0  0  0
 10 24  1  0  0  0  0
 11 12  2  0  0  0  0
 11 25  1  0  0  0  0
 12 26  1  0  0  0  0
 13 22  1  0  0  0  0
 13 24  2  0  0  0  0
 14 26  2  0  0  0  0
 14 27  1  0  0  0  0
 15 29  2  0  0  0  0
 15 61  1  0  0  0  0
 16 30  1  0  0  0  0
 16 61  2  0  0  0  0
 17 28  1  0  0  0  0
 18 28  1  0  0  0  0
 18 31  2  0  0  0  0
 18 32  1  0  0  0  0
 19 21  2  0  0  0  0
 19 37  1  0  0  0  0
 20 22  2  0  0  0  0
 20 38  1  0  0  0  0
 21 48  1  0  0  0  0
 22 39  1  0  0  0  0
 23 78  1  0  0  0  0
 24 79  1  0  0  0  0
 25 27  2  0  0  0  0
 25 78  1  0  0  0  0
 26 80  1  0  0  0  0
 27 81  1  0  0  0  0
 28 62  2  0  0  0  0
 29 49  1  0  0  0  0
 29 63  1  0  0  0  0
 30 57  1  0  0  0  0
 30 63  2  0  0  0  0
 31 64  1  0  0  0  0
 31 68  1  0  0  0  0
 32 69  1  0  0  0  0
 32 73  2  0  0  0  0
 33 50  1  0  0  0  0
 33 70  1  0  0  0  0
 33 74  2  0  0  0  0
 34 58  1  0  0  0  0
 34 65  1  0  0  0  0
 34 75  2  0  0  0  0
 35 59  1  0  0  0  0
 35 71  1  0  0  0  0
 35 76  2  0  0  0  0
 36 66  1  0  0  0  0
 36 67  1  0  0  0  0
 36 77  2  0  0  0  0
 37 40  1  0  0  0  0
 38 50  1  0  0  0  0
 39 65  1  0  0  0  0
 40 42  1  0  0  0  0
 41 43  1  0  0  0  0
 41 44  1  0  0  0  0
 42 48  1  0  0  0  0
 43 51  1  0  0  0  0
 44 66  1  0  0  0  0
 45 49  1  0  0  0  0
 45 67  1  0  0  0  0
 46 49  1  0  0  0  0
 46 67  1  0  0  0  0
 47 51  1  0  0  0  0
 47 66  1  0  0  0  0
 48 70  1  0  0  0  0
 50 65  1  0  0  0  0
 51 64  1  0  0  0  0
 52 59  1  0  0  0  0
 53 60  1  0  0  0  0
 54 60  1  0  0  0  0
 55 60  1  0  0  0  0
 56 72  1  0  0  0  0
 57 79  1  0  0  0  0
 58 60  1  0  0  0  0
 58 71  1  0  0  0  0
 59 72  1  0  0  0  0
 62 64  1  0  0  0  0
M  CHG  1  72   1
M  ISO  4  36 100  57 101  67 100  79 101
M  END
> <Batch ID>
0179

> <Smiles>
CNC(C)C(=O)NC(C(=O)N1Cc2cc([101O:1][101CH2:1]c3cncc(C4C[100N:0]([100C:0](=O)N5CCCC(n6nc(-c7ccc(Oc8ccc(F)cc8F)cc7)c(C(N)=O)c6N)C5)C4)n3)ccc2CC1C(=O)NC1CCCc2ccccc21)C(C)(C)C

> <Shape>
0.215

> <Color>
0.075

> <Negative vol penalty>
0.000

$$$$

  -OEChem-04052322573D

 85 94  0     1  0  0  0  0  0999 V2000
  -28.1346  -33.7654   26.1457 C   0  0  0  0  0  0  0  0  0  0  0  0
  -28.1970  -32.4979   25.5757 C   0  0  0  0  0  0  0  0  0  0  0  0
  -25.3189  -10.0423   23.1212 C   0  0  0  0  0  0  0  0  0  0  0  0
  -24.1664   -9.2068   21.1691 C   0  0  0  0  0  0  0  0  0  0  0  0
  -26.8987  -34.3805   26.3410 C   0  0  0  0  0  0  0  0  0  0  0  0
  -27.0235  -31.8442   25.2018 C   0  0  0  0  0  0  0  0  0  0  0  0
  -27.3707  -29.6911   20.6314 C   0  0  0  0  0  0  0  0  0  0  0  0
  -24.3915   -9.4018   23.9429 C   0  0  0  0  0  0  0  0  0  0  0  0
  -23.2390   -8.5662   21.9908 C   0  0  0  0  0  0  0  0  0  0  0  0
  -28.0617  -28.4832   20.5474 C   0  0  0  0  0  0  0  0  0  0  0  0
  -23.0851   -5.7429   23.8416 C   0  0  0  0  0  0  0  0  0  0  0  0
  -22.7413   -4.4284   23.5264 C   0  0  0  0  0  0  0  0  0  0  0  0
  -25.9647  -27.2909   20.5415 C   0  0  0  0  0  0  0  0  0  0  0  0
  -20.4343   -5.0952   23.2615 C   0  0  0  0  0  0  0  0  0  0  0  0
  -31.0030  -23.2050   18.9360 C   0  0  0  0  0  0  0  0  0  0  0  0
  -25.2063   -9.9448   21.7343 C   0  0  0  0  0  0  0  0  0  0  0  0
  -27.3739  -10.0793   20.3959 C   0  0  0  0  0  0  0  0  0  0  0  0
  -25.7100  -33.7380   25.9604 C   0  0  0  0  0  0  0  0  0  0  0  0
  -25.9694  -29.7075   20.6821 C   0  0  0  0  0  0  0  0  0  0  0  0
  -25.7704  -32.4507   25.3935 C   0  0  0  0  0  0  0  0  0  0  0  0
  -25.2582  -28.5005   20.6235 C   0  0  0  0  0  0  0  0  0  0  0  0
  -23.3515   -8.6637   23.3777 C   0  0  0  0  0  0  0  0  0  0  0  0
  -27.3589  -27.2826   20.5054 C   0  0  0  0  0  0  0  0  0  0  0  0
  -22.1035   -6.7336   23.8669 C   0  0  0  0  0  0  0  0  0  0  0  0
  -21.4159   -4.1045   23.2363 C   0  0  0  0  0  0  0  0  0  0  0  0
  -20.7781   -6.4098   23.5768 C   0  0  0  0  0  0  0  0  0  0  0  0
  -26.1637  -10.6067   20.8849 C   0  0  0  0  0  0  0  0  0  0  0  0
  -31.0309  -22.3354   20.0039 C   0  0  0  0  0  0  0  0  0  0  0  0
  -30.0461  -23.9231   21.3226 C   0  0  0  0  0  0  0  0  0  0  0  0
  -30.0189  -24.7930   20.2549 C   0  0  0  0  0  0  0  0  0  0  0  0
  -27.9115  -11.0945   19.6430 C   0  0  0  0  0  0  0  0  0  0  0  0
  -27.9597   -8.7873   20.6036 C   0  0  0  0  0  0  0  0  0  0  0  0
  -23.8128  -30.6926   22.7993 C   0  0  0  0  0  0  0  0  0  0  0  0
  -21.7221  -29.9457   20.4342 C   0  0  0  0  0  0  0  0  0  0  0  0
  -21.0575  -28.1320   17.6207 C   0  0  0  0  0  0  0  0  0  0  0  0
  -29.2536  -16.2236   18.7992 C   0  0  0  0  0  0  0  0  0  0  0  0
  -24.3946  -34.4230   26.2348 C   0  0  0  0  0  0  0  0  0  0  0  0
  -25.2380  -31.0203   20.7456 C   0  0  0  0  0  0  0  0  0  0  0  0
  -23.7528  -28.4648   20.6546 C   0  0  0  0  0  0  0  0  0  0  0  0
  -23.2215  -33.8191   25.4671 C   0  0  0  0  0  0  0  0  0  0  0  0
  -25.9065  -15.4525   18.0603 C   0  0  0  0  0  0  0  0  0  0  0  0
  -23.2424  -32.2973   25.5708 C   0  0  0  0  0  0  0  0  0  0  0  0
  -25.7669  -14.0691   18.6950 C   0  0  0  0  0  0  0  0  0  0  0  0
  -26.7287  -16.4031   18.9323 C   0  0  0  0  0  0  0  0  0  0  0  0
  -28.6238  -18.6556   19.1358 C   0  0  0  0  0  0  0  0  0  0  0  0
  -30.4977  -18.0333   17.6562 C   0  0  0  0  0  0  0  0  0  0  0  0
  -27.9153  -14.4863   19.9506 C   0  0  0  0  0  0  0  0  0  0  0  0
  -29.5559  -19.5363   19.9617 C   0  0  0  0  0  0  0  0  0  0  0  0
  -31.4604  -18.8814   18.4713 C   0  0  0  0  0  0  0  0  0  0  0  0
  -24.5210  -31.7197   24.9520 C   0  0  1  0  0  0  0  0  0  0  0  0
  -23.8265  -30.8912   21.3099 C   0  0  1  0  0  0  0  0  0  0  0  0
  -27.1435  -13.4919   19.0696 C   0  0  1  0  0  0  0  0  0  0  0  0
  -29.5134  -24.3155   22.6584 C   0  0  0  0  0  0  0  0  0  0  0  0
  -19.2500  -27.7059   15.9329 C   0  0  0  0  0  0  0  0  0  0  0  0
  -20.2400  -28.2137   22.4623 C   0  0  0  0  0  0  0  0  0  0  0  0
  -19.0650  -27.1030   20.5507 C   0  0  0  0  0  0  0  0  0  0  0  0
  -18.7602  -29.5465   20.9497 C   0  0  0  0  0  0  0  0  0  0  0  0
  -22.7413  -29.1199   15.3963 C   0  0  0  0  0  0  0  0  0  0  0  0
  -31.6035  -20.9573   19.8487 C   0  0  0  0  0  0  0  0  0  0  0  0
  -29.4557  -26.1669   20.3857 C   0  0  0  0  0  0  0  0  0  1  0  0
  -20.9609  -28.7055   20.0324 C   0  0  1  0  0  0  0  0  0  0  0  0
  -20.4783  -28.5342   16.2764 C   0  0  2  0  0  0  0  0  0  0  0  0
  -19.7849  -28.3924   21.0001 C   0  0  0  0  0  0  0  0  0  0  0  0
  -30.4966  -24.4495   19.0423 N   0  0  0  0  0  0  0  0  0  0  0  0
  -25.9451  -11.8597   20.4771 N   0  0  0  0  0  0  0  0  0  0  0  0
  -30.5528  -22.6788   21.2164 N   0  0  0  0  0  0  0  0  0  0  0  0
  -27.0253  -12.1281   19.7239 N   0  0  0  0  0  0  0  0  0  0  0  0
  -23.0833  -29.7742   20.7234 N   0  0  0  0  0  0  0  0  0  0  0  0
  -28.0149  -15.7934   19.2978 N   0  0  0  0  0  0  0  0  0  0  0  0
  -29.3703  -17.5819   18.4689 N   0  0  0  0  0  0  0  0  0  0  0  0
  -29.0511  -11.1950   18.9263 N   0  0  0  0  0  0  0  0  0  0  0  0
  -27.2741   -7.8638   21.4045 N   0  0  0  0  0  0  0  0  0  0  0  0
  -24.4237  -31.7094   23.5081 N   0  0  0  0  0  0  0  0  0  0  0  0
  -20.5560  -28.9066   18.6453 N   0  0  0  0  0  0  0  0  0  0  0  0
  -30.6953  -20.0232   19.0990 N   0  3  0  0  0  0  0  0  0  0  0  0
  -21.4899  -28.3440   15.1987 N   0  3  0  0  0  0  0  0  0  0  0  0
  -29.0664   -8.4671   20.1074 O   0  0  0  0  0  0  0  0  0  0  0  0
  -23.2856  -29.6917   23.2705 O   0  0  0  0  0  0  0  0  0  0  0  0
  -21.1324  -31.0281   20.4826 O   0  0  0  0  0  0  0  0  0  0  0  0
  -21.8706  -27.2194   17.7495 O   0  0  0  0  0  0  0  0  0  0  0  0
  -30.2006  -15.4396   18.6580 O   0  0  0  0  0  0  0  0  0  0  0  0
  -22.4465   -8.0384   24.1792 O   0  0  0  0  0  0  0  0  0  0  0  0
  -28.0355  -26.0941   20.4236 O   0  0  0  0  0  0  0  0  0  1  0  0
  -21.0862   -2.8424   22.9321 F   0  0  0  0  0  0  0  0  0  0  0  0
  -19.8309   -7.3575   23.5983 F   0  0  0  0  0  0  0  0  0  0  0  0
  1  2  1  0  0  0  0
  1  5  2  0  0  0  0
  2  6  2  0  0  0  0
  3  8  2  0  0  0  0
  3 16  1  0  0  0  0
  4  9  1  0  0  0  0
  4 16  2  0  0  0  0
  5 18  1  0  0  0  0
  6 20  1  0  0  0  0
  7 10  2  0  0  0  0
  7 19  1  0  0  0  0
  8 22  1  0  0  0  0
  9 22  2  0  0  0  0
 10 23  1  0  0  0  0
 11 12  2  0  0  0  0
 11 24  1  0  0  0  0
 12 25  1  0  0  0  0
 13 21  1  0  0  0  0
 13 23  2  0  0  0  0
 14 25  2  0  0  0  0
 14 26  1  0  0  0  0
 15 28  1  0  0  0  0
 15 64  2  0  0  0  0
 16 27  1  0  0  0  0
 17 27  1  0  0  0  0
 17 31  2  0  0  0  0
 17 32  1  0  0  0  0
 18 20  2  0  0  0  0
 18 37  1  0  0  0  0
 19 21  2  0  0  0  0
 19 38  1  0  0  0  0
 20 50  1  0  0  0  0
 21 39  1  0  0  0  0
 22 82  1  0  0  0  0
 23 83  1  0  0  0  0
 24 26  2  0  0  0  0
 24 82  1  0  0  0  0
 25 84  1  0  0  0  0
 26 85  1  0  0  0  0
 27 65  2  0  0  0  0
 28 59  1  0  0  0  0
 28 66  2  0  0  0  0
 29 30  2  0  0  0  0
 29 53  1  0  0  0  0
 29 66  1  0  0  0  0
 30 60  1  0  0  0  0
 30 64  1  0  0  0  0
 31 67  1  0  0  0  0
 31 71  1  0  0  0  0
 32 72  1  0  0  0  0
 32 77  2  0  0  0  0
 33 51  1  0  0  0  0
 33 73  1  0  0  0  0
 33 78  2  0  0  0  0
 34 61  1  0  0  0  0
 34 68  1  0  0  0  0
 34 79  2  0  0  0  0
 35 62  1  0  0  0  0
 35 74  1  0  0  0  0
 35 80  2  0  0  0  0
 36 69  1  0  0  0  0
 36 70  1  0  0  0  0
 36 81  2  0  0  0  0
 37 40  1  0  0  0  0
 38 51  1  0  0  0  0
 39 68  1  0  0  0  0
 40 42  1  0  0  0  0
 41 43  1  0  0  0  0
 41 44  1  0  0  0  0
 42 50  1  0  0  0  0
 43 52  1  0  0  0  0
 44 69  1  0  0  0  0
 45 48  1  0  0  0  0
 45 70  1  0  0  0  0
 46 49  1  0  0  0  0
 46 70  1  0  0  0  0
 47 52  1  0  0  0  0
 47 69  1  0  0  0  0
 48 75  1  0  0  0  0
 49 75  1  0  0  0  0
 50 73  1  0  0  0  0
 51 68  1  0  0  0  0
 52 67  1  0  0  0  0
 54 62  1  0  0  0  0
 55 63  1  0  0  0  0
 56 63  1  0  0  0  0
 57 63  1  0  0  0  0
 58 76  1  0  0  0  0
 59 75  1  0  0  0  0
 60 83  1  0  0  0  0
 61 63  1  0  0  0  0
 61 74  1  0  0  0  0
 62 76  1  0  0  0  0
 65 67  1  0  0  0  0
M  CHG  2  75   1  76   1
M  ISO  4  36 100  60 101  70 100  83 101
M  END
> <Batch ID>
0179

> <Smiles>
CNC(C)C(=O)NC(C(=O)N1Cc2cc([101O:1][101CH2:1]c3ncc(CN4CC[100N:0]([100C:0](=O)N5CCCC(n6nc(-c7ccc(Oc8ccc(F)cc8F)cc7)c(C(N)=O)c6N)C5)CC4)nc3C)ccc2CC1C(=O)NC1CCCc2ccccc21)C(C)(C)C

> <Shape>
0.300

> <Color>
0.086

> <Negative vol penalty>
0.000

$$$$

  -OEChem-04052322573D

 84 94  0     1  0  0  0  0  0999 V2000
  -27.0213  -24.2807   13.8511 C   0  0  0  0  0  0  0  0  0  0  0  0
  -26.2634  -24.2553   15.0174 C   0  0  0  0  0  0  0  0  0  0  0  0
  -27.4392  -17.6963   22.2518 C   0  0  0  0  0  0  0  0  0  0  0  0
  -26.5715  -17.1299   20.0693 C   0  0  0  0  0  0  0  0  0  0  0  0
  -28.3406  -24.7301   13.8881 C   0  0  0  0  0  0  0  0  0  0  0  0
  -26.8248  -24.6783   16.2217 C   0  0  0  0  0  0  0  0  0  0  0  0
  -23.7208  -27.6849   18.8620 C   0  0  0  0  0  0  0  0  0  0  0  0
  -27.7652  -16.3577   22.4696 C   0  0  0  0  0  0  0  0  0  0  0  0
  -26.8976  -15.7913   20.2870 C   0  0  0  0  0  0  0  0  0  0  0  0
  -22.6874  -27.0705   19.5679 C   0  0  0  0  0  0  0  0  0  0  0  0
  -29.6650  -13.8546   20.1828 C   0  0  0  0  0  0  0  0  0  0  0  0
  -30.2928  -13.1650   19.1455 C   0  0  0  0  0  0  0  0  0  0  0  0
  -23.9796  -27.2427   21.5976 C   0  0  0  0  0  0  0  0  0  0  0  0
  -28.4602  -11.5918   19.0824 C   0  0  0  0  0  0  0  0  0  0  0  0
  -26.8423  -18.0824   21.0517 C   0  0  0  0  0  0  0  0  0  0  0  0
  -27.3195  -20.4551   20.2453 C   0  0  0  0  0  0  0  0  0  0  0  0
  -28.9154  -25.1679   15.0916 C   0  0  0  0  0  0  0  0  0  0  0  0
  -24.8979  -28.0736   19.5177 C   0  0  0  0  0  0  0  0  0  0  0  0
  -28.1534  -25.1328   16.2751 C   0  0  0  0  0  0  0  0  0  0  0  0
  -25.0254  -27.8641   20.8983 C   0  0  0  0  0  0  0  0  0  0  0  0
  -20.8121  -25.3524   23.5983 C   0  0  0  0  0  0  0  0  0  0  0  0
  -27.4944  -15.4052   21.4872 C   0  0  0  0  0  0  0  0  0  0  0  0
  -22.8178  -26.8467   20.9354 C   0  0  0  0  0  0  0  0  0  0  0  0
  -28.4349  -13.4127   20.6700 C   0  0  0  0  0  0  0  0  0  0  0  0
  -29.6904  -12.0336   18.5953 C   0  0  0  0  0  0  0  0  0  0  0  0
  -27.8325  -12.2814   20.1197 C   0  0  0  0  0  0  0  0  0  0  0  0
  -26.5048  -19.4649   20.8263 C   0  0  0  0  0  0  0  0  0  0  0  0
  -20.8331  -24.0154   23.9391 C   0  0  0  0  0  0  0  0  0  0  0  0
  -19.6169  -26.0060   23.8186 C   0  0  0  0  0  0  0  0  0  0  0  0
  -26.5443  -21.5888   20.2584 C   0  0  0  0  0  0  0  0  0  0  0  0
  -18.6674  -24.1041   24.6237 C   0  0  0  0  0  0  0  0  0  0  0  0
  -28.6574  -20.3586   19.7390 C   0  0  0  0  0  0  0  0  0  0  0  0
  -22.0394  -23.1986   23.7577 C   0  0  0  0  0  0  0  0  0  0  0  0
  -27.9670  -27.2830   19.2741 C   0  0  0  0  0  0  0  0  0  0  0  0
  -28.3521  -29.6744   21.4318 C   0  0  0  0  0  0  0  0  0  0  0  0
  -26.9876  -31.5995   23.8973 C   0  0  0  0  0  0  0  0  0  0  0  0
  -30.3602  -25.6006   15.0909 C   0  0  0  0  0  0  0  0  0  0  0  0
  -25.9925  -28.7593   18.7470 C   0  0  0  0  0  0  0  0  0  0  0  0
  -26.2605  -28.2810   21.6528 C   0  0  0  0  0  0  0  0  0  0  0  0
  -30.7619  -26.3845   16.3377 C   0  0  0  0  0  0  0  0  0  0  0  0
  -21.9820  -23.0151   20.1342 C   0  0  0  0  0  0  0  0  0  0  0  0
  -30.2505  -25.6874   17.5944 C   0  0  0  0  0  0  0  0  0  0  0  0
  -16.9553  -22.1727   24.5121 C   0  0  0  0  0  0  0  0  0  0  0  0
  -16.1750  -23.4476   24.4359 C   0  0  0  0  0  0  0  0  0  0  0  0
  -23.2132  -22.1523   19.8542 C   0  0  0  0  0  0  0  0  0  0  0  0
  -18.1192  -28.0179   23.1906 C   0  0  0  0  0  0  0  0  0  0  0  0
  -21.2721  -22.5730   21.4102 C   0  0  0  0  0  0  0  0  0  0  0  0
  -23.3831  -21.6830   22.3402 C   0  0  0  0  0  0  0  0  0  0  0  0
  -28.7191  -25.6069   17.5962 C   0  0  1  0  0  0  0  0  0  0  0  0
  -19.4877  -27.4565   23.4834 C   0  0  2  0  0  0  0  0  0  0  0  0
  -17.4757  -23.4104   25.1938 C   0  0  0  0  0  0  0  0  0  0  0  0
  -27.3570  -28.6484   19.4201 C   0  0  1  0  0  0  0  0  0  0  0  0
  -19.1080  -27.8467   22.0761 C   0  0  2  0  0  0  0  0  0  0  0  0
  -24.1502  -22.1058   21.0753 C   0  0  1  0  0  0  0  0  0  0  0  0
  -19.7356  -29.0405   21.4426 C   0  0  0  0  0  0  0  0  0  0  0  0
  -27.5589  -33.4443   25.4998 C   0  0  0  0  0  0  0  0  0  0  0  0
  -29.8625  -27.6831   23.1819 C   0  0  0  0  0  0  0  0  0  0  0  0
  -29.5716  -29.2592   25.1053 C   0  0  0  0  0  0  0  0  0  0  0  0
  -30.8693  -29.9708   23.0973 C   0  0  0  0  0  0  0  0  0  0  0  0
  -24.9591  -33.4059   22.7221 C   0  0  0  0  0  0  0  0  0  0  0  0
  -22.0117  -26.0483   23.0255 C   0  0  0  0  0  0  0  0  0  1  0  0
  -28.3545  -29.7646   22.9387 C   0  0  1  0  0  0  0  0  0  0  0  0
  -27.0011  -33.1000   24.1275 C   0  0  2  0  0  0  0  0  0  0  0  0
  -29.6419  -29.1597   23.5665 C   0  0  0  0  0  0  0  0  0  0  0  0
  -25.3041  -19.9290   21.1827 N   0  0  0  0  0  0  0  0  0  0  0  0
  -19.7751  -23.3568   24.4561 N   0  0  0  0  0  0  0  0  0  0  0  0
  -18.5204  -25.4105   24.3318 N   0  0  0  0  0  0  0  0  0  0  0  0
  -25.3587  -21.2232   20.8247 N   0  0  0  0  0  0  0  0  0  0  0  0
  -22.2099  -22.5363   22.5395 N   0  0  0  0  0  0  0  0  0  0  0  0
  -27.3055  -28.9420   20.8538 N   0  0  0  0  0  0  0  0  0  0  0  0
  -26.7680  -22.8529   19.8406 N   0  0  0  0  0  0  0  0  0  0  0  0
  -29.3082  -19.1190   19.8028 N   0  0  0  0  0  0  0  0  0  0  0  0
  -28.1463  -26.8842   17.9633 N   0  0  0  0  0  0  0  0  0  0  0  0
  -28.1344  -31.1696   23.2639 N   0  0  0  0  0  0  0  0  0  0  0  0
  -25.6201  -33.6515   24.0297 N   0  3  0  0  0  0  0  0  0  0  0  0
  -29.2640  -21.3465   19.2596 O   0  0  0  0  0  0  0  0  0  0  0  0
  -22.8228  -23.1701   24.7057 O   0  0  0  0  0  0  0  0  0  0  0  0
  -28.2551  -26.6397   20.2765 O   0  0  0  0  0  0  0  0  0  0  0  0
  -29.2418  -30.2392   20.7907 O   0  0  0  0  0  0  0  0  0  0  0  0
  -26.0547  -30.8802   24.2479 O   0  0  0  0  0  0  0  0  0  0  0  0
  -27.8126  -14.0989   21.6993 O   0  0  0  0  0  0  0  0  0  0  0  0
  -21.8109  -26.2467   21.6267 O   0  0  0  0  0  0  0  0  0  1  0  0
  -30.2926  -11.3724   17.5981 F   0  0  0  0  0  0  0  0  0  0  0  0
  -26.6502  -11.8528   20.5827 F   0  0  0  0  0  0  0  0  0  0  0  0
  1  2  1  0  0  0  0
  1  5  2  0  0  0  0
  2  6  2  0  0  0  0
  3  8  2  0  0  0  0
  3 15  1  0  0  0  0
  4  9  1  0  0  0  0
  4 15  2  0  0  0  0
  5 17  1  0  0  0  0
  6 19  1  0  0  0  0
  7 10  2  0  0  0  0
  7 18  1  0  0  0  0
  8 22  1  0  0  0  0
  9 22  2  0  0  0  0
 10 23  1  0  0  0  0
 11 12  2  0  0  0  0
 11 24  1  0  0  0  0
 12 25  1  0  0  0  0
 13 20  1  0  0  0  0
 13 23  2  0  0  0  0
 14 25  2  0  0  0  0
 14 26  1  0  0  0  0
 15 27  1  0  0  0  0
 16 27  1  0  0  0  0
 16 30  2  0  0  0  0
 16 32  1  0  0  0  0
 17 19  2  0  0  0  0
 17 37  1  0  0  0  0
 18 20  2  0  0  0  0
 18 38  1  0  0  0  0
 19 49  1  0  0  0  0
 20 39  1  0  0  0  0
 21 28  2  0  0  0  0
 21 29  1  0  0  0  0
 21 61  1  0  0  0  0
 22 81  1  0  0  0  0
 23 82  1  0  0  0  0
 24 26  2  0  0  0  0
 24 81  1  0  0  0  0
 25 83  1  0  0  0  0
 26 84  1  0  0  0  0
 27 65  2  0  0  0  0
 28 33  1  0  0  0  0
 28 66  1  0  0  0  0
 29 50  1  0  0  0  0
 29 67  2  0  0  0  0
 30 68  1  0  0  0  0
 30 71  1  0  0  0  0
 31 51  1  0  0  0  0
 31 66  2  0  0  0  0
 31 67  1  0  0  0  0
 32 72  1  0  0  0  0
 32 76  2  0  0  0  0
 33 69  1  0  0  0  0
 33 77  2  0  0  0  0
 34 52  1  0  0  0  0
 34 73  1  0  0  0  0
 34 78  2  0  0  0  0
 35 62  1  0  0  0  0
 35 70  1  0  0  0  0
 35 79  2  0  0  0  0
 36 63  1  0  0  0  0
 36 74  1  0  0  0  0
 36 80  2  0  0  0  0
 37 40  1  0  0  0  0
 38 52  1  0  0  0  0
 39 70  1  0  0  0  0
 40 42  1  0  0  0  0
 41 45  1  0  0  0  0
 41 47  1  0  0  0  0
 42 49  1  0  0  0  0
 43 44  1  0  0  0  0
 43 51  1  0  0  0  0
 44 51  1  0  0  0  0
 45 54  1  0  0  0  0
 46 50  1  0  0  0  0
 46 53  1  0  0  0  0
 47 69  1  0  0  0  0
 48 54  1  0  0  0  0
 48 69  1  0  0  0  0
 49 73  1  0  0  0  0
 50 53  1  0  0  0  0
 52 70  1  0  0  0  0
 53 55  1  0  0  0  0
 54 68  1  0  0  0  0
 56 63  1  0  0  0  0
 57 64  1  0  0  0  0
 58 64  1  0  0  0  0
 59 64  1  0  0  0  0
 60 75  1  0  0  0  0
 61 82  1  0  0  0  0
 62 64  1  0  0  0  0
 62 74  1  0  0  0  0
 63 75  1  0  0  0  0
 65 68  1  0  0  0  0
M  CHG  1  75   1
M  ISO  4  28 100  33 100  61 101  82 101
M  END
> <Batch ID>
0179

> <Smiles>
CNC(C)C(=O)NC(C(=O)N1Cc2cc([101O:1][101CH2:1]c3c(C4CC4C)nc(C4CC4)n[100c:0]3[100C:0](=O)N3CCCC(n4nc(-c5ccc(Oc6ccc(F)cc6F)cc5)c(C(N)=O)c4N)C3)ccc2CC1C(=O)NC1CCCc2ccccc21)C(C)(C)C

> <Shape>
0.217

> <Color>
0.080

> <Negative vol penalty>
0.000

$$$$

  -OEChem-04052322573D

 83 91  0     1  0  0  0  0  0999 V2000
  -21.4684  -33.3922   18.9853 C   0  0  0  0  0  0  0  0  0  0  0  0
  -22.6416  -32.6850   19.2276 C   0  0  0  0  0  0  0  0  0  0  0  0
  -25.8611  -14.4483   21.2173 C   0  0  0  0  0  0  0  0  0  0  0  0
  -25.6780  -14.7510   18.8273 C   0  0  0  0  0  0  0  0  0  0  0  0
  -20.3890  -33.2700   19.8593 C   0  0  0  0  0  0  0  0  0  0  0  0
  -22.7366  -31.8560   20.3448 C   0  0  0  0  0  0  0  0  0  0  0  0
  -24.8201  -27.3689   19.2631 C   0  0  0  0  0  0  0  0  0  0  0  0
  -24.8234  -13.5171   21.1789 C   0  0  0  0  0  0  0  0  0  0  0  0
  -24.6403  -13.8197   18.7889 C   0  0  0  0  0  0  0  0  0  0  0  0
  -26.2067  -27.3277   19.1237 C   0  0  0  0  0  0  0  0  0  0  0  0
  -24.4249  -10.2647   20.3447 C   0  0  0  0  0  0  0  0  0  0  0  0
  -24.5895   -9.0807   21.0634 C   0  0  0  0  0  0  0  0  0  0  0  0
  -26.4003  -26.4611   21.3666 C   0  0  0  0  0  0  0  0  0  0  0  0
  -31.8534  -26.5572   17.0088 C   0  0  0  0  0  0  0  0  0  0  0  0
  -22.6305   -9.6054   22.3765 C   0  0  0  0  0  0  0  0  0  0  0  0
  -31.0261  -24.4922   15.4285 C   0  0  0  0  0  0  0  0  0  0  0  0
  -26.2883  -15.0654   20.0415 C   0  0  0  0  0  0  0  0  0  0  0  0
  -28.7374  -15.7726   19.9426 C   0  0  0  0  0  0  0  0  0  0  0  0
  -20.4673  -32.4316   20.9825 C   0  0  0  0  0  0  0  0  0  0  0  0
  -24.2129  -26.9661   20.4612 C   0  0  0  0  0  0  0  0  0  0  0  0
  -21.6577  -31.7235   21.2354 C   0  0  0  0  0  0  0  0  0  0  0  0
  -25.0057  -26.4957   21.5178 C   0  0  0  0  0  0  0  0  0  0  0  0
  -30.8491  -25.7099   17.4638 C   0  0  0  0  0  0  0  0  0  0  0  0
  -24.2130  -13.2027   19.9647 C   0  0  0  0  0  0  0  0  0  0  0  0
  -26.9972  -26.8765   20.1766 C   0  0  0  0  0  0  0  0  0  0  0  0
  -23.3631  -11.1191   20.6419 C   0  0  0  0  0  0  0  0  0  0  0  0
  -30.4219  -24.6553   16.6647 C   0  0  0  0  0  0  0  0  0  0  0  0
  -23.6923   -8.7510   22.0793 C   0  0  0  0  0  0  0  0  0  0  0  0
  -22.4659  -10.7894   21.6577 C   0  0  0  0  0  0  0  0  0  0  0  0
  -27.3598  -16.0279   20.0806 C   0  0  0  0  0  0  0  0  0  0  0  0
  -32.3937  -26.3088   15.7573 C   0  0  0  0  0  0  0  0  0  0  0  0
  -29.3282  -17.0076   20.0528 C   0  0  0  0  0  0  0  0  0  0  0  0
  -29.4217  -14.5302   19.7333 C   0  0  0  0  0  0  0  0  0  0  0  0
  -22.4149  -28.3979   22.6568 C   0  0  0  0  0  0  0  0  0  0  0  0
  -22.2001  -25.3991   23.8746 C   0  0  0  0  0  0  0  0  0  0  0  0
  -23.5538  -22.2780   24.1446 C   0  0  0  0  0  0  0  0  0  0  0  0
  -27.3647  -22.5722   19.0376 C   0  0  0  0  0  0  0  0  0  0  0  0
  -19.2912  -32.3684   21.9246 C   0  0  0  0  0  0  0  0  0  0  0  0
  -22.7141  -26.9913   20.5861 C   0  0  0  0  0  0  0  0  0  0  0  0
  -24.4015  -26.0328   22.8175 C   0  0  0  0  0  0  0  0  0  0  0  0
  -19.3400  -31.1795   22.8808 C   0  0  0  0  0  0  0  0  0  0  0  0
  -28.6950  -21.2936   22.0826 C   0  0  0  0  0  0  0  0  0  0  0  0
  -20.7282  -31.0488   23.4996 C   0  0  0  0  0  0  0  0  0  0  0  0
  -28.6280  -19.7760   21.9024 C   0  0  0  0  0  0  0  0  0  0  0  0
  -27.4972  -21.9915   21.4421 C   0  0  0  0  0  0  0  0  0  0  0  0
  -27.2039  -20.1389   19.8435 C   0  0  0  0  0  0  0  0  0  0  0  0
  -21.7904  -30.7951   22.4231 C   0  0  1  0  0  0  0  0  0  0  0  0
  -22.2360  -27.0423   22.0339 C   0  0  1  0  0  0  0  0  0  0  0  0
  -28.4190  -19.3956   20.4242 C   0  0  2  0  0  0  0  0  0  0  0  0
  -33.4734  -27.1983   15.2368 C   0  0  0  0  0  0  0  0  0  0  0  0
  -23.1703  -20.0524   25.2387 C   0  0  0  0  0  0  0  0  0  0  0  0
  -23.1493  -26.5473   26.5374 C   0  0  0  0  0  0  0  0  0  0  0  0
  -23.6529  -24.2117   27.2855 C   0  0  0  0  0  0  0  0  0  0  0  0
  -21.3110  -24.8620   26.7240 C   0  0  0  0  0  0  0  0  0  0  0  0
  -23.3636  -20.8970   21.5339 C   0  0  0  0  0  0  0  0  0  0  0  0
  -30.2358  -25.9484   18.8222 C   0  0  0  0  0  0  0  0  0  0  0  0
  -27.2293  -22.9940   16.5957 C   0  0  0  0  0  0  0  0  0  0  0  0
  -28.8682  -26.6167   18.7317 C   0  0  0  0  0  0  0  0  0  1  0  0
  -28.6289  -23.2182   16.0518 C   0  0  0  0  0  0  0  0  0  0  0  0
  -23.0008  -24.5870   24.8637 C   0  0  1  0  0  0  0  0  0  0  0  0
  -22.9402  -20.8975   23.9955 C   0  0  2  0  0  0  0  0  0  0  0  0
  -22.7903  -25.0625   26.3290 C   0  0  0  0  0  0  0  0  0  0  0  0
  -32.0045  -25.2946   14.9525 N   0  0  0  0  0  0  0  0  0  0  0  0
  -27.0914  -17.3233   20.2647 N   0  0  0  0  0  0  0  0  0  0  0  0
  -28.3084  -17.8930   20.2432 N   0  0  0  0  0  0  0  0  0  0  0  0
  -22.9321  -26.0824   22.8932 N   0  0  0  0  0  0  0  0  0  0  0  0
  -27.3558  -21.5890   20.0407 N   0  0  0  0  0  0  0  0  0  0  0  0
  -30.6154  -17.4116   20.0047 N   0  0  0  0  0  0  0  0  0  0  0  0
  -28.6619  -13.3558   19.6435 N   0  0  0  0  0  0  0  0  0  0  0  0
  -21.7540  -29.4138   21.9928 N   0  0  0  0  0  0  0  0  0  0  0  0
  -22.6430  -23.1919   24.6309 N   0  0  0  0  0  0  0  0  0  0  0  0
  -27.2318  -22.1047   17.7359 N   0  0  0  0  0  0  0  0  0  0  0  0
  -23.5369  -20.1887   22.8283 N   0  3  0  0  0  0  0  0  0  0  0  0
  -30.6711  -14.4613   19.6453 O   0  0  0  0  0  0  0  0  0  0  0  0
  -23.1004  -28.5135   23.6659 O   0  0  0  0  0  0  0  0  0  0  0  0
  -20.9701  -25.4204   23.9649 O   0  0  0  0  0  0  0  0  0  0  0  0
  -24.7250  -22.5204   23.8618 O   0  0  0  0  0  0  0  0  0  0  0  0
  -27.4878  -23.7769   19.2835 O   0  0  0  0  0  0  0  0  0  0  0  0
  -23.2005  -12.2938   19.9268 O   0  0  0  0  0  0  0  0  0  0  0  0
  -28.3509  -26.8360   20.0434 O   0  0  0  0  0  0  0  0  0  1  0  0
  -29.4445  -23.8042   17.0677 O   0  0  0  0  0  0  0  0  0  0  0  0
  -23.8496   -7.6132   22.7684 F   0  0  0  0  0  0  0  0  0  0  0  0
  -21.4432  -11.6057   21.9470 F   0  0  0  0  0  0  0  0  0  0  0  0
  1  2  1  0  0  0  0
  1  5  2  0  0  0  0
  2  6  2  0  0  0  0
  3  8  2  0  0  0  0
  3 17  1  0  0  0  0
  4  9  1  0  0  0  0
  4 17  2  0  0  0  0
  5 19  1  0  0  0  0
  6 21  1  0  0  0  0
  7 10  2  0  0  0  0
  7 20  1  0  0  0  0
  8 24  1  0  0  0  0
  9 24  2  0  0  0  0
 10 25  1  0  0  0  0
 11 12  2  0  0  0  0
 11 26  1  0  0  0  0
 12 28  1  0  0  0  0
 13 22  1  0  0  0  0
 13 25  2  0  0  0  0
 14 23  1  0  0  0  0
 14 31  2  0  0  0  0
 15 28  2  0  0  0  0
 15 29  1  0  0  0  0
 16 27  1  0  0  0  0
 16 63  2  0  0  0  0
 17 30  1  0  0  0  0
 18 30  1  0  0  0  0
 18 32  2  0  0  0  0
 18 33  1  0  0  0  0
 19 21  2  0  0  0  0
 19 38  1  0  0  0  0
 20 22  2  0  0  0  0
 20 39  1  0  0  0  0
 21 47  1  0  0  0  0
 22 40  1  0  0  0  0
 23 27  2  0  0  0  0
 23 56  1  0  0  0  0
 24 79  1  0  0  0  0
 25 80  1  0  0  0  0
 26 29  2  0  0  0  0
 26 79  1  0  0  0  0
 27 81  1  0  0  0  0
 28 82  1  0  0  0  0
 29 83  1  0  0  0  0
 30 64  2  0  0  0  0
 31 50  1  0  0  0  0
 31 63  1  0  0  0  0
 32 65  1  0  0  0  0
 32 68  1  0  0  0  0
 33 69  1  0  0  0  0
 33 74  2  0  0  0  0
 34 48  1  0  0  0  0
 34 70  1  0  0  0  0
 34 75  2  0  0  0  0
 35 60  1  0  0  0  0
 35 66  1  0  0  0  0
 35 76  2  0  0  0  0
 36 61  1  0  0  0  0
 36 71  1  0  0  0  0
 36 77  2  0  0  0  0
 37 67  1  0  0  0  0
 37 72  1  0  0  0  0
 37 78  2  0  0  0  0
 38 41  1  0  0  0  0
 39 48  1  0  0  0  0
 40 66  1  0  0  0  0
 41 43  1  0  0  0  0
 42 44  1  0  0  0  0
 42 45  1  0  0  0  0
 43 47  1  0  0  0  0
 44 49  1  0  0  0  0
 45 67  1  0  0  0  0
 46 49  1  0  0  0  0
 46 67  1  0  0  0  0
 47 70  1  0  0  0  0
 48 66  1  0  0  0  0
 49 65  1  0  0  0  0
 51 61  1  0  0  0  0
 52 62  1  0  0  0  0
 53 62  1  0  0  0  0
 54 62  1  0  0  0  0
 55 73  1  0  0  0  0
 56 58  1  0  0  0  0
 57 59  1  0  0  0  0
 57 72  1  0  0  0  0
 58 80  1  0  0  0  0
 59 81  1  0  0  0  0
 60 62  1  0  0  0  0
 60 71  1  0  0  0  0
 61 73  1  0  0  0  0
 64 65  1  0  0  0  0
M  CHG  1  73   1
M  ISO  4  37 100  58 101  72 100  80 101
M  END
> <Batch ID>
0179

> <Smiles>
CNC(C)C(=O)NC(C(=O)N1Cc2cc([101O:1][101CH2:1]Cc3cc(C)ncc3OCC[100NH:0][100C:0](=O)N3CCCC(n4nc(-c5ccc(Oc6ccc(F)cc6F)cc5)c(C(N)=O)c4N)C3)ccc2CC1C(=O)NC1CCCc2ccccc21)C(C)(C)C

> <Shape>
0.212

> <Color>
0.084

> <Negative vol penalty>
0.000

$$$$

  -OEChem-04052322573D

 86 95  0     1  0  0  0  0  0999 V2000
  -26.7064  -24.1522   11.6888 C   0  0  0  0  0  0  0  0  0  0  0  0
  -25.5781  -23.5408   12.2237 C   0  0  0  0  0  0  0  0  0  0  0  0
  -22.8906  -10.0472   20.3387 C   0  0  0  0  0  0  0  0  0  0  0  0
  -24.3352   -9.6994   22.2438 C   0  0  0  0  0  0  0  0  0  0  0  0
  -27.8695  -24.2476   12.4498 C   0  0  0  0  0  0  0  0  0  0  0  0
  -25.6088  -23.0354   13.5239 C   0  0  0  0  0  0  0  0  0  0  0  0
  -22.9172  -19.4301   20.0798 C   0  0  0  0  0  0  0  0  0  0  0  0
  -22.2099   -8.8675   20.6395 C   0  0  0  0  0  0  0  0  0  0  0  0
  -23.6544   -8.5197   22.5446 C   0  0  0  0  0  0  0  0  0  0  0  0
  -23.3311  -18.7963   21.2506 C   0  0  0  0  0  0  0  0  0  0  0  0
  -22.0655   -5.6035   24.0243 C   0  0  0  0  0  0  0  0  0  0  0  0
  -21.7165   -5.3767   25.3556 C   0  0  0  0  0  0  0  0  0  0  0  0
  -24.6128  -20.7506   21.8483 C   0  0  0  0  0  0  0  0  0  0  0  0
  -20.3981   -7.4012   25.3549 C   0  0  0  0  0  0  0  0  0  0  0  0
  -23.9533  -10.4632   21.1408 C   0  0  0  0  0  0  0  0  0  0  0  0
  -24.1195  -12.9807   20.7640 C   0  0  0  0  0  0  0  0  0  0  0  0
  -27.9175  -23.7318   13.7554 C   0  0  0  0  0  0  0  0  0  0  0  0
  -23.3574  -20.7270   19.7787 C   0  0  0  0  0  0  0  0  0  0  0  0
  -26.7658  -23.1434   14.3165 C   0  0  0  0  0  0  0  0  0  0  0  0
  -24.2009  -21.3996   20.6744 C   0  0  0  0  0  0  0  0  0  0  0  0
  -22.5917   -8.1038   21.7424 C   0  0  0  0  0  0  0  0  0  0  0  0
  -24.1813  -19.4554   22.1336 C   0  0  0  0  0  0  0  0  0  0  0  0
  -21.5808   -6.7293   23.3583 C   0  0  0  0  0  0  0  0  0  0  0  0
  -20.8828   -6.2755   26.0209 C   0  0  0  0  0  0  0  0  0  0  0  0
  -20.7471   -7.6281   24.0236 C   0  0  0  0  0  0  0  0  0  0  0  0
  -24.6573  -11.6814   20.8303 C   0  0  0  0  0  0  0  0  0  0  0  0
  -25.1883  -13.7784   20.4359 C   0  0  0  0  0  0  0  0  0  0  0  0
  -22.7740  -13.4267   20.9799 C   0  0  0  0  0  0  0  0  0  0  0  0
  -25.0684  -22.0280   17.4370 C   0  0  0  0  0  0  0  0  0  0  0  0
  -24.2751  -24.7995   18.9241 C   0  0  0  0  0  0  0  0  0  0  0  0
  -24.0289  -25.9880   22.3218 C   0  0  0  0  0  0  0  0  0  0  0  0
  -31.0979  -13.1963   21.2036 C   0  0  0  0  0  0  0  0  0  0  0  0
  -29.2000  -23.8691   14.5375 C   0  0  0  0  0  0  0  0  0  0  0  0
  -22.8804  -21.4071   18.5248 C   0  0  0  0  0  0  0  0  0  0  0  0
  -24.6858  -22.8004   20.4074 C   0  0  0  0  0  0  0  0  0  0  0  0
  -29.2754  -22.9180   15.7275 C   0  0  0  0  0  0  0  0  0  0  0  0
  -32.8867  -12.8251   25.5439 C   0  0  0  0  0  0  0  0  0  0  0  0
  -29.3751  -13.6642   18.1231 C   0  0  0  0  0  0  0  0  0  0  0  0
  -27.9960  -23.0071   16.5460 C   0  0  0  0  0  0  0  0  0  0  0  0
  -27.9221  -13.3263   18.4616 C   0  0  0  0  0  0  0  0  0  0  0  0
  -32.4687  -12.4061   24.1293 C   0  0  0  0  0  0  0  0  0  0  0  0
  -32.1409  -14.1262   25.8473 C   0  0  0  0  0  0  0  0  0  0  0  0
  -28.1195  -15.3845   25.0056 C   0  0  0  0  0  0  0  0  0  0  0  0
  -29.0545  -16.8877   23.1990 C   0  0  0  0  0  0  0  0  0  0  0  0
  -30.3537  -12.7689   18.8798 C   0  0  0  0  0  0  0  0  0  0  0  0
  -28.7114  -12.4039   20.6808 C   0  0  0  0  0  0  0  0  0  0  0  0
  -26.7299  -15.5336   24.3997 C   0  0  0  0  0  0  0  0  0  0  0  0
  -27.6593  -17.0271   22.6038 C   0  0  0  0  0  0  0  0  0  0  0  0
  -26.7853  -22.5592   15.7174 C   0  0  1  0  0  0  0  0  0  0  0  0
  -23.8022  -22.5338   18.0684 C   0  0  1  0  0  0  0  0  0  0  0  0
  -27.6885  -13.3176   19.9843 C   0  0  2  0  0  0  0  0  0  0  0  0
  -31.6831  -13.5928   23.5726 C   0  0  2  0  0  0  0  0  0  0  0  0
  -31.0199  -14.1564   24.8206 C   0  0  2  0  0  0  0  0  0  0  0  0
  -29.2033  -15.5663   23.9471 C   0  0  0  0  0  0  0  0  0  0  0  0
  -22.6122  -27.8051   23.3160 C   0  0  0  0  0  0  0  0  0  0  0  0
  -26.7205  -26.5634   18.4564 C   0  0  0  0  0  0  0  0  0  0  0  0
  -26.2321  -27.6980   20.6341 C   0  0  0  0  0  0  0  0  0  0  0  0
  -24.5774  -27.8134   18.7709 C   0  0  0  0  0  0  0  0  0  0  0  0
  -22.8661  -24.1453   24.3246 C   0  0  0  0  0  0  0  0  0  0  0  0
  -30.5610  -16.3312   25.8844 C   0  0  0  0  0  0  0  0  0  0  0  0
  -26.4460  -18.0362   24.5745 C   0  0  0  0  0  0  0  0  0  0  0  0
  -25.8708  -19.1971   23.7874 C   0  0  0  0  0  0  0  0  0  1  0  0
  -24.8869  -25.6375   20.0206 C   0  0  1  0  0  0  0  0  0  0  0  0
  -22.7548  -26.3092   23.0821 C   0  0  2  0  0  0  0  0  0  0  0  0
  -25.6081  -26.8999   19.4694 C   0  0  0  0  0  0  0  0  0  0  0  0
  -25.9660  -11.6509   20.5653 N   0  0  0  0  0  0  0  0  0  0  0  0
  -26.2596  -12.9410   20.3293 N   0  0  0  0  0  0  0  0  0  0  0  0
  -24.1966  -23.4205   19.1649 N   0  0  0  0  0  0  0  0  0  0  0  0
  -30.0793  -12.8067   20.3183 N   0  0  0  0  0  0  0  0  0  0  0  0
  -25.3070  -15.1074   20.2309 N   0  0  0  0  0  0  0  0  0  0  0  0
  -21.7995  -12.4750   21.3097 N   0  0  0  0  0  0  0  0  0  0  0  0
  -25.5751  -22.8545   16.4522 N   0  0  0  0  0  0  0  0  0  0  0  0
  -23.8105  -25.9274   20.9617 N   0  0  0  0  0  0  0  0  0  0  0  0
  -30.7521  -13.2110   22.5493 N   0  0  0  0  0  0  0  0  0  0  0  0
  -26.5995  -16.8469   23.6650 N   0  3  0  0  0  0  0  0  0  0  0  0
  -22.7549  -25.6245   24.4058 N   0  3  0  0  0  0  0  0  0  0  0  0
  -30.5346  -15.5323   24.6078 N   0  3  1  0  0  0  0  0  0  0  0  0
  -22.4425  -14.6312   20.8671 O   0  0  0  0  0  0  0  0  0  0  0  0
  -25.5507  -20.9672   17.8161 O   0  0  0  0  0  0  0  0  0  0  0  0
  -23.8748  -25.3492   17.8948 O   0  0  0  0  0  0  0  0  0  0  0  0
  -25.1104  -25.8123   22.8784 O   0  0  0  0  0  0  0  0  0  0  0  0
  -32.2299  -13.5131   20.8225 O   0  0  0  0  0  0  0  0  0  0  0  0
  -21.9275   -6.9527   22.0364 O   0  0  0  0  0  0  0  0  0  0  0  0
  -24.5874  -18.8387   23.2768 O   0  0  0  0  0  0  0  0  0  1  0  0
  -20.5465   -6.0567   27.2989 F   0  0  0  0  0  0  0  0  0  0  0  0
  -20.2774   -8.7107   23.3887 F   0  0  0  0  0  0  0  0  0  0  0  0
  1  2  1  0  0  0  0
  1  5  2  0  0  0  0
  2  6  2  0  0  0  0
  3  8  2  0  0  0  0
  3 15  1  0  0  0  0
  4  9  1  0  0  0  0
  4 15  2  0  0  0  0
  5 17  1  0  0  0  0
  6 19  1  0  0  0  0
  7 10  2  0  0  0  0
  7 18  1  0  0  0  0
  8 21  1  0  0  0  0
  9 21  2  0  0  0  0
 10 22  1  0  0  0  0
 11 12  2  0  0  0  0
 11 23  1  0  0  0  0
 12 24  1  0  0  0  0
 13 20  1  0  0  0  0
 13 22  2  0  0  0  0
 14 24  2  0  0  0  0
 14 25  1  0  0  0  0
 15 26  1  0  0  0  0
 16 26  1  0  0  0  0
 16 27  2  0  0  0  0
 16 28  1  0  0  0  0
 17 19  2  0  0  0  0
 17 33  1  0  0  0  0
 18 20  2  0  0  0  0
 18 34  1  0  0  0  0
 19 49  1  0  0  0  0
 20 35  1  0  0  0  0
 21 83  1  0  0  0  0
 22 84  1  0  0  0  0
 23 25  2  0  0  0  0
 23 83  1  0  0  0  0
 24 85  1  0  0  0  0
 25 86  1  0  0  0  0
 26 66  2  0  0  0  0
 27 67  1  0  0  0  0
 27 70  1  0  0  0  0
 28 71  1  0  0  0  0
 28 78  2  0  0  0  0
 29 50  1  0  0  0  0
 29 72  1  0  0  0  0
 29 79  2  0  0  0  0
 30 63  1  0  0  0  0
 30 68  1  0  0  0  0
 30 80  2  0  0  0  0
 31 64  1  0  0  0  0
 31 73  1  0  0  0  0
 31 81  2  0  0  0  0
 32 69  1  0  0  0  0
 32 74  1  0  0  0  0
 32 82  2  0  0  0  0
 33 36  1  0  0  0  0
 34 50  1  0  0  0  0
 35 68  1  0  0  0  0
 36 39  1  0  0  0  0
 37 41  1  0  0  0  0
 37 42  1  0  0  0  0
 38 40  1  0  0  0  0
 38 45  1  0  0  0  0
 39 49  1  0  0  0  0
 40 51  1  0  0  0  0
 41 52  1  0  0  0  0
 42 53  1  0  0  0  0
 43 47  1  0  0  0  0
 43 54  1  0  0  0  0
 44 48  1  0  0  0  0
 44 54  1  0  0  0  0
 45 69  1  0  0  0  0
 46 51  1  0  0  0  0
 46 69  1  0  0  0  0
 47 75  1  0  0  0  0
 48 75  1  0  0  0  0
 49 72  1  0  0  0  0
 50 68  1  0  0  0  0
 51 67  1  0  0  0  0
 52 53  1  0  0  0  0
 52 74  1  0  0  0  0
 53 77  1  0  0  0  0
 54 77  1  0  0  0  0
 55 64  1  0  0  0  0
 56 65  1  0  0  0  0
 57 65  1  0  0  0  0
 58 65  1  0  0  0  0
 59 76  1  0  0  0  0
 60 77  1  0  0  0  0
 61 62  1  0  0  0  0
 61 75  1  0  0  0  0
 62 84  1  0  0  0  0
 63 65  1  0  0  0  0
 63 73  1  0  0  0  0
 64 76  1  0  0  0  0
 66 67  1  0  0  0  0
M  CHG  3  75   1  76   1  77   1
M  ISO  4  32 100  62 101  74 100  84 101
M  END
> <Batch ID>
0179

> <Smiles>
CNC(C)C(=O)NC(C(=O)N1Cc2cc([101O:1][101CH2:1]CN3CCC(N(C)C4CCCC4[100NH:0][100C:0](=O)N4CCCC(n5nc(-c6ccc(Oc7ccc(F)cc7F)cc6)c(C(N)=O)c5N)C4)CC3)ccc2CC1C(=O)NC1CCCc2ccccc21)C(C)(C)C

> <Shape>
0.182

> <Color>
0.157

> <Negative vol penalty>
0.000

$$$$

  -OEChem-04052322573D

 84 93  0     1  0  0  0  0  0999 V2000
  -30.4551  -34.8370   20.1065 C   0  0  0  0  0  0  0  0  0  0  0  0
  -30.6418  -33.4754   19.8906 C   0  0  0  0  0  0  0  0  0  0  0  0
  -23.2097  -10.1499   21.9876 C   0  0  0  0  0  0  0  0  0  0  0  0
  -23.9661  -11.5053   23.8391 C   0  0  0  0  0  0  0  0  0  0  0  0
  -29.5252  -35.2709   21.0503 C   0  0  0  0  0  0  0  0  0  0  0  0
  -29.8994  -32.5468   20.6194 C   0  0  0  0  0  0  0  0  0  0  0  0
  -27.8340  -27.1268   18.6539 C   0  0  0  0  0  0  0  0  0  0  0  0
  -22.5026   -9.3359   22.8724 C   0  0  0  0  0  0  0  0  0  0  0  0
  -23.2589  -10.6912   24.7239 C   0  0  0  0  0  0  0  0  0  0  0  0
  -28.3171  -25.8278   18.8056 C   0  0  0  0  0  0  0  0  0  0  0  0
  -23.1798   -6.8171   25.0222 C   0  0  0  0  0  0  0  0  0  0  0  0
  -23.2806   -5.4363   24.8527 C   0  0  0  0  0  0  0  0  0  0  0  0
  -26.8402  -25.5044   20.6852 C   0  0  0  0  0  0  0  0  0  0  0  0
  -20.8924   -5.3039   24.5116 C   0  0  0  0  0  0  0  0  0  0  0  0
  -29.8974  -20.2020   22.0387 C   0  0  0  0  0  0  0  0  0  0  0  0
  -23.9415  -11.2346   22.4710 C   0  0  0  0  0  0  0  0  0  0  0  0
  -24.2030  -13.2307   20.9042 C   0  0  0  0  0  0  0  0  0  0  0  0
  -28.7642  -34.3474   21.7842 C   0  0  0  0  0  0  0  0  0  0  0  0
  -26.8565  -27.6289   19.5250 C   0  0  0  0  0  0  0  0  0  0  0  0
  -28.9594  -32.9688   21.5750 C   0  0  0  0  0  0  0  0  0  0  0  0
  -26.3444  -26.8092   20.5409 C   0  0  0  0  0  0  0  0  0  0  0  0
  -22.5272   -9.6065   24.2405 C   0  0  0  0  0  0  0  0  0  0  0  0
  -27.8223  -25.0174   19.8231 C   0  0  0  0  0  0  0  0  0  0  0  0
  -21.9353   -7.4414   24.9364 C   0  0  0  0  0  0  0  0  0  0  0  0
  -22.1369   -4.6797   24.5974 C   0  0  0  0  0  0  0  0  0  0  0  0
  -20.7917   -6.6848   24.6811 C   0  0  0  0  0  0  0  0  0  0  0  0
  -24.6726  -12.0756   21.5576 C   0  0  0  0  0  0  0  0  0  0  0  0
  -29.5879  -19.2359   21.1069 C   0  0  0  0  0  0  0  0  0  0  0  0
  -28.4036  -21.6280   21.0564 C   0  0  0  0  0  0  0  0  0  0  0  0
  -28.0946  -20.6622   20.1241 C   0  0  0  0  0  0  0  0  0  0  0  0
  -25.2712  -13.6596   20.1549 C   0  0  0  0  0  0  0  0  0  0  0  0
  -22.9162  -13.8598   20.9688 C   0  0  0  0  0  0  0  0  0  0  0  0
  -26.7272  -30.0245   21.6102 C   0  0  0  0  0  0  0  0  0  0  0  0
  -23.6096  -29.1548   21.8243 C   0  0  0  0  0  0  0  0  0  0  0  0
  -21.2492  -26.7183   21.4511 C   0  0  0  0  0  0  0  0  0  0  0  0
  -30.8036  -14.7326   19.8404 C   0  0  0  0  0  0  0  0  0  0  0  0
  -27.8049  -34.8634   22.8273 C   0  0  0  0  0  0  0  0  0  0  0  0
  -26.3265  -29.0232   19.3314 C   0  0  0  0  0  0  0  0  0  0  0  0
  -25.2799  -27.2937   21.4898 C   0  0  0  0  0  0  0  0  0  0  0  0
  -26.7903  -33.8211   23.2905 C   0  0  0  0  0  0  0  0  0  0  0  0
  -29.6443  -11.4237   19.0405 C   0  0  0  0  0  0  0  0  0  0  0  0
  -27.4842  -32.4952   23.5862 C   0  0  0  0  0  0  0  0  0  0  0  0
  -28.2330  -11.3691   19.6158 C   0  0  0  0  0  0  0  0  0  0  0  0
  -30.5543  -12.2789   19.9121 C   0  0  0  0  0  0  0  0  0  0  0  0
  -29.3242  -16.5493   21.0113 C   0  0  0  0  0  0  0  0  0  0  0  0
  -30.8588  -17.2832   19.7464 C   0  0  0  0  0  0  0  0  0  0  0  0
  -28.6311  -13.6612   20.6500 C   0  0  0  0  0  0  0  0  0  0  0  0
  -28.1554  -31.9313   22.3281 C   0  0  1  0  0  0  0  0  0  0  0  0
  -30.2438  -17.7932   21.0701 C   0  0  0  0  0  0  0  0  0  0  0  0
  -25.7014  -29.6056   20.5954 C   0  0  1  0  0  0  0  0  0  0  0  0
  -27.6776  -12.7872   19.8113 C   0  0  2  0  0  0  0  0  0  0  0  0
  -25.8787  -19.9592   19.1498 C   0  0  0  0  0  0  0  0  0  0  0  0
  -27.6987  -20.8339   17.6406 C   0  0  0  0  0  0  0  0  0  0  0  0
  -18.7927  -26.2946   21.7400 C   0  0  0  0  0  0  0  0  0  0  0  0
  -24.0006  -28.9616   24.8442 C   0  0  0  0  0  0  0  0  0  0  0  0
  -21.8701  -27.6522   24.9662 C   0  0  0  0  0  0  0  0  0  0  0  0
  -21.8405  -30.0045   24.1366 C   0  0  0  0  0  0  0  0  0  0  0  0
  -20.8941  -26.1293   18.5726 C   0  0  0  0  0  0  0  0  0  0  0  0
  -27.7413  -22.9742   21.0375 C   0  0  0  0  0  0  0  0  0  1  0  0
  -27.0878  -20.9093   19.0531 C   0  0  0  0  0  0  0  0  0  0  0  0
  -22.8255  -28.1886   22.6791 C   0  0  1  0  0  0  0  0  0  0  0  0
  -19.8882  -26.7289   20.7788 C   0  0  2  0  0  0  0  0  0  0  0  0
  -22.6556  -28.6930   24.1400 C   0  0  0  0  0  0  0  0  0  0  0  0
  -29.3108  -21.4154   22.0302 N   0  0  0  0  0  0  0  0  0  0  0  0
  -25.9404  -11.7888   21.2502 N   0  0  0  0  0  0  0  0  0  0  0  0
  -28.6809  -19.4486   20.1328 N   0  0  0  0  0  0  0  0  0  0  0  0
  -26.2765  -12.7698   20.3954 N   0  0  0  0  0  0  0  0  0  0  0  0
  -24.7983  -28.6665   21.2637 N   0  0  0  0  0  0  0  0  0  0  0  0
  -30.0059  -13.6206   20.1325 N   0  0  0  0  0  0  0  0  0  0  0  0
  -30.2891  -15.9843   20.0834 N   0  0  0  0  0  0  0  0  0  0  0  0
  -25.4392  -14.7073   19.3203 N   0  0  0  0  0  0  0  0  0  0  0  0
  -21.9333  -13.2879   21.7880 N   0  0  0  0  0  0  0  0  0  0  0  0
  -27.1705  -31.3245   21.4585 N   0  0  0  0  0  0  0  0  0  0  0  0
  -21.5678  -27.9518   21.9787 N   0  0  0  0  0  0  0  0  0  0  0  0
  -19.8809  -25.8050   19.6095 N   0  3  0  0  0  0  0  0  0  0  0  0
  -22.6409  -14.8890   20.3066 O   0  0  0  0  0  0  0  0  0  0  0  0
  -27.0887  -29.2278   22.4682 O   0  0  0  0  0  0  0  0  0  0  0  0
  -23.1794  -30.2983   21.6543 O   0  0  0  0  0  0  0  0  0  0  0  0
  -21.9571  -25.7152   21.5062 O   0  0  0  0  0  0  0  0  0  0  0  0
  -31.9556  -14.6131   19.4025 O   0  0  0  0  0  0  0  0  0  0  0  0
  -21.8371   -8.8125   25.1042 O   0  0  0  0  0  0  0  0  0  0  0  0
  -28.2927  -23.7493   19.9738 O   0  0  0  0  0  0  0  0  0  1  0  0
  -22.2340   -3.3539   24.4332 F   0  0  0  0  0  0  0  0  0  0  0  0
  -19.5935   -7.2790   24.5964 F   0  0  0  0  0  0  0  0  0  0  0  0
  1  2  1  0  0  0  0
  1  5  2  0  0  0  0
  2  6  2  0  0  0  0
  3  8  2  0  0  0  0
  3 16  1  0  0  0  0
  4  9  1  0  0  0  0
  4 16  2  0  0  0  0
  5 18  1  0  0  0  0
  6 20  1  0  0  0  0
  7 10  2  0  0  0  0
  7 19  1  0  0  0  0
  8 22  1  0  0  0  0
  9 22  2  0  0  0  0
 10 23  1  0  0  0  0
 11 12  2  0  0  0  0
 11 24  1  0  0  0  0
 12 25  1  0  0  0  0
 13 21  1  0  0  0  0
 13 23  2  0  0  0  0
 14 25  2  0  0  0  0
 14 26  1  0  0  0  0
 15 28  1  0  0  0  0
 15 64  2  0  0  0  0
 16 27  1  0  0  0  0
 17 27  1  0  0  0  0
 17 31  2  0  0  0  0
 17 32  1  0  0  0  0
 18 20  2  0  0  0  0
 18 37  1  0  0  0  0
 19 21  2  0  0  0  0
 19 38  1  0  0  0  0
 20 48  1  0  0  0  0
 21 39  1  0  0  0  0
 22 81  1  0  0  0  0
 23 82  1  0  0  0  0
 24 26  2  0  0  0  0
 24 81  1  0  0  0  0
 25 83  1  0  0  0  0
 26 84  1  0  0  0  0
 27 65  2  0  0  0  0
 28 49  1  0  0  0  0
 28 66  2  0  0  0  0
 29 30  2  0  0  0  0
 29 59  1  0  0  0  0
 29 64  1  0  0  0  0
 30 60  1  0  0  0  0
 30 66  1  0  0  0  0
 31 67  1  0  0  0  0
 31 71  1  0  0  0  0
 32 72  1  0  0  0  0
 32 76  2  0  0  0  0
 33 50  1  0  0  0  0
 33 73  1  0  0  0  0
 33 77  2  0  0  0  0
 34 61  1  0  0  0  0
 34 68  1  0  0  0  0
 34 78  2  0  0  0  0
 35 62  1  0  0  0  0
 35 74  1  0  0  0  0
 35 79  2  0  0  0  0
 36 69  1  0  0  0  0
 36 70  1  0  0  0  0
 36 80  2  0  0  0  0
 37 40  1  0  0  0  0
 38 50  1  0  0  0  0
 39 68  1  0  0  0  0
 40 42  1  0  0  0  0
 41 43  1  0  0  0  0
 41 44  1  0  0  0  0
 42 48  1  0  0  0  0
 43 51  1  0  0  0  0
 44 69  1  0  0  0  0
 45 49  1  0  0  0  0
 45 70  1  0  0  0  0
 46 49  1  0  0  0  0
 46 70  1  0  0  0  0
 47 51  1  0  0  0  0
 47 69  1  0  0  0  0
 48 73  1  0  0  0  0
 50 68  1  0  0  0  0
 51 67  1  0  0  0  0
 52 60  1  0  0  0  0
 53 60  1  0  0  0  0
 54 62  1  0  0  0  0
 55 63  1  0  0  0  0
 56 63  1  0  0  0  0
 57 63  1  0  0  0  0
 58 75  1  0  0  0  0
 59 82  1  0  0  0  0
 61 63  1  0  0  0  0
 61 74  1  0  0  0  0
 62 75  1  0  0  0  0
 65 67  1  0  0  0  0
M  CHG  1  75   1
M  ISO  4  36 100  59 101  70 100  82 101
M  END
> <Batch ID>
0179

> <Smiles>
CNC(C)C(=O)NC(C(=O)N1Cc2cc([101O:1][101CH2:1]c3ncc(C4C[100N:0]([100C:0](=O)N5CCCC(n6nc(-c7ccc(Oc8ccc(F)cc8F)cc7)c(C(N)=O)c6N)C5)C4)nc3C(C)C)ccc2CC1C(=O)NC1CCCc2ccccc21)C(C)(C)C

> <Shape>
0.312

> <Color>
0.129

> <Negative vol penalty>
0.000

$$$$

  -OEChem-04052322573D

 86 95  0     1  0  0  0  0  0999 V2000
  -27.6568  -37.3328   17.9850 C   0  0  0  0  0  0  0  0  0  0  0  0
  -27.7683  -36.0287   17.5136 C   0  0  0  0  0  0  0  0  0  0  0  0
  -25.1821   -8.3150   22.1393 C   0  0  0  0  0  0  0  0  0  0  0  0
  -25.0145   -7.7165   19.8046 C   0  0  0  0  0  0  0  0  0  0  0  0
  -27.5607  -37.5717   19.3553 C   0  0  0  0  0  0  0  0  0  0  0  0
  -27.7850  -34.9627   18.4124 C   0  0  0  0  0  0  0  0  0  0  0  0
  -25.7406  -28.1222   18.9985 C   0  0  0  0  0  0  0  0  0  0  0  0
  -23.8713   -7.8842   22.3438 C   0  0  0  0  0  0  0  0  0  0  0  0
  -23.7037   -7.2856   20.0092 C   0  0  0  0  0  0  0  0  0  0  0  0
  -26.2535  -26.8696   19.3325 C   0  0  0  0  0  0  0  0  0  0  0  0
  -22.2500   -4.9449   22.7501 C   0  0  0  0  0  0  0  0  0  0  0  0
  -21.9943   -4.1574   23.8725 C   0  0  0  0  0  0  0  0  0  0  0  0
  -26.0013  -27.3971   21.6729 C   0  0  0  0  0  0  0  0  0  0  0  0
  -20.4356   -5.8166   24.6816 C   0  0  0  0  0  0  0  0  0  0  0  0
  -25.7537   -8.2312   20.8696 C   0  0  0  0  0  0  0  0  0  0  0  0
  -28.2823   -7.9091   20.7697 C   0  0  0  0  0  0  0  0  0  0  0  0
  -27.5665  -36.5075   20.2707 C   0  0  0  0  0  0  0  0  0  0  0  0
  -25.3637  -29.0274   20.0010 C   0  0  0  0  0  0  0  0  0  0  0  0
  -27.6903  -35.1877   19.7963 C   0  0  0  0  0  0  0  0  0  0  0  0
  -25.4815  -28.6595   21.3489 C   0  0  0  0  0  0  0  0  0  0  0  0
  -23.1321   -7.3695   21.2788 C   0  0  0  0  0  0  0  0  0  0  0  0
  -26.3867  -26.5079   20.6699 C   0  0  0  0  0  0  0  0  0  0  0  0
  -21.5987   -6.1684   22.5934 C   0  0  0  0  0  0  0  0  0  0  0  0
  -21.0870   -4.5932   24.8383 C   0  0  0  0  0  0  0  0  0  0  0  0
  -20.6914   -6.6042   23.5591 C   0  0  0  0  0  0  0  0  0  0  0  0
  -27.1075   -8.6765   20.6575 C   0  0  0  0  0  0  0  0  0  0  0  0
  -28.4366  -22.2316   19.6764 C   0  0  0  0  0  0  0  0  0  0  0  0
  -27.7420  -23.1231   20.4639 C   0  0  0  0  0  0  0  0  0  0  0  0
  -27.9091  -21.6876   22.2363 C   0  0  0  0  0  0  0  0  0  0  0  0
  -28.6030  -20.7958   21.4485 C   0  0  0  0  0  0  0  0  0  0  0  0
  -29.2956   -8.7868   20.4711 C   0  0  0  0  0  0  0  0  0  0  0  0
  -28.4432   -6.5264   21.1131 C   0  0  0  0  0  0  0  0  0  0  0  0
  -26.3156  -31.9317   20.8741 C   0  0  0  0  0  0  0  0  0  0  0  0
  -23.7997  -31.7191   22.9107 C   0  0  0  0  0  0  0  0  0  0  0  0
  -21.6429  -29.7296   24.6532 C   0  0  0  0  0  0  0  0  0  0  0  0
  -29.9125  -14.5123   20.9488 C   0  0  0  0  0  0  0  0  0  0  0  0
  -27.5078  -36.8181   21.7454 C   0  0  0  0  0  0  0  0  0  0  0  0
  -24.7871  -30.3644   19.6238 C   0  0  0  0  0  0  0  0  0  0  0  0
  -25.0723  -29.5872   22.4627 C   0  0  0  0  0  0  0  0  0  0  0  0
  -27.1558  -35.6095   22.6089 C   0  0  0  0  0  0  0  0  0  0  0  0
  -30.2169  -12.7333   17.9369 C   0  0  0  0  0  0  0  0  0  0  0  0
  -27.9808  -34.3964   22.1911 C   0  0  0  0  0  0  0  0  0  0  0  0
  -29.5626  -11.4016   18.3037 C   0  0  0  0  0  0  0  0  0  0  0  0
  -28.8020  -17.8008   20.3653 C   0  0  0  0  0  0  0  0  0  0  0  0
  -30.5283  -17.6833   22.2021 C   0  0  0  0  0  0  0  0  0  0  0  0
  -29.4596  -13.9252   18.5253 C   0  0  0  0  0  0  0  0  0  0  0  0
  -29.5133  -16.6505   19.6467 C   0  0  0  0  0  0  0  0  0  0  0  0
  -31.2190  -16.5585   21.4360 C   0  0  0  0  0  0  0  0  0  0  0  0
  -28.5894  -12.5047   20.3538 C   0  0  0  0  0  0  0  0  0  0  0  0
  -27.6870  -34.0033   20.7383 C   0  0  1  0  0  0  0  0  0  0  0  0
  -24.9157  -31.4047   20.7323 C   0  0  1  0  0  0  0  0  0  0  0  0
  -29.3611  -11.2857   19.8251 C   0  0  1  0  0  0  0  0  0  0  0  0
  -29.7696  -18.6013   21.2402 C   0  0  0  0  0  0  0  0  0  0  0  0
  -28.7356  -22.5270   18.2465 C   0  0  0  0  0  0  0  0  0  0  0  0
  -19.7196  -29.8438   26.2611 C   0  0  0  0  0  0  0  0  0  0  0  0
  -25.7333  -32.3971   25.1716 C   0  0  0  0  0  0  0  0  0  0  0  0
  -24.0138  -31.5749   26.7950 C   0  0  0  0  0  0  0  0  0  0  0  0
  -23.5081  -33.5278   25.3277 C   0  0  0  0  0  0  0  0  0  0  0  0
  -19.8284  -28.3565   22.7608 C   0  0  0  0  0  0  0  0  0  0  0  0
  -27.2570  -24.4245   19.9231 C   0  0  0  0  0  0  0  0  0  1  0  0
  -23.6041  -31.2115   24.3189 C   0  0  1  0  0  0  0  0  0  0  0  0
  -20.1324  -29.7673   24.7994 C   0  0  2  0  0  0  0  0  0  0  0  0
  -24.2244  -32.1609   25.3826 C   0  0  0  0  0  0  0  0  0  0  0  0
  -27.3506   -9.9443   20.3146 N   0  0  0  0  0  0  0  0  0  0  0  0
  -28.8795  -21.0518   20.1545 N   0  0  0  0  0  0  0  0  0  0  0  0
  -27.4658  -22.8671   21.7581 N   0  0  0  0  0  0  0  0  0  0  0  0
  -28.6898   -9.9803   20.2088 N   0  0  0  0  0  0  0  0  0  0  0  0
  -24.5199  -30.8858   22.0431 N   0  0  0  0  0  0  0  0  0  0  0  0
  -29.2565  -13.7506   19.9702 N   0  0  0  0  0  0  0  0  0  0  0  0
  -30.2654  -15.8252   20.6028 N   0  0  0  0  0  0  0  0  0  0  0  0
  -27.6462  -21.3693   23.5881 N   0  0  0  0  0  0  0  0  0  0  0  0
  -30.6369   -8.6465   20.4100 N   0  0  0  0  0  0  0  0  0  0  0  0
  -27.2970   -5.7690   21.3903 N   0  0  0  0  0  0  0  0  0  0  0  0
  -29.0355  -19.5977   21.9887 N   0  0  0  0  0  0  0  0  0  0  0  0
  -26.4304  -33.2907   20.6517 N   0  0  0  0  0  0  0  0  0  0  0  0
  -22.1707  -30.9913   24.4780 N   0  0  0  0  0  0  0  0  0  0  0  0
  -19.5235  -28.5450   24.2025 N   0  3  0  0  0  0  0  0  0  0  0  0
  -29.5712   -5.9828   21.1883 O   0  0  0  0  0  0  0  0  0  0  0  0
  -27.2241  -31.1626   21.1653 O   0  0  0  0  0  0  0  0  0  0  0  0
  -23.3247  -32.8115   22.5901 O   0  0  0  0  0  0  0  0  0  0  0  0
  -22.2902  -28.6856   24.6944 O   0  0  0  0  0  0  0  0  0  0  0  0
  -30.1680  -14.0468   22.0665 O   0  0  0  0  0  0  0  0  0  0  0  0
  -21.8531   -6.9488   21.4781 O   0  0  0  0  0  0  0  0  0  0  0  0
  -26.8911  -25.2779   21.0009 O   0  0  0  0  0  0  0  0  0  1  0  0
  -20.8403   -3.8360   25.9153 F   0  0  0  0  0  0  0  0  0  0  0  0
  -20.0617   -7.7781   23.4135 F   0  0  0  0  0  0  0  0  0  0  0  0
  1  2  1  0  0  0  0
  1  5  2  0  0  0  0
  2  6  2  0  0  0  0
  3  8  2  0  0  0  0
  3 15  1  0  0  0  0
  4  9  1  0  0  0  0
  4 15  2  0  0  0  0
  5 17  1  0  0  0  0
  6 19  1  0  0  0  0
  7 10  2  0  0  0  0
  7 18  1  0  0  0  0
  8 21  1  0  0  0  0
  9 21  2  0  0  0  0
 10 22  1  0  0  0  0
 11 12  2  0  0  0  0
 11 23  1  0  0  0  0
 12 24  1  0  0  0  0
 13 20  1  0  0  0  0
 13 22  2  0  0  0  0
 14 24  2  0  0  0  0
 14 25  1  0  0  0  0
 15 26  1  0  0  0  0
 16 26  1  0  0  0  0
 16 31  2  0  0  0  0
 16 32  1  0  0  0  0
 17 19  2  0  0  0  0
 17 37  1  0  0  0  0
 18 20  2  0  0  0  0
 18 38  1  0  0  0  0
 19 50  1  0  0  0  0
 20 39  1  0  0  0  0
 21 83  1  0  0  0  0
 22 84  1  0  0  0  0
 23 25  2  0  0  0  0
 23 83  1  0  0  0  0
 24 85  1  0  0  0  0
 25 86  1  0  0  0  0
 26 64  2  0  0  0  0
 27 28  2  0  0  0  0
 27 54  1  0  0  0  0
 27 65  1  0  0  0  0
 28 60  1  0  0  0  0
 28 66  1  0  0  0  0
 29 30  1  0  0  0  0
 29 66  2  0  0  0  0
 29 71  1  0  0  0  0
 30 65  2  0  0  0  0
 30 74  1  0  0  0  0
 31 67  1  0  0  0  0
 31 72  1  0  0  0  0
 32 73  1  0  0  0  0
 32 78  2  0  0  0  0
 33 51  1  0  0  0  0
 33 75  1  0  0  0  0
 33 79  2  0  0  0  0
 34 61  1  0  0  0  0
 34 68  1  0  0  0  0
 34 80  2  0  0  0  0
 35 62  1  0  0  0  0
 35 76  1  0  0  0  0
 35 81  2  0  0  0  0
 36 69  1  0  0  0  0
 36 70  1  0  0  0  0
 36 82  2  0  0  0  0
 37 40  1  0  0  0  0
 38 51  1  0  0  0  0
 39 68  1  0  0  0  0
 40 42  1  0  0  0  0
 41 43  1  0  0  0  0
 41 46  1  0  0  0  0
 42 50  1  0  0  0  0
 43 52  1  0  0  0  0
 44 47  1  0  0  0  0
 44 53  1  0  0  0  0
 45 48  1  0  0  0  0
 45 53  1  0  0  0  0
 46 69  1  0  0  0  0
 47 70  1  0  0  0  0
 48 70  1  0  0  0  0
 49 52  1  0  0  0  0
 49 69  1  0  0  0  0
 50 75  1  0  0  0  0
 51 68  1  0  0  0  0
 52 67  1  0  0  0  0
 53 74  1  0  0  0  0
 55 62  1  0  0  0  0
 56 63  1  0  0  0  0
 57 63  1  0  0  0  0
 58 63  1  0  0  0  0
 59 77  1  0  0  0  0
 60 84  1  0  0  0  0
 61 63  1  0  0  0  0
 61 76  1  0  0  0  0
 62 77  1  0  0  0  0
 64 67  1  0  0  0  0
M  CHG  1  77   1
M  ISO  4  36 100  60 101  70 100  84 101
M  END
> <Batch ID>
0179

> <Smiles>
CNC(C)C(=O)NC(C(=O)N1Cc2cc([101O:1][101CH2:1]c3nc(N)c(NC4CC[100N:0]([100C:0](=O)N5CCCC(n6nc(-c7ccc(Oc8ccc(F)cc8F)cc7)c(C(N)=O)c6N)C5)CC4)nc3C)ccc2CC1C(=O)NC1CCCc2ccccc21)C(C)(C)C

> <Shape>
0.277

> <Color>
0.091

> <Negative vol penalty>
0.000

$$$$

  -OEChem-04052322573D

 82 91  0     1  0  0  0  0  0999 V2000
  -22.8848   -8.0184   22.0758 C   0  0  0  0  0  0  0  0  0  0  0  0
  -24.1570   -8.5815   22.0846 C   0  0  0  0  0  0  0  0  0  0  0  0
  -22.9369  -27.3151   20.4716 C   0  0  0  0  0  0  0  0  0  0  0  0
  -24.2685  -26.9339   22.4511 C   0  0  0  0  0  0  0  0  0  0  0  0
  -21.8690   -8.6057   21.3228 C   0  0  0  0  0  0  0  0  0  0  0  0
  -24.4142   -9.7317   21.3394 C   0  0  0  0  0  0  0  0  0  0  0  0
  -28.3934  -15.6873   21.4589 C   0  0  0  0  0  0  0  0  0  0  0  0
  -21.8258  -26.7687   21.1138 C   0  0  0  0  0  0  0  0  0  0  0  0
  -23.1574  -26.3876   23.0934 C   0  0  0  0  0  0  0  0  0  0  0  0
  -29.2884  -16.4008   20.6629 C   0  0  0  0  0  0  0  0  0  0  0  0
  -19.5317  -27.7546   23.3937 C   0  0  0  0  0  0  0  0  0  0  0  0
  -18.3176  -28.4313   23.2767 C   0  0  0  0  0  0  0  0  0  0  0  0
  -27.4360  -17.3736   19.4625 C   0  0  0  0  0  0  0  0  0  0  0  0
  -17.3321  -26.4837   22.2408 C   0  0  0  0  0  0  0  0  0  0  0  0
  -31.6764  -19.9957   18.2313 C   0  0  0  0  0  0  0  0  0  0  0  0
  -24.1583  -27.3977   21.1402 C   0  0  0  0  0  0  0  0  0  0  0  0
  -25.7056  -29.3115   20.4689 C   0  0  0  0  0  0  0  0  0  0  0  0
  -22.1115   -9.7692   20.5757 C   0  0  0  0  0  0  0  0  0  0  0  0
  -27.0109  -15.8034   21.2552 C   0  0  0  0  0  0  0  0  0  0  0  0
  -23.4010  -10.3344   20.5747 C   0  0  0  0  0  0  0  0  0  0  0  0
  -26.5254  -16.6625   20.2589 C   0  0  0  0  0  0  0  0  0  0  0  0
  -21.9360  -26.3050   22.4247 C   0  0  0  0  0  0  0  0  0  0  0  0
  -28.8099  -17.2419   19.6626 C   0  0  0  0  0  0  0  0  0  0  0  0
  -19.6461  -26.4426   22.9342 C   0  0  0  0  0  0  0  0  0  0  0  0
  -17.2178  -27.7958   22.7003 C   0  0  0  0  0  0  0  0  0  0  0  0
  -18.5463  -25.8072   22.3578 C   0  0  0  0  0  0  0  0  0  0  0  0
  -25.3066  -27.9615   20.4771 C   0  0  0  0  0  0  0  0  0  0  0  0
  -32.4432  -20.7158   17.3381 C   0  0  0  0  0  0  0  0  0  0  0  0
  -31.8622  -18.6284   18.2109 C   0  0  0  0  0  0  0  0  0  0  0  0
  -26.8471  -29.3274   19.7051 C   0  0  0  0  0  0  0  0  0  0  0  0
  -33.4167  -18.8136   16.5628 C   0  0  0  0  0  0  0  0  0  0  0  0
  -25.0989  -30.4493   21.0956 C   0  0  0  0  0  0  0  0  0  0  0  0
  -24.6880  -13.7951   20.4337 C   0  0  0  0  0  0  0  0  0  0  0  0
  -22.7919  -16.3583   21.0313 C   0  0  0  0  0  0  0  0  0  0  0  0
  -22.4937  -19.7500   21.2640 C   0  0  0  0  0  0  0  0  0  0  0  0
  -30.7948  -25.0156   18.6056 C   0  0  0  0  0  0  0  0  0  0  0  0
  -20.9940  -10.3411   19.7396 C   0  0  0  0  0  0  0  0  0  0  0  0
  -26.0578  -15.0475   22.1399 C   0  0  0  0  0  0  0  0  0  0  0  0
  -25.0499  -16.8379   20.0131 C   0  0  0  0  0  0  0  0  0  0  0  0
  -21.2520  -11.7721   19.2750 C   0  0  0  0  0  0  0  0  0  0  0  0
  -29.0095  -27.0578   16.1243 C   0  0  0  0  0  0  0  0  0  0  0  0
  -22.6670  -11.9068   18.7214 C   0  0  0  0  0  0  0  0  0  0  0  0
  -27.8466  -27.5819   16.9593 C   0  0  0  0  0  0  0  0  0  0  0  0
  -29.4472  -25.6555   16.5480 C   0  0  0  0  0  0  0  0  0  0  0  0
  -30.9947  -22.9701   17.0164 C   0  0  0  0  0  0  0  0  0  0  0  0
  -32.5225  -23.1581   18.4809 C   0  0  0  0  0  0  0  0  0  0  0  0
  -28.5739  -26.0726   18.8385 C   0  0  0  0  0  0  0  0  0  0  0  0
  -23.7128  -11.5958   19.7990 C   0  0  1  0  0  0  0  0  0  0  0  0
  -32.3726  -22.2950   17.2111 C   0  0  0  0  0  0  0  0  0  0  0  0
  -24.6847  -14.8478   21.5059 C   0  0  1  0  0  0  0  0  0  0  0  0
  -28.1853  -27.5068   18.4551 C   0  0  2  0  0  0  0  0  0  0  0  0
  -34.3831  -18.1572   15.6363 C   0  0  0  0  0  0  0  0  0  0  0  0
  -20.8111  -21.5521   21.7319 C   0  0  0  0  0  0  0  0  0  0  0  0
  -21.6151  -15.9805   18.2416 C   0  0  0  0  0  0  0  0  0  0  0  0
  -20.6790  -18.2972   18.3987 C   0  0  0  0  0  0  0  0  0  0  0  0
  -19.9413  -16.5438   20.0124 C   0  0  0  0  0  0  0  0  0  0  0  0
  -24.0031  -20.7079   23.6226 C   0  0  0  0  0  0  0  0  0  0  0  0
  -31.0726  -17.7610   19.1465 C   0  0  0  0  0  0  0  0  0  1  0  0
  -22.2674  -17.5139   20.2138 C   0  0  1  0  0  0  0  0  0  0  0  0
  -21.8689  -20.6357   22.3269 C   0  0  2  0  0  0  0  0  0  0  0  0
  -21.1536  -17.0793   19.2197 C   0  0  0  0  0  0  0  0  0  0  0  0
  -26.1277  -27.1768   19.7743 N   0  0  0  0  0  0  0  0  0  0  0  0
  -33.3265  -20.1551   16.4863 N   0  0  0  0  0  0  0  0  0  0  0  0
  -32.7270  -18.0016   17.3865 N   0  0  0  0  0  0  0  0  0  0  0  0
  -27.0540  -28.0364   19.3171 N   0  0  0  0  0  0  0  0  0  0  0  0
  -24.1582  -16.0726   20.9001 N   0  0  0  0  0  0  0  0  0  0  0  0
  -29.6565  -25.5536   17.9959 N   0  0  0  0  0  0  0  0  0  0  0  0
  -31.4513  -23.9949   17.9475 N   0  0  0  0  0  0  0  0  0  0  0  0
  -27.6838  -30.3197   19.3342 N   0  0  0  0  0  0  0  0  0  0  0  0
  -23.9297  -30.2556   21.8439 N   0  0  0  0  0  0  0  0  0  0  0  0
  -23.8614  -12.7199   20.6984 N   0  0  0  0  0  0  0  0  0  0  0  0
  -21.8503  -18.5341   21.1696 N   0  0  0  0  0  0  0  0  0  0  0  0
  -22.9114  -21.4803   22.9756 N   0  3  0  0  0  0  0  0  0  0  0  0
  -25.5701  -31.6063   20.9815 O   0  0  0  0  0  0  0  0  0  0  0  0
  -25.3875  -13.9479   19.4392 O   0  0  0  0  0  0  0  0  0  0  0  0
  -22.0192  -15.7367   21.7650 O   0  0  0  0  0  0  0  0  0  0  0  0
  -23.4539  -20.1030   20.5829 O   0  0  0  0  0  0  0  0  0  0  0  0
  -31.1944  -25.4045   19.7104 O   0  0  0  0  0  0  0  0  0  0  0  0
  -20.8519  -25.7719   23.0518 O   0  0  0  0  0  0  0  0  0  0  0  0
  -29.6813  -17.9389   18.8838 O   0  0  0  0  0  0  0  0  0  1  0  0
  -16.0515  -28.4452   22.5894 F   0  0  0  0  0  0  0  0  0  0  0  0
  -18.6497  -24.5464   21.9155 F   0  0  0  0  0  0  0  0  0  0  0  0
  1  2  1  0  0  0  0
  1  5  2  0  0  0  0
  2  6  2  0  0  0  0
  3  8  2  0  0  0  0
  3 16  1  0  0  0  0
  4  9  1  0  0  0  0
  4 16  2  0  0  0  0
  5 18  1  0  0  0  0
  6 20  1  0  0  0  0
  7 10  2  0  0  0  0
  7 19  1  0  0  0  0
  8 22  1  0  0  0  0
  9 22  2  0  0  0  0
 10 23  1  0  0  0  0
 11 12  2  0  0  0  0
 11 24  1  0  0  0  0
 12 25  1  0  0  0  0
 13 21  1  0  0  0  0
 13 23  2  0  0  0  0
 14 25  2  0  0  0  0
 14 26  1  0  0  0  0
 15 28  2  0  0  0  0
 15 29  1  0  0  0  0
 16 27  1  0  0  0  0
 17 27  1  0  0  0  0
 17 30  2  0  0  0  0
 17 32  1  0  0  0  0
 18 20  2  0  0  0  0
 18 37  1  0  0  0  0
 19 21  2  0  0  0  0
 19 38  1  0  0  0  0
 20 48  1  0  0  0  0
 21 39  1  0  0  0  0
 22 79  1  0  0  0  0
 23 80  1  0  0  0  0
 24 26  2  0  0  0  0
 24 79  1  0  0  0  0
 25 81  1  0  0  0  0
 26 82  1  0  0  0  0
 27 62  2  0  0  0  0
 28 49  1  0  0  0  0
 28 63  1  0  0  0  0
 29 58  1  0  0  0  0
 29 64  2  0  0  0  0
 30 65  1  0  0  0  0
 30 69  1  0  0  0  0
 31 52  1  0  0  0  0
 31 63  2  0  0  0  0
 31 64  1  0  0  0  0
 32 70  1  0  0  0  0
 32 74  2  0  0  0  0
 33 50  1  0  0  0  0
 33 71  1  0  0  0  0
 33 75  2  0  0  0  0
 34 59  1  0  0  0  0
 34 66  1  0  0  0  0
 34 76  2  0  0  0  0
 35 60  1  0  0  0  0
 35 72  1  0  0  0  0
 35 77  2  0  0  0  0
 36 67  1  0  0  0  0
 36 68  1  0  0  0  0
 36 78  2  0  0  0  0
 37 40  1  0  0  0  0
 38 50  1  0  0  0  0
 39 66  1  0  0  0  0
 40 42  1  0  0  0  0
 41 43  1  0  0  0  0
 41 44  1  0  0  0  0
 42 48  1  0  0  0  0
 43 51  1  0  0  0  0
 44 67  1  0  0  0  0
 45 49  1  0  0  0  0
 45 68  1  0  0  0  0
 46 49  1  0  0  0  0
 46 68  1  0  0  0  0
 47 51  1  0  0  0  0
 47 67  1  0  0  0  0
 48 71  1  0  0  0  0
 50 66  1  0  0  0  0
 51 65  1  0  0  0  0
 53 60  1  0  0  0  0
 54 61  1  0  0  0  0
 55 61  1  0  0  0  0
 56 61  1  0  0  0  0
 57 73  1  0  0  0  0
 58 80  1  0  0  0  0
 59 61  1  0  0  0  0
 59 72  1  0  0  0  0
 60 73  1  0  0  0  0
 62 65  1  0  0  0  0
M  CHG  1  73   1
M  ISO  4  36 100  58 101  68 100  80 101
M  END
> <Batch ID>
0179

> <Smiles>
CNC(C)C(=O)NC(C(=O)N1Cc2cc([101O:1][101CH2:1]c3cc(C4C[100N:0]([100C:0](=O)N5CCCC(n6nc(-c7ccc(Oc8ccc(F)cc8F)cc7)c(C(N)=O)c6N)C5)C4)nc(C)n3)ccc2CC1C(=O)NC1CCCc2ccccc21)C(C)(C)C

> <Shape>
0.233

> <Color>
0.064

> <Negative vol penalty>
0.000

$$$$
