
  -OEChem-04052323003D

 85 94  0     1  0  0  0  0  0999 V2000
  -27.0193  -38.0032   20.9592 C   0  0  0  0  0  0  0  0  0  0  0  0
  -27.5777  -36.9014   20.3192 C   0  0  0  0  0  0  0  0  0  0  0  0
  -26.1278   -9.5221   20.7953 C   0  0  0  0  0  0  0  0  0  0  0  0
  -24.4292   -9.9968   22.4465 C   0  0  0  0  0  0  0  0  0  0  0  0
  -26.3209  -37.8341   22.1540 C   0  0  0  0  0  0  0  0  0  0  0  0
  -27.4390  -35.6298   20.8744 C   0  0  0  0  0  0  0  0  0  0  0  0
  -26.7721  -28.7535   18.9802 C   0  0  0  0  0  0  0  0  0  0  0  0
  -26.2258   -8.2149   21.2718 C   0  0  0  0  0  0  0  0  0  0  0  0
  -24.5271   -8.6895   22.9230 C   0  0  0  0  0  0  0  0  0  0  0  0
  -27.3447  -27.5071   19.2299 C   0  0  0  0  0  0  0  0  0  0  0  0
  -24.0718   -5.3722   24.3396 C   0  0  0  0  0  0  0  0  0  0  0  0
  -22.8860   -4.6841   24.5959 C   0  0  0  0  0  0  0  0  0  0  0  0
  -28.5018  -22.6128   19.3964 C   0  0  0  0  0  0  0  0  0  0  0  0
  -26.0494  -27.3247   21.2567 C   0  0  0  0  0  0  0  0  0  0  0  0
  -22.2414   -4.9324   22.2808 C   0  0  0  0  0  0  0  0  0  0  0  0
  -25.2295  -10.4131   21.3827 C   0  0  0  0  0  0  0  0  0  0  0  0
  -24.2746  -12.2377   19.8771 C   0  0  0  0  0  0  0  0  0  0  0  0
  -26.1653  -36.5585   22.7190 C   0  0  0  0  0  0  0  0  0  0  0  0
  -25.8403  -29.3006   19.8740 C   0  0  0  0  0  0  0  0  0  0  0  0
  -26.7390  -35.4436   22.0786 C   0  0  0  0  0  0  0  0  0  0  0  0
  -28.9423  -21.3370   19.7678 C   0  0  0  0  0  0  0  0  0  0  0  0
  -25.4644  -28.5770   21.0147 C   0  0  0  0  0  0  0  0  0  0  0  0
  -28.9619  -23.7383   20.0683 C   0  0  0  0  0  0  0  0  0  0  0  0
  -25.4255   -7.7986   22.3357 C   0  0  0  0  0  0  0  0  0  0  0  0
  -26.9856  -26.7938   20.3697 C   0  0  0  0  0  0  0  0  0  0  0  0
  -24.3425   -5.8406   23.0538 C   0  0  0  0  0  0  0  0  0  0  0  0
  -21.9708   -4.4641   23.5666 C   0  0  0  0  0  0  0  0  0  0  0  0
  -23.4273   -5.6206   22.0244 C   0  0  0  0  0  0  0  0  0  0  0  0
  -25.1283  -11.7638   20.8912 C   0  0  0  0  0  0  0  0  0  0  0  0
  -29.8474  -21.2528   20.8302 C   0  0  0  0  0  0  0  0  0  0  0  0
  -29.8565  -23.5493   21.1042 C   0  0  0  0  0  0  0  0  0  0  0  0
  -24.5600  -13.5781   19.7866 C   0  0  0  0  0  0  0  0  0  0  0  0
  -23.3099  -11.5295   19.0875 C   0  0  0  0  0  0  0  0  0  0  0  0
  -25.7358  -31.9090   21.6876 C   0  0  0  0  0  0  0  0  0  0  0  0
  -22.7053  -30.9093   22.2701 C   0  0  0  0  0  0  0  0  0  0  0  0
  -20.4761  -28.3274   22.3758 C   0  0  0  0  0  0  0  0  0  0  0  0
  -27.9172  -17.7449   19.5535 C   0  0  0  0  0  0  0  0  0  0  0  0
  -25.4425  -36.4315   24.0367 C   0  0  0  0  0  0  0  0  0  0  0  0
  -25.2117  -30.6343   19.5765 C   0  0  0  0  0  0  0  0  0  0  0  0
  -24.4536  -29.1112   21.9952 C   0  0  0  0  0  0  0  0  0  0  0  0
  -30.3201  -19.9185   21.3399 C   0  0  0  0  0  0  0  0  0  0  0  0
  -25.0198  -35.0017   24.3642 C   0  0  0  0  0  0  0  0  0  0  0  0
  -27.2825  -16.5867   22.7926 C   0  0  0  0  0  0  0  0  0  0  0  0
  -26.1713  -34.0336   24.1122 C   0  0  0  0  0  0  0  0  0  0  0  0
  -26.5918  -15.2536   22.5079 C   0  0  0  0  0  0  0  0  0  0  0  0
  -30.0943  -18.7855   20.3468 C   0  0  0  0  0  0  0  0  0  0  0  0
  -28.4603  -16.8365   21.8487 C   0  0  0  0  0  0  0  0  0  0  0  0
  -27.4251  -15.3898   20.1317 C   0  0  0  0  0  0  0  0  0  0  0  0
  -26.5888  -34.0450   22.6367 C   0  0  1  0  0  0  0  0  0  0  0  0
  -28.4558  -20.1106   19.0244 C   0  0  1  0  0  0  0  0  0  0  0  0
  -24.6578  -31.3243   20.8193 C   0  0  1  0  0  0  0  0  0  0  0  0
  -26.1992  -15.1424   21.0242 C   0  0  1  0  0  0  0  0  0  0  0  0
  -30.3868  -24.7200   21.8650 C   0  0  0  0  0  0  0  0  0  0  0  0
  -18.0822  -27.8130   22.9252 C   0  0  0  0  0  0  0  0  0  0  0  0
  -23.3536  -31.0832   25.2466 C   0  0  0  0  0  0  0  0  0  0  0  0
  -21.3246  -29.6878   25.6989 C   0  0  0  0  0  0  0  0  0  0  0  0
  -21.0829  -31.9252   24.6226 C   0  0  0  0  0  0  0  0  0  0  0  0
  -19.9231  -27.3956   19.6217 C   0  0  0  0  0  0  0  0  0  0  0  0
  -28.7263  -20.9537   15.4445 C   0  0  0  0  0  0  0  0  0  0  0  0
  -28.4899  -25.0921   19.6646 C   0  0  0  0  0  0  0  0  0  1  0  0
  -29.0307  -20.0704   17.6008 C   0  0  0  0  0  0  0  0  0  0  0  0
  -22.0546  -30.0080   23.2915 C   0  0  1  0  0  0  0  0  0  0  0  0
  -19.0665  -28.1907   21.8292 C   0  0  2  0  0  0  0  0  0  0  0  0
  -21.9745  -30.6666   24.6976 C   0  0  0  0  0  0  0  0  0  0  0  0
  -25.8984  -12.7251   21.4079 N   0  0  0  0  0  0  0  0  0  0  0  0
  -30.3051  -22.3393   21.5028 N   0  0  0  0  0  0  0  0  0  0  0  0
  -25.5297  -13.8163   20.7156 N   0  0  0  0  0  0  0  0  0  0  0  0
  -23.8718  -30.4223   21.6636 N   0  0  0  0  0  0  0  0  0  0  0  0
  -28.0525  -16.6746   20.4481 N   0  0  0  0  0  0  0  0  0  0  0  0
  -28.7529  -18.8602   19.7518 N   0  0  0  0  0  0  0  0  0  0  0  0
  -24.0736  -14.5645   19.0037 N   0  0  0  0  0  0  0  0  0  0  0  0
  -23.1433  -10.1558   19.3099 N   0  0  0  0  0  0  0  0  0  0  0  0
  -25.6531  -33.2798   21.8407 N   0  0  0  0  0  0  0  0  0  0  0  0
  -20.7607  -29.6279   22.7350 N   0  0  0  0  0  0  0  0  0  0  0  0
  -19.0200  -27.1400   20.7733 N   0  3  0  0  0  0  0  0  0  0  0  0
  -22.6278  -12.0948   18.1994 O   0  0  0  0  0  0  0  0  0  0  0  0
  -26.5791  -31.1709   22.1832 O   0  0  0  0  0  0  0  0  0  0  0  0
  -22.1934  -32.0022   22.0146 O   0  0  0  0  0  0  0  0  0  0  0  0
  -21.2464  -27.3751   22.4776 O   0  0  0  0  0  0  0  0  0  0  0  0
  -27.1006  -17.7025   18.6243 O   0  0  0  0  0  0  0  0  0  0  0  0
  -25.5206   -6.5229   22.8008 O   0  0  0  0  0  0  0  0  0  0  0  0
  -27.5472  -25.5692   20.6178 O   0  0  0  0  0  0  0  0  0  1  0  0
  -28.2584  -20.9312   16.7896 O   0  0  0  0  0  0  0  0  0  0  0  0
  -20.8328   -3.8019   23.8125 F   0  0  0  0  0  0  0  0  0  0  0  0
  -23.6823   -6.0671   20.7869 F   0  0  0  0  0  0  0  0  0  0  0  0
  1  2  1  0  0  0  0
  1  5  2  0  0  0  0
  2  6  2  0  0  0  0
  3  8  2  0  0  0  0
  3 16  1  0  0  0  0
  4  9  1  0  0  0  0
  4 16  2  0  0  0  0
  5 18  1  0  0  0  0
  6 20  1  0  0  0  0
  7 10  2  0  0  0  0
  7 19  1  0  0  0  0
  8 24  1  0  0  0  0
  9 24  2  0  0  0  0
 10 25  1  0  0  0  0
 11 12  2  0  0  0  0
 11 26  1  0  0  0  0
 12 27  1  0  0  0  0
 13 21  2  0  0  0  0
 13 23  1  0  0  0  0
 14 22  1  0  0  0  0
 14 25  2  0  0  0  0
 15 27  2  0  0  0  0
 15 28  1  0  0  0  0
 16 29  1  0  0  0  0
 17 29  1  0  0  0  0
 17 32  2  0  0  0  0
 17 33  1  0  0  0  0
 18 20  2  0  0  0  0
 18 38  1  0  0  0  0
 19 22  2  0  0  0  0
 19 39  1  0  0  0  0
 20 49  1  0  0  0  0
 21 30  1  0  0  0  0
 21 50  1  0  0  0  0
 22 40  1  0  0  0  0
 23 31  2  0  0  0  0
 23 60  1  0  0  0  0
 24 81  1  0  0  0  0
 25 82  1  0  0  0  0
 26 28  2  0  0  0  0
 26 81  1  0  0  0  0
 27 84  1  0  0  0  0
 28 85  1  0  0  0  0
 29 65  2  0  0  0  0
 30 41  1  0  0  0  0
 30 66  2  0  0  0  0
 31 53  1  0  0  0  0
 31 66  1  0  0  0  0
 32 67  1  0  0  0  0
 32 71  1  0  0  0  0
 33 72  1  0  0  0  0
 33 76  2  0  0  0  0
 34 51  1  0  0  0  0
 34 73  1  0  0  0  0
 34 77  2  0  0  0  0
 35 62  1  0  0  0  0
 35 68  1  0  0  0  0
 35 78  2  0  0  0  0
 36 63  1  0  0  0  0
 36 74  1  0  0  0  0
 36 79  2  0  0  0  0
 37 69  1  0  0  0  0
 37 70  1  0  0  0  0
 37 80  2  0  0  0  0
 38 42  1  0  0  0  0
 39 51  1  0  0  0  0
 40 68  1  0  0  0  0
 41 46  1  0  0  0  0
 42 44  1  0  0  0  0
 43 45  1  0  0  0  0
 43 47  1  0  0  0  0
 44 49  1  0  0  0  0
 45 52  1  0  0  0  0
 46 70  1  0  0  0  0
 47 69  1  0  0  0  0
 48 52  1  0  0  0  0
 48 69  1  0  0  0  0
 49 73  1  0  0  0  0
 50 61  1  0  0  0  0
 50 70  1  0  0  0  0
 51 68  1  0  0  0  0
 52 67  1  0  0  0  0
 54 63  1  0  0  0  0
 55 64  1  0  0  0  0
 56 64  1  0  0  0  0
 57 64  1  0  0  0  0
 58 75  1  0  0  0  0
 59 83  1  0  0  0  0
 60 82  1  0  0  0  0
 61 83  1  0  0  0  0
 62 64  1  0  0  0  0
 62 74  1  0  0  0  0
 63 75  1  0  0  0  0
 65 67  1  0  0  0  0
M  CHG  1  75   1
M  ISO  4  37 100  60 101  70 100  82 101
M  END
> <Batch ID>
0180

> <Smiles>
CNC(C)C(=O)NC(C(=O)N1Cc2cc([101O:1][101CH2:1]c3cc4c(nc3C)CC[100N:0]([100C:0](=O)N3CCCC(n5nc(-c6ccc(Oc7ccc(F)cc7F)cc6)c(C(N)=O)c5N)C3)C4COC)ccc2CC1C(=O)NC1CCCc2ccccc21)C(C)(C)C

> <Shape>
0.311

> <Color>
0.068

> <Negative vol penalty>
0.000

$$$$

  -OEChem-04052323003D

 85 93  0     1  0  0  0  0  0999 V2000
  -20.6256  -21.4264   26.6019 C   0  0  0  0  0  0  0  0  0  0  0  0
  -21.6968  -20.5635   26.8104 C   0  0  0  0  0  0  0  0  0  0  0  0
  -26.1549  -27.6699   18.9671 C   0  0  0  0  0  0  0  0  0  0  0  0
  -26.3692  -27.1095   21.3075 C   0  0  0  0  0  0  0  0  0  0  0  0
  -19.4990  -20.9829   25.9107 C   0  0  0  0  0  0  0  0  0  0  0  0
  -21.6414  -19.2561   26.3286 C   0  0  0  0  0  0  0  0  0  0  0  0
  -25.9406  -17.8382   24.0591 C   0  0  0  0  0  0  0  0  0  0  0  0
  -25.6485  -28.9226   19.3134 C   0  0  0  0  0  0  0  0  0  0  0  0
  -25.8629  -28.3622   21.6538 C   0  0  0  0  0  0  0  0  0  0  0  0
  -27.0078  -17.4819   24.8825 C   0  0  0  0  0  0  0  0  0  0  0  0
  -22.8397  -29.8658   21.8290 C   0  0  0  0  0  0  0  0  0  0  0  0
  -21.8706  -29.9187   22.8308 C   0  0  0  0  0  0  0  0  0  0  0  0
  -26.4899  -15.1516   24.5352 C   0  0  0  0  0  0  0  0  0  0  0  0
  -23.3175  -31.3283   24.1562 C   0  0  0  0  0  0  0  0  0  0  0  0
  -29.1994  -15.4031   20.7256 C   0  0  0  0  0  0  0  0  0  0  0  0
  -29.9378  -17.9232   21.2065 C   0  0  0  0  0  0  0  0  0  0  0  0
  -26.5152  -26.7633   19.9642 C   0  0  0  0  0  0  0  0  0  0  0  0
  -28.3871  -25.1242   19.4012 C   0  0  0  0  0  0  0  0  0  0  0  0
  -19.4337  -19.6723   25.4119 C   0  0  0  0  0  0  0  0  0  0  0  0
  -25.1320  -16.8523   23.4753 C   0  0  0  0  0  0  0  0  0  0  0  0
  -20.5122  -18.7942   25.6313 C   0  0  0  0  0  0  0  0  0  0  0  0
  -25.4146  -15.4979   23.7028 C   0  0  0  0  0  0  0  0  0  0  0  0
  -25.5025  -29.2688   20.6567 C   0  0  0  0  0  0  0  0  0  0  0  0
  -27.2808  -16.1385   25.1230 C   0  0  0  0  0  0  0  0  0  0  0  0
  -24.0478  -30.5440   21.9908 C   0  0  0  0  0  0  0  0  0  0  0  0
  -22.1094  -30.6499   23.9943 C   0  0  0  0  0  0  0  0  0  0  0  0
  -24.2867  -31.2753   23.1544 C   0  0  0  0  0  0  0  0  0  0  0  0
  -27.0378  -25.4689   19.6071 C   0  0  0  0  0  0  0  0  0  0  0  0
  -30.4519  -15.6950   21.2192 C   0  0  0  0  0  0  0  0  0  0  0  0
  -28.6856  -17.6316   20.7122 C   0  0  0  0  0  0  0  0  0  0  0  0
  -28.3557  -23.7880   19.0850 C   0  0  0  0  0  0  0  0  0  0  0  0
  -29.5637  -25.9390   19.4881 C   0  0  0  0  0  0  0  0  0  0  0  0
  -22.0546  -16.0778   23.6576 C   0  0  0  0  0  0  0  0  0  0  0  0
  -22.8439  -13.9827   21.3103 C   0  0  0  0  0  0  0  0  0  0  0  0
  -25.2661  -12.1416   19.7643 C   0  0  0  0  0  0  0  0  0  0  0  0
  -26.4900  -18.6165   19.9667 C   0  0  0  0  0  0  0  0  0  0  0  0
  -18.1753  -19.2238   24.7119 C   0  0  0  0  0  0  0  0  0  0  0  0
  -24.0011  -17.2526   22.5681 C   0  0  0  0  0  0  0  0  0  0  0  0
  -24.5892  -14.4007   23.0836 C   0  0  0  0  0  0  0  0  0  0  0  0
  -18.3507  -17.9380   23.9080 C   0  0  0  0  0  0  0  0  0  0  0  0
  -24.4570  -20.7563   17.9755 C   0  0  0  0  0  0  0  0  0  0  0  0
  -19.0935  -16.8907   24.7315 C   0  0  0  0  0  0  0  0  0  0  0  0
  -25.0582  -22.1448   18.2055 C   0  0  0  0  0  0  0  0  0  0  0  0
  -24.4924  -19.9057   19.2439 C   0  0  0  0  0  0  0  0  0  0  0  0
  -26.4123  -21.1833   20.1105 C   0  0  0  0  0  0  0  0  0  0  0  0
  -20.4999  -17.3763   25.1025 C   0  0  1  0  0  0  0  0  0  0  0  0
  -22.9285  -16.1754   22.4393 C   0  0  1  0  0  0  0  0  0  0  0  0
  -26.4580  -22.0540   18.8442 C   0  0  2  0  0  0  0  0  0  0  0  0
  -32.8845  -15.0499   21.2346 C   0  0  0  0  0  0  0  0  0  0  0  0
  -26.3052  -10.6322   18.0499 C   0  0  0  0  0  0  0  0  0  0  0  0
  -31.9469  -16.7939   26.2750 C   0  0  0  0  0  0  0  0  0  0  0  0
  -21.6202  -11.7829   23.0347 C   0  0  0  0  0  0  0  0  0  0  0  0
  -22.8061  -10.1014   21.6082 C   0  0  0  0  0  0  0  0  0  0  0  0
  -21.0963  -11.6092   20.5954 C   0  0  0  0  0  0  0  0  0  0  0  0
  -25.9588  -14.4209   18.0082 C   0  0  0  0  0  0  0  0  0  0  0  0
  -31.3325  -14.0250   22.9301 C   0  0  0  0  0  0  0  0  0  0  0  0
  -30.8988  -14.6925   25.2976 C   0  0  0  0  0  0  0  0  0  0  0  0
  -29.4412  -16.6718   25.9622 C   0  0  0  0  0  0  0  0  0  1  0  0
  -31.4503  -14.5794   21.5044 C   0  0  1  0  0  0  0  0  0  0  0  0
  -23.3403  -12.5576   21.2719 C   0  0  1  0  0  0  0  0  0  0  0  0
  -25.6140  -11.9640   18.2974 C   0  0  2  0  0  0  0  0  0  0  0  0
  -30.7194  -15.8761   26.2551 C   0  0  2  0  0  0  0  0  0  0  0  0
  -22.2303  -11.5332   21.6409 C   0  0  0  0  0  0  0  0  0  0  0  0
  -30.8435  -16.9602   21.4689 N   0  0  0  0  0  0  0  0  0  0  0  0
  -28.2939  -16.3662   20.4629 N   0  0  0  0  0  0  0  0  0  0  0  0
  -26.2096  -24.4351   19.4359 N   0  0  0  0  0  0  0  0  0  0  0  0
  -27.0407  -23.4277   19.1190 N   0  0  0  0  0  0  0  0  0  0  0  0
  -23.4905  -14.8429   22.2091 N   0  0  0  0  0  0  0  0  0  0  0  0
  -25.8505  -19.8617   19.7904 N   0  0  0  0  0  0  0  0  0  0  0  0
  -29.3249  -22.8978   18.7838 N   0  0  0  0  0  0  0  0  0  0  0  0
  -29.4163  -27.2915   19.8246 N   0  0  0  0  0  0  0  0  0  0  0  0
  -27.7906  -18.7013   20.4625 N   0  0  0  0  0  0  0  0  0  0  0  0
  -21.3931  -17.2499   23.9709 N   0  0  0  0  0  0  0  0  0  0  0  0
  -23.9171  -12.3619   19.9462 N   0  0  0  0  0  0  0  0  0  0  0  0
  -26.5216  -13.0558   17.8445 N   0  3  0  0  0  0  0  0  0  0  0  0
  -31.1057  -15.1336   23.8978 N   0  3  0  0  0  0  0  0  0  0  0  0
  -30.7101  -25.4851   19.2575 O   0  0  0  0  0  0  0  0  0  0  0  0
  -21.9844  -15.0172   24.2675 O   0  0  0  0  0  0  0  0  0  0  0  0
  -21.9213  -14.3221   20.5651 O   0  0  0  0  0  0  0  0  0  0  0  0
  -26.1063  -12.0865   20.6596 O   0  0  0  0  0  0  0  0  0  0  0  0
  -25.9353  -17.5546   19.6721 O   0  0  0  0  0  0  0  0  0  0  0  0
  -25.0086  -30.4912   20.9950 O   0  0  0  0  0  0  0  0  0  0  0  0
  -28.3214  -15.7880   25.9269 O   0  0  0  0  0  0  0  0  0  1  0  0
  -21.1780  -30.7019   24.9556 F   0  0  0  0  0  0  0  0  0  0  0  0
  -25.4449  -31.9299   23.3150 F   0  0  0  0  0  0  0  0  0  0  0  0
  1  2  1  0  0  0  0
  1  5  2  0  0  0  0
  2  6  2  0  0  0  0
  3  8  2  0  0  0  0
  3 17  1  0  0  0  0
  4  9  1  0  0  0  0
  4 17  2  0  0  0  0
  5 19  1  0  0  0  0
  6 21  1  0  0  0  0
  7 10  2  0  0  0  0
  7 20  1  0  0  0  0
  8 23  1  0  0  0  0
  9 23  2  0  0  0  0
 10 24  1  0  0  0  0
 11 12  2  0  0  0  0
 11 25  1  0  0  0  0
 12 26  1  0  0  0  0
 13 22  1  0  0  0  0
 13 24  2  0  0  0  0
 14 26  2  0  0  0  0
 14 27  1  0  0  0  0
 15 29  1  0  0  0  0
 15 65  2  0  0  0  0
 16 30  2  0  0  0  0
 16 64  1  0  0  0  0
 17 28  1  0  0  0  0
 18 28  1  0  0  0  0
 18 31  2  0  0  0  0
 18 32  1  0  0  0  0
 19 21  2  0  0  0  0
 19 37  1  0  0  0  0
 20 22  2  0  0  0  0
 20 38  1  0  0  0  0
 21 46  1  0  0  0  0
 22 39  1  0  0  0  0
 23 82  1  0  0  0  0
 24 83  1  0  0  0  0
 25 27  2  0  0  0  0
 25 82  1  0  0  0  0
 26 84  1  0  0  0  0
 27 85  1  0  0  0  0
 28 66  2  0  0  0  0
 29 59  1  0  0  0  0
 29 64  2  0  0  0  0
 30 65  1  0  0  0  0
 30 72  1  0  0  0  0
 31 67  1  0  0  0  0
 31 70  1  0  0  0  0
 32 71  1  0  0  0  0
 32 77  2  0  0  0  0
 33 47  1  0  0  0  0
 33 73  1  0  0  0  0
 33 78  2  0  0  0  0
 34 60  1  0  0  0  0
 34 68  1  0  0  0  0
 34 79  2  0  0  0  0
 35 61  1  0  0  0  0
 35 74  1  0  0  0  0
 35 80  2  0  0  0  0
 36 69  1  0  0  0  0
 36 72  1  0  0  0  0
 36 81  2  0  0  0  0
 37 40  1  0  0  0  0
 38 47  1  0  0  0  0
 39 68  1  0  0  0  0
 40 42  1  0  0  0  0
 41 43  1  0  0  0  0
 41 44  1  0  0  0  0
 42 46  1  0  0  0  0
 43 48  1  0  0  0  0
 44 69  1  0  0  0  0
 45 48  1  0  0  0  0
 45 69  1  0  0  0  0
 46 73  1  0  0  0  0
 47 68  1  0  0  0  0
 48 67  1  0  0  0  0
 49 59  1  0  0  0  0
 50 61  1  0  0  0  0
 51 62  1  0  0  0  0
 52 63  1  0  0  0  0
 53 63  1  0  0  0  0
 54 63  1  0  0  0  0
 55 75  1  0  0  0  0
 56 59  1  0  0  0  0
 56 76  1  0  0  0  0
 57 62  1  0  0  0  0
 57 76  1  0  0  0  0
 58 62  1  0  0  0  0
 58 83  1  0  0  0  0
 60 63  1  0  0  0  0
 60 74  1  0  0  0  0
 61 75  1  0  0  0  0
 66 67  1  0  0  0  0
M  CHG  2  75   1  76   1
M  ISO  4  36 100  58 101  72 100  83 101
M  END
> <Batch ID>
0180

> <Smiles>
CNC(C)C(=O)NC(C(=O)N1Cc2cc([101O:1][101CH2:1]C(C)CNCC(C)c3cnc([100NH:0][100C:0](=O)N4CCCC(n5nc(-c6ccc(Oc7ccc(F)cc7F)cc6)c(C(N)=O)c5N)C4)cn3)ccc2CC1C(=O)NC1CCCc2ccccc21)C(C)(C)C

> <Shape>
0.195

> <Color>
0.078

> <Negative vol penalty>
0.000

$$$$

  -OEChem-04052323003D

 81 90  0     1  0  0  0  0  0999 V2000
  -17.7739  -31.9134   24.2510 C   0  0  0  0  0  0  0  0  0  0  0  0
  -19.0004  -32.3133   23.7300 C   0  0  0  0  0  0  0  0  0  0  0  0
  -20.5550  -18.7153   21.3460 C   0  0  0  0  0  0  0  0  0  0  0  0
  -20.7879  -18.6819   18.9415 C   0  0  0  0  0  0  0  0  0  0  0  0
  -17.6061  -30.6087   24.7130 C   0  0  0  0  0  0  0  0  0  0  0  0
  -20.0600  -31.4088   23.6717 C   0  0  0  0  0  0  0  0  0  0  0  0
  -25.7663  -29.7452   19.6732 C   0  0  0  0  0  0  0  0  0  0  0  0
  -19.2920  -19.2926   21.2157 C   0  0  0  0  0  0  0  0  0  0  0  0
  -19.5248  -19.2592   18.8112 C   0  0  0  0  0  0  0  0  0  0  0  0
  -27.1382  -29.5271   19.7921 C   0  0  0  0  0  0  0  0  0  0  0  0
  -16.3015  -18.2549   18.9608 C   0  0  0  0  0  0  0  0  0  0  0  0
  -15.4389  -17.7143   18.0073 C   0  0  0  0  0  0  0  0  0  0  0  0
  -30.3973  -25.0473   17.2049 C   0  0  0  0  0  0  0  0  0  0  0  0
  -26.7089  -27.2763   20.5463 C   0  0  0  0  0  0  0  0  0  0  0  0
  -15.3475  -19.8490   16.8796 C   0  0  0  0  0  0  0  0  0  0  0  0
  -30.5422  -26.4094   17.3058 C   0  0  0  0  0  0  0  0  0  0  0  0
  -21.3030  -18.4100   20.2089 C   0  0  0  0  0  0  0  0  0  0  0  0
  -22.9148  -16.4411   20.3915 C   0  0  0  0  0  0  0  0  0  0  0  0
  -18.6614  -29.6850   24.6514 C   0  0  0  0  0  0  0  0  0  0  0  0
  -24.8535  -28.7324   20.0009 C   0  0  0  0  0  0  0  0  0  0  0  0
  -19.9065  -30.0908   24.1345 C   0  0  0  0  0  0  0  0  0  0  0  0
  -25.3260  -27.4832   20.4282 C   0  0  0  0  0  0  0  0  0  0  0  0
  -18.7768  -19.5645   19.9483 C   0  0  0  0  0  0  0  0  0  0  0  0
  -27.6096  -28.2935   20.2315 C   0  0  0  0  0  0  0  0  0  0  0  0
  -16.6871  -19.5926   18.8738 C   0  0  0  0  0  0  0  0  0  0  0  0
  -14.9619  -18.5113   16.9667 C   0  0  0  0  0  0  0  0  0  0  0  0
  -16.2101  -20.3896   17.8332 C   0  0  0  0  0  0  0  0  0  0  0  0
  -22.6081  -17.8142   20.3429 C   0  0  0  0  0  0  0  0  0  0  0  0
  -30.6246  -24.5715   18.5102 C   0  0  0  0  0  0  0  0  0  0  0  0
  -24.2813  -16.3990   20.5236 C   0  0  0  0  0  0  0  0  0  0  0  0
  -22.0425  -15.3053   20.3233 C   0  0  0  0  0  0  0  0  0  0  0  0
  -22.5332  -28.4131   22.1498 C   0  0  0  0  0  0  0  0  0  0  0  0
  -21.9786  -25.6379   20.5644 C   0  0  0  0  0  0  0  0  0  0  0  0
  -23.9576  -22.9851   19.1279 C   0  0  0  0  0  0  0  0  0  0  0  0
  -28.4212  -20.3525   18.9054 C   0  0  0  0  0  0  0  0  0  0  0  0
  -18.4464  -28.2992   25.2065 C   0  0  0  0  0  0  0  0  0  0  0  0
  -23.3776  -28.9747   19.8417 C   0  0  0  0  0  0  0  0  0  0  0  0
  -24.3882  -26.3563   20.7732 C   0  0  0  0  0  0  0  0  0  0  0  0
  -19.5072  -27.2946   24.7640 C   0  0  0  0  0  0  0  0  0  0  0  0
  -27.9730  -18.8653   22.2375 C   0  0  0  0  0  0  0  0  0  0  0  0
  -20.9032  -27.8904   24.9160 C   0  0  0  0  0  0  0  0  0  0  0  0
  -26.5347  -18.3684   22.1448 C   0  0  0  0  0  0  0  0  0  0  0  0
  -28.2029  -20.1423   21.4288 C   0  0  0  0  0  0  0  0  0  0  0  0
  -29.4295  -22.5541   19.8464 C   0  0  0  0  0  0  0  0  0  0  0  0
  -30.0611  -22.0066   17.8930 C   0  0  0  0  0  0  0  0  0  0  0  0
  -26.3249  -19.5273   19.9196 C   0  0  0  0  0  0  0  0  0  0  0  0
  -21.0725  -29.1316   24.0316 C   0  0  1  0  0  0  0  0  0  0  0  0
  -30.5683  -23.0404   18.9196 C   0  0  0  0  0  0  0  0  0  0  0  0
  -22.5234  -28.0413   20.6940 C   0  0  1  0  0  0  0  0  0  0  0  0
  -26.1176  -18.2081   20.6757 C   0  0  2  0  0  0  0  0  0  0  0  0
  -23.4530  -21.4131   17.2381 C   0  0  0  0  0  0  0  0  0  0  0  0
  -21.0130  -23.7605   22.7673 C   0  0  0  0  0  0  0  0  0  0  0  0
  -22.0082  -21.8553   21.4837 C   0  0  0  0  0  0  0  0  0  0  0  0
  -20.1675  -23.2067   20.4798 C   0  0  0  0  0  0  0  0  0  0  0  0
  -26.4164  -23.7592   17.6739 C   0  0  0  0  0  0  0  0  0  0  0  0
  -31.0896  -28.0094   19.2350 C   0  0  0  0  0  0  0  0  0  0  0  0
  -29.8020  -28.7951   19.4584 C   0  0  0  0  0  0  0  0  0  1  0  0
  -22.4753  -24.2178   20.6892 C   0  0  1  0  0  0  0  0  0  0  0  0
  -24.1559  -22.6970   17.6507 C   0  0  2  0  0  0  0  0  0  0  0  0
  -21.4321  -23.2822   21.3629 C   0  0  0  0  0  0  0  0  0  0  0  0
  -23.6925  -18.5884   20.4367 N   0  0  0  0  0  0  0  0  0  0  0  0
  -30.8937  -25.5517   19.3767 N   0  0  0  0  0  0  0  0  0  0  0  0
  -30.8364  -26.6570   18.6144 N   0  0  0  0  0  0  0  0  0  0  0  0
  -24.6939  -17.6988   20.5456 N   0  0  0  0  0  0  0  0  0  0  0  0
  -22.9539  -26.6443   20.6072 N   0  0  0  0  0  0  0  0  0  0  0  0
  -27.6962  -20.0290   20.0573 N   0  0  0  0  0  0  0  0  0  0  0  0
  -29.3480  -21.3715   18.9976 N   0  0  0  0  0  0  0  0  0  0  0  0
  -25.1581  -15.3773   20.6220 N   0  0  0  0  0  0  0  0  0  0  0  0
  -20.6654  -15.5277   20.1875 N   0  0  0  0  0  0  0  0  0  0  0  0
  -21.2901  -28.7448   22.6541 N   0  0  0  0  0  0  0  0  0  0  0  0
  -22.8702  -23.8041   19.3471 N   0  0  0  0  0  0  0  0  0  0  0  0
  -25.6069  -22.5591   17.3401 N   0  3  0  0  0  0  0  0  0  0  0  0
  -22.4699  -14.1283   20.3974 O   0  0  0  0  0  0  0  0  0  0  0  0
  -23.5900  -28.3986   22.7700 O   0  0  0  0  0  0  0  0  0  0  0  0
  -20.7706  -25.8463   20.4267 O   0  0  0  0  0  0  0  0  0  0  0  0
  -24.6916  -22.5263   20.0005 O   0  0  0  0  0  0  0  0  0  0  0  0
  -28.2286  -19.7797   17.8254 O   0  0  0  0  0  0  0  0  0  0  0  0
  -17.5443  -20.1276   19.8207 O   0  0  0  0  0  0  0  0  0  0  0  0
  -28.9481  -28.0782   20.3491 O   0  0  0  0  0  0  0  0  0  1  0  0
  -14.1347  -17.9916   16.0503 F   0  0  0  0  0  0  0  0  0  0  0  0
  -16.5779  -21.6751   17.7437 F   0  0  0  0  0  0  0  0  0  0  0  0
  1  2  1  0  0  0  0
  1  5  2  0  0  0  0
  2  6  2  0  0  0  0
  3  8  2  0  0  0  0
  3 17  1  0  0  0  0
  4  9  1  0  0  0  0
  4 17  2  0  0  0  0
  5 19  1  0  0  0  0
  6 21  1  0  0  0  0
  7 10  2  0  0  0  0
  7 20  1  0  0  0  0
  8 23  1  0  0  0  0
  9 23  2  0  0  0  0
 10 24  1  0  0  0  0
 11 12  2  0  0  0  0
 11 25  1  0  0  0  0
 12 26  1  0  0  0  0
 13 16  2  0  0  0  0
 13 29  1  0  0  0  0
 14 22  1  0  0  0  0
 14 24  2  0  0  0  0
 15 26  2  0  0  0  0
 15 27  1  0  0  0  0
 16 63  1  0  0  0  0
 17 28  1  0  0  0  0
 18 28  1  0  0  0  0
 18 30  2  0  0  0  0
 18 31  1  0  0  0  0
 19 21  2  0  0  0  0
 19 36  1  0  0  0  0
 20 22  2  0  0  0  0
 20 37  1  0  0  0  0
 21 47  1  0  0  0  0
 22 38  1  0  0  0  0
 23 78  1  0  0  0  0
 24 79  1  0  0  0  0
 25 27  2  0  0  0  0
 25 78  1  0  0  0  0
 26 80  1  0  0  0  0
 27 81  1  0  0  0  0
 28 61  2  0  0  0  0
 29 48  1  0  0  0  0
 29 62  2  0  0  0  0
 30 64  1  0  0  0  0
 30 68  1  0  0  0  0
 31 69  1  0  0  0  0
 31 73  2  0  0  0  0
 32 49  1  0  0  0  0
 32 70  1  0  0  0  0
 32 74  2  0  0  0  0
 33 58  1  0  0  0  0
 33 65  1  0  0  0  0
 33 75  2  0  0  0  0
 34 59  1  0  0  0  0
 34 71  1  0  0  0  0
 34 76  2  0  0  0  0
 35 66  1  0  0  0  0
 35 67  1  0  0  0  0
 35 77  2  0  0  0  0
 36 39  1  0  0  0  0
 37 49  1  0  0  0  0
 38 65  1  0  0  0  0
 39 41  1  0  0  0  0
 40 42  1  0  0  0  0
 40 43  1  0  0  0  0
 41 47  1  0  0  0  0
 42 50  1  0  0  0  0
 43 66  1  0  0  0  0
 44 48  1  0  0  0  0
 44 67  1  0  0  0  0
 45 48  1  0  0  0  0
 45 67  1  0  0  0  0
 46 50  1  0  0  0  0
 46 66  1  0  0  0  0
 47 70  1  0  0  0  0
 49 65  1  0  0  0  0
 50 64  1  0  0  0  0
 51 59  1  0  0  0  0
 52 60  1  0  0  0  0
 53 60  1  0  0  0  0
 54 60  1  0  0  0  0
 55 72  1  0  0  0  0
 56 57  1  0  0  0  0
 56 63  1  0  0  0  0
 57 79  1  0  0  0  0
 58 60  1  0  0  0  0
 58 71  1  0  0  0  0
 59 72  1  0  0  0  0
 61 64  1  0  0  0  0
 62 63  1  0  0  0  0
M  CHG  1  72   1
M  ISO  4  35 100  57 101  67 100  79 101
M  END
> <Batch ID>
0180

> <Smiles>
CNC(C)C(=O)NC(C(=O)N1Cc2cc([101O:1][101CH2:1]Cn3ccc(C4C[100N:0]([100C:0](=O)N5CCCC(n6nc(-c7ccc(Oc8ccc(F)cc8F)cc7)c(C(N)=O)c6N)C5)C4)n3)ccc2CC1C(=O)NC1CCCc2ccccc21)C(C)(C)C

> <Shape>
0.175

> <Color>
0.116

> <Negative vol penalty>
0.000

$$$$

  -OEChem-04052323003D

 83 92  0     1  0  0  0  0  0999 V2000
  -18.7491  -32.1329   26.3135 C   0  0  0  0  0  0  0  0  0  0  0  0
  -20.0777  -31.7202   26.3177 C   0  0  0  0  0  0  0  0  0  0  0  0
  -27.5896  -11.1746   20.4325 C   0  0  0  0  0  0  0  0  0  0  0  0
  -26.8940  -12.6067   18.6153 C   0  0  0  0  0  0  0  0  0  0  0  0
  -17.8788  -31.6671   25.3289 C   0  0  0  0  0  0  0  0  0  0  0  0
  -20.5364  -30.8406   25.3377 C   0  0  0  0  0  0  0  0  0  0  0  0
  -26.4026  -29.2935   21.5284 C   0  0  0  0  0  0  0  0  0  0  0  0
  -28.8180  -24.1437   17.4234 C   0  0  0  0  0  0  0  0  0  0  0  0
  -26.4812  -10.3569   20.2124 C   0  0  0  0  0  0  0  0  0  0  0  0
  -25.7856  -11.7890   18.3951 C   0  0  0  0  0  0  0  0  0  0  0  0
  -27.2223  -28.2134   21.2038 C   0  0  0  0  0  0  0  0  0  0  0  0
  -23.1758  -10.3995   20.9174 C   0  0  0  0  0  0  0  0  0  0  0  0
  -22.4454   -9.9855   22.0312 C   0  0  0  0  0  0  0  0  0  0  0  0
  -29.7394  -23.1166   17.2526 C   0  0  0  0  0  0  0  0  0  0  0  0
  -25.6479  -27.5366   19.5060 C   0  0  0  0  0  0  0  0  0  0  0  0
  -22.9078   -7.6797   21.4774 C   0  0  0  0  0  0  0  0  0  0  0  0
  -27.7960  -12.2995   19.6340 C   0  0  0  0  0  0  0  0  0  0  0  0
  -30.2158  -13.0240   19.2776 C   0  0  0  0  0  0  0  0  0  0  0  0
  -18.3294  -30.7890   24.3307 C   0  0  0  0  0  0  0  0  0  0  0  0
  -25.1922  -29.4974   20.8505 C   0  0  0  0  0  0  0  0  0  0  0  0
  -19.6710  -30.3617   24.3395 C   0  0  0  0  0  0  0  0  0  0  0  0
  -24.8159  -28.6215   19.8221 C   0  0  0  0  0  0  0  0  0  0  0  0
  -28.1858  -24.3060   18.6511 C   0  0  0  0  0  0  0  0  0  0  0  0
  -25.5792  -10.6641   19.1937 C   0  0  0  0  0  0  0  0  0  0  0  0
  -26.8436  -27.3331   20.1945 C   0  0  0  0  0  0  0  0  0  0  0  0
  -23.7722   -9.4536   20.0835 C   0  0  0  0  0  0  0  0  0  0  0  0
  -22.3114   -8.6256   22.3113 C   0  0  0  0  0  0  0  0  0  0  0  0
  -23.6382   -8.0938   20.3635 C   0  0  0  0  0  0  0  0  0  0  0  0
  -28.9405  -13.1449   19.8612 C   0  0  0  0  0  0  0  0  0  0  0  0
  -29.9916  -22.2854   18.3321 C   0  0  0  0  0  0  0  0  0  0  0  0
  -28.5074  -23.4214   19.6680 C   0  0  0  0  0  0  0  0  0  0  0  0
  -30.9393  -14.0600   19.8160 C   0  0  0  0  0  0  0  0  0  0  0  0
  -30.7030  -12.0615   18.3332 C   0  0  0  0  0  0  0  0  0  0  0  0
  -22.1296  -29.5645   21.6990 C   0  0  0  0  0  0  0  0  0  0  0  0
  -21.6989  -30.4821   18.6177 C   0  0  0  0  0  0  0  0  0  0  0  0
  -22.8720  -30.5134   15.4131 C   0  0  0  0  0  0  0  0  0  0  0  0
  -31.2129  -19.5094   21.2476 C   0  0  0  0  0  0  0  0  0  0  0  0
  -17.3399  -30.2754   23.3149 C   0  0  0  0  0  0  0  0  0  0  0  0
  -24.3321  -30.6825   21.1943 C   0  0  0  0  0  0  0  0  0  0  0  0
  -23.5361  -28.8079   19.0503 C   0  0  0  0  0  0  0  0  0  0  0  0
  -17.9966  -29.6397   22.0923 C   0  0  0  0  0  0  0  0  0  0  0  0
  -29.9211  -17.1680   23.6452 C   0  0  0  0  0  0  0  0  0  0  0  0
  -19.1070  -28.6847   22.5187 C   0  0  0  0  0  0  0  0  0  0  0  0
  -29.6037  -15.9231   22.8232 C   0  0  0  0  0  0  0  0  0  0  0  0
  -29.6630  -18.4331   22.8380 C   0  0  0  0  0  0  0  0  0  0  0  0
  -32.1206  -20.9600   19.3583 C   0  0  0  0  0  0  0  0  0  0  0  0
  -30.5580  -19.6638   18.7222 C   0  0  0  0  0  0  0  0  0  0  0  0
  -30.1621  -17.2432   20.7193 C   0  0  0  0  0  0  0  0  0  0  0  0
  -20.2122  -29.4279   23.2788 C   0  0  1  0  0  0  0  0  0  0  0  0
  -31.0261  -21.0697   18.2701 C   0  0  0  0  0  0  0  0  0  0  0  0
  -22.8730  -30.4999   20.7881 C   0  0  1  0  0  0  0  0  0  0  0  0
  -30.3891  -15.9356   21.5039 C   0  0  2  0  0  0  0  0  0  0  0  0
  -22.2814  -31.3069   13.1068 C   0  0  0  0  0  0  0  0  0  0  0  0
  -19.6868  -28.2038   18.3517 C   0  0  0  0  0  0  0  0  0  0  0  0
  -19.8542  -28.4393   15.8648 C   0  0  0  0  0  0  0  0  0  0  0  0
  -19.0005  -30.3368   17.2408 C   0  0  0  0  0  0  0  0  0  0  0  0
  -28.1225  -22.7272   22.0335 C   0  0  0  0  0  0  0  0  0  0  0  0
  -25.2743  -32.2356   15.2647 C   0  0  0  0  0  0  0  0  0  0  0  0
  -27.1920  -25.4156   18.8316 C   0  0  0  0  0  0  0  0  0  1  0  0
  -21.4619  -29.7635   17.3114 C   0  0  1  0  0  0  0  0  0  0  0  0
  -23.0083  -31.6368   14.4012 C   0  0  2  0  0  0  0  0  0  0  0  0
  -20.0241  -29.1809   17.2078 C   0  0  0  0  0  0  0  0  0  0  0  0
  -28.8555  -14.1761   20.7058 N   0  0  0  0  0  0  0  0  0  0  0  0
  -29.3972  -22.4118   19.5397 N   0  0  0  0  0  0  0  0  0  0  0  0
  -30.0867  -14.7127   20.6569 N   0  0  0  0  0  0  0  0  0  0  0  0
  -22.7261  -29.9779   19.4279 N   0  0  0  0  0  0  0  0  0  0  0  0
  -30.3822  -18.4278   21.5607 N   0  0  0  0  0  0  0  0  0  0  0  0
  -31.3479  -19.8629   19.9243 N   0  0  0  0  0  0  0  0  0  0  0  0
  -32.2154  -14.4671   19.6475 N   0  0  0  0  0  0  0  0  0  0  0  0
  -29.8269  -11.0642   17.8835 N   0  0  0  0  0  0  0  0  0  0  0  0
  -27.8658  -23.5829   20.9214 N   0  0  0  0  0  0  0  0  0  0  0  0
  -21.0635  -30.1482   22.3563 N   0  0  0  0  0  0  0  0  0  0  0  0
  -21.7994  -30.7128   16.2562 N   0  0  0  0  0  0  0  0  0  0  0  0
  -24.4446  -31.8780   14.0853 N   0  3  0  0  0  0  0  0  0  0  0  0
  -31.8849  -12.0753   17.9134 O   0  0  0  0  0  0  0  0  0  0  0  0
  -22.4952  -28.3990   21.7971 O   0  0  0  0  0  0  0  0  0  0  0  0
  -21.0031  -31.4592   18.9053 O   0  0  0  0  0  0  0  0  0  0  0  0
  -23.6381  -29.5530   15.4493 O   0  0  0  0  0  0  0  0  0  0  0  0
  -31.7939  -20.1620   22.1249 O   0  0  0  0  0  0  0  0  0  0  0  0
  -24.4976   -9.8663   18.9785 O   0  0  0  0  0  0  0  0  0  0  0  0
  -27.6415  -26.2777   19.8761 O   0  0  0  0  0  0  0  0  0  1  0  0
  -21.6113   -8.2282   23.3818 F   0  0  0  0  0  0  0  0  0  0  0  0
  -24.2099   -7.1805   19.5667 F   0  0  0  0  0  0  0  0  0  0  0  0
  1  2  1  0  0  0  0
  1  5  2  0  0  0  0
  2  6  2  0  0  0  0
  3  9  2  0  0  0  0
  3 17  1  0  0  0  0
  4 10  1  0  0  0  0
  4 17  2  0  0  0  0
  5 19  1  0  0  0  0
  6 21  1  0  0  0  0
  7 11  2  0  0  0  0
  7 20  1  0  0  0  0
  8 14  2  0  0  0  0
  8 23  1  0  0  0  0
  9 24  1  0  0  0  0
 10 24  2  0  0  0  0
 11 25  1  0  0  0  0
 12 13  2  0  0  0  0
 12 26  1  0  0  0  0
 13 27  1  0  0  0  0
 14 30  1  0  0  0  0
 15 22  1  0  0  0  0
 15 25  2  0  0  0  0
 16 27  2  0  0  0  0
 16 28  1  0  0  0  0
 17 29  1  0  0  0  0
 18 29  1  0  0  0  0
 18 32  2  0  0  0  0
 18 33  1  0  0  0  0
 19 21  2  0  0  0  0
 19 38  1  0  0  0  0
 20 22  2  0  0  0  0
 20 39  1  0  0  0  0
 21 49  1  0  0  0  0
 22 40  1  0  0  0  0
 23 31  2  0  0  0  0
 23 59  1  0  0  0  0
 24 80  1  0  0  0  0
 25 81  1  0  0  0  0
 26 28  2  0  0  0  0
 26 80  1  0  0  0  0
 27 82  1  0  0  0  0
 28 83  1  0  0  0  0
 29 63  2  0  0  0  0
 30 50  1  0  0  0  0
 30 64  2  0  0  0  0
 31 64  1  0  0  0  0
 31 71  1  0  0  0  0
 32 65  1  0  0  0  0
 32 69  1  0  0  0  0
 33 70  1  0  0  0  0
 33 75  2  0  0  0  0
 34 51  1  0  0  0  0
 34 72  1  0  0  0  0
 34 76  2  0  0  0  0
 35 60  1  0  0  0  0
 35 66  1  0  0  0  0
 35 77  2  0  0  0  0
 36 61  1  0  0  0  0
 36 73  1  0  0  0  0
 36 78  2  0  0  0  0
 37 67  1  0  0  0  0
 37 68  1  0  0  0  0
 37 79  2  0  0  0  0
 38 41  1  0  0  0  0
 39 51  1  0  0  0  0
 40 66  1  0  0  0  0
 41 43  1  0  0  0  0
 42 44  1  0  0  0  0
 42 45  1  0  0  0  0
 43 49  1  0  0  0  0
 44 52  1  0  0  0  0
 45 67  1  0  0  0  0
 46 50  1  0  0  0  0
 46 68  1  0  0  0  0
 47 50  1  0  0  0  0
 47 68  1  0  0  0  0
 48 52  1  0  0  0  0
 48 67  1  0  0  0  0
 49 72  1  0  0  0  0
 51 66  1  0  0  0  0
 52 65  1  0  0  0  0
 53 61  1  0  0  0  0
 54 62  1  0  0  0  0
 55 62  1  0  0  0  0
 56 62  1  0  0  0  0
 57 71  1  0  0  0  0
 58 74  1  0  0  0  0
 59 81  1  0  0  0  0
 60 62  1  0  0  0  0
 60 73  1  0  0  0  0
 61 74  1  0  0  0  0
 63 65  1  0  0  0  0
M  CHG  1  74   1
M  ISO  4  37 100  59 101  68 100  81 101
M  END
> <Batch ID>
0180

> <Smiles>
CNc1nc(C2C[100N:0]([100C:0](=O)N3CCCC(n4nc(-c5ccc(Oc6ccc(F)cc6F)cc5)c(C(N)=O)c4N)C3)C2)ccc1[101CH2:1][101O:1]c1ccc2c(c1)CN(C(=O)C(NC(=O)C(C)NC)C(C)(C)C)C(C(=O)NC1CCCc3ccccc31)C2

> <Shape>
0.277

> <Color>
0.087

> <Negative vol penalty>
0.000

$$$$

  -OEChem-04052323003D

 83 92  0     1  0  0  0  0  0999 V2000
  -26.2090  -18.8024   24.4025 C   0  0  0  0  0  0  0  0  0  0  0  0
  -26.7750  -19.9074   23.7747 C   0  0  0  0  0  0  0  0  0  0  0  0
  -25.8599  -15.4181   21.0674 C   0  0  0  0  0  0  0  0  0  0  0  0
  -27.5027  -14.9360   19.3628 C   0  0  0  0  0  0  0  0  0  0  0  0
  -24.8285  -18.6110   24.3631 C   0  0  0  0  0  0  0  0  0  0  0  0
  -25.9609  -20.8211   23.1062 C   0  0  0  0  0  0  0  0  0  0  0  0
  -27.1821  -25.6268   24.1349 C   0  0  0  0  0  0  0  0  0  0  0  0
  -25.5939  -14.0550   21.1967 C   0  0  0  0  0  0  0  0  0  0  0  0
  -27.2369  -13.5728   19.4922 C   0  0  0  0  0  0  0  0  0  0  0  0
  -28.2963  -26.1541   23.4835 C   0  0  0  0  0  0  0  0  0  0  0  0
  -24.2259  -10.7266   21.7198 C   0  0  0  0  0  0  0  0  0  0  0  0
  -22.8908  -10.3279   21.7838 C   0  0  0  0  0  0  0  0  0  0  0  0
  -26.8441  -27.2503   21.8997 C   0  0  0  0  0  0  0  0  0  0  0  0
  -22.4987  -11.2912   19.6031 C   0  0  0  0  0  0  0  0  0  0  0  0
  -29.3888  -26.0035   17.5311 C   0  0  0  0  0  0  0  0  0  0  0  0
  -26.8142  -15.8587   20.1504 C   0  0  0  0  0  0  0  0  0  0  0  0
  -28.0454  -18.0177   20.7251 C   0  0  0  0  0  0  0  0  0  0  0  0
  -23.9961  -19.5280   23.7021 C   0  0  0  0  0  0  0  0  0  0  0  0
  -25.8887  -25.8990   23.6663 C   0  0  0  0  0  0  0  0  0  0  0  0
  -24.5681  -20.6410   23.0569 C   0  0  0  0  0  0  0  0  0  0  0  0
  -25.7150  -26.7274   22.5484 C   0  0  0  0  0  0  0  0  0  0  0  0
  -29.9446  -24.7869   17.1912 C   0  0  0  0  0  0  0  0  0  0  0  0
  -26.2825  -13.1323   20.4091 C   0  0  0  0  0  0  0  0  0  0  0  0
  -28.1275  -26.9636   22.3640 C   0  0  0  0  0  0  0  0  0  0  0  0
  -24.6975  -11.4076   20.5975 C   0  0  0  0  0  0  0  0  0  0  0  0
  -22.0272  -10.6102   20.7254 C   0  0  0  0  0  0  0  0  0  0  0  0
  -23.8339  -11.6899   19.5392 C   0  0  0  0  0  0  0  0  0  0  0  0
  -27.0889  -17.2667   20.0159 C   0  0  0  0  0  0  0  0  0  0  0  0
  -30.9448  -24.3332   18.0265 C   0  0  0  0  0  0  0  0  0  0  0  0
  -27.9124  -19.2938   20.2347 C   0  0  0  0  0  0  0  0  0  0  0  0
  -30.7564  -26.1802   19.3382 C   0  0  0  0  0  0  0  0  0  0  0  0
  -28.9714  -17.5993   21.7366 C   0  0  0  0  0  0  0  0  0  0  0  0
  -23.4958  -24.1384   22.5358 C   0  0  0  0  0  0  0  0  0  0  0  0
  -21.8980  -26.9603   22.6149 C   0  0  0  0  0  0  0  0  0  0  0  0
  -22.0371  -30.3701   22.5918 C   0  0  0  0  0  0  0  0  0  0  0  0
  -27.3119  -22.8249   15.9550 C   0  0  0  0  0  0  0  0  0  0  0  0
  -22.5141  -19.2536   23.6462 C   0  0  0  0  0  0  0  0  0  0  0  0
  -24.6962  -25.3444   24.3961 C   0  0  0  0  0  0  0  0  0  0  0  0
  -24.3469  -27.0664   22.0175 C   0  0  0  0  0  0  0  0  0  0  0  0
  -21.6849  -20.4680   23.2363 C   0  0  0  0  0  0  0  0  0  0  0  0
  -24.3593  -21.3245   17.2618 C   0  0  0  0  0  0  0  0  0  0  0  0
  -22.3063  -21.1542   22.0240 C   0  0  0  0  0  0  0  0  0  0  0  0
  -24.8850  -20.1938   18.1478 C   0  0  0  0  0  0  0  0  0  0  0  0
  -31.7661  -28.3458   20.3041 C   0  0  0  0  0  0  0  0  0  0  0  0
  -32.6916  -27.2304   20.6774 C   0  0  0  0  0  0  0  0  0  0  0  0
  -25.2159  -21.5058   16.0106 C   0  0  0  0  0  0  0  0  0  0  0  0
  -27.1824  -20.5570   17.1535 C   0  0  0  0  0  0  0  0  0  0  0  0
  -23.7157  -21.6675   22.3428 C   0  0  1  0  0  0  0  0  0  0  0  0
  -23.4456  -25.2677   23.5257 C   0  0  1  0  0  0  0  0  0  0  0  0
  -26.3838  -20.3730   18.4553 C   0  0  2  0  0  0  0  0  0  0  0  0
  -31.2063  -26.9528   20.5301 C   0  0  0  0  0  0  0  0  0  0  0  0
  -31.6171  -23.0269   17.7587 C   0  0  0  0  0  0  0  0  0  0  0  0
  -20.5649  -32.4020   22.6279 C   0  0  0  0  0  0  0  0  0  0  0  0
  -21.2026  -26.5055   19.6790 C   0  0  0  0  0  0  0  0  0  0  0  0
  -20.5847  -28.9267   19.5225 C   0  0  0  0  0  0  0  0  0  0  0  0
  -19.3318  -27.4188   21.0649 C   0  0  0  0  0  0  0  0  0  0  0  0
  -23.2148  -31.3210   25.1349 C   0  0  0  0  0  0  0  0  0  0  0  0
  -29.4784  -24.0348   15.9984 C   0  0  0  0  0  0  0  0  0  0  0  0
  -30.4171  -26.7138   21.7711 C   0  0  0  0  0  0  0  0  0  1  0  0
  -21.6953  -28.1015   21.6477 C   0  0  1  0  0  0  0  0  0  0  0  0
  -21.3603  -31.4118   23.4643 C   0  0  2  0  0  0  0  0  0  0  0  0
  -20.7296  -27.7303   20.4871 C   0  0  0  0  0  0  0  0  0  0  0  0
  -29.7720  -26.7296   18.6017 N   0  0  0  0  0  0  0  0  0  0  0  0
  -26.3991  -18.0042   19.1417 N   0  0  0  0  0  0  0  0  0  0  0  0
  -31.3774  -25.0066   19.1127 N   0  0  0  0  0  0  0  0  0  0  0  0
  -26.9226  -19.2320   19.2984 N   0  0  0  0  0  0  0  0  0  0  0  0
  -23.2124  -26.4950   22.7618 N   0  0  0  0  0  0  0  0  0  0  0  0
  -26.6258  -21.6722   16.3716 N   0  0  0  0  0  0  0  0  0  0  0  0
  -28.5466  -20.4515   20.5175 N   0  0  0  0  0  0  0  0  0  0  0  0
  -28.9754  -16.2519   22.1226 N   0  0  0  0  0  0  0  0  0  0  0  0
  -23.6459  -22.8914   23.1120 N   0  0  0  0  0  0  0  0  0  0  0  0
  -21.2587  -29.2412   22.4470 N   0  0  0  0  0  0  0  0  0  0  0  0
  -28.6430  -22.9066   16.3452 N   0  0  0  0  0  0  0  0  0  0  0  0
  -22.3758  -32.1689   24.2494 N   0  3  0  0  0  0  0  0  0  0  0  0
  -29.7603  -18.3998   22.2936 O   0  0  0  0  0  0  0  0  0  0  0  0
  -23.4037  -24.3803   21.3380 O   0  0  0  0  0  0  0  0  0  0  0  0
  -20.9270  -26.5033   23.2231 O   0  0  0  0  0  0  0  0  0  0  0  0
  -23.1440  -30.5422   22.0860 O   0  0  0  0  0  0  0  0  0  0  0  0
  -26.7764  -23.7177   15.2894 O   0  0  0  0  0  0  0  0  0  0  0  0
  -26.0234  -11.8021   20.5352 O   0  0  0  0  0  0  0  0  0  0  0  0
  -29.2134  -27.4790   21.7259 O   0  0  0  0  0  0  0  0  0  1  0  0
  -20.7455  -10.2259   20.7862 F   0  0  0  0  0  0  0  0  0  0  0  0
  -24.2814  -12.3429   18.4579 F   0  0  0  0  0  0  0  0  0  0  0  0
  1  2  1  0  0  0  0
  1  5  2  0  0  0  0
  2  6  2  0  0  0  0
  3  8  2  0  0  0  0
  3 16  1  0  0  0  0
  4  9  1  0  0  0  0
  4 16  2  0  0  0  0
  5 18  1  0  0  0  0
  6 20  1  0  0  0  0
  7 10  2  0  0  0  0
  7 19  1  0  0  0  0
  8 23  1  0  0  0  0
  9 23  2  0  0  0  0
 10 24  1  0  0  0  0
 11 12  2  0  0  0  0
 11 25  1  0  0  0  0
 12 26  1  0  0  0  0
 13 21  1  0  0  0  0
 13 24  2  0  0  0  0
 14 26  2  0  0  0  0
 14 27  1  0  0  0  0
 15 22  1  0  0  0  0
 15 63  2  0  0  0  0
 16 28  1  0  0  0  0
 17 28  1  0  0  0  0
 17 30  2  0  0  0  0
 17 32  1  0  0  0  0
 18 20  2  0  0  0  0
 18 37  1  0  0  0  0
 19 21  2  0  0  0  0
 19 38  1  0  0  0  0
 20 48  1  0  0  0  0
 21 39  1  0  0  0  0
 22 29  2  0  0  0  0
 22 58  1  0  0  0  0
 23 80  1  0  0  0  0
 24 81  1  0  0  0  0
 25 27  2  0  0  0  0
 25 80  1  0  0  0  0
 26 82  1  0  0  0  0
 27 83  1  0  0  0  0
 28 64  2  0  0  0  0
 29 52  1  0  0  0  0
 29 65  1  0  0  0  0
 30 66  1  0  0  0  0
 30 69  1  0  0  0  0
 31 51  1  0  0  0  0
 31 63  1  0  0  0  0
 31 65  2  0  0  0  0
 32 70  1  0  0  0  0
 32 75  2  0  0  0  0
 33 49  1  0  0  0  0
 33 71  1  0  0  0  0
 33 76  2  0  0  0  0
 34 60  1  0  0  0  0
 34 67  1  0  0  0  0
 34 77  2  0  0  0  0
 35 61  1  0  0  0  0
 35 72  1  0  0  0  0
 35 78  2  0  0  0  0
 36 68  1  0  0  0  0
 36 73  1  0  0  0  0
 36 79  2  0  0  0  0
 37 40  1  0  0  0  0
 38 49  1  0  0  0  0
 39 67  1  0  0  0  0
 40 42  1  0  0  0  0
 41 43  1  0  0  0  0
 41 46  1  0  0  0  0
 42 48  1  0  0  0  0
 43 50  1  0  0  0  0
 44 45  1  0  0  0  0
 44 51  1  0  0  0  0
 45 51  1  0  0  0  0
 46 68  1  0  0  0  0
 47 50  1  0  0  0  0
 47 68  1  0  0  0  0
 48 71  1  0  0  0  0
 49 67  1  0  0  0  0
 50 66  1  0  0  0  0
 51 59  1  0  0  0  0
 53 61  1  0  0  0  0
 54 62  1  0  0  0  0
 55 62  1  0  0  0  0
 56 62  1  0  0  0  0
 57 74  1  0  0  0  0
 58 73  1  0  0  0  0
 59 81  1  0  0  0  0
 60 62  1  0  0  0  0
 60 72  1  0  0  0  0
 61 74  1  0  0  0  0
 64 66  1  0  0  0  0
M  CHG  1  74   1
M  ISO  4  36 100  59 101  73 100  81 101
M  END
> <Batch ID>
0180

> <Smiles>
CNC(C)C(=O)NC(C(=O)N1Cc2cc([101O:1][101CH2:1]C3(c4ncc(C[100NH:0][100C:0](=O)N5CCCC(n6nc(-c7ccc(Oc8ccc(F)cc8F)cc7)c(C(N)=O)c6N)C5)c(C)n4)CC3)ccc2CC1C(=O)NC1CCCc2ccccc21)C(C)(C)C

> <Shape>
0.200

> <Color>
0.056

> <Negative vol penalty>
0.000

$$$$

  -OEChem-04052323003D

 83 92  0     1  0  0  0  0  0999 V2000
  -29.9742  -35.8169   25.0564 C   0  0  0  0  0  0  0  0  0  0  0  0
  -30.1076  -35.1462   23.8448 C   0  0  0  0  0  0  0  0  0  0  0  0
  -23.4998   -9.8263   22.2375 C   0  0  0  0  0  0  0  0  0  0  0  0
  -24.7606   -8.3128   20.8386 C   0  0  0  0  0  0  0  0  0  0  0  0
  -29.2618  -35.2306   26.1017 C   0  0  0  0  0  0  0  0  0  0  0  0
  -29.5295  -33.8882   23.6783 C   0  0  0  0  0  0  0  0  0  0  0  0
  -26.4784  -29.7637   18.6787 C   0  0  0  0  0  0  0  0  0  0  0  0
  -22.3735   -9.0152   22.0999 C   0  0  0  0  0  0  0  0  0  0  0  0
  -23.6342   -7.5016   20.7011 C   0  0  0  0  0  0  0  0  0  0  0  0
  -26.5747  -28.4850   18.1316 C   0  0  0  0  0  0  0  0  0  0  0  0
  -22.0080   -5.1697   22.5282 C   0  0  0  0  0  0  0  0  0  0  0  0
  -22.1820   -3.7927   22.6666 C   0  0  0  0  0  0  0  0  0  0  0  0
  -25.2996  -27.6045   19.9804 C   0  0  0  0  0  0  0  0  0  0  0  0
  -21.3669   -3.4634   20.4163 C   0  0  0  0  0  0  0  0  0  0  0  0
  -27.2867  -24.0997   18.1001 C   0  0  0  0  0  0  0  0  0  0  0  0
  -29.0709  -25.1355   19.8187 C   0  0  0  0  0  0  0  0  0  0  0  0
  -24.6934   -9.4751   21.6067 C   0  0  0  0  0  0  0  0  0  0  0  0
  -26.8525  -10.2252   22.7396 C   0  0  0  0  0  0  0  0  0  0  0  0
  -28.6666  -33.9690   25.9447 C   0  0  0  0  0  0  0  0  0  0  0  0
  -25.8002  -29.9711   19.8884 C   0  0  0  0  0  0  0  0  0  0  0  0
  -28.8097  -33.2839   24.7230 C   0  0  0  0  0  0  0  0  0  0  0  0
  -25.1939  -28.8872   20.5394 C   0  0  0  0  0  0  0  0  0  0  0  0
  -22.4406   -7.8528   21.3318 C   0  0  0  0  0  0  0  0  0  0  0  0
  -25.9877  -27.4047   18.7839 C   0  0  0  0  0  0  0  0  0  0  0  0
  -21.5133   -5.6936   21.3338 C   0  0  0  0  0  0  0  0  0  0  0  0
  -21.8615   -2.9396   21.6107 C   0  0  0  0  0  0  0  0  0  0  0  0
  -21.1928   -4.8404   20.2778 C   0  0  0  0  0  0  0  0  0  0  0  0
  -25.8572  -10.3129   21.7480 C   0  0  0  0  0  0  0  0  0  0  0  0
  -28.3943  -23.3940   18.5240 C   0  0  0  0  0  0  0  0  0  0  0  0
  -27.1558  -25.3724   18.6172 C   0  0  0  0  0  0  0  0  0  1  0  0
  -27.7305  -11.2366   22.4352 C   0  0  0  0  0  0  0  0  0  0  0  0
  -26.9727   -9.3111   23.8377 C   0  0  0  0  0  0  0  0  0  0  0  0
  -26.6237  -31.0362   22.7678 C   0  0  0  0  0  0  0  0  0  0  0  0
  -23.4358  -30.8251   23.3291 C   0  0  0  0  0  0  0  0  0  0  0  0
  -20.4391  -29.4070   22.5193 C   0  0  0  0  0  0  0  0  0  0  0  0
  -26.7229  -16.2932   19.2841 C   0  0  0  0  0  0  0  0  0  0  0  0
  -27.9463  -33.3550   27.1189 C   0  0  0  0  0  0  0  0  0  0  0  0
  -25.6823  -31.3608   20.4517 C   0  0  0  0  0  0  0  0  0  0  0  0
  -24.4371  -29.0599   21.8301 C   0  0  0  0  0  0  0  0  0  0  0  0
  -27.0465  -32.1827   26.7363 C   0  0  0  0  0  0  0  0  0  0  0  0
  -29.3916  -13.7760   18.7394 C   0  0  0  0  0  0  0  0  0  0  0  0
  -27.7823  -31.2279   25.8015 C   0  0  0  0  0  0  0  0  0  0  0  0
  -28.8371  -12.5787   19.5127 C   0  0  0  0  0  0  0  0  0  0  0  0
  -29.1679  -19.0151   18.9305 C   0  0  0  0  0  0  0  0  0  0  0  0
  -28.2637  -14.6257   18.1687 C   0  0  0  0  0  0  0  0  0  0  0  0
  -28.9187  -17.5176   18.7805 C   0  0  0  0  0  0  0  0  0  0  0  0
  -26.7259  -13.9196   19.9613 C   0  0  0  0  0  0  0  0  0  0  0  0
  -26.8231  -18.6887   18.6534 C   0  0  0  0  0  0  0  0  0  0  0  0
  -28.1760  -31.9286   24.4955 C   0  0  1  0  0  0  0  0  0  0  0  0
  -25.4083  -31.3760   21.9524 C   0  0  1  0  0  0  0  0  0  0  0  0
  -27.8180  -13.0264   20.5763 C   0  0  1  0  0  0  0  0  0  0  0  0
  -27.9557  -19.6030   18.2237 C   0  0  1  0  0  0  0  0  0  0  0  0
  -18.0180  -29.4057   23.1792 C   0  0  0  0  0  0  0  0  0  0  0  0
  -24.1056  -29.1272   25.7743 C   0  0  0  0  0  0  0  0  0  0  0  0
  -21.7151  -28.3850   25.8271 C   0  0  0  0  0  0  0  0  0  0  0  0
  -22.2776  -30.7960   26.1320 C   0  0  0  0  0  0  0  0  0  0  0  0
  -19.5912  -30.3625   19.8497 C   0  0  0  0  0  0  0  0  0  0  0  0
  -28.6221  -22.0011   18.0152 C   0  0  0  0  0  0  0  0  0  0  0  0
  -22.5096  -29.7491   23.8424 C   0  0  1  0  0  0  0  0  0  0  0  0
  -19.0716  -30.0162   22.2681 C   0  0  2  0  0  0  0  0  0  0  0  0
  -22.6678  -29.5104   25.3706 C   0  0  0  0  0  0  0  0  0  0  0  0
  -29.3101  -23.8830   19.3857 N   0  0  0  0  0  0  0  0  0  0  0  0
  -28.0324  -25.9240   19.4819 N   0  0  0  0  0  0  0  0  0  0  0  0
  -26.0810  -11.3020   20.8787 N   0  0  0  0  0  0  0  0  0  0  0  0
  -27.2271  -11.8451   21.3233 N   0  0  0  0  0  0  0  0  0  0  0  0
  -24.3551  -30.4370   22.3442 N   0  0  0  0  0  0  0  0  0  0  0  0
  -27.3227  -15.0306   19.2168 N   0  0  0  0  0  0  0  0  0  0  0  0
  -27.4588  -17.3827   18.8203 N   0  0  0  0  0  0  0  0  0  0  0  0
  -28.8763  -11.6559   23.0129 N   0  0  0  0  0  0  0  0  0  0  0  0
  -25.9826   -8.3333   24.0045 N   0  0  0  0  0  0  0  0  0  0  0  0
  -27.0301  -32.0457   23.6194 N   0  0  0  0  0  0  0  0  0  0  0  0
  -21.1644  -30.1399   23.4348 N   0  0  0  0  0  0  0  0  0  0  0  0
  -27.7142  -20.9940   18.6405 N   0  3  0  0  0  0  0  0  0  0  0  0
  -18.6568  -29.7927   20.8543 N   0  3  0  0  0  0  0  0  0  0  0  0
  -27.9212   -9.3704   24.6565 O   0  0  0  0  0  0  0  0  0  0  0  0
  -27.1528  -29.9388   22.6353 O   0  0  0  0  0  0  0  0  0  0  0  0
  -23.3421  -31.9694   23.7802 O   0  0  0  0  0  0  0  0  0  0  0  0
  -20.8240  -28.3813   21.9622 O   0  0  0  0  0  0  0  0  0  0  0  0
  -25.5995  -16.4474   19.7812 O   0  0  0  0  0  0  0  0  0  0  0  0
  -21.3418   -7.0609   21.1976 O   0  0  0  0  0  0  0  0  0  0  0  0
  -26.0822  -26.1371   18.2446 O   0  0  0  0  0  0  0  0  0  1  0  0
  -22.0302   -1.6174   21.7433 F   0  0  0  0  0  0  0  0  0  0  0  0
  -20.7183   -5.3379   19.1275 F   0  0  0  0  0  0  0  0  0  0  0  0
  1  2  1  0  0  0  0
  1  5  2  0  0  0  0
  2  6  2  0  0  0  0
  3  8  2  0  0  0  0
  3 17  1  0  0  0  0
  4  9  1  0  0  0  0
  4 17  2  0  0  0  0
  5 19  1  0  0  0  0
  6 21  1  0  0  0  0
  7 10  2  0  0  0  0
  7 20  1  0  0  0  0
  8 23  1  0  0  0  0
  9 23  2  0  0  0  0
 10 24  1  0  0  0  0
 11 12  2  0  0  0  0
 11 25  1  0  0  0  0
 12 26  1  0  0  0  0
 13 22  1  0  0  0  0
 13 24  2  0  0  0  0
 14 26  2  0  0  0  0
 14 27  1  0  0  0  0
 15 29  2  0  0  0  0
 15 30  1  0  0  0  0
 16 62  2  0  0  0  0
 16 63  1  0  0  0  0
 17 28  1  0  0  0  0
 18 28  1  0  0  0  0
 18 31  2  0  0  0  0
 18 32  1  0  0  0  0
 19 21  2  0  0  0  0
 19 37  1  0  0  0  0
 20 22  2  0  0  0  0
 20 38  1  0  0  0  0
 21 49  1  0  0  0  0
 22 39  1  0  0  0  0
 23 80  1  0  0  0  0
 24 81  1  0  0  0  0
 25 27  2  0  0  0  0
 25 80  1  0  0  0  0
 26 82  1  0  0  0  0
 27 83  1  0  0  0  0
 28 64  2  0  0  0  0
 29 58  1  0  0  0  0
 29 62  1  0  0  0  0
 30 63  2  0  0  0  0
 30 81  1  0  0  0  0
 31 65  1  0  0  0  0
 31 69  1  0  0  0  0
 32 70  1  0  0  0  0
 32 75  2  0  0  0  0
 33 50  1  0  0  0  0
 33 71  1  0  0  0  0
 33 76  2  0  0  0  0
 34 59  1  0  0  0  0
 34 66  1  0  0  0  0
 34 77  2  0  0  0  0
 35 60  1  0  0  0  0
 35 72  1  0  0  0  0
 35 78  2  0  0  0  0
 36 67  1  0  0  0  0
 36 68  1  0  0  0  0
 36 79  2  0  0  0  0
 37 40  1  0  0  0  0
 38 50  1  0  0  0  0
 39 66  1  0  0  0  0
 40 42  1  0  0  0  0
 41 43  1  0  0  0  0
 41 45  1  0  0  0  0
 42 49  1  0  0  0  0
 43 51  1  0  0  0  0
 44 46  1  0  0  0  0
 44 52  1  0  0  0  0
 45 67  1  0  0  0  0
 46 68  1  0  0  0  0
 47 51  1  0  0  0  0
 47 67  1  0  0  0  0
 48 52  1  0  0  0  0
 48 68  1  0  0  0  0
 49 71  1  0  0  0  0
 50 66  1  0  0  0  0
 51 65  1  0  0  0  0
 52 73  1  0  0  0  0
 53 60  1  0  0  0  0
 54 61  1  0  0  0  0
 55 61  1  0  0  0  0
 56 61  1  0  0  0  0
 57 74  1  0  0  0  0
 58 73  1  0  0  0  0
 59 61  1  0  0  0  0
 59 72  1  0  0  0  0
 60 74  1  0  0  0  0
 64 65  1  0  0  0  0
M  CHG  2  73   1  74   1
M  ISO  4  30 101  36 100  68 100  81 101
M  END
> <Batch ID>
0180

> <Smiles>
CNC(C)C(=O)NC(C(=O)N1Cc2cc([101O:1][101c:1]3cc(CNC4CC[100N:0]([100C:0](=O)N5CCCC(n6nc(-c7ccc(Oc8ccc(F)cc8F)cc7)c(C(N)=O)c6N)C5)C4)ncn3)ccc2CC1C(=O)NC1CCCc2ccccc21)C(C)(C)C

> <Shape>
0.278

> <Color>
0.104

> <Negative vol penalty>
0.000

$$$$

  -OEChem-04052323003D

 87 96  0     1  0  0  0  0  0999 V2000
  -28.9870  -33.2197   24.6486 C   0  0  0  0  0  0  0  0  0  0  0  0
  -28.8665  -31.8914   24.2529 C   0  0  0  0  0  0  0  0  0  0  0  0
  -21.3041  -14.6540   20.0308 C   0  0  0  0  0  0  0  0  0  0  0  0
  -22.4121  -13.2302   21.6377 C   0  0  0  0  0  0  0  0  0  0  0  0
  -27.8564  -33.9334   25.0439 C   0  0  0  0  0  0  0  0  0  0  0  0
  -27.6154  -31.2757   24.2533 C   0  0  0  0  0  0  0  0  0  0  0  0
  -26.7803  -28.5703   20.0547 C   0  0  0  0  0  0  0  0  0  0  0  0
  -20.1348  -13.9075   20.1756 C   0  0  0  0  0  0  0  0  0  0  0  0
  -21.2427  -12.4837   21.7826 C   0  0  0  0  0  0  0  0  0  0  0  0
  -27.3883  -27.3184   19.9724 C   0  0  0  0  0  0  0  0  0  0  0  0
  -19.6098  -10.0573   20.0864 C   0  0  0  0  0  0  0  0  0  0  0  0
  -19.7242   -8.6672   20.0870 C   0  0  0  0  0  0  0  0  0  0  0  0
  -25.3108  -26.2739   20.6143 C   0  0  0  0  0  0  0  0  0  0  0  0
  -18.7726   -8.5899   22.3064 C   0  0  0  0  0  0  0  0  0  0  0  0
  -22.4429  -14.3153   20.7618 C   0  0  0  0  0  0  0  0  0  0  0  0
  -23.8210  -16.4593   20.8690 C   0  0  0  0  0  0  0  0  0  0  0  0
  -26.5893  -33.3290   25.0399 C   0  0  0  0  0  0  0  0  0  0  0  0
  -25.4336  -28.6843   20.4286 C   0  0  0  0  0  0  0  0  0  0  0  0
  -26.4670  -31.9816   24.6502 C   0  0  0  0  0  0  0  0  0  0  0  0
  -24.6873  -27.5282   20.6981 C   0  0  0  0  0  0  0  0  0  0  0  0
  -29.3180  -22.7802   20.9011 C   0  0  0  0  0  0  0  0  0  0  0  0
  -20.1041  -12.8224   21.0515 C   0  0  0  0  0  0  0  0  0  0  0  0
  -26.6544  -26.1702   20.2551 C   0  0  0  0  0  0  0  0  0  0  0  0
  -19.0768  -10.7138   21.1958 C   0  0  0  0  0  0  0  0  0  0  0  0
  -19.3056   -7.9335   21.1970 C   0  0  0  0  0  0  0  0  0  0  0  0
  -18.6582   -9.9801   22.3058 C   0  0  0  0  0  0  0  0  0  0  0  0
  -23.6513  -15.0856   20.6121 C   0  0  0  0  0  0  0  0  0  0  0  0
  -29.7354  -21.4758   20.7318 C   0  0  0  0  0  0  0  0  0  0  0  0
  -29.0784  -23.4858   19.7396 C   0  0  0  0  0  0  0  0  0  0  0  0
  -25.1402  -16.7032   20.5747 C   0  0  0  0  0  0  0  0  0  0  0  0
  -29.6425  -21.6864   18.4704 C   0  0  0  0  0  0  0  0  0  0  0  0
  -22.8711  -17.4282   21.3324 C   0  0  0  0  0  0  0  0  0  0  0  0
  -23.8838  -30.0561   22.8411 C   0  0  0  0  0  0  0  0  0  0  0  0
  -21.2619  -29.1685   21.1500 C   0  0  0  0  0  0  0  0  0  0  0  0
  -19.8786  -27.0769   18.8352 C   0  0  0  0  0  0  0  0  0  0  0  0
  -30.5313  -15.2879   20.8548 C   0  0  0  0  0  0  0  0  0  0  0  0
  -25.4030  -34.1266   25.5207 C   0  0  0  0  0  0  0  0  0  0  0  0
  -24.7851  -30.0403   20.4867 C   0  0  0  0  0  0  0  0  0  0  0  0
  -23.2330  -27.5951   21.0842 C   0  0  0  0  0  0  0  0  0  0  0  0
  -24.0596  -33.5128   25.1351 C   0  0  0  0  0  0  0  0  0  0  0  0
  -32.6994  -17.6981   24.2704 C   0  0  0  0  0  0  0  0  0  0  0  0
  -28.5870  -13.8112   18.2633 C   0  0  0  0  0  0  0  0  0  0  0  0
  -24.0516  -32.0165   25.4316 C   0  0  0  0  0  0  0  0  0  0  0  0
  -27.1442  -14.1190   18.6679 C   0  0  0  0  0  0  0  0  0  0  0  0
  -32.0557  -16.5091   23.5471 C   0  0  0  0  0  0  0  0  0  0  0  0
  -32.2416  -18.9550   23.5275 C   0  0  0  0  0  0  0  0  0  0  0  0
  -29.4652  -13.5249   19.4793 C   0  0  0  0  0  0  0  0  0  0  0  0
  -27.9971  -14.8764   20.9257 C   0  0  0  0  0  0  0  0  0  0  0  0
  -25.1234  -31.2862   24.6135 C   0  0  1  0  0  0  0  0  0  0  0  0
  -23.5467  -30.0727   21.3770 C   0  0  1  0  0  0  0  0  0  0  0  0
  -27.0858  -15.2267   19.7369 C   0  0  2  0  0  0  0  0  0  0  0  0
  -31.4416  -17.0944   22.2761 C   0  0  2  0  0  0  0  0  0  0  0  0
  -31.0366  -18.4906   22.7252 C   0  0  2  0  0  0  0  0  0  0  0  0
  -29.1365  -23.3852   22.2479 C   0  0  0  0  0  0  0  0  0  0  0  0
  -29.8200  -21.0781   17.1206 C   0  0  0  0  0  0  0  0  0  0  0  0
  -17.7051  -26.5699   17.6878 C   0  0  0  0  0  0  0  0  0  0  0  0
  -20.2502  -27.7938   23.6791 C   0  0  0  0  0  0  0  0  0  0  0  0
  -18.6127  -26.5405   22.2591 C   0  0  0  0  0  0  0  0  0  0  0  0
  -18.4981  -29.0289   22.3911 C   0  0  0  0  0  0  0  0  0  0  0  0
  -21.0128  -27.6775   16.1684 C   0  0  0  0  0  0  0  0  0  0  0  0
  -30.0249  -20.6148   21.9173 C   0  0  0  0  0  0  0  0  0  0  0  0
  -28.6212  -24.9137   19.7978 C   0  0  0  0  0  0  0  0  0  1  0  0
  -20.3836  -27.9415   21.1049 C   0  0  1  0  0  0  0  0  0  0  0  0
  -19.0081  -27.3514   17.6222 C   0  0  2  0  0  0  0  0  0  0  0  0
  -19.4641  -27.8247   22.3532 C   0  0  0  0  0  0  0  0  0  0  0  0
  -24.7730  -14.4981   20.1872 N   0  0  0  0  0  0  0  0  0  0  0  0
  -29.9088  -20.8946   19.5267 N   0  0  0  0  0  0  0  0  0  0  0  0
  -29.2311  -22.9683   18.5030 N   0  0  0  0  0  0  0  0  0  0  0  0
  -25.6601  -15.5075   20.1747 N   0  0  0  0  0  0  0  0  0  0  0  0
  -22.6458  -28.9443   21.1334 N   0  0  0  0  0  0  0  0  0  0  0  0
  -29.3659  -14.6140   20.4540 N   0  0  0  0  0  0  0  0  0  0  0  0
  -25.8946  -17.8218   20.6216 N   0  0  0  0  0  0  0  0  0  0  0  0
  -22.7358  -17.6238   22.7136 N   0  0  0  0  0  0  0  0  0  0  0  0
  -24.6821  -31.1086   23.2467 N   0  0  0  0  0  0  0  0  0  0  0  0
  -19.6650  -28.0002   19.8367 N   0  0  0  0  0  0  0  0  0  0  0  0
  -30.3476  -16.3111   21.7767 N   0  0  0  0  0  0  0  0  0  0  0  0
  -30.7888  -19.3834   21.5783 N   0  3  0  0  0  0  0  0  0  0  0  0
  -19.7242  -26.9671   16.3730 N   0  3  0  0  0  0  0  0  0  0  0  0
  -22.1515  -18.0888   20.5454 O   0  0  0  0  0  0  0  0  0  0  0  0
  -23.4505  -29.1558   23.5507 O   0  0  0  0  0  0  0  0  0  0  0  0
  -20.7392  -30.2851   21.1909 O   0  0  0  0  0  0  0  0  0  0  0  0
  -20.6664  -26.1351   18.8903 O   0  0  0  0  0  0  0  0  0  0  0  0
  -31.6518  -15.0026   20.4189 O   0  0  0  0  0  0  0  0  0  0  0  0
  -18.9631  -12.0939   21.1933 O   0  0  0  0  0  0  0  0  0  0  0  0
  -27.2456  -24.9470   20.1762 O   0  0  0  0  0  0  0  0  0  1  0  0
  -19.4141   -6.5984   21.1969 F   0  0  0  0  0  0  0  0  0  0  0  0
  -18.1442  -10.6050   23.3740 F   0  0  0  0  0  0  0  0  0  0  0  0
  1  2  1  0  0  0  0
  1  5  2  0  0  0  0
  2  6  2  0  0  0  0
  3  8  2  0  0  0  0
  3 15  1  0  0  0  0
  4  9  1  0  0  0  0
  4 15  2  0  0  0  0
  5 17  1  0  0  0  0
  6 19  1  0  0  0  0
  7 10  2  0  0  0  0
  7 18  1  0  0  0  0
  8 22  1  0  0  0  0
  9 22  2  0  0  0  0
 10 23  1  0  0  0  0
 11 12  2  0  0  0  0
 11 24  1  0  0  0  0
 12 25  1  0  0  0  0
 13 20  1  0  0  0  0
 13 23  2  0  0  0  0
 14 25  2  0  0  0  0
 14 26  1  0  0  0  0
 15 27  1  0  0  0  0
 16 27  1  0  0  0  0
 16 30  2  0  0  0  0
 16 32  1  0  0  0  0
 17 19  2  0  0  0  0
 17 37  1  0  0  0  0
 18 20  2  0  0  0  0
 18 38  1  0  0  0  0
 19 49  1  0  0  0  0
 20 39  1  0  0  0  0
 21 28  1  0  0  0  0
 21 29  2  0  0  0  0
 21 54  1  0  0  0  0
 22 84  1  0  0  0  0
 23 85  1  0  0  0  0
 24 26  2  0  0  0  0
 24 84  1  0  0  0  0
 25 86  1  0  0  0  0
 26 87  1  0  0  0  0
 27 66  2  0  0  0  0
 28 61  1  0  0  0  0
 28 67  2  0  0  0  0
 29 62  1  0  0  0  0
 29 68  1  0  0  0  0
 30 69  1  0  0  0  0
 30 72  1  0  0  0  0
 31 55  1  0  0  0  0
 31 67  1  0  0  0  0
 31 68  2  0  0  0  0
 32 73  1  0  0  0  0
 32 79  2  0  0  0  0
 33 50  1  0  0  0  0
 33 74  1  0  0  0  0
 33 80  2  0  0  0  0
 34 63  1  0  0  0  0
 34 70  1  0  0  0  0
 34 81  2  0  0  0  0
 35 64  1  0  0  0  0
 35 75  1  0  0  0  0
 35 82  2  0  0  0  0
 36 71  1  0  0  0  0
 36 76  1  0  0  0  0
 36 83  2  0  0  0  0
 37 40  1  0  0  0  0
 38 50  1  0  0  0  0
 39 70  1  0  0  0  0
 40 43  1  0  0  0  0
 41 45  1  0  0  0  0
 41 46  1  0  0  0  0
 42 44  1  0  0  0  0
 42 47  1  0  0  0  0
 43 49  1  0  0  0  0
 44 51  1  0  0  0  0
 45 52  1  0  0  0  0
 46 53  1  0  0  0  0
 47 71  1  0  0  0  0
 48 51  1  0  0  0  0
 48 71  1  0  0  0  0
 49 74  1  0  0  0  0
 50 70  1  0  0  0  0
 51 69  1  0  0  0  0
 52 53  1  0  0  0  0
 52 76  1  0  0  0  0
 53 77  1  0  0  0  0
 56 64  1  0  0  0  0
 57 65  1  0  0  0  0
 58 65  1  0  0  0  0
 59 65  1  0  0  0  0
 60 78  1  0  0  0  0
 61 77  1  0  0  0  0
 62 85  1  0  0  0  0
 63 65  1  0  0  0  0
 63 75  1  0  0  0  0
 64 78  1  0  0  0  0
 66 69  1  0  0  0  0
M  CHG  2  77   1  78   1
M  ISO  4  36 100  62 101  76 100  85 101
M  END
> <Batch ID>
0180

> <Smiles>
CNC(C)C(=O)NC(C(=O)N1Cc2cc([101O:1][101CH2:1]c3nc(C)nc(CNC4CCCC4[100NH:0][100C:0](=O)N4CCCC(n5nc(-c6ccc(Oc7ccc(F)cc7F)cc6)c(C(N)=O)c5N)C4)c3C)ccc2CC1C(=O)NC1CCCc2ccccc21)C(C)(C)C

> <Shape>
0.283

> <Color>
0.073

> <Negative vol penalty>
0.000

$$$$

  -OEChem-04052323003D

 85 95  0     1  0  0  0  0  0999 V2000
  -35.2052  -13.7782   20.7469 C   0  0  0  0  0  0  0  0  0  0  0  0
  -34.2904  -14.8153   20.5957 C   0  0  0  0  0  0  0  0  0  0  0  0
  -22.7230  -28.9829   22.1857 C   0  0  0  0  0  0  0  0  0  0  0  0
  -22.6535  -26.5768   22.3928 C   0  0  0  0  0  0  0  0  0  0  0  0
  -34.8769  -12.4926   20.3185 C   0  0  0  0  0  0  0  0  0  0  0  0
  -33.0470  -14.5677   20.0150 C   0  0  0  0  0  0  0  0  0  0  0  0
  -29.2476  -16.7503   22.5538 C   0  0  0  0  0  0  0  0  0  0  0  0
  -21.5732  -29.0835   22.9688 C   0  0  0  0  0  0  0  0  0  0  0  0
  -21.5036  -26.6774   23.1759 C   0  0  0  0  0  0  0  0  0  0  0  0
  -29.0567  -18.1180   22.3622 C   0  0  0  0  0  0  0  0  0  0  0  0
  -18.4496  -29.9532   24.6153 C   0  0  0  0  0  0  0  0  0  0  0  0
  -17.4460  -30.8224   24.1878 C   0  0  0  0  0  0  0  0  0  0  0  0
  -27.2633  -17.6454   20.8196 C   0  0  0  0  0  0  0  0  0  0  0  0
  -17.2341  -29.5677   22.1340 C   0  0  0  0  0  0  0  0  0  0  0  0
  -30.1086  -20.3511   18.5836 C   0  0  0  0  0  0  0  0  0  0  0  0
  -23.2632  -27.7295   21.8977 C   0  0  0  0  0  0  0  0  0  0  0  0
  -25.7860  -27.6245   21.5341 C   0  0  0  0  0  0  0  0  0  0  0  0
  -33.6252  -12.2271   19.7410 C   0  0  0  0  0  0  0  0  0  0  0  0
  -28.4537  -15.8182   21.8703 C   0  0  0  0  0  0  0  0  0  0  0  0
  -32.7022  -13.2777   19.5772 C   0  0  0  0  0  0  0  0  0  0  0  0
  -27.4445  -16.2665   21.0062 C   0  0  0  0  0  0  0  0  0  0  0  0
  -20.9635  -27.9308   23.4640 C   0  0  0  0  0  0  0  0  0  0  0  0
  -28.0663  -18.5657   21.4929 C   0  0  0  0  0  0  0  0  0  0  0  0
  -18.8456  -28.8912   23.8021 C   0  0  0  0  0  0  0  0  0  0  0  0
  -16.8382  -30.6297   22.9472 C   0  0  0  0  0  0  0  0  0  0  0  0
  -18.2378  -28.6984   22.5616 C   0  0  0  0  0  0  0  0  0  0  0  0
  -24.4507  -27.6249   21.0883 C   0  0  0  0  0  0  0  0  0  0  0  0
  -28.4552  -21.8611   20.0374 C   0  0  0  0  0  0  0  0  0  0  0  0
  -29.9702  -21.6985   18.3322 C   0  0  0  0  0  0  0  0  0  0  0  0
  -28.5934  -20.5137   20.2886 C   0  0  0  0  0  0  0  0  0  1  0  0
  -26.5310  -27.5033   20.3866 C   0  0  0  0  0  0  0  0  0  0  0  0
  -26.3064  -27.7245   22.8663 C   0  0  0  0  0  0  0  0  0  0  0  0
  -29.0190  -13.5115   19.7576 C   0  0  0  0  0  0  0  0  0  0  0  0
  -25.8665  -12.8800   20.1877 C   0  0  0  0  0  0  0  0  0  0  0  0
  -22.7832  -14.0171   21.1079 C   0  0  0  0  0  0  0  0  0  0  0  0
  -27.4818  -25.1531   15.4213 C   0  0  0  0  0  0  0  0  0  0  0  0
  -33.3337  -10.8312   19.2500 C   0  0  0  0  0  0  0  0  0  0  0  0
  -28.6546  -14.3466   22.1083 C   0  0  0  0  0  0  0  0  0  0  0  0
  -26.5519  -15.3069   20.2640 C   0  0  0  0  0  0  0  0  0  0  0  0
  -31.8520  -10.5752   18.9866 C   0  0  0  0  0  0  0  0  0  0  0  0
  -25.1712  -27.8479   15.5257 C   0  0  0  0  0  0  0  0  0  0  0  0
  -31.2441  -11.7274   18.1929 C   0  0  0  0  0  0  0  0  0  0  0  0
  -28.0677  -23.9201   21.5489 C   0  0  0  0  0  0  0  0  0  0  0  0
  -27.6904  -22.7156   22.3533 C   0  0  0  0  0  0  0  0  0  0  0  0
  -24.8855  -28.0298   17.0174 C   0  0  0  0  0  0  0  0  0  0  0  0
  -31.7507  -24.0586   15.9327 C   0  0  0  0  0  0  0  0  0  0  0  0
  -30.6708  -24.9106   15.2317 C   0  0  0  0  0  0  0  0  0  0  0  0
  -25.3454  -26.3755   15.1600 C   0  0  0  0  0  0  0  0  0  0  0  0
  -26.0614  -25.8326   17.4532 C   0  0  0  0  0  0  0  0  0  0  0  0
  -31.3339  -13.0436   18.9746 C   0  0  1  0  0  0  0  0  0  0  0  0
  -27.5294  -22.6959   20.8557 C   0  0  0  0  0  0  0  0  0  0  0  0
  -28.1294  -13.4798   20.9681 C   0  0  1  0  0  0  0  0  0  0  0  0
  -25.9341  -27.3044   17.8823 C   0  0  2  0  0  0  0  0  0  0  0  0
  -30.6575  -23.6423   16.9408 C   0  0  1  0  0  0  0  0  0  0  0  0
  -29.6215  -23.9417   15.8289 C   0  0  1  0  0  0  0  0  0  0  0  0
  -20.3938  -13.2797   21.3187 C   0  0  0  0  0  0  0  0  0  0  0  0
  -25.5440  -13.0672   17.1594 C   0  0  0  0  0  0  0  0  0  0  0  0
  -23.0732  -13.2752   17.5053 C   0  0  0  0  0  0  0  0  0  0  0  0
  -24.2627  -11.2064   18.2319 C   0  0  0  0  0  0  0  0  0  0  0  0
  -22.7585  -14.5366   24.0214 C   0  0  0  0  0  0  0  0  0  0  0  0
  -24.5848  -13.3457   19.5402 C   0  0  1  0  0  0  0  0  0  0  0  0
  -21.7286  -13.4338   22.0310 C   0  0  2  0  0  0  0  0  0  0  0  0
  -24.3841  -12.7419   18.1215 C   0  0  0  0  0  0  0  0  0  0  0  0
  -29.4227  -19.7345   19.5664 N   0  0  0  0  0  0  0  0  0  0  0  0
  -24.3501  -27.5131   19.7611 N   0  0  0  0  0  0  0  0  0  0  0  0
  -29.1411  -22.4777   19.0546 N   0  0  0  0  0  0  0  0  0  0  0  0
  -25.6317  -27.4413   19.3631 N   0  0  0  0  0  0  0  0  0  0  0  0
  -26.7916  -13.8780   20.5253 N   0  0  0  0  0  0  0  0  0  0  0  0
  -26.3582  -25.7502   16.0144 N   0  0  0  0  0  0  0  0  0  0  0  0
  -27.8611  -27.4450   20.1633 N   0  0  0  0  0  0  0  0  0  0  0  0
  -25.4014  -27.8430   23.9300 N   0  0  0  0  0  0  0  0  0  0  0  0
  -30.7273  -22.2659   17.2831 N   0  0  0  0  0  0  0  0  0  0  0  0
  -30.3136  -13.0933   19.9997 N   0  0  0  0  0  0  0  0  0  0  0  0
  -23.5146  -13.0310   20.4804 N   0  0  0  0  0  0  0  0  0  0  0  0
  -28.4040  -24.5882   16.2962 N   0  0  0  0  0  0  0  0  0  0  0  0
  -21.5304  -14.3172   23.2148 N   0  3  0  0  0  0  0  0  0  0  0  0
  -27.5378  -27.7259   23.1050 O   0  0  0  0  0  0  0  0  0  0  0  0
  -28.5642  -13.8861   18.6832 O   0  0  0  0  0  0  0  0  0  0  0  0
  -26.0374  -11.6757   20.3932 O   0  0  0  0  0  0  0  0  0  0  0  0
  -22.9397  -15.2266   20.9557 O   0  0  0  0  0  0  0  0  0  0  0  0
  -27.6614  -25.1285   14.1989 O   0  0  0  0  0  0  0  0  0  0  0  0
  -19.8416  -28.0287   24.2283 O   0  0  0  0  0  0  0  0  0  0  0  0
  -27.8782  -19.9001   21.3035 O   0  0  0  0  0  0  0  0  0  1  0  0
  -15.8734  -31.4635   22.5374 F   0  0  0  0  0  0  0  0  0  0  0  0
  -18.6131  -27.6793   21.7765 F   0  0  0  0  0  0  0  0  0  0  0  0
  1  2  1  0  0  0  0
  1  5  2  0  0  0  0
  2  6  2  0  0  0  0
  3  8  2  0  0  0  0
  3 16  1  0  0  0  0
  4  9  1  0  0  0  0
  4 16  2  0  0  0  0
  5 18  1  0  0  0  0
  6 20  1  0  0  0  0
  7 10  2  0  0  0  0
  7 19  1  0  0  0  0
  8 22  1  0  0  0  0
  9 22  2  0  0  0  0
 10 23  1  0  0  0  0
 11 12  2  0  0  0  0
 11 24  1  0  0  0  0
 12 25  1  0  0  0  0
 13 21  1  0  0  0  0
 13 23  2  0  0  0  0
 14 25  2  0  0  0  0
 14 26  1  0  0  0  0
 15 29  1  0  0  0  0
 15 64  2  0  0  0  0
 16 27  1  0  0  0  0
 17 27  1  0  0  0  0
 17 31  2  0  0  0  0
 17 32  1  0  0  0  0
 18 20  2  0  0  0  0
 18 37  1  0  0  0  0
 19 21  2  0  0  0  0
 19 38  1  0  0  0  0
 20 50  1  0  0  0  0
 21 39  1  0  0  0  0
 22 82  1  0  0  0  0
 23 83  1  0  0  0  0
 24 26  2  0  0  0  0
 24 82  1  0  0  0  0
 25 84  1  0  0  0  0
 26 85  1  0  0  0  0
 27 65  2  0  0  0  0
 28 30  2  0  0  0  0
 28 51  1  0  0  0  0
 28 66  1  0  0  0  0
 29 66  2  0  0  0  0
 29 72  1  0  0  0  0
 30 64  1  0  0  0  0
 30 83  1  0  0  0  0
 31 67  1  0  0  0  0
 31 70  1  0  0  0  0
 32 71  1  0  0  0  0
 32 77  2  0  0  0  0
 33 52  1  0  0  0  0
 33 73  1  0  0  0  0
 33 78  2  0  0  0  0
 34 61  1  0  0  0  0
 34 68  1  0  0  0  0
 34 79  2  0  0  0  0
 35 62  1  0  0  0  0
 35 74  1  0  0  0  0
 35 80  2  0  0  0  0
 36 69  1  0  0  0  0
 36 75  1  0  0  0  0
 36 81  2  0  0  0  0
 37 40  1  0  0  0  0
 38 52  1  0  0  0  0
 39 68  1  0  0  0  0
 40 42  1  0  0  0  0
 41 45  1  0  0  0  0
 41 48  1  0  0  0  0
 42 50  1  0  0  0  0
 43 44  1  0  0  0  0
 43 51  1  0  0  0  0
 44 51  1  0  0  0  0
 45 53  1  0  0  0  0
 46 47  1  0  0  0  0
 46 54  1  0  0  0  0
 47 55  1  0  0  0  0
 48 69  1  0  0  0  0
 49 53  1  0  0  0  0
 49 69  1  0  0  0  0
 50 73  1  0  0  0  0
 52 68  1  0  0  0  0
 53 67  1  0  0  0  0
 54 55  1  0  0  0  0
 54 72  1  0  0  0  0
 55 75  1  0  0  0  0
 56 62  1  0  0  0  0
 57 63  1  0  0  0  0
 58 63  1  0  0  0  0
 59 63  1  0  0  0  0
 60 76  1  0  0  0  0
 61 63  1  0  0  0  0
 61 74  1  0  0  0  0
 62 76  1  0  0  0  0
 65 67  1  0  0  0  0
M  CHG  1  76   1
M  ISO  4  30 101  36 100  75 100  83 101
M  END
> <Batch ID>
0180

> <Smiles>
CNC(C)C(=O)NC(C(=O)N1Cc2cc([101O:1][101c:1]3ncc(NC4CCC4[100NH:0][100C:0](=O)N4CCCC(n5nc(-c6ccc(Oc7ccc(F)cc7F)cc6)c(C(N)=O)c5N)C4)nc3C3CC3)ccc2CC1C(=O)NC1CCCc2ccccc21)C(C)(C)C

> <Shape>
0.255

> <Color>
0.081

> <Negative vol penalty>
0.000

$$$$

  -OEChem-04052323003D

 85 94  0     1  0  0  0  0  0999 V2000
  -19.7120  -28.5831   15.3812 C   0  0  0  0  0  0  0  0  0  0  0  0
  -20.4064  -27.3944   15.5818 C   0  0  0  0  0  0  0  0  0  0  0  0
  -23.2122   -9.8657   19.8487 C   0  0  0  0  0  0  0  0  0  0  0  0
  -23.7413   -9.8864   22.2059 C   0  0  0  0  0  0  0  0  0  0  0  0
  -20.1685  -29.7631   15.9670 C   0  0  0  0  0  0  0  0  0  0  0  0
  -21.5583  -27.3852   16.3676 C   0  0  0  0  0  0  0  0  0  0  0  0
  -23.4656  -22.8804   20.0520 C   0  0  0  0  0  0  0  0  0  0  0  0
  -22.4930   -8.6830   20.0205 C   0  0  0  0  0  0  0  0  0  0  0  0
  -23.0220   -8.7037   22.3778 C   0  0  0  0  0  0  0  0  0  0  0  0
  -24.4049  -21.8642   19.8824 C   0  0  0  0  0  0  0  0  0  0  0  0
  -23.4963   -5.3993   21.8421 C   0  0  0  0  0  0  0  0  0  0  0  0
  -24.0776   -4.3937   22.6143 C   0  0  0  0  0  0  0  0  0  0  0  0
  -26.0653  -23.2229   20.9852 C   0  0  0  0  0  0  0  0  0  0  0  0
  -22.2106   -4.4898   24.1448 C   0  0  0  0  0  0  0  0  0  0  0  0
  -23.8364  -10.4674   20.9414 C   0  0  0  0  0  0  0  0  0  0  0  0
  -24.0893  -13.0046   20.8632 C   0  0  0  0  0  0  0  0  0  0  0  0
  -21.3211  -29.7665   16.7683 C   0  0  0  0  0  0  0  0  0  0  0  0
  -23.8226  -24.0819   20.6809 C   0  0  0  0  0  0  0  0  0  0  0  0
  -22.0313  -28.5666   16.9637 C   0  0  0  0  0  0  0  0  0  0  0  0
  -25.1280  -24.2518   21.1639 C   0  0  0  0  0  0  0  0  0  0  0  0
  -30.0218  -19.9458   21.0122 C   0  0  0  0  0  0  0  0  0  0  0  0
  -22.3979   -8.1020   21.2850 C   0  0  0  0  0  0  0  0  0  0  0  0
  -25.7057  -22.0364   20.3464 C   0  0  0  0  0  0  0  0  0  0  0  0
  -22.2722   -5.9503   22.2212 C   0  0  0  0  0  0  0  0  0  0  0  0
  -23.4348   -3.9389   23.7657 C   0  0  0  0  0  0  0  0  0  0  0  0
  -21.6294   -5.4955   23.3725 C   0  0  0  0  0  0  0  0  0  0  0  0
  -24.5800  -11.6888   20.7645 C   0  0  0  0  0  0  0  0  0  0  0  0
  -28.8053  -20.1029   20.3799 C   0  0  0  0  0  0  0  0  0  0  0  0
  -30.7362  -18.8188   20.6605 C   0  0  0  0  0  0  0  0  0  0  0  0
  -25.1818  -13.7982   20.6119 C   0  0  0  0  0  0  0  0  0  0  0  0
  -29.1049  -18.1743   19.2147 C   0  0  0  0  0  0  0  0  0  0  0  0
  -22.7645  -13.4681   21.1560 C   0  0  0  0  0  0  0  0  0  0  0  0
  -23.9216  -27.1334   19.7966 C   0  0  0  0  0  0  0  0  0  0  0  0
  -24.6380  -27.6120   22.9239 C   0  0  0  0  0  0  0  0  0  0  0  0
  -25.8907  -26.3473   25.8356 C   0  0  0  0  0  0  0  0  0  0  0  0
  -30.4741  -14.9675   21.6360 C   0  0  0  0  0  0  0  0  0  0  0  0
  -21.8025  -31.0757   17.3419 C   0  0  0  0  0  0  0  0  0  0  0  0
  -22.7906  -25.1578   20.8800 C   0  0  0  0  0  0  0  0  0  0  0  0
  -25.5563  -25.5147   21.8640 C   0  0  0  0  0  0  0  0  0  0  0  0
  -22.8208  -30.9099   18.4671 C   0  0  0  0  0  0  0  0  0  0  0  0
  -29.7576  -12.6593   18.8365 C   0  0  0  0  0  0  0  0  0  0  0  0
  -23.8885  -29.8935   18.0753 C   0  0  0  0  0  0  0  0  0  0  0  0
  -28.3156  -12.2678   19.1435 C   0  0  0  0  0  0  0  0  0  0  0  0
  -34.2206  -17.5882   21.5913 C   0  0  0  0  0  0  0  0  0  0  0  0
  -34.1034  -16.0912   21.9499 C   0  0  0  0  0  0  0  0  0  0  0  0
  -30.5690  -12.9101   20.1071 C   0  0  0  0  0  0  0  0  0  0  0  0
  -28.4970  -13.5135   21.3309 C   0  0  0  0  0  0  0  0  0  0  0  0
  -23.2710  -28.5115   17.8298 C   0  0  1  0  0  0  0  0  0  0  0  0
  -23.4009  -26.5422   21.0760 C   0  0  1  0  0  0  0  0  0  0  0  0
  -27.6568  -13.3082   20.0614 C   0  0  2  0  0  0  0  0  0  0  0  0
  -32.8058  -17.4737   20.9832 C   0  0  1  0  0  0  0  0  0  0  0  0
  -32.5676  -16.2848   21.9471 C   0  0  1  0  0  0  0  0  0  0  0  0
  -30.5218  -20.9336   22.0076 C   0  0  0  0  0  0  0  0  0  0  0  0
  -28.5959  -17.1906   18.2165 C   0  0  0  0  0  0  0  0  0  0  0  0
  -26.3827  -26.9887   28.2113 C   0  0  0  0  0  0  0  0  0  0  0  0
  -27.0987  -29.1581   21.9943 C   0  0  0  0  0  0  0  0  0  0  0  0
  -28.0218  -28.9454   24.3118 C   0  0  0  0  0  0  0  0  0  0  0  0
  -25.8910  -30.1846   23.9288 C   0  0  0  0  0  0  0  0  0  0  0  0
  -24.0343  -24.3002   26.8949 C   0  0  0  0  0  0  0  0  0  0  0  0
  -27.9389  -21.2902   20.6813 C   0  0  0  0  0  0  0  0  0  1  0  0
  -25.9113  -27.6640   23.7332 C   0  0  1  0  0  0  0  0  0  0  0  0
  -25.3634  -26.3834   27.2587 C   0  0  2  0  0  0  0  0  0  0  0  0
  -26.7235  -28.9649   23.4772 C   0  0  0  0  0  0  0  0  0  0  0  0
  -25.8827  -11.6448   20.4730 N   0  0  0  0  0  0  0  0  0  0  0  0
  -28.3142  -19.2334   19.4726 N   0  0  0  0  0  0  0  0  0  0  0  0
  -30.3063  -17.9086   19.7622 N   0  0  0  0  0  0  0  0  0  0  0  0
  -26.2199  -12.9428   20.3864 N   0  0  0  0  0  0  0  0  0  0  0  0
  -24.5127  -26.5400   22.0290 N   0  0  0  0  0  0  0  0  0  0  0  0
  -29.8892  -13.8518   21.0107 N   0  0  0  0  0  0  0  0  0  0  0  0
  -25.3461  -15.1373   20.5640 N   0  0  0  0  0  0  0  0  0  0  0  0
  -21.7606  -12.5182   21.3889 N   0  0  0  0  0  0  0  0  0  0  0  0
  -31.9938  -18.6014   21.2758 N   0  0  0  0  0  0  0  0  0  0  0  0
  -22.9816  -27.8566   19.0875 N   0  0  0  0  0  0  0  0  0  0  0  0
  -25.5188  -27.4687   25.1247 N   0  0  0  0  0  0  0  0  0  0  0  0
  -31.8232  -15.1768   21.3669 N   0  0  0  0  0  0  0  0  0  0  0  0
  -25.0425  -25.0055   27.7273 N   0  3  0  0  0  0  0  0  0  0  0  0
  -22.4758  -14.6882   21.1934 O   0  0  0  0  0  0  0  0  0  0  0  0
  -25.0902  -26.9484   19.4772 O   0  0  0  0  0  0  0  0  0  0  0  0
  -23.7828  -28.4862   23.0852 O   0  0  0  0  0  0  0  0  0  0  0  0
  -26.5680  -25.4191   25.3995 O   0  0  0  0  0  0  0  0  0  0  0  0
  -29.8472  -15.7227   22.3869 O   0  0  0  0  0  0  0  0  0  0  0  0
  -21.6960   -6.9480   21.4530 O   0  0  0  0  0  0  0  0  0  0  0  0
  -26.6247  -21.0464   20.1815 O   0  0  0  0  0  0  0  0  0  1  0  0
  -23.9924   -2.9721   24.5063 F   0  0  0  0  0  0  0  0  0  0  0  0
  -20.4526   -6.0201   23.7412 F   0  0  0  0  0  0  0  0  0  0  0  0
  1  2  1  0  0  0  0
  1  5  2  0  0  0  0
  2  6  2  0  0  0  0
  3  8  2  0  0  0  0
  3 15  1  0  0  0  0
  4  9  1  0  0  0  0
  4 15  2  0  0  0  0
  5 17  1  0  0  0  0
  6 19  1  0  0  0  0
  7 10  2  0  0  0  0
  7 18  1  0  0  0  0
  8 22  1  0  0  0  0
  9 22  2  0  0  0  0
 10 23  1  0  0  0  0
 11 12  2  0  0  0  0
 11 24  1  0  0  0  0
 12 25  1  0  0  0  0
 13 20  1  0  0  0  0
 13 23  2  0  0  0  0
 14 25  2  0  0  0  0
 14 26  1  0  0  0  0
 15 27  1  0  0  0  0
 16 27  1  0  0  0  0
 16 30  2  0  0  0  0
 16 32  1  0  0  0  0
 17 19  2  0  0  0  0
 17 37  1  0  0  0  0
 18 20  2  0  0  0  0
 18 38  1  0  0  0  0
 19 48  1  0  0  0  0
 20 39  1  0  0  0  0
 21 28  2  0  0  0  0
 21 29  1  0  0  0  0
 21 53  1  0  0  0  0
 22 82  1  0  0  0  0
 23 83  1  0  0  0  0
 24 26  2  0  0  0  0
 24 82  1  0  0  0  0
 25 84  1  0  0  0  0
 26 85  1  0  0  0  0
 27 64  2  0  0  0  0
 28 60  1  0  0  0  0
 28 65  1  0  0  0  0
 29 66  2  0  0  0  0
 29 72  1  0  0  0  0
 30 67  1  0  0  0  0
 30 70  1  0  0  0  0
 31 54  1  0  0  0  0
 31 65  2  0  0  0  0
 31 66  1  0  0  0  0
 32 71  1  0  0  0  0
 32 77  2  0  0  0  0
 33 49  1  0  0  0  0
 33 73  1  0  0  0  0
 33 78  2  0  0  0  0
 34 61  1  0  0  0  0
 34 68  1  0  0  0  0
 34 79  2  0  0  0  0
 35 62  1  0  0  0  0
 35 74  1  0  0  0  0
 35 80  2  0  0  0  0
 36 69  1  0  0  0  0
 36 75  1  0  0  0  0
 36 81  2  0  0  0  0
 37 40  1  0  0  0  0
 38 49  1  0  0  0  0
 39 68  1  0  0  0  0
 40 42  1  0  0  0  0
 41 43  1  0  0  0  0
 41 46  1  0  0  0  0
 42 48  1  0  0  0  0
 43 50  1  0  0  0  0
 44 45  1  0  0  0  0
 44 51  1  0  0  0  0
 45 52  1  0  0  0  0
 46 69  1  0  0  0  0
 47 50  1  0  0  0  0
 47 69  1  0  0  0  0
 48 73  1  0  0  0  0
 49 68  1  0  0  0  0
 50 67  1  0  0  0  0
 51 52  1  0  0  0  0
 51 72  1  0  0  0  0
 52 75  1  0  0  0  0
 55 62  1  0  0  0  0
 56 63  1  0  0  0  0
 57 63  1  0  0  0  0
 58 63  1  0  0  0  0
 59 76  1  0  0  0  0
 60 83  1  0  0  0  0
 61 63  1  0  0  0  0
 61 74  1  0  0  0  0
 62 76  1  0  0  0  0
 64 67  1  0  0  0  0
M  CHG  1  76   1
M  ISO  4  36 100  60 101  75 100  83 101
M  END
> <Batch ID>
0180

> <Smiles>
CNC(C)C(=O)NC(C(=O)N1Cc2cc([101O:1][101CH2:1]c3nc(C)nc(NC4CCC4[100NH:0][100C:0](=O)N4CCCC(n5nc(-c6ccc(Oc7ccc(F)cc7F)cc6)c(C(N)=O)c5N)C4)c3C)ccc2CC1C(=O)NC1CCCc2ccccc21)C(C)(C)C

> <Shape>
0.252

> <Color>
0.203

> <Negative vol penalty>
0.000

$$$$

  -OEChem-04052323003D

 80 88  0     1  0  0  0  0  0999 V2000
  -17.0551  -30.2305   23.4881 C   0  0  0  0  0  0  0  0  0  0  0  0
  -18.3306  -30.7524   23.2975 C   0  0  0  0  0  0  0  0  0  0  0  0
  -24.1944  -18.1207   20.1683 C   0  0  0  0  0  0  0  0  0  0  0  0
  -25.1083  -17.0121   22.1107 C   0  0  0  0  0  0  0  0  0  0  0  0
  -16.8615  -28.8498   23.4918 C   0  0  0  0  0  0  0  0  0  0  0  0
  -19.4134  -29.8937   23.1115 C   0  0  0  0  0  0  0  0  0  0  0  0
  -25.6692  -29.4665   19.6477 C   0  0  0  0  0  0  0  0  0  0  0  0
  -23.3382  -17.0405   19.9546 C   0  0  0  0  0  0  0  0  0  0  0  0
  -24.2520  -15.9319   21.8970 C   0  0  0  0  0  0  0  0  0  0  0  0
  -27.0165  -29.1991   19.8865 C   0  0  0  0  0  0  0  0  0  0  0  0
  -24.1068  -13.2315   19.8679 C   0  0  0  0  0  0  0  0  0  0  0  0
  -24.6449  -11.9484   19.9673 C   0  0  0  0  0  0  0  0  0  0  0  0
  -26.5502  -26.8330   19.8329 C   0  0  0  0  0  0  0  0  0  0  0  0
  -23.0997  -11.4387   21.7532 C   0  0  0  0  0  0  0  0  0  0  0  0
  -25.0795  -18.1065   21.2463 C   0  0  0  0  0  0  0  0  0  0  0  0
  -25.7095  -20.3690   22.2423 C   0  0  0  0  0  0  0  0  0  0  0  0
  -17.9409  -27.9739   23.2962 C   0  0  0  0  0  0  0  0  0  0  0  0
  -24.7489  -28.4175   19.5103 C   0  0  0  0  0  0  0  0  0  0  0  0
  -19.2342  -28.4999   23.1140 C   0  0  0  0  0  0  0  0  0  0  0  0
  -25.1922  -27.0897   19.5899 C   0  0  0  0  0  0  0  0  0  0  0  0
  -23.3670  -15.9462   20.8189 C   0  0  0  0  0  0  0  0  0  0  0  0
  -27.4567  -27.8822   19.9821 C   0  0  0  0  0  0  0  0  0  0  0  0
  -23.0652  -13.6182   20.7113 C   0  0  0  0  0  0  0  0  0  0  0  0
  -24.1413  -11.0520   20.9099 C   0  0  0  0  0  0  0  0  0  0  0  0
  -22.5616  -12.7218   21.6539 C   0  0  0  0  0  0  0  0  0  0  0  0
  -25.9646  -19.2218   21.4673 C   0  0  0  0  0  0  0  0  0  0  0  0
  -26.8548  -21.1191   22.1327 C   0  0  0  0  0  0  0  0  0  0  0  0
  -24.5417  -20.7247   22.9942 C   0  0  0  0  0  0  0  0  0  0  0  0
  -22.1601  -27.4821   21.1000 C   0  0  0  0  0  0  0  0  0  0  0  0
  -30.4568  -25.5319   18.6063 C   0  0  0  0  0  0  0  0  0  0  0  0
  -21.9130  -25.3508   18.6671 C   0  0  0  0  0  0  0  0  0  0  0  0
  -23.4638  -23.5915   16.1879 C   0  0  0  0  0  0  0  0  0  0  0  0
  -30.9565  -22.4757   18.3383 C   0  0  0  0  0  0  0  0  0  0  0  0
  -17.6900  -26.4879   23.3554 C   0  0  0  0  0  0  0  0  0  0  0  0
  -23.3036  -28.7223   19.2264 C   0  0  0  0  0  0  0  0  0  0  0  0
  -24.2479  -25.9274   19.4295 C   0  0  0  0  0  0  0  0  0  0  0  0
  -18.8306  -25.6541   22.7776 C   0  0  0  0  0  0  0  0  0  0  0  0
  -28.3644  -23.8044   16.2122 C   0  0  0  0  0  0  0  0  0  0  0  0
  -31.5449  -20.1890   20.9330 C   0  0  0  0  0  0  0  0  0  0  0  0
  -20.1738  -26.1490   23.3044 C   0  0  0  0  0  0  0  0  0  0  0  0
  -29.0466  -25.1148   16.5841 C   0  0  0  0  0  0  0  0  0  0  0  0
  -30.1480  -19.7944   21.4071 C   0  0  0  0  0  0  0  0  0  0  0  0
  -31.5808  -20.3404   19.4177 C   0  0  0  0  0  0  0  0  0  0  0  0
  -28.6208  -22.9253   17.4250 C   0  0  0  0  0  0  0  0  0  0  0  0
  -29.1849  -20.9661   19.3613 C   0  0  0  0  0  0  0  0  0  0  0  0
  -20.4300  -27.6013   22.8842 C   0  0  1  0  0  0  0  0  0  0  0  0
  -22.3653  -27.5839   19.6150 C   0  0  1  0  0  0  0  0  0  0  0  0
  -30.2615  -24.6746   17.3960 C   0  0  2  0  0  0  0  0  0  0  0  0
  -29.0948  -20.7883   20.8908 C   0  0  1  0  0  0  0  0  0  0  0  0
  -23.0072  -21.9014   14.3900 C   0  0  0  0  0  0  0  0  0  0  0  0
  -21.7688  -23.1502   20.7757 C   0  0  0  0  0  0  0  0  0  0  0  0
  -22.2703  -21.4865   18.9733 C   0  0  0  0  0  0  0  0  0  0  0  0
  -20.1918  -22.8609   18.8564 C   0  0  0  0  0  0  0  0  0  0  0  0
  -24.3278  -25.4540   14.0564 C   0  0  0  0  0  0  0  0  0  0  0  0
  -31.0026  -27.8443   19.3396 C   0  0  0  0  0  0  0  0  0  0  0  0
  -29.7212  -28.5618   19.7244 C   0  0  0  0  0  0  0  0  0  1  0  0
  -22.4276  -23.9547   18.4125 C   0  0  1  0  0  0  0  0  0  0  0  0
  -23.1069  -23.3809   14.7275 C   0  0  2  0  0  0  0  0  0  0  0  0
  -21.6823  -22.8848   19.2595 C   0  0  0  0  0  0  0  0  0  0  0  0
  -27.1768  -19.2374   20.9066 N   0  0  0  0  0  0  0  0  0  0  0  0
  -27.6935  -20.4037   21.3296 N   0  0  0  0  0  0  0  0  0  0  0  0
  -22.8434  -26.2769   19.1595 N   0  0  0  0  0  0  0  0  0  0  0  0
  -30.5600  -21.2779   18.9472 N   0  0  0  0  0  0  0  0  0  0  0  0
  -29.9498  -23.3313   17.8818 N   0  0  0  0  0  0  0  0  0  0  0  0
  -27.2162  -22.3144   22.6457 N   0  0  0  0  0  0  0  0  0  0  0  0
  -23.4550  -19.8395   22.9993 N   0  0  0  0  0  0  0  0  0  0  0  0
  -20.8497  -27.6605   21.5004 N   0  0  0  0  0  0  0  0  0  0  0  0
  -30.7738  -26.8460   18.3197 N   0  0  0  0  0  0  0  0  0  0  0  0
  -22.3396  -23.7436   16.9716 N   0  0  0  0  0  0  0  0  0  0  0  0
  -24.1413  -23.9950   13.8478 N   0  3  0  0  0  0  0  0  0  0  0  0
  -24.4578  -21.8034   23.6290 O   0  0  0  0  0  0  0  0  0  0  0  0
  -23.1194  -27.2568   21.8285 O   0  0  0  0  0  0  0  0  0  0  0  0
  -30.3285  -25.0408   19.7217 O   0  0  0  0  0  0  0  0  0  0  0  0
  -20.7308  -25.6121   18.4308 O   0  0  0  0  0  0  0  0  0  0  0  0
  -24.6238  -23.6147   16.5935 O   0  0  0  0  0  0  0  0  0  0  0  0
  -32.1526  -22.7580   18.1897 O   0  0  0  0  0  0  0  0  0  0  0  0
  -22.5315  -14.8920   20.6108 O   0  0  0  0  0  0  0  0  0  0  0  0
  -28.7804  -27.6166   20.2174 O   0  0  0  0  0  0  0  0  0  1  0  0
  -24.6571   -9.8195   21.0042 F   0  0  0  0  0  0  0  0  0  0  0  0
  -21.5602  -13.0871   22.4660 F   0  0  0  0  0  0  0  0  0  0  0  0
  1  2  1  0  0  0  0
  1  5  2  0  0  0  0
  2  6  2  0  0  0  0
  3  8  2  0  0  0  0
  3 15  1  0  0  0  0
  4  9  1  0  0  0  0
  4 15  2  0  0  0  0
  5 17  1  0  0  0  0
  6 19  1  0  0  0  0
  7 10  2  0  0  0  0
  7 18  1  0  0  0  0
  8 21  1  0  0  0  0
  9 21  2  0  0  0  0
 10 22  1  0  0  0  0
 11 12  2  0  0  0  0
 11 23  1  0  0  0  0
 12 24  1  0  0  0  0
 13 20  1  0  0  0  0
 13 22  2  0  0  0  0
 14 24  2  0  0  0  0
 14 25  1  0  0  0  0
 15 26  1  0  0  0  0
 16 26  1  0  0  0  0
 16 27  2  0  0  0  0
 16 28  1  0  0  0  0
 17 19  2  0  0  0  0
 17 34  1  0  0  0  0
 18 20  2  0  0  0  0
 18 35  1  0  0  0  0
 19 46  1  0  0  0  0
 20 36  1  0  0  0  0
 21 77  1  0  0  0  0
 22 78  1  0  0  0  0
 23 25  2  0  0  0  0
 23 77  1  0  0  0  0
 24 79  1  0  0  0  0
 25 80  1  0  0  0  0
 26 60  2  0  0  0  0
 27 61  1  0  0  0  0
 27 65  1  0  0  0  0
 28 66  1  0  0  0  0
 28 71  2  0  0  0  0
 29 47  1  0  0  0  0
 29 67  1  0  0  0  0
 29 72  2  0  0  0  0
 30 48  1  0  0  0  0
 30 68  1  0  0  0  0
 30 73  2  0  0  0  0
 31 57  1  0  0  0  0
 31 62  1  0  0  0  0
 31 74  2  0  0  0  0
 32 58  1  0  0  0  0
 32 69  1  0  0  0  0
 32 75  2  0  0  0  0
 33 63  1  0  0  0  0
 33 64  1  0  0  0  0
 33 76  2  0  0  0  0
 34 37  1  0  0  0  0
 35 47  1  0  0  0  0
 36 62  1  0  0  0  0
 37 40  1  0  0  0  0
 38 41  1  0  0  0  0
 38 44  1  0  0  0  0
 39 42  1  0  0  0  0
 39 43  1  0  0  0  0
 40 46  1  0  0  0  0
 41 48  1  0  0  0  0
 42 49  1  0  0  0  0
 43 63  1  0  0  0  0
 44 64  1  0  0  0  0
 45 49  1  0  0  0  0
 45 63  1  0  0  0  0
 46 67  1  0  0  0  0
 47 62  1  0  0  0  0
 48 64  1  0  0  0  0
 49 61  1  0  0  0  0
 50 58  1  0  0  0  0
 51 59  1  0  0  0  0
 52 59  1  0  0  0  0
 53 59  1  0  0  0  0
 54 70  1  0  0  0  0
 55 56  1  0  0  0  0
 55 68  1  0  0  0  0
 56 78  1  0  0  0  0
 57 59  1  0  0  0  0
 57 69  1  0  0  0  0
 58 70  1  0  0  0  0
 60 61  1  0  0  0  0
M  CHG  1  70   1
M  ISO  4  33 100  56 101  64 100  78 101
M  END
> <Batch ID>
0180

> <Smiles>
CNC(C)C(=O)NC(C(=O)N1Cc2cc([101O:1][101CH2:1]CNC(=O)C3CCC[100N:0]3[100C:0](=O)N3CCCC(n4nc(-c5ccc(Oc6ccc(F)cc6F)cc5)c(C(N)=O)c4N)C3)ccc2CC1C(=O)NC1CCCc2ccccc21)C(C)(C)C

> <Shape>
0.231

> <Color>
0.085

> <Negative vol penalty>
0.000

$$$$

  -OEChem-04052323003D

 85 94  0     1  0  0  0  0  0999 V2000
  -29.7870  -37.2158   22.1333 C   0  0  0  0  0  0  0  0  0  0  0  0
  -29.8349  -36.1598   21.2289 C   0  0  0  0  0  0  0  0  0  0  0  0
  -23.3467  -10.7563   23.0673 C   0  0  0  0  0  0  0  0  0  0  0  0
  -24.6286   -9.1893   21.7488 C   0  0  0  0  0  0  0  0  0  0  0  0
  -29.2995  -37.0063   23.4227 C   0  0  0  0  0  0  0  0  0  0  0  0
  -29.3963  -34.8934   21.6137 C   0  0  0  0  0  0  0  0  0  0  0  0
  -26.2168  -29.0442   18.9690 C   0  0  0  0  0  0  0  0  0  0  0  0
  -22.9028   -9.7113   23.8776 C   0  0  0  0  0  0  0  0  0  0  0  0
  -24.1847   -8.1443   22.5592 C   0  0  0  0  0  0  0  0  0  0  0  0
  -26.3921  -27.6630   18.8956 C   0  0  0  0  0  0  0  0  0  0  0  0
  -21.3935   -6.2664   22.8968 C   0  0  0  0  0  0  0  0  0  0  0  0
  -20.9629   -5.0976   22.2692 C   0  0  0  0  0  0  0  0  0  0  0  0
  -25.4960  -27.4368   21.1238 C   0  0  0  0  0  0  0  0  0  0  0  0
  -22.6712   -3.8445   23.4305 C   0  0  0  0  0  0  0  0  0  0  0  0
  -26.0350  -21.4693   18.1824 C   0  0  0  0  0  0  0  0  0  0  0  0
  -24.2096  -10.4952   22.0029 C   0  0  0  0  0  0  0  0  0  0  0  0
  -23.8774  -12.4436   20.3901 C   0  0  0  0  0  0  0  0  0  0  0  0
  -28.8457  -35.7389   23.8204 C   0  0  0  0  0  0  0  0  0  0  0  0
  -25.6890  -29.6341   20.1266 C   0  0  0  0  0  0  0  0  0  0  0  0
  -28.9035  -34.6664   22.9100 C   0  0  0  0  0  0  0  0  0  0  0  0
  -25.3126  -28.8254   21.2085 C   0  0  0  0  0  0  0  0  0  0  0  0
  -27.0095  -20.8035   18.9212 C   0  0  0  0  0  0  0  0  0  0  0  0
  -23.3218   -8.4054   23.6236 C   0  0  0  0  0  0  0  0  0  0  0  0
  -26.0344  -26.8594   19.9742 C   0  0  0  0  0  0  0  0  0  0  0  0
  -22.4631   -6.2243   23.7913 C   0  0  0  0  0  0  0  0  0  0  0  0
  -21.6017   -3.8866   22.5361 C   0  0  0  0  0  0  0  0  0  0  0  0
  -23.1019   -5.0134   24.0582 C   0  0  0  0  0  0  0  0  0  0  0  0
  -24.6681  -11.5741   21.1651 C   0  0  0  0  0  0  0  0  0  0  0  0
  -27.8731  -21.6360   19.6366 C   0  0  0  0  0  0  0  0  0  0  0  0
  -24.7813  -13.2828   19.7858 C   0  0  0  0  0  0  0  0  0  0  0  0
  -26.8316  -23.5005   18.7829 C   0  0  0  0  0  0  0  0  0  0  0  0
  -22.4533  -12.4888   20.2307 C   0  0  0  0  0  0  0  0  0  0  0  0
  -26.7608  -31.7256   22.2668 C   0  0  0  0  0  0  0  0  0  0  0  0
  -23.7280  -31.5294   23.4007 C   0  0  0  0  0  0  0  0  0  0  0  0
  -20.8432  -29.7247   23.6608 C   0  0  0  0  0  0  0  0  0  0  0  0
  -29.3262  -16.5139   20.0094 C   0  0  0  0  0  0  0  0  0  0  0  0
  -28.3714  -35.5500   25.2396 C   0  0  0  0  0  0  0  0  0  0  0  0
  -25.4813  -31.1228   20.1798 C   0  0  0  0  0  0  0  0  0  0  0  0
  -24.7229  -29.4076   22.4662 C   0  0  0  0  0  0  0  0  0  0  0  0
  -27.5767  -34.2638   25.4501 C   0  0  0  0  0  0  0  0  0  0  0  0
  -29.8246  -13.0269   19.4910 C   0  0  0  0  0  0  0  0  0  0  0  0
  -28.2889  -33.0834   24.7973 C   0  0  0  0  0  0  0  0  0  0  0  0
  -28.4646  -12.4098   19.8223 C   0  0  0  0  0  0  0  0  0  0  0  0
  -28.7103  -19.5933   20.8785 C   0  0  0  0  0  0  0  0  0  0  0  0
  -30.1449  -14.2093   20.4027 C   0  0  0  0  0  0  0  0  0  0  0  0
  -27.7474  -14.6394   20.7778 C   0  0  0  0  0  0  0  0  0  0  0  0
  -27.0545  -19.2898   18.9922 C   0  0  2  0  0  0  0  0  0  0  0  0
  -28.4138  -33.2837   23.2822 C   0  0  1  0  0  0  0  0  0  0  0  0
  -25.4138  -31.6662   21.6038 C   0  0  1  0  0  0  0  0  0  0  0  0
  -27.3553  -13.4784   19.8481 C   0  0  2  0  0  0  0  0  0  0  0  0
  -28.3545  -18.7681   19.6437 C   0  0  2  0  0  0  0  0  0  0  0  0
  -28.9746  -21.0753   20.5284 C   0  0  0  0  0  0  0  0  0  0  0  0
  -26.8694  -18.6258   17.6167 C   0  0  0  0  0  0  0  0  0  0  0  0
  -30.3235  -21.2313   19.7979 C   0  0  0  0  0  0  0  0  0  0  0  0
  -29.0485  -21.8583   21.8577 C   0  0  0  0  0  0  0  0  0  0  0  0
  -18.5523  -29.8087   24.6815 C   0  0  0  0  0  0  0  0  0  0  0  0
  -24.9244  -30.8860   26.1328 C   0  0  0  0  0  0  0  0  0  0  0  0
  -22.6710  -30.0622   26.8481 C   0  0  0  0  0  0  0  0  0  0  0  0
  -22.9733  -32.4494   26.1904 C   0  0  0  0  0  0  0  0  0  0  0  0
  -19.5311  -29.5853   21.0116 C   0  0  0  0  0  0  0  0  0  0  0  0
  -26.7559  -24.9866   18.6981 C   0  0  0  0  0  0  0  0  0  1  0  0
  -23.0174  -30.6574   24.4074 C   0  0  1  0  0  0  0  0  0  0  0  0
  -19.3906  -30.1114   23.4493 C   0  0  2  0  0  0  0  0  0  0  0  0
  -23.4094  -31.0027   25.8719 C   0  0  0  0  0  0  0  0  0  0  0  0
  -25.9209  -22.8097   18.0855 N   0  0  0  0  0  0  0  0  0  0  0  0
  -25.9738  -11.8366   21.0641 N   0  0  0  0  0  0  0  0  0  0  0  0
  -27.8051  -22.9910   19.5560 N   0  0  0  0  0  0  0  0  0  0  0  0
  -26.0106  -12.8804   20.2184 N   0  0  0  0  0  0  0  0  0  0  0  0
  -24.5452  -30.8691   22.4723 N   0  0  0  0  0  0  0  0  0  0  0  0
  -29.0541  -15.1868   20.3806 N   0  0  0  0  0  0  0  0  0  0  0  0
  -24.6366  -14.3183   18.9317 N   0  0  0  0  0  0  0  0  0  0  0  0
  -21.8717  -11.7343   19.2027 N   0  0  0  0  0  0  0  0  0  0  0  0
  -27.1538  -32.9998   22.6293 N   0  0  0  0  0  0  0  0  0  0  0  0
  -21.5919  -30.7857   24.1244 N   0  0  0  0  0  0  0  0  0  0  0  0
  -28.2349  -17.3741   20.0087 N   0  0  0  0  0  0  0  0  0  0  0  0
  -18.8177  -29.3621   22.2955 N   0  3  0  0  0  0  0  0  0  0  0  0
  -21.7197  -13.1906   20.9676 O   0  0  0  0  0  0  0  0  0  0  0  0
  -27.3960  -30.6917   22.4382 O   0  0  0  0  0  0  0  0  0  0  0  0
  -23.5585  -32.7509   23.4322 O   0  0  0  0  0  0  0  0  0  0  0  0
  -21.2702  -28.5934   23.4405 O   0  0  0  0  0  0  0  0  0  0  0  0
  -30.4567  -16.9021   19.6963 O   0  0  0  0  0  0  0  0  0  0  0  0
  -22.8890   -7.3855   24.4142 O   0  0  0  0  0  0  0  0  0  0  0  0
  -26.2063  -25.5019   19.9049 O   0  0  0  0  0  0  0  0  0  1  0  0
  -21.1871   -2.7640   21.9344 F   0  0  0  0  0  0  0  0  0  0  0  0
  -24.1292   -4.9666   24.9174 F   0  0  0  0  0  0  0  0  0  0  0  0
  1  2  1  0  0  0  0
  1  5  2  0  0  0  0
  2  6  2  0  0  0  0
  3  8  2  0  0  0  0
  3 16  1  0  0  0  0
  4  9  1  0  0  0  0
  4 16  2  0  0  0  0
  5 18  1  0  0  0  0
  6 20  1  0  0  0  0
  7 10  2  0  0  0  0
  7 19  1  0  0  0  0
  8 23  1  0  0  0  0
  9 23  2  0  0  0  0
 10 24  1  0  0  0  0
 11 12  2  0  0  0  0
 11 25  1  0  0  0  0
 12 26  1  0  0  0  0
 13 21  1  0  0  0  0
 13 24  2  0  0  0  0
 14 26  2  0  0  0  0
 14 27  1  0  0  0  0
 15 22  1  0  0  0  0
 15 65  2  0  0  0  0
 16 28  1  0  0  0  0
 17 28  1  0  0  0  0
 17 30  2  0  0  0  0
 17 32  1  0  0  0  0
 18 20  2  0  0  0  0
 18 37  1  0  0  0  0
 19 21  2  0  0  0  0
 19 38  1  0  0  0  0
 20 48  1  0  0  0  0
 21 39  1  0  0  0  0
 22 29  2  0  0  0  0
 22 47  1  0  0  0  0
 23 82  1  0  0  0  0
 24 83  1  0  0  0  0
 25 27  2  0  0  0  0
 25 82  1  0  0  0  0
 26 84  1  0  0  0  0
 27 85  1  0  0  0  0
 28 66  2  0  0  0  0
 29 52  1  0  0  0  0
 29 67  1  0  0  0  0
 30 68  1  0  0  0  0
 30 71  1  0  0  0  0
 31 61  1  0  0  0  0
 31 65  1  0  0  0  0
 31 67  2  0  0  0  0
 32 72  1  0  0  0  0
 32 77  2  0  0  0  0
 33 49  1  0  0  0  0
 33 73  1  0  0  0  0
 33 78  2  0  0  0  0
 34 62  1  0  0  0  0
 34 69  1  0  0  0  0
 34 79  2  0  0  0  0
 35 63  1  0  0  0  0
 35 74  1  0  0  0  0
 35 80  2  0  0  0  0
 36 70  1  0  0  0  0
 36 75  1  0  0  0  0
 36 81  2  0  0  0  0
 37 40  1  0  0  0  0
 38 49  1  0  0  0  0
 39 69  1  0  0  0  0
 40 42  1  0  0  0  0
 41 43  1  0  0  0  0
 41 45  1  0  0  0  0
 42 48  1  0  0  0  0
 43 50  1  0  0  0  0
 44 51  1  0  0  0  0
 44 52  1  0  0  0  0
 45 70  1  0  0  0  0
 46 50  1  0  0  0  0
 46 70  1  0  0  0  0
 47 51  1  0  0  0  0
 47 53  1  0  0  0  0
 48 73  1  0  0  0  0
 49 69  1  0  0  0  0
 50 68  1  0  0  0  0
 51 75  1  0  0  0  0
 52 54  1  0  0  0  0
 52 55  1  0  0  0  0
 56 63  1  0  0  0  0
 57 64  1  0  0  0  0
 58 64  1  0  0  0  0
 59 64  1  0  0  0  0
 60 76  1  0  0  0  0
 61 83  1  0  0  0  0
 62 64  1  0  0  0  0
 62 74  1  0  0  0  0
 63 76  1  0  0  0  0
 66 68  1  0  0  0  0
M  CHG  1  76   1
M  ISO  4  36 100  61 101  75 100  83 101
M  END
> <Batch ID>
0180

> <Smiles>
CNC(C)C(=O)NC(C(=O)N1Cc2cc([101O:1][101CH2:1]c3ncc4c(n3)C(C)(C)CC([100NH:0][100C:0](=O)N3CCCC(n5nc(-c6ccc(Oc7ccc(F)cc7F)cc6)c(C(N)=O)c5N)C3)C4C)ccc2CC1C(=O)NC1CCCc2ccccc21)C(C)(C)C

> <Shape>
0.315

> <Color>
0.109

> <Negative vol penalty>
0.000

$$$$

  -OEChem-04052323003D

 83 92  0     1  0  0  0  0  0999 V2000
  -35.9803  -29.7631   12.1117 C   0  0  0  0  0  0  0  0  0  0  0  0
  -35.8425  -28.5443   12.7681 C   0  0  0  0  0  0  0  0  0  0  0  0
  -23.0814   -9.9030   19.9209 C   0  0  0  0  0  0  0  0  0  0  0  0
  -23.8431   -9.8693   22.2134 C   0  0  0  0  0  0  0  0  0  0  0  0
  -34.9732  -30.7226   12.2069 C   0  0  0  0  0  0  0  0  0  0  0  0
  -34.6979  -28.2847   13.5211 C   0  0  0  0  0  0  0  0  0  0  0  0
  -31.8898  -22.8860   14.2088 C   0  0  0  0  0  0  0  0  0  0  0  0
  -22.3310   -8.7504   20.1532 C   0  0  0  0  0  0  0  0  0  0  0  0
  -23.0926   -8.7167   22.4458 C   0  0  0  0  0  0  0  0  0  0  0  0
  -31.9354  -21.9270   15.2198 C   0  0  0  0  0  0  0  0  0  0  0  0
  -19.8603   -7.9283   23.0384 C   0  0  0  0  0  0  0  0  0  0  0  0
  -19.1040   -7.8742   24.2091 C   0  0  0  0  0  0  0  0  0  0  0  0
  -29.9500  -22.8797   16.2048 C   0  0  0  0  0  0  0  0  0  0  0  0
  -30.7314  -20.2819   20.4630 C   0  0  0  0  0  0  0  0  0  0  0  0
  -20.3347   -5.9182   24.9138 C   0  0  0  0  0  0  0  0  0  0  0  0
  -23.8375  -10.4624   20.9510 C   0  0  0  0  0  0  0  0  0  0  0  0
  -24.1940  -12.9871   20.8706 C   0  0  0  0  0  0  0  0  0  0  0  0
  -33.8114  -30.4709   12.9535 C   0  0  0  0  0  0  0  0  0  0  0  0
  -30.8785  -23.8573   14.1943 C   0  0  0  0  0  0  0  0  0  0  0  0
  -33.6750  -29.2423   13.6274 C   0  0  0  0  0  0  0  0  0  0  0  0
  -29.8923  -23.8483   15.1911 C   0  0  0  0  0  0  0  0  0  0  0  0
  -30.2213  -19.9631   19.2095 C   0  0  0  0  0  0  0  0  0  0  0  0
  -30.9490  -19.2741   21.3958 C   0  0  0  0  0  0  0  0  0  0  0  0
  -22.3366   -8.1572   21.4156 C   0  0  0  0  0  0  0  0  0  0  0  0
  -30.9671  -21.9255   16.2196 C   0  0  0  0  0  0  0  0  0  0  0  0
  -20.8537   -6.9772   22.8052 C   0  0  0  0  0  0  0  0  0  0  0  0
  -19.3412   -6.8692   25.1469 C   0  0  0  0  0  0  0  0  0  0  0  0
  -21.0909   -5.9722   23.7430 C   0  0  0  0  0  0  0  0  0  0  0  0
  -24.6133  -11.6527   20.7114 C   0  0  0  0  0  0  0  0  0  0  0  0
  -29.9474  -18.6318   18.9402 C   0  0  0  0  0  0  0  0  0  0  0  0
  -30.6424  -17.9736   21.0288 C   0  0  0  0  0  0  0  0  0  0  0  0
  -25.2902  -13.7358   20.5183 C   0  0  0  0  0  0  0  0  0  0  0  0
  -22.9269  -13.5036   21.2987 C   0  0  0  0  0  0  0  0  0  0  0  0
  -30.8127  -27.0299   14.3795 C   0  0  0  0  0  0  0  0  0  0  0  0
  -27.6518  -26.6101   13.7837 C   0  0  0  0  0  0  0  0  0  0  0  0
  -24.9281  -24.5576   13.9061 C   0  0  0  0  0  0  0  0  0  0  0  0
  -30.7800  -14.7198   20.7180 C   0  0  0  0  0  0  0  0  0  0  0  0
  -32.7711  -31.5571   13.0658 C   0  0  0  0  0  0  0  0  0  0  0  0
  -30.8279  -24.8684   13.0819 C   0  0  0  0  0  0  0  0  0  0  0  0
  -28.7740  -24.8570   15.2094 C   0  0  0  0  0  0  0  0  0  0  0  0
  -31.4221  -31.0581   13.5771 C   0  0  0  0  0  0  0  0  0  0  0  0
  -29.6266  -12.3800   18.2948 C   0  0  0  0  0  0  0  0  0  0  0  0
  -31.6124  -30.1559   14.7923 C   0  0  0  0  0  0  0  0  0  0  0  0
  -27.9132  -18.3146   17.3797 C   0  0  0  0  0  0  0  0  0  0  0  0
  -28.5858  -16.9821   17.4901 C   0  0  0  0  0  0  0  0  0  0  0  0
  -28.1878  -12.0878   18.7243 C   0  0  0  0  0  0  0  0  0  0  0  0
  -30.5460  -12.5764   19.4983 C   0  0  0  0  0  0  0  0  0  0  0  0
  -28.6496  -13.2966   20.8979 C   0  0  0  0  0  0  0  0  0  0  0  0
  -32.4371  -28.9139   14.4336 C   0  0  1  0  0  0  0  0  0  0  0  0
  -29.3991  -18.2428   17.6055 C   0  0  0  0  0  0  0  0  0  0  0  0
  -30.0490  -26.1266   13.4530 C   0  0  1  0  0  0  0  0  0  0  0  0
  -27.6735  -13.1463   19.7185 C   0  0  2  0  0  0  0  0  0  0  0  0
  -31.4955  -19.6098   22.7402 C   0  0  0  0  0  0  0  0  0  0  0  0
  -22.4743  -24.5073   13.3829 C   0  0  0  0  0  0  0  0  0  0  0  0
  -27.0885  -28.2759   16.2772 C   0  0  0  0  0  0  0  0  0  0  0  0
  -24.7406  -27.4075   16.2420 C   0  0  0  0  0  0  0  0  0  0  0  0
  -25.5938  -28.7688   14.3337 C   0  0  0  0  0  0  0  0  0  0  0  0
  -25.2704  -22.3562   11.9579 C   0  0  0  0  0  0  0  0  0  0  0  0
  -29.9858  -21.0481   18.2003 C   0  0  0  0  0  0  0  0  0  1  0  0
  -30.8594  -16.8501   21.9887 C   0  0  0  0  0  0  0  0  0  0  0  0
  -26.4224  -26.3992   14.6340 C   0  0  1  0  0  0  0  0  0  0  0  0
  -23.8752  -24.2180   12.8666 C   0  0  2  0  0  0  0  0  0  0  0  0
  -25.9834  -27.6949   15.3728 C   0  0  0  0  0  0  0  0  0  0  0  0
  -25.8773  -11.5561   20.2906 N   0  0  0  0  0  0  0  0  0  0  0  0
  -30.1456  -17.6252   19.8207 N   0  0  0  0  0  0  0  0  0  0  0  0
  -26.2616  -12.8393   20.1823 N   0  0  0  0  0  0  0  0  0  0  0  0
  -28.7714  -25.8291   14.1037 N   0  0  0  0  0  0  0  0  0  0  0  0
  -30.0021  -13.5940   20.4009 N   0  0  0  0  0  0  0  0  0  0  0  0
  -25.5084  -15.0670   20.4661 N   0  0  0  0  0  0  0  0  0  0  0  0
  -21.9099  -12.5952   21.6224 N   0  0  0  0  0  0  0  0  0  0  0  0
  -31.6178  -27.9482   13.7330 N   0  0  0  0  0  0  0  0  0  0  0  0
  -25.4050  -25.8418   13.7494 N   0  0  0  0  0  0  0  0  0  0  0  0
  -30.1869  -15.6386   21.5752 N   0  0  0  0  0  0  0  0  0  0  0  0
  -23.9532  -22.7750   12.5025 N   0  3  0  0  0  0  0  0  0  0  0  0
  -22.6979  -14.7345   21.3757 O   0  0  0  0  0  0  0  0  0  0  0  0
  -30.6802  -26.9040   15.5913 O   0  0  0  0  0  0  0  0  0  0  0  0
  -27.6178  -27.4323   12.8647 O   0  0  0  0  0  0  0  0  0  0  0  0
  -25.2886  -23.7643   14.7729 O   0  0  0  0  0  0  0  0  0  0  0  0
  -31.9166  -14.8957   20.2663 O   0  0  0  0  0  0  0  0  0  0  0  0
  -21.6042   -7.0327   21.6428 O   0  0  0  0  0  0  0  0  0  0  0  0
  -31.0097  -20.9910   17.2079 O   0  0  0  0  0  0  0  0  0  1  0  0
  -18.6159   -6.8184   26.2718 F   0  0  0  0  0  0  0  0  0  0  0  0
  -22.0447   -5.0564   23.5251 F   0  0  0  0  0  0  0  0  0  0  0  0
  1  2  1  0  0  0  0
  1  5  2  0  0  0  0
  2  6  2  0  0  0  0
  3  8  2  0  0  0  0
  3 16  1  0  0  0  0
  4  9  1  0  0  0  0
  4 16  2  0  0  0  0
  5 18  1  0  0  0  0
  6 20  1  0  0  0  0
  7 10  2  0  0  0  0
  7 19  1  0  0  0  0
  8 24  1  0  0  0  0
  9 24  2  0  0  0  0
 10 25  1  0  0  0  0
 11 12  2  0  0  0  0
 11 26  1  0  0  0  0
 12 27  1  0  0  0  0
 13 21  1  0  0  0  0
 13 25  2  0  0  0  0
 14 22  1  0  0  0  0
 14 23  2  0  0  0  0
 15 27  2  0  0  0  0
 15 28  1  0  0  0  0
 16 29  1  0  0  0  0
 17 29  1  0  0  0  0
 17 32  2  0  0  0  0
 17 33  1  0  0  0  0
 18 20  2  0  0  0  0
 18 38  1  0  0  0  0
 19 21  2  0  0  0  0
 19 39  1  0  0  0  0
 20 49  1  0  0  0  0
 21 40  1  0  0  0  0
 22 30  2  0  0  0  0
 22 59  1  0  0  0  0
 23 31  1  0  0  0  0
 23 53  1  0  0  0  0
 24 80  1  0  0  0  0
 25 81  1  0  0  0  0
 26 28  2  0  0  0  0
 26 80  1  0  0  0  0
 27 82  1  0  0  0  0
 28 83  1  0  0  0  0
 29 64  2  0  0  0  0
 30 50  1  0  0  0  0
 30 65  1  0  0  0  0
 31 60  1  0  0  0  0
 31 65  2  0  0  0  0
 32 66  1  0  0  0  0
 32 69  1  0  0  0  0
 33 70  1  0  0  0  0
 33 75  2  0  0  0  0
 34 51  1  0  0  0  0
 34 71  1  0  0  0  0
 34 76  2  0  0  0  0
 35 61  1  0  0  0  0
 35 67  1  0  0  0  0
 35 77  2  0  0  0  0
 36 62  1  0  0  0  0
 36 72  1  0  0  0  0
 36 78  2  0  0  0  0
 37 68  1  0  0  0  0
 37 73  1  0  0  0  0
 37 79  2  0  0  0  0
 38 41  1  0  0  0  0
 39 51  1  0  0  0  0
 40 67  1  0  0  0  0
 41 43  1  0  0  0  0
 42 46  1  0  0  0  0
 42 47  1  0  0  0  0
 43 49  1  0  0  0  0
 44 45  1  0  0  0  0
 44 50  1  0  0  0  0
 45 50  1  0  0  0  0
 46 52  1  0  0  0  0
 47 68  1  0  0  0  0
 48 52  1  0  0  0  0
 48 68  1  0  0  0  0
 49 71  1  0  0  0  0
 51 67  1  0  0  0  0
 52 66  1  0  0  0  0
 54 62  1  0  0  0  0
 55 63  1  0  0  0  0
 56 63  1  0  0  0  0
 57 63  1  0  0  0  0
 58 74  1  0  0  0  0
 59 81  1  0  0  0  0
 60 73  1  0  0  0  0
 61 63  1  0  0  0  0
 61 72  1  0  0  0  0
 62 74  1  0  0  0  0
 64 66  1  0  0  0  0
M  CHG  1  74   1
M  ISO  4  37 100  59 101  73 100  81 101
M  END
> <Batch ID>
0180

> <Smiles>
CNC(C)C(=O)NC(C(=O)N1Cc2cc([101O:1][101CH2:1]c3cc(C)c(C[100NH:0][100C:0](=O)N4CCCC(n5nc(-c6ccc(Oc7ccc(F)cc7F)cc6)c(C(N)=O)c5N)C4)nc3C3CC3)ccc2CC1C(=O)NC1CCCc2ccccc21)C(C)(C)C

> <Shape>
0.200

> <Color>
0.220

> <Negative vol penalty>
0.000

$$$$

  -OEChem-04052323003D

 84 93  0     1  0  0  0  0  0999 V2000
  -37.6192   -9.8551   17.4181 C   0  0  0  0  0  0  0  0  0  0  0  0
  -37.2698   -9.6170   18.7435 C   0  0  0  0  0  0  0  0  0  0  0  0
  -23.1905   -9.8192   19.9316 C   0  0  0  0  0  0  0  0  0  0  0  0
  -23.5684   -9.9993   22.3110 C   0  0  0  0  0  0  0  0  0  0  0  0
  -36.6339   -9.8781   16.4320 C   0  0  0  0  0  0  0  0  0  0  0  0
  -35.9346   -9.4028   19.0837 C   0  0  0  0  0  0  0  0  0  0  0  0
  -33.7999   -5.6748   23.4484 C   0  0  0  0  0  0  0  0  0  0  0  0
  -22.4243   -8.6725   20.1400 C   0  0  0  0  0  0  0  0  0  0  0  0
  -22.8021   -8.8526   22.5195 C   0  0  0  0  0  0  0  0  0  0  0  0
  -33.3785   -5.9072   24.7569 C   0  0  0  0  0  0  0  0  0  0  0  0
  -23.2035   -5.5060   22.2551 C   0  0  0  0  0  0  0  0  0  0  0  0
  -23.7018   -4.5446   23.1343 C   0  0  0  0  0  0  0  0  0  0  0  0
  -32.3356   -9.7062   25.6054 C   0  0  0  0  0  0  0  0  0  0  0  0
  -31.0931   -6.0247   23.9937 C   0  0  0  0  0  0  0  0  0  0  0  0
  -21.7450   -4.8042   24.5273 C   0  0  0  0  0  0  0  0  0  0  0  0
  -30.9907  -11.0591   27.0258 C   0  0  0  0  0  0  0  0  0  0  0  0
  -23.7626  -10.4826   21.0171 C   0  0  0  0  0  0  0  0  0  0  0  0
  -24.1012  -12.9993   20.7737 C   0  0  0  0  0  0  0  0  0  0  0  0
  -35.2871   -9.6545   16.7588 C   0  0  0  0  0  0  0  0  0  0  0  0
  -32.8706   -5.6264   22.3994 C   0  0  0  0  0  0  0  0  0  0  0  0
  -34.9301   -9.4242   18.1011 C   0  0  0  0  0  0  0  0  0  0  0  0
  -31.6673   -9.8687   26.8138 C   0  0  0  0  0  0  0  0  0  0  0  0
  -31.5050   -5.7890   22.6731 C   0  0  0  0  0  0  0  0  0  0  0  0
  -32.3073  -10.7247   24.6592 C   0  0  0  0  0  0  0  0  0  0  0  0
  -22.2301   -8.1892   21.4340 C   0  0  0  0  0  0  0  0  0  0  0  0
  -32.0253   -6.0851   25.0293 C   0  0  0  0  0  0  0  0  0  0  0  0
  -21.9760   -6.1166   22.5120 C   0  0  0  0  0  0  0  0  0  0  0  0
  -22.9726   -4.1936   24.2703 C   0  0  0  0  0  0  0  0  0  0  0  0
  -21.2467   -5.7657   23.6481 C   0  0  0  0  0  0  0  0  0  0  0  0
  -24.5547  -11.6669   20.8024 C   0  0  0  0  0  0  0  0  0  0  0  0
  -31.6019  -11.8767   24.9676 C   0  0  0  0  0  0  0  0  0  0  0  0
  -25.2324  -13.7421   20.5387 C   0  0  0  0  0  0  0  0  0  0  0  0
  -22.7759  -13.5191   20.9444 C   0  0  0  0  0  0  0  0  0  0  0  0
  -32.3810   -7.3228   19.7562 C   0  0  0  0  0  0  0  0  0  0  0  0
  -30.1434   -5.0469   19.1769 C   0  0  0  0  0  0  0  0  0  0  0  0
  -28.0405   -2.6670   20.4262 C   0  0  0  0  0  0  0  0  0  0  0  0
  -31.0470  -12.7525   21.5689 C   0  0  0  0  0  0  0  0  0  0  0  0
  -34.2516   -9.7359   15.6653 C   0  0  0  0  0  0  0  0  0  0  0  0
  -33.3385   -5.3481   20.9972 C   0  0  0  0  0  0  0  0  0  0  0  0
  -30.4652   -5.7259   21.5854 C   0  0  0  0  0  0  0  0  0  0  0  0
  -32.9063   -9.1279   16.0539 C   0  0  0  0  0  0  0  0  0  0  0  0
  -29.5201  -13.4702   18.4335 C   0  0  0  0  0  0  0  0  0  0  0  0
  -32.4855   -9.6048   17.4403 C   0  0  0  0  0  0  0  0  0  0  0  0
  -28.0335  -13.2096   18.6825 C   0  0  0  0  0  0  0  0  0  0  0  0
  -32.2626   -9.1284   29.2096 C   0  0  0  0  0  0  0  0  0  0  0  0
  -33.0232   -8.2378   28.2777 C   0  0  0  0  0  0  0  0  0  0  0  0
  -30.4014  -12.4807   19.1928 C   0  0  0  0  0  0  0  0  0  0  0  0
  -28.6476  -12.1376   20.8899 C   0  0  0  0  0  0  0  0  0  0  0  0
  -33.4956   -9.1628   18.5060 C   0  0  1  0  0  0  0  0  0  0  0  0
  -32.3577   -5.8308   19.9331 C   0  0  1  0  0  0  0  0  0  0  0  0
  -27.7202  -13.1454   20.1895 C   0  0  2  0  0  0  0  0  0  0  0  0
  -31.6785   -8.7964   27.8483 C   0  0  0  0  0  0  0  0  0  0  0  0
  -33.0211  -10.5567   23.3628 C   0  0  0  0  0  0  0  0  0  0  0  0
  -26.3081   -0.9979   19.7119 C   0  0  0  0  0  0  0  0  0  0  0  0
  -28.1230   -7.3040   18.8115 C   0  0  0  0  0  0  0  0  0  0  0  0
  -26.2937   -5.6114   19.0504 C   0  0  0  0  0  0  0  0  0  0  0  0
  -27.9122   -5.4377   17.1601 C   0  0  0  0  0  0  0  0  0  0  0  0
  -29.6326   -0.3973   21.4621 C   0  0  0  0  0  0  0  0  0  0  0  0
  -31.5367  -13.0034   23.9889 C   0  0  0  0  0  0  0  0  0  0  0  0
  -30.5130   -7.8541   27.7981 C   0  0  0  0  0  0  0  0  0  0  0  0
  -30.4353   -7.1029   26.4757 C   0  0  0  0  0  0  0  0  0  1  0  0
  -28.6791   -4.8796   19.5037 C   0  0  1  0  0  0  0  0  0  0  0  0
  -27.7816   -1.2312   20.0069 C   0  0  2  0  0  0  0  0  0  0  0  0
  -27.7715   -5.8113   18.6519 C   0  0  0  0  0  0  0  0  0  0  0  0
  -30.9406  -12.0709   26.1306 N   0  0  0  0  0  0  0  0  0  0  0  0
  -25.8713  -11.5660   20.6014 N   0  0  0  0  0  0  0  0  0  0  0  0
  -26.2548  -12.8444   20.4442 N   0  0  0  0  0  0  0  0  0  0  0  0
  -30.9731   -5.4577   20.2298 N   0  0  0  0  0  0  0  0  0  0  0  0
  -30.0546  -12.4694   20.6160 N   0  0  0  0  0  0  0  0  0  0  0  0
  -25.4422  -15.0690   20.4057 N   0  0  0  0  0  0  0  0  0  0  0  0
  -21.7293  -12.6168   21.1781 N   0  0  0  0  0  0  0  0  0  0  0  0
  -33.3077   -7.7652   18.8316 N   0  0  0  0  0  0  0  0  0  0  0  0
  -28.3866   -3.4584   19.3515 N   0  0  0  0  0  0  0  0  0  0  0  0
  -30.6326  -12.7269   22.8949 N   0  0  0  0  0  0  0  0  0  0  0  0
  -28.1990   -0.2929   21.0869 N   0  3  0  0  0  0  0  0  0  0  0  0
  -22.5246  -14.7461   20.8748 O   0  0  0  0  0  0  0  0  0  0  0  0
  -31.6140   -8.0207   20.4091 O   0  0  0  0  0  0  0  0  0  0  0  0
  -30.5377   -4.8145   18.0314 O   0  0  0  0  0  0  0  0  0  0  0  0
  -27.9417   -3.0491   21.5902 O   0  0  0  0  0  0  0  0  0  0  0  0
  -32.2146  -13.0143   21.2604 O   0  0  0  0  0  0  0  0  0  0  0  0
  -21.4823   -7.0703   21.6378 O   0  0  0  0  0  0  0  0  0  0  0  0
  -31.6113   -6.3127   26.3055 O   0  0  0  0  0  0  0  0  0  1  0  0
  -23.4505   -3.2693   25.1137 F   0  0  0  0  0  0  0  0  0  0  0  0
  -20.0662   -6.3480   23.8996 F   0  0  0  0  0  0  0  0  0  0  0  0
  1  2  1  0  0  0  0
  1  5  2  0  0  0  0
  2  6  2  0  0  0  0
  3  8  2  0  0  0  0
  3 17  1  0  0  0  0
  4  9  1  0  0  0  0
  4 17  2  0  0  0  0
  5 19  1  0  0  0  0
  6 21  1  0  0  0  0
  7 10  2  0  0  0  0
  7 20  1  0  0  0  0
  8 25  1  0  0  0  0
  9 25  2  0  0  0  0
 10 26  1  0  0  0  0
 11 12  2  0  0  0  0
 11 27  1  0  0  0  0
 12 28  1  0  0  0  0
 13 22  2  0  0  0  0
 13 24  1  0  0  0  0
 14 23  1  0  0  0  0
 14 26  2  0  0  0  0
 15 28  2  0  0  0  0
 15 29  1  0  0  0  0
 16 22  1  0  0  0  0
 16 65  2  0  0  0  0
 17 30  1  0  0  0  0
 18 30  1  0  0  0  0
 18 32  2  0  0  0  0
 18 33  1  0  0  0  0
 19 21  2  0  0  0  0
 19 38  1  0  0  0  0
 20 23  2  0  0  0  0
 20 39  1  0  0  0  0
 21 49  1  0  0  0  0
 22 52  1  0  0  0  0
 23 40  1  0  0  0  0
 24 31  2  0  0  0  0
 24 53  1  0  0  0  0
 25 81  1  0  0  0  0
 26 82  1  0  0  0  0
 27 29  2  0  0  0  0
 27 81  1  0  0  0  0
 28 83  1  0  0  0  0
 29 84  1  0  0  0  0
 30 66  2  0  0  0  0
 31 59  1  0  0  0  0
 31 65  1  0  0  0  0
 32 67  1  0  0  0  0
 32 70  1  0  0  0  0
 33 71  1  0  0  0  0
 33 76  2  0  0  0  0
 34 50  1  0  0  0  0
 34 72  1  0  0  0  0
 34 77  2  0  0  0  0
 35 62  1  0  0  0  0
 35 68  1  0  0  0  0
 35 78  2  0  0  0  0
 36 63  1  0  0  0  0
 36 73  1  0  0  0  0
 36 79  2  0  0  0  0
 37 69  1  0  0  0  0
 37 74  1  0  0  0  0
 37 80  2  0  0  0  0
 38 41  1  0  0  0  0
 39 50  1  0  0  0  0
 40 68  1  0  0  0  0
 41 43  1  0  0  0  0
 42 44  1  0  0  0  0
 42 47  1  0  0  0  0
 43 49  1  0  0  0  0
 44 51  1  0  0  0  0
 45 46  1  0  0  0  0
 45 52  1  0  0  0  0
 46 52  1  0  0  0  0
 47 69  1  0  0  0  0
 48 51  1  0  0  0  0
 48 69  1  0  0  0  0
 49 72  1  0  0  0  0
 50 68  1  0  0  0  0
 51 67  1  0  0  0  0
 52 60  1  0  0  0  0
 54 63  1  0  0  0  0
 55 64  1  0  0  0  0
 56 64  1  0  0  0  0
 57 64  1  0  0  0  0
 58 75  1  0  0  0  0
 59 74  1  0  0  0  0
 60 61  1  0  0  0  0
 61 82  1  0  0  0  0
 62 64  1  0  0  0  0
 62 73  1  0  0  0  0
 63 75  1  0  0  0  0
 66 67  1  0  0  0  0
M  CHG  1  75   1
M  ISO  4  37 100  61 101  74 100  82 101
M  END
> <Batch ID>
0180

> <Smiles>
CNC(C)C(=O)NC(C(=O)N1Cc2cc([101O:1][101CH2:1]CC3(c4cnc(C[100NH:0][100C:0](=O)N5CCCC(n6nc(-c7ccc(Oc8ccc(F)cc8F)cc7)c(C(N)=O)c6N)C5)c(C)c4)CC3)ccc2CC1C(=O)NC1CCCc2ccccc21)C(C)(C)C

> <Shape>
0.140

> <Color>
0.186

> <Negative vol penalty>
0.000

$$$$

  -OEChem-04052323003D

 84 93  0     1  0  0  0  0  0999 V2000
  -24.8955  -38.5809   19.9549 C   0  0  0  0  0  0  0  0  0  0  0  0
  -25.0750  -37.5199   19.0731 C   0  0  0  0  0  0  0  0  0  0  0  0
  -23.5561  -11.4454   23.3050 C   0  0  0  0  0  0  0  0  0  0  0  0
  -22.9044  -10.4447   21.2047 C   0  0  0  0  0  0  0  0  0  0  0  0
  -25.2771  -38.4488   21.2894 C   0  0  0  0  0  0  0  0  0  0  0  0
  -25.6372  -36.3266   19.5251 C   0  0  0  0  0  0  0  0  0  0  0  0
  -25.3475  -29.2528   18.4325 C   0  0  0  0  0  0  0  0  0  0  0  0
  -22.5438  -10.7399   23.9553 C   0  0  0  0  0  0  0  0  0  0  0  0
  -21.8921   -9.7391   21.8550 C   0  0  0  0  0  0  0  0  0  0  0  0
  -26.1833  -28.1687   18.1680 C   0  0  0  0  0  0  0  0  0  0  0  0
  -19.3664   -7.3986   23.0216 C   0  0  0  0  0  0  0  0  0  0  0  0
  -19.2114   -6.0484   22.7079 C   0  0  0  0  0  0  0  0  0  0  0  0
  -26.7319  -28.0274   20.5129 C   0  0  0  0  0  0  0  0  0  0  0  0
  -30.8966  -22.8113   18.7043 C   0  0  0  0  0  0  0  0  0  0  0  0
  -21.4672   -5.6153   23.4570 C   0  0  0  0  0  0  0  0  0  0  0  0
  -23.7364  -11.2979   21.9296 C   0  0  0  0  0  0  0  0  0  0  0  0
  -26.1088  -11.6082   21.0447 C   0  0  0  0  0  0  0  0  0  0  0  0
  -25.8354  -37.2500   21.7602 C   0  0  0  0  0  0  0  0  0  0  0  0
  -25.2059  -29.7400   19.7398 C   0  0  0  0  0  0  0  0  0  0  0  0
  -26.0279  -36.1789   20.8668 C   0  0  0  0  0  0  0  0  0  0  0  0
  -25.8917  -29.1161   20.7917 C   0  0  0  0  0  0  0  0  0  0  0  0
  -29.5274  -22.5786   18.7709 C   0  0  0  0  0  0  0  0  0  0  0  0
  -28.6776  -23.5854   19.2152 C   0  0  0  0  0  0  0  0  0  0  0  0
  -21.7118   -9.8867   23.2303 C   0  0  0  0  0  0  0  0  0  0  0  0
  -26.8779  -27.5576   19.2079 C   0  0  0  0  0  0  0  0  0  0  0  0
  -20.5719   -7.8572   23.5530 C   0  0  0  0  0  0  0  0  0  0  0  0
  -20.2617   -5.1567   22.9256 C   0  0  0  0  0  0  0  0  0  0  0  0
  -21.6222   -6.9656   23.7706 C   0  0  0  0  0  0  0  0  0  0  0  0
  -24.7817  -12.0269   21.2572 C   0  0  0  0  0  0  0  0  0  0  0  0
  -31.3621  -24.0580   19.0902 C   0  0  0  0  0  0  0  0  0  0  0  0
  -29.2424  -24.7974   19.5784 C   0  0  0  0  0  0  0  0  0  0  0  0
  -26.6930  -12.6498   20.3662 C   0  0  0  0  0  0  0  0  0  0  0  0
  -26.7557  -10.3869   21.4263 C   0  0  0  0  0  0  0  0  0  0  0  0
  -25.8269  -32.5030   21.1835 C   0  0  0  0  0  0  0  0  0  0  0  0
  -24.3563  -31.0735   23.6968 C   0  0  0  0  0  0  0  0  0  0  0  0
  -23.4488  -28.1778   25.2582 C   0  0  0  0  0  0  0  0  0  0  0  0
  -27.6310  -18.0632   19.9566 C   0  0  0  0  0  0  0  0  0  0  0  0
  -26.2761  -37.1707   23.2004 C   0  0  0  0  0  0  0  0  0  0  0  0
  -24.2797  -30.8934   20.0123 C   0  0  0  0  0  0  0  0  0  0  0  0
  -25.7582  -29.5881   22.2157 C   0  0  0  0  0  0  0  0  0  0  0  0
  -26.5191  -35.7438   23.6854 C   0  0  0  0  0  0  0  0  0  0  0  0
  -24.6747  -16.7284   18.1983 C   0  0  0  0  0  0  0  0  0  0  0  0
  -27.3469  -34.9673   22.6663 C   0  0  0  0  0  0  0  0  0  0  0  0
  -24.5247  -15.3661   18.8691 C   0  0  0  0  0  0  0  0  0  0  0  0
  -29.8997  -20.0456   18.4274 C   0  0  0  0  0  0  0  0  0  0  0  0
  -25.2062  -17.7874   19.1633 C   0  0  0  0  0  0  0  0  0  0  0  0
  -26.3291  -16.0316   20.5052 C   0  0  0  0  0  0  0  0  0  0  0  0
  -28.9948  -21.2455   18.3616 C   0  0  1  0  0  0  0  0  0  0  0  0
  -26.6115  -34.8599   21.3249 C   0  0  1  0  0  0  0  0  0  0  0  0
  -24.6091  -31.6314   21.3063 C   0  0  1  0  0  0  0  0  0  0  0  0
  -25.8418  -14.9425   19.5372 C   0  0  1  0  0  0  0  0  0  0  0  0
  -28.7834  -20.1881   19.4193 C   0  0  1  0  0  0  0  0  0  0  0  0
  -32.8259  -24.3429   19.0321 C   0  0  0  0  0  0  0  0  0  0  0  0
  -26.5293  -23.4362   17.9309 C   0  0  0  0  0  0  0  0  0  0  0  0
  -22.2896  -27.3289   27.3156 C   0  0  0  0  0  0  0  0  0  0  0  0
  -26.8248  -31.7426   25.3607 C   0  0  0  0  0  0  0  0  0  0  0  0
  -26.0396  -30.0850   27.0648 C   0  0  0  0  0  0  0  0  0  0  0  0
  -24.6467  -32.0869   26.5405 C   0  0  0  0  0  0  0  0  0  0  0  0
  -21.3630  -26.8144   23.6614 C   0  0  0  0  0  0  0  0  0  0  0  0
  -27.2038  -23.3662   19.2982 C   0  0  0  0  0  0  0  0  0  0  0  0
  -28.3761  -25.9216   20.0651 C   0  0  0  0  0  0  0  0  0  1  0  0
  -24.8084  -30.2126   24.8515 C   0  0  1  0  0  0  0  0  0  0  0  0
  -22.1285  -27.7272   25.8567 C   0  0  2  0  0  0  0  0  0  0  0  0
  -25.5841  -31.0239   25.9274 C   0  0  0  0  0  0  0  0  0  0  0  0
  -24.5369  -13.2399   20.7546 N   0  0  0  0  0  0  0  0  0  0  0  0
  -30.5674  -25.0606   19.5271 N   0  0  0  0  0  0  0  0  0  0  0  0
  -25.7183  -13.5925   20.2196 N   0  0  0  0  0  0  0  0  0  0  0  0
  -24.8456  -30.7232   22.4304 N   0  0  0  0  0  0  0  0  0  0  0  0
  -26.4324  -17.3363   19.8400 N   0  0  0  0  0  0  0  0  0  0  0  0
  -27.9402  -12.8421   19.8867 N   0  0  0  0  0  0  0  0  0  0  0  0
  -26.0092   -9.4232   22.1180 N   0  0  0  0  0  0  0  0  0  0  0  0
  -25.5807  -33.8464   21.3934 N   0  0  0  0  0  0  0  0  0  0  0  0
  -23.6134  -29.5434   25.3541 N   0  0  0  0  0  0  0  0  0  0  0  0
  -27.6325  -19.3262   19.3755 N   0  0  0  0  0  0  0  0  0  0  0  0
  -21.5923  -26.5566   25.1064 N   0  3  0  0  0  0  0  0  0  0  0  0
  -27.9645  -10.1639   21.1763 O   0  0  0  0  0  0  0  0  0  0  0  0
  -26.9099  -31.9941   20.9193 O   0  0  0  0  0  0  0  0  0  0  0  0
  -23.5914  -32.0176   23.9095 O   0  0  0  0  0  0  0  0  0  0  0  0
  -24.2552  -27.3961   24.7590 O   0  0  0  0  0  0  0  0  0  0  0  0
  -28.6272  -17.6229   20.5408 O   0  0  0  0  0  0  0  0  0  0  0  0
  -20.7239   -9.1979   23.8646 O   0  0  0  0  0  0  0  0  0  0  0  0
  -27.6949  -26.4997   18.9524 O   0  0  0  0  0  0  0  0  0  1  0  0
  -20.1122   -3.8598   22.6257 F   0  0  0  0  0  0  0  0  0  0  0  0
  -22.7822   -7.4001   24.2819 F   0  0  0  0  0  0  0  0  0  0  0  0
  1  2  1  0  0  0  0
  1  5  2  0  0  0  0
  2  6  2  0  0  0  0
  3  8  2  0  0  0  0
  3 16  1  0  0  0  0
  4  9  1  0  0  0  0
  4 16  2  0  0  0  0
  5 18  1  0  0  0  0
  6 20  1  0  0  0  0
  7 10  2  0  0  0  0
  7 19  1  0  0  0  0
  8 24  1  0  0  0  0
  9 24  2  0  0  0  0
 10 25  1  0  0  0  0
 11 12  2  0  0  0  0
 11 26  1  0  0  0  0
 12 27  1  0  0  0  0
 13 21  1  0  0  0  0
 13 25  2  0  0  0  0
 14 22  2  0  0  0  0
 14 30  1  0  0  0  0
 15 27  2  0  0  0  0
 15 28  1  0  0  0  0
 16 29  1  0  0  0  0
 17 29  1  0  0  0  0
 17 32  2  0  0  0  0
 17 33  1  0  0  0  0
 18 20  2  0  0  0  0
 18 38  1  0  0  0  0
 19 21  2  0  0  0  0
 19 39  1  0  0  0  0
 20 49  1  0  0  0  0
 21 40  1  0  0  0  0
 22 23  1  0  0  0  0
 22 48  1  0  0  0  0
 23 31  2  0  0  0  0
 23 60  1  0  0  0  0
 24 81  1  0  0  0  0
 25 82  1  0  0  0  0
 26 28  2  0  0  0  0
 26 81  1  0  0  0  0
 27 83  1  0  0  0  0
 28 84  1  0  0  0  0
 29 65  2  0  0  0  0
 30 53  1  0  0  0  0
 30 66  2  0  0  0  0
 31 61  1  0  0  0  0
 31 66  1  0  0  0  0
 32 67  1  0  0  0  0
 32 70  1  0  0  0  0
 33 71  1  0  0  0  0
 33 76  2  0  0  0  0
 34 50  1  0  0  0  0
 34 72  1  0  0  0  0
 34 77  2  0  0  0  0
 35 62  1  0  0  0  0
 35 68  1  0  0  0  0
 35 78  2  0  0  0  0
 36 63  1  0  0  0  0
 36 73  1  0  0  0  0
 36 79  2  0  0  0  0
 37 69  1  0  0  0  0
 37 74  1  0  0  0  0
 37 80  2  0  0  0  0
 38 41  1  0  0  0  0
 39 50  1  0  0  0  0
 40 68  1  0  0  0  0
 41 43  1  0  0  0  0
 42 44  1  0  0  0  0
 42 46  1  0  0  0  0
 43 49  1  0  0  0  0
 44 51  1  0  0  0  0
 45 48  1  0  0  0  0
 45 52  1  0  0  0  0
 46 69  1  0  0  0  0
 47 51  1  0  0  0  0
 47 69  1  0  0  0  0
 48 52  1  0  0  0  0
 49 72  1  0  0  0  0
 50 68  1  0  0  0  0
 51 67  1  0  0  0  0
 52 74  1  0  0  0  0
 54 60  1  0  0  0  0
 55 63  1  0  0  0  0
 56 64  1  0  0  0  0
 57 64  1  0  0  0  0
 58 64  1  0  0  0  0
 59 75  1  0  0  0  0
 61 82  1  0  0  0  0
 62 64  1  0  0  0  0
 62 73  1  0  0  0  0
 63 75  1  0  0  0  0
 65 67  1  0  0  0  0
M  CHG  1  75   1
M  ISO  4  37 100  61 101  74 100  82 101
M  END
> <Batch ID>
0180

> <Smiles>
CCc1c(C2CC2[100NH:0][100C:0](=O)N2CCCC(n3nc(-c4ccc(Oc5ccc(F)cc5F)cc4)c(C(N)=O)c3N)C2)cc(C)nc1[101CH2:1][101O:1]c1ccc2c(c1)CN(C(=O)C(NC(=O)C(C)NC)C(C)(C)C)C(C(=O)NC1CCCc3ccccc31)C2

> <Shape>
0.278

> <Color>
0.092

> <Negative vol penalty>
0.000

$$$$

  -OEChem-04052323003D

 81 90  0     1  0  0  0  0  0999 V2000
  -16.6188  -29.2321   23.8034 C   0  0  0  0  0  0  0  0  0  0  0  0
  -17.4331  -28.1198   23.9911 C   0  0  0  0  0  0  0  0  0  0  0  0
  -23.5305   -9.7207   19.9788 C   0  0  0  0  0  0  0  0  0  0  0  0
  -23.6254  -10.1271   22.3585 C   0  0  0  0  0  0  0  0  0  0  0  0
  -17.1608  -30.4145   23.3013 C   0  0  0  0  0  0  0  0  0  0  0  0
  -18.7896  -28.1889   23.6756 C   0  0  0  0  0  0  0  0  0  0  0  0
  -23.3920  -25.3781   26.5778 C   0  0  0  0  0  0  0  0  0  0  0  0
  -22.8512   -8.5247   20.2101 C   0  0  0  0  0  0  0  0  0  0  0  0
  -22.9461   -8.9310   22.5898 C   0  0  0  0  0  0  0  0  0  0  0  0
  -24.0949  -24.2050   26.3064 C   0  0  0  0  0  0  0  0  0  0  0  0
  -19.7602   -7.8118   22.4556 C   0  0  0  0  0  0  0  0  0  0  0  0
  -18.7165   -7.8295   23.3808 C   0  0  0  0  0  0  0  0  0  0  0  0
  -25.8142  -25.4955   25.2119 C   0  0  0  0  0  0  0  0  0  0  0  0
  -19.8727   -6.1814   24.7165 C   0  0  0  0  0  0  0  0  0  0  0  0
  -27.8700  -19.1937   26.0785 C   0  0  0  0  0  0  0  0  0  0  0  0
  -26.4103  -20.3139   24.1441 C   0  0  0  0  0  0  0  0  0  0  0  0
  -23.9177  -10.5219   21.0530 C   0  0  0  0  0  0  0  0  0  0  0  0
  -24.0555  -13.0321   20.6197 C   0  0  0  0  0  0  0  0  0  0  0  0
  -18.5266  -30.5011   22.9886 C   0  0  0  0  0  0  0  0  0  0  0  0
  -23.8904  -26.6198   26.1581 C   0  0  0  0  0  0  0  0  0  0  0  0
  -19.3500  -29.3732   23.1676 C   0  0  0  0  0  0  0  0  0  0  0  0
  -25.1170  -26.6831   25.4815 C   0  0  0  0  0  0  0  0  0  0  0  0
  -22.5589   -8.1298   21.5156 C   0  0  0  0  0  0  0  0  0  0  0  0
  -25.3047  -24.2633   25.6208 C   0  0  0  0  0  0  0  0  0  0  0  0
  -20.8601   -6.9788   22.6608 C   0  0  0  0  0  0  0  0  0  0  0  0
  -18.7728   -7.0144   24.5113 C   0  0  0  0  0  0  0  0  0  0  0  0
  -20.9163   -6.1637   23.7913 C   0  0  0  0  0  0  0  0  0  0  0  0
  -24.6200  -11.7573   20.8147 C   0  0  0  0  0  0  0  0  0  0  0  0
  -27.9493  -18.7457   24.7782 C   0  0  0  0  0  0  0  0  0  0  0  0
  -26.3304  -20.7614   25.4444 C   0  0  0  0  0  0  0  0  0  0  0  0
  -25.1350  -13.8612   20.4359 C   0  0  0  0  0  0  0  0  0  0  0  0
  -22.6785  -13.4312   20.6061 C   0  0  0  0  0  0  0  0  0  0  0  0
  -22.8683  -28.8987   24.1919 C   0  0  0  0  0  0  0  0  0  0  0  0
  -25.4645  -30.4882   25.3124 C   0  0  0  0  0  0  0  0  0  0  0  0
  -28.5623  -30.3373   26.7364 C   0  0  0  0  0  0  0  0  0  0  0  0
  -30.2845  -15.4876   22.0777 C   0  0  0  0  0  0  0  0  0  0  0  0
  -19.0574  -31.7861   22.4039 C   0  0  0  0  0  0  0  0  0  0  0  0
  -23.1334  -27.8784   26.4821 C   0  0  0  0  0  0  0  0  0  0  0  0
  -25.7053  -27.9930   25.0272 C   0  0  0  0  0  0  0  0  0  0  0  0
  -20.5796  -31.8919   22.4473 C   0  0  0  0  0  0  0  0  0  0  0  0
  -30.0052  -12.8341   19.6666 C   0  0  0  0  0  0  0  0  0  0  0  0
  -21.2190  -30.5956   21.9599 C   0  0  0  0  0  0  0  0  0  0  0  0
  -28.5523  -12.3821   19.7696 C   0  0  0  0  0  0  0  0  0  0  0  0
  -30.5369  -13.2702   21.0253 C   0  0  0  0  0  0  0  0  0  0  0  0
  -28.2677  -16.3997   23.4779 C   0  0  0  0  0  0  0  0  0  0  0  0
  -29.8301  -17.7818   23.1011 C   0  0  0  0  0  0  0  0  0  0  0  0
  -28.2658  -13.9580   21.7485 C   0  0  0  0  0  0  0  0  0  0  0  0
  -20.8312  -29.4166   22.8605 C   0  0  1  0  0  0  0  0  0  0  0  0
  -28.8830  -17.5564   24.3022 C   0  0  0  0  0  0  0  0  0  0  0  0
  -23.4814  -29.0401   25.5564 C   0  0  1  0  0  0  0  0  0  0  0  0
  -27.6899  -13.4858   20.3987 C   0  0  2  0  0  0  0  0  0  0  0  0
  -30.4542  -31.8001   27.4968 C   0  0  0  0  0  0  0  0  0  0  0  0
  -26.3091  -30.9006   22.4096 C   0  0  0  0  0  0  0  0  0  0  0  0
  -28.5981  -31.4933   23.2327 C   0  0  0  0  0  0  0  0  0  0  0  0
  -26.6388  -32.8928   23.8850 C   0  0  0  0  0  0  0  0  0  0  0  0
  -28.3114  -29.4057   29.5343 C   0  0  0  0  0  0  0  0  0  0  0  0
  -25.4162  -21.8949   25.8056 C   0  0  0  0  0  0  0  0  0  1  0  0
  -26.9131  -30.5940   24.9010 C   0  0  1  0  0  0  0  0  0  0  0  0
  -29.1718  -31.0915   27.9044 C   0  0  2  0  0  0  0  0  0  0  0  0
  -27.1030  -31.4452   23.6138 C   0  0  0  0  0  0  0  0  0  0  0  0
  -27.2212  -19.2980   23.7876 N   0  0  0  0  0  0  0  0  0  0  0  0
  -27.0589  -20.2093   26.4349 N   0  0  0  0  0  0  0  0  0  0  0  0
  -25.9545  -11.7704   20.7597 N   0  0  0  0  0  0  0  0  0  0  0  0
  -26.2375  -13.0635   20.5280 N   0  0  0  0  0  0  0  0  0  0  0  0
  -24.9244  -29.1953   25.3622 N   0  0  0  0  0  0  0  0  0  0  0  0
  -29.6923  -14.2958   21.6452 N   0  0  0  0  0  0  0  0  0  0  0  0
  -29.4867  -16.4267   22.6876 N   0  0  0  0  0  0  0  0  0  0  0  0
  -25.2392  -15.1873   20.2060 N   0  0  0  0  0  0  0  0  0  0  0  0
  -21.6970  -12.4520   20.8117 N   0  0  0  0  0  0  0  0  0  0  0  0
  -21.6020  -29.4412   24.0851 N   0  0  0  0  0  0  0  0  0  0  0  0
  -27.6319  -31.1017   26.0646 N   0  0  0  0  0  0  0  0  0  0  0  0
  -29.4870  -30.1535   29.0188 N   0  3  0  0  0  0  0  0  0  0  0  0
  -22.3281  -14.6180   20.4008 O   0  0  0  0  0  0  0  0  0  0  0  0
  -23.4982  -28.3401   23.3015 O   0  0  0  0  0  0  0  0  0  0  0  0
  -24.8373  -31.5144   25.5867 O   0  0  0  0  0  0  0  0  0  0  0  0
  -28.8823  -29.1866   26.4467 O   0  0  0  0  0  0  0  0  0  0  0  0
  -31.4982  -15.6974   21.9509 O   0  0  0  0  0  0  0  0  0  0  0  0
  -21.8958   -6.9629   21.7417 O   0  0  0  0  0  0  0  0  0  0  0  0
  -25.9925  -23.1198   25.3540 O   0  0  0  0  0  0  0  0  0  1  0  0
  -17.7712   -7.0327   25.4005 F   0  0  0  0  0  0  0  0  0  0  0  0
  -21.9709   -5.3622   23.9944 F   0  0  0  0  0  0  0  0  0  0  0  0
  1  2  1  0  0  0  0
  1  5  2  0  0  0  0
  2  6  2  0  0  0  0
  3  8  2  0  0  0  0
  3 17  1  0  0  0  0
  4  9  1  0  0  0  0
  4 17  2  0  0  0  0
  5 19  1  0  0  0  0
  6 21  1  0  0  0  0
  7 10  2  0  0  0  0
  7 20  1  0  0  0  0
  8 23  1  0  0  0  0
  9 23  2  0  0  0  0
 10 24  1  0  0  0  0
 11 12  2  0  0  0  0
 11 25  1  0  0  0  0
 12 26  1  0  0  0  0
 13 22  1  0  0  0  0
 13 24  2  0  0  0  0
 14 26  2  0  0  0  0
 14 27  1  0  0  0  0
 15 29  2  0  0  0  0
 15 62  1  0  0  0  0
 16 30  1  0  0  0  0
 16 61  2  0  0  0  0
 17 28  1  0  0  0  0
 18 28  1  0  0  0  0
 18 31  2  0  0  0  0
 18 32  1  0  0  0  0
 19 21  2  0  0  0  0
 19 37  1  0  0  0  0
 20 22  2  0  0  0  0
 20 38  1  0  0  0  0
 21 48  1  0  0  0  0
 22 39  1  0  0  0  0
 23 78  1  0  0  0  0
 24 79  1  0  0  0  0
 25 27  2  0  0  0  0
 25 78  1  0  0  0  0
 26 80  1  0  0  0  0
 27 81  1  0  0  0  0
 28 63  2  0  0  0  0
 29 49  1  0  0  0  0
 29 61  1  0  0  0  0
 30 57  1  0  0  0  0
 30 62  2  0  0  0  0
 31 64  1  0  0  0  0
 31 68  1  0  0  0  0
 32 69  1  0  0  0  0
 32 73  2  0  0  0  0
 33 50  1  0  0  0  0
 33 70  1  0  0  0  0
 33 74  2  0  0  0  0
 34 58  1  0  0  0  0
 34 65  1  0  0  0  0
 34 75  2  0  0  0  0
 35 59  1  0  0  0  0
 35 71  1  0  0  0  0
 35 76  2  0  0  0  0
 36 66  1  0  0  0  0
 36 67  1  0  0  0  0
 36 77  2  0  0  0  0
 37 40  1  0  0  0  0
 38 50  1  0  0  0  0
 39 65  1  0  0  0  0
 40 42  1  0  0  0  0
 41 43  1  0  0  0  0
 41 44  1  0  0  0  0
 42 48  1  0  0  0  0
 43 51  1  0  0  0  0
 44 66  1  0  0  0  0
 45 49  1  0  0  0  0
 45 67  1  0  0  0  0
 46 49  1  0  0  0  0
 46 67  1  0  0  0  0
 47 51  1  0  0  0  0
 47 66  1  0  0  0  0
 48 70  1  0  0  0  0
 50 65  1  0  0  0  0
 51 64  1  0  0  0  0
 52 59  1  0  0  0  0
 53 60  1  0  0  0  0
 54 60  1  0  0  0  0
 55 60  1  0  0  0  0
 56 72  1  0  0  0  0
 57 79  1  0  0  0  0
 58 60  1  0  0  0  0
 58 71  1  0  0  0  0
 59 72  1  0  0  0  0
 63 64  1  0  0  0  0
M  CHG  1  72   1
M  ISO  4  36 100  57 101  67 100  79 101
M  END
> <Batch ID>
0180

> <Smiles>
CNC(C)C(=O)NC(C(=O)N1Cc2cc([101O:1][101CH2:1]c3cnc(C4C[100N:0]([100C:0](=O)N5CCCC(n6nc(-c7ccc(Oc8ccc(F)cc8F)cc7)c(C(N)=O)c6N)C5)C4)cn3)ccc2CC1C(=O)NC1CCCc2ccccc21)C(C)(C)C

> <Shape>
0.259

> <Color>
0.187

> <Negative vol penalty>
0.000

$$$$

  -OEChem-04052323003D

 84 93  0     1  0  0  0  0  0999 V2000
  -29.1571  -32.1800   21.1764 C   0  0  0  0  0  0  0  0  0  0  0  0
  -28.9040  -30.8574   21.5259 C   0  0  0  0  0  0  0  0  0  0  0  0
  -24.8718  -14.1163   23.6525 C   0  0  0  0  0  0  0  0  0  0  0  0
  -24.0583  -15.6163   21.9421 C   0  0  0  0  0  0  0  0  0  0  0  0
  -28.1748  -33.1507   21.3680 C   0  0  0  0  0  0  0  0  0  0  0  0
  -27.6686  -30.5050   22.0682 C   0  0  0  0  0  0  0  0  0  0  0  0
  -25.7831  -26.2752   20.0192 C   0  0  0  0  0  0  0  0  0  0  0  0
  -24.4943  -15.0318   24.6349 C   0  0  0  0  0  0  0  0  0  0  0  0
  -23.6808  -16.5317   22.9245 C   0  0  0  0  0  0  0  0  0  0  0  0
  -26.3138  -25.0633   20.4589 C   0  0  0  0  0  0  0  0  0  0  0  0
  -24.0717  -17.1310   27.5739 C   0  0  0  0  0  0  0  0  0  0  0  0
  -24.9762  -17.3892   28.6039 C   0  0  0  0  0  0  0  0  0  0  0  0
  -24.4124  -24.7653   21.9132 C   0  0  0  0  0  0  0  0  0  0  0  0
  -26.5961  -18.1634   26.9873 C   0  0  0  0  0  0  0  0  0  0  0  0
  -28.2695  -21.2801   23.1092 C   0  0  0  0  0  0  0  0  0  0  0  0
  -24.6538  -14.4086   22.3061 C   0  0  0  0  0  0  0  0  0  0  0  0
  -24.2625  -12.4246   20.7511 C   0  0  0  0  0  0  0  0  0  0  0  0
  -26.9233  -32.8083   21.9039 C   0  0  0  0  0  0  0  0  0  0  0  0
  -24.5663  -26.7473   20.5320 C   0  0  0  0  0  0  0  0  0  0  0  0
  -26.6691  -31.4722   22.2683 C   0  0  0  0  0  0  0  0  0  0  0  0
  -23.8671  -25.9822   21.4764 C   0  0  0  0  0  0  0  0  0  0  0  0
  -23.8988  -16.2394   24.2709 C   0  0  0  0  0  0  0  0  0  0  0  0
  -25.6299  -24.3095   21.4082 C   0  0  0  0  0  0  0  0  0  0  0  0
  -24.4294  -17.3890   26.2506 C   0  0  0  0  0  0  0  0  0  0  0  0
  -26.2384  -17.9054   28.3106 C   0  0  0  0  0  0  0  0  0  0  0  0
  -25.6916  -17.9052   25.9573 C   0  0  0  0  0  0  0  0  0  0  0  0
  -25.0441  -13.4636   21.2908 C   0  0  0  0  0  0  0  0  0  0  0  0
  -27.7829  -21.3906   21.8252 C   0  0  0  0  0  0  0  0  0  0  0  0
  -28.4913  -19.0212   22.8308 C   0  0  0  0  0  0  0  0  0  0  0  0
  -28.0041  -19.1315   21.5471 C   0  0  0  0  0  0  0  0  0  0  0  0
  -25.0831  -11.8206   19.8300 C   0  0  0  0  0  0  0  0  0  0  0  0
  -22.9152  -12.0398   21.0550 C   0  0  0  0  0  0  0  0  0  0  0  0
  -23.6721  -29.3127   22.1820 C   0  0  0  0  0  0  0  0  0  0  0  0
  -20.6988  -28.1145   21.6856 C   0  0  0  0  0  0  0  0  0  0  0  0
  -18.7433  -25.3959   21.0284 C   0  0  0  0  0  0  0  0  0  0  0  0
  -29.4186  -15.2138   20.2172 C   0  0  0  0  0  0  0  0  0  0  0  0
  -25.9097  -33.9006   22.1365 C   0  0  0  0  0  0  0  0  0  0  0  0
  -23.9942  -28.0436   20.0276 C   0  0  0  0  0  0  0  0  0  0  0  0
  -22.5472  -26.4349   22.0433 C   0  0  0  0  0  0  0  0  0  0  0  0
  -24.4941  -33.3786   22.3684 C   0  0  0  0  0  0  0  0  0  0  0  0
  -29.2898  -11.6878   20.7815 C   0  0  0  0  0  0  0  0  0  0  0  0
  -29.9317  -17.6652   17.5949 C   0  0  0  0  0  0  0  0  0  0  0  0
  -24.5073  -32.2251   23.3664 C   0  0  0  0  0  0  0  0  0  0  0  0
  -28.3846  -11.1486   19.6795 C   0  0  0  0  0  0  0  0  0  0  0  0
  -29.1692  -18.5331   18.5862 C   0  0  0  0  0  0  0  0  0  0  0  0
  -30.1263  -12.8493   20.2674 C   0  0  0  0  0  0  0  0  0  0  0  0
  -29.4072  -16.2711   17.9018 C   0  0  0  0  0  0  0  0  0  0  0  0
  -28.3314  -13.5019   18.6742 C   0  0  0  0  0  0  0  0  0  0  0  0
  -25.3326  -31.0463   22.8363 C   0  0  1  0  0  0  0  0  0  0  0  0
  -23.0012  -28.6762   20.9978 C   0  0  1  0  0  0  0  0  0  0  0  0
  -27.5127  -12.2436   19.0445 C   0  0  2  0  0  0  0  0  0  0  0  0
  -29.1091  -17.6609   19.8432 C   0  0  1  0  0  0  0  0  0  0  0  0
  -28.8891  -17.7025   23.4006 C   0  0  0  0  0  0  0  0  0  0  0  0
  -16.3458  -24.7225   20.7184 C   0  0  0  0  0  0  0  0  0  0  0  0
  -20.2654  -28.2782   24.7015 C   0  0  0  0  0  0  0  0  0  0  0  0
  -18.3003  -26.7504   24.4318 C   0  0  0  0  0  0  0  0  0  0  0  0
  -18.3009  -28.9861   23.3252 C   0  0  0  0  0  0  0  0  0  0  0  0
  -19.2383  -24.4780   18.2587 C   0  0  0  0  0  0  0  0  0  0  0  0
  -27.8505  -17.9253   20.6596 C   0  0  0  0  0  0  0  0  0  0  0  0
  -27.3926  -22.7184   21.2771 C   0  0  0  0  0  0  0  0  0  1  0  0
  -19.7952  -27.1567   22.4239 C   0  0  1  0  0  0  0  0  0  0  0  0
  -17.6216  -25.1800   20.0286 C   0  0  2  0  0  0  0  0  0  0  0  0
  -19.1912  -27.7850   23.7116 C   0  0  0  0  0  0  0  0  0  0  0  0
  -28.6325  -20.0935   23.6350 N   0  0  0  0  0  0  0  0  0  0  0  0
  -26.2673  -13.5193   20.7572 N   0  0  0  0  0  0  0  0  0  0  0  0
  -27.6414  -20.3182   21.0211 N   0  0  0  0  0  0  0  0  0  0  0  0
  -26.2605  -12.5076   19.8726 N   0  0  0  0  0  0  0  0  0  0  0  0
  -22.0321  -27.7123   21.5232 N   0  0  0  0  0  0  0  0  0  0  0  0
  -29.2964  -13.9141   19.7036 N   0  0  0  0  0  0  0  0  0  0  0  0
  -29.1810  -16.2809   19.3480 N   0  0  0  0  0  0  0  0  0  0  0  0
  -24.9051  -10.7741   18.9959 N   0  0  0  0  0  0  0  0  0  0  0  0
  -22.2156  -12.7677   22.0272 N   0  0  0  0  0  0  0  0  0  0  0  0
  -24.5771  -30.3031   21.8508 N   0  0  0  0  0  0  0  0  0  0  0  0
  -18.8010  -26.7054   21.4563 N   0  0  0  0  0  0  0  0  0  0  0  0
  -18.0114  -24.1465   19.0281 N   0  3  0  0  0  0  0  0  0  0  0  0
  -22.3541  -11.0686   20.4933 O   0  0  0  0  0  0  0  0  0  0  0  0
  -23.3885  -28.9345   23.3126 O   0  0  0  0  0  0  0  0  0  0  0  0
  -20.2370  -29.1771   21.2623 O   0  0  0  0  0  0  0  0  0  0  0  0
  -19.4910  -24.4924   21.3962 O   0  0  0  0  0  0  0  0  0  0  0  0
  -29.7357  -15.4126   21.3974 O   0  0  0  0  0  0  0  0  0  0  0  0
  -23.5301  -17.1329   25.2292 O   0  0  0  0  0  0  0  0  0  0  0  0
  -26.1494  -23.1188   21.8425 O   0  0  0  0  0  0  0  0  0  1  0  0
  -27.1063  -18.1547   29.2999 F   0  0  0  0  0  0  0  0  0  0  0  0
  -26.0406  -18.1561   24.6880 F   0  0  0  0  0  0  0  0  0  0  0  0
  1  2  1  0  0  0  0
  1  5  2  0  0  0  0
  2  6  2  0  0  0  0
  3  8  2  0  0  0  0
  3 16  1  0  0  0  0
  4  9  1  0  0  0  0
  4 16  2  0  0  0  0
  5 18  1  0  0  0  0
  6 20  1  0  0  0  0
  7 10  2  0  0  0  0
  7 19  1  0  0  0  0
  8 22  1  0  0  0  0
  9 22  2  0  0  0  0
 10 23  1  0  0  0  0
 11 12  2  0  0  0  0
 11 24  1  0  0  0  0
 12 25  1  0  0  0  0
 13 21  1  0  0  0  0
 13 23  2  0  0  0  0
 14 25  2  0  0  0  0
 14 26  1  0  0  0  0
 15 28  1  0  0  0  0
 15 64  2  0  0  0  0
 16 27  1  0  0  0  0
 17 27  1  0  0  0  0
 17 31  2  0  0  0  0
 17 32  1  0  0  0  0
 18 20  2  0  0  0  0
 18 37  1  0  0  0  0
 19 21  2  0  0  0  0
 19 38  1  0  0  0  0
 20 49  1  0  0  0  0
 21 39  1  0  0  0  0
 22 81  1  0  0  0  0
 23 82  1  0  0  0  0
 24 26  2  0  0  0  0
 24 81  1  0  0  0  0
 25 83  1  0  0  0  0
 26 84  1  0  0  0  0
 27 65  2  0  0  0  0
 28 60  1  0  0  0  0
 28 66  2  0  0  0  0
 29 30  2  0  0  0  0
 29 53  1  0  0  0  0
 29 64  1  0  0  0  0
 30 59  1  0  0  0  0
 30 66  1  0  0  0  0
 31 67  1  0  0  0  0
 31 71  1  0  0  0  0
 32 72  1  0  0  0  0
 32 76  2  0  0  0  0
 33 50  1  0  0  0  0
 33 73  1  0  0  0  0
 33 77  2  0  0  0  0
 34 61  1  0  0  0  0
 34 68  1  0  0  0  0
 34 78  2  0  0  0  0
 35 62  1  0  0  0  0
 35 74  1  0  0  0  0
 35 79  2  0  0  0  0
 36 69  1  0  0  0  0
 36 70  1  0  0  0  0
 36 80  2  0  0  0  0
 37 40  1  0  0  0  0
 38 50  1  0  0  0  0
 39 68  1  0  0  0  0
 40 43  1  0  0  0  0
 41 44  1  0  0  0  0
 41 46  1  0  0  0  0
 42 45  1  0  0  0  0
 42 47  1  0  0  0  0
 43 49  1  0  0  0  0
 44 51  1  0  0  0  0
 45 52  1  0  0  0  0
 46 69  1  0  0  0  0
 47 70  1  0  0  0  0
 48 51  1  0  0  0  0
 48 69  1  0  0  0  0
 49 73  1  0  0  0  0
 50 68  1  0  0  0  0
 51 67  1  0  0  0  0
 52 59  1  0  0  0  0
 52 70  1  0  0  0  0
 54 62  1  0  0  0  0
 55 63  1  0  0  0  0
 56 63  1  0  0  0  0
 57 63  1  0  0  0  0
 58 75  1  0  0  0  0
 60 82  1  0  0  0  0
 61 63  1  0  0  0  0
 61 74  1  0  0  0  0
 62 75  1  0  0  0  0
 65 67  1  0  0  0  0
M  CHG  1  75   1
M  ISO  4  36 100  60 101  70 100  82 101
M  END
> <Batch ID>
0180

> <Smiles>
CNC(C)C(=O)NC(C(=O)N1Cc2cc([101O:1][101CH2:1]c3cnc(C)c(CC4CCC[100N:0]4[100C:0](=O)N4CCCC(n5nc(-c6ccc(Oc7ccc(F)cc7F)cc6)c(C(N)=O)c5N)C4)n3)ccc2CC1C(=O)NC1CCCc2ccccc21)C(C)(C)C

> <Shape>
0.243

> <Color>
0.075

> <Negative vol penalty>
0.000

$$$$

  -OEChem-04052323003D

 85 95  0     1  0  0  0  0  0999 V2000
  -15.8431  -30.0016   26.8958 C   0  0  0  0  0  0  0  0  0  0  0  0
  -16.5711  -28.8661   27.2365 C   0  0  0  0  0  0  0  0  0  0  0  0
  -23.0189   -9.8417   19.9917 C   0  0  0  0  0  0  0  0  0  0  0  0
  -23.5360  -10.0947   22.3381 C   0  0  0  0  0  0  0  0  0  0  0  0
  -15.9756  -30.5576   25.6241 C   0  0  0  0  0  0  0  0  0  0  0  0
  -17.4312  -28.2853   26.3053 C   0  0  0  0  0  0  0  0  0  0  0  0
  -23.6354  -24.7277   25.8952 C   0  0  0  0  0  0  0  0  0  0  0  0
  -22.2060   -8.7479   20.2888 C   0  0  0  0  0  0  0  0  0  0  0  0
  -22.7231   -9.0009   22.6352 C   0  0  0  0  0  0  0  0  0  0  0  0
  -24.1741  -23.5606   25.3553 C   0  0  0  0  0  0  0  0  0  0  0  0
  -22.9326   -5.6294   22.4922 C   0  0  0  0  0  0  0  0  0  0  0  0
  -23.4272   -4.6777   23.3838 C   0  0  0  0  0  0  0  0  0  0  0  0
  -24.3823  -24.6541   23.2151 C   0  0  0  0  0  0  0  0  0  0  0  0
  -21.5663   -5.0991   24.8659 C   0  0  0  0  0  0  0  0  0  0  0  0
  -27.1450  -19.7030   23.8041 C   0  0  0  0  0  0  0  0  0  0  0  0
  -23.6839  -10.5151   21.0164 C   0  0  0  0  0  0  0  0  0  0  0  0
  -24.1406  -12.9979   20.6489 C   0  0  0  0  0  0  0  0  0  0  0  0
  -16.8451  -29.9889   24.6800 C   0  0  0  0  0  0  0  0  0  0  0  0
  -23.4557  -25.8652   25.0951 C   0  0  0  0  0  0  0  0  0  0  0  0
  -17.5745  -28.8334   25.0193 C   0  0  0  0  0  0  0  0  0  0  0  0
  -23.8435  -25.8351   23.7480 C   0  0  0  0  0  0  0  0  0  0  0  0
  -25.8497  -20.1393   23.6688 C   0  0  0  0  0  0  0  0  0  0  0  0
  -22.0580   -8.3275   21.6105 C   0  0  0  0  0  0  0  0  0  0  0  0
  -24.5450  -23.5228   24.0143 C   0  0  0  0  0  0  0  0  0  0  0  0
  -21.7549   -6.3162   22.7874 C   0  0  0  0  0  0  0  0  0  0  0  0
  -22.7441   -4.4125   24.5707 C   0  0  0  0  0  0  0  0  0  0  0  0
  -21.0718   -6.0510   23.9743 C   0  0  0  0  0  0  0  0  0  0  0  0
  -24.5243  -11.6448   20.7101 C   0  0  0  0  0  0  0  0  0  0  0  0
  -25.2828  -19.2695   22.7181 C   0  0  0  0  0  0  0  0  0  0  0  0
  -25.2947  -13.6676   20.3232 C   0  0  0  0  0  0  0  0  0  0  0  0
  -22.8559  -13.5959   20.8671 C   0  0  0  0  0  0  0  0  0  0  0  0
  -20.9465  -27.5837   24.1706 C   0  0  0  0  0  0  0  0  0  0  0  0
  -23.2264  -29.5151   22.9080 C   0  0  0  0  0  0  0  0  0  0  0  0
  -26.4077  -29.8479   21.7182 C   0  0  0  0  0  0  0  0  0  0  0  0
  -30.6599  -14.6141   20.8023 C   0  0  0  0  0  0  0  0  0  0  0  0
  -16.9193  -30.5978   23.3022 C   0  0  0  0  0  0  0  0  0  0  0  0
  -22.8980  -27.1247   25.6993 C   0  0  0  0  0  0  0  0  0  0  0  0
  -23.6900  -27.0357   22.8516 C   0  0  0  0  0  0  0  0  0  0  0  0
  -18.1342  -30.1406   22.4989 C   0  0  0  0  0  0  0  0  0  0  0  0
  -29.7864  -11.9573   18.7686 C   0  0  0  0  0  0  0  0  0  0  0  0
  -18.2989  -28.6272   22.5948 C   0  0  0  0  0  0  0  0  0  0  0  0
  -23.5008  -18.8039   20.8527 C   0  0  0  0  0  0  0  0  0  0  0  0
  -23.5076  -20.2838   21.0768 C   0  0  0  0  0  0  0  0  0  0  0  0
  -28.3054  -11.7369   19.0772 C   0  0  0  0  0  0  0  0  0  0  0  0
  -29.0273  -17.8984   21.2905 C   0  0  0  0  0  0  0  0  0  0  0  0
  -28.3103  -16.3378   23.1482 C   0  0  0  0  0  0  0  0  0  0  0  0
  -30.5706  -12.2590   20.0408 C   0  0  0  0  0  0  0  0  0  0  0  0
  -30.2687  -17.0358   21.0761 C   0  0  0  0  0  0  0  0  0  0  0  0
  -29.5681  -15.5122   22.8936 C   0  0  0  0  0  0  0  0  0  0  0  0
  -28.5671  -13.2213   21.1247 C   0  0  0  0  0  0  0  0  0  0  0  0
  -18.5364  -28.1889   24.0449 C   0  0  1  0  0  0  0  0  0  0  0  0
  -23.8380  -19.3515   22.2248 C   0  0  0  0  0  0  0  0  0  0  0  0
  -22.2824  -28.0619   24.6649 C   0  0  1  0  0  0  0  0  0  0  0  0
  -27.7246  -12.9220   19.8687 C   0  0  2  0  0  0  0  0  0  0  0  0
  -28.5193  -17.8067   22.7398 C   0  0  0  0  0  0  0  0  0  0  0  0
  -27.9710  -31.5388   20.7210 C   0  0  0  0  0  0  0  0  0  0  0  0
  -21.7558  -29.2998   20.2433 C   0  0  0  0  0  0  0  0  0  0  0  0
  -23.8118  -30.1787   19.1170 C   0  0  0  0  0  0  0  0  0  0  0  0
  -22.6054  -31.5890   20.7839 C   0  0  0  0  0  0  0  0  0  0  0  0
  -28.3259  -29.5644   23.9540 C   0  0  0  0  0  0  0  0  0  0  0  0
  -25.2114  -21.2675   24.3684 C   0  0  0  0  0  0  0  0  0  1  0  0
  -23.9433  -29.5976   21.5820 C   0  0  1  0  0  0  0  0  0  0  0  0
  -27.4867  -30.8773   22.0019 C   0  0  2  0  0  0  0  0  0  0  0  0
  -23.0303  -30.1429   20.4477 C   0  0  0  0  0  0  0  0  0  0  0  0
  -25.8207  -11.4639   20.4443 N   0  0  0  0  0  0  0  0  0  0  0  0
  -26.1472  -18.3501   22.2803 N   0  0  0  0  0  0  0  0  0  0  0  0
  -27.2704  -18.6399   22.9589 N   0  0  0  0  0  0  0  0  0  0  0  0
  -26.2617  -12.7122   20.2130 N   0  0  0  0  0  0  0  0  0  0  0  0
  -23.1341  -28.2416   23.4874 N   0  0  0  0  0  0  0  0  0  0  0  0
  -29.9841  -13.3850   20.7673 N   0  0  0  0  0  0  0  0  0  0  0  0
  -30.0420  -15.6579   21.5105 N   0  0  0  0  0  0  0  0  0  0  0  0
  -25.5664  -14.9747   20.1231 N   0  0  0  0  0  0  0  0  0  0  0  0
  -21.7777  -12.7623   21.1939 N   0  0  0  0  0  0  0  0  0  0  0  0
  -19.9049  -28.4524   24.4349 N   0  0  0  0  0  0  0  0  0  0  0  0
  -25.1444  -30.3919   21.8161 N   0  0  0  0  0  0  0  0  0  0  0  0
  -28.6537  -30.2340   22.6690 N   0  3  0  0  0  0  0  0  0  0  0  0
  -22.6661  -14.8312   20.7589 O   0  0  0  0  0  0  0  0  0  0  0  0
  -20.8669  -26.5070   23.5909 O   0  0  0  0  0  0  0  0  0  0  0  0
  -22.7716  -30.5437   23.4147 O   0  0  0  0  0  0  0  0  0  0  0  0
  -26.6603  -28.6791   21.4341 O   0  0  0  0  0  0  0  0  0  0  0  0
  -31.7461  -14.7737   20.2317 O   0  0  0  0  0  0  0  0  0  0  0  0
  -21.2647   -7.2603   21.9008 O   0  0  0  0  0  0  0  0  0  0  0  0
  -25.0730  -22.3792   23.4820 O   0  0  0  0  0  0  0  0  0  1  0  0
  -23.2183   -3.4973   25.4261 F   0  0  0  0  0  0  0  0  0  0  0  0
  -19.9392   -6.7066   24.2629 F   0  0  0  0  0  0  0  0  0  0  0  0
  1  2  1  0  0  0  0
  1  5  2  0  0  0  0
  2  6  2  0  0  0  0
  3  8  2  0  0  0  0
  3 16  1  0  0  0  0
  4  9  1  0  0  0  0
  4 16  2  0  0  0  0
  5 18  1  0  0  0  0
  6 20  1  0  0  0  0
  7 10  2  0  0  0  0
  7 19  1  0  0  0  0
  8 23  1  0  0  0  0
  9 23  2  0  0  0  0
 10 24  1  0  0  0  0
 11 12  2  0  0  0  0
 11 25  1  0  0  0  0
 12 26  1  0  0  0  0
 13 21  1  0  0  0  0
 13 24  2  0  0  0  0
 14 26  2  0  0  0  0
 14 27  1  0  0  0  0
 15 22  2  0  0  0  0
 15 67  1  0  0  0  0
 16 28  1  0  0  0  0
 17 28  1  0  0  0  0
 17 30  2  0  0  0  0
 17 31  1  0  0  0  0
 18 20  2  0  0  0  0
 18 36  1  0  0  0  0
 19 21  2  0  0  0  0
 19 37  1  0  0  0  0
 20 51  1  0  0  0  0
 21 38  1  0  0  0  0
 22 29  1  0  0  0  0
 22 61  1  0  0  0  0
 23 82  1  0  0  0  0
 24 83  1  0  0  0  0
 25 27  2  0  0  0  0
 25 82  1  0  0  0  0
 26 84  1  0  0  0  0
 27 85  1  0  0  0  0
 28 65  2  0  0  0  0
 29 52  1  0  0  0  0
 29 66  2  0  0  0  0
 30 68  1  0  0  0  0
 30 72  1  0  0  0  0
 31 73  1  0  0  0  0
 31 77  2  0  0  0  0
 32 53  1  0  0  0  0
 32 74  1  0  0  0  0
 32 78  2  0  0  0  0
 33 62  1  0  0  0  0
 33 69  1  0  0  0  0
 33 79  2  0  0  0  0
 34 63  1  0  0  0  0
 34 75  1  0  0  0  0
 34 80  2  0  0  0  0
 35 70  1  0  0  0  0
 35 71  1  0  0  0  0
 35 81  2  0  0  0  0
 36 39  1  0  0  0  0
 37 53  1  0  0  0  0
 38 69  1  0  0  0  0
 39 41  1  0  0  0  0
 40 44  1  0  0  0  0
 40 47  1  0  0  0  0
 41 51  1  0  0  0  0
 42 43  1  0  0  0  0
 42 52  1  0  0  0  0
 43 52  1  0  0  0  0
 44 54  1  0  0  0  0
 45 48  1  0  0  0  0
 45 55  1  0  0  0  0
 46 49  1  0  0  0  0
 46 55  1  0  0  0  0
 47 70  1  0  0  0  0
 48 71  1  0  0  0  0
 49 71  1  0  0  0  0
 50 54  1  0  0  0  0
 50 70  1  0  0  0  0
 51 74  1  0  0  0  0
 53 69  1  0  0  0  0
 54 68  1  0  0  0  0
 55 67  1  0  0  0  0
 56 63  1  0  0  0  0
 57 64  1  0  0  0  0
 58 64  1  0  0  0  0
 59 64  1  0  0  0  0
 60 76  1  0  0  0  0
 61 83  1  0  0  0  0
 62 64  1  0  0  0  0
 62 75  1  0  0  0  0
 63 76  1  0  0  0  0
 65 68  1  0  0  0  0
 66 67  1  0  0  0  0
M  CHG  1  76   1
M  ISO  4  35 100  61 101  71 100  83 101
M  END
> <Batch ID>
0180

> <Smiles>
CNC(C)C(=O)NC(C(=O)N1Cc2cc([101O:1][101CH2:1]c3cn(C4CC[100N:0]([100C:0](=O)N5CCCC(n6nc(-c7ccc(Oc8ccc(F)cc8F)cc7)c(C(N)=O)c6N)C5)CC4)nc3C3CC3)ccc2CC1C(=O)NC1CCCc2ccccc21)C(C)(C)C

> <Shape>
0.298

> <Color>
0.219

> <Negative vol penalty>
0.000

$$$$

  -OEChem-04052323003D

 85 94  0     1  0  0  0  0  0999 V2000
  -28.6750  -36.4453   23.3631 C   0  0  0  0  0  0  0  0  0  0  0  0
  -28.9462  -35.1048   23.1085 C   0  0  0  0  0  0  0  0  0  0  0  0
  -25.6172  -15.1881   23.4384 C   0  0  0  0  0  0  0  0  0  0  0  0
  -24.8201  -16.4610   21.5460 C   0  0  0  0  0  0  0  0  0  0  0  0
  -27.4067  -36.8286   23.7972 C   0  0  0  0  0  0  0  0  0  0  0  0
  -27.9494  -34.1465   23.2891 C   0  0  0  0  0  0  0  0  0  0  0  0
  -27.0846  -29.0658   19.9808 C   0  0  0  0  0  0  0  0  0  0  0  0
  -25.4651  -16.3080   24.2558 C   0  0  0  0  0  0  0  0  0  0  0  0
  -24.6680  -17.5810   22.3634 C   0  0  0  0  0  0  0  0  0  0  0  0
  -27.4416  -27.7351   20.1947 C   0  0  0  0  0  0  0  0  0  0  0  0
  -22.9433  -17.9192   25.8298 C   0  0  0  0  0  0  0  0  0  0  0  0
  -22.3399  -17.7365   27.0741 C   0  0  0  0  0  0  0  0  0  0  0  0
  -25.2494  -27.2991   21.1020 C   0  0  0  0  0  0  0  0  0  0  0  0
  -24.3387  -18.5473   28.1624 C   0  0  0  0  0  0  0  0  0  0  0  0
  -27.6757  -22.6604   20.2446 C   0  0  0  0  0  0  0  0  0  0  0  0
  -25.2947  -15.2646   22.0835 C   0  0  0  0  0  0  0  0  0  0  0  0
  -24.4929  -13.1127   20.9726 C   0  0  0  0  0  0  0  0  0  0  0  0
  -26.3911  -35.8757   23.9740 C   0  0  0  0  0  0  0  0  0  0  0  0
  -25.8088  -29.5265   20.3366 C   0  0  0  0  0  0  0  0  0  0  0  0
  -26.6667  -34.5172   23.7273 C   0  0  0  0  0  0  0  0  0  0  0  0
  -24.8778  -28.6355   20.8893 C   0  0  0  0  0  0  0  0  0  0  0  0
  -24.9905  -17.5045   23.7184 C   0  0  0  0  0  0  0  0  0  0  0  0
  -26.5249  -26.8523   20.7580 C   0  0  0  0  0  0  0  0  0  0  0  0
  -24.2444  -18.4159   25.7518 C   0  0  0  0  0  0  0  0  0  0  0  0
  -23.0376  -18.0506   28.2403 C   0  0  0  0  0  0  0  0  0  0  0  0
  -24.9421  -18.7300   26.9181 C   0  0  0  0  0  0  0  0  0  0  0  0
  -25.4521  -14.1082   21.2384 C   0  0  0  0  0  0  0  0  0  0  0  0
  -28.3963  -23.7277   20.8133 C   0  0  0  0  0  0  0  0  0  0  0  0
  -28.2536  -21.5337   20.7768 C   0  0  0  0  0  0  0  0  0  0  0  0
  -25.1277  -12.2434   20.1194 C   0  0  0  0  0  0  0  0  0  0  0  0
  -23.1483  -12.9852   21.4538 C   0  0  0  0  0  0  0  0  0  0  0  0
  -24.6958  -31.7024   22.3690 C   0  0  0  0  0  0  0  0  0  0  0  0
  -21.8543  -30.9759   20.9832 C   0  0  0  0  0  0  0  0  0  0  0  0
  -19.9633  -28.7136   19.2649 C   0  0  0  0  0  0  0  0  0  0  0  0
  -29.8714  -14.9944   19.4960 C   0  0  0  0  0  0  0  0  0  0  0  0
  -25.0495  -36.3319   24.4903 C   0  0  0  0  0  0  0  0  0  0  0  0
  -25.4303  -30.9584   20.0748 C   0  0  0  0  0  0  0  0  0  0  0  0
  -23.4886  -29.0753   21.2700 C   0  0  0  0  0  0  0  0  0  0  0  0
  -23.9400  -35.3013   24.2972 C   0  0  0  0  0  0  0  0  0  0  0  0
  -29.3619  -11.6803   20.7307 C   0  0  0  0  0  0  0  0  0  0  0  0
  -30.4045  -16.8416   16.4214 C   0  0  0  0  0  0  0  0  0  0  0  0
  -24.4139  -33.9186   24.7335 C   0  0  0  0  0  0  0  0  0  0  0  0
  -28.2833  -11.0892   19.8297 C   0  0  0  0  0  0  0  0  0  0  0  0
  -29.8678  -17.9719   17.2881 C   0  0  0  0  0  0  0  0  0  0  0  0
  -30.2778  -12.5998   19.9378 C   0  0  0  0  0  0  0  0  0  0  0  0
  -29.7450  -15.6139   17.0304 C   0  0  0  0  0  0  0  0  0  0  0  0
  -28.4188  -13.2093   18.4020 C   0  0  0  0  0  0  0  0  0  0  0  0
  -25.6046  -33.4512   23.8876 C   0  0  1  0  0  0  0  0  0  0  0  0
  -24.2774  -31.4412   20.9496 C   0  0  1  0  0  0  0  0  0  0  0  0
  -27.4929  -12.1674   19.0712 C   0  0  2  0  0  0  0  0  0  0  0  0
  -29.8336  -17.3548   18.6890 C   0  0  1  0  0  0  0  0  0  0  0  0
  -17.6664  -28.3889   18.3077 C   0  0  0  0  0  0  0  0  0  0  0  0
  -20.7624  -30.4586   23.7850 C   0  0  0  0  0  0  0  0  0  0  0  0
  -18.8346  -29.2541   22.7358 C   0  0  0  0  0  0  0  0  0  0  0  0
  -19.1956  -31.6767   22.2634 C   0  0  0  0  0  0  0  0  0  0  0  0
  -30.1439  -21.1685   22.3916 C   0  0  0  0  0  0  0  0  0  0  0  0
  -21.0219  -28.4376   16.5149 C   0  0  0  0  0  0  0  0  0  0  0  0
  -28.1955  -25.1685   20.5848 C   0  0  0  0  0  0  0  0  0  1  0  0
  -27.9475  -20.0791   20.5733 C   0  0  0  0  0  0  0  0  0  0  0  0
  -28.7129  -17.9376   19.5404 C   0  0  0  0  0  0  0  0  0  0  0  0
  -20.7610  -29.9696   21.2499 C   0  0  1  0  0  0  0  0  0  0  0  0
  -19.0858  -28.8616   18.0350 C   0  0  2  0  0  0  0  0  0  0  0  0
  -19.9152  -30.3316   22.5033 C   0  0  0  0  0  0  0  0  0  0  0  0
  -26.6084  -13.8923   20.6056 N   0  0  0  0  0  0  0  0  0  0  0  0
  -29.3583  -23.3160   21.6433 N   0  0  0  0  0  0  0  0  0  0  0  0
  -29.2463  -21.9774   21.6001 N   0  0  0  0  0  0  0  0  0  0  0  0
  -26.3798  -12.7511   19.9336 N   0  0  0  0  0  0  0  0  0  0  0  0
  -23.1681  -30.4867   21.0002 N   0  0  0  0  0  0  0  0  0  0  0  0
  -29.5326  -13.6553   19.2514 N   0  0  0  0  0  0  0  0  0  0  0  0
  -29.6781  -15.9129   18.4617 N   0  0  0  0  0  0  0  0  0  0  0  0
  -24.7313  -11.1018   19.5176 N   0  0  0  0  0  0  0  0  0  0  0  0
  -22.6540  -13.9669   22.3233 N   0  0  0  0  0  0  0  0  0  0  0  0
  -25.1537  -32.9867   22.5933 N   0  0  0  0  0  0  0  0  0  0  0  0
  -19.9886  -29.8694   20.0163 N   0  0  0  0  0  0  0  0  0  0  0  0
  -19.6385  -28.0623   16.9051 N   0  3  0  0  0  0  0  0  0  0  0  0
  -28.9451  -19.3879   19.7079 N   0  3  0  0  0  0  0  0  0  0  0  0
  -22.4127  -12.0203   21.1354 O   0  0  0  0  0  0  0  0  0  0  0  0
  -24.6082  -30.8055   23.1994 O   0  0  0  0  0  0  0  0  0  0  0  0
  -21.5531  -32.1513   20.7607 O   0  0  0  0  0  0  0  0  0  0  0  0
  -20.5630  -27.6751   19.5342 O   0  0  0  0  0  0  0  0  0  0  0  0
  -30.3356  -15.3523   20.5866 O   0  0  0  0  0  0  0  0  0  0  0  0
  -24.8418  -18.5975   24.5158 O   0  0  0  0  0  0  0  0  0  0  0  0
  -26.8727  -25.5469   20.9695 O   0  0  0  0  0  0  0  0  0  1  0  0
  -22.4575  -17.8765   29.4351 F   0  0  0  0  0  0  0  0  0  0  0  0
  -26.1919  -19.2087   26.8495 F   0  0  0  0  0  0  0  0  0  0  0  0
  1  2  1  0  0  0  0
  1  5  2  0  0  0  0
  2  6  2  0  0  0  0
  3  8  2  0  0  0  0
  3 16  1  0  0  0  0
  4  9  1  0  0  0  0
  4 16  2  0  0  0  0
  5 18  1  0  0  0  0
  6 20  1  0  0  0  0
  7 10  2  0  0  0  0
  7 19  1  0  0  0  0
  8 22  1  0  0  0  0
  9 22  2  0  0  0  0
 10 23  1  0  0  0  0
 11 12  2  0  0  0  0
 11 24  1  0  0  0  0
 12 25  1  0  0  0  0
 13 21  1  0  0  0  0
 13 23  2  0  0  0  0
 14 25  2  0  0  0  0
 14 26  1  0  0  0  0
 15 28  1  0  0  0  0
 15 29  2  0  0  0  0
 16 27  1  0  0  0  0
 17 27  1  0  0  0  0
 17 30  2  0  0  0  0
 17 31  1  0  0  0  0
 18 20  2  0  0  0  0
 18 36  1  0  0  0  0
 19 21  2  0  0  0  0
 19 37  1  0  0  0  0
 20 48  1  0  0  0  0
 21 38  1  0  0  0  0
 22 82  1  0  0  0  0
 23 83  1  0  0  0  0
 24 26  2  0  0  0  0
 24 82  1  0  0  0  0
 25 84  1  0  0  0  0
 26 85  1  0  0  0  0
 27 64  2  0  0  0  0
 28 58  1  0  0  0  0
 28 65  2  0  0  0  0
 29 59  1  0  0  0  0
 29 66  1  0  0  0  0
 30 67  1  0  0  0  0
 30 71  1  0  0  0  0
 31 72  1  0  0  0  0
 31 77  2  0  0  0  0
 32 49  1  0  0  0  0
 32 73  1  0  0  0  0
 32 78  2  0  0  0  0
 33 61  1  0  0  0  0
 33 68  1  0  0  0  0
 33 79  2  0  0  0  0
 34 62  1  0  0  0  0
 34 74  1  0  0  0  0
 34 80  2  0  0  0  0
 35 69  1  0  0  0  0
 35 70  1  0  0  0  0
 35 81  2  0  0  0  0
 36 39  1  0  0  0  0
 37 49  1  0  0  0  0
 38 68  1  0  0  0  0
 39 42  1  0  0  0  0
 40 43  1  0  0  0  0
 40 45  1  0  0  0  0
 41 44  1  0  0  0  0
 41 46  1  0  0  0  0
 42 48  1  0  0  0  0
 43 50  1  0  0  0  0
 44 51  1  0  0  0  0
 45 69  1  0  0  0  0
 46 70  1  0  0  0  0
 47 50  1  0  0  0  0
 47 69  1  0  0  0  0
 48 73  1  0  0  0  0
 49 68  1  0  0  0  0
 50 67  1  0  0  0  0
 51 60  1  0  0  0  0
 51 70  1  0  0  0  0
 52 62  1  0  0  0  0
 53 63  1  0  0  0  0
 54 63  1  0  0  0  0
 55 63  1  0  0  0  0
 56 66  1  0  0  0  0
 57 75  1  0  0  0  0
 58 83  1  0  0  0  0
 59 76  1  0  0  0  0
 60 76  1  0  0  0  0
 61 63  1  0  0  0  0
 61 74  1  0  0  0  0
 62 75  1  0  0  0  0
 64 67  1  0  0  0  0
 65 66  1  0  0  0  0
M  CHG  2  75   1  76   1
M  ISO  4  35 100  58 101  70 100  83 101
M  END
> <Batch ID>
0180

> <Smiles>
CNC(C)C(=O)NC(C(=O)N1Cc2cc([101O:1][101CH2:1]c3cc(CNCC4CCC[100N:0]4[100C:0](=O)N4CCCC(n5nc(-c6ccc(Oc7ccc(F)cc7F)cc6)c(C(N)=O)c5N)C4)n(C)n3)ccc2CC1C(=O)NC1CCCc2ccccc21)C(C)(C)C

> <Shape>
0.284

> <Color>
0.067

> <Negative vol penalty>
0.000

$$$$

  -OEChem-04052323003D

 83 92  0     1  0  0  0  0  0999 V2000
  -15.0157  -25.4306   24.4388 C   0  0  0  0  0  0  0  0  0  0  0  0
  -16.2406  -24.7719   24.4752 C   0  0  0  0  0  0  0  0  0  0  0  0
  -23.2025   -9.8078   19.9259 C   0  0  0  0  0  0  0  0  0  0  0  0
  -23.5194  -10.0042   22.3129 C   0  0  0  0  0  0  0  0  0  0  0  0
  -14.2480  -25.4086   23.2752 C   0  0  0  0  0  0  0  0  0  0  0  0
  -16.6980  -24.0899   23.3482 C   0  0  0  0  0  0  0  0  0  0  0  0
  -22.7588  -22.3935   19.9271 C   0  0  0  0  0  0  0  0  0  0  0  0
  -25.3380  -15.7454   16.9651 C   0  0  0  0  0  0  0  0  0  0  0  0
  -22.4254   -8.6664   20.1229 C   0  0  0  0  0  0  0  0  0  0  0  0
  -22.7422   -8.8628   22.5100 C   0  0  0  0  0  0  0  0  0  0  0  0
  -23.4306  -21.2862   19.4109 C   0  0  0  0  0  0  0  0  0  0  0  0
  -23.1334   -5.5124   22.2812 C   0  0  0  0  0  0  0  0  0  0  0  0
  -23.6039   -4.5553   23.1803 C   0  0  0  0  0  0  0  0  0  0  0  0
  -24.7212  -16.7869   17.6472 C   0  0  0  0  0  0  0  0  0  0  0  0
  -22.0560  -21.3827   17.4309 C   0  0  0  0  0  0  0  0  0  0  0  0
  -21.6128   -4.8351   24.5199 C   0  0  0  0  0  0  0  0  0  0  0  0
  -23.7496  -10.4767   21.0209 C   0  0  0  0  0  0  0  0  0  0  0  0
  -24.1070  -12.9898   20.7675 C   0  0  0  0  0  0  0  0  0  0  0  0
  -14.7007  -24.7342   22.1302 C   0  0  0  0  0  0  0  0  0  0  0  0
  -21.7215  -22.9981   19.2025 C   0  0  0  0  0  0  0  0  0  0  0  0
  -15.9350  -24.0578   22.1686 C   0  0  0  0  0  0  0  0  0  0  0  0
  -26.6062  -15.9209   16.3989 C   0  0  0  0  0  0  0  0  0  0  0  0
  -21.3744  -22.4992   17.9389 C   0  0  0  0  0  0  0  0  0  0  0  0
  -22.1952   -8.1939   21.4150 C   0  0  0  0  0  0  0  0  0  0  0  0
  -23.0773  -20.7789   18.1640 C   0  0  0  0  0  0  0  0  0  0  0  0
  -21.9027   -6.1309   22.5016 C   0  0  0  0  0  0  0  0  0  0  0  0
  -22.8436   -4.2166   24.2996 C   0  0  0  0  0  0  0  0  0  0  0  0
  -21.1424   -5.7922   23.6209 C   0  0  0  0  0  0  0  0  0  0  0  0
  -24.5529  -11.6555   20.8179 C   0  0  0  0  0  0  0  0  0  0  0  0
  -27.1961  -17.1820   16.5272 C   0  0  0  0  0  0  0  0  0  0  0  0
  -25.3958  -17.9895   17.7325 C   0  0  0  0  0  0  0  0  0  0  0  0
  -25.2476  -13.7253   20.5565 C   0  0  0  0  0  0  0  0  0  0  0  0
  -22.7804  -13.5173   20.8997 C   0  0  0  0  0  0  0  0  0  0  0  0
  -18.6165  -23.4653   19.6964 C   0  0  0  0  0  0  0  0  0  0  0  0
  -18.8371  -25.1871   16.9562 C   0  0  0  0  0  0  0  0  0  0  0  0
  -20.4930  -25.7778   14.0311 C   0  0  0  0  0  0  0  0  0  0  0  0
  -29.9836  -14.7139   18.1447 C   0  0  0  0  0  0  0  0  0  0  0  0
  -13.8141  -24.6985   20.9107 C   0  0  0  0  0  0  0  0  0  0  0  0
  -21.0247  -24.2083   19.7614 C   0  0  0  0  0  0  0  0  0  0  0  0
  -27.2635  -14.7859   15.6551 C   0  0  0  0  0  0  0  0  0  0  0  0
  -20.2816  -23.1245   17.1123 C   0  0  0  0  0  0  0  0  0  0  0  0
  -28.5592  -17.4451   15.9469 C   0  0  0  0  0  0  0  0  0  0  0  0
  -14.5429  -24.2682   19.6402 C   0  0  0  0  0  0  0  0  0  0  0  0
  -30.1319  -12.4358   20.7181 C   0  0  0  0  0  0  0  0  0  0  0  0
  -15.3990  -23.0344   19.9078 C   0  0  0  0  0  0  0  0  0  0  0  0
  -28.6625  -12.1136   20.9944 C   0  0  0  0  0  0  0  0  0  0  0  0
  -28.7592  -14.5246   15.9229 C   0  0  0  0  0  0  0  0  0  0  0  0
  -30.4012  -12.5238   19.2190 C   0  0  0  0  0  0  0  0  0  0  0  0
  -28.0695  -13.1916   18.7738 C   0  0  0  0  0  0  0  0  0  0  0  0
  -16.4766  -23.3280   20.9586 C   0  0  1  0  0  0  0  0  0  0  0  0
  -19.6387  -24.4290   19.1635 C   0  0  1  0  0  0  0  0  0  0  0  0
  -27.7403  -13.1138   20.2766 C   0  0  1  0  0  0  0  0  0  0  0  0
  -29.6695  -16.7284   16.7342 C   0  0  2  0  0  0  0  0  0  0  0  0
  -31.0114  -16.8932   16.0109 C   0  0  0  0  0  0  0  0  0  0  0  0
  -20.4146  -27.2215   11.9800 C   0  0  0  0  0  0  0  0  0  0  0  0
  -16.5456  -23.4981   15.8579 C   0  0  0  0  0  0  0  0  0  0  0  0
  -17.1421  -24.3057   13.5643 C   0  0  0  0  0  0  0  0  0  0  0  0
  -16.4048  -25.9331   15.3052 C   0  0  0  0  0  0  0  0  0  0  0  0
  -23.1385  -26.9647   14.6239 C   0  0  0  0  0  0  0  0  0  0  0  0
  -24.7681  -19.1325   18.4576 C   0  0  0  0  0  0  0  0  0  1  0  0
  -18.6955  -24.8784   15.4852 C   0  0  1  0  0  0  0  0  0  0  0  0
  -20.9711  -27.0665   13.3868 C   0  0  2  0  0  0  0  0  0  0  0  0
  -17.2163  -24.6406   15.0694 C   0  0  0  0  0  0  0  0  0  0  0  0
  -25.8738  -11.5466   20.6521 N   0  0  0  0  0  0  0  0  0  0  0  0
  -26.6128  -18.2121   17.1910 N   0  0  0  0  0  0  0  0  0  0  0  0
  -26.2676  -12.8219   20.4953 N   0  0  0  0  0  0  0  0  0  0  0  0
  -19.6257  -24.3019   17.7048 N   0  0  0  0  0  0  0  0  0  0  0  0
  -29.4939  -13.4712   18.5707 N   0  0  0  0  0  0  0  0  0  0  0  0
  -29.3762  -15.3018   17.0120 N   0  0  0  0  0  0  0  0  0  0  0  0
  -25.4675  -15.0501   20.4190 N   0  0  0  0  0  0  0  0  0  0  0  0
  -21.7235  -12.6218   21.1129 N   0  0  0  0  0  0  0  0  0  0  0  0
  -17.5703  -24.0690   20.3676 N   0  0  0  0  0  0  0  0  0  0  0  0
  -19.3477  -25.9725   14.7739 N   0  0  0  0  0  0  0  0  0  0  0  0
  -22.4592  -27.0854   13.3083 N   0  3  0  0  0  0  0  0  0  0  0  0
  -22.5371  -14.7449   20.8145 O   0  0  0  0  0  0  0  0  0  0  0  0
  -18.7651  -22.2631   19.5110 O   0  0  0  0  0  0  0  0  0  0  0  0
  -18.2749  -26.1812   17.4223 O   0  0  0  0  0  0  0  0  0  0  0  0
  -21.0750  -24.7050   13.8866 O   0  0  0  0  0  0  0  0  0  0  0  0
  -30.9230  -15.2626   18.7357 O   0  0  0  0  0  0  0  0  0  0  0  0
  -21.4367   -7.0803   21.6076 O   0  0  0  0  0  0  0  0  0  0  0  0
  -23.7354  -19.6902   17.6547 O   0  0  0  0  0  0  0  0  0  1  0  0
  -23.2948   -3.2964   25.1620 F   0  0  0  0  0  0  0  0  0  0  0  0
  -19.9588   -6.3821   23.8372 F   0  0  0  0  0  0  0  0  0  0  0  0
  1  2  1  0  0  0  0
  1  5  2  0  0  0  0
  2  6  2  0  0  0  0
  3  9  2  0  0  0  0
  3 17  1  0  0  0  0
  4 10  1  0  0  0  0
  4 17  2  0  0  0  0
  5 19  1  0  0  0  0
  6 21  1  0  0  0  0
  7 11  2  0  0  0  0
  7 20  1  0  0  0  0
  8 14  2  0  0  0  0
  8 22  1  0  0  0  0
  9 24  1  0  0  0  0
 10 24  2  0  0  0  0
 11 25  1  0  0  0  0
 12 13  2  0  0  0  0
 12 26  1  0  0  0  0
 13 27  1  0  0  0  0
 14 31  1  0  0  0  0
 15 23  1  0  0  0  0
 15 25  2  0  0  0  0
 16 27  2  0  0  0  0
 16 28  1  0  0  0  0
 17 29  1  0  0  0  0
 18 29  1  0  0  0  0
 18 32  2  0  0  0  0
 18 33  1  0  0  0  0
 19 21  2  0  0  0  0
 19 38  1  0  0  0  0
 20 23  2  0  0  0  0
 20 39  1  0  0  0  0
 21 50  1  0  0  0  0
 22 30  2  0  0  0  0
 22 40  1  0  0  0  0
 23 41  1  0  0  0  0
 24 80  1  0  0  0  0
 25 81  1  0  0  0  0
 26 28  2  0  0  0  0
 26 80  1  0  0  0  0
 27 82  1  0  0  0  0
 28 83  1  0  0  0  0
 29 64  2  0  0  0  0
 30 42  1  0  0  0  0
 30 65  1  0  0  0  0
 31 60  1  0  0  0  0
 31 65  2  0  0  0  0
 32 66  1  0  0  0  0
 32 70  1  0  0  0  0
 33 71  1  0  0  0  0
 33 75  2  0  0  0  0
 34 51  1  0  0  0  0
 34 72  1  0  0  0  0
 34 76  2  0  0  0  0
 35 61  1  0  0  0  0
 35 67  1  0  0  0  0
 35 77  2  0  0  0  0
 36 62  1  0  0  0  0
 36 73  1  0  0  0  0
 36 78  2  0  0  0  0
 37 68  1  0  0  0  0
 37 69  1  0  0  0  0
 37 79  2  0  0  0  0
 38 43  1  0  0  0  0
 39 51  1  0  0  0  0
 40 47  1  0  0  0  0
 41 67  1  0  0  0  0
 42 53  1  0  0  0  0
 43 45  1  0  0  0  0
 44 46  1  0  0  0  0
 44 48  1  0  0  0  0
 45 50  1  0  0  0  0
 46 52  1  0  0  0  0
 47 69  1  0  0  0  0
 48 68  1  0  0  0  0
 49 52  1  0  0  0  0
 49 68  1  0  0  0  0
 50 72  1  0  0  0  0
 51 67  1  0  0  0  0
 52 66  1  0  0  0  0
 53 54  1  0  0  0  0
 53 69  1  0  0  0  0
 55 62  1  0  0  0  0
 56 63  1  0  0  0  0
 57 63  1  0  0  0  0
 58 63  1  0  0  0  0
 59 74  1  0  0  0  0
 60 81  1  0  0  0  0
 61 63  1  0  0  0  0
 61 73  1  0  0  0  0
 62 74  1  0  0  0  0
 64 66  1  0  0  0  0
M  CHG  1  74   1
M  ISO  4  37 100  60 101  69 100  81 101
M  END
> <Batch ID>
0180

> <Smiles>
CNC(C)C(=O)NC(C(=O)N1Cc2cc([101O:1][101CH2:1]c3ccc4c(n3)CC(C)[100N:0]([100C:0](=O)N3CCCC(n5nc(-c6ccc(Oc7ccc(F)cc7F)cc6)c(C(N)=O)c5N)C3)CC4)ccc2CC1C(=O)NC1CCCc2ccccc21)C(C)(C)C

> <Shape>
0.143

> <Color>
0.187

> <Negative vol penalty>
0.000

$$$$

  -OEChem-04052323003D

 83 92  0     1  0  0  0  0  0999 V2000
  -19.0725  -25.0465   24.6535 C   0  0  0  0  0  0  0  0  0  0  0  0
  -20.4499  -25.0427   24.4578 C   0  0  0  0  0  0  0  0  0  0  0  0
  -24.0538  -14.4002   22.1993 C   0  0  0  0  0  0  0  0  0  0  0  0
  -25.5343  -14.7757   20.3274 C   0  0  0  0  0  0  0  0  0  0  0  0
  -18.2783  -25.9829   23.9929 C   0  0  0  0  0  0  0  0  0  0  0  0
  -21.0338  -25.9746   23.6005 C   0  0  0  0  0  0  0  0  0  0  0  0
  -26.5170  -28.6282   24.2316 C   0  0  0  0  0  0  0  0  0  0  0  0
  -23.5495  -13.2610   21.5720 C   0  0  0  0  0  0  0  0  0  0  0  0
  -25.0301  -13.6365   19.7000 C   0  0  0  0  0  0  0  0  0  0  0  0
  -27.7616  -28.3557   23.6657 C   0  0  0  0  0  0  0  0  0  0  0  0
  -22.1287  -10.0516   20.6255 C   0  0  0  0  0  0  0  0  0  0  0  0
  -21.9713   -8.9014   21.3987 C   0  0  0  0  0  0  0  0  0  0  0  0
  -27.3509  -30.0249   21.9733 C   0  0  0  0  0  0  0  0  0  0  0  0
  -24.3397   -8.8982   21.8759 C   0  0  0  0  0  0  0  0  0  0  0  0
  -25.0461  -15.1576   21.5770 C   0  0  0  0  0  0  0  0  0  0  0  0
  -26.6629  -16.4061   23.1050 C   0  0  0  0  0  0  0  0  0  0  0  0
  -18.8539  -26.9329   23.1345 C   0  0  0  0  0  0  0  0  0  0  0  0
  -25.6739  -29.5951   23.6652 C   0  0  0  0  0  0  0  0  0  0  0  0
  -20.2464  -26.9237   22.9267 C   0  0  0  0  0  0  0  0  0  0  0  0
  -26.0971  -30.3096   22.5354 C   0  0  0  0  0  0  0  0  0  0  0  0
  -24.0377  -12.8791   20.3224 C   0  0  0  0  0  0  0  0  0  0  0  0
  -28.1776  -29.0520   22.5347 C   0  0  0  0  0  0  0  0  0  0  0  0
  -23.3916  -10.6251   20.4774 C   0  0  0  0  0  0  0  0  0  0  0  0
  -23.0768   -8.3247   22.0240 C   0  0  0  0  0  0  0  0  0  0  0  0
  -24.4971  -10.0484   21.1027 C   0  0  0  0  0  0  0  0  0  0  0  0
  -25.5670  -16.3348   22.2242 C   0  0  0  0  0  0  0  0  0  0  0  0
  -30.6423  -27.4900   20.3972 C   0  0  0  0  0  0  0  0  0  0  0  0
  -29.4537  -27.8079   21.0029 C   0  0  0  0  0  0  0  0  0  1  0  0
  -26.7491  -17.7356   23.4389 C   0  0  0  0  0  0  0  0  0  0  0  0
  -28.4241  -26.2569   19.7247 C   0  0  0  0  0  0  0  0  0  0  0  0
  -27.5258  -15.3638   23.5789 C   0  0  0  0  0  0  0  0  0  0  0  0
  -22.7758  -29.5568   22.3600 C   0  0  0  0  0  0  0  0  0  0  0  0
  -23.1815  -32.7748   22.3105 C   0  0  0  0  0  0  0  0  0  0  0  0
  -25.3332  -35.4237   22.2898 C   0  0  0  0  0  0  0  0  0  0  0  0
  -24.9342  -22.5631   20.4386 C   0  0  0  0  0  0  0  0  0  0  0  0
  -17.9495  -27.8951   22.4058 C   0  0  0  0  0  0  0  0  0  0  0  0
  -24.3455  -29.8962   24.3034 C   0  0  0  0  0  0  0  0  0  0  0  0
  -25.2380  -31.3717   21.9011 C   0  0  0  0  0  0  0  0  0  0  0  0
  -18.6876  -29.0882   21.8044 C   0  0  0  0  0  0  0  0  0  0  0  0
  -24.0973  -21.6648   23.9273 C   0  0  0  0  0  0  0  0  0  0  0  0
  -19.9400  -28.6248   21.0671 C   0  0  0  0  0  0  0  0  0  0  0  0
  -24.4298  -20.1762   23.9325 C   0  0  0  0  0  0  0  0  0  0  0  0
  -25.2032  -26.9460   19.1641 C   0  0  0  0  0  0  0  0  0  0  0  0
  -23.9389  -26.0831   19.3654 C   0  0  0  0  0  0  0  0  0  0  0  0
  -23.5736  -22.1329   22.5700 C   0  0  0  0  0  0  0  0  0  0  0  0
  -24.8162  -20.3057   21.4420 C   0  0  0  0  0  0  0  0  0  0  0  0
  -20.9197  -27.9344   22.0238 C   0  0  1  0  0  0  0  0  0  0  0  0
  -23.3520  -30.5389   23.3405 C   0  0  1  0  0  0  0  0  0  0  0  0
  -25.3918  -19.8331   22.7854 C   0  0  2  0  0  0  0  0  0  0  0  0
  -25.9796  -25.8470   19.9217 C   0  0  1  0  0  0  0  0  0  0  0  0
  -24.8791  -24.8574   19.4649 C   0  0  1  0  0  0  0  0  0  0  0  0
  -31.9154  -28.1714   20.7576 C   0  0  0  0  0  0  0  0  0  0  0  0
  -25.3694  -37.9316   22.2088 C   0  0  0  0  0  0  0  0  0  0  0  0
  -22.5287  -32.6856   19.3312 C   0  0  0  0  0  0  0  0  0  0  0  0
  -23.4921  -34.9870   19.1223 C   0  0  0  0  0  0  0  0  0  0  0  0
  -21.4970  -34.5985   20.5684 C   0  0  0  0  0  0  0  0  0  0  0  0
  -26.6916  -35.6045   24.9130 C   0  0  0  0  0  0  0  0  0  0  0  0
  -23.7596  -33.7645   21.3279 C   0  0  1  0  0  0  0  0  0  0  0  0
  -25.3631  -36.7035   23.1057 C   0  0  2  0  0  0  0  0  0  0  0  0
  -22.8350  -33.9876   20.0980 C   0  0  0  0  0  0  0  0  0  0  0  0
  -24.9978  -17.5243   22.0120 N   0  0  0  0  0  0  0  0  0  0  0  0
  -30.6992  -26.5399   19.4463 N   0  0  0  0  0  0  0  0  0  0  0  0
  -28.3062  -27.1932   20.6780 N   0  0  0  0  0  0  0  0  0  0  0  0
  -29.5624  -25.9028   19.0964 N   0  0  0  0  0  0  0  0  0  0  0  0
  -25.7388  -18.3556   22.7643 N   0  0  0  0  0  0  0  0  0  0  0  0
  -23.9451  -31.6253   22.5581 N   0  0  0  0  0  0  0  0  0  0  0  0
  -24.4684  -21.7317   21.4728 N   0  0  0  0  0  0  0  0  0  0  0  0
  -27.5898  -18.4231   24.2408 N   0  0  0  0  0  0  0  0  0  0  0  0
  -27.2969  -14.0539   23.1361 N   0  0  0  0  0  0  0  0  0  0  0  0
  -27.2480  -25.5779   19.3426 N   0  0  0  0  0  0  0  0  0  0  0  0
  -21.6365  -28.9165   22.8087 N   0  0  0  0  0  0  0  0  0  0  0  0
  -24.0446  -34.9762   22.0889 N   0  0  0  0  0  0  0  0  0  0  0  0
  -24.4892  -23.8811   20.4716 N   0  0  0  0  0  0  0  0  0  0  0  0
  -26.5808  -36.7422   23.9641 N   0  3  0  0  0  0  0  0  0  0  0  0
  -28.4616  -15.5848   24.3845 O   0  0  0  0  0  0  0  0  0  0  0  0
  -23.3236  -29.3933   21.2760 O   0  0  0  0  0  0  0  0  0  0  0  0
  -22.0959  -33.0163   22.8441 O   0  0  0  0  0  0  0  0  0  0  0  0
  -26.3509  -34.8778   21.8694 O   0  0  0  0  0  0  0  0  0  0  0  0
  -25.6868  -22.1645   19.5431 O   0  0  0  0  0  0  0  0  0  0  0  0
  -23.5460  -11.7674   19.7100 O   0  0  0  0  0  0  0  0  0  0  0  0
  -29.3917  -28.7875   21.9799 O   0  0  0  0  0  0  0  0  0  1  0  0
  -22.9253   -7.2211   22.7677 F   0  0  0  0  0  0  0  0  0  0  0  0
  -25.7126  -10.5955   20.9650 F   0  0  0  0  0  0  0  0  0  0  0  0
  1  2  1  0  0  0  0
  1  5  2  0  0  0  0
  2  6  2  0  0  0  0
  3  8  2  0  0  0  0
  3 15  1  0  0  0  0
  4  9  1  0  0  0  0
  4 15  2  0  0  0  0
  5 17  1  0  0  0  0
  6 19  1  0  0  0  0
  7 10  2  0  0  0  0
  7 18  1  0  0  0  0
  8 21  1  0  0  0  0
  9 21  2  0  0  0  0
 10 22  1  0  0  0  0
 11 12  2  0  0  0  0
 11 23  1  0  0  0  0
 12 24  1  0  0  0  0
 13 20  1  0  0  0  0
 13 22  2  0  0  0  0
 14 24  2  0  0  0  0
 14 25  1  0  0  0  0
 15 26  1  0  0  0  0
 16 26  1  0  0  0  0
 16 29  2  0  0  0  0
 16 31  1  0  0  0  0
 17 19  2  0  0  0  0
 17 36  1  0  0  0  0
 18 20  2  0  0  0  0
 18 37  1  0  0  0  0
 19 47  1  0  0  0  0
 20 38  1  0  0  0  0
 21 80  1  0  0  0  0
 22 81  1  0  0  0  0
 23 25  2  0  0  0  0
 23 80  1  0  0  0  0
 24 82  1  0  0  0  0
 25 83  1  0  0  0  0
 26 61  2  0  0  0  0
 27 28  2  0  0  0  0
 27 52  1  0  0  0  0
 27 62  1  0  0  0  0
 28 63  1  0  0  0  0
 28 81  1  0  0  0  0
 29 65  1  0  0  0  0
 29 68  1  0  0  0  0
 30 63  2  0  0  0  0
 30 64  1  0  0  0  0
 30 70  1  0  0  0  0
 31 69  1  0  0  0  0
 31 75  2  0  0  0  0
 32 48  1  0  0  0  0
 32 71  1  0  0  0  0
 32 76  2  0  0  0  0
 33 58  1  0  0  0  0
 33 66  1  0  0  0  0
 33 77  2  0  0  0  0
 34 59  1  0  0  0  0
 34 72  1  0  0  0  0
 34 78  2  0  0  0  0
 35 67  1  0  0  0  0
 35 73  1  0  0  0  0
 35 79  2  0  0  0  0
 36 39  1  0  0  0  0
 37 48  1  0  0  0  0
 38 66  1  0  0  0  0
 39 41  1  0  0  0  0
 40 42  1  0  0  0  0
 40 45  1  0  0  0  0
 41 47  1  0  0  0  0
 42 49  1  0  0  0  0
 43 44  1  0  0  0  0
 43 50  1  0  0  0  0
 44 51  1  0  0  0  0
 45 67  1  0  0  0  0
 46 49  1  0  0  0  0
 46 67  1  0  0  0  0
 47 71  1  0  0  0  0
 48 66  1  0  0  0  0
 49 65  1  0  0  0  0
 50 51  1  0  0  0  0
 50 70  1  0  0  0  0
 51 73  1  0  0  0  0
 53 59  1  0  0  0  0
 54 60  1  0  0  0  0
 55 60  1  0  0  0  0
 56 60  1  0  0  0  0
 57 74  1  0  0  0  0
 58 60  1  0  0  0  0
 58 72  1  0  0  0  0
 59 74  1  0  0  0  0
 61 65  1  0  0  0  0
 62 64  2  0  0  0  0
M  CHG  1  74   1
M  ISO  4  28 101  35 100  73 100  81 101
M  END
> <Batch ID>
0180

> <Smiles>
CNC(C)C(=O)NC(C(=O)N1Cc2cc([101O:1][101c:1]3nc(NC4CCC4[100NH:0][100C:0](=O)N4CCCC(n5nc(-c6ccc(Oc7ccc(F)cc7F)cc6)c(C(N)=O)c5N)C4)nnc3C)ccc2CC1C(=O)NC1CCCc2ccccc21)C(C)(C)C

> <Shape>
0.257

> <Color>
0.103

> <Negative vol penalty>
0.000

$$$$

  -OEChem-04052323003D

 80 89  0     1  0  0  0  0  0999 V2000
  -26.1944  -37.4110   23.3964 C   0  0  0  0  0  0  0  0  0  0  0  0
  -26.9101  -36.3232   22.9065 C   0  0  0  0  0  0  0  0  0  0  0  0
  -25.8743  -13.5742   18.2879 C   0  0  0  0  0  0  0  0  0  0  0  0
  -24.2062  -14.1176   19.9490 C   0  0  0  0  0  0  0  0  0  0  0  0
  -25.0521  -37.2019   24.1680 C   0  0  0  0  0  0  0  0  0  0  0  0
  -26.4844  -35.0257   23.1888 C   0  0  0  0  0  0  0  0  0  0  0  0
  -26.9096  -30.1336   19.5292 C   0  0  0  0  0  0  0  0  0  0  0  0
  -26.0752  -12.3347   18.8951 C   0  0  0  0  0  0  0  0  0  0  0  0
  -24.4071  -12.8780   20.5562 C   0  0  0  0  0  0  0  0  0  0  0  0
  -27.8238  -29.0826   19.4706 C   0  0  0  0  0  0  0  0  0  0  0  0
  -23.4840   -9.6699   20.0305 C   0  0  0  0  0  0  0  0  0  0  0  0
  -22.3541   -8.9423   20.4041 C   0  0  0  0  0  0  0  0  0  0  0  0
  -32.0824  -24.3037   19.5387 C   0  0  0  0  0  0  0  0  0  0  0  0
  -31.7453  -25.6595   19.7805 C   0  0  0  0  0  0  0  0  0  0  0  0
  -26.3420  -27.7273   20.8072 C   0  0  0  0  0  0  0  0  0  0  0  0
  -23.0889   -8.9828   22.7053 C   0  0  0  0  0  0  0  0  0  0  0  0
  -24.9399  -14.4657   18.8149 C   0  0  0  0  0  0  0  0  0  0  0  0
  -23.8145  -16.0542   17.1663 C   0  0  0  0  0  0  0  0  0  0  0  0
  -24.6067  -35.9013   24.4518 C   0  0  0  0  0  0  0  0  0  0  0  0
  -25.7076  -29.9928   20.2375 C   0  0  0  0  0  0  0  0  0  0  0  0
  -25.3358  -34.7991   23.9660 C   0  0  0  0  0  0  0  0  0  0  0  0
  -25.4131  -28.7771   20.8711 C   0  0  0  0  0  0  0  0  0  0  0  0
  -25.3416  -11.9865   20.0293 C   0  0  0  0  0  0  0  0  0  0  0  0
  -27.5414  -27.8802   20.1121 C   0  0  0  0  0  0  0  0  0  0  0  0
  -24.4164  -10.0539   20.9943 C   0  0  0  0  0  0  0  0  0  0  0  0
  -22.1566   -8.5987   21.7414 C   0  0  0  0  0  0  0  0  0  0  0  0
  -24.2188   -9.7104   22.3317 C   0  0  0  0  0  0  0  0  0  0  0  0
  -24.7323  -15.7466   18.1884 C   0  0  0  0  0  0  0  0  0  0  0  0
  -30.9993  -23.7060   18.9239 C   0  0  0  0  0  0  0  0  0  0  0  0
  -30.4661  -25.8585   19.3084 C   0  0  0  0  0  0  0  0  0  0  0  0
  -24.0070  -17.3922   16.9232 C   0  0  0  0  0  0  0  0  0  0  0  0
  -22.8720  -15.2063   16.4966 C   0  0  0  0  0  0  0  0  0  0  0  0
  -24.4024  -31.4369   22.7505 C   0  0  0  0  0  0  0  0  0  0  0  0
  -21.8482  -29.5845   21.9973 C   0  0  0  0  0  0  0  0  0  0  0  0
  -20.6598  -26.7623   20.4908 C   0  0  0  0  0  0  0  0  0  0  0  0
  -28.9568  -20.7130   18.1224 C   0  0  0  0  0  0  0  0  0  0  0  0
  -23.3931  -35.7249   25.3296 C   0  0  0  0  0  0  0  0  0  0  0  0
  -24.7199  -31.1268   20.2687 C   0  0  0  0  0  0  0  0  0  0  0  0
  -24.1276  -28.5681   21.6277 C   0  0  0  0  0  0  0  0  0  0  0  0
  -30.8051  -22.3141   18.4321 C   0  0  0  0  0  0  0  0  0  0  0  0
  -22.7968  -34.3209   25.2696 C   0  0  0  0  0  0  0  0  0  0  0  0
  -25.4030  -21.4330   19.0476 C   0  0  0  0  0  0  0  0  0  0  0  0
  -23.8949  -33.2690   25.3901 C   0  0  0  0  0  0  0  0  0  0  0  0
  -24.7791  -20.0455   18.9066 C   0  0  0  0  0  0  0  0  0  0  0  0
  -28.7203  -24.4257   18.2176 C   0  0  0  0  0  0  0  0  0  0  0  0
  -26.8808  -21.3405   19.4083 C   0  0  0  0  0  0  0  0  0  0  0  0
  -28.6883  -23.1277   17.4193 C   0  0  0  0  0  0  0  0  0  0  0  0
  -27.0684  -19.1336   18.3071 C   0  0  0  0  0  0  0  0  0  0  0  0
  -24.8917  -33.3767   24.2299 C   0  0  1  0  0  0  0  0  0  0  0  0
  -23.7576  -31.0488   21.4499 C   0  0  1  0  0  0  0  0  0  0  0  0
  -25.5810  -19.1801   17.9198 C   0  0  1  0  0  0  0  0  0  0  0  0
  -18.5321  -25.4986   20.0741 C   0  0  0  0  0  0  0  0  0  0  0  0
  -21.8749  -28.5928   24.8827 C   0  0  0  0  0  0  0  0  0  0  0  0
  -20.4038  -26.6961   24.1710 C   0  0  0  0  0  0  0  0  0  0  0  0
  -19.5966  -29.0467   23.9566 C   0  0  0  0  0  0  0  0  0  0  0  0
  -20.9434  -27.0230   17.5564 C   0  0  0  0  0  0  0  0  0  0  0  0
  -29.6375  -27.0817   19.3218 C   0  0  0  0  0  0  0  0  0  1  0  0
  -21.3817  -28.2004   22.3789 C   0  0  1  0  0  0  0  0  0  0  0  0
  -19.4995  -26.5419   19.5370 C   0  0  2  0  0  0  0  0  0  0  0  0
  -20.8394  -28.1383   23.8348 C   0  0  0  0  0  0  0  0  0  0  0  0
  -25.4545  -16.8040   18.5684 N   0  0  0  0  0  0  0  0  0  0  0  0
  -30.0301  -24.6706   18.7919 N   0  0  0  0  0  0  0  0  0  0  0  0
  -24.9905  -17.7891   17.7808 N   0  0  0  0  0  0  0  0  0  0  0  0
  -23.1969  -29.7088   21.6345 N   0  0  0  0  0  0  0  0  0  0  0  0
  -29.3945  -22.0488   18.1297 N   0  0  0  0  0  0  0  0  0  0  0  0
  -27.6167  -20.4814   18.4723 N   0  0  0  0  0  0  0  0  0  0  0  0
  -23.4295  -18.2562   16.0615 N   0  0  0  0  0  0  0  0  0  0  0  0
  -22.8046  -13.8569   16.8693 N   0  0  0  0  0  0  0  0  0  0  0  0
  -24.3361  -32.7886   23.0300 N   0  0  0  0  0  0  0  0  0  0  0  0
  -20.4136  -27.8014   21.3631 N   0  0  0  0  0  0  0  0  0  0  0  0
  -19.9995  -26.0808   18.2110 N   0  3  0  0  0  0  0  0  0  0  0  0
  -22.1235  -15.6290   15.5829 O   0  0  0  0  0  0  0  0  0  0  0  0
  -24.9203  -30.5738   23.4493 O   0  0  0  0  0  0  0  0  0  0  0  0
  -21.0439  -30.5196   22.0133 O   0  0  0  0  0  0  0  0  0  0  0  0
  -21.6807  -26.0784   20.4671 O   0  0  0  0  0  0  0  0  0  0  0  0
  -29.7167  -19.7853   17.8169 O   0  0  0  0  0  0  0  0  0  0  0  0
  -25.5372  -10.7770   20.6219 O   0  0  0  0  0  0  0  0  0  0  0  0
  -28.4370  -26.8475   20.0568 O   0  0  0  0  0  0  0  0  0  1  0  0
  -21.0708   -7.9013   22.1003 F   0  0  0  0  0  0  0  0  0  0  0  0
  -25.1105  -10.0775   23.2622 F   0  0  0  0  0  0  0  0  0  0  0  0
  1  2  1  0  0  0  0
  1  5  2  0  0  0  0
  2  6  2  0  0  0  0
  3  8  2  0  0  0  0
  3 17  1  0  0  0  0
  4  9  1  0  0  0  0
  4 17  2  0  0  0  0
  5 19  1  0  0  0  0
  6 21  1  0  0  0  0
  7 10  2  0  0  0  0
  7 20  1  0  0  0  0
  8 23  1  0  0  0  0
  9 23  2  0  0  0  0
 10 24  1  0  0  0  0
 11 12  2  0  0  0  0
 11 25  1  0  0  0  0
 12 26  1  0  0  0  0
 13 14  1  0  0  0  0
 13 29  2  0  0  0  0
 14 30  2  0  0  0  0
 15 22  1  0  0  0  0
 15 24  2  0  0  0  0
 16 26  2  0  0  0  0
 16 27  1  0  0  0  0
 17 28  1  0  0  0  0
 18 28  1  0  0  0  0
 18 31  2  0  0  0  0
 18 32  1  0  0  0  0
 19 21  2  0  0  0  0
 19 37  1  0  0  0  0
 20 22  2  0  0  0  0
 20 38  1  0  0  0  0
 21 49  1  0  0  0  0
 22 39  1  0  0  0  0
 23 77  1  0  0  0  0
 24 78  1  0  0  0  0
 25 27  2  0  0  0  0
 25 77  1  0  0  0  0
 26 79  1  0  0  0  0
 27 80  1  0  0  0  0
 28 61  2  0  0  0  0
 29 40  1  0  0  0  0
 29 62  1  0  0  0  0
 30 57  1  0  0  0  0
 30 62  1  0  0  0  0
 31 63  1  0  0  0  0
 31 67  1  0  0  0  0
 32 68  1  0  0  0  0
 32 72  2  0  0  0  0
 33 50  1  0  0  0  0
 33 69  1  0  0  0  0
 33 73  2  0  0  0  0
 34 58  1  0  0  0  0
 34 64  1  0  0  0  0
 34 74  2  0  0  0  0
 35 59  1  0  0  0  0
 35 70  1  0  0  0  0
 35 75  2  0  0  0  0
 36 65  1  0  0  0  0
 36 66  1  0  0  0  0
 36 76  2  0  0  0  0
 37 41  1  0  0  0  0
 38 50  1  0  0  0  0
 39 64  1  0  0  0  0
 40 65  1  0  0  0  0
 41 43  1  0  0  0  0
 42 44  1  0  0  0  0
 42 46  1  0  0  0  0
 43 49  1  0  0  0  0
 44 51  1  0  0  0  0
 45 47  1  0  0  0  0
 45 62  1  0  0  0  0
 46 66  1  0  0  0  0
 47 65  1  0  0  0  0
 48 51  1  0  0  0  0
 48 66  1  0  0  0  0
 49 69  1  0  0  0  0
 50 64  1  0  0  0  0
 51 63  1  0  0  0  0
 52 59  1  0  0  0  0
 53 60  1  0  0  0  0
 54 60  1  0  0  0  0
 55 60  1  0  0  0  0
 56 71  1  0  0  0  0
 57 78  1  0  0  0  0
 58 60  1  0  0  0  0
 58 70  1  0  0  0  0
 59 71  1  0  0  0  0
 61 63  1  0  0  0  0
M  CHG  1  71   1
M  ISO  4  36 100  57 101  65 100  78 101
M  END
> <Batch ID>
0180

> <Smiles>
CNC(C)C(=O)NC(C(=O)N1Cc2cc([101O:1][101CH2:1]c3ccc4n3CC[100N:0]([100C:0](=O)N3CCCC(n5nc(-c6ccc(Oc7ccc(F)cc7F)cc6)c(C(N)=O)c5N)C3)C4)ccc2CC1C(=O)NC1CCCc2ccccc21)C(C)(C)C

> <Shape>
0.289

> <Color>
0.077

> <Negative vol penalty>
0.000

$$$$

  -OEChem-04052323003D

 83 92  0     1  0  0  0  0  0999 V2000
  -18.2143  -30.1160   26.4970 C   0  0  0  0  0  0  0  0  0  0  0  0
  -19.4968  -29.5797   26.5507 C   0  0  0  0  0  0  0  0  0  0  0  0
  -22.9890  -12.1371   22.8412 C   0  0  0  0  0  0  0  0  0  0  0  0
  -22.6868  -10.9874   20.7379 C   0  0  0  0  0  0  0  0  0  0  0  0
  -17.5468  -30.2029   25.2760 C   0  0  0  0  0  0  0  0  0  0  0  0
  -20.1122  -29.1289   25.3834 C   0  0  0  0  0  0  0  0  0  0  0  0
  -26.5702  -28.5740   22.3333 C   0  0  0  0  0  0  0  0  0  0  0  0
  -21.8522  -11.5080   23.3485 C   0  0  0  0  0  0  0  0  0  0  0  0
  -21.5499  -10.3582   21.2452 C   0  0  0  0  0  0  0  0  0  0  0  0
  -27.3965  -27.6301   21.7249 C   0  0  0  0  0  0  0  0  0  0  0  0
  -19.2360   -9.9296   25.3181 C   0  0  0  0  0  0  0  0  0  0  0  0
  -19.3102   -9.3948   26.6041 C   0  0  0  0  0  0  0  0  0  0  0  0
  -26.1785  -27.9032   19.6607 C   0  0  0  0  0  0  0  0  0  0  0  0
  -31.3321  -23.1476   18.2288 C   0  0  0  0  0  0  0  0  0  0  0  0
  -21.1081   -7.9440   25.8970 C   0  0  0  0  0  0  0  0  0  0  0  0
  -23.4063  -11.8769   21.5358 C   0  0  0  0  0  0  0  0  0  0  0  0
  -25.9081  -12.0634   21.0733 C   0  0  0  0  0  0  0  0  0  0  0  0
  -18.1581  -29.7619   24.0918 C   0  0  0  0  0  0  0  0  0  0  0  0
  -25.5331  -29.1825   21.6117 C   0  0  0  0  0  0  0  0  0  0  0  0
  -19.4518  -29.2088   24.1456 C   0  0  0  0  0  0  0  0  0  0  0  0
  -25.3420  -28.8563   20.2614 C   0  0  0  0  0  0  0  0  0  0  0  0
  -30.0701  -22.7403   18.6468 C   0  0  0  0  0  0  0  0  0  0  0  0
  -29.2938  -23.5910   19.4259 C   0  0  0  0  0  0  0  0  0  0  0  0
  -21.1326  -10.6185   22.5505 C   0  0  0  0  0  0  0  0  0  0  0  0
  -27.1989  -27.2924   20.3892 C   0  0  0  0  0  0  0  0  0  0  0  0
  -20.0978   -9.4717   24.3214 C   0  0  0  0  0  0  0  0  0  0  0  0
  -20.2463   -8.4020   26.8936 C   0  0  0  0  0  0  0  0  0  0  0  0
  -21.0339   -8.4789   24.6109 C   0  0  0  0  0  0  0  0  0  0  0  0
  -24.5803  -12.5269   21.0110 C   0  0  0  0  0  0  0  0  0  0  0  0
  -31.7683  -24.4051   18.6138 C   0  0  0  0  0  0  0  0  0  0  0  0
  -29.8213  -24.8286   19.7575 C   0  0  0  0  0  0  0  0  0  0  0  0
  -26.6410  -13.0347   20.4361 C   0  0  0  0  0  0  0  0  0  0  0  0
  -26.4322  -10.8624   21.6551 C   0  0  0  0  0  0  0  0  0  0  0  0
  -22.3666  -29.2684   21.8756 C   0  0  0  0  0  0  0  0  0  0  0  0
  -22.6124  -31.4102   19.4519 C   0  0  0  0  0  0  0  0  0  0  0  0
  -24.4178  -32.6059   16.8141 C   0  0  0  0  0  0  0  0  0  0  0  0
  -27.8313  -18.3764   19.8022 C   0  0  0  0  0  0  0  0  0  0  0  0
  -17.3787  -29.8328   22.8025 C   0  0  0  0  0  0  0  0  0  0  0  0
  -24.6675  -30.2184   22.2750 C   0  0  0  0  0  0  0  0  0  0  0  0
  -24.2557  -29.4959   19.4372 C   0  0  0  0  0  0  0  0  0  0  0  0
  -18.2469  -29.6777   21.5566 C   0  0  0  0  0  0  0  0  0  0  0  0
  -25.1899  -16.9717   17.6429 C   0  0  0  0  0  0  0  0  0  0  0  0
  -19.2084  -28.5047   21.7185 C   0  0  0  0  0  0  0  0  0  0  0  0
  -24.8738  -15.6706   18.3747 C   0  0  0  0  0  0  0  0  0  0  0  0
  -30.4062  -20.1804   18.5650 C   0  0  0  0  0  0  0  0  0  0  0  0
  -25.5785  -18.0920   18.6067 C   0  0  0  0  0  0  0  0  0  0  0  0
  -26.3801  -16.4240   20.2558 C   0  0  0  0  0  0  0  0  0  0  0  0
  -29.5714  -21.3910   18.2481 C   0  0  1  0  0  0  0  0  0  0  0  0
  -20.1623  -28.7320   22.8975 C   0  0  1  0  0  0  0  0  0  0  0  0
  -23.3167  -30.3966   21.5887 C   0  0  1  0  0  0  0  0  0  0  0  0
  -26.0344  -15.2725   19.2992 C   0  0  1  0  0  0  0  0  0  0  0  0
  -29.1368  -20.4259   19.3257 C   0  0  1  0  0  0  0  0  0  0  0  0
  -27.9356  -23.1826   19.8903 C   0  0  0  0  0  0  0  0  0  0  0  0
  -33.1179  -24.8750   18.1837 C   0  0  0  0  0  0  0  0  0  0  0  0
  -24.3436  -34.3381   14.9999 C   0  0  0  0  0  0  0  0  0  0  0  0
  -20.6108  -29.7026   17.9067 C   0  0  0  0  0  0  0  0  0  0  0  0
  -21.2934  -30.9118   15.8234 C   0  0  0  0  0  0  0  0  0  0  0  0
  -20.2499  -32.1694   17.7082 C   0  0  0  0  0  0  0  0  0  0  0  0
  -26.8643  -33.9325   17.8208 C   0  0  0  0  0  0  0  0  0  0  0  0
  -29.0306  -25.7897   20.5955 C   0  0  0  0  0  0  0  0  0  1  0  0
  -22.6205  -31.3230   17.9448 C   0  0  1  0  0  0  0  0  0  0  0  0
  -24.8019  -34.0191   16.4144 C   0  0  2  0  0  0  0  0  0  0  0  0
  -21.2130  -31.0130   17.3616 C   0  0  0  0  0  0  0  0  0  0  0  0
  -24.4729  -13.7013   20.3839 N   0  0  0  0  0  0  0  0  0  0  0  0
  -31.0429  -25.2591   19.3700 N   0  0  0  0  0  0  0  0  0  0  0  0
  -25.7427  -13.9840   20.0464 N   0  0  0  0  0  0  0  0  0  0  0  0
  -23.4315  -30.4982   20.1325 N   0  0  0  0  0  0  0  0  0  0  0  0
  -26.6473  -17.6691   19.5253 N   0  0  0  0  0  0  0  0  0  0  0  0
  -27.9598  -13.1607   20.1769 N   0  0  0  0  0  0  0  0  0  0  0  0
  -25.5400   -9.9734   22.2701 N   0  0  0  0  0  0  0  0  0  0  0  0
  -21.2118  -29.6572   22.5273 N   0  0  0  0  0  0  0  0  0  0  0  0
  -23.2036  -32.5720   17.4668 N   0  0  0  0  0  0  0  0  0  0  0  0
  -27.9819  -19.5889   19.1388 N   0  0  0  0  0  0  0  0  0  0  0  0
  -26.2807  -34.1919   16.4795 N   0  3  0  0  0  0  0  0  0  0  0  0
  -27.6574  -10.5935   21.6447 O   0  0  0  0  0  0  0  0  0  0  0  0
  -22.6590  -28.1296   21.5299 O   0  0  0  0  0  0  0  0  0  0  0  0
  -21.9109  -32.2610   20.0047 O   0  0  0  0  0  0  0  0  0  0  0  0
  -25.1224  -31.6294   16.5684 O   0  0  0  0  0  0  0  0  0  0  0  0
  -28.6909  -17.9620   20.5877 O   0  0  0  0  0  0  0  0  0  0  0  0
  -20.0234  -10.0043   23.0453 O   0  0  0  0  0  0  0  0  0  0  0  0
  -28.0036  -26.3710   19.7932 O   0  0  0  0  0  0  0  0  0  1  0  0
  -20.3185   -7.8895   28.1291 F   0  0  0  0  0  0  0  0  0  0  0  0
  -21.8653   -8.0358   23.6579 F   0  0  0  0  0  0  0  0  0  0  0  0
  1  2  1  0  0  0  0
  1  5  2  0  0  0  0
  2  6  2  0  0  0  0
  3  8  2  0  0  0  0
  3 16  1  0  0  0  0
  4  9  1  0  0  0  0
  4 16  2  0  0  0  0
  5 18  1  0  0  0  0
  6 20  1  0  0  0  0
  7 10  2  0  0  0  0
  7 19  1  0  0  0  0
  8 24  1  0  0  0  0
  9 24  2  0  0  0  0
 10 25  1  0  0  0  0
 11 12  2  0  0  0  0
 11 26  1  0  0  0  0
 12 27  1  0  0  0  0
 13 21  1  0  0  0  0
 13 25  2  0  0  0  0
 14 22  2  0  0  0  0
 14 30  1  0  0  0  0
 15 27  2  0  0  0  0
 15 28  1  0  0  0  0
 16 29  1  0  0  0  0
 17 29  1  0  0  0  0
 17 32  2  0  0  0  0
 17 33  1  0  0  0  0
 18 20  2  0  0  0  0
 18 38  1  0  0  0  0
 19 21  2  0  0  0  0
 19 39  1  0  0  0  0
 20 49  1  0  0  0  0
 21 40  1  0  0  0  0
 22 23  1  0  0  0  0
 22 48  1  0  0  0  0
 23 31  2  0  0  0  0
 23 53  1  0  0  0  0
 24 80  1  0  0  0  0
 25 81  1  0  0  0  0
 26 28  2  0  0  0  0
 26 80  1  0  0  0  0
 27 82  1  0  0  0  0
 28 83  1  0  0  0  0
 29 64  2  0  0  0  0
 30 54  1  0  0  0  0
 30 65  2  0  0  0  0
 31 60  1  0  0  0  0
 31 65  1  0  0  0  0
 32 66  1  0  0  0  0
 32 69  1  0  0  0  0
 33 70  1  0  0  0  0
 33 75  2  0  0  0  0
 34 50  1  0  0  0  0
 34 71  1  0  0  0  0
 34 76  2  0  0  0  0
 35 61  1  0  0  0  0
 35 67  1  0  0  0  0
 35 77  2  0  0  0  0
 36 62  1  0  0  0  0
 36 72  1  0  0  0  0
 36 78  2  0  0  0  0
 37 68  1  0  0  0  0
 37 73  1  0  0  0  0
 37 79  2  0  0  0  0
 38 41  1  0  0  0  0
 39 50  1  0  0  0  0
 40 67  1  0  0  0  0
 41 43  1  0  0  0  0
 42 44  1  0  0  0  0
 42 46  1  0  0  0  0
 43 49  1  0  0  0  0
 44 51  1  0  0  0  0
 45 48  1  0  0  0  0
 45 52  1  0  0  0  0
 46 68  1  0  0  0  0
 47 51  1  0  0  0  0
 47 68  1  0  0  0  0
 48 52  1  0  0  0  0
 49 71  1  0  0  0  0
 50 67  1  0  0  0  0
 51 66  1  0  0  0  0
 52 73  1  0  0  0  0
 55 62  1  0  0  0  0
 56 63  1  0  0  0  0
 57 63  1  0  0  0  0
 58 63  1  0  0  0  0
 59 74  1  0  0  0  0
 60 81  1  0  0  0  0
 61 63  1  0  0  0  0
 61 72  1  0  0  0  0
 62 74  1  0  0  0  0
 64 66  1  0  0  0  0
M  CHG  1  74   1
M  ISO  4  37 100  60 101  73 100  81 101
M  END
> <Batch ID>
0180

> <Smiles>
CNC(C)C(=O)NC(C(=O)N1Cc2cc([101O:1][101CH2:1]c3nc(C)cc(C4CC4[100NH:0][100C:0](=O)N4CCCC(n5nc(-c6ccc(Oc7ccc(F)cc7F)cc6)c(C(N)=O)c5N)C4)c3C)ccc2CC1C(=O)NC1CCCc2ccccc21)C(C)(C)C

> <Shape>
0.250

> <Color>
0.099

> <Negative vol penalty>
0.000

$$$$

  -OEChem-04052323003D

 86 95  0     1  0  0  0  0  0999 V2000
  -32.3340  -14.2596   20.2046 C   0  0  0  0  0  0  0  0  0  0  0  0
  -31.5636  -15.3825   20.4895 C   0  0  0  0  0  0  0  0  0  0  0  0
  -26.1048  -28.3224   21.5303 C   0  0  0  0  0  0  0  0  0  0  0  0
  -25.4006  -29.7738   19.7318 C   0  0  0  0  0  0  0  0  0  0  0  0
  -31.7179  -13.0804   19.7877 C   0  0  0  0  0  0  0  0  0  0  0  0
  -30.1766  -15.3270   20.3566 C   0  0  0  0  0  0  0  0  0  0  0  0
  -26.0283  -18.2092   23.8192 C   0  0  0  0  0  0  0  0  0  0  0  0
  -26.4423  -27.3368   20.6028 C   0  0  0  0  0  0  0  0  0  0  0  0
  -25.7381  -28.7882   18.8043 C   0  0  0  0  0  0  0  0  0  0  0  0
  -25.3082  -19.3886   23.6339 C   0  0  0  0  0  0  0  0  0  0  0  0
  -28.9895  -26.6843   18.4770 C   0  0  0  0  0  0  0  0  0  0  0  0
  -30.2101  -26.0297   18.6419 C   0  0  0  0  0  0  0  0  0  0  0  0
  -23.4458  -18.1111   22.7863 C   0  0  0  0  0  0  0  0  0  0  0  0
  -29.0506  -23.9204   18.8509 C   0  0  0  0  0  0  0  0  0  0  0  0
  -25.5839  -29.5409   21.0948 C   0  0  0  0  0  0  0  0  0  0  0  0
  -26.0668  -31.5798   22.5499 C   0  0  0  0  0  0  0  0  0  0  0  0
  -30.3219  -13.0076   19.6589 C   0  0  0  0  0  0  0  0  0  0  0  0
  -25.4656  -16.9707   23.4788 C   0  0  0  0  0  0  0  0  0  0  0  0
  -29.5414  -14.1461   19.9363 C   0  0  0  0  0  0  0  0  0  0  0  0
  -24.1598  -16.9173   22.9707 C   0  0  0  0  0  0  0  0  0  0  0  0
  -26.2590  -27.5697   19.2398 C   0  0  0  0  0  0  0  0  0  0  0  0
  -24.0179  -19.3399   23.1146 C   0  0  0  0  0  0  0  0  0  0  0  0
  -27.7994  -25.9570   18.4991 C   0  0  0  0  0  0  0  0  0  0  0  0
  -30.2407  -24.6477   18.8288 C   0  0  0  0  0  0  0  0  0  0  0  0
  -27.8300  -24.5750   18.6860 C   0  0  0  0  0  0  0  0  0  0  0  0
  -25.2345  -30.5592   22.0525 C   0  0  0  0  0  0  0  0  0  0  0  0
  -21.3536  -24.8939   22.6635 C   0  0  0  0  0  0  0  0  0  0  0  0
  -20.8987  -23.5939   22.6854 C   0  0  0  0  0  0  0  0  0  0  0  0
  -23.4837  -24.1550   23.0454 C   0  0  0  0  0  0  0  0  0  0  0  0
  -23.0288  -22.8550   23.0681 C   0  0  0  0  0  0  0  0  0  0  0  0
  -25.2696  -32.2775   23.4240 C   0  0  0  0  0  0  0  0  0  0  0  0
  -27.4380  -31.8711   22.2487 C   0  0  0  0  0  0  0  0  0  0  0  0
  -26.1946  -14.6677   21.4127 C   0  0  0  0  0  0  0  0  0  0  0  0
  -23.7526  -13.1154   22.8788 C   0  0  0  0  0  0  0  0  0  0  0  0
  -20.8721  -13.3112   24.6983 C   0  0  0  0  0  0  0  0  0  0  0  0
  -20.4085  -29.8187   22.3841 C   0  0  0  0  0  0  0  0  0  0  0  0
  -29.7049  -11.7252   19.1595 C   0  0  0  0  0  0  0  0  0  0  0  0
  -26.2455  -15.7055   23.7098 C   0  0  0  0  0  0  0  0  0  0  0  0
  -23.5027  -15.6114   22.6084 C   0  0  0  0  0  0  0  0  0  0  0  0
  -28.2007  -11.6372   19.4044 C   0  0  0  0  0  0  0  0  0  0  0  0
  -21.4447  -30.8175   25.9496 C   0  0  0  0  0  0  0  0  0  0  0  0
  -27.5163  -12.9377   18.9957 C   0  0  0  0  0  0  0  0  0  0  0  0
  -22.8039  -31.4058   25.5951 C   0  0  0  0  0  0  0  0  0  0  0  0
  -20.2418  -26.4548   20.9709 C   0  0  0  0  0  0  0  0  0  0  0  0
  -20.9950  -29.8330   24.8739 C   0  0  0  0  0  0  0  0  0  0  0  0
  -19.6748  -27.8604   21.0791 C   0  0  0  0  0  0  0  0  0  0  0  0
  -20.8431  -27.3636   23.1092 C   0  0  0  0  0  0  0  0  0  0  0  0
  -21.5188  -31.7641   23.3947 C   0  0  0  0  0  0  0  0  0  0  0  0
  -28.0322  -14.1179   19.8279 C   0  0  1  0  0  0  0  0  0  0  0  0
  -20.4151  -26.0522   22.4354 C   0  0  2  0  0  0  0  0  0  0  0  0
  -25.7659  -14.5421   22.8473 C   0  0  1  0  0  0  0  0  0  0  0  0
  -22.8121  -32.0336   24.1886 C   0  0  2  0  0  0  0  0  0  0  0  0
  -24.9252  -24.4776   23.2453 C   0  0  0  0  0  0  0  0  0  0  0  0
  -18.8288  -22.5881   23.7137 C   0  0  0  0  0  0  0  0  0  0  0  0
  -19.2151  -22.4114   21.2289 C   0  0  0  0  0  0  0  0  0  0  0  0
  -19.0818  -11.8752   25.7134 C   0  0  0  0  0  0  0  0  0  0  0  0
  -22.5274  -12.6944   20.1163 C   0  0  0  0  0  0  0  0  0  0  0  0
  -20.3611  -12.1334   21.2392 C   0  0  0  0  0  0  0  0  0  0  0  0
  -22.3745  -10.7156   21.6379 C   0  0  0  0  0  0  0  0  0  0  0  0
  -21.5005  -14.2575   27.4312 C   0  0  0  0  0  0  0  0  0  0  0  0
  -23.9566  -21.7106   23.2938 C   0  0  0  0  0  0  0  0  0  1  0  0
  -19.4574  -23.2714   22.4841 C   0  0  0  0  0  0  0  0  0  0  0  0
  -22.2613  -13.0238   22.6632 C   0  0  1  0  0  0  0  0  0  0  0  0
  -20.4143  -12.5715   25.9425 C   0  0  2  0  0  0  0  0  0  0  0  0
  -21.8939  -12.1667   21.4191 C   0  0  0  0  0  0  0  0  0  0  0  0
  -24.0030  -30.6011   22.5678 N   0  0  0  0  0  0  0  0  0  0  0  0
  -22.6543  -25.1978   22.8431 N   0  0  0  0  0  0  0  0  0  0  0  0
  -21.7282  -22.5511   22.8881 N   0  0  0  0  0  0  0  0  0  0  0  0
  -24.0556  -31.6564   23.3983 N   0  0  0  0  0  0  0  0  0  0  0  0
  -24.3082  -14.4023   22.8467 N   0  0  0  0  0  0  0  0  0  0  0  0
  -21.0165  -30.3878   23.5153 N   0  0  0  0  0  0  0  0  0  0  0  0
  -20.2877  -28.4341   22.2770 N   0  0  0  0  0  0  0  0  0  0  0  0
  -25.4956  -33.3555   24.2045 N   0  0  0  0  0  0  0  0  0  0  0  0
  -28.1080  -31.0540   21.3280 N   0  0  0  0  0  0  0  0  0  0  0  0
  -27.4299  -14.1099   21.1438 N   0  0  0  0  0  0  0  0  0  0  0  0
  -21.6973  -12.5318   23.9155 N   0  0  0  0  0  0  0  0  0  0  0  0
  -20.2592  -13.5201   27.0814 N   0  3  0  0  0  0  0  0  0  0  0  0
  -28.0557  -32.8177   22.7927 O   0  0  0  0  0  0  0  0  0  0  0  0
  -25.4585  -15.2279   20.6090 O   0  0  0  0  0  0  0  0  0  0  0  0
  -24.3996  -12.0838   23.0758 O   0  0  0  0  0  0  0  0  0  0  0  0
  -20.5287  -14.4637   24.4444 O   0  0  0  0  0  0  0  0  0  0  0  0
  -19.9957  -30.5438   21.4648 O   0  0  0  0  0  0  0  0  0  0  0  0
  -26.5884  -26.6082   18.3344 O   0  0  0  0  0  0  0  0  0  0  0  0
  -23.3083  -20.4974   22.9308 O   0  0  0  0  0  0  0  0  0  1  0  0
  -31.4130  -24.0190   18.9856 F   0  0  0  0  0  0  0  0  0  0  0  0
  -26.6901  -23.8708   18.7069 F   0  0  0  0  0  0  0  0  0  0  0  0
  1  2  1  0  0  0  0
  1  5  2  0  0  0  0
  2  6  2  0  0  0  0
  3  8  2  0  0  0  0
  3 15  1  0  0  0  0
  4  9  1  0  0  0  0
  4 15  2  0  0  0  0
  5 17  1  0  0  0  0
  6 19  1  0  0  0  0
  7 10  2  0  0  0  0
  7 18  1  0  0  0  0
  8 21  1  0  0  0  0
  9 21  2  0  0  0  0
 10 22  1  0  0  0  0
 11 12  2  0  0  0  0
 11 23  1  0  0  0  0
 12 24  1  0  0  0  0
 13 20  1  0  0  0  0
 13 22  2  0  0  0  0
 14 24  2  0  0  0  0
 14 25  1  0  0  0  0
 15 26  1  0  0  0  0
 16 26  1  0  0  0  0
 16 31  2  0  0  0  0
 16 32  1  0  0  0  0
 17 19  2  0  0  0  0
 17 37  1  0  0  0  0
 18 20  2  0  0  0  0
 18 38  1  0  0  0  0
 19 49  1  0  0  0  0
 20 39  1  0  0  0  0
 21 83  1  0  0  0  0
 22 84  1  0  0  0  0
 23 25  2  0  0  0  0
 23 83  1  0  0  0  0
 24 85  1  0  0  0  0
 25 86  1  0  0  0  0
 26 66  2  0  0  0  0
 27 28  1  0  0  0  0
 27 50  1  0  0  0  0
 27 67  2  0  0  0  0
 28 62  1  0  0  0  0
 28 68  2  0  0  0  0
 29 30  2  0  0  0  0
 29 53  1  0  0  0  0
 29 67  1  0  0  0  0
 30 61  1  0  0  0  0
 30 68  1  0  0  0  0
 31 69  1  0  0  0  0
 31 73  1  0  0  0  0
 32 74  1  0  0  0  0
 32 78  2  0  0  0  0
 33 51  1  0  0  0  0
 33 75  1  0  0  0  0
 33 79  2  0  0  0  0
 34 63  1  0  0  0  0
 34 70  1  0  0  0  0
 34 80  2  0  0  0  0
 35 64  1  0  0  0  0
 35 76  1  0  0  0  0
 35 81  2  0  0  0  0
 36 71  1  0  0  0  0
 36 72  1  0  0  0  0
 36 82  2  0  0  0  0
 37 40  1  0  0  0  0
 38 51  1  0  0  0  0
 39 70  1  0  0  0  0
 40 42  1  0  0  0  0
 41 43  1  0  0  0  0
 41 45  1  0  0  0  0
 42 49  1  0  0  0  0
 43 52  1  0  0  0  0
 44 46  1  0  0  0  0
 44 50  1  0  0  0  0
 45 71  1  0  0  0  0
 46 72  1  0  0  0  0
 47 50  1  0  0  0  0
 47 72  1  0  0  0  0
 48 52  1  0  0  0  0
 48 71  1  0  0  0  0
 49 75  1  0  0  0  0
 51 70  1  0  0  0  0
 52 69  1  0  0  0  0
 54 62  1  0  0  0  0
 55 62  1  0  0  0  0
 56 64  1  0  0  0  0
 57 65  1  0  0  0  0
 58 65  1  0  0  0  0
 59 65  1  0  0  0  0
 60 77  1  0  0  0  0
 61 84  1  0  0  0  0
 63 65  1  0  0  0  0
 63 76  1  0  0  0  0
 64 77  1  0  0  0  0
 66 69  1  0  0  0  0
M  CHG  1  77   1
M  ISO  4  36 100  61 101  72 100  84 101
M  END
> <Batch ID>
0180

> <Smiles>
CNC(C)C(=O)NC(C(=O)N1Cc2cc([101O:1][101CH2:1]c3nc(C(C)C)c(C4CC[100N:0]([100C:0](=O)N5CCCC(n6nc(-c7ccc(Oc8ccc(F)cc8F)cc7)c(C(N)=O)c6N)C5)C4)nc3C)ccc2CC1C(=O)NC1CCCc2ccccc21)C(C)(C)C

> <Shape>
0.243

> <Color>
0.073

> <Negative vol penalty>
0.000

$$$$

  -OEChem-04052323003D

 85 94  0     1  0  0  0  0  0999 V2000
  -25.7156  -38.6035   20.3442 C   0  0  0  0  0  0  0  0  0  0  0  0
  -26.0710  -37.5318   19.5315 C   0  0  0  0  0  0  0  0  0  0  0  0
  -22.2800  -13.0274   18.6914 C   0  0  0  0  0  0  0  0  0  0  0  0
  -23.1839  -10.8893   19.3610 C   0  0  0  0  0  0  0  0  0  0  0  0
  -25.7061  -38.4528   21.7303 C   0  0  0  0  0  0  0  0  0  0  0  0
  -26.4182  -36.3088   20.1045 C   0  0  0  0  0  0  0  0  0  0  0  0
  -26.0412  -29.2612   18.8775 C   0  0  0  0  0  0  0  0  0  0  0  0
  -21.2479  -12.3788   18.0134 C   0  0  0  0  0  0  0  0  0  0  0  0
  -22.1518  -10.2406   18.6830 C   0  0  0  0  0  0  0  0  0  0  0  0
  -26.8548  -28.1297   18.8388 C   0  0  0  0  0  0  0  0  0  0  0  0
  -18.8900   -9.5296   19.2078 C   0  0  0  0  0  0  0  0  0  0  0  0
  -18.2494   -8.4764   19.8605 C   0  0  0  0  0  0  0  0  0  0  0  0
  -26.7262  -27.9624   21.2419 C   0  0  0  0  0  0  0  0  0  0  0  0
  -18.9099   -6.9752   18.0864 C   0  0  0  0  0  0  0  0  0  0  0  0
  -23.2480  -12.2827   19.3651 C   0  0  0  0  0  0  0  0  0  0  0  0
  -24.3171  -13.3735   21.4084 C   0  0  0  0  0  0  0  0  0  0  0  0
  -26.0440  -37.2246   22.3202 C   0  0  0  0  0  0  0  0  0  0  0  0
  -25.5722  -29.7591   20.1017 C   0  0  0  0  0  0  0  0  0  0  0  0
  -26.4145  -36.1419   21.4998 C   0  0  0  0  0  0  0  0  0  0  0  0
  -25.9047  -29.0989   21.2932 C   0  0  0  0  0  0  0  0  0  0  0  0
  -28.7191  -23.5641   19.4241 C   0  0  0  0  0  0  0  0  0  0  0  0
  -21.1838  -10.9854   18.0093 C   0  0  0  0  0  0  0  0  0  0  0  0
  -27.1997  -27.4818   20.0213 C   0  0  0  0  0  0  0  0  0  0  0  0
  -19.5405   -9.3056   17.9944 C   0  0  0  0  0  0  0  0  0  0  0  0
  -18.2593   -7.1992   19.2999 C   0  0  0  0  0  0  0  0  0  0  0  0
  -19.5504   -8.0285   17.4337 C   0  0  0  0  0  0  0  0  0  0  0  0
  -24.3148  -12.9521   20.0651 C   0  0  0  0  0  0  0  0  0  0  0  0
  -29.5673  -22.4796   19.5171 C   0  0  0  0  0  0  0  0  0  0  0  0
  -29.2617  -24.6994   18.8576 C   0  0  0  0  0  0  0  0  0  0  0  0
  -25.5512  -13.9498   21.5853 C   0  0  0  0  0  0  0  0  0  0  0  0
  -31.2593  -23.6568   18.5588 C   0  0  0  0  0  0  0  0  0  0  0  0
  -23.2951  -13.2547   22.4069 C   0  0  0  0  0  0  0  0  0  0  0  0
  -25.9261  -32.4847   21.6984 C   0  0  0  0  0  0  0  0  0  0  0  0
  -23.7408  -31.1495   23.6893 C   0  0  0  0  0  0  0  0  0  0  0  0
  -22.2752  -28.3153   24.9003 C   0  0  0  0  0  0  0  0  0  0  0  0
  -29.7118  -17.1249   19.9637 C   0  0  0  0  0  0  0  0  0  0  0  0
  -26.0650  -37.1233   23.8248 C   0  0  0  0  0  0  0  0  0  0  0  0
  -24.6736  -30.9651   20.1243 C   0  0  0  0  0  0  0  0  0  0  0  0
  -25.4105  -29.5814   22.6317 C   0  0  0  0  0  0  0  0  0  0  0  0
  -26.0836  -35.6859   24.3384 C   0  0  0  0  0  0  0  0  0  0  0  0
  -29.6567  -13.9310   18.6432 C   0  0  0  0  0  0  0  0  0  0  0  0
  -27.1151  -34.8600   23.5763 C   0  0  0  0  0  0  0  0  0  0  0  0
  -28.2638  -13.4136   19.0015 C   0  0  0  0  0  0  0  0  0  0  0  0
  -28.4196  -20.2642   19.0734 C   0  0  0  0  0  0  0  0  0  0  0  0
  -30.2093  -20.4262   20.8568 C   0  0  0  0  0  0  0  0  0  0  0  0
  -29.6005  -15.3889   18.2018 C   0  0  0  0  0  0  0  0  0  0  0  0
  -27.9622  -18.9365   19.6841 C   0  0  0  0  0  0  0  0  0  0  0  0
  -29.6949  -19.1129   21.4390 C   0  0  0  0  0  0  0  0  0  0  0  0
  -27.5863  -15.7967   19.5783 C   0  0  0  0  0  0  0  0  0  0  0  0
  -26.7734  -34.7923   22.0829 C   0  0  1  0  0  0  0  0  0  0  0  0
  -29.0828  -21.1753   20.1220 C   0  0  0  0  0  0  0  0  0  0  0  0
  -24.6745  -31.6858   21.4689 C   0  0  1  0  0  0  0  0  0  0  0  0
  -27.5855  -14.3250   20.0396 C   0  0  1  0  0  0  0  0  0  0  0  0
  -27.3114  -23.5118   19.9020 C   0  0  0  0  0  0  0  0  0  0  0  0
  -32.6691  -23.7074   18.0757 C   0  0  0  0  0  0  0  0  0  0  0  0
  -20.5472  -27.5403   26.5467 C   0  0  0  0  0  0  0  0  0  0  0  0
  -25.6881  -31.6778   25.9781 C   0  0  0  0  0  0  0  0  0  0  0  0
  -24.3707  -30.0728   27.3769 C   0  0  0  0  0  0  0  0  0  0  0  0
  -23.2922  -32.1512   26.5166 C   0  0  0  0  0  0  0  0  0  0  0  0
  -20.6373  -27.0717   22.7720 C   0  0  0  0  0  0  0  0  0  0  0  0
  -28.4391  -25.9365   18.7053 C   0  0  0  0  0  0  0  0  0  1  0  0
  -23.8073  -30.2665   24.9120 C   0  0  1  0  0  0  0  0  0  0  0  0
  -20.8178  -27.9438   25.1056 C   0  0  2  0  0  0  0  0  0  0  0  0
  -24.3006  -31.0338   26.1710 C   0  0  0  0  0  0  0  0  0  0  0  0
  -25.4568  -13.2366   19.4335 N   0  0  0  0  0  0  0  0  0  0  0  0
  -30.8480  -22.4910   19.0929 N   0  0  0  0  0  0  0  0  0  0  0  0
  -30.5328  -24.7812   18.4127 N   0  0  0  0  0  0  0  0  0  0  0  0
  -26.1882  -13.8430   20.3840 N   0  0  0  0  0  0  0  0  0  0  0  0
  -24.5398  -30.7682   22.6021 N   0  0  0  0  0  0  0  0  0  0  0  0
  -28.9466  -16.2206   19.2120 N   0  0  0  0  0  0  0  0  0  0  0  0
  -29.0665  -18.2895   20.4063 N   0  0  0  0  0  0  0  0  0  0  0  0
  -26.1428  -14.5324   22.6497 N   0  0  0  0  0  0  0  0  0  0  0  0
  -22.0876  -12.6353   22.0566 N   0  0  0  0  0  0  0  0  0  0  0  0
  -25.7081  -33.8407   21.8508 N   0  0  0  0  0  0  0  0  0  0  0  0
  -22.4841  -29.6692   25.0566 N   0  0  0  0  0  0  0  0  0  0  0  0
  -20.4440  -26.8045   24.2205 N   0  3  0  0  0  0  0  0  0  0  0  0
  -23.4419  -13.6996   23.5705 O   0  0  0  0  0  0  0  0  0  0  0  0
  -27.0094  -31.9130   21.7360 O   0  0  0  0  0  0  0  0  0  0  0  0
  -23.0015  -32.1369   23.6959 O   0  0  0  0  0  0  0  0  0  0  0  0
  -23.1424  -27.4867   24.6320 O   0  0  0  0  0  0  0  0  0  0  0  0
  -30.9011  -16.9052   20.2252 O   0  0  0  0  0  0  0  0  0  0  0  0
  -20.1766  -10.3521   17.3480 O   0  0  0  0  0  0  0  0  0  0  0  0
  -27.9999  -26.3696   19.9861 O   0  0  0  0  0  0  0  0  0  1  0  0
  -17.6455   -6.1876   19.9275 F   0  0  0  0  0  0  0  0  0  0  0  0
  -20.1747   -7.8069   16.2688 F   0  0  0  0  0  0  0  0  0  0  0  0
  1  2  1  0  0  0  0
  1  5  2  0  0  0  0
  2  6  2  0  0  0  0
  3  8  2  0  0  0  0
  3 15  1  0  0  0  0
  4  9  1  0  0  0  0
  4 15  2  0  0  0  0
  5 17  1  0  0  0  0
  6 19  1  0  0  0  0
  7 10  2  0  0  0  0
  7 18  1  0  0  0  0
  8 22  1  0  0  0  0
  9 22  2  0  0  0  0
 10 23  1  0  0  0  0
 11 12  2  0  0  0  0
 11 24  1  0  0  0  0
 12 25  1  0  0  0  0
 13 20  1  0  0  0  0
 13 23  2  0  0  0  0
 14 25  2  0  0  0  0
 14 26  1  0  0  0  0
 15 27  1  0  0  0  0
 16 27  1  0  0  0  0
 16 30  2  0  0  0  0
 16 32  1  0  0  0  0
 17 19  2  0  0  0  0
 17 37  1  0  0  0  0
 18 20  2  0  0  0  0
 18 38  1  0  0  0  0
 19 50  1  0  0  0  0
 20 39  1  0  0  0  0
 21 28  1  0  0  0  0
 21 29  2  0  0  0  0
 21 54  1  0  0  0  0
 22 82  1  0  0  0  0
 23 83  1  0  0  0  0
 24 26  2  0  0  0  0
 24 82  1  0  0  0  0
 25 84  1  0  0  0  0
 26 85  1  0  0  0  0
 27 65  2  0  0  0  0
 28 51  1  0  0  0  0
 28 66  2  0  0  0  0
 29 61  1  0  0  0  0
 29 67  1  0  0  0  0
 30 68  1  0  0  0  0
 30 72  1  0  0  0  0
 31 55  1  0  0  0  0
 31 66  1  0  0  0  0
 31 67  2  0  0  0  0
 32 73  1  0  0  0  0
 32 77  2  0  0  0  0
 33 52  1  0  0  0  0
 33 74  1  0  0  0  0
 33 78  2  0  0  0  0
 34 62  1  0  0  0  0
 34 69  1  0  0  0  0
 34 79  2  0  0  0  0
 35 63  1  0  0  0  0
 35 75  1  0  0  0  0
 35 80  2  0  0  0  0
 36 70  1  0  0  0  0
 36 71  1  0  0  0  0
 36 81  2  0  0  0  0
 37 40  1  0  0  0  0
 38 52  1  0  0  0  0
 39 69  1  0  0  0  0
 40 42  1  0  0  0  0
 41 43  1  0  0  0  0
 41 46  1  0  0  0  0
 42 50  1  0  0  0  0
 43 53  1  0  0  0  0
 44 47  1  0  0  0  0
 44 51  1  0  0  0  0
 45 48  1  0  0  0  0
 45 51  1  0  0  0  0
 46 70  1  0  0  0  0
 47 71  1  0  0  0  0
 48 71  1  0  0  0  0
 49 53  1  0  0  0  0
 49 70  1  0  0  0  0
 50 74  1  0  0  0  0
 52 69  1  0  0  0  0
 53 68  1  0  0  0  0
 56 63  1  0  0  0  0
 57 64  1  0  0  0  0
 58 64  1  0  0  0  0
 59 64  1  0  0  0  0
 60 76  1  0  0  0  0
 61 83  1  0  0  0  0
 62 64  1  0  0  0  0
 62 75  1  0  0  0  0
 63 76  1  0  0  0  0
 65 68  1  0  0  0  0
M  CHG  1  76   1
M  ISO  4  36 100  61 101  71 100  83 101
M  END
> <Batch ID>
0180

> <Smiles>
CNC(C)C(=O)NC(C(=O)N1Cc2cc([101O:1][101CH2:1]c3nc(C)nc(C4CC[100N:0]([100C:0](=O)N5CCCC(n6nc(-c7ccc(Oc8ccc(F)cc8F)cc7)c(C(N)=O)c6N)C5)CC4)c3C)ccc2CC1C(=O)NC1CCCc2ccccc21)C(C)(C)C

> <Shape>
0.280

> <Color>
0.102

> <Negative vol penalty>
0.000

$$$$

  -OEChem-04052323003D

 82 91  0     1  0  0  0  0  0999 V2000
  -28.0012  -30.6205   30.3142 C   0  0  0  0  0  0  0  0  0  0  0  0
  -28.3375  -29.2706   30.3097 C   0  0  0  0  0  0  0  0  0  0  0  0
  -23.0056   -9.8779   20.0141 C   0  0  0  0  0  0  0  0  0  0  0  0
  -23.7274   -9.9898   22.3170 C   0  0  0  0  0  0  0  0  0  0  0  0
  -27.7894  -31.2890   29.1091 C   0  0  0  0  0  0  0  0  0  0  0  0
  -28.4612  -28.5880   29.1001 C   0  0  0  0  0  0  0  0  0  0  0  0
  -32.1833  -23.2906   26.0342 C   0  0  0  0  0  0  0  0  0  0  0  0
  -22.2354   -8.7533   20.3101 C   0  0  0  0  0  0  0  0  0  0  0  0
  -22.9572   -8.8652   22.6131 C   0  0  0  0  0  0  0  0  0  0  0  0
  -31.9869  -22.1082   25.3222 C   0  0  0  0  0  0  0  0  0  0  0  0
  -21.4651   -5.8103   23.8982 C   0  0  0  0  0  0  0  0  0  0  0  0
  -22.0471   -4.8139   24.6818 C   0  0  0  0  0  0  0  0  0  0  0  0
  -31.6755  -23.3850   23.2994 C   0  0  0  0  0  0  0  0  0  0  0  0
  -23.7752   -4.5163   23.0198 C   0  0  0  0  0  0  0  0  0  0  0  0
  -23.7516  -10.4961   21.0175 C   0  0  0  0  0  0  0  0  0  0  0  0
  -24.1444  -13.0049   20.7734 C   0  0  0  0  0  0  0  0  0  0  0  0
  -27.9200  -30.6166   27.8837 C   0  0  0  0  0  0  0  0  0  0  0  0
  -32.1164  -24.5318   25.3850 C   0  0  0  0  0  0  0  0  0  0  0  0
  -28.2496  -29.2478   27.8775 C   0  0  0  0  0  0  0  0  0  0  0  0
  -31.8740  -24.5816   24.0049 C   0  0  0  0  0  0  0  0  0  0  0  0
  -22.2112   -8.2469   21.6096 C   0  0  0  0  0  0  0  0  0  0  0  0
  -31.7300  -22.1553   23.9552 C   0  0  0  0  0  0  0  0  0  0  0  0
  -22.0381   -6.1597   22.6753 C   0  0  0  0  0  0  0  0  0  0  0  0
  -23.2022   -4.1669   24.2427 C   0  0  0  0  0  0  0  0  0  0  0  0
  -23.1932   -5.5127   22.2362 C   0  0  0  0  0  0  0  0  0  0  0  0
  -24.5479  -11.6576   20.7122 C   0  0  0  0  0  0  0  0  0  0  0  0
  -29.9294  -19.0996   20.8740 C   0  0  0  0  0  0  0  0  0  0  0  0
  -31.0666  -19.7572   21.2801 C   0  0  0  0  0  0  0  0  0  0  0  0
  -25.2568  -13.7141   20.3912 C   0  0  0  0  0  0  0  0  0  0  0  0
  -31.5293  -17.7413   20.5196 C   0  0  0  0  0  0  0  0  0  0  0  0
  -22.8774  -13.5652   21.1429 C   0  0  0  0  0  0  0  0  0  0  0  0
  -30.2631  -27.1013   25.6433 C   0  0  0  0  0  0  0  0  0  0  0  0
  -32.3487  -28.3418   23.4908 C   0  0  0  0  0  0  0  0  0  0  0  0
  -34.6368  -27.7846   21.0207 C   0  0  0  0  0  0  0  0  0  0  0  0
  -30.6487  -14.6419   20.7904 C   0  0  0  0  0  0  0  0  0  0  0  0
  -27.6351  -31.3697   26.6085 C   0  0  0  0  0  0  0  0  0  0  0  0
  -32.3571  -25.7969   26.1623 C   0  0  0  0  0  0  0  0  0  0  0  0
  -31.8122  -25.8876   23.2572 C   0  0  0  0  0  0  0  0  0  0  0  0
  -28.1528  -30.6659   25.3567 C   0  0  0  0  0  0  0  0  0  0  0  0
  -29.6162  -12.1544   18.3496 C   0  0  0  0  0  0  0  0  0  0  0  0
  -27.7802  -29.1869   25.3832 C   0  0  0  0  0  0  0  0  0  0  0  0
  -28.1598  -11.9187   18.7556 C   0  0  0  0  0  0  0  0  0  0  0  0
  -32.6874  -16.2751   18.6017 C   0  0  0  0  0  0  0  0  0  0  0  0
  -30.4909  -12.3866   19.5761 C   0  0  0  0  0  0  0  0  0  0  0  0
  -32.2467  -14.8164   18.7095 C   0  0  0  0  0  0  0  0  0  0  0  0
  -28.5987  -13.2696   20.8642 C   0  0  0  0  0  0  0  0  0  0  0  0
  -28.4174  -28.4789   26.5849 C   0  0  1  0  0  0  0  0  0  0  0  0
  -32.3440  -16.4485   20.0943 C   0  0  2  0  0  0  0  0  0  0  0  0
  -31.7567  -27.0309   25.4960 C   0  0  1  0  0  0  0  0  0  0  0  0
  -27.6448  -13.0416   19.6760 C   0  0  2  0  0  0  0  0  0  0  0  0
  -28.5381  -19.5779   20.8979 C   0  0  0  0  0  0  0  0  0  0  0  0
  -36.1460  -28.9967   19.4236 C   0  0  0  0  0  0  0  0  0  0  0  0
  -29.9430  -29.0328   21.7458 C   0  0  0  0  0  0  0  0  0  0  0  0
  -31.5156  -29.3457   19.8230 C   0  0  0  0  0  0  0  0  0  0  0  0
  -31.7073  -30.8029   21.8386 C   0  0  0  0  0  0  0  0  0  0  0  0
  -33.4872  -19.0939   21.3067 C   0  0  0  0  0  0  0  0  0  0  0  0
  -37.0585  -26.5468   22.1879 C   0  0  0  0  0  0  0  0  0  0  0  0
  -31.2784  -21.1248   21.8599 C   0  0  0  0  0  0  0  0  0  1  0  0
  -32.4308  -28.3847   21.9840 C   0  0  1  0  0  0  0  0  0  0  0  0
  -36.0292  -28.3446   20.7925 C   0  0  2  0  0  0  0  0  0  0  0  0
  -31.3984  -29.3669   21.3620 C   0  0  0  0  0  0  0  0  0  0  0  0
  -25.8174  -11.5167   20.3217 N   0  0  0  0  0  0  0  0  0  0  0  0
  -30.2242  -17.8451   20.4020 N   0  0  0  0  0  0  0  0  0  0  0  0
  -32.0833  -18.8744   21.0473 N   0  0  0  0  0  0  0  0  0  0  0  0
  -26.2212  -12.7847   20.1339 N   0  0  0  0  0  0  0  0  0  0  0  0
  -32.0479  -27.0973   24.0624 N   0  0  0  0  0  0  0  0  0  0  0  0
  -29.9668  -13.4935   20.3809 N   0  0  0  0  0  0  0  0  0  0  0  0
  -31.6298  -15.1616   19.9772 N   0  0  0  0  0  0  0  0  0  0  0  0
  -25.4942  -15.0359   20.2533 N   0  0  0  0  0  0  0  0  0  0  0  0
  -21.8426  -12.6937   21.5088 N   0  0  0  0  0  0  0  0  0  0  0  0
  -29.8173  -28.2137   26.3313 N   0  0  0  0  0  0  0  0  0  0  0  0
  -33.8194  -28.6930   21.6595 N   0  0  0  0  0  0  0  0  0  0  0  0
  -37.0457  -27.2587   20.8841 N   0  3  0  0  0  0  0  0  0  0  0  0
  -22.6642  -14.8013   21.1325 O   0  0  0  0  0  0  0  0  0  0  0  0
  -29.5664  -26.2129   25.1667 O   0  0  0  0  0  0  0  0  0  0  0  0
  -32.5513  -29.3727   24.1371 O   0  0  0  0  0  0  0  0  0  0  0  0
  -34.3062  -26.6558   20.6644 O   0  0  0  0  0  0  0  0  0  0  0  0
  -30.3575  -15.2145   21.8500 O   0  0  0  0  0  0  0  0  0  0  0  0
  -21.4596   -7.1497   21.8989 O   0  0  0  0  0  0  0  0  0  0  0  0
  -31.5372  -21.0027   23.2579 O   0  0  0  0  0  0  0  0  0  1  0  0
  -23.7618   -3.2112   24.9960 F   0  0  0  0  0  0  0  0  0  0  0  0
  -23.7489   -5.8448   21.0629 F   0  0  0  0  0  0  0  0  0  0  0  0
  1  2  1  0  0  0  0
  1  5  2  0  0  0  0
  2  6  2  0  0  0  0
  3  8  2  0  0  0  0
  3 15  1  0  0  0  0
  4  9  1  0  0  0  0
  4 15  2  0  0  0  0
  5 17  1  0  0  0  0
  6 19  1  0  0  0  0
  7 10  2  0  0  0  0
  7 18  1  0  0  0  0
  8 21  1  0  0  0  0
  9 21  2  0  0  0  0
 10 22  1  0  0  0  0
 11 12  2  0  0  0  0
 11 23  1  0  0  0  0
 12 24  1  0  0  0  0
 13 20  1  0  0  0  0
 13 22  2  0  0  0  0
 14 24  2  0  0  0  0
 14 25  1  0  0  0  0
 15 26  1  0  0  0  0
 16 26  1  0  0  0  0
 16 29  2  0  0  0  0
 16 31  1  0  0  0  0
 17 19  2  0  0  0  0
 17 36  1  0  0  0  0
 18 20  2  0  0  0  0
 18 37  1  0  0  0  0
 19 47  1  0  0  0  0
 20 38  1  0  0  0  0
 21 79  1  0  0  0  0
 22 80  1  0  0  0  0
 23 25  2  0  0  0  0
 23 79  1  0  0  0  0
 24 81  1  0  0  0  0
 25 82  1  0  0  0  0
 26 62  2  0  0  0  0
 27 28  2  0  0  0  0
 27 51  1  0  0  0  0
 27 63  1  0  0  0  0
 28 58  1  0  0  0  0
 28 64  1  0  0  0  0
 29 65  1  0  0  0  0
 29 69  1  0  0  0  0
 30 48  1  0  0  0  0
 30 63  2  0  0  0  0
 30 64  1  0  0  0  0
 31 70  1  0  0  0  0
 31 74  2  0  0  0  0
 32 49  1  0  0  0  0
 32 71  1  0  0  0  0
 32 75  2  0  0  0  0
 33 59  1  0  0  0  0
 33 66  1  0  0  0  0
 33 76  2  0  0  0  0
 34 60  1  0  0  0  0
 34 72  1  0  0  0  0
 34 77  2  0  0  0  0
 35 67  1  0  0  0  0
 35 68  1  0  0  0  0
 35 78  2  0  0  0  0
 36 39  1  0  0  0  0
 37 49  1  0  0  0  0
 38 66  1  0  0  0  0
 39 41  1  0  0  0  0
 40 42  1  0  0  0  0
 40 44  1  0  0  0  0
 41 47  1  0  0  0  0
 42 50  1  0  0  0  0
 43 45  1  0  0  0  0
 43 48  1  0  0  0  0
 44 67  1  0  0  0  0
 45 68  1  0  0  0  0
 46 50  1  0  0  0  0
 46 67  1  0  0  0  0
 47 71  1  0  0  0  0
 48 68  1  0  0  0  0
 49 66  1  0  0  0  0
 50 65  1  0  0  0  0
 52 60  1  0  0  0  0
 53 61  1  0  0  0  0
 54 61  1  0  0  0  0
 55 61  1  0  0  0  0
 56 64  1  0  0  0  0
 57 73  1  0  0  0  0
 58 80  1  0  0  0  0
 59 61  1  0  0  0  0
 59 72  1  0  0  0  0
 60 73  1  0  0  0  0
 62 65  1  0  0  0  0
M  CHG  1  73   1
M  ISO  4  35 100  58 101  68 100  80 101
M  END
> <Batch ID>
0180

> <Smiles>
CNC(C)C(=O)NC(C(=O)N1Cc2cc([101O:1][101CH2:1]c3c(C)nc(C4CC[100N:0]4[100C:0](=O)N4CCCC(n5nc(-c6ccc(Oc7ccc(F)cc7F)cc6)c(C(N)=O)c5N)C4)n3C)ccc2CC1C(=O)NC1CCCc2ccccc21)C(C)(C)C

> <Shape>
0.202

> <Color>
0.192

> <Negative vol penalty>
0.000

$$$$

  -OEChem-04052323003D

 80 88  0     1  0  0  0  0  0999 V2000
  -26.9681  -32.9395   17.6702 C   0  0  0  0  0  0  0  0  0  0  0  0
  -27.5152  -31.7935   18.2382 C   0  0  0  0  0  0  0  0  0  0  0  0
  -23.0361   -9.9008   19.9650 C   0  0  0  0  0  0  0  0  0  0  0  0
  -23.7758   -9.9399   22.2646 C   0  0  0  0  0  0  0  0  0  0  0  0
  -26.1366  -32.8350   16.5558 C   0  0  0  0  0  0  0  0  0  0  0  0
  -27.2303  -30.5421   17.6929 C   0  0  0  0  0  0  0  0  0  0  0  0
  -30.9867  -25.7144   17.3948 C   0  0  0  0  0  0  0  0  0  0  0  0
  -22.2905   -8.7508   20.2243 C   0  0  0  0  0  0  0  0  0  0  0  0
  -23.0302   -8.7899   22.5240 C   0  0  0  0  0  0  0  0  0  0  0  0
  -31.1138  -24.5745   18.1874 C   0  0  0  0  0  0  0  0  0  0  0  0
  -23.3274   -5.4607   22.0153 C   0  0  0  0  0  0  0  0  0  0  0  0
  -23.9370   -4.4457   22.7527 C   0  0  0  0  0  0  0  0  0  0  0  0
  -29.7177  -23.3536   16.6449 C   0  0  0  0  0  0  0  0  0  0  0  0
  -22.2206   -4.6420   24.4417 C   0  0  0  0  0  0  0  0  0  0  0  0
  -29.3397  -18.7091   20.8371 C   0  0  0  0  0  0  0  0  0  0  0  0
  -23.7788  -10.4953   20.9851 C   0  0  0  0  0  0  0  0  0  0  0  0
  -24.1206  -13.0187   20.8331 C   0  0  0  0  0  0  0  0  0  0  0  0
  -25.8492  -31.5826   15.9907 C   0  0  0  0  0  0  0  0  0  0  0  0
  -30.2139  -25.6854   16.2251 C   0  0  0  0  0  0  0  0  0  0  0  0
  -26.3932  -30.4207   16.5708 C   0  0  0  0  0  0  0  0  0  0  0  0
  -29.5844  -24.4938   15.8379 C   0  0  0  0  0  0  0  0  0  0  0  0
  -22.2876   -8.1954   21.5038 C   0  0  0  0  0  0  0  0  0  0  0  0
  -30.4769  -23.3947   17.8141 C   0  0  0  0  0  0  0  0  0  0  0  0
  -22.1644   -6.0664   22.4911 C   0  0  0  0  0  0  0  0  0  0  0  0
  -23.3836   -4.0364   23.9659 C   0  0  0  0  0  0  0  0  0  0  0  0
  -21.6110   -5.6571   23.7043 C   0  0  0  0  0  0  0  0  0  0  0  0
  -24.5496  -11.6829   20.7176 C   0  0  0  0  0  0  0  0  0  0  0  0
  -30.5452  -18.0463   20.9070 C   0  0  0  0  0  0  0  0  0  0  0  0
  -31.3562  -19.3424   19.2062 C   0  0  0  0  0  0  0  0  0  0  0  0
  -30.1503  -20.0045   19.1359 C   0  0  0  0  0  0  0  0  0  0  0  0
  -25.2156  -13.7637   20.4691 C   0  0  0  0  0  0  0  0  0  0  0  0
  -22.8463  -13.5396   21.2337 C   0  0  0  0  0  0  0  0  0  0  0  0
  -27.6082  -27.2032   15.2199 C   0  0  0  0  0  0  0  0  0  0  0  0
  -28.2455  -25.6473   12.4459 C   0  0  0  0  0  0  0  0  0  0  0  0
  -29.7278  -22.9999   10.8835 C   0  0  0  0  0  0  0  0  0  0  0  0
  -30.6971  -14.7882   20.6914 C   0  0  0  0  0  0  0  0  0  0  0  0
  -24.9071  -31.5157   14.8148 C   0  0  0  0  0  0  0  0  0  0  0  0
  -30.1086  -26.9162   15.3669 C   0  0  0  0  0  0  0  0  0  0  0  0
  -28.7599  -24.4048   14.5806 C   0  0  0  0  0  0  0  0  0  0  0  0
  -24.9559  -30.1840   14.0702 C   0  0  0  0  0  0  0  0  0  0  0  0
  -29.5814  -12.3702   18.3280 C   0  0  0  0  0  0  0  0  0  0  0  0
  -24.9147  -29.0199   15.0550 C   0  0  0  0  0  0  0  0  0  0  0  0
  -28.1404  -12.0818   18.7523 C   0  0  0  0  0  0  0  0  0  0  0  0
  -30.4879  -12.6082   19.5337 C   0  0  0  0  0  0  0  0  0  0  0  0
  -28.5738  -13.3573   20.8933 C   0  0  0  0  0  0  0  0  0  0  0  0
  -26.1276  -29.0475   15.9929 C   0  0  1  0  0  0  0  0  0  0  0  0
  -28.8762  -26.9140   14.4676 C   0  0  1  0  0  0  0  0  0  0  0  0
  -27.6101  -13.1659   19.7097 C   0  0  2  0  0  0  0  0  0  0  0  0
  -32.4875  -19.6898   18.3001 C   0  0  0  0  0  0  0  0  0  0  0  0
  -30.0439  -21.9770    8.6139 C   0  0  0  0  0  0  0  0  0  0  0  0
  -25.3827  -24.5948   12.5242 C   0  0  0  0  0  0  0  0  0  0  0  0
  -26.0406  -22.8799   10.8229 C   0  0  0  0  0  0  0  0  0  0  0  0
  -26.1709  -25.3066   10.2600 C   0  0  0  0  0  0  0  0  0  0  0  0
  -32.6689  -23.2940   11.0328 C   0  0  0  0  0  0  0  0  0  0  0  0
  -30.7512  -16.9557   21.8989 C   0  0  0  0  0  0  0  0  0  0  0  0
  -29.9194  -21.1064   18.1440 C   0  0  0  0  0  0  0  0  0  1  0  0
  -27.8605  -24.3120   11.8563 C   0  0  1  0  0  0  0  0  0  0  0  0
  -30.6179  -22.9241    9.6561 C   0  0  2  0  0  0  0  0  0  0  0  0
  -26.3776  -24.2752   11.3906 C   0  0  0  0  0  0  0  0  0  0  0  0
  -29.1205  -19.7001   19.9503 N   0  0  0  0  0  0  0  0  0  0  0  0
  -25.8181  -11.5820   20.3118 N   0  0  0  0  0  0  0  0  0  0  0  0
  -31.5752  -18.3511   20.0928 N   0  0  0  0  0  0  0  0  0  0  0  0
  -26.1956  -12.8638   20.1690 N   0  0  0  0  0  0  0  0  0  0  0  0
  -28.6819  -25.6367   13.7783 N   0  0  0  0  0  0  0  0  0  0  0  0
  -29.9292  -13.6485   20.4005 N   0  0  0  0  0  0  0  0  0  0  0  0
  -25.4261  -15.0941   20.3795 N   0  0  0  0  0  0  0  0  0  0  0  0
  -21.8319  -12.6347   21.5747 N   0  0  0  0  0  0  0  0  0  0  0  0
  -27.3035  -28.5478   15.3132 N   0  0  0  0  0  0  0  0  0  0  0  0
  -28.8263  -24.0397   10.7972 N   0  0  0  0  0  0  0  0  0  0  0  0
  -30.0902  -15.7282   21.5152 N   0  0  0  0  0  0  0  0  0  0  0  0
  -31.9774  -22.4423   10.0311 N   0  3  0  0  0  0  0  0  0  0  0  0
  -22.6091  -14.7708   21.2719 O   0  0  0  0  0  0  0  0  0  0  0  0
  -26.9537  -26.2751   15.6804 O   0  0  0  0  0  0  0  0  0  0  0  0
  -28.1690  -26.6614   11.7477 O   0  0  0  0  0  0  0  0  0  0  0  0
  -29.8203  -22.2130   11.8230 O   0  0  0  0  0  0  0  0  0  0  0  0
  -31.8369  -14.9579   20.2453 O   0  0  0  0  0  0  0  0  0  0  0  0
  -21.5600   -7.0734   21.7574 O   0  0  0  0  0  0  0  0  0  0  0  0
  -30.5988  -22.2808   18.5862 O   0  0  0  0  0  0  0  0  0  1  0  0
  -23.9683   -3.0607   24.6732 F   0  0  0  0  0  0  0  0  0  0  0  0
  -20.4933   -6.2344   24.1659 F   0  0  0  0  0  0  0  0  0  0  0  0
  1  2  1  0  0  0  0
  1  5  2  0  0  0  0
  2  6  2  0  0  0  0
  3  8  2  0  0  0  0
  3 16  1  0  0  0  0
  4  9  1  0  0  0  0
  4 16  2  0  0  0  0
  5 18  1  0  0  0  0
  6 20  1  0  0  0  0
  7 10  2  0  0  0  0
  7 19  1  0  0  0  0
  8 22  1  0  0  0  0
  9 22  2  0  0  0  0
 10 23  1  0  0  0  0
 11 12  2  0  0  0  0
 11 24  1  0  0  0  0
 12 25  1  0  0  0  0
 13 21  1  0  0  0  0
 13 23  2  0  0  0  0
 14 25  2  0  0  0  0
 14 26  1  0  0  0  0
 15 28  1  0  0  0  0
 15 60  2  0  0  0  0
 16 27  1  0  0  0  0
 17 27  1  0  0  0  0
 17 31  2  0  0  0  0
 17 32  1  0  0  0  0
 18 20  2  0  0  0  0
 18 37  1  0  0  0  0
 19 21  2  0  0  0  0
 19 38  1  0  0  0  0
 20 46  1  0  0  0  0
 21 39  1  0  0  0  0
 22 77  1  0  0  0  0
 23 78  1  0  0  0  0
 24 26  2  0  0  0  0
 24 77  1  0  0  0  0
 25 79  1  0  0  0  0
 26 80  1  0  0  0  0
 27 61  2  0  0  0  0
 28 55  1  0  0  0  0
 28 62  2  0  0  0  0
 29 30  2  0  0  0  0
 29 49  1  0  0  0  0
 29 62  1  0  0  0  0
 30 56  1  0  0  0  0
 30 60  1  0  0  0  0
 31 63  1  0  0  0  0
 31 66  1  0  0  0  0
 32 67  1  0  0  0  0
 32 72  2  0  0  0  0
 33 47  1  0  0  0  0
 33 68  1  0  0  0  0
 33 73  2  0  0  0  0
 34 57  1  0  0  0  0
 34 64  1  0  0  0  0
 34 74  2  0  0  0  0
 35 58  1  0  0  0  0
 35 69  1  0  0  0  0
 35 75  2  0  0  0  0
 36 65  1  0  0  0  0
 36 70  1  0  0  0  0
 36 76  2  0  0  0  0
 37 40  1  0  0  0  0
 38 47  1  0  0  0  0
 39 64  1  0  0  0  0
 40 42  1  0  0  0  0
 41 43  1  0  0  0  0
 41 44  1  0  0  0  0
 42 46  1  0  0  0  0
 43 48  1  0  0  0  0
 44 65  1  0  0  0  0
 45 48  1  0  0  0  0
 45 65  1  0  0  0  0
 46 68  1  0  0  0  0
 47 64  1  0  0  0  0
 48 63  1  0  0  0  0
 50 58  1  0  0  0  0
 51 59  1  0  0  0  0
 52 59  1  0  0  0  0
 53 59  1  0  0  0  0
 54 71  1  0  0  0  0
 55 70  1  0  0  0  0
 56 78  1  0  0  0  0
 57 59  1  0  0  0  0
 57 69  1  0  0  0  0
 58 71  1  0  0  0  0
 61 63  1  0  0  0  0
M  CHG  1  71   1
M  ISO  4  36 100  56 101  70 100  78 101
M  END
> <Batch ID>
0180

> <Smiles>
CNC(C)C(=O)NC(C(=O)N1Cc2cc([101O:1][101CH2:1]c3ncc(C[100NH:0][100C:0](=O)N4CCCC(n5nc(-c6ccc(Oc7ccc(F)cc7F)cc6)c(C(N)=O)c5N)C4)nc3C)ccc2CC1C(=O)NC1CCCc2ccccc21)C(C)(C)C

> <Shape>
0.226

> <Color>
0.216

> <Negative vol penalty>
0.000

$$$$

  -OEChem-04052323003D

 81 90  0     1  0  0  0  0  0999 V2000
  -20.4125  -26.0246   20.1400 C   0  0  0  0  0  0  0  0  0  0  0  0
  -20.7536  -24.9088   19.3823 C   0  0  0  0  0  0  0  0  0  0  0  0
  -27.5984  -23.7295   21.6085 C   0  0  0  0  0  0  0  0  0  0  0  0
  -28.9542  -23.2878   19.6581 C   0  0  0  0  0  0  0  0  0  0  0  0
  -20.9104  -26.1653   21.4347 C   0  0  0  0  0  0  0  0  0  0  0  0
  -21.5938  -23.9336   19.9185 C   0  0  0  0  0  0  0  0  0  0  0  0
  -22.7724  -16.8699   19.7430 C   0  0  0  0  0  0  0  0  0  0  0  0
  -27.6537  -25.0966   21.3374 C   0  0  0  0  0  0  0  0  0  0  0  0
  -29.0094  -24.6549   19.3870 C   0  0  0  0  0  0  0  0  0  0  0  0
  -23.8026  -15.9548   19.5306 C   0  0  0  0  0  0  0  0  0  0  0  0
  -26.1501  -27.2833   19.2420 C   0  0  0  0  0  0  0  0  0  0  0  0
  -24.9633  -28.0106   19.3323 C   0  0  0  0  0  0  0  0  0  0  0  0
  -24.5390  -16.2647   21.8067 C   0  0  0  0  0  0  0  0  0  0  0  0
  -25.9469  -29.4030   21.0443 C   0  0  0  0  0  0  0  0  0  0  0  0
  -29.6518  -12.6598   18.9098 C   0  0  0  0  0  0  0  0  0  0  0  0
  -28.4730  -13.2149   20.6810 C   0  0  0  0  0  0  0  0  0  0  0  0
  -28.2487  -22.8251   20.7689 C   0  0  0  0  0  0  0  0  0  0  0  0
  -27.2314  -20.4926   20.5889 C   0  0  0  0  0  0  0  0  0  0  0  0
  -21.7493  -25.1866   21.9906 C   0  0  0  0  0  0  0  0  0  0  0  0
  -22.6242  -17.4985   20.9876 C   0  0  0  0  0  0  0  0  0  0  0  0
  -22.1045  -24.0620   21.2214 C   0  0  0  0  0  0  0  0  0  0  0  0
  -23.5046  -17.1855   22.0331 C   0  0  0  0  0  0  0  0  0  0  0  0
  -29.7600  -13.2093   20.2014 C   0  0  0  0  0  0  0  0  0  0  0  0
  -28.3592  -25.5593   20.2266 C   0  0  0  0  0  0  0  0  0  0  0  0
  -24.6878  -15.6542   20.5617 C   0  0  0  0  0  0  0  0  0  0  0  0
  -27.2353  -27.6158   20.0530 C   0  0  0  0  0  0  0  0  0  0  0  0
  -24.8617  -29.0704   20.2334 C   0  0  0  0  0  0  0  0  0  0  0  0
  -27.1337  -28.6756   20.9541 C   0  0  0  0  0  0  0  0  0  0  0  0
  -28.1924  -21.4128   21.0488 C   0  0  0  0  0  0  0  0  0  0  0  0
  -27.6197  -19.2913   21.1298 C   0  0  0  0  0  0  0  0  0  0  0  0
  -26.0898  -20.7048   19.7478 C   0  0  0  0  0  0  0  0  0  0  0  0
  -22.7326  -20.5069   22.0083 C   0  0  0  0  0  0  0  0  0  0  0  0
  -21.7968  -19.1780   24.8155 C   0  0  0  0  0  0  0  0  0  0  0  0
  -21.6585  -16.4099   26.8068 C   0  0  0  0  0  0  0  0  0  0  0  0
  -31.5875  -15.5678   22.3695 C   0  0  0  0  0  0  0  0  0  0  0  0
  -22.3010  -25.4056   23.3771 C   0  0  0  0  0  0  0  0  0  0  0  0
  -21.4915  -18.4633   21.2087 C   0  0  0  0  0  0  0  0  0  0  0  0
  -23.3762  -17.8177   23.3941 C   0  0  0  0  0  0  0  0  0  0  0  0
  -22.8837  -24.1433   24.0072 C   0  0  0  0  0  0  0  0  0  0  0  0
  -31.0774  -18.2383   24.6684 C   0  0  0  0  0  0  0  0  0  0  0  0
  -23.7839  -23.4169   23.0127 C   0  0  0  0  0  0  0  0  0  0  0  0
  -30.2078  -19.2284   23.8917 C   0  0  0  0  0  0  0  0  0  0  0  0
  -25.6899  -11.6279   20.8906 C   0  0  0  0  0  0  0  0  0  0  0  0
  -25.6454  -11.1555   19.4710 C   0  0  0  0  0  0  0  0  0  0  0  0
  -32.0973  -17.5517   23.7627 C   0  0  0  0  0  0  0  0  0  0  0  0
  -30.6565  -17.8908   21.7922 C   0  0  0  0  0  0  0  0  0  0  0  0
  -22.9933  -22.9705   21.7770 C   0  0  1  0  0  0  0  0  0  0  0  0
  -21.7462  -19.4298   22.3612 C   0  0  1  0  0  0  0  0  0  0  0  0
  -29.5753  -18.5671   22.6524 C   0  0  2  0  0  0  0  0  0  0  0  0
  -26.2445  -12.5137   19.7894 C   0  0  0  0  0  0  0  0  0  0  0  0
  -20.8659  -15.6421   29.0606 C   0  0  0  0  0  0  0  0  0  0  0  0
  -24.1754  -20.5709   26.1238 C   0  0  0  0  0  0  0  0  0  0  0  0
  -23.8970  -19.0470   28.0907 C   0  0  0  0  0  0  0  0  0  0  0  0
  -22.0670  -20.6237   27.4679 C   0  0  0  0  0  0  0  0  0  0  0  0
  -19.8085  -14.4330   25.6116 C   0  0  0  0  0  0  0  0  0  0  0  0
  -30.9765  -13.6746   20.8857 C   0  0  0  0  0  0  0  0  0  0  0  0
  -25.4571  -13.7206   19.4105 C   0  0  0  0  0  0  0  0  0  1  0  0
  -22.5089  -18.6019   26.0156 C   0  0  1  0  0  0  0  0  0  0  0  0
  -20.5156  -15.7869   27.5879 C   0  0  2  0  0  0  0  0  0  0  0  0
  -23.1659  -19.7003   26.8984 C   0  0  0  0  0  0  0  0  0  0  0  0
  -28.3954  -12.3395   18.5893 N   0  0  0  0  0  0  0  0  0  0  0  0
  -29.1213  -20.8448   21.8225 N   0  0  0  0  0  0  0  0  0  0  0  0
  -27.7022  -12.6886   19.6864 N   0  0  0  0  0  0  0  0  0  0  0  0
  -28.7457  -19.5548   21.8530 N   0  0  0  0  0  0  0  0  0  0  0  0
  -22.2565  -18.7593   23.5589 N   0  0  0  0  0  0  0  0  0  0  0  0
  -31.4328  -16.9435   22.6075 N   0  0  0  0  0  0  0  0  0  0  0  0
  -27.1044  -18.0460   21.0527 N   0  0  0  0  0  0  0  0  0  0  0  0
  -25.8368  -22.0012   19.2793 N   0  0  0  0  0  0  0  0  0  0  0  0
  -22.2158  -21.7867   22.0748 N   0  0  0  0  0  0  0  0  0  0  0  0
  -21.5284  -17.7796   26.7161 N   0  0  0  0  0  0  0  0  0  0  0  0
  -30.9191  -15.0708   21.2574 N   0  0  0  0  0  0  0  0  0  0  0  0
  -20.1936  -14.4363   27.0464 N   0  3  0  0  0  0  0  0  0  0  0  0
  -25.3076  -19.7754   19.4348 O   0  0  0  0  0  0  0  0  0  0  0  0
  -23.8781  -20.1997   21.7000 O   0  0  0  0  0  0  0  0  0  0  0  0
  -20.8623  -19.9647   24.9869 O   0  0  0  0  0  0  0  0  0  0  0  0
  -22.5770  -15.7480   26.3284 O   0  0  0  0  0  0  0  0  0  0  0  0
  -32.2665  -14.8357   23.0975 O   0  0  0  0  0  0  0  0  0  0  0  0
  -28.4131  -26.8933   19.9616 O   0  0  0  0  0  0  0  0  0  0  0  0
  -25.6946  -14.7619   20.3569 O   0  0  0  0  0  0  0  0  0  1  0  0
  -23.7225  -29.7697   20.3189 F   0  0  0  0  0  0  0  0  0  0  0  0
  -28.1732  -29.0005   21.7349 F   0  0  0  0  0  0  0  0  0  0  0  0
  1  2  1  0  0  0  0
  1  5  2  0  0  0  0
  2  6  2  0  0  0  0
  3  8  2  0  0  0  0
  3 17  1  0  0  0  0
  4  9  1  0  0  0  0
  4 17  2  0  0  0  0
  5 19  1  0  0  0  0
  6 21  1  0  0  0  0
  7 10  2  0  0  0  0
  7 20  1  0  0  0  0
  8 24  1  0  0  0  0
  9 24  2  0  0  0  0
 10 25  1  0  0  0  0
 11 12  2  0  0  0  0
 11 26  1  0  0  0  0
 12 27  1  0  0  0  0
 13 22  1  0  0  0  0
 13 25  2  0  0  0  0
 14 27  2  0  0  0  0
 14 28  1  0  0  0  0
 15 23  1  0  0  0  0
 15 61  2  0  0  0  0
 16 23  2  0  0  0  0
 16 63  1  0  0  0  0
 17 29  1  0  0  0  0
 18 29  1  0  0  0  0
 18 30  2  0  0  0  0
 18 31  1  0  0  0  0
 19 21  2  0  0  0  0
 19 36  1  0  0  0  0
 20 22  2  0  0  0  0
 20 37  1  0  0  0  0
 21 47  1  0  0  0  0
 22 38  1  0  0  0  0
 23 56  1  0  0  0  0
 24 78  1  0  0  0  0
 25 79  1  0  0  0  0
 26 28  2  0  0  0  0
 26 78  1  0  0  0  0
 27 80  1  0  0  0  0
 28 81  1  0  0  0  0
 29 62  2  0  0  0  0
 30 64  1  0  0  0  0
 30 67  1  0  0  0  0
 31 68  1  0  0  0  0
 31 73  2  0  0  0  0
 32 48  1  0  0  0  0
 32 69  1  0  0  0  0
 32 74  2  0  0  0  0
 33 58  1  0  0  0  0
 33 65  1  0  0  0  0
 33 75  2  0  0  0  0
 34 59  1  0  0  0  0
 34 70  1  0  0  0  0
 34 76  2  0  0  0  0
 35 66  1  0  0  0  0
 35 71  1  0  0  0  0
 35 77  2  0  0  0  0
 36 39  1  0  0  0  0
 37 48  1  0  0  0  0
 38 65  1  0  0  0  0
 39 41  1  0  0  0  0
 40 42  1  0  0  0  0
 40 45  1  0  0  0  0
 41 47  1  0  0  0  0
 42 49  1  0  0  0  0
 43 44  1  0  0  0  0
 43 50  1  0  0  0  0
 44 50  1  0  0  0  0
 45 66  1  0  0  0  0
 46 49  1  0  0  0  0
 46 66  1  0  0  0  0
 47 69  1  0  0  0  0
 48 65  1  0  0  0  0
 49 64  1  0  0  0  0
 50 57  1  0  0  0  0
 50 63  1  0  0  0  0
 51 59  1  0  0  0  0
 52 60  1  0  0  0  0
 53 60  1  0  0  0  0
 54 60  1  0  0  0  0
 55 72  1  0  0  0  0
 56 71  1  0  0  0  0
 57 79  1  0  0  0  0
 58 60  1  0  0  0  0
 58 70  1  0  0  0  0
 59 72  1  0  0  0  0
 61 63  1  0  0  0  0
 62 64  1  0  0  0  0
M  CHG  1  72   1
M  ISO  4  35 100  57 101  71 100  79 101
M  END
> <Batch ID>
0180

> <Smiles>
CNC(C)C(=O)NC(C(=O)N1Cc2cc([101O:1][101CH2:1]C3(n4cc(C[100NH:0][100C:0](=O)N5CCCC(n6nc(-c7ccc(Oc8ccc(F)cc8F)cc7)c(C(N)=O)c6N)C5)cn4)CC3)ccc2CC1C(=O)NC1CCCc2ccccc21)C(C)(C)C

> <Shape>
0.197

> <Color>
0.072

> <Negative vol penalty>
0.000

$$$$

  -OEChem-04052323003D

 81 90  0     1  0  0  0  0  0999 V2000
  -31.4451  -35.2597   22.2385 C   0  0  0  0  0  0  0  0  0  0  0  0
  -31.2611  -33.9794   21.7262 C   0  0  0  0  0  0  0  0  0  0  0  0
  -24.2194   -9.5807   19.0066 C   0  0  0  0  0  0  0  0  0  0  0  0
  -25.1314   -8.9612   21.1564 C   0  0  0  0  0  0  0  0  0  0  0  0
  -30.6577  -35.7045   23.2997 C   0  0  0  0  0  0  0  0  0  0  0  0
  -30.2902  -33.1427   22.2755 C   0  0  0  0  0  0  0  0  0  0  0  0
  -26.8623  -29.0315   19.3002 C   0  0  0  0  0  0  0  0  0  0  0  0
  -23.9711   -8.2374   18.7249 C   0  0  0  0  0  0  0  0  0  0  0  0
  -24.8830   -7.6178   20.8747 C   0  0  0  0  0  0  0  0  0  0  0  0
  -26.9775  -27.6508   19.1446 C   0  0  0  0  0  0  0  0  0  0  0  0
  -24.1581   -4.0551   20.8709 C   0  0  0  0  0  0  0  0  0  0  0  0
  -23.5798   -3.2775   21.8741 C   0  0  0  0  0  0  0  0  0  0  0  0
  -25.4514  -27.3224   20.9838 C   0  0  0  0  0  0  0  0  0  0  0  0
  -21.6556   -4.7384   21.8973 C   0  0  0  0  0  0  0  0  0  0  0  0
  -26.5993  -21.3686   18.6487 C   0  0  0  0  0  0  0  0  0  0  0  0
  -24.7997   -9.9426   20.2224 C   0  0  0  0  0  0  0  0  0  0  0  0
  -24.1892  -12.2413   21.1448 C   0  0  0  0  0  0  0  0  0  0  0  0
  -29.6701  -34.8763   23.8559 C   0  0  0  0  0  0  0  0  0  0  0  0
  -26.0480  -29.5688   20.3074 C   0  0  0  0  0  0  0  0  0  0  0  0
  -29.4897  -33.5764   23.3460 C   0  0  0  0  0  0  0  0  0  0  0  0
  -25.3256  -28.7103   21.1483 C   0  0  0  0  0  0  0  0  0  0  0  0
  -26.0914  -22.6426   18.5750 C   0  0  0  0  0  0  0  0  0  0  0  0
  -24.3028   -7.2559   19.6589 C   0  0  0  0  0  0  0  0  0  0  0  0
  -26.2742  -26.7960   19.9883 C   0  0  0  0  0  0  0  0  0  0  0  0
  -23.4852   -5.1745   20.3809 C   0  0  0  0  0  0  0  0  0  0  0  0
  -22.3285   -3.6191   22.3873 C   0  0  0  0  0  0  0  0  0  0  0  0
  -22.2340   -5.5161   20.8941 C   0  0  0  0  0  0  0  0  0  0  0  0
  -25.0570  -11.3300   20.5138 C   0  0  0  0  0  0  0  0  0  0  0  0
  -27.2064  -23.4781   18.7760 C   0  0  0  0  0  0  0  0  0  0  0  0
  -24.8967  -13.4179   21.1847 C   0  0  0  0  0  0  0  0  0  0  0  0
  -22.8621  -12.0420   21.6498 C   0  0  0  0  0  0  0  0  0  0  0  0
  -26.5485  -31.3928   22.8620 C   0  0  0  0  0  0  0  0  0  0  0  0
  -23.3100  -31.3515   23.0430 C   0  0  0  0  0  0  0  0  0  0  0  0
  -20.3854  -29.7687   22.2761 C   0  0  0  0  0  0  0  0  0  0  0  0
  -27.9762  -17.1496   18.5497 C   0  0  0  0  0  0  0  0  0  0  0  0
  -28.8755  -35.3840   25.0330 C   0  0  0  0  0  0  0  0  0  0  0  0
  -25.9136  -31.0606   20.4449 C   0  0  0  0  0  0  0  0  0  0  0  0
  -24.4221  -29.2369   22.2321 C   0  0  0  0  0  0  0  0  0  0  0  0
  -27.6142  -34.5708   25.3127 C   0  0  0  0  0  0  0  0  0  0  0  0
  -29.7510  -14.3898   20.2367 C   0  0  0  0  0  0  0  0  0  0  0  0
  -27.9238  -33.0775   25.2812 C   0  0  0  0  0  0  0  0  0  0  0  0
  -28.6108  -13.4006   20.4596 C   0  0  0  0  0  0  0  0  0  0  0  0
  -30.0975  -20.2957   18.1778 C   0  0  0  0  0  0  0  0  0  0  0  0
  -29.5773  -15.1830   18.9422 C   0  0  0  0  0  0  0  0  0  0  0  0
  -27.1194  -14.8861   19.0653 C   0  0  0  0  0  0  0  0  0  0  0  0
  -28.4300  -32.6482   23.8988 C   0  0  1  0  0  0  0  0  0  0  0  0
  -25.4569  -31.4938   21.8345 C   0  0  1  0  0  0  0  0  0  0  0  0
  -27.2520  -14.1138   20.3868 C   0  0  1  0  0  0  0  0  0  0  0  0
  -28.8521  -20.3969   19.0246 C   0  0  2  0  0  0  0  0  0  0  0  0
  -28.9665  -19.3377   17.9466 C   0  0  2  0  0  0  0  0  0  0  0  0
  -24.6918  -23.0334   18.3382 C   0  0  0  0  0  0  0  0  0  0  0  0
  -17.9029  -29.9553   22.5921 C   0  0  0  0  0  0  0  0  0  0  0  0
  -23.6082  -30.4012   25.9271 C   0  0  0  0  0  0  0  0  0  0  0  0
  -21.2034  -29.7069   25.8735 C   0  0  0  0  0  0  0  0  0  0  0  0
  -21.8139  -32.1065   25.5708 C   0  0  0  0  0  0  0  0  0  0  0  0
  -19.9105  -29.9438   19.3602 C   0  0  0  0  0  0  0  0  0  0  0  0
  -27.2401  -24.9780   18.7975 C   0  0  0  0  0  0  0  0  0  1  0  0
  -22.2878  -30.4627   23.7093 C   0  0  1  0  0  0  0  0  0  0  0  0
  -19.0832  -30.2859   21.6920 C   0  0  2  0  0  0  0  0  0  0  0  0
  -22.2468  -30.6590   25.2511 C   0  0  0  0  0  0  0  0  0  0  0  0
  -26.2265  -11.8804   20.1769 N   0  0  0  0  0  0  0  0  0  0  0  0
  -28.3373  -22.7926   18.9634 N   0  0  0  0  0  0  0  0  0  0  0  0
  -27.9356  -21.5128   18.8806 N   0  0  0  0  0  0  0  0  0  0  0  0
  -26.0983  -13.1503   20.5977 N   0  0  0  0  0  0  0  0  0  0  0  0
  -24.3289  -30.7029   22.3308 N   0  0  0  0  0  0  0  0  0  0  0  0
  -28.2462  -15.8052   18.8633 N   0  0  0  0  0  0  0  0  0  0  0  0
  -24.6018  -14.6449   21.6642 N   0  0  0  0  0  0  0  0  0  0  0  0
  -22.2846  -10.7709   21.5276 N   0  0  0  0  0  0  0  0  0  0  0  0
  -27.3259  -32.5300   22.9706 N   0  0  0  0  0  0  0  0  0  0  0  0
  -21.0189  -30.7265   23.0393 N   0  0  0  0  0  0  0  0  0  0  0  0
  -29.0858  -17.9452   18.2876 N   0  0  0  0  0  0  0  0  0  0  0  0
  -18.8383  -29.6781   20.3535 N   0  3  0  0  0  0  0  0  0  0  0  0
  -22.2017  -12.9682   22.1785 O   0  0  0  0  0  0  0  0  0  0  0  0
  -26.6752  -30.3601   23.5095 O   0  0  0  0  0  0  0  0  0  0  0  0
  -23.2043  -32.5763   23.1445 O   0  0  0  0  0  0  0  0  0  0  0  0
  -20.7974  -28.6278   22.0785 O   0  0  0  0  0  0  0  0  0  0  0  0
  -26.8297  -17.6087   18.5006 O   0  0  0  0  0  0  0  0  0  0  0  0
  -24.0603   -5.9450   19.3844 O   0  0  0  0  0  0  0  0  0  0  0  0
  -26.3854  -25.4479   19.8391 O   0  0  0  0  0  0  0  0  0  1  0  0
  -21.7726   -2.8714   23.3496 F   0  0  0  0  0  0  0  0  0  0  0  0
  -21.5822   -6.5896   20.4265 F   0  0  0  0  0  0  0  0  0  0  0  0
  1  2  1  0  0  0  0
  1  5  2  0  0  0  0
  2  6  2  0  0  0  0
  3  8  2  0  0  0  0
  3 16  1  0  0  0  0
  4  9  1  0  0  0  0
  4 16  2  0  0  0  0
  5 18  1  0  0  0  0
  6 20  1  0  0  0  0
  7 10  2  0  0  0  0
  7 19  1  0  0  0  0
  8 23  1  0  0  0  0
  9 23  2  0  0  0  0
 10 24  1  0  0  0  0
 11 12  2  0  0  0  0
 11 25  1  0  0  0  0
 12 26  1  0  0  0  0
 13 21  1  0  0  0  0
 13 24  2  0  0  0  0
 14 26  2  0  0  0  0
 14 27  1  0  0  0  0
 15 22  2  0  0  0  0
 15 63  1  0  0  0  0
 16 28  1  0  0  0  0
 17 28  1  0  0  0  0
 17 30  2  0  0  0  0
 17 31  1  0  0  0  0
 18 20  2  0  0  0  0
 18 36  1  0  0  0  0
 19 21  2  0  0  0  0
 19 37  1  0  0  0  0
 20 46  1  0  0  0  0
 21 38  1  0  0  0  0
 22 29  1  0  0  0  0
 22 51  1  0  0  0  0
 23 78  1  0  0  0  0
 24 79  1  0  0  0  0
 25 27  2  0  0  0  0
 25 78  1  0  0  0  0
 26 80  1  0  0  0  0
 27 81  1  0  0  0  0
 28 61  2  0  0  0  0
 29 57  1  0  0  0  0
 29 62  2  0  0  0  0
 30 64  1  0  0  0  0
 30 67  1  0  0  0  0
 31 68  1  0  0  0  0
 31 73  2  0  0  0  0
 32 47  1  0  0  0  0
 32 69  1  0  0  0  0
 32 74  2  0  0  0  0
 33 58  1  0  0  0  0
 33 65  1  0  0  0  0
 33 75  2  0  0  0  0
 34 59  1  0  0  0  0
 34 70  1  0  0  0  0
 34 76  2  0  0  0  0
 35 66  1  0  0  0  0
 35 71  1  0  0  0  0
 35 77  2  0  0  0  0
 36 39  1  0  0  0  0
 37 47  1  0  0  0  0
 38 65  1  0  0  0  0
 39 41  1  0  0  0  0
 40 42  1  0  0  0  0
 40 44  1  0  0  0  0
 41 46  1  0  0  0  0
 42 48  1  0  0  0  0
 43 49  1  0  0  0  0
 43 50  1  0  0  0  0
 44 66  1  0  0  0  0
 45 48  1  0  0  0  0
 45 66  1  0  0  0  0
 46 69  1  0  0  0  0
 47 65  1  0  0  0  0
 48 64  1  0  0  0  0
 49 50  1  0  0  0  0
 49 63  1  0  0  0  0
 50 71  1  0  0  0  0
 52 59  1  0  0  0  0
 53 60  1  0  0  0  0
 54 60  1  0  0  0  0
 55 60  1  0  0  0  0
 56 72  1  0  0  0  0
 57 79  1  0  0  0  0
 58 60  1  0  0  0  0
 58 70  1  0  0  0  0
 59 72  1  0  0  0  0
 61 64  1  0  0  0  0
 62 63  1  0  0  0  0
M  CHG  1  72   1
M  ISO  4  35 100  57 101  71 100  79 101
M  END
> <Batch ID>
0180

> <Smiles>
CNC(C)C(=O)NC(C(=O)N1Cc2cc([101O:1][101CH2:1]c3nn(C4CC4[100NH:0][100C:0](=O)N4CCCC(n5nc(-c6ccc(Oc7ccc(F)cc7F)cc6)c(C(N)=O)c5N)C4)cc3C)ccc2CC1C(=O)NC1CCCc2ccccc21)C(C)(C)C

> <Shape>
0.247

> <Color>
0.095

> <Negative vol penalty>
0.000

$$$$

  -OEChem-04052323003D

 83 91  0     1  0  0  0  0  0999 V2000
  -17.3658  -26.4561   22.1452 C   0  0  0  0  0  0  0  0  0  0  0  0
  -18.5007  -26.2963   21.3566 C   0  0  0  0  0  0  0  0  0  0  0  0
  -28.8902  -14.9465   22.4460 C   0  0  0  0  0  0  0  0  0  0  0  0
  -29.7675  -15.5048   20.2652 C   0  0  0  0  0  0  0  0  0  0  0  0
  -17.0411  -27.7142   22.6508 C   0  0  0  0  0  0  0  0  0  0  0  0
  -19.3110  -27.3949   21.0722 C   0  0  0  0  0  0  0  0  0  0  0  0
  -25.4011  -27.4087   20.4266 C   0  0  0  0  0  0  0  0  0  0  0  0
  -28.4069  -13.7389   21.9424 C   0  0  0  0  0  0  0  0  0  0  0  0
  -29.2842  -14.2971   19.7616 C   0  0  0  0  0  0  0  0  0  0  0  0
  -26.2252  -27.3818   19.3024 C   0  0  0  0  0  0  0  0  0  0  0  0
  -25.7677  -12.6807   20.1150 C   0  0  0  0  0  0  0  0  0  0  0  0
  -24.4702  -12.3066   20.4644 C   0  0  0  0  0  0  0  0  0  0  0  0
  -26.4110  -29.7854   19.3885 C   0  0  0  0  0  0  0  0  0  0  0  0
  -25.3271  -10.2964   21.4947 C   0  0  0  0  0  0  0  0  0  0  0  0
  -29.5705  -15.8295   21.6074 C   0  0  0  0  0  0  0  0  0  0  0  0
  -31.3345  -17.3160   22.6966 C   0  0  0  0  0  0  0  0  0  0  0  0
  -17.8531  -28.8269   22.3804 C   0  0  0  0  0  0  0  0  0  0  0  0
  -25.0663  -28.6271   21.0347 C   0  0  0  0  0  0  0  0  0  0  0  0
  -18.9961  -28.6694   21.5735 C   0  0  0  0  0  0  0  0  0  0  0  0
  -25.5846  -29.8249   20.5219 C   0  0  0  0  0  0  0  0  0  0  0  0
  -28.6039  -13.4142   20.6003 C   0  0  0  0  0  0  0  0  0  0  0  0
  -26.7280  -28.5705   18.7814 C   0  0  0  0  0  0  0  0  0  0  0  0
  -26.8450  -11.8626   20.4554 C   0  0  0  0  0  0  0  0  0  0  0  0
  -24.2498  -11.1145   21.1542 C   0  0  0  0  0  0  0  0  0  0  0  0
  -26.6247  -10.6704   21.1453 C   0  0  0  0  0  0  0  0  0  0  0  0
  -30.0695  -17.0774   22.1268 C   0  0  0  0  0  0  0  0  0  0  0  0
  -31.3155  -18.6484   23.0292 C   0  0  0  0  0  0  0  0  0  0  0  0
  -29.8749  -23.4175   17.5593 C   0  0  0  0  0  0  0  0  0  0  0  0
  -32.4289  -16.4137   22.9064 C   0  0  0  0  0  0  0  0  0  0  0  0
  -22.3565  -30.2058   21.5527 C   0  0  0  0  0  0  0  0  0  0  0  0
  -29.9430  -26.6263   17.1414 C   0  0  0  0  0  0  0  0  0  0  0  0
  -24.2921  -32.1963   23.2301 C   0  0  0  0  0  0  0  0  0  0  0  0
  -27.4342  -33.4210   23.7537 C   0  0  0  0  0  0  0  0  0  0  0  0
  -28.2257  -23.3301   20.9350 C   0  0  0  0  0  0  0  0  0  0  0  0
  -17.4356  -30.1760   22.9098 C   0  0  0  0  0  0  0  0  0  0  0  0
  -24.1978  -28.6370   22.2628 C   0  0  0  0  0  0  0  0  0  0  0  0
  -25.2717  -31.1576   21.1500 C   0  0  0  0  0  0  0  0  0  0  0  0
  -18.5515  -31.2171   22.8722 C   0  0  0  0  0  0  0  0  0  0  0  0
  -28.3100  -22.1499   24.2930 C   0  0  0  0  0  0  0  0  0  0  0  0
  -19.2574  -31.1942   21.5202 C   0  0  0  0  0  0  0  0  0  0  0  0
  -28.8846  -20.7376   24.1701 C   0  0  0  0  0  0  0  0  0  0  0  0
  -30.0188  -25.1767   19.1796 C   0  0  0  0  0  0  0  0  0  0  0  0
  -27.4003  -22.4935   23.1156 C   0  0  0  0  0  0  0  0  0  0  0  0
  -28.5851  -20.8935   21.6631 C   0  0  0  0  0  0  0  0  0  0  0  0
  -19.9136  -29.8322   21.2634 C   0  0  1  0  0  0  0  0  0  0  0  0
  -29.1233  -24.0227   18.7273 C   0  0  2  0  0  0  0  0  0  0  0  0
  -23.5050  -29.9764   22.4939 C   0  0  1  0  0  0  0  0  0  0  0  0
  -30.7285  -25.6044   17.9039 C   0  0  1  0  0  0  0  0  0  0  0  0
  -29.5534  -20.5217   22.7991 C   0  0  2  0  0  0  0  0  0  0  0  0
  -28.6973  -35.0651   25.1675 C   0  0  0  0  0  0  0  0  0  0  0  0
  -23.1742  -34.4900   21.5571 C   0  0  0  0  0  0  0  0  0  0  0  0
  -25.1006  -35.8944   22.3218 C   0  0  0  0  0  0  0  0  0  0  0  0
  -23.4632  -35.0143   23.9852 C   0  0  0  0  0  0  0  0  0  0  0  0
  -31.6717  -24.2416   15.9904 C   0  0  0  0  0  0  0  0  0  0  0  0
  -29.1355  -31.2943   24.9121 C   0  0  0  0  0  0  0  0  0  0  0  0
  -29.6927  -29.0720   16.7691 C   0  0  0  0  0  0  0  0  0  0  0  0
  -28.5093  -29.5810   17.5725 C   0  0  0  0  0  0  0  0  0  1  0  0
  -25.1044  -33.4256   22.9014 C   0  0  1  0  0  0  0  0  0  0  0  0
  -28.2377  -33.6224   25.0258 C   0  0  2  0  0  0  0  0  0  0  0  0
  -24.2151  -34.6813   22.6782 C   0  0  0  0  0  0  0  0  0  0  0  0
  -29.3026  -18.1707   22.0977 N   0  0  0  0  0  0  0  0  0  0  0  0
  -30.0880  -19.1090   22.6534 N   0  0  0  0  0  0  0  0  0  0  0  0
  -30.7703  -24.3921   17.1152 N   0  0  0  0  0  0  0  0  0  0  0  0
  -24.4130  -31.1155   22.3452 N   0  0  0  0  0  0  0  0  0  0  0  0
  -28.0948  -22.2687   21.8456 N   0  0  0  0  0  0  0  0  0  0  0  0
  -32.2293  -19.4593   23.6036 N   0  0  0  0  0  0  0  0  0  0  0  0
  -32.2805  -15.0789   22.5058 N   0  0  0  0  0  0  0  0  0  0  0  0
  -21.1478  -29.7169   22.0104 N   0  0  0  0  0  0  0  0  0  0  0  0
  -30.3156  -27.9362   17.3956 N   0  0  0  0  0  0  0  0  0  0  0  0
  -26.0813  -33.5685   23.9755 N   0  0  0  0  0  0  0  0  0  0  0  0
  -28.9031  -23.0334   19.7586 N   0  0  0  0  0  0  0  0  0  0  0  0
  -29.4415  -32.7439   25.0226 N   0  3  0  0  0  0  0  0  0  0  0  0
  -29.6835  -22.3042   17.0929 O   0  0  0  0  0  0  0  0  0  0  0  0
  -33.5004  -16.7766   23.4484 O   0  0  0  0  0  0  0  0  0  0  0  0
  -22.5521  -30.7848   20.4906 O   0  0  0  0  0  0  0  0  0  0  0  0
  -29.0606  -26.2606   16.3737 O   0  0  0  0  0  0  0  0  0  0  0  0
  -23.5821  -32.1925   24.2388 O   0  0  0  0  0  0  0  0  0  0  0  0
  -27.9549  -33.1626   22.6708 O   0  0  0  0  0  0  0  0  0  0  0  0
  -27.7770  -24.4600   21.1563 O   0  0  0  0  0  0  0  0  0  0  0  0
  -28.1326  -12.2357   20.1086 O   0  0  0  0  0  0  0  0  0  0  0  0
  -27.5321  -28.5471   17.6838 O   0  0  0  0  0  0  0  0  0  1  0  0
  -23.0039  -10.7562   21.4910 F   0  0  0  0  0  0  0  0  0  0  0  0
  -27.6557   -9.8809   21.4761 F   0  0  0  0  0  0  0  0  0  0  0  0
  1  2  1  0  0  0  0
  1  5  2  0  0  0  0
  2  6  2  0  0  0  0
  3  8  2  0  0  0  0
  3 15  1  0  0  0  0
  4  9  1  0  0  0  0
  4 15  2  0  0  0  0
  5 17  1  0  0  0  0
  6 19  1  0  0  0  0
  7 10  2  0  0  0  0
  7 18  1  0  0  0  0
  8 21  1  0  0  0  0
  9 21  2  0  0  0  0
 10 22  1  0  0  0  0
 11 12  2  0  0  0  0
 11 23  1  0  0  0  0
 12 24  1  0  0  0  0
 13 20  1  0  0  0  0
 13 22  2  0  0  0  0
 14 24  2  0  0  0  0
 14 25  1  0  0  0  0
 15 26  1  0  0  0  0
 16 26  1  0  0  0  0
 16 27  2  0  0  0  0
 16 29  1  0  0  0  0
 17 19  2  0  0  0  0
 17 35  1  0  0  0  0
 18 20  2  0  0  0  0
 18 36  1  0  0  0  0
 19 45  1  0  0  0  0
 20 37  1  0  0  0  0
 21 80  1  0  0  0  0
 22 81  1  0  0  0  0
 23 25  2  0  0  0  0
 23 80  1  0  0  0  0
 24 82  1  0  0  0  0
 25 83  1  0  0  0  0
 26 61  2  0  0  0  0
 27 62  1  0  0  0  0
 27 66  1  0  0  0  0
 28 46  1  0  0  0  0
 28 63  1  0  0  0  0
 28 73  2  0  0  0  0
 29 67  1  0  0  0  0
 29 74  2  0  0  0  0
 30 47  1  0  0  0  0
 30 68  1  0  0  0  0
 30 75  2  0  0  0  0
 31 48  1  0  0  0  0
 31 69  1  0  0  0  0
 31 76  2  0  0  0  0
 32 58  1  0  0  0  0
 32 64  1  0  0  0  0
 32 77  2  0  0  0  0
 33 59  1  0  0  0  0
 33 70  1  0  0  0  0
 33 78  2  0  0  0  0
 34 65  1  0  0  0  0
 34 71  1  0  0  0  0
 34 79  2  0  0  0  0
 35 38  1  0  0  0  0
 36 47  1  0  0  0  0
 37 64  1  0  0  0  0
 38 40  1  0  0  0  0
 39 41  1  0  0  0  0
 39 43  1  0  0  0  0
 40 45  1  0  0  0  0
 41 49  1  0  0  0  0
 42 46  1  0  0  0  0
 42 48  1  0  0  0  0
 43 65  1  0  0  0  0
 44 49  1  0  0  0  0
 44 65  1  0  0  0  0
 45 68  1  0  0  0  0
 46 71  1  0  0  0  0
 47 64  1  0  0  0  0
 48 63  1  0  0  0  0
 49 62  1  0  0  0  0
 50 59  1  0  0  0  0
 51 60  1  0  0  0  0
 52 60  1  0  0  0  0
 53 60  1  0  0  0  0
 54 63  1  0  0  0  0
 55 72  1  0  0  0  0
 56 57  1  0  0  0  0
 56 69  1  0  0  0  0
 57 81  1  0  0  0  0
 58 60  1  0  0  0  0
 58 70  1  0  0  0  0
 59 72  1  0  0  0  0
 61 62  1  0  0  0  0
M  CHG  1  72   1
M  ISO  4  34 100  57 101  71 100  81 101
M  END
> <Batch ID>
0180

> <Smiles>
CNC(C)C(=O)NC(C(=O)N1Cc2cc([101O:1][101CH2:1]CNC(=O)C3CC([100NH:0][100C:0](=O)N4CCCC(n5nc(-c6ccc(Oc7ccc(F)cc7F)cc6)c(C(N)=O)c5N)C4)C(=O)N3C)ccc2CC1C(=O)NC1CCCc2ccccc21)C(C)(C)C

> <Shape>
0.314

> <Color>
0.078

> <Negative vol penalty>
0.000

$$$$

  -OEChem-04052323003D

 89 98  0     1  0  0  0  0  0999 V2000
  -26.3943  -32.3858   31.8450 C   0  0  0  0  0  0  0  0  0  0  0  0
  -27.2242  -31.5360   31.1209 C   0  0  0  0  0  0  0  0  0  0  0  0
  -22.9075  -10.3806   21.7539 C   0  0  0  0  0  0  0  0  0  0  0  0
  -24.7247   -8.8055   21.5211 C   0  0  0  0  0  0  0  0  0  0  0  0
  -25.0510  -32.5126   31.4937 C   0  0  0  0  0  0  0  0  0  0  0  0
  -26.7111  -30.8115   30.0456 C   0  0  0  0  0  0  0  0  0  0  0  0
  -29.6303  -29.3473   24.8649 C   0  0  0  0  0  0  0  0  0  0  0  0
  -21.9888   -9.3498   21.5568 C   0  0  0  0  0  0  0  0  0  0  0  0
  -23.8059   -7.7747   21.3241 C   0  0  0  0  0  0  0  0  0  0  0  0
  -30.2768  -28.1841   24.4491 C   0  0  0  0  0  0  0  0  0  0  0  0
  -21.7842   -5.8452   23.2242 C   0  0  0  0  0  0  0  0  0  0  0  0
  -21.9969   -4.6496   23.9104 C   0  0  0  0  0  0  0  0  0  0  0  0
  -28.2722  -27.4870   23.3025 C   0  0  0  0  0  0  0  0  0  0  0  0
  -22.1455   -3.4691   21.8077 C   0  0  0  0  0  0  0  0  0  0  0  0
  -26.8258  -24.4580   18.7945 C   0  0  0  0  0  0  0  0  0  0  0  0
  -24.2755  -10.1085   21.7360 C   0  0  0  0  0  0  0  0  0  0  0  0
  -25.7620  -11.6111   23.1643 C   0  0  0  0  0  0  0  0  0  0  0  0
  -24.5234  -31.7967   30.4075 C   0  0  0  0  0  0  0  0  0  0  0  0
  -28.2942  -29.5843   24.5111 C   0  0  0  0  0  0  0  0  0  0  0  0
  -25.3592  -30.9278   29.6803 C   0  0  0  0  0  0  0  0  0  0  0  0
  -27.6118  -28.6552   23.7129 C   0  0  0  0  0  0  0  0  0  0  0  0
  -22.4379   -8.0468   21.3419 C   0  0  0  0  0  0  0  0  0  0  0  0
  -29.5968  -27.2524   23.6702 C   0  0  0  0  0  0  0  0  0  0  0  0
  -21.7521   -5.8527   21.8297 C   0  0  0  0  0  0  0  0  0  0  0  0
  -22.1775   -3.4616   23.2022 C   0  0  0  0  0  0  0  0  0  0  0  0
  -21.9328   -4.6647   21.1214 C   0  0  0  0  0  0  0  0  0  0  0  0
  -25.2251  -11.1730   21.9389 C   0  0  0  0  0  0  0  0  0  0  0  0
  -28.6458  -25.8368   18.6682 C   0  0  0  0  0  0  0  0  0  0  0  0
  -29.4667  -24.7400   18.5242 C   0  0  0  0  0  0  0  0  0  0  0  0
  -27.6465  -23.3613   18.6497 C   0  0  0  0  0  0  0  0  0  0  0  0
  -26.6084  -12.6369   22.8212 C   0  0  0  0  0  0  0  0  0  0  0  0
  -25.5176  -11.1333   24.4939 C   0  0  0  0  0  0  0  0  0  0  0  0
  -25.5794  -29.9567   26.1220 C   0  0  0  0  0  0  0  0  0  0  0  0
  -24.3844  -30.6384   23.1844 C   0  0  0  0  0  0  0  0  0  0  0  0
  -24.6542  -30.3068   19.7985 C   0  0  0  0  0  0  0  0  0  0  0  0
  -27.8471  -17.1147   20.1341 C   0  0  0  0  0  0  0  0  0  0  0  0
  -23.0540  -31.9304   30.0949 C   0  0  0  0  0  0  0  0  0  0  0  0
  -27.6194  -30.8565   24.9452 C   0  0  0  0  0  0  0  0  0  0  0  0
  -26.1829  -28.8720   23.2890 C   0  0  0  0  0  0  0  0  0  0  0  0
  -22.6765  -31.4130   28.7093 C   0  0  0  0  0  0  0  0  0  0  0  0
  -28.3090  -14.1494   18.3113 C   0  0  0  0  0  0  0  0  0  0  0  0
  -23.3152  -30.0511   28.4558 C   0  0  0  0  0  0  0  0  0  0  0  0
  -27.5856  -13.1340   19.1954 C   0  0  0  0  0  0  0  0  0  0  0  0
  -26.8929  -19.7608   18.0185 C   0  0  0  0  0  0  0  0  0  0  0  0
  -28.4766  -20.5088   19.8351 C   0  0  0  0  0  0  0  0  0  0  0  0
  -27.5515  -15.4757   18.2238 C   0  0  0  0  0  0  0  0  0  0  0  0
  -27.6153  -18.4113   17.9681 C   0  0  0  0  0  0  0  0  0  0  0  0
  -29.1828  -19.1600   19.7292 C   0  0  0  0  0  0  0  0  0  0  0  0
  -26.5040  -15.0540   20.4246 C   0  0  0  0  0  0  0  0  0  0  0  0
  -24.8454  -30.1441   28.4920 C   0  0  1  0  0  0  0  0  0  0  0  0
  -26.0974  -30.7517   24.9570 C   0  0  1  0  0  0  0  0  0  0  0  0
  -27.2706  -13.7313   20.5785 C   0  0  1  0  0  0  0  0  0  0  0  0
  -27.8208  -20.8778   18.5018 C   0  0  0  0  0  0  0  0  0  0  0  0
  -29.1948  -27.2224   18.6796 C   0  0  0  0  0  0  0  0  0  0  0  0
  -23.5072  -30.9434   17.6592 C   0  0  0  0  0  0  0  0  0  0  0  0
  -22.2618  -28.5057   23.6906 C   0  0  0  0  0  0  0  0  0  0  0  0
  -21.7671  -28.5148   21.2363 C   0  0  0  0  0  0  0  0  0  0  0  0
  -21.4116  -30.5822   22.5861 C   0  0  0  0  0  0  0  0  0  0  0  0
  -27.0126  -31.8219   18.8493 C   0  0  0  0  0  0  0  0  0  0  0  0
  -30.9421  -24.8879   18.3734 C   0  0  0  0  0  0  0  0  0  0  0  0
  -31.7396  -24.5403   19.6318 C   0  0  0  0  0  0  0  0  0  0  0  0
  -32.0618  -25.1666   22.0281 C   0  0  0  0  0  0  0  0  0  0  0  0
  -31.6353  -26.1879   23.0641 C   0  0  0  0  0  0  0  0  0  1  0  0
  -23.7692  -29.8312   22.0668 C   0  0  1  0  0  0  0  0  0  0  0  0
  -24.5706  -31.3261   18.6767 C   0  0  2  0  0  0  0  0  0  0  0  0
  -22.3288  -29.3532   22.4044 C   0  0  0  0  0  0  0  0  0  0  0  0
  -27.3107  -25.7155   18.8063 N   0  0  0  0  0  0  0  0  0  0  0  0
  -25.6912  -11.8641   20.8953 N   0  0  0  0  0  0  0  0  0  0  0  0
  -28.9818  -23.4826   18.5120 N   0  0  0  0  0  0  0  0  0  0  0  0
  -26.5298  -12.7469   21.4641 N   0  0  0  0  0  0  0  0  0  0  0  0
  -25.5645  -30.1283   23.7439 N   0  0  0  0  0  0  0  0  0  0  0  0
  -27.2385  -15.9856   19.5661 N   0  0  0  0  0  0  0  0  0  0  0  0
  -28.2680  -18.1220   19.2530 N   0  0  0  0  0  0  0  0  0  0  0  0
  -27.4047  -13.4467   23.5511 N   0  0  0  0  0  0  0  0  0  0  0  0
  -24.6189  -10.0720   24.6678 N   0  0  0  0  0  0  0  0  0  0  0  0
  -27.0683  -22.1043   18.6477 N   0  0  0  0  0  0  0  0  0  0  0  0
  -25.3468  -30.7090   27.2575 N   0  0  0  0  0  0  0  0  0  0  0  0
  -23.8588  -30.6585   20.8685 N   0  0  0  0  0  0  0  0  0  0  0  0
  -25.8797  -31.4293   17.9721 N   0  3  0  0  0  0  0  0  0  0  0  0
  -31.3786  -25.4599   20.7389 N   0  3  0  0  0  0  0  0  0  0  0  0
  -26.0670  -11.6436   25.4995 O   0  0  0  0  0  0  0  0  0  0  0  0
  -25.4023  -28.7503   25.9993 O   0  0  0  0  0  0  0  0  0  0  0  0
  -23.8419  -31.6866   23.5427 O   0  0  0  0  0  0  0  0  0  0  0  0
  -25.3521  -29.2974   19.7307 O   0  0  0  0  0  0  0  0  0  0  0  0
  -28.0052  -17.2173   21.3571 O   0  0  0  0  0  0  0  0  0  0  0  0
  -21.5417   -7.0407   21.1498 O   0  0  0  0  0  0  0  0  0  0  0  0
  -30.2298  -26.1078   23.2607 O   0  0  0  0  0  0  0  0  0  1  0  0
  -22.3833   -2.3138   23.8613 F   0  0  0  0  0  0  0  0  0  0  0  0
  -21.9041   -4.6659   19.7817 F   0  0  0  0  0  0  0  0  0  0  0  0
  1  2  1  0  0  0  0
  1  5  2  0  0  0  0
  2  6  2  0  0  0  0
  3  8  2  0  0  0  0
  3 16  1  0  0  0  0
  4  9  1  0  0  0  0
  4 16  2  0  0  0  0
  5 18  1  0  0  0  0
  6 20  1  0  0  0  0
  7 10  2  0  0  0  0
  7 19  1  0  0  0  0
  8 22  1  0  0  0  0
  9 22  2  0  0  0  0
 10 23  1  0  0  0  0
 11 12  2  0  0  0  0
 11 24  1  0  0  0  0
 12 25  1  0  0  0  0
 13 21  1  0  0  0  0
 13 23  2  0  0  0  0
 14 25  2  0  0  0  0
 14 26  1  0  0  0  0
 15 30  1  0  0  0  0
 15 67  2  0  0  0  0
 16 27  1  0  0  0  0
 17 27  1  0  0  0  0
 17 31  2  0  0  0  0
 17 32  1  0  0  0  0
 18 20  2  0  0  0  0
 18 37  1  0  0  0  0
 19 21  2  0  0  0  0
 19 38  1  0  0  0  0
 20 50  1  0  0  0  0
 21 39  1  0  0  0  0
 22 86  1  0  0  0  0
 23 87  1  0  0  0  0
 24 26  2  0  0  0  0
 24 86  1  0  0  0  0
 25 88  1  0  0  0  0
 26 89  1  0  0  0  0
 27 68  2  0  0  0  0
 28 29  2  0  0  0  0
 28 54  1  0  0  0  0
 28 67  1  0  0  0  0
 29 60  1  0  0  0  0
 29 69  1  0  0  0  0
 30 69  2  0  0  0  0
 30 76  1  0  0  0  0
 31 70  1  0  0  0  0
 31 74  1  0  0  0  0
 32 75  1  0  0  0  0
 32 81  2  0  0  0  0
 33 51  1  0  0  0  0
 33 77  1  0  0  0  0
 33 82  2  0  0  0  0
 34 64  1  0  0  0  0
 34 71  1  0  0  0  0
 34 83  2  0  0  0  0
 35 65  1  0  0  0  0
 35 78  1  0  0  0  0
 35 84  2  0  0  0  0
 36 72  1  0  0  0  0
 36 73  1  0  0  0  0
 36 85  2  0  0  0  0
 37 40  1  0  0  0  0
 38 51  1  0  0  0  0
 39 71  1  0  0  0  0
 40 42  1  0  0  0  0
 41 43  1  0  0  0  0
 41 46  1  0  0  0  0
 42 50  1  0  0  0  0
 43 52  1  0  0  0  0
 44 47  1  0  0  0  0
 44 53  1  0  0  0  0
 45 48  1  0  0  0  0
 45 53  1  0  0  0  0
 46 72  1  0  0  0  0
 47 73  1  0  0  0  0
 48 73  1  0  0  0  0
 49 52  1  0  0  0  0
 49 72  1  0  0  0  0
 50 77  1  0  0  0  0
 51 71  1  0  0  0  0
 52 70  1  0  0  0  0
 53 76  1  0  0  0  0
 55 65  1  0  0  0  0
 56 66  1  0  0  0  0
 57 66  1  0  0  0  0
 58 66  1  0  0  0  0
 59 79  1  0  0  0  0
 60 61  1  0  0  0  0
 61 80  1  0  0  0  0
 62 63  1  0  0  0  0
 62 80  1  0  0  0  0
 63 87  1  0  0  0  0
 64 66  1  0  0  0  0
 64 78  1  0  0  0  0
 65 79  1  0  0  0  0
 68 70  1  0  0  0  0
M  CHG  2  79   1  80   1
M  ISO  4  36 100  63 101  73 100  87 101
M  END
> <Batch ID>
0180

> <Smiles>
CNC(C)C(=O)NC(C(=O)N1Cc2cc([101O:1][101CH2:1]CNCCc3nc(NC4CC[100N:0]([100C:0](=O)N5CCCC(n6nc(-c7ccc(Oc8ccc(F)cc8F)cc7)c(C(N)=O)c6N)C5)CC4)cnc3C)ccc2CC1C(=O)NC1CCCc2ccccc21)C(C)(C)C

> <Shape>
0.266

> <Color>
0.078

> <Negative vol penalty>
0.000

$$$$

  -OEChem-04052323003D

 82 91  0     1  0  0  0  0  0999 V2000
  -29.1132  -24.4562   16.6752 C   0  0  0  0  0  0  0  0  0  0  0  0
  -27.8627  -24.5852   17.2711 C   0  0  0  0  0  0  0  0  0  0  0  0
  -28.0278  -15.3735   21.4979 C   0  0  0  0  0  0  0  0  0  0  0  0
  -26.0146  -16.0300   20.3347 C   0  0  0  0  0  0  0  0  0  0  0  0
  -30.2409  -24.9842   17.3025 C   0  0  0  0  0  0  0  0  0  0  0  0
  -27.7394  -25.2413   18.4954 C   0  0  0  0  0  0  0  0  0  0  0  0
  -23.8329  -28.4624   18.5883 C   0  0  0  0  0  0  0  0  0  0  0  0
  -27.5719  -14.0561   21.5436 C   0  0  0  0  0  0  0  0  0  0  0  0
  -25.5587  -14.7126   20.3803 C   0  0  0  0  0  0  0  0  0  0  0  0
  -22.5616  -27.9166   18.7609 C   0  0  0  0  0  0  0  0  0  0  0  0
  -27.3839  -11.4111   19.4455 C   0  0  0  0  0  0  0  0  0  0  0  0
  -28.2885  -10.4005   19.1203 C   0  0  0  0  0  0  0  0  0  0  0  0
  -22.6301  -28.5115   21.0977 C   0  0  0  0  0  0  0  0  0  0  0  0
  -28.0066   -9.4403   21.3193 C   0  0  0  0  0  0  0  0  0  0  0  0
  -21.1659  -22.9371   19.8496 C   0  0  0  0  0  0  0  0  0  0  0  0
  -27.2492  -16.3605   20.8936 C   0  0  0  0  0  0  0  0  0  0  0  0
  -28.4974  -18.3179   19.8362 C   0  0  0  0  0  0  0  0  0  0  0  0
  -30.1299  -25.6556   18.5303 C   0  0  0  0  0  0  0  0  0  0  0  0
  -24.5180  -29.0280   19.6733 C   0  0  0  0  0  0  0  0  0  0  0  0
  -28.8668  -25.7776   19.1403 C   0  0  0  0  0  0  0  0  0  0  0  0
  -23.9089  -29.0661   20.9357 C   0  0  0  0  0  0  0  0  0  0  0  0
  -26.3373  -13.7256   20.9848 C   0  0  0  0  0  0  0  0  0  0  0  0
  -21.9612  -27.9385   20.0163 C   0  0  0  0  0  0  0  0  0  0  0  0
  -26.7907  -11.4365   20.7078 C   0  0  0  0  0  0  0  0  0  0  0  0
  -28.5998   -9.4150   20.0571 C   0  0  0  0  0  0  0  0  0  0  0  0
  -27.1020  -10.4511   21.6446 C   0  0  0  0  0  0  0  0  0  0  0  0
  -27.7194  -17.7217   20.8466 C   0  0  0  0  0  0  0  0  0  0  0  0
  -21.4576  -23.9460   20.7348 C   0  0  0  0  0  0  0  0  0  0  0  0
  -20.1307  -23.4583   19.0506 C   0  0  0  0  0  0  0  0  0  0  0  0
  -28.6747  -19.6128   20.2584 C   0  0  0  0  0  0  0  0  0  0  0  0
  -29.0136  -17.7519   18.6242 C   0  0  0  0  0  0  0  0  0  0  0  0
  -27.2430  -28.3943   21.1820 C   0  0  0  0  0  0  0  0  0  0  0  0
  -26.5507  -31.1386   22.7669 C   0  0  0  0  0  0  0  0  0  0  0  0
  -24.1841  -33.3714   23.7967 C   0  0  0  0  0  0  0  0  0  0  0  0
  -25.6543  -23.7428   23.1239 C   0  0  0  0  0  0  0  0  0  0  0  0
  -31.3839  -26.1682   19.1933 C   0  0  0  0  0  0  0  0  0  0  0  0
  -25.8776  -29.6365   19.4648 C   0  0  0  0  0  0  0  0  0  0  0  0
  -24.5938  -29.6798   22.1284 C   0  0  0  0  0  0  0  0  0  0  0  0
  -31.1152  -27.1768   20.3072 C   0  0  0  0  0  0  0  0  0  0  0  0
  -28.4150  -21.9553   24.5786 C   0  0  0  0  0  0  0  0  0  0  0  0
  -30.0046  -26.6756   21.2248 C   0  0  0  0  0  0  0  0  0  0  0  0
  -28.5595  -20.7113   23.7084 C   0  0  0  0  0  0  0  0  0  0  0  0
  -26.9535  -22.3641   24.7049 C   0  0  0  0  0  0  0  0  0  0  0  0
  -23.5467  -22.7319   21.9423 C   0  0  0  0  0  0  0  0  0  0  0  0
  -23.7966  -24.8281   21.7498 C   0  0  0  0  0  0  0  0  0  0  0  0
  -26.4401  -21.4001   22.4775 C   0  0  0  0  0  0  0  0  0  0  0  0
  -28.6889  -26.5042   20.4558 C   0  0  1  0  0  0  0  0  0  0  0  0
  -22.5537  -23.9178   21.8797 C   0  0  0  0  0  0  0  0  0  0  0  0
  -26.6958  -29.7251   20.7494 C   0  0  1  0  0  0  0  0  0  0  0  0
  -27.9033  -20.9351   22.3384 C   0  0  2  0  0  0  0  0  0  0  0  0
  -19.4373  -22.7927   17.9349 C   0  0  0  0  0  0  0  0  0  0  0  0
  -23.9169  -35.4944   25.1078 C   0  0  0  0  0  0  0  0  0  0  0  0
  -19.1506  -26.5009   21.7413 C   0  0  0  0  0  0  0  0  0  0  0  0
  -26.8701  -29.5713   25.3653 C   0  0  0  0  0  0  0  0  0  0  0  0
  -25.6892  -31.4329   26.5519 C   0  0  0  0  0  0  0  0  0  0  0  0
  -27.8606  -31.8673   25.4035 C   0  0  0  0  0  0  0  0  0  0  0  0
  -23.1183  -34.8240   21.4488 C   0  0  0  0  0  0  0  0  0  0  0  0
  -25.7805  -31.4854   24.0181 C   0  0  1  0  0  0  0  0  0  0  0  0
  -24.1327  -34.8871   23.7304 C   0  0  2  0  0  0  0  0  0  0  0  0
  -20.5339  -26.3193   21.1127 C   0  0  1  0  0  0  0  0  0  1  0  0
  -26.5377  -31.0759   25.3128 C   0  0  0  0  0  0  0  0  0  0  0  0
  -27.4230  -18.5682   21.8363 N   0  0  0  0  0  0  0  0  0  0  0  0
  -19.7877  -24.7017   19.3975 N   0  0  0  0  0  0  0  0  0  0  0  0
  -20.6120  -24.9702   20.4244 N   0  0  0  0  0  0  0  0  0  0  0  0
  -28.0180  -19.7096   21.4499 N   0  0  0  0  0  0  0  0  0  0  0  0
  -25.9247  -30.2562   21.8752 N   0  0  0  0  0  0  0  0  0  0  0  0
  -26.3145  -22.5396   23.3970 N   0  0  0  0  0  0  0  0  0  0  0  0
  -24.5632  -23.7110   22.2878 N   0  0  0  0  0  0  0  0  0  0  0  0
  -29.3268  -20.6667   19.7231 N   0  0  0  0  0  0  0  0  0  0  0  0
  -28.7375  -16.4066   18.3445 N   0  0  0  0  0  0  0  0  0  0  0  0
  -28.0565  -27.7885   20.2436 N   0  0  0  0  0  0  0  0  0  0  0  0
  -25.4766  -32.9095   23.9288 N   0  0  0  0  0  0  0  0  0  0  0  0
  -23.0205  -35.3293   22.8424 N   0  3  0  0  0  0  0  0  0  0  0  0
  -29.7133  -18.4149   17.8214 O   0  0  0  0  0  0  0  0  0  0  0  0
  -26.9500  -27.9507   22.2861 O   0  0  0  0  0  0  0  0  0  0  0  0
  -27.6637  -31.6381   22.5840 O   0  0  0  0  0  0  0  0  0  0  0  0
  -23.1780  -32.6677   23.7411 O   0  0  0  0  0  0  0  0  0  0  0  0
  -26.0092  -24.8132   23.6352 O   0  0  0  0  0  0  0  0  0  0  0  0
  -25.8922  -12.4401   21.0289 O   0  0  0  0  0  0  0  0  0  0  0  0
  -20.7207  -27.4059   20.1877 O   0  0  0  0  0  0  0  0  0  1  0  0
  -29.4674   -8.4437   19.7441 F   0  0  0  0  0  0  0  0  0  0  0  0
  -26.5344  -10.4695   22.8584 F   0  0  0  0  0  0  0  0  0  0  0  0
  1  2  1  0  0  0  0
  1  5  2  0  0  0  0
  2  6  2  0  0  0  0
  3  8  2  0  0  0  0
  3 16  1  0  0  0  0
  4  9  1  0  0  0  0
  4 16  2  0  0  0  0
  5 18  1  0  0  0  0
  6 20  1  0  0  0  0
  7 10  2  0  0  0  0
  7 19  1  0  0  0  0
  8 22  1  0  0  0  0
  9 22  2  0  0  0  0
 10 23  1  0  0  0  0
 11 12  2  0  0  0  0
 11 24  1  0  0  0  0
 12 25  1  0  0  0  0
 13 21  1  0  0  0  0
 13 23  2  0  0  0  0
 14 25  2  0  0  0  0
 14 26  1  0  0  0  0
 15 28  2  0  0  0  0
 15 29  1  0  0  0  0
 16 27  1  0  0  0  0
 17 27  1  0  0  0  0
 17 30  2  0  0  0  0
 17 31  1  0  0  0  0
 18 20  2  0  0  0  0
 18 36  1  0  0  0  0
 19 21  2  0  0  0  0
 19 37  1  0  0  0  0
 20 47  1  0  0  0  0
 21 38  1  0  0  0  0
 22 79  1  0  0  0  0
 23 80  1  0  0  0  0
 24 26  2  0  0  0  0
 24 79  1  0  0  0  0
 25 81  1  0  0  0  0
 26 82  1  0  0  0  0
 27 62  2  0  0  0  0
 28 48  1  0  0  0  0
 28 64  1  0  0  0  0
 29 51  1  0  0  0  0
 29 63  2  0  0  0  0
 30 65  1  0  0  0  0
 30 69  1  0  0  0  0
 31 70  1  0  0  0  0
 31 74  2  0  0  0  0
 32 49  1  0  0  0  0
 32 71  1  0  0  0  0
 32 75  2  0  0  0  0
 33 58  1  0  0  0  0
 33 66  1  0  0  0  0
 33 76  2  0  0  0  0
 34 59  1  0  0  0  0
 34 72  1  0  0  0  0
 34 77  2  0  0  0  0
 35 67  1  0  0  0  0
 35 68  1  0  0  0  0
 35 78  2  0  0  0  0
 36 39  1  0  0  0  0
 37 49  1  0  0  0  0
 38 66  1  0  0  0  0
 39 41  1  0  0  0  0
 40 42  1  0  0  0  0
 40 43  1  0  0  0  0
 41 47  1  0  0  0  0
 42 50  1  0  0  0  0
 43 67  1  0  0  0  0
 44 48  1  0  0  0  0
 44 68  1  0  0  0  0
 45 48  1  0  0  0  0
 45 68  1  0  0  0  0
 46 50  1  0  0  0  0
 46 67  1  0  0  0  0
 47 71  1  0  0  0  0
 49 66  1  0  0  0  0
 50 65  1  0  0  0  0
 52 59  1  0  0  0  0
 53 60  1  0  0  0  0
 54 61  1  0  0  0  0
 55 61  1  0  0  0  0
 56 61  1  0  0  0  0
 57 73  1  0  0  0  0
 58 61  1  0  0  0  0
 58 72  1  0  0  0  0
 59 73  1  0  0  0  0
 60 64  1  0  0  0  0
 60 80  1  0  0  0  0
 62 65  1  0  0  0  0
 63 64  1  0  0  0  0
M  CHG  1  73   1
M  ISO  4  35 100  60 101  68 100  80 101
M  END
> <Batch ID>
0180

> <Smiles>
CNC(C)C(=O)NC(C(=O)N1Cc2cc([101O:1][101CH:1](C)n3nc(C)cc3C3C[100N:0]([100C:0](=O)N4CCCC(n5nc(-c6ccc(Oc7ccc(F)cc7F)cc6)c(C(N)=O)c5N)C4)C3)ccc2CC1C(=O)NC1CCCc2ccccc21)C(C)(C)C

> <Shape>
0.272

> <Color>
0.073

> <Negative vol penalty>
0.000

$$$$

  -OEChem-04052323003D

 86 95  0     1  0  0  0  0  0999 V2000
  -33.2414  -29.7612   15.9583 C   0  0  0  0  0  0  0  0  0  0  0  0
  -32.6620  -28.7907   16.7694 C   0  0  0  0  0  0  0  0  0  0  0  0
  -22.7996  -10.3305   19.9706 C   0  0  0  0  0  0  0  0  0  0  0  0
  -23.8274   -9.7389   22.0755 C   0  0  0  0  0  0  0  0  0  0  0  0
  -33.1708  -31.1052   16.3223 C   0  0  0  0  0  0  0  0  0  0  0  0
  -32.0125  -29.1637   17.9456 C   0  0  0  0  0  0  0  0  0  0  0  0
  -27.5755  -26.7984   18.5487 C   0  0  0  0  0  0  0  0  0  0  0  0
  -21.9148   -9.2602   20.1018 C   0  0  0  0  0  0  0  0  0  0  0  0
  -22.9426   -8.6686   22.2067 C   0  0  0  0  0  0  0  0  0  0  0  0
  -27.6133  -25.4786   18.9965 C   0  0  0  0  0  0  0  0  0  0  0  0
  -22.6190   -5.5380   20.9717 C   0  0  0  0  0  0  0  0  0  0  0  0
  -23.1435   -4.3088   21.3711 C   0  0  0  0  0  0  0  0  0  0  0  0
  -27.0967  -26.2283   21.2304 C   0  0  0  0  0  0  0  0  0  0  0  0
  -27.7558  -19.0997   21.6618 C   0  0  0  0  0  0  0  0  0  0  0  0
  -21.7165   -4.3334   23.3205 C   0  0  0  0  0  0  0  0  0  0  0  0
  -23.7559  -10.5698   20.9574 C   0  0  0  0  0  0  0  0  0  0  0  0
  -24.4860  -12.9924   21.2828 C   0  0  0  0  0  0  0  0  0  0  0  0
  -32.5117  -31.4958   17.4986 C   0  0  0  0  0  0  0  0  0  0  0  0
  -27.3084  -27.8458   19.4420 C   0  0  0  0  0  0  0  0  0  0  0  0
  -31.9341  -30.5141   18.3263 C   0  0  0  0  0  0  0  0  0  0  0  0
  -27.0537  -27.5602   20.7909 C   0  0  0  0  0  0  0  0  0  0  0  0
  -26.5774  -19.8463   21.7292 C   0  0  0  0  0  0  0  0  0  0  0  0
  -26.5100  -21.1016   21.1047 C   0  0  0  0  0  0  0  0  0  0  0  0
  -21.9863   -8.4292   21.2199 C   0  0  0  0  0  0  0  0  0  0  0  0
  -27.3767  -25.1937   20.3381 C   0  0  0  0  0  0  0  0  0  0  0  0
  -21.6433   -6.1649   21.7467 C   0  0  0  0  0  0  0  0  0  0  0  0
  -22.6923   -3.7065   22.5455 C   0  0  0  0  0  0  0  0  0  0  0  0
  -21.1920   -5.5626   22.9211 C   0  0  0  0  0  0  0  0  0  0  0  0
  -24.6706  -11.6750   20.8222 C   0  0  0  0  0  0  0  0  0  0  0  0
  -27.6676  -21.5546   20.4794 C   0  0  0  0  0  0  0  0  0  0  0  0
  -28.8399  -19.6487   20.9988 C   0  0  0  0  0  0  0  0  0  0  0  0
  -25.6322  -13.6505   20.9090 C   0  0  0  0  0  0  0  0  0  0  0  0
  -23.3777  -13.5696   21.9857 C   0  0  0  0  0  0  0  0  0  0  0  0
  -28.9119  -30.3989   20.4490 C   0  0  0  0  0  0  0  0  0  0  0  0
  -26.1135  -31.0853   21.9390 C   0  0  0  0  0  0  0  0  0  0  0  0
  -23.1686  -29.9509   23.2381 C   0  0  0  0  0  0  0  0  0  0  0  0
  -31.1895  -13.8648   20.4439 C   0  0  0  0  0  0  0  0  0  0  0  0
  -32.5022  -32.9563   17.8747 C   0  0  0  0  0  0  0  0  0  0  0  0
  -27.2449  -29.2615   18.9379 C   0  0  0  0  0  0  0  0  0  0  0  0
  -25.3664  -19.2863   22.4314 C   0  0  0  0  0  0  0  0  0  0  0  0
  -26.7422  -28.6467   21.7864 C   0  0  0  0  0  0  0  0  0  0  0  0
  -31.4709  -33.3028   18.9455 C   0  0  0  0  0  0  0  0  0  0  0  0
  -24.3961  -20.3967   22.8354 C   0  0  0  0  0  0  0  0  0  0  0  0
  -29.3941  -12.2276   17.8414 C   0  0  0  0  0  0  0  0  0  0  0  0
  -31.5302  -32.2956   20.0895 C   0  0  0  0  0  0  0  0  0  0  0  0
  -27.9925  -12.0412   18.4252 C   0  0  0  0  0  0  0  0  0  0  0  0
  -24.1266  -21.3317   21.6607 C   0  0  0  0  0  0  0  0  0  0  0  0
  -30.4759  -12.0587   18.9059 C   0  0  0  0  0  0  0  0  0  0  0  0
  -28.9039  -12.7185   20.6856 C   0  0  0  0  0  0  0  0  0  0  0  0
  -31.1993  -30.8815   19.5973 C   0  0  1  0  0  0  0  0  0  0  0  0
  -27.4711  -30.2971   20.0350 C   0  0  1  0  0  0  0  0  0  0  0  0
  -27.7766  -12.9347   19.6615 C   0  0  2  0  0  0  0  0  0  0  0  0
  -21.1034  -30.7432   24.4234 C   0  0  0  0  0  0  0  0  0  0  0  0
  -27.6999  -31.3309   24.5338 C   0  0  0  0  0  0  0  0  0  0  0  0
  -25.5391  -31.1720   25.7884 C   0  0  0  0  0  0  0  0  0  0  0  0
  -25.9331  -33.0733   24.2224 C   0  0  0  0  0  0  0  0  0  0  0  0
  -21.4140  -29.0351   21.0378 C   0  0  0  0  0  0  0  0  0  0  0  0
  -27.7006  -22.8974   19.8106 C   0  0  0  0  0  0  0  0  0  1  0  0
  -31.5492  -17.0287   21.3914 C   0  0  0  0  0  0  0  0  0  0  0  0
  -30.1345  -17.5864   21.5434 C   0  0  0  0  0  0  0  0  0  0  0  0
  -31.7558  -15.6677   22.0526 C   0  0  0  0  0  0  0  0  0  0  0  0
  -25.5123  -30.7630   23.2858 C   0  0  1  0  0  0  0  0  0  0  0  0
  -21.7410  -30.4411   23.0762 C   0  0  2  0  0  0  0  0  0  0  0  0
  -26.1788  -31.5643   24.4395 C   0  0  0  0  0  0  0  0  0  0  0  0
  -25.8417  -11.5045   20.2030 N   0  0  0  0  0  0  0  0  0  0  0  0
  -28.8279  -20.8620   20.4083 N   0  0  0  0  0  0  0  0  0  0  0  0
  -26.4034  -12.7234   20.2718 N   0  0  0  0  0  0  0  0  0  0  0  0
  -25.3669  -21.8811   21.1469 N   0  0  0  0  0  0  0  0  0  0  0  0
  -26.6977  -30.0155   21.2462 N   0  0  0  0  0  0  0  0  0  0  0  0
  -30.2132  -12.9347   20.0503 N   0  0  0  0  0  0  0  0  0  0  0  0
  -26.0455  -14.9260   21.0665 N   0  0  0  0  0  0  0  0  0  0  0  0
  -22.2809  -12.7521   22.2906 N   0  0  0  0  0  0  0  0  0  0  0  0
  -30.0277  -18.8781   20.9470 N   0  0  0  0  0  0  0  0  0  0  0  0
  -29.7712  -30.7297   19.4187 N   0  0  0  0  0  0  0  0  0  0  0  0
  -24.0763  -30.9856   23.1555 N   0  0  0  0  0  0  0  0  0  0  0  0
  -30.8576  -14.6603   21.5337 N   0  0  0  0  0  0  0  0  0  0  0  0
  -20.9148  -29.4108   22.3856 N   0  3  0  0  0  0  0  0  0  0  0  0
  -23.3534  -14.7788   22.3187 O   0  0  0  0  0  0  0  0  0  0  0  0
  -29.2208  -30.1941   21.6170 O   0  0  0  0  0  0  0  0  0  0  0  0
  -26.0602  -32.2422   21.5143 O   0  0  0  0  0  0  0  0  0  0  0  0
  -23.4501  -28.7690   23.4234 O   0  0  0  0  0  0  0  0  0  0  0  0
  -32.2741  -13.9815   19.8635 O   0  0  0  0  0  0  0  0  0  0  0  0
  -21.1230   -7.3849   21.3483 O   0  0  0  0  0  0  0  0  0  0  0  0
  -27.4136  -23.9064   20.7780 O   0  0  0  0  0  0  0  0  0  1  0  0
  -23.1949   -2.5254   22.9282 F   0  0  0  0  0  0  0  0  0  0  0  0
  -20.2540   -6.1596   23.6691 F   0  0  0  0  0  0  0  0  0  0  0  0
  1  2  1  0  0  0  0
  1  5  2  0  0  0  0
  2  6  2  0  0  0  0
  3  8  2  0  0  0  0
  3 16  1  0  0  0  0
  4  9  1  0  0  0  0
  4 16  2  0  0  0  0
  5 18  1  0  0  0  0
  6 20  1  0  0  0  0
  7 10  2  0  0  0  0
  7 19  1  0  0  0  0
  8 24  1  0  0  0  0
  9 24  2  0  0  0  0
 10 25  1  0  0  0  0
 11 12  2  0  0  0  0
 11 26  1  0  0  0  0
 12 27  1  0  0  0  0
 13 21  1  0  0  0  0
 13 25  2  0  0  0  0
 14 22  2  0  0  0  0
 14 31  1  0  0  0  0
 15 27  2  0  0  0  0
 15 28  1  0  0  0  0
 16 29  1  0  0  0  0
 17 29  1  0  0  0  0
 17 32  2  0  0  0  0
 17 33  1  0  0  0  0
 18 20  2  0  0  0  0
 18 38  1  0  0  0  0
 19 21  2  0  0  0  0
 19 39  1  0  0  0  0
 20 50  1  0  0  0  0
 21 41  1  0  0  0  0
 22 23  1  0  0  0  0
 22 40  1  0  0  0  0
 23 30  2  0  0  0  0
 23 68  1  0  0  0  0
 24 83  1  0  0  0  0
 25 84  1  0  0  0  0
 26 28  2  0  0  0  0
 26 83  1  0  0  0  0
 27 85  1  0  0  0  0
 28 86  1  0  0  0  0
 29 65  2  0  0  0  0
 30 58  1  0  0  0  0
 30 66  1  0  0  0  0
 31 66  2  0  0  0  0
 31 73  1  0  0  0  0
 32 67  1  0  0  0  0
 32 71  1  0  0  0  0
 33 72  1  0  0  0  0
 33 78  2  0  0  0  0
 34 51  1  0  0  0  0
 34 74  1  0  0  0  0
 34 79  2  0  0  0  0
 35 62  1  0  0  0  0
 35 69  1  0  0  0  0
 35 80  2  0  0  0  0
 36 63  1  0  0  0  0
 36 75  1  0  0  0  0
 36 81  2  0  0  0  0
 37 70  1  0  0  0  0
 37 76  1  0  0  0  0
 37 82  2  0  0  0  0
 38 42  1  0  0  0  0
 39 51  1  0  0  0  0
 40 43  1  0  0  0  0
 41 69  1  0  0  0  0
 42 45  1  0  0  0  0
 43 47  1  0  0  0  0
 44 46  1  0  0  0  0
 44 48  1  0  0  0  0
 45 50  1  0  0  0  0
 46 52  1  0  0  0  0
 47 68  1  0  0  0  0
 48 70  1  0  0  0  0
 49 52  1  0  0  0  0
 49 70  1  0  0  0  0
 50 74  1  0  0  0  0
 51 69  1  0  0  0  0
 52 67  1  0  0  0  0
 53 63  1  0  0  0  0
 54 64  1  0  0  0  0
 55 64  1  0  0  0  0
 56 64  1  0  0  0  0
 57 77  1  0  0  0  0
 58 84  1  0  0  0  0
 59 60  1  0  0  0  0
 59 61  1  0  0  0  0
 60 73  1  0  0  0  0
 61 76  1  0  0  0  0
 62 64  1  0  0  0  0
 62 75  1  0  0  0  0
 63 77  1  0  0  0  0
 65 67  1  0  0  0  0
M  CHG  1  77   1
M  ISO  4  37 100  58 101  76 100  84 101
M  END
> <Batch ID>
0180

> <Smiles>
CNC(C)C(=O)NC(C(=O)N1Cc2cc([101O:1][101CH2:1]c3nc(NCCC[100NH:0][100C:0](=O)N4CCCC(n5nc(-c6ccc(Oc7ccc(F)cc7F)cc6)c(C(N)=O)c5N)C4)cc4c3NCCC4)ccc2CC1C(=O)NC1CCCc2ccccc21)C(C)(C)C

> <Shape>
0.341

> <Color>
0.191

> <Negative vol penalty>
0.000

$$$$

  -OEChem-04052323003D

 88 97  0     1  0  0  0  0  0999 V2000
  -18.3417  -32.8074   24.1099 C   0  0  0  0  0  0  0  0  0  0  0  0
  -19.5302  -32.9473   23.4003 C   0  0  0  0  0  0  0  0  0  0  0  0
  -25.5302  -14.4920   21.1040 C   0  0  0  0  0  0  0  0  0  0  0  0
  -25.5604  -14.6896   18.6963 C   0  0  0  0  0  0  0  0  0  0  0  0
  -18.0998  -31.6443   24.8397 C   0  0  0  0  0  0  0  0  0  0  0  0
  -20.4779  -31.9247   23.4211 C   0  0  0  0  0  0  0  0  0  0  0  0
  -25.4598  -28.8453   19.2962 C   0  0  0  0  0  0  0  0  0  0  0  0
  -24.5085  -13.5468   21.0136 C   0  0  0  0  0  0  0  0  0  0  0  0
  -24.5387  -13.7443   18.6059 C   0  0  0  0  0  0  0  0  0  0  0  0
  -26.8068  -28.4865   19.3205 C   0  0  0  0  0  0  0  0  0  0  0  0
  -24.2155  -10.2568   20.2904 C   0  0  0  0  0  0  0  0  0  0  0  0
  -24.3252   -9.1069   21.0722 C   0  0  0  0  0  0  0  0  0  0  0  0
  -26.2463  -26.4892   20.5518 C   0  0  0  0  0  0  0  0  0  0  0  0
  -22.2513   -9.6623   22.1802 C   0  0  0  0  0  0  0  0  0  0  0  0
  -33.2955  -26.2484   19.6423 C   0  0  0  0  0  0  0  0  0  0  0  0
  -32.5049  -21.4388   16.9846 C   0  0  0  0  0  0  0  0  0  0  0  0
  -26.0562  -15.0635   19.9453 C   0  0  0  0  0  0  0  0  0  0  0  0
  -28.4978  -15.7969   20.0353 C   0  0  0  0  0  0  0  0  0  0  0  0
  -19.0408  -30.6029   24.8617 C   0  0  0  0  0  0  0  0  0  0  0  0
  -24.4956  -28.0329   19.9100 C   0  0  0  0  0  0  0  0  0  0  0  0
  -20.2489  -30.7472   24.1530 C   0  0  0  0  0  0  0  0  0  0  0  0
  -24.8874  -26.8387   20.5317 C   0  0  0  0  0  0  0  0  0  0  0  0
  -24.0127  -13.1729   19.7646 C   0  0  0  0  0  0  0  0  0  0  0  0
  -27.2006  -27.3097   19.9508 C   0  0  0  0  0  0  0  0  0  0  0  0
  -23.1237  -11.1096   20.4535 C   0  0  0  0  0  0  0  0  0  0  0  0
  -23.3431   -8.8096   22.0171 C   0  0  0  0  0  0  0  0  0  0  0  0
  -22.1417  -10.8123   21.3984 C   0  0  0  0  0  0  0  0  0  0  0  0
  -27.1112  -16.0404   20.0381 C   0  0  0  0  0  0  0  0  0  0  0  0
  -32.6577  -26.8392   20.7140 C   0  0  0  0  0  0  0  0  0  0  0  0
  -32.5774  -26.2153   18.4644 C   0  0  0  0  0  0  0  0  0  0  0  0
  -33.6546  -22.0277   16.4993 C   0  0  0  0  0  0  0  0  0  0  0  0
  -31.5926  -22.2975   17.5630 C   0  0  0  0  0  0  0  0  0  0  0  0
  -29.0654  -17.0430   20.1439 C   0  0  0  0  0  0  0  0  0  0  0  0
  -30.8189  -27.2675   19.4481 C   0  0  0  0  0  0  0  0  0  0  0  0
  -32.9385  -24.0832   17.1544 C   0  0  0  0  0  0  0  0  0  0  0  0
  -29.2091  -14.5555   19.9428 C   0  0  0  0  0  0  0  0  0  0  0  0
  -22.4323  -28.4140   22.2978 C   0  0  0  0  0  0  0  0  0  0  0  0
  -21.4116  -25.4789   21.3673 C   0  0  0  0  0  0  0  0  0  0  0  0
  -22.1147  -22.5284   19.8030 C   0  0  0  0  0  0  0  0  0  0  0  0
  -29.3441  -22.4115   18.6934 C   0  0  0  0  0  0  0  0  0  0  0  0
  -18.7555  -29.3843   25.7033 C   0  0  0  0  0  0  0  0  0  0  0  0
  -23.0435  -28.4206   19.8519 C   0  0  0  0  0  0  0  0  0  0  0  0
  -23.8890  -25.9216   21.1877 C   0  0  0  0  0  0  0  0  0  0  0  0
  -19.6476  -28.1913   25.3699 C   0  0  0  0  0  0  0  0  0  0  0  0
  -26.9800  -21.5313   21.2059 C   0  0  0  0  0  0  0  0  0  0  0  0
  -21.1048  -28.6287   25.2598 C   0  0  0  0  0  0  0  0  0  0  0  0
  -26.9174  -20.0042   21.1259 C   0  0  0  0  0  0  0  0  0  0  0  0
  -27.1460  -22.1652   19.8260 C   0  0  0  0  0  0  0  0  0  0  0  0
  -28.2071  -20.1193   18.9555 C   0  0  0  0  0  0  0  0  0  0  0  0
  -21.2906  -29.6497   24.1309 C   0  0  1  0  0  0  0  0  0  0  0  0
  -22.2087  -27.7776   20.9551 C   0  0  1  0  0  0  0  0  0  0  0  0
  -28.1053  -19.4327   20.3273 C   0  0  2  0  0  0  0  0  0  0  0  0
  -33.3555  -26.9223   22.0302 C   0  0  0  0  0  0  0  0  0  0  0  0
  -34.7013  -21.1795   15.8582 C   0  0  0  0  0  0  0  0  0  0  0  0
  -32.8334  -26.2713   15.8991 C   0  0  0  0  0  0  0  0  0  0  0  0
  -21.0933  -20.3077   19.2350 C   0  0  0  0  0  0  0  0  0  0  0  0
  -21.7843  -24.5712   24.2565 C   0  0  0  0  0  0  0  0  0  0  0  0
  -21.6800  -22.2025   23.4525 C   0  0  0  0  0  0  0  0  0  0  0  0
  -19.7140  -23.7079   23.1506 C   0  0  0  0  0  0  0  0  0  0  0  0
  -22.4106  -23.0050   16.8971 C   0  0  0  0  0  0  0  0  0  0  0  0
  -29.4364  -27.8401   19.3379 C   0  0  0  0  0  0  0  0  0  1  0  0
  -33.1856  -25.5977   17.2499 C   0  0  1  0  0  0  0  0  0  0  0  0
  -21.7733  -24.0578   21.7262 C   0  0  1  0  0  0  0  0  0  0  0  0
  -21.3469  -21.7313   18.7639 C   0  0  2  0  0  0  0  0  0  0  0  0
  -21.2572  -23.6529   23.1358 C   0  0  0  0  0  0  0  0  0  0  0  0
  -26.8159  -17.3389   20.1404 N   0  0  0  0  0  0  0  0  0  0  0  0
  -31.4151  -27.3609   20.6520 N   0  0  0  0  0  0  0  0  0  0  0  0
  -31.3322  -26.7172   18.3312 N   0  0  0  0  0  0  0  0  0  0  0  0
  -33.9050  -23.3517   16.5678 N   0  0  0  0  0  0  0  0  0  0  0  0
  -31.7778  -23.6300   17.6653 N   0  0  0  0  0  0  0  0  0  0  0  0
  -28.0248  -17.9227   20.2031 N   0  0  0  0  0  0  0  0  0  0  0  0
  -22.4818  -26.3473   21.1097 N   0  0  0  0  0  0  0  0  0  0  0  0
  -28.2929  -21.5778   19.1299 N   0  0  0  0  0  0  0  0  0  0  0  0
  -30.3480  -17.4610   20.1936 N   0  0  0  0  0  0  0  0  0  0  0  0
  -28.4710  -13.3688   19.8369 N   0  0  0  0  0  0  0  0  0  0  0  0
  -30.3954  -21.7371   18.0733 N   0  0  0  0  0  0  0  0  0  0  0  0
  -21.2995  -28.9855   22.8452 N   0  0  0  0  0  0  0  0  0  0  0  0
  -21.2686  -23.2220   20.6422 N   0  0  0  0  0  0  0  0  0  0  0  0
  -22.1115  -21.6743   17.4860 N   0  3  0  0  0  0  0  0  0  0  0  0
  -30.4620  -14.4989   19.9703 O   0  0  0  0  0  0  0  0  0  0  0  0
  -23.5495  -28.3871   22.8006 O   0  0  0  0  0  0  0  0  0  0  0  0
  -20.2232  -25.8045   21.3105 O   0  0  0  0  0  0  0  0  0  0  0  0
  -23.3421  -22.5322   19.8664 O   0  0  0  0  0  0  0  0  0  0  0  0
  -29.3265  -23.6306   18.8818 O   0  0  0  0  0  0  0  0  0  0  0  0
  -23.0159  -12.2504   19.6760 O   0  0  0  0  0  0  0  0  0  0  0  0
  -28.5148  -26.9574   19.9766 O   0  0  0  0  0  0  0  0  0  1  0  0
  -23.4478   -7.7045   22.7667 F   0  0  0  0  0  0  0  0  0  0  0  0
  -21.0899  -11.6271   21.5588 F   0  0  0  0  0  0  0  0  0  0  0  0
  1  2  1  0  0  0  0
  1  5  2  0  0  0  0
  2  6  2  0  0  0  0
  3  8  2  0  0  0  0
  3 17  1  0  0  0  0
  4  9  1  0  0  0  0
  4 17  2  0  0  0  0
  5 19  1  0  0  0  0
  6 21  1  0  0  0  0
  7 10  2  0  0  0  0
  7 20  1  0  0  0  0
  8 23  1  0  0  0  0
  9 23  2  0  0  0  0
 10 24  1  0  0  0  0
 11 12  2  0  0  0  0
 11 25  1  0  0  0  0
 12 26  1  0  0  0  0
 13 22  1  0  0  0  0
 13 24  2  0  0  0  0
 14 26  2  0  0  0  0
 14 27  1  0  0  0  0
 15 29  1  0  0  0  0
 15 30  2  0  0  0  0
 16 31  1  0  0  0  0
 16 32  2  0  0  0  0
 17 28  1  0  0  0  0
 18 28  1  0  0  0  0
 18 33  2  0  0  0  0
 18 36  1  0  0  0  0
 19 21  2  0  0  0  0
 19 41  1  0  0  0  0
 20 22  2  0  0  0  0
 20 42  1  0  0  0  0
 21 50  1  0  0  0  0
 22 43  1  0  0  0  0
 23 85  1  0  0  0  0
 24 86  1  0  0  0  0
 25 27  2  0  0  0  0
 25 85  1  0  0  0  0
 26 87  1  0  0  0  0
 27 88  1  0  0  0  0
 28 66  2  0  0  0  0
 29 53  1  0  0  0  0
 29 67  2  0  0  0  0
 30 62  1  0  0  0  0
 30 68  1  0  0  0  0
 31 54  1  0  0  0  0
 31 69  2  0  0  0  0
 32 70  1  0  0  0  0
 32 76  1  0  0  0  0
 33 71  1  0  0  0  0
 33 74  1  0  0  0  0
 34 61  1  0  0  0  0
 34 67  1  0  0  0  0
 34 68  2  0  0  0  0
 35 62  1  0  0  0  0
 35 69  1  0  0  0  0
 35 70  2  0  0  0  0
 36 75  1  0  0  0  0
 36 80  2  0  0  0  0
 37 51  1  0  0  0  0
 37 77  1  0  0  0  0
 37 81  2  0  0  0  0
 38 63  1  0  0  0  0
 38 72  1  0  0  0  0
 38 82  2  0  0  0  0
 39 64  1  0  0  0  0
 39 78  1  0  0  0  0
 39 83  2  0  0  0  0
 40 73  1  0  0  0  0
 40 76  1  0  0  0  0
 40 84  2  0  0  0  0
 41 44  1  0  0  0  0
 42 51  1  0  0  0  0
 43 72  1  0  0  0  0
 44 46  1  0  0  0  0
 45 47  1  0  0  0  0
 45 48  1  0  0  0  0
 46 50  1  0  0  0  0
 47 52  1  0  0  0  0
 48 73  1  0  0  0  0
 49 52  1  0  0  0  0
 49 73  1  0  0  0  0
 50 77  1  0  0  0  0
 51 72  1  0  0  0  0
 52 71  1  0  0  0  0
 55 62  1  0  0  0  0
 56 64  1  0  0  0  0
 57 65  1  0  0  0  0
 58 65  1  0  0  0  0
 59 65  1  0  0  0  0
 60 79  1  0  0  0  0
 61 86  1  0  0  0  0
 63 65  1  0  0  0  0
 63 78  1  0  0  0  0
 64 79  1  0  0  0  0
 66 71  1  0  0  0  0
M  CHG  1  79   1
M  ISO  4  40 100  61 101  76 100  86 101
M  END
> <Batch ID>
0180

> <Smiles>
CNC(C)C(=O)NC(C(=O)N1Cc2cc([101O:1][101CH2:1]c3nc(C)cc(C(C)c4nc(C)cc([100NH:0][100C:0](=O)N5CCCC(n6nc(-c7ccc(Oc8ccc(F)cc8F)cc7)c(C(N)=O)c6N)C5)n4)n3)ccc2CC1C(=O)NC1CCCc2ccccc21)C(C)(C)C

> <Shape>
0.242

> <Color>
0.096

> <Negative vol penalty>
0.000

$$$$

  -OEChem-04052323003D

 83 92  0     1  0  0  0  0  0999 V2000
  -21.7145  -12.1524   19.8426 C   0  0  0  0  0  0  0  0  0  0  0  0
  -21.6112  -13.5046   20.1529 C   0  0  0  0  0  0  0  0  0  0  0  0
  -29.1401  -26.4805   24.7456 C   0  0  0  0  0  0  0  0  0  0  0  0
  -28.0326  -24.5575   23.7904 C   0  0  0  0  0  0  0  0  0  0  0  0
  -22.9379  -11.4981   19.9809 C   0  0  0  0  0  0  0  0  0  0  0  0
  -22.7310  -14.2030   20.6028 C   0  0  0  0  0  0  0  0  0  0  0  0
  -23.2352  -18.7164   18.3622 C   0  0  0  0  0  0  0  0  0  0  0  0
  -29.4194  -25.7470   25.8986 C   0  0  0  0  0  0  0  0  0  0  0  0
  -28.3120  -23.8239   24.9435 C   0  0  0  0  0  0  0  0  0  0  0  0
  -22.4169  -19.7488   18.8186 C   0  0  0  0  0  0  0  0  0  0  0  0
  -29.0487  -21.3352   27.4894 C   0  0  0  0  0  0  0  0  0  0  0  0
  -29.5334  -20.0369   27.3314 C   0  0  0  0  0  0  0  0  0  0  0  0
  -24.2471  -20.6103   20.1330 C   0  0  0  0  0  0  0  0  0  0  0  0
  -31.4408  -20.8959   26.1227 C   0  0  0  0  0  0  0  0  0  0  0  0
  -28.4466  -25.8858   23.6915 C   0  0  0  0  0  0  0  0  0  0  0  0
  -28.9582  -26.7541   21.3480 C   0  0  0  0  0  0  0  0  0  0  0  0
  -24.0756  -12.1912   20.4235 C   0  0  0  0  0  0  0  0  0  0  0  0
  -24.5647  -18.6168   18.7970 C   0  0  0  0  0  0  0  0  0  0  0  0
  -23.9705  -13.5571   20.7485 C   0  0  0  0  0  0  0  0  0  0  0  0
  -25.0809  -19.5771   19.6786 C   0  0  0  0  0  0  0  0  0  0  0  0
  -19.8379  -25.4580   22.1305 C   0  0  0  0  0  0  0  0  0  0  0  0
  -29.0054  -24.4186   25.9976 C   0  0  0  0  0  0  0  0  0  0  0  0
  -22.9219  -20.6943   19.7063 C   0  0  0  0  0  0  0  0  0  0  0  0
  -29.7601  -22.4140   26.9640 C   0  0  0  0  0  0  0  0  0  0  0  0
  -30.7294  -19.8172   26.6481 C   0  0  0  0  0  0  0  0  0  0  0  0
  -30.9561  -22.1943   26.2807 C   0  0  0  0  0  0  0  0  0  0  0  0
  -28.1573  -26.6432   22.5004 C   0  0  0  0  0  0  0  0  0  0  0  0
  -20.2362  -24.4489   22.9896 C   0  0  0  0  0  0  0  0  0  0  0  0
  -20.4256  -25.4855   20.8944 C   0  0  0  0  0  0  0  0  0  0  0  0
  -28.2452  -27.5787   20.5124 C   0  0  0  0  0  0  0  0  0  0  0  0
  -21.6708  -23.6457   21.4587 C   0  0  0  0  0  0  0  0  0  0  0  0
  -30.2326  -26.1644   21.0587 C   0  0  0  0  0  0  0  0  0  0  0  0
  -26.2376  -16.4564   20.4211 C   0  0  0  0  0  0  0  0  0  0  0  0
  -28.7237  -18.4118   19.7015 C   0  0  0  0  0  0  0  0  0  0  0  0
  -29.8016  -21.5407   18.8680 C   0  0  0  0  0  0  0  0  0  0  0  0
  -22.4129  -28.8482   20.0394 C   0  0  0  0  0  0  0  0  0  0  0  0
  -25.3653  -11.4301   20.6025 C   0  0  0  0  0  0  0  0  0  0  0  0
  -25.4422  -17.5125   18.2745 C   0  0  0  0  0  0  0  0  0  0  0  0
  -18.7787  -26.3124   22.7289 C   0  0  0  0  0  0  0  0  0  0  0  0
  -26.5072  -19.5265   20.1598 C   0  0  0  0  0  0  0  0  0  0  0  0
  -19.4669  -24.5162   24.2774 C   0  0  0  0  0  0  0  0  0  0  0  0
  -26.5916  -12.3306   20.7277 C   0  0  0  0  0  0  0  0  0  0  0  0
  -18.9271  -25.9545   24.2181 C   0  0  0  0  0  0  0  0  0  0  0  0
  -25.0674  -31.1544   20.5977 C   0  0  0  0  0  0  0  0  0  0  0  0
  -26.3202  -13.4690   21.7060 C   0  0  0  0  0  0  0  0  0  0  0  0
  -26.2326  -30.2697   21.0446 C   0  0  0  0  0  0  0  0  0  0  0  0
  -23.7317  -30.6396   21.1294 C   0  0  0  0  0  0  0  0  0  0  0  0
  -24.6108  -28.3414   21.2679 C   0  0  0  0  0  0  0  0  0  0  0  0
  -25.1685  -14.3549   21.2159 C   0  0  1  0  0  0  0  0  0  0  0  0
  -26.6301  -17.2126   19.1835 C   0  0  1  0  0  0  0  0  0  0  0  0
  -25.9727  -28.7886   20.7098 C   0  0  2  0  0  0  0  0  0  0  0  0
  -31.8933  -22.8394   18.3823 C   0  0  0  0  0  0  0  0  0  0  0  0
  -29.3721  -18.4777   22.6823 C   0  0  0  0  0  0  0  0  0  0  0  0
  -30.8142  -20.4788   22.2534 C   0  0  0  0  0  0  0  0  0  0  0  0
  -31.3665  -18.2935   21.1847 C   0  0  0  0  0  0  0  0  0  0  0  0
  -28.8999  -22.1906   16.1251 C   0  0  0  0  0  0  0  0  0  0  0  0
  -20.0500  -26.5178   19.8889 C   0  0  0  0  0  0  0  0  0  0  0  0
  -22.7078  -22.6364   21.0621 C   0  0  0  0  0  0  0  0  0  1  0  0
  -21.2121  -26.9494   18.9849 C   0  0  0  0  0  0  0  0  0  0  0  0
  -29.3695  -19.6067   20.3604 C   0  0  1  0  0  0  0  0  0  0  0  0
  -30.7547  -22.0238   17.7897 C   0  0  2  0  0  0  0  0  0  0  0  0
  -30.2031  -19.2143   21.6128 C   0  0  0  0  0  0  0  0  0  0  0  0
  -27.0224  -27.3416   22.4089 N   0  0  0  0  0  0  0  0  0  0  0  0
  -21.1499  -23.5135   22.6968 N   0  0  0  0  0  0  0  0  0  0  0  0
  -21.3622  -24.5833   20.5285 N   0  0  0  0  0  0  0  0  0  0  0  0
  -27.1052  -27.8994   21.1889 N   0  0  0  0  0  0  0  0  0  0  0  0
  -27.3238  -18.4241   19.6254 N   0  0  0  0  0  0  0  0  0  0  0  0
  -23.5459  -29.2300   20.7767 N   0  0  0  0  0  0  0  0  0  0  0  0
  -28.4886  -28.0536   19.2724 N   0  0  0  0  0  0  0  0  0  0  0  0
  -30.8243  -25.3431   22.0281 N   0  0  0  0  0  0  0  0  0  0  0  0
  -25.6248  -15.2438   20.1689 N   0  0  0  0  0  0  0  0  0  0  0  0
  -30.1369  -20.2817   19.3193 N   0  0  0  0  0  0  0  0  0  0  0  0
  -22.3170  -27.4943   19.7419 N   0  0  0  0  0  0  0  0  0  0  0  0
  -30.0316  -22.8744   16.8025 N   0  3  0  0  0  0  0  0  0  0  0  0
  -30.8366  -26.3732   19.9793 O   0  0  0  0  0  0  0  0  0  0  0  0
  -26.4745  -16.9368   21.5233 O   0  0  0  0  0  0  0  0  0  0  0  0
  -29.4355  -17.5044   19.2639 O   0  0  0  0  0  0  0  0  0  0  0  0
  -28.8566  -22.2145   19.2724 O   0  0  0  0  0  0  0  0  0  0  0  0
  -21.5534  -29.6549   19.6689 O   0  0  0  0  0  0  0  0  0  0  0  0
  -29.2780  -23.7025   27.1224 O   0  0  0  0  0  0  0  0  0  0  0  0
  -22.1252  -21.7026   20.1539 O   0  0  0  0  0  0  0  0  0  1  0  0
  -31.1954  -18.5705   26.4977 F   0  0  0  0  0  0  0  0  0  0  0  0
  -31.6445  -23.2268   25.7748 F   0  0  0  0  0  0  0  0  0  0  0  0
  1  2  1  0  0  0  0
  1  5  2  0  0  0  0
  2  6  2  0  0  0  0
  3  8  2  0  0  0  0
  3 15  1  0  0  0  0
  4  9  1  0  0  0  0
  4 15  2  0  0  0  0
  5 17  1  0  0  0  0
  6 19  1  0  0  0  0
  7 10  2  0  0  0  0
  7 18  1  0  0  0  0
  8 22  1  0  0  0  0
  9 22  2  0  0  0  0
 10 23  1  0  0  0  0
 11 12  2  0  0  0  0
 11 24  1  0  0  0  0
 12 25  1  0  0  0  0
 13 20  1  0  0  0  0
 13 23  2  0  0  0  0
 14 25  2  0  0  0  0
 14 26  1  0  0  0  0
 15 27  1  0  0  0  0
 16 27  1  0  0  0  0
 16 30  2  0  0  0  0
 16 32  1  0  0  0  0
 17 19  2  0  0  0  0
 17 37  1  0  0  0  0
 18 20  2  0  0  0  0
 18 38  1  0  0  0  0
 19 49  1  0  0  0  0
 20 40  1  0  0  0  0
 21 28  1  0  0  0  0
 21 29  2  0  0  0  0
 21 39  1  0  0  0  0
 22 80  1  0  0  0  0
 23 81  1  0  0  0  0
 24 26  2  0  0  0  0
 24 80  1  0  0  0  0
 25 82  1  0  0  0  0
 26 83  1  0  0  0  0
 27 63  2  0  0  0  0
 28 41  1  0  0  0  0
 28 64  2  0  0  0  0
 29 57  1  0  0  0  0
 29 65  1  0  0  0  0
 30 66  1  0  0  0  0
 30 69  1  0  0  0  0
 31 58  1  0  0  0  0
 31 64  1  0  0  0  0
 31 65  2  0  0  0  0
 32 70  1  0  0  0  0
 32 75  2  0  0  0  0
 33 50  1  0  0  0  0
 33 71  1  0  0  0  0
 33 76  2  0  0  0  0
 34 60  1  0  0  0  0
 34 67  1  0  0  0  0
 34 77  2  0  0  0  0
 35 61  1  0  0  0  0
 35 72  1  0  0  0  0
 35 78  2  0  0  0  0
 36 68  1  0  0  0  0
 36 73  1  0  0  0  0
 36 79  2  0  0  0  0
 37 42  1  0  0  0  0
 38 50  1  0  0  0  0
 39 43  1  0  0  0  0
 40 67  1  0  0  0  0
 41 43  1  0  0  0  0
 42 45  1  0  0  0  0
 44 46  1  0  0  0  0
 44 47  1  0  0  0  0
 45 49  1  0  0  0  0
 46 51  1  0  0  0  0
 47 68  1  0  0  0  0
 48 51  1  0  0  0  0
 48 68  1  0  0  0  0
 49 71  1  0  0  0  0
 50 67  1  0  0  0  0
 51 66  1  0  0  0  0
 52 61  1  0  0  0  0
 53 62  1  0  0  0  0
 54 62  1  0  0  0  0
 55 62  1  0  0  0  0
 56 74  1  0  0  0  0
 57 59  1  0  0  0  0
 58 81  1  0  0  0  0
 59 73  1  0  0  0  0
 60 62  1  0  0  0  0
 60 72  1  0  0  0  0
 61 74  1  0  0  0  0
 63 66  1  0  0  0  0
M  CHG  1  74   1
M  ISO  4  36 100  58 101  73 100  81 101
M  END
> <Batch ID>
0180

> <Smiles>
CNC(C)C(=O)NC(C(=O)N1Cc2cc([101O:1][101CH2:1]c3nc4c(c(CC[100NH:0][100C:0](=O)N5CCCC(n6nc(-c7ccc(Oc8ccc(F)cc8F)cc7)c(C(N)=O)c6N)C5)n3)CCC4)ccc2CC1C(=O)NC1CCCc2ccccc21)C(C)(C)C

> <Shape>
0.199

> <Color>
0.070

> <Negative vol penalty>
0.000

$$$$

  -OEChem-04052323003D

 84 93  0     1  0  0  0  0  0999 V2000
  -30.0156  -23.5022   17.3376 C   0  0  0  0  0  0  0  0  0  0  0  0
  -28.7051  -23.2806   17.7456 C   0  0  0  0  0  0  0  0  0  0  0  0
  -28.6345  -17.1915   21.6129 C   0  0  0  0  0  0  0  0  0  0  0  0
  -28.4234  -16.9157   19.2220 C   0  0  0  0  0  0  0  0  0  0  0  0
  -30.7222  -24.5937   17.8381 C   0  0  0  0  0  0  0  0  0  0  0  0
  -28.0968  -24.1572   18.6447 C   0  0  0  0  0  0  0  0  0  0  0  0
  -23.3065  -23.4767   19.5355 C   0  0  0  0  0  0  0  0  0  0  0  0
  -28.9725  -18.5321   21.4285 C   0  0  0  0  0  0  0  0  0  0  0  0
  -28.7614  -18.2564   19.0376 C   0  0  0  0  0  0  0  0  0  0  0  0
  -22.8241  -22.4049   20.2854 C   0  0  0  0  0  0  0  0  0  0  0  0
  -29.5388  -22.1185   21.6078 C   0  0  0  0  0  0  0  0  0  0  0  0
  -28.9297  -23.0608   22.4364 C   0  0  0  0  0  0  0  0  0  0  0  0
  -22.4854  -23.8798   22.1641 C   0  0  0  0  0  0  0  0  0  0  0  0
  -26.7617  -22.3829   21.6136 C   0  0  0  0  0  0  0  0  0  0  0  0
  -20.2176  -18.5292   22.5628 C   0  0  0  0  0  0  0  0  0  0  0  0
  -28.3600  -16.3832   20.5097 C   0  0  0  0  0  0  0  0  0  0  0  0
  -28.7936  -14.0008   21.3118 C   0  0  0  0  0  0  0  0  0  0  0  0
  -30.1256  -25.4765   18.7534 C   0  0  0  0  0  0  0  0  0  0  0  0
  -23.3923  -24.7580   20.0986 C   0  0  0  0  0  0  0  0  0  0  0  0
  -28.7854  -25.2781   19.1428 C   0  0  0  0  0  0  0  0  0  0  0  0
  -22.9669  -24.9666   21.4183 C   0  0  0  0  0  0  0  0  0  0  0  0
  -29.0360  -19.0646   20.1408 C   0  0  0  0  0  0  0  0  0  0  0  0
  -22.4162  -22.6058   21.6008 C   0  0  0  0  0  0  0  0  0  0  0  0
  -28.7594  -21.3084   20.7820 C   0  0  0  0  0  0  0  0  0  0  0  0
  -27.5412  -23.1930   22.4393 C   0  0  0  0  0  0  0  0  0  0  0  0
  -27.3708  -21.4406   20.7849 C   0  0  0  0  0  0  0  0  0  0  0  0
  -28.0113  -14.9982   20.6995 C   0  0  0  0  0  0  0  0  0  0  0  0
  -20.1813  -17.8141   23.7335 C   0  0  0  0  0  0  0  0  0  0  0  0
  -28.0207  -12.8675   21.2429 C   0  0  0  0  0  0  0  0  0  0  0  0
  -30.1021  -14.0907   21.8912 C   0  0  0  0  0  0  0  0  0  0  0  0
  -25.7629  -26.7854   20.7098 C   0  0  0  0  0  0  0  0  0  0  0  0
  -23.3325  -28.7722   21.5270 C   0  0  0  0  0  0  0  0  0  0  0  0
  -20.1026  -29.1214   22.5724 C   0  0  0  0  0  0  0  0  0  0  0  0
  -22.1133  -11.9796   20.8363 C   0  0  0  0  0  0  0  0  0  0  0  0
  -30.9337  -26.6463   19.2572 C   0  0  0  0  0  0  0  0  0  0  0  0
  -23.8899  -25.9089   19.2678 C   0  0  0  0  0  0  0  0  0  0  0  0
  -23.0198  -26.3268   22.0630 C   0  0  0  0  0  0  0  0  0  0  0  0
  -30.3627  -27.2582   20.5323 C   0  0  0  0  0  0  0  0  0  0  0  0
  -24.6132  -10.8151   18.5844 C   0  0  0  0  0  0  0  0  0  0  0  0
  -28.8728  -27.5152   20.3635 C   0  0  0  0  0  0  0  0  0  0  0  0
  -25.8382  -11.6651   18.9264 C   0  0  0  0  0  0  0  0  0  0  0  0
  -18.7800  -13.2994   23.8118 C   0  0  0  0  0  0  0  0  0  0  0  0
  -23.3190  -11.6169   18.7030 C   0  0  0  0  0  0  0  0  0  0  0  0
  -24.3499  -13.1415   20.3421 C   0  0  0  0  0  0  0  0  0  0  0  0
  -18.0335  -14.6190   23.7119 C   0  0  0  0  0  0  0  0  0  0  0  0
  -20.3834  -14.8802   23.0868 C   0  0  0  0  0  0  0  0  0  0  0  0
  -28.1133  -26.2008   20.1434 C   0  0  1  0  0  0  0  0  0  0  0  0
  -24.4158  -27.0688   20.1077 C   0  0  1  0  0  0  0  0  0  0  0  0
  -19.9278  -13.4544   22.8250 C   0  0  1  0  0  0  0  0  0  0  0  0
  -25.6745  -12.3611   20.2910 C   0  0  2  0  0  0  0  0  0  0  0  0
  -18.4097  -30.8680   23.1894 C   0  0  0  0  0  0  0  0  0  0  0  0
  -24.7330  -29.1795   24.2071 C   0  0  0  0  0  0  0  0  0  0  0  0
  -22.5943  -30.1245   25.1021 C   0  0  0  0  0  0  0  0  0  0  0  0
  -23.7617  -31.2578   23.2111 C   0  0  0  0  0  0  0  0  0  0  0  0
  -18.2732  -28.2804   20.4033 C   0  0  0  0  0  0  0  0  0  0  0  0
  -19.1982  -16.8180   24.1784 C   0  0  0  0  0  0  0  0  0  0  0  0
  -21.0327  -12.4321   23.0242 C   0  0  0  0  0  0  0  0  0  0  0  0
  -21.8942  -20.2808   21.6998 C   0  0  0  0  0  0  0  0  0  1  0  0
  -22.5725  -29.0652   22.7981 C   0  0  1  0  0  0  0  0  0  0  0  0
  -18.9717  -30.0021   22.0726 C   0  0  2  0  0  0  0  0  0  0  0  0
  -23.4160  -29.8806   23.8184 C   0  0  0  0  0  0  0  0  0  0  0  0
  -26.8318  -14.5388   20.2729 N   0  0  0  0  0  0  0  0  0  0  0  0
  -21.2533  -18.1524   24.5119 N   0  0  0  0  0  0  0  0  0  0  0  0
  -21.9619  -19.0652   23.8564 N   0  0  0  0  0  0  0  0  0  0  0  0
  -21.3392  -19.2898   22.6881 N   0  0  0  0  0  0  0  0  0  0  0  0
  -26.8674  -13.2404   20.6176 N   0  0  0  0  0  0  0  0  0  0  0  0
  -23.5198  -27.4190   21.2118 N   0  0  0  0  0  0  0  0  0  0  0  0
  -23.2244  -12.2500   20.0206 N   0  0  0  0  0  0  0  0  0  0  0  0
  -28.2219  -11.5984   21.6568 N   0  0  0  0  0  0  0  0  0  0  0  0
  -31.2137  -13.8567   21.0704 N   0  0  0  0  0  0  0  0  0  0  0  0
  -26.7456  -26.5008   19.7810 N   0  0  0  0  0  0  0  0  0  0  0  0
  -21.3326  -29.7176   22.3912 N   0  0  0  0  0  0  0  0  0  0  0  0
  -22.1051  -12.6155   22.0718 N   0  0  0  0  0  0  0  0  0  0  0  0
  -19.0813  -15.6291   23.2798 N   0  3  2  0  0  0  0  0  0  0  0  0
  -17.8667  -29.1654   21.5252 N   0  3  0  0  0  0  0  0  0  0  0  0
  -30.2795  -14.3542   23.1047 O   0  0  0  0  0  0  0  0  0  0  0  0
  -25.9010  -26.8237   21.9268 O   0  0  0  0  0  0  0  0  0  0  0  0
  -23.7386  -29.7096   20.8356 O   0  0  0  0  0  0  0  0  0  0  0  0
  -19.9135  -28.0167   23.0768 O   0  0  0  0  0  0  0  0  0  0  0  0
  -21.1991  -11.2232   20.4915 O   0  0  0  0  0  0  0  0  0  0  0  0
  -29.3656  -20.3728   19.9605 O   0  0  0  0  0  0  0  0  0  0  0  0
  -21.9456  -21.5613   22.3353 O   0  0  0  0  0  0  0  0  0  1  0  0
  -26.9563  -24.0969   23.2362 F   0  0  0  0  0  0  0  0  0  0  0  0
  -26.6167  -20.6643   19.9947 F   0  0  0  0  0  0  0  0  0  0  0  0
  1  2  1  0  0  0  0
  1  5  2  0  0  0  0
  2  6  2  0  0  0  0
  3  8  2  0  0  0  0
  3 16  1  0  0  0  0
  4  9  1  0  0  0  0
  4 16  2  0  0  0  0
  5 18  1  0  0  0  0
  6 20  1  0  0  0  0
  7 10  2  0  0  0  0
  7 19  1  0  0  0  0
  8 22  1  0  0  0  0
  9 22  2  0  0  0  0
 10 23  1  0  0  0  0
 11 12  2  0  0  0  0
 11 24  1  0  0  0  0
 12 25  1  0  0  0  0
 13 21  1  0  0  0  0
 13 23  2  0  0  0  0
 14 25  2  0  0  0  0
 14 26  1  0  0  0  0
 15 28  2  0  0  0  0
 15 65  1  0  0  0  0
 16 27  1  0  0  0  0
 17 27  1  0  0  0  0
 17 29  2  0  0  0  0
 17 30  1  0  0  0  0
 18 20  2  0  0  0  0
 18 35  1  0  0  0  0
 19 21  2  0  0  0  0
 19 36  1  0  0  0  0
 20 47  1  0  0  0  0
 21 37  1  0  0  0  0
 22 81  1  0  0  0  0
 23 82  1  0  0  0  0
 24 26  2  0  0  0  0
 24 81  1  0  0  0  0
 25 83  1  0  0  0  0
 26 84  1  0  0  0  0
 27 62  2  0  0  0  0
 28 56  1  0  0  0  0
 28 63  1  0  0  0  0
 29 66  1  0  0  0  0
 29 69  1  0  0  0  0
 30 70  1  0  0  0  0
 30 76  2  0  0  0  0
 31 48  1  0  0  0  0
 31 71  1  0  0  0  0
 31 77  2  0  0  0  0
 32 59  1  0  0  0  0
 32 67  1  0  0  0  0
 32 78  2  0  0  0  0
 33 60  1  0  0  0  0
 33 72  1  0  0  0  0
 33 79  2  0  0  0  0
 34 68  1  0  0  0  0
 34 73  1  0  0  0  0
 34 80  2  0  0  0  0
 35 38  1  0  0  0  0
 36 48  1  0  0  0  0
 37 67  1  0  0  0  0
 38 40  1  0  0  0  0
 39 41  1  0  0  0  0
 39 43  1  0  0  0  0
 40 47  1  0  0  0  0
 41 50  1  0  0  0  0
 42 45  1  0  0  0  0
 42 49  1  0  0  0  0
 43 68  1  0  0  0  0
 44 50  1  0  0  0  0
 44 68  1  0  0  0  0
 45 74  1  0  0  0  0
 46 49  1  0  0  0  0
 46 74  1  0  0  0  0
 47 71  1  0  0  0  0
 48 67  1  0  0  0  0
 49 57  1  0  0  0  0
 50 66  1  0  0  0  0
 51 60  1  0  0  0  0
 52 61  1  0  0  0  0
 53 61  1  0  0  0  0
 54 61  1  0  0  0  0
 55 75  1  0  0  0  0
 56 74  1  0  0  0  0
 57 73  1  0  0  0  0
 58 65  1  0  0  0  0
 58 82  1  0  0  0  0
 59 61  1  0  0  0  0
 59 72  1  0  0  0  0
 60 75  1  0  0  0  0
 62 66  1  0  0  0  0
 63 64  2  0  0  0  0
 64 65  1  0  0  0  0
M  CHG  2  74   1  75   1
M  ISO  4  34 100  58 101  73 100  82 101
M  END
> <Batch ID>
0180

> <Smiles>
CNC(C)C(=O)NC(C(=O)N1Cc2cc([101O:1][101CH2:1]n3cc(CN4CCC(C[100NH:0][100C:0](=O)N5CCCC(n6nc(-c7ccc(Oc8ccc(F)cc8F)cc7)c(C(N)=O)c6N)C5)C4)nn3)ccc2CC1C(=O)NC1CCCc2ccccc21)C(C)(C)C

> <Shape>
0.261

> <Color>
0.053

> <Negative vol penalty>
0.000

$$$$

  -OEChem-04052323003D

 85 95  0     1  0  0  0  0  0999 V2000
  -30.7841  -26.4913   16.2651 C   0  0  0  0  0  0  0  0  0  0  0  0
  -29.4235  -26.2621   16.4433 C   0  0  0  0  0  0  0  0  0  0  0  0
  -22.1043  -10.7096   21.6099 C   0  0  0  0  0  0  0  0  0  0  0  0
  -24.3495  -10.0730   20.9848 C   0  0  0  0  0  0  0  0  0  0  0  0
  -31.5533  -26.9725   17.3237 C   0  0  0  0  0  0  0  0  0  0  0  0
  -28.8316  -26.5129   17.6807 C   0  0  0  0  0  0  0  0  0  0  0  0
  -23.1615  -28.5929   18.6954 C   0  0  0  0  0  0  0  0  0  0  0  0
  -21.7292   -9.3663   21.6306 C   0  0  0  0  0  0  0  0  0  0  0  0
  -23.9745   -8.7297   21.0056 C   0  0  0  0  0  0  0  0  0  0  0  0
  -21.9719  -27.9480   19.0312 C   0  0  0  0  0  0  0  0  0  0  0  0
  -22.0433   -6.7243   23.7173 C   0  0  0  0  0  0  0  0  0  0  0  0
  -21.2802   -6.2809   24.7975 C   0  0  0  0  0  0  0  0  0  0  0  0
  -22.3719  -28.4358   21.3596 C   0  0  0  0  0  0  0  0  0  0  0  0
  -19.5098   -5.6399   23.2836 C   0  0  0  0  0  0  0  0  0  0  0  0
  -19.8742  -23.7104   18.7567 C   0  0  0  0  0  0  0  0  0  0  0  0
  -23.4144  -11.0630   21.2869 C   0  0  0  0  0  0  0  0  0  0  0  0
  -24.3151  -13.2070   22.3355 C   0  0  0  0  0  0  0  0  0  0  0  0
  -30.9686  -27.2385   18.5719 C   0  0  0  0  0  0  0  0  0  0  0  0
  -23.9720  -29.1555   19.6918 C   0  0  0  0  0  0  0  0  0  0  0  0
  -29.5940  -26.9968   18.7574 C   0  0  0  0  0  0  0  0  0  0  0  0
  -23.5700  -29.0895   21.0335 C   0  0  0  0  0  0  0  0  0  0  0  0
  -22.6643   -8.3763   21.3285 C   0  0  0  0  0  0  0  0  0  0  0  0
  -21.5784  -27.8668   20.3637 C   0  0  0  0  0  0  0  0  0  0  0  0
  -21.5396   -6.6255   22.4203 C   0  0  0  0  0  0  0  0  0  0  0  0
  -20.0135   -5.7387   24.5806 C   0  0  0  0  0  0  0  0  0  0  0  0
  -20.2729   -6.0833   22.2034 C   0  0  0  0  0  0  0  0  0  0  0  0
  -23.8023  -12.4505   21.2648 C   0  0  0  0  0  0  0  0  0  0  0  0
  -20.4587  -22.5279   19.1537 C   0  0  0  0  0  0  0  0  0  0  0  0
  -20.3501  -23.2067   21.3349 C   0  0  0  0  0  0  0  0  0  0  0  0
  -19.7663  -24.3894   20.9377 C   0  0  0  0  0  0  0  0  0  0  0  0
  -24.5225  -14.4567   21.8047 C   0  0  0  0  0  0  0  0  0  0  0  0
  -24.5804  -12.8151   23.6889 C   0  0  0  0  0  0  0  0  0  0  0  0
  -26.9374  -28.6530   20.7203 C   0  0  0  0  0  0  0  0  0  0  0  0
  -26.3289  -31.2617   22.5497 C   0  0  0  0  0  0  0  0  0  0  0  0
  -24.0159  -33.2642   24.0618 C   0  0  0  0  0  0  0  0  0  0  0  0
  -22.6018  -18.6959   18.8565 C   0  0  0  0  0  0  0  0  0  0  0  0
  -31.8500  -27.7130   19.7001 C   0  0  0  0  0  0  0  0  0  0  0  0
  -25.2389  -29.8711   19.3106 C   0  0  0  0  0  0  0  0  0  0  0  0
  -24.3943  -29.6951   22.1391 C   0  0  0  0  0  0  0  0  0  0  0  0
  -31.0727  -28.3085   20.8712 C   0  0  0  0  0  0  0  0  0  0  0  0
  -24.4481  -16.0744   17.0313 C   0  0  0  0  0  0  0  0  0  0  0  0
  -29.8976  -27.4100   21.2440 C   0  0  0  0  0  0  0  0  0  0  0  0
  -21.8891  -23.4376   23.3970 C   0  0  0  0  0  0  0  0  0  0  0  0
  -21.7149  -21.9719   23.1490 C   0  0  0  0  0  0  0  0  0  0  0  0
  -24.4343  -14.9408   18.0525 C   0  0  0  0  0  0  0  0  0  0  0  0
  -21.7271  -21.9054   16.9912 C   0  0  0  0  0  0  0  0  0  0  0  0
  -23.1768  -16.9199   17.0958 C   0  0  0  0  0  0  0  0  0  0  0  0
  -22.8711  -16.3166   19.4805 C   0  0  0  0  0  0  0  0  0  0  0  0
  -28.9106  -27.2803   20.0776 C   0  0  1  0  0  0  0  0  0  0  0  0
  -20.8341  -21.5073   18.1370 C   0  0  1  0  0  0  0  0  0  0  0  0
  -20.6141  -22.9299   22.7768 C   0  0  0  0  0  0  0  0  0  0  0  0
  -26.2432  -29.9590   20.4556 C   0  0  1  0  0  0  0  0  0  0  0  0
  -24.1629  -15.4850   19.4634 C   0  0  1  0  0  0  0  0  0  0  0  0
  -22.2656  -21.0225   18.0779 C   0  0  1  0  0  0  0  0  0  0  0  0
  -23.8231  -35.2980   25.5193 C   0  0  0  0  0  0  0  0  0  0  0  0
  -27.1580  -29.6015   24.9718 C   0  0  0  0  0  0  0  0  0  0  0  0
  -26.0621  -31.3138   26.4331 C   0  0  0  0  0  0  0  0  0  0  0  0
  -27.9908  -31.9596   24.9888 C   0  0  0  0  0  0  0  0  0  0  0  0
  -22.4987  -34.7436   21.9958 C   0  0  0  0  0  0  0  0  0  0  0  0
  -19.3713  -25.4502   21.9362 C   0  0  0  0  0  0  0  0  0  0  0  0
  -20.3622  -26.6085   21.9741 C   0  0  0  0  0  0  0  0  0  1  0  0
  -25.7463  -31.4919   23.9232 C   0  0  1  0  0  0  0  0  0  0  0  0
  -23.8563  -34.7736   24.0922 C   0  0  2  0  0  0  0  0  0  0  0  0
  -26.7245  -31.0785   25.0588 C   0  0  0  0  0  0  0  0  0  0  0  0
  -19.5175  -24.6624   19.6415 N   0  0  0  0  0  0  0  0  0  0  0  0
  -23.6906  -13.1603   20.1388 N   0  0  0  0  0  0  0  0  0  0  0  0
  -20.7071  -22.2548   20.4500 N   0  0  0  0  0  0  0  0  0  0  0  0
  -24.1361  -14.3759   20.4992 N   0  0  0  0  0  0  0  0  0  0  0  0
  -25.6278  -30.3786   21.7163 N   0  0  0  0  0  0  0  0  0  0  0  0
  -22.9004  -17.3779   18.4665 N   0  0  0  0  0  0  0  0  0  0  0  0
  -24.9959  -15.6057   22.3319 N   0  0  0  0  0  0  0  0  0  0  0  0
  -24.3100  -11.4929   24.0669 N   0  0  0  0  0  0  0  0  0  0  0  0
  -28.0877  -28.4665   19.9776 N   0  0  0  0  0  0  0  0  0  0  0  0
  -25.3402  -32.8926   23.9647 N   0  0  0  0  0  0  0  0  0  0  0  0
  -22.5638  -19.6366   17.8334 N   0  0  0  0  0  0  0  0  0  0  0  0
  -22.5909  -35.1743   23.4146 N   0  3  0  0  0  0  0  0  0  0  0  0
  -25.0281  -13.6182   24.5423 O   0  0  0  0  0  0  0  0  0  0  0  0
  -26.4652  -27.8728   21.5389 O   0  0  0  0  0  0  0  0  0  0  0  0
  -27.3639  -31.8493   22.2255 O   0  0  0  0  0  0  0  0  0  0  0  0
  -23.0616  -32.4921   24.1223 O   0  0  0  0  0  0  0  0  0  0  0  0
  -22.3790  -19.0130   20.0302 O   0  0  0  0  0  0  0  0  0  0  0  0
  -22.2987   -7.0654   21.3489 O   0  0  0  0  0  0  0  0  0  0  0  0
  -20.4181  -27.2374   20.6944 O   0  0  0  0  0  0  0  0  0  1  0  0
  -19.2814   -5.3115   25.6179 F   0  0  0  0  0  0  0  0  0  0  0  0
  -19.7841   -5.9847   20.9596 F   0  0  0  0  0  0  0  0  0  0  0  0
  1  2  1  0  0  0  0
  1  5  2  0  0  0  0
  2  6  2  0  0  0  0
  3  8  2  0  0  0  0
  3 16  1  0  0  0  0
  4  9  1  0  0  0  0
  4 16  2  0  0  0  0
  5 18  1  0  0  0  0
  6 20  1  0  0  0  0
  7 10  2  0  0  0  0
  7 19  1  0  0  0  0
  8 22  1  0  0  0  0
  9 22  2  0  0  0  0
 10 23  1  0  0  0  0
 11 12  2  0  0  0  0
 11 24  1  0  0  0  0
 12 25  1  0  0  0  0
 13 21  1  0  0  0  0
 13 23  2  0  0  0  0
 14 25  2  0  0  0  0
 14 26  1  0  0  0  0
 15 28  1  0  0  0  0
 15 65  2  0  0  0  0
 16 27  1  0  0  0  0
 17 27  1  0  0  0  0
 17 31  2  0  0  0  0
 17 32  1  0  0  0  0
 18 20  2  0  0  0  0
 18 37  1  0  0  0  0
 19 21  2  0  0  0  0
 19 38  1  0  0  0  0
 20 49  1  0  0  0  0
 21 39  1  0  0  0  0
 22 82  1  0  0  0  0
 23 83  1  0  0  0  0
 24 26  2  0  0  0  0
 24 82  1  0  0  0  0
 25 84  1  0  0  0  0
 26 85  1  0  0  0  0
 27 66  2  0  0  0  0
 28 50  1  0  0  0  0
 28 67  2  0  0  0  0
 29 30  2  0  0  0  0
 29 51  1  0  0  0  0
 29 67  1  0  0  0  0
 30 60  1  0  0  0  0
 30 65  1  0  0  0  0
 31 68  1  0  0  0  0
 31 71  1  0  0  0  0
 32 72  1  0  0  0  0
 32 77  2  0  0  0  0
 33 52  1  0  0  0  0
 33 73  1  0  0  0  0
 33 78  2  0  0  0  0
 34 62  1  0  0  0  0
 34 69  1  0  0  0  0
 34 79  2  0  0  0  0
 35 63  1  0  0  0  0
 35 74  1  0  0  0  0
 35 80  2  0  0  0  0
 36 70  1  0  0  0  0
 36 75  1  0  0  0  0
 36 81  2  0  0  0  0
 37 40  1  0  0  0  0
 38 52  1  0  0  0  0
 39 69  1  0  0  0  0
 40 42  1  0  0  0  0
 41 45  1  0  0  0  0
 41 47  1  0  0  0  0
 42 49  1  0  0  0  0
 43 44  1  0  0  0  0
 43 51  1  0  0  0  0
 44 51  1  0  0  0  0
 45 53  1  0  0  0  0
 46 50  1  0  0  0  0
 46 54  1  0  0  0  0
 47 70  1  0  0  0  0
 48 53  1  0  0  0  0
 48 70  1  0  0  0  0
 49 73  1  0  0  0  0
 50 54  1  0  0  0  0
 52 69  1  0  0  0  0
 53 68  1  0  0  0  0
 54 75  1  0  0  0  0
 55 63  1  0  0  0  0
 56 64  1  0  0  0  0
 57 64  1  0  0  0  0
 58 64  1  0  0  0  0
 59 76  1  0  0  0  0
 60 61  1  0  0  0  0
 61 83  1  0  0  0  0
 62 64  1  0  0  0  0
 62 74  1  0  0  0  0
 63 76  1  0  0  0  0
 66 68  1  0  0  0  0
M  CHG  1  76   1
M  ISO  4  36 100  61 101  75 100  83 101
M  END
> <Batch ID>
0180

> <Smiles>
CNC(C)C(=O)NC(C(=O)N1Cc2cc([101O:1][101CH2:1]Cc3ncc(C4CC4[100NH:0][100C:0](=O)N4CCCC(n5nc(-c6ccc(Oc7ccc(F)cc7F)cc6)c(C(N)=O)c5N)C4)nc3C3CC3)ccc2CC1C(=O)NC1CCCc2ccccc21)C(C)(C)C

> <Shape>
0.253

> <Color>
0.081

> <Negative vol penalty>
0.000

$$$$

  -OEChem-04052323003D

 86 95  0     1  0  0  0  0  0999 V2000
  -17.8579  -27.8836   21.6468 C   0  0  0  0  0  0  0  0  0  0  0  0
  -18.7526  -26.8183   21.6330 C   0  0  0  0  0  0  0  0  0  0  0  0
  -22.9808  -10.0097   19.9297 C   0  0  0  0  0  0  0  0  0  0  0  0
  -23.8924   -9.7789   22.1552 C   0  0  0  0  0  0  0  0  0  0  0  0
  -18.0883  -28.9751   22.4831 C   0  0  0  0  0  0  0  0  0  0  0  0
  -19.8788  -26.8445   22.4547 C   0  0  0  0  0  0  0  0  0  0  0  0
  -28.9033  -17.7551   24.9106 C   0  0  0  0  0  0  0  0  0  0  0  0
  -22.5259  -22.0677   25.2262 C   0  0  0  0  0  0  0  0  0  0  0  0
  -27.6991  -18.4355   25.1019 C   0  0  0  0  0  0  0  0  0  0  0  0
  -22.2099   -8.8641   20.1266 C   0  0  0  0  0  0  0  0  0  0  0  0
  -23.1214   -8.6333   22.3521 C   0  0  0  0  0  0  0  0  0  0  0  0
  -23.6344  -21.2887   24.8975 C   0  0  0  0  0  0  0  0  0  0  0  0
  -19.9116   -7.8924   23.1063 C   0  0  0  0  0  0  0  0  0  0  0  0
  -19.2339   -7.7698   24.3192 C   0  0  0  0  0  0  0  0  0  0  0  0
  -27.6097  -18.9263   22.7496 C   0  0  0  0  0  0  0  0  0  0  0  0
  -25.0113  -22.6527   26.3337 C   0  0  0  0  0  0  0  0  0  0  0  0
  -20.4434   -5.7318   24.7891 C   0  0  0  0  0  0  0  0  0  0  0  0
  -23.8222  -10.4671   20.9439 C   0  0  0  0  0  0  0  0  0  0  0  0
  -24.2559  -12.9796   21.0278 C   0  0  0  0  0  0  0  0  0  0  0  0
  -19.2129  -29.0103   23.3225 C   0  0  0  0  0  0  0  0  0  0  0  0
  -22.6542  -23.1536   26.1042 C   0  0  0  0  0  0  0  0  0  0  0  0
  -29.4763  -17.6298   23.6320 C   0  0  0  0  0  0  0  0  0  0  0  0
  -20.1252  -27.9382   23.3020 C   0  0  0  0  0  0  0  0  0  0  0  0
  -28.8271  -18.2535   22.5448 C   0  0  0  0  0  0  0  0  0  0  0  0
  -23.9024  -23.4424   26.6739 C   0  0  0  0  0  0  0  0  0  0  0  0
  -27.0490  -19.0162   24.0206 C   0  0  0  0  0  0  0  0  0  0  0  0
  -22.2802   -8.1759   21.3379 C   0  0  0  0  0  0  0  0  0  0  0  0
  -24.8780  -21.5829   25.4489 C   0  0  0  0  0  0  0  0  0  0  0  0
  -20.8552   -6.9346   22.7347 C   0  0  0  0  0  0  0  0  0  0  0  0
  -19.4998   -6.6896   25.1606 C   0  0  0  0  0  0  0  0  0  0  0  0
  -21.1212   -5.8544   23.5761 C   0  0  0  0  0  0  0  0  0  0  0  0
  -24.6192  -11.6501   20.7409 C   0  0  0  0  0  0  0  0  0  0  0  0
  -25.3503  -13.7222   20.6574 C   0  0  0  0  0  0  0  0  0  0  0  0
  -23.0380  -13.4969   21.5799 C   0  0  0  0  0  0  0  0  0  0  0  0
  -22.2121  -26.2925   25.8691 C   0  0  0  0  0  0  0  0  0  0  0  0
  -22.7971  -26.2206   29.0589 C   0  0  0  0  0  0  0  0  0  0  0  0
  -24.2256  -24.6099   31.7069 C   0  0  0  0  0  0  0  0  0  0  0  0
  -30.8707  -14.5342   20.5501 C   0  0  0  0  0  0  0  0  0  0  0  0
  -19.4447  -30.2331   24.1745 C   0  0  0  0  0  0  0  0  0  0  0  0
  -21.4433  -23.9678   26.4695 C   0  0  0  0  0  0  0  0  0  0  0  0
  -29.3686  -18.1882   21.1383 C   0  0  0  0  0  0  0  0  0  0  0  0
  -24.0890  -24.5849   27.6375 C   0  0  0  0  0  0  0  0  0  0  0  0
  -20.4641  -30.0141   25.2895 C   0  0  0  0  0  0  0  0  0  0  0  0
  -30.8321  -17.7644   21.0729 C   0  0  0  0  0  0  0  0  0  0  0  0
  -29.4812  -12.4204   18.0446 C   0  0  0  0  0  0  0  0  0  0  0  0
  -21.7014  -29.3039   24.7498 C   0  0  0  0  0  0  0  0  0  0  0  0
  -28.0654  -12.1364   18.5494 C   0  0  0  0  0  0  0  0  0  0  0  0
  -30.4849  -12.4981   19.1929 C   0  0  0  0  0  0  0  0  0  0  0  0
  -28.7111  -13.1614   20.7701 C   0  0  0  0  0  0  0  0  0  0  0  0
  -30.8104  -16.9132   23.4458 C   0  0  2  0  0  0  0  0  0  0  0  0
  -21.3453  -27.9186   24.1971 C   0  0  1  0  0  0  0  0  0  0  0  0
  -21.7925  -25.3646   26.9739 C   0  0  1  0  0  0  0  0  0  0  0  0
  -27.6540  -13.1294   19.6530 C   0  0  2  0  0  0  0  0  0  0  0  0
  -31.1052  -16.5576   21.9678 C   0  0  1  0  0  0  0  0  0  0  0  0
  -24.5688  -24.8134   34.1844 C   0  0  0  0  0  0  0  0  0  0  0  0
  -24.9494  -28.3309   28.5850 C   0  0  0  0  0  0  0  0  0  0  0  0
  -25.8708  -27.7997   30.8515 C   0  0  0  0  0  0  0  0  0  0  0  0
  -23.5561  -28.7024   30.6283 C   0  0  0  0  0  0  0  0  0  0  0  0
  -33.7757  -13.1400   24.8637 C   0  0  0  0  0  0  0  0  0  0  0  0
  -22.7565  -22.0953   32.2340 C   0  0  0  0  0  0  0  0  0  0  0  0
  -25.7528  -19.7428   24.2224 C   0  0  0  0  0  0  0  0  0  1  0  0
  -30.9943  -15.6753   24.3391 C   0  0  0  0  0  0  0  0  0  0  0  0
  -32.3574  -15.0552   24.1158 C   0  0  0  0  0  0  0  0  0  0  0  0
  -24.0316  -26.3219   29.9220 C   0  0  1  0  0  0  0  0  0  0  0  0
  -23.6853  -24.2541   33.0801 C   0  0  2  0  0  0  0  0  0  0  0  0
  -24.5992  -27.7683   29.9770 C   0  0  0  0  0  0  0  0  0  0  0  0
  -25.8484  -11.5508   20.2276 N   0  0  0  0  0  0  0  0  0  0  0  0
  -26.2668  -12.8274   20.1891 N   0  0  0  0  0  0  0  0  0  0  0  0
  -22.8763  -25.3554   27.9585 N   0  0  0  0  0  0  0  0  0  0  0  0
  -30.0365  -13.4582   20.2043 N   0  0  0  0  0  0  0  0  0  0  0  0
  -25.6084  -15.0469   20.6899 N   0  0  0  0  0  0  0  0  0  0  0  0
  -22.0154  -12.5950   21.9044 N   0  0  0  0  0  0  0  0  0  0  0  0
  -21.1650  -26.9740   25.2787 N   0  0  0  0  0  0  0  0  0  0  0  0
  -23.6658  -25.7736   31.2235 N   0  0  0  0  0  0  0  0  0  0  0  0
  -30.3669  -15.4008   21.5124 N   0  0  0  0  0  0  0  0  0  0  0  0
  -32.4656  -13.8406   24.9592 N   0  3  0  0  0  0  0  0  0  0  0  0
  -23.6125  -22.7743   33.2407 N   0  3  0  0  0  0  0  0  0  0  0  0
  -22.8555  -14.7242   21.7642 O   0  0  0  0  0  0  0  0  0  0  0  0
  -23.3982  -26.3846   25.5751 O   0  0  0  0  0  0  0  0  0  0  0  0
  -21.7969  -26.8794   29.3544 O   0  0  0  0  0  0  0  0  0  0  0  0
  -25.0635  -23.9260   31.1230 O   0  0  0  0  0  0  0  0  0  0  0  0
  -31.9798  -14.7125   20.0353 O   0  0  0  0  0  0  0  0  0  0  0  0
  -21.5278   -7.0581   21.5305 O   0  0  0  0  0  0  0  0  0  0  0  0
  -25.9617  -20.8246   25.1292 O   0  0  0  0  0  0  0  0  0  1  0  0
  -18.8500   -6.5728   26.3261 F   0  0  0  0  0  0  0  0  0  0  0  0
  -22.0274   -4.9317   23.2251 F   0  0  0  0  0  0  0  0  0  0  0  0
  1  2  1  0  0  0  0
  1  5  2  0  0  0  0
  2  6  2  0  0  0  0
  3 10  2  0  0  0  0
  3 18  1  0  0  0  0
  4 11  1  0  0  0  0
  4 18  2  0  0  0  0
  5 20  1  0  0  0  0
  6 23  1  0  0  0  0
  7  9  2  0  0  0  0
  7 22  1  0  0  0  0
  8 12  2  0  0  0  0
  8 21  1  0  0  0  0
  9 26  1  0  0  0  0
 10 27  1  0  0  0  0
 11 27  2  0  0  0  0
 12 28  1  0  0  0  0
 13 14  2  0  0  0  0
 13 29  1  0  0  0  0
 14 30  1  0  0  0  0
 15 24  1  0  0  0  0
 15 26  2  0  0  0  0
 16 25  1  0  0  0  0
 16 28  2  0  0  0  0
 17 30  2  0  0  0  0
 17 31  1  0  0  0  0
 18 32  1  0  0  0  0
 19 32  1  0  0  0  0
 19 33  2  0  0  0  0
 19 34  1  0  0  0  0
 20 23  2  0  0  0  0
 20 39  1  0  0  0  0
 21 25  2  0  0  0  0
 21 40  1  0  0  0  0
 22 24  2  0  0  0  0
 22 50  1  0  0  0  0
 23 51  1  0  0  0  0
 24 41  1  0  0  0  0
 25 42  1  0  0  0  0
 26 61  1  0  0  0  0
 27 83  1  0  0  0  0
 28 84  1  0  0  0  0
 29 31  2  0  0  0  0
 29 83  1  0  0  0  0
 30 85  1  0  0  0  0
 31 86  1  0  0  0  0
 32 67  2  0  0  0  0
 33 68  1  0  0  0  0
 33 71  1  0  0  0  0
 34 72  1  0  0  0  0
 34 78  2  0  0  0  0
 35 52  1  0  0  0  0
 35 73  1  0  0  0  0
 35 79  2  0  0  0  0
 36 64  1  0  0  0  0
 36 69  1  0  0  0  0
 36 80  2  0  0  0  0
 37 65  1  0  0  0  0
 37 74  1  0  0  0  0
 37 81  2  0  0  0  0
 38 70  1  0  0  0  0
 38 75  1  0  0  0  0
 38 82  2  0  0  0  0
 39 43  1  0  0  0  0
 40 52  1  0  0  0  0
 41 44  1  0  0  0  0
 42 69  1  0  0  0  0
 43 46  1  0  0  0  0
 44 54  1  0  0  0  0
 45 47  1  0  0  0  0
 45 48  1  0  0  0  0
 46 51  1  0  0  0  0
 47 53  1  0  0  0  0
 48 70  1  0  0  0  0
 49 53  1  0  0  0  0
 49 70  1  0  0  0  0
 50 54  1  0  0  0  0
 50 62  1  0  0  0  0
 51 73  1  0  0  0  0
 52 69  1  0  0  0  0
 53 68  1  0  0  0  0
 54 75  1  0  0  0  0
 55 65  1  0  0  0  0
 56 66  1  0  0  0  0
 57 66  1  0  0  0  0
 58 66  1  0  0  0  0
 59 76  1  0  0  0  0
 60 77  1  0  0  0  0
 61 84  1  0  0  0  0
 62 63  1  0  0  0  0
 63 76  1  0  0  0  0
 64 66  1  0  0  0  0
 64 74  1  0  0  0  0
 65 77  1  0  0  0  0
 67 68  1  0  0  0  0
M  CHG  2  76   1  77   1
M  ISO  4  38 100  61 101  75 100  84 101
M  END
> <Batch ID>
0180

> <Smiles>
CNCCC1c2ccc([101CH2:1][101O:1]c3ccc4c(c3)CN(C(=O)C(NC(=O)C(C)NC)C(C)(C)C)C(C(=O)NC3CCCc5ccccc53)C4)cc2CCC1[100NH:0][100C:0](=O)N1CCCC(n2nc(-c3ccc(Oc4ccc(F)cc4F)cc3)c(C(N)=O)c2N)C1

> <Shape>
0.238

> <Color>
0.198

> <Negative vol penalty>
0.000

$$$$

  -OEChem-04052323003D

 82 91  0     1  0  0  0  0  0999 V2000
  -27.9907   -9.2296   21.5610 C   0  0  0  0  0  0  0  0  0  0  0  0
  -28.5992  -10.4319   21.2153 C   0  0  0  0  0  0  0  0  0  0  0  0
  -19.8060  -27.9871   23.9422 C   0  0  0  0  0  0  0  0  0  0  0  0
  -21.3592  -27.1084   25.5709 C   0  0  0  0  0  0  0  0  0  0  0  0
  -26.6000   -9.1401   21.6023 C   0  0  0  0  0  0  0  0  0  0  0  0
  -27.8172  -11.5453   20.9097 C   0  0  0  0  0  0  0  0  0  0  0  0
  -29.1204  -17.4048   22.1238 C   0  0  0  0  0  0  0  0  0  0  0  0
  -30.6732  -22.7775   16.7465 C   0  0  0  0  0  0  0  0  0  0  0  0
  -18.8343  -27.0895   24.3846 C   0  0  0  0  0  0  0  0  0  0  0  0
  -20.3874  -26.2109   26.0134 C   0  0  0  0  0  0  0  0  0  0  0  0
  -29.6568  -18.4276   21.3429 C   0  0  0  0  0  0  0  0  0  0  0  0
  -18.1002  -23.8150   23.9806 C   0  0  0  0  0  0  0  0  0  0  0  0
  -17.3665  -23.1270   23.0143 C   0  0  0  0  0  0  0  0  0  0  0  0
  -30.5156  -24.1192   17.0756 C   0  0  0  0  0  0  0  0  0  0  0  0
  -27.4294  -19.2138   20.8534 C   0  0  0  0  0  0  0  0  0  0  0  0
  -15.3265  -24.0943   23.8744 C   0  0  0  0  0  0  0  0  0  0  0  0
  -21.0685  -27.9965   24.5353 C   0  0  0  0  0  0  0  0  0  0  0  0
  -22.3084  -30.2258   24.5570 C   0  0  0  0  0  0  0  0  0  0  0  0
  -25.8006  -10.2555   21.3065 C   0  0  0  0  0  0  0  0  0  0  0  0
  -27.7318  -17.2719   22.2668 C   0  0  0  0  0  0  0  0  0  0  0  0
  -26.4145  -11.4703   20.9459 C   0  0  0  0  0  0  0  0  0  0  0  0
  -26.8780  -18.1899   21.6387 C   0  0  0  0  0  0  0  0  0  0  0  0
  -29.9903  -21.8054   17.4691 C   0  0  0  0  0  0  0  0  0  0  0  0
  -19.1250  -26.2014   25.4202 C   0  0  0  0  0  0  0  0  0  0  0  0
  -28.8112  -19.3306   20.7052 C   0  0  0  0  0  0  0  0  0  0  0  0
  -17.4470  -24.6427   24.8940 C   0  0  0  0  0  0  0  0  0  0  0  0
  -15.9797  -23.2667   22.9611 C   0  0  0  0  0  0  0  0  0  0  0  0
  -16.0602  -24.7823   24.8408 C   0  0  0  0  0  0  0  0  0  0  0  0
  -22.0729  -28.9230   24.0784 C   0  0  0  0  0  0  0  0  0  0  0  0
  -29.6704  -24.4341   18.1274 C   0  0  0  0  0  0  0  0  0  0  0  0
  -29.1688  -22.2239   18.5034 C   0  0  0  0  0  0  0  0  0  0  0  0
  -23.3604  -30.6840   23.8022 C   0  0  0  0  0  0  0  0  0  0  0  0
  -21.6362  -30.9565   25.5914 C   0  0  0  0  0  0  0  0  0  0  0  0
  -25.6051  -15.0283   21.5271 C   0  0  0  0  0  0  0  0  0  0  0  0
  -23.5685  -16.9814   23.1271 C   0  0  0  0  0  0  0  0  0  0  0  0
  -22.8340  -20.1283   24.2246 C   0  0  0  0  0  0  0  0  0  0  0  0
  -27.6605  -27.6895   20.9866 C   0  0  0  0  0  0  0  0  0  0  0  0
  -24.3008  -10.0975   21.3186 C   0  0  0  0  0  0  0  0  0  0  0  0
  -27.1698  -16.1792   23.1343 C   0  0  0  0  0  0  0  0  0  0  0  0
  -25.3807  -18.1030   21.7768 C   0  0  0  0  0  0  0  0  0  0  0  0
  -23.5486  -11.4256   21.3455 C   0  0  0  0  0  0  0  0  0  0  0  0
  -25.4156  -30.2133   19.5355 C   0  0  0  0  0  0  0  0  0  0  0  0
  -24.1330  -12.3910   20.3191 C   0  0  0  0  0  0  0  0  0  0  0  0
  -24.2860  -30.2229   20.5593 C   0  0  0  0  0  0  0  0  0  0  0  0
  -26.0537  -28.8323   19.3831 C   0  0  0  0  0  0  0  0  0  0  0  0
  -27.9433  -26.4153   18.7403 C   0  0  0  0  0  0  0  0  0  0  0  0
  -29.5736  -26.2764   20.0956 C   0  0  0  0  0  0  0  0  0  0  0  0
  -25.3643  -28.2554   21.7014 C   0  0  0  0  0  0  0  0  0  0  0  0
  -25.6006  -12.7068   20.6319 C   0  0  1  0  0  0  0  0  0  0  0  0
  -29.4032  -25.9230   18.6037 C   0  0  0  0  0  0  0  0  0  0  0  0
  -25.7248  -15.8289   22.7930 C   0  0  1  0  0  0  0  0  0  0  0  0
  -24.7749  -29.6582   21.9009 C   0  0  2  0  0  0  0  0  0  0  0  0
  -30.1551  -20.3664   17.1211 C   0  0  0  0  0  0  0  0  0  0  0  0
  -21.0816  -21.4205   25.4723 C   0  0  0  0  0  0  0  0  0  0  0  0
  -21.7713  -16.9197   20.6621 C   0  0  0  0  0  0  0  0  0  0  0  0
  -20.5711  -18.9192   21.5730 C   0  0  0  0  0  0  0  0  0  0  0  0
  -20.5562  -16.7722   22.8429 C   0  0  0  0  0  0  0  0  0  0  0  0
  -24.7475  -20.8986   26.3469 C   0  0  0  0  0  0  0  0  0  0  0  0
  -28.4076  -21.2191   19.3173 C   0  0  0  0  0  0  0  0  0  1  0  0
  -22.6796  -18.1411   22.7475 C   0  0  1  0  0  0  0  0  0  0  0  0
  -22.3842  -20.6430   25.5800 C   0  0  2  0  0  0  0  0  0  0  0  0
  -21.4227  -17.6888   21.9520 C   0  0  0  0  0  0  0  0  0  0  0  0
  -22.9081  -28.5760   23.0955 N   0  0  0  0  0  0  0  0  0  0  0  0
  -28.9905  -23.5177   18.8524 N   0  0  0  0  0  0  0  0  0  0  0  0
  -23.6786  -29.6675   22.9503 N   0  0  0  0  0  0  0  0  0  0  0  0
  -24.8793  -17.0134   22.6306 N   0  0  0  0  0  0  0  0  0  0  0  0
  -26.4132  -28.2416   20.6763 N   0  0  0  0  0  0  0  0  0  0  0  0
  -28.3651  -27.0852   19.9646 N   0  0  0  0  0  0  0  0  0  0  0  0
  -24.0351  -31.8532   23.7906 N   0  0  0  0  0  0  0  0  0  0  0  0
  -20.5761  -30.3364   26.2667 N   0  0  0  0  0  0  0  0  0  0  0  0
  -25.6922  -13.6621   21.7151 N   0  0  0  0  0  0  0  0  0  0  0  0
  -22.3794  -18.8483   23.9878 N   0  0  0  0  0  0  0  0  0  0  0  0
  -23.4207  -21.5411   26.1631 N   0  3  0  0  0  0  0  0  0  0  0  0
  -21.9553  -32.1307   25.8964 O   0  0  0  0  0  0  0  0  0  0  0  0
  -25.4441  -15.6072   20.4591 O   0  0  0  0  0  0  0  0  0  0  0  0
  -23.1185  -16.0839   23.8438 O   0  0  0  0  0  0  0  0  0  0  0  0
  -23.5170  -20.7965   23.4515 O   0  0  0  0  0  0  0  0  0  0  0  0
  -28.1173  -27.7028   22.1367 O   0  0  0  0  0  0  0  0  0  0  0  0
  -18.1769  -25.3256   25.8523 O   0  0  0  0  0  0  0  0  0  0  0  0
  -29.3321  -20.3295   19.9419 O   0  0  0  0  0  0  0  0  0  1  0  0
  -15.2754  -22.6071   22.0320 F   0  0  0  0  0  0  0  0  0  0  0  0
  -15.4273  -25.5769   25.7148 F   0  0  0  0  0  0  0  0  0  0  0  0
  1  2  1  0  0  0  0
  1  5  2  0  0  0  0
  2  6  2  0  0  0  0
  3  9  2  0  0  0  0
  3 17  1  0  0  0  0
  4 10  1  0  0  0  0
  4 17  2  0  0  0  0
  5 19  1  0  0  0  0
  6 21  1  0  0  0  0
  7 11  2  0  0  0  0
  7 20  1  0  0  0  0
  8 14  2  0  0  0  0
  8 23  1  0  0  0  0
  9 24  1  0  0  0  0
 10 24  2  0  0  0  0
 11 25  1  0  0  0  0
 12 13  2  0  0  0  0
 12 26  1  0  0  0  0
 13 27  1  0  0  0  0
 14 30  1  0  0  0  0
 15 22  1  0  0  0  0
 15 25  2  0  0  0  0
 16 27  2  0  0  0  0
 16 28  1  0  0  0  0
 17 29  1  0  0  0  0
 18 29  1  0  0  0  0
 18 32  2  0  0  0  0
 18 33  1  0  0  0  0
 19 21  2  0  0  0  0
 19 38  1  0  0  0  0
 20 22  2  0  0  0  0
 20 39  1  0  0  0  0
 21 49  1  0  0  0  0
 22 40  1  0  0  0  0
 23 31  2  0  0  0  0
 23 53  1  0  0  0  0
 24 79  1  0  0  0  0
 25 80  1  0  0  0  0
 26 28  2  0  0  0  0
 26 79  1  0  0  0  0
 27 81  1  0  0  0  0
 28 82  1  0  0  0  0
 29 63  2  0  0  0  0
 30 50  1  0  0  0  0
 30 64  2  0  0  0  0
 31 59  1  0  0  0  0
 31 64  1  0  0  0  0
 32 65  1  0  0  0  0
 32 69  1  0  0  0  0
 33 70  1  0  0  0  0
 33 74  2  0  0  0  0
 34 51  1  0  0  0  0
 34 71  1  0  0  0  0
 34 75  2  0  0  0  0
 35 60  1  0  0  0  0
 35 66  1  0  0  0  0
 35 76  2  0  0  0  0
 36 61  1  0  0  0  0
 36 72  1  0  0  0  0
 36 77  2  0  0  0  0
 37 67  1  0  0  0  0
 37 68  1  0  0  0  0
 37 78  2  0  0  0  0
 38 41  1  0  0  0  0
 39 51  1  0  0  0  0
 40 66  1  0  0  0  0
 41 43  1  0  0  0  0
 42 44  1  0  0  0  0
 42 45  1  0  0  0  0
 43 49  1  0  0  0  0
 44 52  1  0  0  0  0
 45 67  1  0  0  0  0
 46 50  1  0  0  0  0
 46 68  1  0  0  0  0
 47 50  1  0  0  0  0
 47 68  1  0  0  0  0
 48 52  1  0  0  0  0
 48 67  1  0  0  0  0
 49 71  1  0  0  0  0
 51 66  1  0  0  0  0
 52 65  1  0  0  0  0
 54 61  1  0  0  0  0
 55 62  1  0  0  0  0
 56 62  1  0  0  0  0
 57 62  1  0  0  0  0
 58 73  1  0  0  0  0
 59 80  1  0  0  0  0
 60 62  1  0  0  0  0
 60 72  1  0  0  0  0
 61 73  1  0  0  0  0
 63 65  1  0  0  0  0
M  CHG  1  73   1
M  ISO  4  37 100  59 101  68 100  80 101
M  END
> <Batch ID>
0180

> <Smiles>
CNC(C)C(=O)NC(C(=O)N1Cc2cc([101O:1][101CH2:1]c3nc(C4C[100N:0]([100C:0](=O)N5CCCC(n6nc(-c7ccc(Oc8ccc(F)cc8F)cc7)c(C(N)=O)c6N)C5)C4)ccc3C)ccc2CC1C(=O)NC1CCCc2ccccc21)C(C)(C)C

> <Shape>
0.193

> <Color>
0.092

> <Negative vol penalty>
0.000

$$$$

  -OEChem-04052323003D

 83 92  0     1  0  0  0  0  0999 V2000
  -16.6282  -30.6434   23.9432 C   0  0  0  0  0  0  0  0  0  0  0  0
  -17.1457  -29.4776   24.4987 C   0  0  0  0  0  0  0  0  0  0  0  0
  -23.3588   -9.5590   20.1407 C   0  0  0  0  0  0  0  0  0  0  0  0
  -23.7714  -10.0884   22.4616 C   0  0  0  0  0  0  0  0  0  0  0  0
  -17.2865  -31.2592   22.8796 C   0  0  0  0  0  0  0  0  0  0  0  0
  -18.3213  -28.9264   23.9902 C   0  0  0  0  0  0  0  0  0  0  0  0
  -24.1221  -25.2671   26.0581 C   0  0  0  0  0  0  0  0  0  0  0  0
  -22.6798   -8.4028   20.5251 C   0  0  0  0  0  0  0  0  0  0  0  0
  -23.0924   -8.9322   22.8460 C   0  0  0  0  0  0  0  0  0  0  0  0
  -24.8421  -24.1177   25.7354 C   0  0  0  0  0  0  0  0  0  0  0  0
  -23.7234   -5.6155   23.0249 C   0  0  0  0  0  0  0  0  0  0  0  0
  -24.3061   -4.8192   24.0108 C   0  0  0  0  0  0  0  0  0  0  0  0
  -25.9361  -25.3120   23.9477 C   0  0  0  0  0  0  0  0  0  0  0  0
  -22.3646   -5.1354   25.4136 C   0  0  0  0  0  0  0  0  0  0  0  0
  -27.2393  -18.6175   23.8252 C   0  0  0  0  0  0  0  0  0  0  0  0
  -23.9047  -10.4017   21.1089 C   0  0  0  0  0  0  0  0  0  0  0  0
  -24.0598  -12.8783   20.5173 C   0  0  0  0  0  0  0  0  0  0  0  0
  -18.4759  -30.7206   22.3640 C   0  0  0  0  0  0  0  0  0  0  0  0
  -24.2960  -26.4466   25.3198 C   0  0  0  0  0  0  0  0  0  0  0  0
  -18.9954  -29.5349   22.9178 C   0  0  0  0  0  0  0  0  0  0  0  0
  -25.2190  -26.4758   24.2646 C   0  0  0  0  0  0  0  0  0  0  0  0
  -28.6241  -18.6594   23.8107 C   0  0  0  0  0  0  0  0  0  0  0  0
  -29.2450  -19.8181   24.2636 C   0  0  0  0  0  0  0  0  0  0  0  0
  -28.4730  -20.8845   24.7109 C   0  0  0  0  0  0  0  0  0  0  0  0
  -22.5466   -8.0894   21.8777 C   0  0  0  0  0  0  0  0  0  0  0  0
  -25.7471  -24.1391   24.6783 C   0  0  0  0  0  0  0  0  0  0  0  0
  -22.4613   -6.1718   23.2334 C   0  0  0  0  0  0  0  0  0  0  0  0
  -23.6267   -4.5792   25.2052 C   0  0  0  0  0  0  0  0  0  0  0  0
  -21.7819   -5.9317   24.4277 C   0  0  0  0  0  0  0  0  0  0  0  0
  -24.6067  -11.5959   20.7124 C   0  0  0  0  0  0  0  0  0  0  0  0
  -27.0949  -20.7431   24.6850 C   0  0  0  0  0  0  0  0  0  0  0  0
  -25.1307  -13.6561   20.1504 C   0  0  0  0  0  0  0  0  0  0  0  0
  -22.7049  -13.3265   20.6555 C   0  0  0  0  0  0  0  0  0  0  0  0
  -22.4121  -28.2602   23.5128 C   0  0  0  0  0  0  0  0  0  0  0  0
  -25.0073  -30.2050   23.4419 C   0  0  0  0  0  0  0  0  0  0  0  0
  -28.3919  -30.5314   23.7327 C   0  0  0  0  0  0  0  0  0  0  0  0
  -30.4947  -15.1778   21.0285 C   0  0  0  0  0  0  0  0  0  0  0  0
  -19.1264  -31.3958   21.1826 C   0  0  0  0  0  0  0  0  0  0  0  0
  -23.5314  -27.6856   25.6975 C   0  0  0  0  0  0  0  0  0  0  0  0
  -25.4574  -27.7225   23.4538 C   0  0  0  0  0  0  0  0  0  0  0  0
  -20.5686  -30.9545   20.9468 C   0  0  0  0  0  0  0  0  0  0  0  0
  -29.8287  -12.4110   18.8298 C   0  0  0  0  0  0  0  0  0  0  0  0
  -20.6809  -29.4351   21.0218 C   0  0  0  0  0  0  0  0  0  0  0  0
  -28.3884  -12.0189   19.1423 C   0  0  0  0  0  0  0  0  0  0  0  0
  -30.5436  -12.8994   20.0825 C   0  0  0  0  0  0  0  0  0  0  0  0
  -28.7028  -16.2370   22.6182 C   0  0  0  0  0  0  0  0  0  0  0  0
  -30.2439  -17.5386   21.9670 C   0  0  0  0  0  0  0  0  0  0  0  0
  -28.4060  -13.7079   21.0472 C   0  0  0  0  0  0  0  0  0  0  0  0
  -29.4532  -17.4128   23.2895 C   0  0  0  0  0  0  0  0  0  0  0  0
  -20.2816  -28.9202   22.4100 C   0  0  1  0  0  0  0  0  0  0  0  0
  -23.4106  -28.6857   24.5518 C   0  0  1  0  0  0  0  0  0  0  0  0
  -27.6474  -13.1857   19.8110 C   0  0  2  0  0  0  0  0  0  0  0  0
  -30.7370  -19.9115   24.2676 C   0  0  0  0  0  0  0  0  0  0  0  0
  -29.1098  -22.1406   25.2038 C   0  0  0  0  0  0  0  0  0  0  0  0
  -30.2263  -32.2374   23.5850 C   0  0  0  0  0  0  0  0  0  0  0  0
  -24.8072  -30.1530   20.3976 C   0  0  0  0  0  0  0  0  0  0  0  0
  -27.1446  -31.0446   20.2984 C   0  0  0  0  0  0  0  0  0  0  0  0
  -25.3412  -32.3945   21.3699 C   0  0  0  0  0  0  0  0  0  0  0  0
  -29.1806  -30.0974   26.5520 C   0  0  0  0  0  0  0  0  0  0  0  0
  -26.2134  -21.8555   25.1512 C   0  0  0  0  0  0  0  0  0  1  0  0
  -26.2189  -30.3388   22.5514 C   0  0  1  0  0  0  0  0  0  0  0  0
  -29.2458  -31.5230   24.5021 C   0  0  2  0  0  0  0  0  0  0  0  0
  -25.8723  -30.9585   21.1682 C   0  0  0  0  0  0  0  0  0  0  0  0
  -26.4558  -19.6332   24.2522 N   0  0  0  0  0  0  0  0  0  0  0  0
  -25.9228  -11.5570   20.4878 N   0  0  0  0  0  0  0  0  0  0  0  0
  -26.2118  -12.8246   20.1477 N   0  0  0  0  0  0  0  0  0  0  0  0
  -24.6811  -28.9064   23.8579 N   0  0  0  0  0  0  0  0  0  0  0  0
  -29.8166  -13.9871   20.7443 N   0  0  0  0  0  0  0  0  0  0  0  0
  -29.8101  -16.1769   21.6794 N   0  0  0  0  0  0  0  0  0  0  0  0
  -25.2437  -14.9634   19.8328 N   0  0  0  0  0  0  0  0  0  0  0  0
  -21.7295  -12.3965   21.0402 N   0  0  0  0  0  0  0  0  0  0  0  0
  -21.3545  -29.1358   23.3569 N   0  0  0  0  0  0  0  0  0  0  0  0
  -27.2051  -31.0956   23.3150 N   0  0  0  0  0  0  0  0  0  0  0  0
  -30.0211  -30.8234   25.5654 N   0  3  0  0  0  0  0  0  0  0  0  0
  -22.3663  -14.5127   20.4281 O   0  0  0  0  0  0  0  0  0  0  0  0
  -22.5888  -27.2156   22.8970 O   0  0  0  0  0  0  0  0  0  0  0  0
  -24.3778  -31.2162   23.7625 O   0  0  0  0  0  0  0  0  0  0  0  0
  -28.7442  -29.3733   23.5201 O   0  0  0  0  0  0  0  0  0  0  0  0
  -31.6876  -15.3357   20.7367 O   0  0  0  0  0  0  0  0  0  0  0  0
  -21.8838   -6.9614   22.2532 O   0  0  0  0  0  0  0  0  0  0  0  0
  -26.4557  -23.0104   24.3586 O   0  0  0  0  0  0  0  0  0  1  0  0
  -24.1857   -3.8133   26.1512 F   0  0  0  0  0  0  0  0  0  0  0  0
  -20.5687   -6.4624   24.6332 F   0  0  0  0  0  0  0  0  0  0  0  0
  1  2  1  0  0  0  0
  1  5  2  0  0  0  0
  2  6  2  0  0  0  0
  3  8  2  0  0  0  0
  3 16  1  0  0  0  0
  4  9  1  0  0  0  0
  4 16  2  0  0  0  0
  5 18  1  0  0  0  0
  6 20  1  0  0  0  0
  7 10  2  0  0  0  0
  7 19  1  0  0  0  0
  8 25  1  0  0  0  0
  9 25  2  0  0  0  0
 10 26  1  0  0  0  0
 11 12  2  0  0  0  0
 11 27  1  0  0  0  0
 12 28  1  0  0  0  0
 13 21  1  0  0  0  0
 13 26  2  0  0  0  0
 14 28  2  0  0  0  0
 14 29  1  0  0  0  0
 15 22  1  0  0  0  0
 15 64  2  0  0  0  0
 16 30  1  0  0  0  0
 17 30  1  0  0  0  0
 17 32  2  0  0  0  0
 17 33  1  0  0  0  0
 18 20  2  0  0  0  0
 18 38  1  0  0  0  0
 19 21  2  0  0  0  0
 19 39  1  0  0  0  0
 20 50  1  0  0  0  0
 21 40  1  0  0  0  0
 22 23  2  0  0  0  0
 22 49  1  0  0  0  0
 23 24  1  0  0  0  0
 23 53  1  0  0  0  0
 24 31  2  0  0  0  0
 24 54  1  0  0  0  0
 25 80  1  0  0  0  0
 26 81  1  0  0  0  0
 27 29  2  0  0  0  0
 27 80  1  0  0  0  0
 28 82  1  0  0  0  0
 29 83  1  0  0  0  0
 30 65  2  0  0  0  0
 31 60  1  0  0  0  0
 31 64  1  0  0  0  0
 32 66  1  0  0  0  0
 32 70  1  0  0  0  0
 33 71  1  0  0  0  0
 33 75  2  0  0  0  0
 34 51  1  0  0  0  0
 34 72  1  0  0  0  0
 34 76  2  0  0  0  0
 35 61  1  0  0  0  0
 35 67  1  0  0  0  0
 35 77  2  0  0  0  0
 36 62  1  0  0  0  0
 36 73  1  0  0  0  0
 36 78  2  0  0  0  0
 37 68  1  0  0  0  0
 37 69  1  0  0  0  0
 37 79  2  0  0  0  0
 38 41  1  0  0  0  0
 39 51  1  0  0  0  0
 40 67  1  0  0  0  0
 41 43  1  0  0  0  0
 42 44  1  0  0  0  0
 42 45  1  0  0  0  0
 43 50  1  0  0  0  0
 44 52  1  0  0  0  0
 45 68  1  0  0  0  0
 46 49  1  0  0  0  0
 46 69  1  0  0  0  0
 47 49  1  0  0  0  0
 47 69  1  0  0  0  0
 48 52  1  0  0  0  0
 48 68  1  0  0  0  0
 50 72  1  0  0  0  0
 51 67  1  0  0  0  0
 52 66  1  0  0  0  0
 55 62  1  0  0  0  0
 56 63  1  0  0  0  0
 57 63  1  0  0  0  0
 58 63  1  0  0  0  0
 59 74  1  0  0  0  0
 60 81  1  0  0  0  0
 61 63  1  0  0  0  0
 61 73  1  0  0  0  0
 62 74  1  0  0  0  0
 65 66  1  0  0  0  0
M  CHG  1  74   1
M  ISO  4  37 100  60 101  69 100  81 101
M  END
> <Batch ID>
0180

> <Smiles>
CNC(C)C(=O)NC(C(=O)N1Cc2cc([101O:1][101CH2:1]c3ncc(C4C[100N:0]([100C:0](=O)N5CCCC(n6nc(-c7ccc(Oc8ccc(F)cc8F)cc7)c(C(N)=O)c6N)C5)C4)c(C)c3C)ccc2CC1C(=O)NC1CCCc2ccccc21)C(C)(C)C

> <Shape>
0.276

> <Color>
0.181

> <Negative vol penalty>
0.000

$$$$

  -OEChem-04052323003D

 85 94  0     1  0  0  0  0  0999 V2000
  -22.2239  -10.2386   18.7185 C   0  0  0  0  0  0  0  0  0  0  0  0
  -23.4806  -10.7776   18.4622 C   0  0  0  0  0  0  0  0  0  0  0  0
  -20.4951  -27.0288   23.3114 C   0  0  0  0  0  0  0  0  0  0  0  0
  -19.2999  -27.7415   21.3364 C   0  0  0  0  0  0  0  0  0  0  0  0
  -21.1990  -11.0569   19.1917 C   0  0  0  0  0  0  0  0  0  0  0  0
  -23.7128  -12.1355   18.6781 C   0  0  0  0  0  0  0  0  0  0  0  0
  -28.8817  -16.6625   20.7043 C   0  0  0  0  0  0  0  0  0  0  0  0
  -19.3951  -27.3676   24.0994 C   0  0  0  0  0  0  0  0  0  0  0  0
  -18.1999  -28.0802   22.1244 C   0  0  0  0  0  0  0  0  0  0  0  0
  -29.5148  -17.8316   20.2848 C   0  0  0  0  0  0  0  0  0  0  0  0
  -17.2749  -30.6248   24.1494 C   0  0  0  0  0  0  0  0  0  0  0  0
  -16.6518  -31.8477   23.9009 C   0  0  0  0  0  0  0  0  0  0  0  0
  -27.6914  -19.1331   21.1795 C   0  0  0  0  0  0  0  0  0  0  0  0
  -30.8332  -22.9669   20.4991 C   0  0  0  0  0  0  0  0  0  0  0  0
  -14.5867  -30.6951   23.4071 C   0  0  0  0  0  0  0  0  0  0  0  0
  -20.4475  -27.2158   21.9299 C   0  0  0  0  0  0  0  0  0  0  0  0
  -21.8447  -25.6234   20.5087 C   0  0  0  0  0  0  0  0  0  0  0  0
  -21.4215  -12.4236   19.4226 C   0  0  0  0  0  0  0  0  0  0  0  0
  -27.6413  -16.7193   21.3559 C   0  0  0  0  0  0  0  0  0  0  0  0
  -22.6895  -12.9731   19.1535 C   0  0  0  0  0  0  0  0  0  0  0  0
  -27.0457  -17.9634   21.6085 C   0  0  0  0  0  0  0  0  0  0  0  0
  -31.5659  -24.0203   19.9636 C   0  0  0  0  0  0  0  0  0  0  0  0
  -31.1321  -24.6390   18.7964 C   0  0  0  0  0  0  0  0  0  0  0  0
  -18.2475  -27.8933   23.5059 C   0  0  0  0  0  0  0  0  0  0  0  0
  -28.9184  -19.0670   20.5198 C   0  0  0  0  0  0  0  0  0  0  0  0
  -16.5540  -29.4370   24.0266 C   0  0  0  0  0  0  0  0  0  0  0  0
  -15.3077  -31.8829   23.5298 C   0  0  0  0  0  0  0  0  0  0  0  0
  -15.2099  -29.4721   23.6555 C   0  0  0  0  0  0  0  0  0  0  0  0
  -21.5837  -26.8666   21.1155 C   0  0  0  0  0  0  0  0  0  0  0  0
  -29.6829  -22.5731   19.8347 C   0  0  0  0  0  0  0  0  0  0  0  0
  -29.9685  -24.1702   18.2080 C   0  0  0  0  0  0  0  0  0  0  0  0
  -23.0371  -25.8056   19.8518 C   0  0  0  0  0  0  0  0  0  0  0  0
  -21.0778  -24.4123   20.5363 C   0  0  0  0  0  0  0  0  0  0  0  0
  -24.7234  -15.6283   20.7240 C   0  0  0  0  0  0  0  0  0  0  0  0
  -24.0829  -16.7487   23.7000 C   0  0  0  0  0  0  0  0  0  0  0  0
  -24.8954  -18.8973   26.2238 C   0  0  0  0  0  0  0  0  0  0  0  0
  -28.2459  -27.5968   19.9628 C   0  0  0  0  0  0  0  0  0  0  0  0
  -20.2696  -13.2778   19.8896 C   0  0  0  0  0  0  0  0  0  0  0  0
  -26.9840  -15.4507   21.8259 C   0  0  0  0  0  0  0  0  0  0  0  0
  -25.7245  -18.0798   22.3221 C   0  0  0  0  0  0  0  0  0  0  0  0
  -20.7021  -14.6310   20.4481 C   0  0  0  0  0  0  0  0  0  0  0  0
  -25.6634  -29.9942   18.8692 C   0  0  0  0  0  0  0  0  0  0  0  0
  -21.7195  -15.2902   19.5222 C   0  0  0  0  0  0  0  0  0  0  0  0
  -24.3949  -29.3037   19.3612 C   0  0  0  0  0  0  0  0  0  0  0  0
  -31.7107  -28.3796   18.5611 C   0  0  0  0  0  0  0  0  0  0  0  0
  -26.8501  -29.7439   19.7988 C   0  0  0  0  0  0  0  0  0  0  0  0
  -25.8411  -27.6066   20.5460 C   0  0  0  0  0  0  0  0  0  0  0  0
  -22.9873  -14.4364   19.3987 C   0  0  1  0  0  0  0  0  0  0  0  0
  -25.4781  -15.5954   22.0228 C   0  0  1  0  0  0  0  0  0  0  0  0
  -31.0780  -27.0772   18.1596 C   0  0  2  0  0  0  0  0  0  0  0  0
  -24.6489  -27.8071   19.5979 C   0  0  1  0  0  0  0  0  0  0  0  0
  -30.6619  -27.7516   19.4421 C   0  0  2  0  0  0  0  0  0  0  0  0
  -32.8114  -24.4643   20.6568 C   0  0  0  0  0  0  0  0  0  0  0  0
  -29.4516  -24.7956   16.9537 C   0  0  0  0  0  0  0  0  0  0  0  0
  -32.4308  -25.4472   16.7929 C   0  0  0  0  0  0  0  0  0  0  0  0
  -24.1654  -19.6086   28.5170 C   0  0  0  0  0  0  0  0  0  0  0  0
  -21.7765  -18.3258   22.4740 C   0  0  0  0  0  0  0  0  0  0  0  0
  -21.7020  -19.7056   24.5618 C   0  0  0  0  0  0  0  0  0  0  0  0
  -21.2549  -17.2539   24.6725 C   0  0  0  0  0  0  0  0  0  0  0  0
  -27.4695  -18.0691   27.4267 C   0  0  0  0  0  0  0  0  0  0  0  0
  -28.8662  -21.4408   20.3843 C   0  0  0  0  0  0  0  0  0  1  0  0
  -31.8963  -25.7729   18.2003 C   0  0  2  0  0  0  0  0  0  0  0  0
  -23.6147  -18.0665   24.2684 C   0  0  1  0  0  0  0  0  0  0  0  0
  -25.0650  -18.6797   27.7166 C   0  0  2  0  0  0  0  0  0  0  0  0
  -22.1110  -18.3360   23.9790 C   0  0  0  0  0  0  0  0  0  0  0  0
  -22.5339  -27.7716   20.8664 N   0  0  0  0  0  0  0  0  0  0  0  0
  -29.2300  -23.1497   18.6989 N   0  0  0  0  0  0  0  0  0  0  0  0
  -23.4037  -27.0964   20.0959 N   0  0  0  0  0  0  0  0  0  0  0  0
  -25.1182  -16.8105   22.7566 N   0  0  0  0  0  0  0  0  0  0  0  0
  -27.0368  -28.3086   20.0635 N   0  0  0  0  0  0  0  0  0  0  0  0
  -23.7973  -24.9859   19.0951 N   0  0  0  0  0  0  0  0  0  0  0  0
  -19.8769  -24.3982   21.2588 N   0  0  0  0  0  0  0  0  0  0  0  0
  -23.8193  -14.5943   20.5723 N   0  0  0  0  0  0  0  0  0  0  0  0
  -23.9554  -18.0434   25.6867 N   0  0  0  0  0  0  0  0  0  0  0  0
  -29.3568  -28.3406   19.5814 N   0  0  0  0  0  0  0  0  0  0  0  0
  -26.4776  -18.9310   28.1195 N   0  3  0  0  0  0  0  0  0  0  0  0
  -21.4547  -23.3685   19.9515 O   0  0  0  0  0  0  0  0  0  0  0  0
  -24.9439  -16.5261   19.9196 O   0  0  0  0  0  0  0  0  0  0  0  0
  -23.5545  -15.7024   24.0844 O   0  0  0  0  0  0  0  0  0  0  0  0
  -25.5304  -19.7430   25.5976 O   0  0  0  0  0  0  0  0  0  0  0  0
  -28.3327  -26.3870   20.2006 O   0  0  0  0  0  0  0  0  0  0  0  0
  -17.1739  -28.2237   24.2744 O   0  0  0  0  0  0  0  0  0  0  0  0
  -29.5339  -20.2096   20.1108 O   0  0  0  0  0  0  0  0  0  1  0  0
  -14.7090  -33.0574   23.2927 F   0  0  0  0  0  0  0  0  0  0  0  0
  -14.5118  -28.3344   23.5372 F   0  0  0  0  0  0  0  0  0  0  0  0
  1  2  1  0  0  0  0
  1  5  2  0  0  0  0
  2  6  2  0  0  0  0
  3  8  2  0  0  0  0
  3 16  1  0  0  0  0
  4  9  1  0  0  0  0
  4 16  2  0  0  0  0
  5 18  1  0  0  0  0
  6 20  1  0  0  0  0
  7 10  2  0  0  0  0
  7 19  1  0  0  0  0
  8 24  1  0  0  0  0
  9 24  2  0  0  0  0
 10 25  1  0  0  0  0
 11 12  2  0  0  0  0
 11 26  1  0  0  0  0
 12 27  1  0  0  0  0
 13 21  1  0  0  0  0
 13 25  2  0  0  0  0
 14 22  2  0  0  0  0
 14 30  1  0  0  0  0
 15 27  2  0  0  0  0
 15 28  1  0  0  0  0
 16 29  1  0  0  0  0
 17 29  1  0  0  0  0
 17 32  2  0  0  0  0
 17 33  1  0  0  0  0
 18 20  2  0  0  0  0
 18 38  1  0  0  0  0
 19 21  2  0  0  0  0
 19 39  1  0  0  0  0
 20 48  1  0  0  0  0
 21 40  1  0  0  0  0
 22 23  1  0  0  0  0
 22 53  1  0  0  0  0
 23 31  2  0  0  0  0
 23 62  1  0  0  0  0
 24 82  1  0  0  0  0
 25 83  1  0  0  0  0
 26 28  2  0  0  0  0
 26 82  1  0  0  0  0
 27 84  1  0  0  0  0
 28 85  1  0  0  0  0
 29 66  2  0  0  0  0
 30 61  1  0  0  0  0
 30 67  2  0  0  0  0
 31 54  1  0  0  0  0
 31 67  1  0  0  0  0
 32 68  1  0  0  0  0
 32 71  1  0  0  0  0
 33 72  1  0  0  0  0
 33 77  2  0  0  0  0
 34 49  1  0  0  0  0
 34 73  1  0  0  0  0
 34 78  2  0  0  0  0
 35 63  1  0  0  0  0
 35 69  1  0  0  0  0
 35 79  2  0  0  0  0
 36 64  1  0  0  0  0
 36 74  1  0  0  0  0
 36 80  2  0  0  0  0
 37 70  1  0  0  0  0
 37 75  1  0  0  0  0
 37 81  2  0  0  0  0
 38 41  1  0  0  0  0
 39 49  1  0  0  0  0
 40 69  1  0  0  0  0
 41 43  1  0  0  0  0
 42 44  1  0  0  0  0
 42 46  1  0  0  0  0
 43 48  1  0  0  0  0
 44 51  1  0  0  0  0
 45 50  1  0  0  0  0
 45 52  1  0  0  0  0
 46 70  1  0  0  0  0
 47 51  1  0  0  0  0
 47 70  1  0  0  0  0
 48 73  1  0  0  0  0
 49 69  1  0  0  0  0
 50 52  1  0  0  0  0
 50 62  1  0  0  0  0
 51 68  1  0  0  0  0
 52 75  1  0  0  0  0
 55 62  1  0  0  0  0
 56 64  1  0  0  0  0
 57 65  1  0  0  0  0
 58 65  1  0  0  0  0
 59 65  1  0  0  0  0
 60 76  1  0  0  0  0
 61 83  1  0  0  0  0
 63 65  1  0  0  0  0
 63 74  1  0  0  0  0
 64 76  1  0  0  0  0
 66 68  1  0  0  0  0
M  CHG  1  76   1
M  ISO  4  37 100  61 101  75 100  83 101
M  END
> <Batch ID>
0180

> <Smiles>
CNC(C)C(=O)NC(C(=O)N1Cc2cc([101O:1][101CH2:1]c3cc(C)c(C(C)C4CC4[100NH:0][100C:0](=O)N4CCCC(n5nc(-c6ccc(Oc7ccc(F)cc7F)cc6)c(C(N)=O)c5N)C4)c(C)n3)ccc2CC1C(=O)NC1CCCc2ccccc21)C(C)(C)C

> <Shape>
0.218

> <Color>
0.084

> <Negative vol penalty>
0.000

$$$$

  -OEChem-04052323003D

 86 95  0     1  0  0  0  0  0999 V2000
  -17.9756  -27.3100   23.4102 C   0  0  0  0  0  0  0  0  0  0  0  0
  -18.9512  -26.3237   23.5141 C   0  0  0  0  0  0  0  0  0  0  0  0
  -22.9509  -10.0719   19.9610 C   0  0  0  0  0  0  0  0  0  0  0  0
  -23.8183   -9.9153   22.2105 C   0  0  0  0  0  0  0  0  0  0  0  0
  -18.0771  -28.2880   22.4217 C   0  0  0  0  0  0  0  0  0  0  0  0
  -20.0285  -26.3143   22.6288 C   0  0  0  0  0  0  0  0  0  0  0  0
  -25.7837  -24.6145   23.8515 C   0  0  0  0  0  0  0  0  0  0  0  0
  -29.0433  -18.0164   21.5144 C   0  0  0  0  0  0  0  0  0  0  0  0
  -22.1624   -8.9436   20.1865 C   0  0  0  0  0  0  0  0  0  0  0  0
  -23.0298   -8.7870   22.4360 C   0  0  0  0  0  0  0  0  0  0  0  0
  -26.4785  -23.4267   23.6277 C   0  0  0  0  0  0  0  0  0  0  0  0
  -19.7977   -8.1126   23.1568 C   0  0  0  0  0  0  0  0  0  0  0  0
  -19.0963   -8.0442   24.3605 C   0  0  0  0  0  0  0  0  0  0  0  0
  -28.2371  -19.1023   21.8316 C   0  0  0  0  0  0  0  0  0  0  0  0
  -27.3761  -24.3439   21.5850 C   0  0  0  0  0  0  0  0  0  0  0  0
  -20.2717   -6.0116   24.9299 C   0  0  0  0  0  0  0  0  0  0  0  0
  -23.7789  -10.5577   20.9730 C   0  0  0  0  0  0  0  0  0  0  0  0
  -24.2419  -13.0664   20.9700 C   0  0  0  0  0  0  0  0  0  0  0  0
  -19.1612  -28.2962   21.5300 C   0  0  0  0  0  0  0  0  0  0  0  0
  -25.8713  -25.6737   22.9367 C   0  0  0  0  0  0  0  0  0  0  0  0
  -20.1440  -27.2926   21.6266 C   0  0  0  0  0  0  0  0  0  0  0  0
  -30.2241  -17.7703   22.2290 C   0  0  0  0  0  0  0  0  0  0  0  0
  -26.6834  -25.5450   21.8009 C   0  0  0  0  0  0  0  0  0  0  0  0
  -22.2018   -8.3012   21.4240 C   0  0  0  0  0  0  0  0  0  0  0  0
  -27.2726  -23.2902   22.4928 C   0  0  0  0  0  0  0  0  0  0  0  0
  -20.7362   -7.1306   22.8396 C   0  0  0  0  0  0  0  0  0  0  0  0
  -19.3333   -6.9937   25.2470 C   0  0  0  0  0  0  0  0  0  0  0  0
  -20.9732   -6.0801   23.7261 C   0  0  0  0  0  0  0  0  0  0  0  0
  -24.5941  -11.7228   20.7404 C   0  0  0  0  0  0  0  0  0  0  0  0
  -30.5770  -18.6906   23.2218 C   0  0  0  0  0  0  0  0  0  0  0  0
  -28.6461  -19.9256   22.8599 C   0  0  0  0  0  0  0  0  0  0  0  0
  -25.3520  -13.7816   20.5926 C   0  0  0  0  0  0  0  0  0  0  0  0
  -23.0205  -13.6184   21.4789 C   0  0  0  0  0  0  0  0  0  0  0  0
  -23.7983  -27.2160   21.0853 C   0  0  0  0  0  0  0  0  0  0  0  0
  -26.3546  -29.1166   20.4729 C   0  0  0  0  0  0  0  0  0  0  0  0
  -29.7481  -29.4643   20.3711 C   0  0  0  0  0  0  0  0  0  0  0  0
  -30.8830  -14.5248   20.5590 C   0  0  0  0  0  0  0  0  0  0  0  0
  -19.2032  -29.3460   20.4480 C   0  0  0  0  0  0  0  0  0  0  0  0
  -25.1367  -26.9582   23.2062 C   0  0  0  0  0  0  0  0  0  0  0  0
  -26.8273  -26.6598   20.7984 C   0  0  0  0  0  0  0  0  0  0  0  0
  -20.5723  -29.4852   19.7871 C   0  0  0  0  0  0  0  0  0  0  0  0
  -29.5141  -12.3335   18.1093 C   0  0  0  0  0  0  0  0  0  0  0  0
  -21.1393  -28.1124   19.4396 C   0  0  0  0  0  0  0  0  0  0  0  0
  -28.0859  -12.0854   18.5977 C   0  0  0  0  0  0  0  0  0  0  0  0
  -30.4973  -12.4432   19.2727 C   0  0  0  0  0  0  0  0  0  0  0  0
  -28.7030  -13.1866   20.7898 C   0  0  0  0  0  0  0  0  0  0  0  0
  -31.9928  -16.2071   23.0889 C   0  0  0  0  0  0  0  0  0  0  0  0
  -21.3405  -27.2633   20.7006 C   0  0  1  0  0  0  0  0  0  0  0  0
  -31.1163  -16.5979   21.9033 C   0  0  1  0  0  0  0  0  0  0  0  0
  -31.8606  -18.5434   24.0194 C   0  0  2  0  0  0  0  0  0  0  0  0
  -24.8920  -27.7824   21.9460 C   0  0  1  0  0  0  0  0  0  0  0  0
  -27.6664  -13.1244   19.6550 C   0  0  2  0  0  0  0  0  0  0  0  0
  -32.6559  -19.8554   23.9881 C   0  0  0  0  0  0  0  0  0  0  0  0
  -31.5421  -31.1215   19.7943 C   0  0  0  0  0  0  0  0  0  0  0  0
  -35.0240  -16.4512   23.8172 C   0  0  0  0  0  0  0  0  0  0  0  0
  -33.1999  -16.0023   25.5039 C   0  0  0  0  0  0  0  0  0  0  0  0
  -25.8505  -28.6253   17.5040 C   0  0  0  0  0  0  0  0  0  0  0  0
  -28.1575  -29.4811   17.0419 C   0  0  0  0  0  0  0  0  0  0  0  0
  -26.4580  -30.9812   18.0831 C   0  0  0  0  0  0  0  0  0  0  0  0
  -30.8199  -29.4393   23.1297 C   0  0  0  0  0  0  0  0  0  0  0  0
  -27.8051  -21.0969   23.2425 C   0  0  0  0  0  0  0  0  0  1  0  0
  -27.4694  -29.1138   19.4550 C   0  0  1  0  0  0  0  0  0  0  0  0
  -30.6654  -30.5526   20.8991 C   0  0  2  0  0  0  0  0  0  0  0  0
  -33.8201  -17.0149   24.5546 C   0  0  0  0  0  0  0  0  0  0  0  0
  -26.9798  -29.5284   18.0387 C   0  0  0  0  0  0  0  0  0  0  0  0
  -25.8312  -11.5898   20.2547 N   0  0  0  0  0  0  0  0  0  0  0  0
  -29.7867  -19.7451   23.5581 N   0  0  0  0  0  0  0  0  0  0  0  0
  -26.2659  -12.8590   20.1758 N   0  0  0  0  0  0  0  0  0  0  0  0
  -26.0842  -27.8937   21.1031 N   0  0  0  0  0  0  0  0  0  0  0  0
  -30.0422  -13.4462   20.2384 N   0  0  0  0  0  0  0  0  0  0  0  0
  -25.6258  -15.1035   20.5798 N   0  0  0  0  0  0  0  0  0  0  0  0
  -21.9810  -12.7415   21.8179 N   0  0  0  0  0  0  0  0  0  0  0  0
  -22.5355  -27.6780   21.4038 N   0  0  0  0  0  0  0  0  0  0  0  0
  -28.5200  -29.9682   19.9979 N   0  0  0  0  0  0  0  0  0  0  0  0
  -30.3723  -15.4332   21.4781 N   0  0  0  0  0  0  0  0  0  0  0  0
  -32.7800  -17.4161   23.5365 N   0  3  1  0  0  0  0  0  0  0  0  0
  -31.5501  -30.0104   21.9688 N   0  3  0  0  0  0  0  0  0  0  0  0
  -22.8497  -14.8539   21.6132 O   0  0  0  0  0  0  0  0  0  0  0  0
  -24.0794  -26.4199   20.1971 O   0  0  0  0  0  0  0  0  0  0  0  0
  -25.7509  -30.1669   20.7057 O   0  0  0  0  0  0  0  0  0  0  0  0
  -30.0883  -28.2859   20.2938 O   0  0  0  0  0  0  0  0  0  0  0  0
  -32.0035  -14.6705   20.0588 O   0  0  0  0  0  0  0  0  0  0  0  0
  -21.4323   -7.2004   21.6445 O   0  0  0  0  0  0  0  0  0  0  0  0
  -27.9561  -22.1236   22.2701 O   0  0  0  0  0  0  0  0  0  1  0  0
  -18.6607   -6.9289   26.4036 F   0  0  0  0  0  0  0  0  0  0  0  0
  -21.8744   -5.1343   23.4275 F   0  0  0  0  0  0  0  0  0  0  0  0
  1  2  1  0  0  0  0
  1  5  2  0  0  0  0
  2  6  2  0  0  0  0
  3  9  2  0  0  0  0
  3 17  1  0  0  0  0
  4 10  1  0  0  0  0
  4 17  2  0  0  0  0
  5 19  1  0  0  0  0
  6 21  1  0  0  0  0
  7 11  2  0  0  0  0
  7 20  1  0  0  0  0
  8 14  2  0  0  0  0
  8 22  1  0  0  0  0
  9 24  1  0  0  0  0
 10 24  2  0  0  0  0
 11 25  1  0  0  0  0
 12 13  2  0  0  0  0
 12 26  1  0  0  0  0
 13 27  1  0  0  0  0
 14 31  1  0  0  0  0
 15 23  1  0  0  0  0
 15 25  2  0  0  0  0
 16 27  2  0  0  0  0
 16 28  1  0  0  0  0
 17 29  1  0  0  0  0
 18 29  1  0  0  0  0
 18 32  2  0  0  0  0
 18 33  1  0  0  0  0
 19 21  2  0  0  0  0
 19 38  1  0  0  0  0
 20 23  2  0  0  0  0
 20 39  1  0  0  0  0
 21 48  1  0  0  0  0
 22 30  2  0  0  0  0
 22 49  1  0  0  0  0
 23 40  1  0  0  0  0
 24 83  1  0  0  0  0
 25 84  1  0  0  0  0
 26 28  2  0  0  0  0
 26 83  1  0  0  0  0
 27 85  1  0  0  0  0
 28 86  1  0  0  0  0
 29 66  2  0  0  0  0
 30 50  1  0  0  0  0
 30 67  1  0  0  0  0
 31 61  1  0  0  0  0
 31 67  2  0  0  0  0
 32 68  1  0  0  0  0
 32 71  1  0  0  0  0
 33 72  1  0  0  0  0
 33 78  2  0  0  0  0
 34 51  1  0  0  0  0
 34 73  1  0  0  0  0
 34 79  2  0  0  0  0
 35 62  1  0  0  0  0
 35 69  1  0  0  0  0
 35 80  2  0  0  0  0
 36 63  1  0  0  0  0
 36 74  1  0  0  0  0
 36 81  2  0  0  0  0
 37 70  1  0  0  0  0
 37 75  1  0  0  0  0
 37 82  2  0  0  0  0
 38 41  1  0  0  0  0
 39 51  1  0  0  0  0
 40 69  1  0  0  0  0
 41 43  1  0  0  0  0
 42 44  1  0  0  0  0
 42 45  1  0  0  0  0
 43 48  1  0  0  0  0
 44 52  1  0  0  0  0
 45 70  1  0  0  0  0
 46 52  1  0  0  0  0
 46 70  1  0  0  0  0
 47 49  1  0  0  0  0
 47 76  1  0  0  0  0
 48 73  1  0  0  0  0
 49 75  1  0  0  0  0
 50 53  1  0  0  0  0
 50 76  1  0  0  0  0
 51 69  1  0  0  0  0
 52 68  1  0  0  0  0
 54 63  1  0  0  0  0
 55 64  1  0  0  0  0
 56 64  1  0  0  0  0
 57 65  1  0  0  0  0
 58 65  1  0  0  0  0
 59 65  1  0  0  0  0
 60 77  1  0  0  0  0
 61 84  1  0  0  0  0
 62 65  1  0  0  0  0
 62 74  1  0  0  0  0
 63 77  1  0  0  0  0
 64 76  1  0  0  0  0
 66 68  1  0  0  0  0
M  CHG  2  76   1  77   1
M  ISO  4  37 100  61 101  75 100  84 101
M  END
> <Batch ID>
0180

> <Smiles>
CNC(C)C(=O)NC(C(=O)N1Cc2cc([101O:1][101CH2:1]c3ccc4c(n3)C(C)N(C(C)C)CC4[100NH:0][100C:0](=O)N3CCCC(n4nc(-c5ccc(Oc6ccc(F)cc6F)cc5)c(C(N)=O)c4N)C3)ccc2CC1C(=O)NC1CCCc2ccccc21)C(C)(C)C

> <Shape>
0.275

> <Color>
0.192

> <Negative vol penalty>
0.000

$$$$

  -OEChem-04052323003D

 83 92  0     1  0  0  0  0  0999 V2000
  -18.8748  -33.9152   21.1900 C   0  0  0  0  0  0  0  0  0  0  0  0
  -20.2174  -33.6946   20.8998 C   0  0  0  0  0  0  0  0  0  0  0  0
  -26.7938  -12.3603   20.5902 C   0  0  0  0  0  0  0  0  0  0  0  0
  -25.3248  -13.8741   19.4122 C   0  0  0  0  0  0  0  0  0  0  0  0
  -18.2359  -33.1419   22.1583 C   0  0  0  0  0  0  0  0  0  0  0  0
  -20.9222  -32.7011   21.5786 C   0  0  0  0  0  0  0  0  0  0  0  0
  -25.3780  -29.1551   19.3252 C   0  0  0  0  0  0  0  0  0  0  0  0
  -25.9067  -11.3113   20.3485 C   0  0  0  0  0  0  0  0  0  0  0  0
  -24.4378  -12.8251   19.1704 C   0  0  0  0  0  0  0  0  0  0  0  0
  -26.7678  -29.2311   19.4046 C   0  0  0  0  0  0  0  0  0  0  0  0
  -23.8548   -8.3091   20.3515 C   0  0  0  0  0  0  0  0  0  0  0  0
  -23.5581   -7.4515   21.4108 C   0  0  0  0  0  0  0  0  0  0  0  0
  -26.7391  -27.6985   21.2673 C   0  0  0  0  0  0  0  0  0  0  0  0
  -29.9169  -22.5463   20.0189 C   0  0  0  0  0  0  0  0  0  0  0  0
  -22.6886   -9.3164   22.6771 C   0  0  0  0  0  0  0  0  0  0  0  0
  -30.4580  -24.5290   21.8138 C   0  0  0  0  0  0  0  0  0  0  0  0
  -26.5028  -13.6417   20.1221 C   0  0  0  0  0  0  0  0  0  0  0  0
  -28.4924  -15.1358   19.5594 C   0  0  0  0  0  0  0  0  0  0  0  0
  -18.9307  -32.1320   22.8425 C   0  0  0  0  0  0  0  0  0  0  0  0
  -24.6562  -28.3574   20.2247 C   0  0  0  0  0  0  0  0  0  0  0  0
  -20.2923  -31.9144   22.5579 C   0  0  0  0  0  0  0  0  0  0  0  0
  -25.3404  -27.6121   21.1955 C   0  0  0  0  0  0  0  0  0  0  0  0
  -30.8229  -24.7236   20.4914 C   0  0  0  0  0  0  0  0  0  0  0  0
  -30.5436  -23.7085   19.5831 C   0  0  0  0  0  0  0  0  0  0  0  0
  -24.7287  -11.5437   19.6385 C   0  0  0  0  0  0  0  0  0  0  0  0
  -27.4484  -28.5050   20.3776 C   0  0  0  0  0  0  0  0  0  0  0  0
  -23.5685   -9.6704   20.4551 C   0  0  0  0  0  0  0  0  0  0  0  0
  -22.9750   -7.9551   22.5736 C   0  0  0  0  0  0  0  0  0  0  0  0
  -22.9854  -10.1740   21.6178 C   0  0  0  0  0  0  0  0  0  0  0  0
  -27.4185  -14.7257   20.3720 C   0  0  0  0  0  0  0  0  0  0  0  0
  -29.5928  -22.4492   21.3625 C   0  0  0  0  0  0  0  0  0  0  0  0
  -29.0460  -16.1977   20.2321 C   0  0  0  0  0  0  0  0  0  0  0  0
  -28.9488  -14.6044   18.3084 C   0  0  0  0  0  0  0  0  0  0  0  0
  -22.4430  -28.9123   22.4377 C   0  0  0  0  0  0  0  0  0  0  0  0
  -22.3626  -25.6741   22.6115 C   0  0  0  0  0  0  0  0  0  0  0  0
  -23.9693  -22.7051   22.1114 C   0  0  0  0  0  0  0  0  0  0  0  0
  -28.5428  -20.9484   23.0922 C   0  0  0  0  0  0  0  0  0  0  0  0
  -18.2101  -31.3534   23.9145 C   0  0  0  0  0  0  0  0  0  0  0  0
  -23.1594  -28.2654   20.1087 C   0  0  0  0  0  0  0  0  0  0  0  0
  -24.6137  -26.7251   22.1720 C   0  0  0  0  0  0  0  0  0  0  0  0
  -18.9289  -30.0700   24.3226 C   0  0  0  0  0  0  0  0  0  0  0  0
  -28.2293  -17.9116   24.9243 C   0  0  0  0  0  0  0  0  0  0  0  0
  -20.4143  -30.3374   24.5438 C   0  0  0  0  0  0  0  0  0  0  0  0
  -28.0788  -16.8458   23.8365 C   0  0  0  0  0  0  0  0  0  0  0  0
  -30.9255  -26.7756   18.9232 C   0  0  0  0  0  0  0  0  0  0  0  0
  -27.5214  -19.2116   24.5465 C   0  0  0  0  0  0  0  0  0  0  0  0
  -27.7394  -18.6950   22.1476 C   0  0  0  0  0  0  0  0  0  0  0  0
  -31.4904  -25.9828   20.0792 C   0  0  1  0  0  0  0  0  0  0  0  0
  -21.0842  -30.8296   23.2552 C   0  0  1  0  0  0  0  0  0  0  0  0
  -22.4858  -27.8227   21.4040 C   0  0  1  0  0  0  0  0  0  0  0  0
  -28.4908  -17.3892   22.4542 C   0  0  2  0  0  0  0  0  0  0  0  0
  -30.8375  -27.3421   20.3168 C   0  0  1  0  0  0  0  0  0  0  0  0
  -30.9054  -23.8432   18.1408 C   0  0  0  0  0  0  0  0  0  0  0  0
  -31.7453  -28.4926   20.6679 C   0  0  0  0  0  0  0  0  0  0  0  0
  -23.6628  -20.2292   22.3826 C   0  0  0  0  0  0  0  0  0  0  0  0
  -22.8218  -25.9487   25.6154 C   0  0  0  0  0  0  0  0  0  0  0  0
  -23.4477  -23.5252   25.6708 C   0  0  0  0  0  0  0  0  0  0  0  0
  -21.1513  -24.2028   24.9708 C   0  0  0  0  0  0  0  0  0  0  0  0
  -24.2742  -22.2319   19.2059 C   0  0  0  0  0  0  0  0  0  0  0  0
  -29.4895  -27.4251   20.9463 C   0  0  0  0  0  0  0  0  0  1  0  0
  -23.0976  -24.6279   23.4141 C   0  0  1  0  0  0  0  0  0  0  0  0
  -23.5215  -21.4173   21.4439 C   0  0  2  0  0  0  0  0  0  0  0  0
  -22.6434  -24.5943   24.9008 C   0  0  0  0  0  0  0  0  0  0  0  0
  -29.8480  -23.4140   22.2745 N   0  0  0  0  0  0  0  0  0  0  0  0
  -27.2954  -15.4666   21.4765 N   0  0  0  0  0  0  0  0  0  0  0  0
  -28.2992  -16.3528   21.3628 N   0  0  0  0  0  0  0  0  0  0  0  0
  -23.1500  -26.6734   22.0223 N   0  0  0  0  0  0  0  0  0  0  0  0
  -27.9645  -19.6686   23.2276 N   0  0  0  0  0  0  0  0  0  0  0  0
  -30.0938  -17.0045   19.9608 N   0  0  0  0  0  0  0  0  0  0  0  0
  -28.2656  -13.5116   17.7576 N   0  0  0  0  0  0  0  0  0  0  0  0
  -28.9556  -21.2606   21.7973 N   0  0  0  0  0  0  0  0  0  0  0  0
  -21.3259  -29.7216   22.3562 N   0  0  0  0  0  0  0  0  0  0  0  0
  -22.9148  -23.3663   22.7048 N   0  0  0  0  0  0  0  0  0  0  0  0
  -24.3389  -21.1538   20.2259 N   0  3  0  0  0  0  0  0  0  0  0  0
  -29.9434  -15.0740   17.7052 O   0  0  0  0  0  0  0  0  0  0  0  0
  -23.3551  -29.0105   23.2502 O   0  0  0  0  0  0  0  0  0  0  0  0
  -21.1357  -25.6031   22.5050 O   0  0  0  0  0  0  0  0  0  0  0  0
  -25.1383  -23.0845   22.1100 O   0  0  0  0  0  0  0  0  0  0  0  0
  -28.6877  -21.7007   24.0592 O   0  0  0  0  0  0  0  0  0  0  0  0
  -23.8630  -10.5204   19.4022 O   0  0  0  0  0  0  0  0  0  0  0  0
  -28.8049  -28.5779   20.4577 O   0  0  0  0  0  0  0  0  0  1  0  0
  -22.6886   -7.1312   23.5901 F   0  0  0  0  0  0  0  0  0  0  0  0
  -22.7069  -11.4806   21.7226 F   0  0  0  0  0  0  0  0  0  0  0  0
  1  2  1  0  0  0  0
  1  5  2  0  0  0  0
  2  6  2  0  0  0  0
  3  8  2  0  0  0  0
  3 17  1  0  0  0  0
  4  9  1  0  0  0  0
  4 17  2  0  0  0  0
  5 19  1  0  0  0  0
  6 21  1  0  0  0  0
  7 10  2  0  0  0  0
  7 20  1  0  0  0  0
  8 25  1  0  0  0  0
  9 25  2  0  0  0  0
 10 26  1  0  0  0  0
 11 12  2  0  0  0  0
 11 27  1  0  0  0  0
 12 28  1  0  0  0  0
 13 22  1  0  0  0  0
 13 26  2  0  0  0  0
 14 24  1  0  0  0  0
 14 31  2  0  0  0  0
 15 28  2  0  0  0  0
 15 29  1  0  0  0  0
 16 23  1  0  0  0  0
 16 64  2  0  0  0  0
 17 30  1  0  0  0  0
 18 30  1  0  0  0  0
 18 32  2  0  0  0  0
 18 33  1  0  0  0  0
 19 21  2  0  0  0  0
 19 38  1  0  0  0  0
 20 22  2  0  0  0  0
 20 39  1  0  0  0  0
 21 49  1  0  0  0  0
 22 40  1  0  0  0  0
 23 24  2  0  0  0  0
 23 48  1  0  0  0  0
 24 53  1  0  0  0  0
 25 80  1  0  0  0  0
 26 81  1  0  0  0  0
 27 29  2  0  0  0  0
 27 80  1  0  0  0  0
 28 82  1  0  0  0  0
 29 83  1  0  0  0  0
 30 65  2  0  0  0  0
 31 64  1  0  0  0  0
 31 71  1  0  0  0  0
 32 66  1  0  0  0  0
 32 69  1  0  0  0  0
 33 70  1  0  0  0  0
 33 75  2  0  0  0  0
 34 50  1  0  0  0  0
 34 72  1  0  0  0  0
 34 76  2  0  0  0  0
 35 61  1  0  0  0  0
 35 67  1  0  0  0  0
 35 77  2  0  0  0  0
 36 62  1  0  0  0  0
 36 73  1  0  0  0  0
 36 78  2  0  0  0  0
 37 68  1  0  0  0  0
 37 71  1  0  0  0  0
 37 79  2  0  0  0  0
 38 41  1  0  0  0  0
 39 50  1  0  0  0  0
 40 67  1  0  0  0  0
 41 43  1  0  0  0  0
 42 44  1  0  0  0  0
 42 46  1  0  0  0  0
 43 49  1  0  0  0  0
 44 51  1  0  0  0  0
 45 48  1  0  0  0  0
 45 52  1  0  0  0  0
 46 68  1  0  0  0  0
 47 51  1  0  0  0  0
 47 68  1  0  0  0  0
 48 52  1  0  0  0  0
 49 72  1  0  0  0  0
 50 67  1  0  0  0  0
 51 66  1  0  0  0  0
 52 54  1  0  0  0  0
 52 60  1  0  0  0  0
 55 62  1  0  0  0  0
 56 63  1  0  0  0  0
 57 63  1  0  0  0  0
 58 63  1  0  0  0  0
 59 74  1  0  0  0  0
 60 81  1  0  0  0  0
 61 63  1  0  0  0  0
 61 73  1  0  0  0  0
 62 74  1  0  0  0  0
 65 66  1  0  0  0  0
M  CHG  1  74   1
M  ISO  4  37 100  60 101  71 100  81 101
M  END
> <Batch ID>
0180

> <Smiles>
CNC(C)C(=O)NC(C(=O)N1Cc2cc([101O:1][101CH2:1]C3(C)CC3c3cnc([100NH:0][100C:0](=O)N4CCCC(n5nc(-c6ccc(Oc7ccc(F)cc7F)cc6)c(C(N)=O)c5N)C4)cc3C)ccc2CC1C(=O)NC1CCCc2ccccc21)C(C)(C)C

> <Shape>
0.229

> <Color>
0.092

> <Negative vol penalty>
0.000

$$$$

  -OEChem-04052323003D

 83 92  0     1  0  0  0  0  0999 V2000
  -33.6458  -27.9113   34.8222 C   0  0  0  0  0  0  0  0  0  0  0  0
  -33.3125  -26.6799   34.2672 C   0  0  0  0  0  0  0  0  0  0  0  0
  -23.0794   -9.8712   19.9353 C   0  0  0  0  0  0  0  0  0  0  0  0
  -23.8233   -9.8739   22.2339 C   0  0  0  0  0  0  0  0  0  0  0  0
  -33.7747  -29.0319   34.0027 C   0  0  0  0  0  0  0  0  0  0  0  0
  -33.1068  -26.5686   32.8925 C   0  0  0  0  0  0  0  0  0  0  0  0
  -34.4816  -21.7727   29.3408 C   0  0  0  0  0  0  0  0  0  0  0  0
  -22.3259   -8.7233   20.1804 C   0  0  0  0  0  0  0  0  0  0  0  0
  -23.0698   -8.7259   22.4791 C   0  0  0  0  0  0  0  0  0  0  0  0
  -33.7114  -20.7220   28.8441 C   0  0  0  0  0  0  0  0  0  0  0  0
  -19.8322   -7.9503   23.0594 C   0  0  0  0  0  0  0  0  0  0  0  0
  -19.0669   -7.9160   24.2250 C   0  0  0  0  0  0  0  0  0  0  0  0
  -33.4036  -21.9313   26.7797 C   0  0  0  0  0  0  0  0  0  0  0  0
  -20.2899   -5.9704   24.9707 C   0  0  0  0  0  0  0  0  0  0  0  0
  -23.8281  -10.4465   20.9620 C   0  0  0  0  0  0  0  0  0  0  0  0
  -24.1880  -12.9692   20.8436 C   0  0  0  0  0  0  0  0  0  0  0  0
  -33.5801  -28.9323   32.6161 C   0  0  0  0  0  0  0  0  0  0  0  0
  -34.7098  -22.9173   28.5634 C   0  0  0  0  0  0  0  0  0  0  0  0
  -33.2320  -27.6892   32.0539 C   0  0  0  0  0  0  0  0  0  0  0  0
  -34.1791  -22.9941   27.2678 C   0  0  0  0  0  0  0  0  0  0  0  0
  -31.8465  -17.0786   26.0257 C   0  0  0  0  0  0  0  0  0  0  0  0
  -22.3211   -8.1506   21.4523 C   0  0  0  0  0  0  0  0  0  0  0  0
  -33.1699  -20.8024   27.5645 C   0  0  0  0  0  0  0  0  0  0  0  0
  -20.8264   -6.9947   22.8493 C   0  0  0  0  0  0  0  0  0  0  0  0
  -19.2957   -6.9261   25.1807 C   0  0  0  0  0  0  0  0  0  0  0  0
  -21.0552   -6.0047   23.8050 C   0  0  0  0  0  0  0  0  0  0  0  0
  -24.6071  -11.6320   20.7093 C   0  0  0  0  0  0  0  0  0  0  0  0
  -31.0108  -16.1461   25.4456 C   0  0  0  0  0  0  0  0  0  0  0  0
  -31.3983  -17.6271   27.2100 C   0  0  0  0  0  0  0  0  0  0  0  0
  -25.2878  -13.7111   20.4877 C   0  0  0  0  0  0  0  0  0  0  0  0
  -29.5014  -16.3770   27.1296 C   0  0  0  0  0  0  0  0  0  0  0  0
  -22.9182  -13.4938   21.2535 C   0  0  0  0  0  0  0  0  0  0  0  0
  -34.0167  -26.0052   28.8600 C   0  0  0  0  0  0  0  0  0  0  0  0
  -35.8292  -26.2695   26.1829 C   0  0  0  0  0  0  0  0  0  0  0  0
  -37.1060  -24.7810   23.3899 C   0  0  0  0  0  0  0  0  0  0  0  0
  -30.8547  -14.5533   20.8849 C   0  0  0  0  0  0  0  0  0  0  0  0
  -33.6841  -30.1812   31.7769 C   0  0  0  0  0  0  0  0  0  0  0  0
  -35.5650  -24.0305   29.1035 C   0  0  0  0  0  0  0  0  0  0  0  0
  -34.4116  -24.1923   26.3854 C   0  0  0  0  0  0  0  0  0  0  0  0
  -33.8172  -29.9013   30.2821 C   0  0  0  0  0  0  0  0  0  0  0  0
  -29.6247  -12.3663   18.3087 C   0  0  0  0  0  0  0  0  0  0  0  0
  -32.7967  -28.8565   29.8418 C   0  0  0  0  0  0  0  0  0  0  0  0
  -28.1973  -12.0433   18.7378 C   0  0  0  0  0  0  0  0  0  0  0  0
  -30.5345  -12.5231   19.5198 C   0  0  0  0  0  0  0  0  0  0  0  0
  -30.2393  -14.5211   23.4305 C   0  0  0  0  0  0  0  0  0  0  0  0
  -31.3435  -16.2053   22.7689 C   0  0  0  0  0  0  0  0  0  0  0  0
  -28.6317  -13.2959   20.9112 C   0  0  0  0  0  0  0  0  0  0  0  0
  -33.0254  -27.5232   30.5640 C   0  0  1  0  0  0  0  0  0  0  0  0
  -31.3343  -15.3968   24.0866 C   0  0  0  0  0  0  0  0  0  0  0  0
  -35.3049  -25.3693   28.4199 C   0  0  1  0  0  0  0  0  0  0  0  0
  -27.6770  -13.1065   19.7158 C   0  0  2  0  0  0  0  0  0  0  0  0
  -33.1428  -17.4600   25.4065 C   0  0  0  0  0  0  0  0  0  0  0  0
  -28.1992  -15.9875   27.7425 C   0  0  0  0  0  0  0  0  0  0  0  0
  -38.5204  -25.2613   21.3734 C   0  0  0  0  0  0  0  0  0  0  0  0
  -33.4875  -27.7407   24.8937 C   0  0  0  0  0  0  0  0  0  0  0  0
  -34.5600  -27.3512   22.6652 C   0  0  0  0  0  0  0  0  0  0  0  0
  -35.7353  -28.7152   24.3917 C   0  0  0  0  0  0  0  0  0  0  0  0
  -39.1286  -22.7726   24.1863 C   0  0  0  0  0  0  0  0  0  0  0  0
  -32.2227  -18.6521   27.9318 C   0  0  0  0  0  0  0  0  0  1  0  0
  -35.5588  -26.2119   24.6987 C   0  0  1  0  0  0  0  0  0  0  0  0
  -38.5089  -24.7627   22.8101 C   0  0  2  0  0  0  0  0  0  0  0  0
  -34.8292  -27.4829   24.1795 C   0  0  0  0  0  0  0  0  0  0  0  0
  -25.8742  -11.5274   20.2998 N   0  0  0  0  0  0  0  0  0  0  0  0
  -29.8268  -15.7703   25.9722 N   0  0  0  0  0  0  0  0  0  0  0  0
  -30.2265  -17.2983   27.7923 N   0  0  0  0  0  0  0  0  0  0  0  0
  -26.2607  -12.8083   20.1737 N   0  0  0  0  0  0  0  0  0  0  0  0
  -35.2493  -25.2575   26.9609 N   0  0  0  0  0  0  0  0  0  0  0  0
  -30.0184  -13.5094   20.4739 N   0  0  0  0  0  0  0  0  0  0  0  0
  -30.6978  -15.0502   22.1573 N   0  0  0  0  0  0  0  0  0  0  0  0
  -25.5077  -15.0411   20.4157 N   0  0  0  0  0  0  0  0  0  0  0  0
  -21.8978  -12.5917   21.5840 N   0  0  0  0  0  0  0  0  0  0  0  0
  -34.1401  -26.8135   29.9740 N   0  0  0  0  0  0  0  0  0  0  0  0
  -36.8452  -25.9580   24.0591 N   0  0  0  0  0  0  0  0  0  0  0  0
  -39.0602  -23.3783   22.8316 N   0  3  0  0  0  0  0  0  0  0  0  0
  -22.6899  -14.7261   21.3088 O   0  0  0  0  0  0  0  0  0  0  0  0
  -32.9872  -25.7804   28.2344 O   0  0  0  0  0  0  0  0  0  0  0  0
  -36.5350  -27.1749   26.6342 O   0  0  0  0  0  0  0  0  0  0  0  0
  -36.3189  -23.8462   23.2588 O   0  0  0  0  0  0  0  0  0  0  0  0
  -31.7384  -15.0110   20.1482 O   0  0  0  0  0  0  0  0  0  0  0  0
  -21.5859   -7.0306   21.6920 O   0  0  0  0  0  0  0  0  0  0  0  0
  -32.4173  -19.7785   27.0776 O   0  0  0  0  0  0  0  0  0  1  0  0
  -18.5618   -6.8941   26.3007 F   0  0  0  0  0  0  0  0  0  0  0  0
  -22.0097   -5.0846   23.6093 F   0  0  0  0  0  0  0  0  0  0  0  0
  1  2  1  0  0  0  0
  1  5  2  0  0  0  0
  2  6  2  0  0  0  0
  3  8  2  0  0  0  0
  3 15  1  0  0  0  0
  4  9  1  0  0  0  0
  4 15  2  0  0  0  0
  5 17  1  0  0  0  0
  6 19  1  0  0  0  0
  7 10  2  0  0  0  0
  7 18  1  0  0  0  0
  8 22  1  0  0  0  0
  9 22  2  0  0  0  0
 10 23  1  0  0  0  0
 11 12  2  0  0  0  0
 11 24  1  0  0  0  0
 12 25  1  0  0  0  0
 13 20  1  0  0  0  0
 13 23  2  0  0  0  0
 14 25  2  0  0  0  0
 14 26  1  0  0  0  0
 15 27  1  0  0  0  0
 16 27  1  0  0  0  0
 16 30  2  0  0  0  0
 16 32  1  0  0  0  0
 17 19  2  0  0  0  0
 17 37  1  0  0  0  0
 18 20  2  0  0  0  0
 18 38  1  0  0  0  0
 19 48  1  0  0  0  0
 20 39  1  0  0  0  0
 21 28  1  0  0  0  0
 21 29  2  0  0  0  0
 21 52  1  0  0  0  0
 22 80  1  0  0  0  0
 23 81  1  0  0  0  0
 24 26  2  0  0  0  0
 24 80  1  0  0  0  0
 25 82  1  0  0  0  0
 26 83  1  0  0  0  0
 27 63  2  0  0  0  0
 28 49  1  0  0  0  0
 28 64  2  0  0  0  0
 29 59  1  0  0  0  0
 29 65  1  0  0  0  0
 30 66  1  0  0  0  0
 30 70  1  0  0  0  0
 31 53  1  0  0  0  0
 31 64  1  0  0  0  0
 31 65  2  0  0  0  0
 32 71  1  0  0  0  0
 32 75  2  0  0  0  0
 33 50  1  0  0  0  0
 33 72  1  0  0  0  0
 33 76  2  0  0  0  0
 34 60  1  0  0  0  0
 34 67  1  0  0  0  0
 34 77  2  0  0  0  0
 35 61  1  0  0  0  0
 35 73  1  0  0  0  0
 35 78  2  0  0  0  0
 36 68  1  0  0  0  0
 36 69  1  0  0  0  0
 36 79  2  0  0  0  0
 37 40  1  0  0  0  0
 38 50  1  0  0  0  0
 39 67  1  0  0  0  0
 40 42  1  0  0  0  0
 41 43  1  0  0  0  0
 41 44  1  0  0  0  0
 42 48  1  0  0  0  0
 43 51  1  0  0  0  0
 44 68  1  0  0  0  0
 45 49  1  0  0  0  0
 45 69  1  0  0  0  0
 46 49  1  0  0  0  0
 46 69  1  0  0  0  0
 47 51  1  0  0  0  0
 47 68  1  0  0  0  0
 48 72  1  0  0  0  0
 50 67  1  0  0  0  0
 51 66  1  0  0  0  0
 54 61  1  0  0  0  0
 55 62  1  0  0  0  0
 56 62  1  0  0  0  0
 57 62  1  0  0  0  0
 58 74  1  0  0  0  0
 59 81  1  0  0  0  0
 60 62  1  0  0  0  0
 60 73  1  0  0  0  0
 61 74  1  0  0  0  0
 63 66  1  0  0  0  0
M  CHG  1  74   1
M  ISO  4  36 100  59 101  69 100  81 101
M  END
> <Batch ID>
0180

> <Smiles>
CNC(C)C(=O)NC(C(=O)N1Cc2cc([101O:1][101CH2:1]c3nc(C)nc(C4C[100N:0]([100C:0](=O)N5CCCC(n6nc(-c7ccc(Oc8ccc(F)cc8F)cc7)c(C(N)=O)c6N)C5)C4)c3C)ccc2CC1C(=O)NC1CCCc2ccccc21)C(C)(C)C

> <Shape>
0.156

> <Color>
0.190

> <Negative vol penalty>
0.000

$$$$

  -OEChem-04052323003D

 81 90  0     1  0  0  0  0  0999 V2000
  -25.3816  -10.5576   19.6196 C   0  0  0  0  0  0  0  0  0  0  0  0
  -26.3880  -11.4331   19.2248 C   0  0  0  0  0  0  0  0  0  0  0  0
  -19.1661  -27.4586   18.3878 C   0  0  0  0  0  0  0  0  0  0  0  0
  -20.7463  -25.7803   17.6646 C   0  0  0  0  0  0  0  0  0  0  0  0
  -24.1359  -11.0552   19.9999 C   0  0  0  0  0  0  0  0  0  0  0  0
  -26.1490  -12.8068   19.2090 C   0  0  0  0  0  0  0  0  0  0  0  0
  -29.4761  -19.0647   20.2506 C   0  0  0  0  0  0  0  0  0  0  0  0
  -18.3674  -27.1851   17.2774 C   0  0  0  0  0  0  0  0  0  0  0  0
  -19.9477  -25.5066   16.5543 C   0  0  0  0  0  0  0  0  0  0  0  0
  -29.6860  -20.2909   19.6211 C   0  0  0  0  0  0  0  0  0  0  0  0
  -17.1228  -23.7765   15.8856 C   0  0  0  0  0  0  0  0  0  0  0  0
  -16.8915  -22.4378   15.5697 C   0  0  0  0  0  0  0  0  0  0  0  0
  -27.5209  -21.0416   20.3746 C   0  0  0  0  0  0  0  0  0  0  0  0
  -17.9134  -22.7718   13.4061 C   0  0  0  0  0  0  0  0  0  0  0  0
  -20.3556  -26.7563   18.5814 C   0  0  0  0  0  0  0  0  0  0  0  0
  -21.1140  -26.4292   20.9950 C   0  0  0  0  0  0  0  0  0  0  0  0
  -23.8846  -12.4363   19.9981 C   0  0  0  0  0  0  0  0  0  0  0  0
  -28.2804  -18.8135   20.9388 C   0  0  0  0  0  0  0  0  0  0  0  0
  -24.8984  -13.3233   19.5884 C   0  0  0  0  0  0  0  0  0  0  0  0
  -27.2993  -19.8124   21.0142 C   0  0  0  0  0  0  0  0  0  0  0  0
  -18.7582  -26.2091   16.3607 C   0  0  0  0  0  0  0  0  0  0  0  0
  -28.7071  -21.2785   19.6805 C   0  0  0  0  0  0  0  0  0  0  0  0
  -17.7493  -24.6130   14.9618 C   0  0  0  0  0  0  0  0  0  0  0  0
  -17.2868  -21.9354   14.3299 C   0  0  0  0  0  0  0  0  0  0  0  0
  -18.1446  -24.1106   13.7220 C   0  0  0  0  0  0  0  0  0  0  0  0
  -21.1813  -27.0388   19.7278 C   0  0  0  0  0  0  0  0  0  0  0  0
  -22.1020  -27.0439   21.7247 C   0  0  0  0  0  0  0  0  0  0  0  0
  -20.2368  -25.3993   21.4699 C   0  0  0  0  0  0  0  0  0  0  0  0
  -25.9051  -16.7255   20.6201 C   0  0  0  0  0  0  0  0  0  0  0  0
  -30.0535  -25.1872   18.7161 C   0  0  0  0  0  0  0  0  0  0  0  0
  -24.8892  -18.0475   23.4027 C   0  0  0  0  0  0  0  0  0  0  0  0
  -24.9032  -20.7319   25.5099 C   0  0  0  0  0  0  0  0  0  0  0  0
  -27.1619  -29.8363   20.0320 C   0  0  0  0  0  0  0  0  0  0  0  0
  -22.5073  -12.9240   20.3722 C   0  0  0  0  0  0  0  0  0  0  0  0
  -28.0805  -17.4953   21.6353 C   0  0  0  0  0  0  0  0  0  0  0  0
  -26.0067  -19.5999   21.7575 C   0  0  0  0  0  0  0  0  0  0  0  0
  -22.4543  -14.4169   20.6861 C   0  0  0  0  0  0  0  0  0  0  0  0
  -24.4972  -31.1763   22.0618 C   0  0  0  0  0  0  0  0  0  0  0  0
  -23.2033  -15.2131   19.6223 C   0  0  0  0  0  0  0  0  0  0  0  0
  -23.3306  -30.2239   21.7927 C   0  0  0  0  0  0  0  0  0  0  0  0
  -31.0489  -24.2439   16.5598 C   0  0  0  0  0  0  0  0  0  0  0  0
  -29.5588  -24.2140   16.4061 C   0  0  0  0  0  0  0  0  0  0  0  0
  -25.3849  -31.3548   20.8310 C   0  0  0  0  0  0  0  0  0  0  0  0
  -24.6999  -29.1579   19.9620 C   0  0  0  0  0  0  0  0  0  0  0  0
  -28.8865  -28.1238   19.2520 C   0  0  0  0  0  0  0  0  0  0  0  0
  -26.9761  -27.2581   19.6012 C   0  0  0  0  0  0  0  0  0  0  0  0
  -24.6854  -14.8215   19.5817 C   0  0  1  0  0  0  0  0  0  0  0  0
  -26.6109  -17.1618   21.8727 C   0  0  1  0  0  0  0  0  0  0  0  0
  -23.8244  -28.8926   21.1958 C   0  0  2  0  0  0  0  0  0  0  0  0
  -28.4181  -26.7501   19.7484 C   0  0  0  0  0  0  0  0  0  0  0  0
  -30.1746  -24.0359   17.7737 C   0  0  0  0  0  0  0  0  0  0  0  0
  -23.9486  -21.5308   27.6888 C   0  0  0  0  0  0  0  0  0  0  0  0
  -22.2030  -18.5410   22.0422 C   0  0  0  0  0  0  0  0  0  0  0  0
  -21.6445  -20.1442   23.8823 C   0  0  0  0  0  0  0  0  0  0  0  0
  -22.0436  -17.7380   24.4053 C   0  0  0  0  0  0  0  0  0  0  0  0
  -27.5909  -21.0188   26.7152 C   0  0  0  0  0  0  0  0  0  0  0  0
  -30.1400  -22.6601   18.3791 C   0  0  0  0  0  0  0  0  0  1  0  0
  -23.9994  -19.2097   23.7719 C   0  0  1  0  0  0  0  0  0  0  0  0
  -25.1173  -20.8344   27.0092 C   0  0  2  0  0  0  0  0  0  0  0  0
  -22.4960  -18.9119   23.5097 C   0  0  0  0  0  0  0  0  0  0  0  0
  -22.1365  -27.9695   19.6535 N   0  0  0  0  0  0  0  0  0  0  0  0
  -22.6784  -27.9493   20.8832 N   0  0  0  0  0  0  0  0  0  0  0  0
  -25.8556  -18.2922   22.4168 N   0  0  0  0  0  0  0  0  0  0  0  0
  -25.8093  -30.0550   20.3046 N   0  0  0  0  0  0  0  0  0  0  0  0
  -27.5427  -28.5979   19.5717 N   0  0  0  0  0  0  0  0  0  0  0  0
  -22.5252  -26.8929   22.9977 N   0  0  0  0  0  0  0  0  0  0  0  0
  -19.2793  -24.8784   20.5889 N   0  0  0  0  0  0  0  0  0  0  0  0
  -25.4017  -15.4398   20.6768 N   0  0  0  0  0  0  0  0  0  0  0  0
  -28.7629  -25.6384   18.8748 N   0  0  0  0  0  0  0  0  0  0  0  0
  -24.3105  -19.5374   25.1591 N   0  0  0  0  0  0  0  0  0  0  0  0
  -26.3589  -21.6044   27.3037 N   0  3  0  0  0  0  0  0  0  0  0  0
  -20.2894  -24.9657   22.6458 O   0  0  0  0  0  0  0  0  0  0  0  0
  -25.8219  -17.4985   19.6729 O   0  0  0  0  0  0  0  0  0  0  0  0
  -31.0581  -25.6313   19.2596 O   0  0  0  0  0  0  0  0  0  0  0  0
  -24.7372  -16.9644   23.9732 O   0  0  0  0  0  0  0  0  0  0  0  0
  -25.2258  -21.6240   24.7284 O   0  0  0  0  0  0  0  0  0  0  0  0
  -28.0152  -30.7130   20.2234 O   0  0  0  0  0  0  0  0  0  0  0  0
  -17.9789  -25.9417   15.2772 O   0  0  0  0  0  0  0  0  0  0  0  0
  -28.9110  -22.4866   19.0609 O   0  0  0  0  0  0  0  0  0  1  0  0
  -17.0660  -20.6494   14.0273 F   0  0  0  0  0  0  0  0  0  0  0  0
  -18.7480  -24.9091   12.8308 F   0  0  0  0  0  0  0  0  0  0  0  0
  1  2  1  0  0  0  0
  1  5  2  0  0  0  0
  2  6  2  0  0  0  0
  3  8  2  0  0  0  0
  3 15  1  0  0  0  0
  4  9  1  0  0  0  0
  4 15  2  0  0  0  0
  5 17  1  0  0  0  0
  6 19  1  0  0  0  0
  7 10  2  0  0  0  0
  7 18  1  0  0  0  0
  8 21  1  0  0  0  0
  9 21  2  0  0  0  0
 10 22  1  0  0  0  0
 11 12  2  0  0  0  0
 11 23  1  0  0  0  0
 12 24  1  0  0  0  0
 13 20  1  0  0  0  0
 13 22  2  0  0  0  0
 14 24  2  0  0  0  0
 14 25  1  0  0  0  0
 15 26  1  0  0  0  0
 16 26  1  0  0  0  0
 16 27  2  0  0  0  0
 16 28  1  0  0  0  0
 17 19  2  0  0  0  0
 17 34  1  0  0  0  0
 18 20  2  0  0  0  0
 18 35  1  0  0  0  0
 19 47  1  0  0  0  0
 20 36  1  0  0  0  0
 21 78  1  0  0  0  0
 22 79  1  0  0  0  0
 23 25  2  0  0  0  0
 23 78  1  0  0  0  0
 24 80  1  0  0  0  0
 25 81  1  0  0  0  0
 26 61  2  0  0  0  0
 27 62  1  0  0  0  0
 27 66  1  0  0  0  0
 28 67  1  0  0  0  0
 28 72  2  0  0  0  0
 29 48  1  0  0  0  0
 29 68  1  0  0  0  0
 29 73  2  0  0  0  0
 30 51  1  0  0  0  0
 30 69  1  0  0  0  0
 30 74  2  0  0  0  0
 31 58  1  0  0  0  0
 31 63  1  0  0  0  0
 31 75  2  0  0  0  0
 32 59  1  0  0  0  0
 32 70  1  0  0  0  0
 32 76  2  0  0  0  0
 33 64  1  0  0  0  0
 33 65  1  0  0  0  0
 33 77  2  0  0  0  0
 34 37  1  0  0  0  0
 35 48  1  0  0  0  0
 36 63  1  0  0  0  0
 37 39  1  0  0  0  0
 38 40  1  0  0  0  0
 38 43  1  0  0  0  0
 39 47  1  0  0  0  0
 40 49  1  0  0  0  0
 41 42  1  0  0  0  0
 41 51  1  0  0  0  0
 42 51  1  0  0  0  0
 43 64  1  0  0  0  0
 44 49  1  0  0  0  0
 44 64  1  0  0  0  0
 45 50  1  0  0  0  0
 45 65  1  0  0  0  0
 46 50  1  0  0  0  0
 46 65  1  0  0  0  0
 47 68  1  0  0  0  0
 48 63  1  0  0  0  0
 49 62  1  0  0  0  0
 50 69  1  0  0  0  0
 51 57  1  0  0  0  0
 52 59  1  0  0  0  0
 53 60  1  0  0  0  0
 54 60  1  0  0  0  0
 55 60  1  0  0  0  0
 56 71  1  0  0  0  0
 57 79  1  0  0  0  0
 58 60  1  0  0  0  0
 58 70  1  0  0  0  0
 59 71  1  0  0  0  0
 61 62  1  0  0  0  0
M  CHG  1  71   1
M  ISO  4  33 100  57 101  65 100  79 101
M  END
> <Batch ID>
0180

> <Smiles>
CNC(C)C(=O)NC(C(=O)N1Cc2cc([101O:1][101CH2:1]C3(C(=O)NC4C[100N:0]([100C:0](=O)N5CCCC(n6nc(-c7ccc(Oc8ccc(F)cc8F)cc7)c(C(N)=O)c6N)C5)C4)CC3)ccc2CC1C(=O)NC1CCCc2ccccc21)C(C)(C)C

> <Shape>
0.194

> <Color>
0.071

> <Negative vol penalty>
0.000

$$$$

  -OEChem-04052323003D

 83 92  0     1  0  0  0  0  0999 V2000
  -21.6398  -33.4805   19.8798 C   0  0  0  0  0  0  0  0  0  0  0  0
  -22.8172  -32.7544   20.0282 C   0  0  0  0  0  0  0  0  0  0  0  0
  -23.3580   -9.7668   21.3070 C   0  0  0  0  0  0  0  0  0  0  0  0
  -24.0043  -10.7011   23.4392 C   0  0  0  0  0  0  0  0  0  0  0  0
  -32.1040  -19.0294   21.8106 C   0  0  0  0  0  0  0  0  0  0  0  0
  -20.5480  -33.2120   20.7043 C   0  0  0  0  0  0  0  0  0  0  0  0
  -22.9038  -31.7600   21.0019 C   0  0  0  0  0  0  0  0  0  0  0  0
  -26.0045  -26.4926   20.6191 C   0  0  0  0  0  0  0  0  0  0  0  0
  -31.6115  -17.8275   21.3007 C   0  0  0  0  0  0  0  0  0  0  0  0
  -22.7048   -8.7230   21.9624 C   0  0  0  0  0  0  0  0  0  0  0  0
  -23.3511   -9.6574   24.0946 C   0  0  0  0  0  0  0  0  0  0  0  0
  -27.2561  -26.1043   21.0950 C   0  0  0  0  0  0  0  0  0  0  0  0
  -19.7701   -8.2407   23.5710 C   0  0  0  0  0  0  0  0  0  0  0  0
  -18.4966   -7.8900   23.1229 C   0  0  0  0  0  0  0  0  0  0  0  0
  -29.3141  -18.6234   21.5017 C   0  0  0  0  0  0  0  0  0  0  0  0
  -26.2090  -25.1359   23.0406 C   0  0  0  0  0  0  0  0  0  0  0  0
  -19.2835   -5.6589   22.6331 C   0  0  0  0  0  0  0  0  0  0  0  0
  -24.0078  -10.7558   22.0454 C   0  0  0  0  0  0  0  0  0  0  0  0
  -31.1804  -19.9994   22.1532 C   0  0  0  0  0  0  0  0  0  0  0  0
  -24.1368  -13.0751   20.9909 C   0  0  0  0  0  0  0  0  0  0  0  0
  -20.6180  -32.2072   21.6821 C   0  0  0  0  0  0  0  0  0  0  0  0
  -24.8448  -26.2147   21.3569 C   0  0  0  0  0  0  0  0  0  0  0  0
  -21.8123  -31.4787   21.8411 C   0  0  0  0  0  0  0  0  0  0  0  0
  -29.8036  -19.8156   22.0074 C   0  0  0  0  0  0  0  0  0  0  0  0
  -24.9437  -25.5196   22.5707 C   0  0  0  0  0  0  0  0  0  0  0  0
  -30.2284  -17.6258   21.1473 C   0  0  0  0  0  0  0  0  0  0  0  0
  -22.7013   -8.6683   23.3562 C   0  0  0  0  0  0  0  0  0  0  0  0
  -27.3588  -25.4283   22.3074 C   0  0  0  0  0  0  0  0  0  0  0  0
  -20.8003   -7.3006   23.5501 C   0  0  0  0  0  0  0  0  0  0  0  0
  -18.2533   -6.5991   22.6539 C   0  0  0  0  0  0  0  0  0  0  0  0
  -20.5570   -6.0096   23.0811 C   0  0  0  0  0  0  0  0  0  0  0  0
  -24.6832  -11.8340   21.3690 C   0  0  0  0  0  0  0  0  0  0  0  0
  -25.1767  -13.7380   20.3862 C   0  0  0  0  0  0  0  0  0  0  0  0
  -31.4349  -21.3327   22.7034 C   0  0  0  0  0  0  0  0  0  0  0  0
  -30.1003  -21.9740   22.8924 C   0  0  0  0  0  0  0  0  0  0  0  0
  -29.9510  -23.2093   23.3830 C   0  0  0  0  0  0  0  0  0  0  0  0
  -22.8082  -13.5833   21.1704 C   0  0  0  0  0  0  0  0  0  0  0  0
  -22.5851  -27.9771   22.7323 C   0  0  0  0  0  0  0  0  0  0  0  0
  -21.2087  -25.0899   23.2730 C   0  0  0  0  0  0  0  0  0  0  0  0
  -21.5955  -21.7191   23.6397 C   0  0  0  0  0  0  0  0  0  0  0  0
  -30.5183  -15.3009   20.2214 C   0  0  0  0  0  0  0  0  0  0  0  0
  -29.0233  -21.0163   22.4505 C   0  0  0  0  0  0  0  0  0  0  0  0
  -19.4277  -31.9853   22.5814 C   0  0  0  0  0  0  0  0  0  0  0  0
  -23.4998  -26.6169   20.8168 C   0  0  0  0  0  0  0  0  0  0  0  0
  -23.7273  -25.1792   23.3910 C   0  0  0  0  0  0  0  0  0  0  0  0
  -19.4750  -30.6606   23.3385 C   0  0  0  0  0  0  0  0  0  0  0  0
  -29.7294  -12.0827   18.9186 C   0  0  0  0  0  0  0  0  0  0  0  0
  -20.8544  -30.4460   23.9533 C   0  0  0  0  0  0  0  0  0  0  0  0
  -28.3013  -11.8332   19.4088 C   0  0  0  0  0  0  0  0  0  0  0  0
  -30.5632  -12.8304   19.9575 C   0  0  0  0  0  0  0  0  0  0  0  0
  -28.5374  -13.8275   20.9430 C   0  0  0  0  0  0  0  0  0  0  0  0
  -21.9366  -30.3753   22.8693 C   0  0  1  0  0  0  0  0  0  0  0  0
  -22.4321  -26.7355   21.9000 C   0  0  1  0  0  0  0  0  0  0  0  0
  -27.6403  -13.1342   19.9047 C   0  0  2  0  0  0  0  0  0  0  0  0
  -20.2931  -19.6267   24.1119 C   0  0  0  0  0  0  0  0  0  0  0  0
  -21.0442  -25.8604   26.2207 C   0  0  0  0  0  0  0  0  0  0  0  0
  -20.6430  -23.4480   26.7570 C   0  0  0  0  0  0  0  0  0  0  0  0
  -19.0180  -24.6942   25.3327 C   0  0  0  0  0  0  0  0  0  0  0  0
  -22.3418  -20.5282   21.0352 C   0  0  0  0  0  0  0  0  0  0  0  0
  -28.6287  -23.8730   23.5817 C   0  0  0  0  0  0  0  0  0  1  0  0
  -21.2735  -24.0651   24.3795 C   0  0  1  0  0  0  0  0  0  0  0  0
  -20.8442  -20.5472   23.0341 C   0  0  2  0  0  0  0  0  0  0  0  0
  -20.5180  -24.5249   25.6582 C   0  0  0  0  0  0  0  0  0  0  0  0
  -25.9701  -11.7131   21.0324 N   0  0  0  0  0  0  0  0  0  0  0  0
  -26.2410  -12.8867   20.4365 N   0  0  0  0  0  0  0  0  0  0  0  0
  -22.4353  -25.5992   22.8237 N   0  0  0  0  0  0  0  0  0  0  0  0
  -29.8766  -14.0541   20.3773 N   0  0  0  0  0  0  0  0  0  0  0  0
  -25.2752  -14.9603   19.8215 N   0  0  0  0  0  0  0  0  0  0  0  0
  -21.8632  -12.7711   21.8120 N   0  0  0  0  0  0  0  0  0  0  0  0
  -29.7556  -16.3963   20.6252 N   0  0  0  0  0  0  0  0  0  0  0  0
  -21.9233  -29.0792   22.2256 N   0  0  0  0  0  0  0  0  0  0  0  0
  -20.7784  -22.8168   23.8092 N   0  0  0  0  0  0  0  0  0  0  0  0
  -21.7468  -19.7526   22.1538 N   0  3  0  0  0  0  0  0  0  0  0  0
  -32.5249  -21.8058   22.9497 O   0  0  0  0  0  0  0  0  0  0  0  0
  -22.4647  -14.7174   20.7591 O   0  0  0  0  0  0  0  0  0  0  0  0
  -23.2529  -27.9377   23.7591 O   0  0  0  0  0  0  0  0  0  0  0  0
  -20.1106  -25.4210   22.8189 O   0  0  0  0  0  0  0  0  0  0  0  0
  -22.7869  -21.6648   23.9365 O   0  0  0  0  0  0  0  0  0  0  0  0
  -31.6497  -15.3926   19.7383 O   0  0  0  0  0  0  0  0  0  0  0  0
  -22.0639   -7.6501   23.9961 O   0  0  0  0  0  0  0  0  0  0  0  0
  -28.5792  -25.0487   22.7745 O   0  0  0  0  0  0  0  0  0  1  0  0
  -17.0299   -6.2620   22.2251 F   0  0  0  0  0  0  0  0  0  0  0  0
  -21.5424   -5.1017   23.0597 F   0  0  0  0  0  0  0  0  0  0  0  0
  1  2  1  0  0  0  0
  1  6  2  0  0  0  0
  2  7  2  0  0  0  0
  3 10  2  0  0  0  0
  3 18  1  0  0  0  0
  4 11  1  0  0  0  0
  4 18  2  0  0  0  0
  5  9  2  0  0  0  0
  5 19  1  0  0  0  0
  6 21  1  0  0  0  0
  7 23  1  0  0  0  0
  8 12  2  0  0  0  0
  8 22  1  0  0  0  0
  9 26  1  0  0  0  0
 10 27  1  0  0  0  0
 11 27  2  0  0  0  0
 12 28  1  0  0  0  0
 13 14  2  0  0  0  0
 13 29  1  0  0  0  0
 14 30  1  0  0  0  0
 15 24  1  0  0  0  0
 15 26  2  0  0  0  0
 16 25  1  0  0  0  0
 16 28  2  0  0  0  0
 17 30  2  0  0  0  0
 17 31  1  0  0  0  0
 18 32  1  0  0  0  0
 19 24  2  0  0  0  0
 19 34  1  0  0  0  0
 20 32  1  0  0  0  0
 20 33  2  0  0  0  0
 20 37  1  0  0  0  0
 21 23  2  0  0  0  0
 21 43  1  0  0  0  0
 22 25  2  0  0  0  0
 22 44  1  0  0  0  0
 23 52  1  0  0  0  0
 24 42  1  0  0  0  0
 25 45  1  0  0  0  0
 26 70  1  0  0  0  0
 27 80  1  0  0  0  0
 28 81  1  0  0  0  0
 29 31  2  0  0  0  0
 29 80  1  0  0  0  0
 30 82  1  0  0  0  0
 31 83  1  0  0  0  0
 32 64  2  0  0  0  0
 33 65  1  0  0  0  0
 33 68  1  0  0  0  0
 34 35  1  0  0  0  0
 34 74  2  0  0  0  0
 35 36  2  0  0  0  0
 35 42  1  0  0  0  0
 36 60  1  0  0  0  0
 37 69  1  0  0  0  0
 37 75  2  0  0  0  0
 38 53  1  0  0  0  0
 38 71  1  0  0  0  0
 38 76  2  0  0  0  0
 39 61  1  0  0  0  0
 39 66  1  0  0  0  0
 39 77  2  0  0  0  0
 40 62  1  0  0  0  0
 40 72  1  0  0  0  0
 40 78  2  0  0  0  0
 41 67  1  0  0  0  0
 41 70  1  0  0  0  0
 41 79  2  0  0  0  0
 43 46  1  0  0  0  0
 44 53  1  0  0  0  0
 45 66  1  0  0  0  0
 46 48  1  0  0  0  0
 47 49  1  0  0  0  0
 47 50  1  0  0  0  0
 48 52  1  0  0  0  0
 49 54  1  0  0  0  0
 50 67  1  0  0  0  0
 51 54  1  0  0  0  0
 51 67  1  0  0  0  0
 52 71  1  0  0  0  0
 53 66  1  0  0  0  0
 54 65  1  0  0  0  0
 55 62  1  0  0  0  0
 56 63  1  0  0  0  0
 57 63  1  0  0  0  0
 58 63  1  0  0  0  0
 59 73  1  0  0  0  0
 60 81  1  0  0  0  0
 61 63  1  0  0  0  0
 61 72  1  0  0  0  0
 62 73  1  0  0  0  0
 64 65  1  0  0  0  0
M  CHG  1  73   1
M  ISO  4  41 100  60 101  70 100  81 101
M  END
> <Batch ID>
0180

> <Smiles>
CNC(C)C(=O)NC(C(=O)N1Cc2cc([101O:1][101CH2:1]C=C3Cc4cc([100NH:0][100C:0](=O)N5CCCC(n6nc(-c7ccc(Oc8ccc(F)cc8F)cc7)c(C(N)=O)c6N)C5)ccc4C3=O)ccc2CC1C(=O)NC1CCCc2ccccc21)C(C)(C)C

> <Shape>
0.205

> <Color>
0.155

> <Negative vol penalty>
0.000

$$$$

  -OEChem-04052323003D

 82 90  0     1  0  0  0  0  0999 V2000
  -23.0097  -12.9382   26.3831 C   0  0  0  0  0  0  0  0  0  0  0  0
  -24.0546  -13.7979   26.0599 C   0  0  0  0  0  0  0  0  0  0  0  0
  -21.8525  -26.2232   23.3356 C   0  0  0  0  0  0  0  0  0  0  0  0
  -21.5700  -25.5304   21.0384 C   0  0  0  0  0  0  0  0  0  0  0  0
  -22.3002  -12.2936   25.3707 C   0  0  0  0  0  0  0  0  0  0  0  0
  -24.3914  -14.0126   24.7239 C   0  0  0  0  0  0  0  0  0  0  0  0
  -26.4358  -19.2208   22.2338 C   0  0  0  0  0  0  0  0  0  0  0  0
  -20.5141  -26.6132   23.3826 C   0  0  0  0  0  0  0  0  0  0  0  0
  -20.2315  -25.9203   21.0854 C   0  0  0  0  0  0  0  0  0  0  0  0
  -27.7168  -19.6668   21.9114 C   0  0  0  0  0  0  0  0  0  0  0  0
  -18.6464  -29.2349   22.3519 C   0  0  0  0  0  0  0  0  0  0  0  0
  -18.3513  -30.4674   22.9345 C   0  0  0  0  0  0  0  0  0  0  0  0
  -27.3991  -18.9186   19.6402 C   0  0  0  0  0  0  0  0  0  0  0  0
  -16.9695  -29.3597   24.5779 C   0  0  0  0  0  0  0  0  0  0  0  0
  -22.3805  -25.6819   22.1634 C   0  0  0  0  0  0  0  0  0  0  0  0
  -24.2918  -24.0137   22.4306 C   0  0  0  0  0  0  0  0  0  0  0  0
  -22.6223  -12.5080   24.0212 C   0  0  0  0  0  0  0  0  0  0  0  0
  -25.6296  -18.6095   21.2628 C   0  0  0  0  0  0  0  0  0  0  0  0
  -23.6865  -13.3692   23.6925 C   0  0  0  0  0  0  0  0  0  0  0  0
  -26.1073  -18.4681   19.9522 C   0  0  0  0  0  0  0  0  0  0  0  0
  -19.7036  -26.4617   22.2575 C   0  0  0  0  0  0  0  0  0  0  0  0
  -28.1998  -19.5131   20.6151 C   0  0  0  0  0  0  0  0  0  0  0  0
  -18.1029  -28.0648   22.8822 C   0  0  0  0  0  0  0  0  0  0  0  0
  -17.5129  -30.5298   24.0475 C   0  0  0  0  0  0  0  0  0  0  0  0
  -17.2646  -28.1272   23.9952 C   0  0  0  0  0  0  0  0  0  0  0  0
  -23.7631  -25.2794   22.1141 C   0  0  0  0  0  0  0  0  0  0  0  0
  -25.6434  -24.1447   22.2240 C   0  0  0  0  0  0  0  0  0  0  0  0
  -23.6213  -22.8257   22.8718 C   0  0  0  0  0  0  0  0  0  0  0  0
  -24.3140  -15.7357   20.9250 C   0  0  0  0  0  0  0  0  0  0  0  0
  -22.9166  -17.1088   18.3396 C   0  0  0  0  0  0  0  0  0  0  0  0
  -23.0035  -19.5455   15.9518 C   0  0  0  0  0  0  0  0  0  0  0  0
  -29.7727  -25.8635   18.7730 C   0  0  0  0  0  0  0  0  0  0  0  0
  -21.8576  -11.7522   22.9635 C   0  0  0  0  0  0  0  0  0  0  0  0
  -24.2400  -18.1580   21.6200 C   0  0  0  0  0  0  0  0  0  0  0  0
  -25.2738  -17.8368   18.8681 C   0  0  0  0  0  0  0  0  0  0  0  0
  -22.0343  -12.3235   21.5590 C   0  0  0  0  0  0  0  0  0  0  0  0
  -28.1688  -28.4000   21.0243 C   0  0  0  0  0  0  0  0  0  0  0  0
  -23.5071  -12.6042   21.2782 C   0  0  0  0  0  0  0  0  0  0  0  0
  -27.1599  -27.5839   21.8328 C   0  0  0  0  0  0  0  0  0  0  0  0
  -29.3817  -23.1627   16.2498 C   0  0  0  0  0  0  0  0  0  0  0  0
  -29.3184  -27.5492   20.5057 C   0  0  0  0  0  0  0  0  0  0  0  0
  -27.5289  -25.8864   19.9732 C   0  0  0  0  0  0  0  0  0  0  0  0
  -27.9586  -24.6372   17.4631 C   0  0  0  0  0  0  0  0  0  0  0  0
  -24.0658  -13.6469   22.2540 C   0  0  1  0  0  0  0  0  0  0  0  0
  -23.7001  -17.0850   20.6795 C   0  0  1  0  0  0  0  0  0  0  0  0
  -27.1515  -26.0930   21.4502 C   0  0  2  0  0  0  0  0  0  0  0  0
  -28.1620  -24.0522   16.0762 C   0  0  2  0  0  0  0  0  0  0  0  0
  -30.2673  -24.0024   17.1800 C   0  0  2  0  0  0  0  0  0  0  0  0
  -21.7436  -20.3904   13.9527 C   0  0  0  0  0  0  0  0  0  0  0  0
  -32.0168  -22.1823   17.2309 C   0  0  0  0  0  0  0  0  0  0  0  0
  -24.0054  -14.7931   16.6777 C   0  0  0  0  0  0  0  0  0  0  0  0
  -23.5547  -16.1484   14.6214 C   0  0  0  0  0  0  0  0  0  0  0  0
  -21.6681  -15.4770   16.1088 C   0  0  0  0  0  0  0  0  0  0  0  0
  -27.1339  -22.6154   14.3105 C   0  0  0  0  0  0  0  0  0  0  0  0
  -22.5285  -22.1777   17.2185 C   0  0  0  0  0  0  0  0  0  0  0  0
  -30.9561  -21.8222   20.1753 C   0  0  0  0  0  0  0  0  0  0  0  0
  -29.9547  -21.0649   21.0249 C   0  0  0  0  0  0  0  0  0  1  0  0
  -23.2815  -17.2629   16.8829 C   0  0  1  0  0  0  0  0  0  0  0  0
  -21.9398  -20.5085   15.4562 C   0  0  2  0  0  0  0  0  0  0  0  0
  -31.1554  -23.1251   18.0536 C   0  0  2  0  0  0  0  0  0  0  0  0
  -23.1441  -15.9306   16.0934 C   0  0  0  0  0  0  0  0  0  0  0  0
  -24.7021  -26.1505   21.7353 N   0  0  0  0  0  0  0  0  0  0  0  0
  -25.8346  -25.4310   21.8126 N   0  0  0  0  0  0  0  0  0  0  0  0
  -23.9242  -17.4056   19.2684 N   0  0  0  0  0  0  0  0  0  0  0  0
  -28.8528  -26.4477   19.6580 N   0  0  0  0  0  0  0  0  0  0  0  0
  -29.3253  -24.8196   17.9613 N   0  0  0  0  0  0  0  0  0  0  0  0
  -26.6750  -23.2841   22.3559 N   0  0  0  0  0  0  0  0  0  0  0  0
  -22.2295  -22.8645   23.0321 N   0  0  0  0  0  0  0  0  0  0  0  0
  -23.6462  -14.9769   21.8673 N   0  0  0  0  0  0  0  0  0  0  0  0
  -22.4563  -18.3503   16.3682 N   0  0  0  0  0  0  0  0  0  0  0  0
  -26.9884  -23.2769   15.6411 N   0  3  0  0  0  0  0  0  0  0  0  0
  -22.3257  -21.9132   15.7708 N   0  3  0  0  0  0  0  0  0  0  0  0
  -30.2826  -22.3145   18.9447 N   0  3  0  0  0  0  0  0  0  0  0  0
  -24.2400  -21.7661   23.1325 O   0  0  0  0  0  0  0  0  0  0  0  0
  -25.3181  -15.4068   20.3044 O   0  0  0  0  0  0  0  0  0  0  0  0
  -21.7773  -16.7456   18.6425 O   0  0  0  0  0  0  0  0  0  0  0  0
  -24.2005  -19.8241   15.9645 O   0  0  0  0  0  0  0  0  0  0  0  0
  -30.9424  -26.2655   18.7093 O   0  0  0  0  0  0  0  0  0  0  0  0
  -18.3975  -26.8419   22.3031 O   0  0  0  0  0  0  0  0  0  0  0  0
  -29.4589  -19.9500   20.2956 O   0  0  0  0  0  0  0  0  0  1  0  0
  -17.2309  -31.7133   24.6079 F   0  0  0  0  0  0  0  0  0  0  0  0
  -16.7405  -27.0064   24.5099 F   0  0  0  0  0  0  0  0  0  0  0  0
  1  2  1  0  0  0  0
  1  5  2  0  0  0  0
  2  6  2  0  0  0  0
  3  8  2  0  0  0  0
  3 15  1  0  0  0  0
  4  9  1  0  0  0  0
  4 15  2  0  0  0  0
  5 17  1  0  0  0  0
  6 19  1  0  0  0  0
  7 10  2  0  0  0  0
  7 18  1  0  0  0  0
  8 21  1  0  0  0  0
  9 21  2  0  0  0  0
 10 22  1  0  0  0  0
 11 12  2  0  0  0  0
 11 23  1  0  0  0  0
 12 24  1  0  0  0  0
 13 20  1  0  0  0  0
 13 22  2  0  0  0  0
 14 24  2  0  0  0  0
 14 25  1  0  0  0  0
 15 26  1  0  0  0  0
 16 26  1  0  0  0  0
 16 27  2  0  0  0  0
 16 28  1  0  0  0  0
 17 19  2  0  0  0  0
 17 33  1  0  0  0  0
 18 20  2  0  0  0  0
 18 34  1  0  0  0  0
 19 44  1  0  0  0  0
 20 35  1  0  0  0  0
 21 79  1  0  0  0  0
 22 80  1  0  0  0  0
 23 25  2  0  0  0  0
 23 79  1  0  0  0  0
 24 81  1  0  0  0  0
 25 82  1  0  0  0  0
 26 62  2  0  0  0  0
 27 63  1  0  0  0  0
 27 67  1  0  0  0  0
 28 68  1  0  0  0  0
 28 74  2  0  0  0  0
 29 45  1  0  0  0  0
 29 69  1  0  0  0  0
 29 75  2  0  0  0  0
 30 58  1  0  0  0  0
 30 64  1  0  0  0  0
 30 76  2  0  0  0  0
 31 59  1  0  0  0  0
 31 70  1  0  0  0  0
 31 77  2  0  0  0  0
 32 65  1  0  0  0  0
 32 66  1  0  0  0  0
 32 78  2  0  0  0  0
 33 36  1  0  0  0  0
 34 45  1  0  0  0  0
 35 64  1  0  0  0  0
 36 38  1  0  0  0  0
 37 39  1  0  0  0  0
 37 41  1  0  0  0  0
 38 44  1  0  0  0  0
 39 46  1  0  0  0  0
 40 47  1  0  0  0  0
 40 48  1  0  0  0  0
 41 65  1  0  0  0  0
 42 46  1  0  0  0  0
 42 65  1  0  0  0  0
 43 47  1  0  0  0  0
 43 66  1  0  0  0  0
 44 69  1  0  0  0  0
 45 64  1  0  0  0  0
 46 63  1  0  0  0  0
 47 71  1  0  0  0  0
 48 60  1  0  0  0  0
 48 66  1  0  0  0  0
 49 59  1  0  0  0  0
 50 60  1  0  0  0  0
 51 61  1  0  0  0  0
 52 61  1  0  0  0  0
 53 61  1  0  0  0  0
 54 71  1  0  0  0  0
 55 72  1  0  0  0  0
 56 57  1  0  0  0  0
 56 73  1  0  0  0  0
 57 80  1  0  0  0  0
 58 61  1  0  0  0  0
 58 70  1  0  0  0  0
 59 72  1  0  0  0  0
 60 73  1  0  0  0  0
 62 63  1  0  0  0  0
M  CHG  3  71   1  72   1  73   1
M  ISO  4  32 100  57 101  66 100  80 101
M  END
> <Batch ID>
0180

> <Smiles>
CNC1CC(C(C)NC[101CH2:1][101O:1]c2ccc3c(c2)CN(C(=O)C(NC(=O)C(C)NC)C(C)(C)C)C(C(=O)NC2CCCc4ccccc42)C3)[100N:0]([100C:0](=O)N2CCCC(n3nc(-c4ccc(Oc5ccc(F)cc5F)cc4)c(C(N)=O)c3N)C2)C1

> <Shape>
0.175

> <Color>
0.053

> <Negative vol penalty>
0.000

$$$$

  -OEChem-04052323003D

 83 92  0     1  0  0  0  0  0999 V2000
  -21.7546  -18.9247   25.8529 C   0  0  0  0  0  0  0  0  0  0  0  0
  -22.9764  -19.2252   25.2595 C   0  0  0  0  0  0  0  0  0  0  0  0
  -23.4442  -29.9815   19.2921 C   0  0  0  0  0  0  0  0  0  0  0  0
  -23.8908  -27.8208   20.2763 C   0  0  0  0  0  0  0  0  0  0  0  0
  -21.4228  -17.5992   26.1303 C   0  0  0  0  0  0  0  0  0  0  0  0
  -23.8678  -18.2003   24.9440 C   0  0  0  0  0  0  0  0  0  0  0  0
  -25.8786  -18.7271   20.3262 C   0  0  0  0  0  0  0  0  0  0  0  0
  -22.0744  -29.7690   19.4469 C   0  0  0  0  0  0  0  0  0  0  0  0
  -22.5210  -27.6082   20.4312 C   0  0  0  0  0  0  0  0  0  0  0  0
  -26.9076  -19.6567   20.1821 C   0  0  0  0  0  0  0  0  0  0  0  0
  -20.0775  -28.5704   22.5582 C   0  0  0  0  0  0  0  0  0  0  0  0
  -19.6366  -28.0587   23.7786 C   0  0  0  0  0  0  0  0  0  0  0  0
  -28.5263  -17.8708   20.2792 C   0  0  0  0  0  0  0  0  0  0  0  0
  -18.7147  -26.1376   22.6400 C   0  0  0  0  0  0  0  0  0  0  0  0
  -24.3525  -29.0074   19.7067 C   0  0  0  0  0  0  0  0  0  0  0  0
  -26.6446  -29.8275   20.4690 C   0  0  0  0  0  0  0  0  0  0  0  0
  -22.3065  -16.5568   25.8093 C   0  0  0  0  0  0  0  0  0  0  0  0
  -26.1667  -17.3612   20.4591 C   0  0  0  0  0  0  0  0  0  0  0  0
  -23.5481  -16.8597   25.2186 C   0  0  0  0  0  0  0  0  0  0  0  0
  -27.4990  -16.9256   20.4223 C   0  0  0  0  0  0  0  0  0  0  0  0
  -21.6128  -28.5823   20.0165 C   0  0  0  0  0  0  0  0  0  0  0  0
  -28.2319  -19.2289   20.1615 C   0  0  0  0  0  0  0  0  0  0  0  0
  -19.8371  -27.8657   21.3787 C   0  0  0  0  0  0  0  0  0  0  0  0
  -18.9552  -26.8423   23.8195 C   0  0  0  0  0  0  0  0  0  0  0  0
  -19.1557  -26.6493   21.4196 C   0  0  0  0  0  0  0  0  0  0  0  0
  -25.7676  -29.2262   19.5465 C   0  0  0  0  0  0  0  0  0  0  0  0
  -31.6165  -23.5825   18.7093 C   0  0  0  0  0  0  0  0  0  0  0  0
  -31.9330  -23.4445   20.0316 C   0  0  0  0  0  0  0  0  0  0  0  0
  -27.8695  -29.7970   19.8484 C   0  0  0  0  0  0  0  0  0  0  0  0
  -30.1032  -22.3365   19.7280 C   0  0  0  0  0  0  0  0  0  0  0  0
  -26.3762  -30.3654   21.7707 C   0  0  0  0  0  0  0  0  0  0  0  0
  -25.6800  -15.1751   22.7146 C   0  0  0  0  0  0  0  0  0  0  0  0
  -26.8544  -13.1559   20.4638 C   0  0  0  0  0  0  0  0  0  0  0  0
  -28.7594  -12.7300   17.6645 C   0  0  0  0  0  0  0  0  0  0  0  0
  -30.2032  -26.2771   15.6039 C   0  0  0  0  0  0  0  0  0  0  0  0
  -21.9240  -15.1435   26.1714 C   0  0  0  0  0  0  0  0  0  0  0  0
  -25.0440  -16.3685   20.5869 C   0  0  0  0  0  0  0  0  0  0  0  0
  -27.8604  -15.4683   20.5407 C   0  0  0  0  0  0  0  0  0  0  0  0
  -22.7654  -14.0845   25.4637 C   0  0  0  0  0  0  0  0  0  0  0  0
  -29.8655  -29.8200   15.5002 C   0  0  0  0  0  0  0  0  0  0  0  0
  -24.2467  -14.4402   25.5409 C   0  0  0  0  0  0  0  0  0  0  0  0
  -28.8561  -30.1238   16.6087 C   0  0  0  0  0  0  0  0  0  0  0  0
  -29.5355  -28.5153   14.7785 C   0  0  0  0  0  0  0  0  0  0  0  0
  -28.3687  -27.6468   16.7679 C   0  0  0  0  0  0  0  0  0  0  0  0
  -24.5311  -15.7736   24.8389 C   0  0  1  0  0  0  0  0  0  0  0  0
  -32.0416  -24.2125   17.4509 C   0  0  2  0  0  0  0  0  0  0  0  0
  -25.4780  -15.0552   21.2305 C   0  0  1  0  0  0  0  0  0  0  0  0
  -28.6916  -28.9244   17.5614 C   0  0  2  0  0  0  0  0  0  0  0  0
  -30.7712  -24.0573   16.5572 C   0  0  1  0  0  0  0  0  0  0  0  0
  -29.9394  -22.8984   17.1961 C   0  0  1  0  0  0  0  0  0  0  0  0
  -33.0697  -24.0008   20.7774 C   0  0  0  0  0  0  0  0  0  0  0  0
  -30.1542  -21.5724   16.4760 C   0  0  0  0  0  0  0  0  0  0  0  0
  -29.5616  -10.9585   16.0784 C   0  0  0  0  0  0  0  0  0  0  0  0
  -28.8736  -12.2092   22.5462 C   0  0  0  0  0  0  0  0  0  0  0  0
  -30.2061  -11.1886   20.6885 C   0  0  0  0  0  0  0  0  0  0  0  0
  -27.8882  -10.3872   21.1449 C   0  0  0  0  0  0  0  0  0  0  0  0
  -27.4223  -14.0221   15.3620 C   0  0  0  0  0  0  0  0  0  0  0  0
  -28.8654  -21.5063   19.9011 C   0  0  0  0  0  0  0  0  0  1  0  0
  -28.2288  -12.6580   20.0868 C   0  0  1  0  0  0  0  0  0  0  0  0
  -28.4878  -11.9970   16.3631 C   0  0  2  0  0  0  0  0  0  0  0  0
  -28.7928  -11.6385   21.1163 C   0  0  0  0  0  0  0  0  0  0  0  0
  -26.3830  -28.8420   18.4250 N   0  0  0  0  0  0  0  0  0  0  0  0
  -30.9802  -22.6595   20.6637 N   0  0  0  0  0  0  0  0  0  0  0  0
  -30.4708  -22.8672   18.5488 N   0  0  0  0  0  0  0  0  0  0  0  0
  -27.6598  -29.2027   18.6388 N   0  0  0  0  0  0  0  0  0  0  0  0
  -26.7276  -14.5369   20.6700 N   0  0  0  0  0  0  0  0  0  0  0  0
  -29.3943  -27.4176   15.7382 N   0  0  0  0  0  0  0  0  0  0  0  0
  -29.0947  -30.2208   20.2247 N   0  0  0  0  0  0  0  0  0  0  0  0
  -25.0623  -30.3158   22.2561 N   0  0  0  0  0  0  0  0  0  0  0  0
  -24.5574  -15.5934   23.4032 N   0  0  0  0  0  0  0  0  0  0  0  0
  -28.1156  -12.1358   18.7293 N   0  0  0  0  0  0  0  0  0  0  0  0
  -30.0099  -25.2866   16.5590 N   0  0  0  0  0  0  0  0  0  0  0  0
  -28.4504  -12.9585   15.2252 N   0  3  0  0  0  0  0  0  0  0  0  0
  -27.2717  -30.8897   22.4754 O   0  0  0  0  0  0  0  0  0  0  0  0
  -26.7730  -14.9064   23.1993 O   0  0  0  0  0  0  0  0  0  0  0  0
  -25.9258  -12.3501   20.5644 O   0  0  0  0  0  0  0  0  0  0  0  0
  -29.4744  -13.7274   17.7305 O   0  0  0  0  0  0  0  0  0  0  0  0
  -31.0398  -26.1533   14.7029 O   0  0  0  0  0  0  0  0  0  0  0  0
  -33.1122  -23.4385   16.9323 O   0  0  0  0  0  0  0  0  0  0  0  0
  -20.2762  -28.3747   20.1680 O   0  0  0  0  0  0  0  0  0  0  0  0
  -29.2382  -20.1342   20.0216 O   0  0  0  0  0  0  0  0  0  1  0  0
  -18.5331  -26.3503   24.9916 F   0  0  0  0  0  0  0  0  0  0  0  0
  -18.9228  -25.9672   20.2898 F   0  0  0  0  0  0  0  0  0  0  0  0
  1  2  1  0  0  0  0
  1  5  2  0  0  0  0
  2  6  2  0  0  0  0
  3  8  2  0  0  0  0
  3 15  1  0  0  0  0
  4  9  1  0  0  0  0
  4 15  2  0  0  0  0
  5 17  1  0  0  0  0
  6 19  1  0  0  0  0
  7 10  2  0  0  0  0
  7 18  1  0  0  0  0
  8 21  1  0  0  0  0
  9 21  2  0  0  0  0
 10 22  1  0  0  0  0
 11 12  2  0  0  0  0
 11 23  1  0  0  0  0
 12 24  1  0  0  0  0
 13 20  1  0  0  0  0
 13 22  2  0  0  0  0
 14 24  2  0  0  0  0
 14 25  1  0  0  0  0
 15 26  1  0  0  0  0
 16 26  1  0  0  0  0
 16 29  2  0  0  0  0
 16 31  1  0  0  0  0
 17 19  2  0  0  0  0
 17 36  1  0  0  0  0
 18 20  2  0  0  0  0
 18 37  1  0  0  0  0
 19 45  1  0  0  0  0
 20 38  1  0  0  0  0
 21 80  1  0  0  0  0
 22 81  1  0  0  0  0
 23 25  2  0  0  0  0
 23 80  1  0  0  0  0
 24 82  1  0  0  0  0
 25 83  1  0  0  0  0
 26 62  2  0  0  0  0
 27 28  2  0  0  0  0
 27 46  1  0  0  0  0
 27 64  1  0  0  0  0
 28 51  1  0  0  0  0
 28 63  1  0  0  0  0
 29 65  1  0  0  0  0
 29 68  1  0  0  0  0
 30 58  1  0  0  0  0
 30 63  2  0  0  0  0
 30 64  1  0  0  0  0
 31 69  1  0  0  0  0
 31 74  2  0  0  0  0
 32 47  1  0  0  0  0
 32 70  1  0  0  0  0
 32 75  2  0  0  0  0
 33 59  1  0  0  0  0
 33 66  1  0  0  0  0
 33 76  2  0  0  0  0
 34 60  1  0  0  0  0
 34 71  1  0  0  0  0
 34 77  2  0  0  0  0
 35 67  1  0  0  0  0
 35 72  1  0  0  0  0
 35 78  2  0  0  0  0
 36 39  1  0  0  0  0
 37 47  1  0  0  0  0
 38 66  1  0  0  0  0
 39 41  1  0  0  0  0
 40 42  1  0  0  0  0
 40 43  1  0  0  0  0
 41 45  1  0  0  0  0
 42 48  1  0  0  0  0
 43 67  1  0  0  0  0
 44 48  1  0  0  0  0
 44 67  1  0  0  0  0
 45 70  1  0  0  0  0
 46 49  1  0  0  0  0
 46 79  1  0  0  0  0
 47 66  1  0  0  0  0
 48 65  1  0  0  0  0
 49 50  1  0  0  0  0
 49 72  1  0  0  0  0
 50 52  1  0  0  0  0
 50 64  1  0  0  0  0
 53 60  1  0  0  0  0
 54 61  1  0  0  0  0
 55 61  1  0  0  0  0
 56 61  1  0  0  0  0
 57 73  1  0  0  0  0
 58 81  1  0  0  0  0
 59 61  1  0  0  0  0
 59 71  1  0  0  0  0
 60 73  1  0  0  0  0
 62 65  1  0  0  0  0
M  CHG  1  73   1
M  ISO  4  35 100  58 101  72 100  81 101
M  END
> <Batch ID>
0180

> <Smiles>
CNC(C)C(=O)NC(C(=O)N1Cc2cc([101O:1][101CH2:1]c3nc(C)c4n3C(C)C([100NH:0][100C:0](=O)N3CCCC(n5nc(-c6ccc(Oc7ccc(F)cc7F)cc6)c(C(N)=O)c5N)C3)C4O)ccc2CC1C(=O)NC1CCCc2ccccc21)C(C)(C)C

> <Shape>
0.224

> <Color>
0.045

> <Negative vol penalty>
0.000

$$$$

  -OEChem-04052323003D

 82 91  0     1  0  0  0  0  0999 V2000
  -31.9039  -34.0490   22.7313 C   0  0  0  0  0  0  0  0  0  0  0  0
  -31.9136  -32.8624   22.0052 C   0  0  0  0  0  0  0  0  0  0  0  0
  -24.0974   -9.3860   19.8633 C   0  0  0  0  0  0  0  0  0  0  0  0
  -24.5076   -9.6187   22.2328 C   0  0  0  0  0  0  0  0  0  0  0  0
  -30.9781  -34.2290   23.7582 C   0  0  0  0  0  0  0  0  0  0  0  0
  -30.9983  -31.8545   22.3063 C   0  0  0  0  0  0  0  0  0  0  0  0
  -28.3431  -27.9943   18.3624 C   0  0  0  0  0  0  0  0  0  0  0  0
  -23.7068   -8.0617   20.0610 C   0  0  0  0  0  0  0  0  0  0  0  0
  -24.1169   -8.2943   22.4305 C   0  0  0  0  0  0  0  0  0  0  0  0
  -28.6279  -26.6777   18.0028 C   0  0  0  0  0  0  0  0  0  0  0  0
  -21.2258   -6.5579   22.6471 C   0  0  0  0  0  0  0  0  0  0  0  0
  -20.3666   -6.2894   23.7126 C   0  0  0  0  0  0  0  0  0  0  0  0
  -26.9886  -25.8958   19.5905 C   0  0  0  0  0  0  0  0  0  0  0  0
  -22.0216   -4.8163   24.6759 C   0  0  0  0  0  0  0  0  0  0  0  0
  -30.3115  -20.3809   21.3004 C   0  0  0  0  0  0  0  0  0  0  0  0
  -24.4979  -10.1645   20.9492 C   0  0  0  0  0  0  0  0  0  0  0  0
  -24.0805  -12.6752   20.7759 C   0  0  0  0  0  0  0  0  0  0  0  0
  -30.0447  -33.2266   24.0657 C   0  0  0  0  0  0  0  0  0  0  0  0
  -27.3851  -28.2715   19.3482 C   0  0  0  0  0  0  0  0  0  0  0  0
  -30.0600  -32.0207   23.3392 C   0  0  0  0  0  0  0  0  0  0  0  0
  -26.6917  -27.2168   19.9590 C   0  0  0  0  0  0  0  0  0  0  0  0
  -23.7165   -7.5158   21.3445 C   0  0  0  0  0  0  0  0  0  0  0  0
  -27.9527  -25.6281   18.6189 C   0  0  0  0  0  0  0  0  0  0  0  0
  -22.4829   -5.9555   22.5959 C   0  0  0  0  0  0  0  0  0  0  0  0
  -20.7645   -5.4186   24.7270 C   0  0  0  0  0  0  0  0  0  0  0  0
  -22.8808   -5.0847   23.6104 C   0  0  0  0  0  0  0  0  0  0  0  0
  -24.9022  -11.5325   20.7456 C   0  0  0  0  0  0  0  0  0  0  0  0
  -30.4252  -21.1250   20.1481 C   0  0  0  0  0  0  0  0  0  0  0  0
  -31.1210  -19.2496   21.0747 C   0  0  0  0  0  0  0  0  0  0  0  0
  -24.9362  -13.7201   20.5260 C   0  0  0  0  0  0  0  0  0  0  0  0
  -22.6699  -12.7826   21.0090 C   0  0  0  0  0  0  0  0  0  0  0  0
  -27.4418  -29.6759   22.1992 C   0  0  0  0  0  0  0  0  0  0  0  0
  -24.2259  -29.2905   22.0202 C   0  0  0  0  0  0  0  0  0  0  0  0
  -21.5815  -27.5844   20.6999 C   0  0  0  0  0  0  0  0  0  0  0  0
  -29.6922  -16.2721   21.6626 C   0  0  0  0  0  0  0  0  0  0  0  0
  -29.0942  -33.4479   25.2156 C   0  0  0  0  0  0  0  0  0  0  0  0
  -27.0703  -29.6982   19.7057 C   0  0  0  0  0  0  0  0  0  0  0  0
  -25.6397  -27.4620   21.0086 C   0  0  0  0  0  0  0  0  0  0  0  0
  -29.8490  -22.4333   19.7322 C   0  0  0  0  0  0  0  0  0  0  0  0
  -27.9133  -32.4806   25.2246 C   0  0  0  0  0  0  0  0  0  0  0  0
  -29.7179  -13.7706   18.9386 C   0  0  0  0  0  0  0  0  0  0  0  0
  -28.3921  -31.0515   24.9897 C   0  0  0  0  0  0  0  0  0  0  0  0
  -28.4177  -13.0233   19.2172 C   0  0  0  0  0  0  0  0  0  0  0  0
  -31.3084  -22.2477   17.6776 C   0  0  0  0  0  0  0  0  0  0  0  0
  -31.6347  -20.7854   17.9867 C   0  0  0  0  0  0  0  0  0  0  0  0
  -30.3837  -14.2656   20.2221 C   0  0  0  0  0  0  0  0  0  0  0  0
  -28.1787  -14.3403   21.3567 C   0  0  0  0  0  0  0  0  0  0  0  0
  -29.0668  -30.9139   23.6196 C   0  0  1  0  0  0  0  0  0  0  0  0
  -26.4433  -29.8432   21.0890 C   0  0  1  0  0  0  0  0  0  0  0  0
  -29.9121  -22.6245   18.2048 C   0  0  2  0  0  0  0  0  0  0  0  0
  -27.4732  -13.8817   20.0716 C   0  0  2  0  0  0  0  0  0  0  0  0
  -19.0756  -27.4729   20.7713 C   0  0  0  0  0  0  0  0  0  0  0  0
  -24.3675  -27.8985   24.7317 C   0  0  0  0  0  0  0  0  0  0  0  0
  -22.0719  -26.9933   24.3088 C   0  0  0  0  0  0  0  0  0  0  0  0
  -22.4309  -29.4573   24.4591 C   0  0  0  0  0  0  0  0  0  0  0  0
  -21.3560  -28.2044   17.8148 C   0  0  0  0  0  0  0  0  0  0  0  0
  -31.3595  -18.1221   21.9920 C   0  0  0  0  0  0  0  0  0  0  0  0
  -29.5560  -24.0603   17.8270 C   0  0  0  0  0  0  0  0  0  1  0  0
  -23.2551  -28.2066   22.4223 C   0  0  1  0  0  0  0  0  0  0  0  0
  -20.2874  -28.0644   20.0681 C   0  0  2  0  0  0  0  0  0  0  0  0
  -23.0525  -28.1339   23.9621 C   0  0  0  0  0  0  0  0  0  0  0  0
  -26.1816  -11.8237   20.4960 N   0  0  0  0  0  0  0  0  0  0  0  0
  -31.7079  -19.2636   19.8742 N   0  0  0  0  0  0  0  0  0  0  0  0
  -31.2730  -20.4177   19.3395 N   0  0  0  0  0  0  0  0  0  0  0  0
  -26.1703  -13.1614   20.3671 N   0  0  0  0  0  0  0  0  0  0  0  0
  -25.3721  -28.8740   21.3284 N   0  0  0  0  0  0  0  0  0  0  0  0
  -29.4454  -15.0229   21.0657 N   0  0  0  0  0  0  0  0  0  0  0  0
  -24.7460  -15.0530   20.4287 N   0  0  0  0  0  0  0  0  0  0  0  0
  -21.9413  -11.6097   21.2496 N   0  0  0  0  0  0  0  0  0  0  0  0
  -28.0720  -30.8482   22.5706 N   0  0  0  0  0  0  0  0  0  0  0  0
  -22.0304  -28.4559   21.6696 N   0  0  0  0  0  0  0  0  0  0  0  0
  -30.9491  -16.8206   21.4265 N   0  0  0  0  0  0  0  0  0  0  0  0
  -20.2353  -27.6713   18.6315 N   0  3  0  0  0  0  0  0  0  0  0  0
  -22.0705  -13.8843   20.9880 O   0  0  0  0  0  0  0  0  0  0  0  0
  -27.6257  -28.5656   22.6842 O   0  0  0  0  0  0  0  0  0  0  0  0
  -23.9731  -30.4642   22.3030 O   0  0  0  0  0  0  0  0  0  0  0  0
  -22.1366  -26.5389   20.3691 O   0  0  0  0  0  0  0  0  0  0  0  0
  -28.8598  -16.8587   22.3628 O   0  0  0  0  0  0  0  0  0  0  0  0
  -23.3351   -6.2236   21.5378 O   0  0  0  0  0  0  0  0  0  0  0  0
  -28.2292  -24.3421   18.2702 O   0  0  0  0  0  0  0  0  0  1  0  0
  -19.9400   -5.1621   25.7510 F   0  0  0  0  0  0  0  0  0  0  0  0
  -24.0877   -4.5039   23.5673 F   0  0  0  0  0  0  0  0  0  0  0  0
  1  2  1  0  0  0  0
  1  5  2  0  0  0  0
  2  6  2  0  0  0  0
  3  8  2  0  0  0  0
  3 16  1  0  0  0  0
  4  9  1  0  0  0  0
  4 16  2  0  0  0  0
  5 18  1  0  0  0  0
  6 20  1  0  0  0  0
  7 10  2  0  0  0  0
  7 19  1  0  0  0  0
  8 22  1  0  0  0  0
  9 22  2  0  0  0  0
 10 23  1  0  0  0  0
 11 12  2  0  0  0  0
 11 24  1  0  0  0  0
 12 25  1  0  0  0  0
 13 21  1  0  0  0  0
 13 23  2  0  0  0  0
 14 25  2  0  0  0  0
 14 26  1  0  0  0  0
 15 28  2  0  0  0  0
 15 29  1  0  0  0  0
 16 27  1  0  0  0  0
 17 27  1  0  0  0  0
 17 30  2  0  0  0  0
 17 31  1  0  0  0  0
 18 20  2  0  0  0  0
 18 36  1  0  0  0  0
 19 21  2  0  0  0  0
 19 37  1  0  0  0  0
 20 48  1  0  0  0  0
 21 38  1  0  0  0  0
 22 79  1  0  0  0  0
 23 80  1  0  0  0  0
 24 26  2  0  0  0  0
 24 79  1  0  0  0  0
 25 81  1  0  0  0  0
 26 82  1  0  0  0  0
 27 62  2  0  0  0  0
 28 39  1  0  0  0  0
 28 64  1  0  0  0  0
 29 57  1  0  0  0  0
 29 63  2  0  0  0  0
 30 65  1  0  0  0  0
 30 68  1  0  0  0  0
 31 69  1  0  0  0  0
 31 74  2  0  0  0  0
 32 49  1  0  0  0  0
 32 70  1  0  0  0  0
 32 75  2  0  0  0  0
 33 59  1  0  0  0  0
 33 66  1  0  0  0  0
 33 76  2  0  0  0  0
 34 60  1  0  0  0  0
 34 71  1  0  0  0  0
 34 77  2  0  0  0  0
 35 67  1  0  0  0  0
 35 72  1  0  0  0  0
 35 78  2  0  0  0  0
 36 40  1  0  0  0  0
 37 49  1  0  0  0  0
 38 66  1  0  0  0  0
 39 50  1  0  0  0  0
 40 42  1  0  0  0  0
 41 43  1  0  0  0  0
 41 46  1  0  0  0  0
 42 48  1  0  0  0  0
 43 51  1  0  0  0  0
 44 45  1  0  0  0  0
 44 50  1  0  0  0  0
 45 64  1  0  0  0  0
 46 67  1  0  0  0  0
 47 51  1  0  0  0  0
 47 67  1  0  0  0  0
 48 70  1  0  0  0  0
 49 66  1  0  0  0  0
 50 58  1  0  0  0  0
 51 65  1  0  0  0  0
 52 60  1  0  0  0  0
 53 61  1  0  0  0  0
 54 61  1  0  0  0  0
 55 61  1  0  0  0  0
 56 73  1  0  0  0  0
 57 72  1  0  0  0  0
 58 80  1  0  0  0  0
 59 61  1  0  0  0  0
 59 71  1  0  0  0  0
 60 73  1  0  0  0  0
 62 65  1  0  0  0  0
 63 64  1  0  0  0  0
M  CHG  1  73   1
M  ISO  4  35 100  58 101  72 100  80 101
M  END
> <Batch ID>
0180

> <Smiles>
CNC(C)C(=O)NC(C(=O)N1Cc2cc([101O:1][101CH2:1]C3CCn4nc(C[100NH:0][100C:0](=O)N5CCCC(n6nc(-c7ccc(Oc8ccc(F)cc8F)cc7)c(C(N)=O)c6N)C5)cc4C3)ccc2CC1C(=O)NC1CCCc2ccccc21)C(C)(C)C

> <Shape>
0.300

> <Color>
0.123

> <Negative vol penalty>
0.000

$$$$

  -OEChem-04052323003D

 80 89  0     1  0  0  0  0  0999 V2000
  -22.4767  -10.0330   17.3881 C   0  0  0  0  0  0  0  0  0  0  0  0
  -23.2254  -11.0755   16.8512 C   0  0  0  0  0  0  0  0  0  0  0  0
  -21.2810  -28.5575   21.1583 C   0  0  0  0  0  0  0  0  0  0  0  0
  -22.5465  -27.4393   22.8861 C   0  0  0  0  0  0  0  0  0  0  0  0
  -22.1231  -10.0527   18.7366 C   0  0  0  0  0  0  0  0  0  0  0  0
  -23.6200  -12.1388   17.6624 C   0  0  0  0  0  0  0  0  0  0  0  0
  -28.9833  -16.8077   18.5301 C   0  0  0  0  0  0  0  0  0  0  0  0
  -20.1767  -27.7565   21.4487 C   0  0  0  0  0  0  0  0  0  0  0  0
  -21.4421  -26.6383   23.1766 C   0  0  0  0  0  0  0  0  0  0  0  0
  -29.2094  -18.1782   18.6503 C   0  0  0  0  0  0  0  0  0  0  0  0
  -16.9098  -26.2523   21.9781 C   0  0  0  0  0  0  0  0  0  0  0  0
  -15.6643  -26.8735   22.0697 C   0  0  0  0  0  0  0  0  0  0  0  0
  -28.6082  -18.0665   20.9838 C   0  0  0  0  0  0  0  0  0  0  0  0
  -16.4859  -28.2548   23.8736 C   0  0  0  0  0  0  0  0  0  0  0  0
  -31.1047  -22.9318   19.2489 C   0  0  0  0  0  0  0  0  0  0  0  0
  -22.4660  -28.3989   21.8770 C   0  0  0  0  0  0  0  0  0  0  0  0
  -23.9282  -30.4715   22.1487 C   0  0  0  0  0  0  0  0  0  0  0  0
  -22.5218  -11.1121   19.5670 C   0  0  0  0  0  0  0  0  0  0  0  0
  -28.5567  -16.0570   19.6350 C   0  0  0  0  0  0  0  0  0  0  0  0
  -23.2702  -12.1734   19.0230 C   0  0  0  0  0  0  0  0  0  0  0  0
  -28.3799  -16.6862   20.8756 C   0  0  0  0  0  0  0  0  0  0  0  0
  -20.2572  -26.7969   22.4578 C   0  0  0  0  0  0  0  0  0  0  0  0
  -29.0191  -18.8083   19.8766 C   0  0  0  0  0  0  0  0  0  0  0  0
  -17.9434  -26.6323   22.8343 C   0  0  0  0  0  0  0  0  0  0  0  0
  -15.4523  -27.8747   23.0174 C   0  0  0  0  0  0  0  0  0  0  0  0
  -17.7314  -27.6336   23.7820 C   0  0  0  0  0  0  0  0  0  0  0  0
  -23.6073  -29.2256   21.5771 C   0  0  0  0  0  0  0  0  0  0  0  0
  -29.9304  -22.2465   19.1094 C   0  0  0  0  0  0  0  0  0  0  0  0
  -25.0985  -30.8410   21.5319 C   0  0  0  0  0  0  0  0  0  0  0  0
  -29.4332  -24.3606   19.5515 C   0  0  0  0  0  0  0  0  0  0  0  0
  -23.2308  -31.2272   23.1478 C   0  0  0  0  0  0  0  0  0  0  0  0
  -25.9709  -14.3385   20.3160 C   0  0  0  0  0  0  0  0  0  0  0  0
  -27.6568  -13.5755   22.9801 C   0  0  0  0  0  0  0  0  0  0  0  0
  -30.1228  -14.4109   25.1864 C   0  0  0  0  0  0  0  0  0  0  0  0
  -29.4905  -27.8607   18.9385 C   0  0  0  0  0  0  0  0  0  0  0  0
  -22.0754  -11.1129   21.0076 C   0  0  0  0  0  0  0  0  0  0  0  0
  -28.3429  -14.5748   19.4953 C   0  0  0  0  0  0  0  0  0  0  0  0
  -27.9424  -15.9216   22.0973 C   0  0  0  0  0  0  0  0  0  0  0  0
  -28.6986  -25.6258   19.8251 C   0  0  0  0  0  0  0  0  0  0  0  0
  -22.8519  -12.0911   21.8853 C   0  0  0  0  0  0  0  0  0  0  0  0
  -27.5196  -30.3131   17.4508 C   0  0  0  0  0  0  0  0  0  0  0  0
  -22.9691  -13.4478   21.1981 C   0  0  0  0  0  0  0  0  0  0  0  0
  -26.3163  -30.4367   18.3842 C   0  0  0  0  0  0  0  0  0  0  0  0
  -31.6779  -25.3661   19.7415 C   0  0  0  0  0  0  0  0  0  0  0  0
  -27.9359  -28.8561   17.2895 C   0  0  0  0  0  0  0  0  0  0  0  0
  -30.9349  -26.5078   20.4317 C   0  0  0  0  0  0  0  0  0  0  0  0
  -27.0576  -28.2899   19.5330 C   0  0  0  0  0  0  0  0  0  0  0  0
  -23.7382  -13.3321   19.8764 C   0  0  1  0  0  0  0  0  0  0  0  0
  -27.4145  -14.0018   20.5617 C   0  0  1  0  0  0  0  0  0  0  0  0
  -26.5915  -29.7467   19.7312 C   0  0  2  0  0  0  0  0  0  0  0  0
  -31.2444  -13.6094   27.2833 C   0  0  0  0  0  0  0  0  0  0  0  0
  -25.2460  -14.4849   24.6144 C   0  0  0  0  0  0  0  0  0  0  0  0
  -26.7304  -14.5668   26.6289 C   0  0  0  0  0  0  0  0  0  0  0  0
  -26.3475  -12.4014   25.4511 C   0  0  0  0  0  0  0  0  0  0  0  0
  -32.7516  -14.2098   23.8418 C   0  0  0  0  0  0  0  0  0  0  0  0
  -29.6639  -20.8360   18.8142 C   0  0  0  0  0  0  0  0  0  1  0  0
  -27.7956  -14.1652   24.3629 C   0  0  1  0  0  0  0  0  0  0  0  0
  -31.2737  -13.6062   25.7628 C   0  0  2  0  0  0  0  0  0  0  0  0
  -26.5363  -13.9196   25.2410 C   0  0  0  0  0  0  0  0  0  0  0  0
  -24.5014  -28.8302   20.6671 N   0  0  0  0  0  0  0  0  0  0  0  0
  -30.7733  -24.2420   19.5273 N   0  0  0  0  0  0  0  0  0  0  0  0
  -25.3956  -29.8334   20.6621 N   0  0  0  0  0  0  0  0  0  0  0  0
  -28.9162  -23.1515   19.3015 N   0  3  0  0  0  0  0  0  0  0  0  0
  -27.7402  -14.4756   21.9084 N   0  0  0  0  0  0  0  0  0  0  0  0
  -29.6395  -26.7506   19.7834 N   0  0  0  0  0  0  0  0  0  0  0  0
  -28.1829  -28.2279   18.5878 N   0  0  0  0  0  0  0  0  0  0  0  0
  -25.8920  -31.9263   21.6541 N   0  0  0  0  0  0  0  0  0  0  0  0
  -22.0438  -30.7013   23.6758 N   0  0  0  0  0  0  0  0  0  0  0  0
  -25.1604  -13.2355   20.1261 N   0  0  0  0  0  0  0  0  0  0  0  0
  -29.0279  -13.6167   24.9187 N   0  0  0  0  0  0  0  0  0  0  0  0
  -32.5774  -14.1740   25.3167 N   0  3  0  0  0  0  0  0  0  0  0  0
  -23.6393  -32.3435   23.5483 O   0  0  0  0  0  0  0  0  0  0  0  0
  -25.6182  -15.5119   20.3012 O   0  0  0  0  0  0  0  0  0  0  0  0
  -27.4880  -12.3599   22.8552 O   0  0  0  0  0  0  0  0  0  0  0  0
  -30.1872  -15.6234   24.9964 O   0  0  0  0  0  0  0  0  0  0  0  0
  -30.4720  -28.4833   18.5132 O   0  0  0  0  0  0  0  0  0  0  0  0
  -19.1796  -26.0152   22.7416 O   0  0  0  0  0  0  0  0  0  0  0  0
  -29.2393  -20.1513   19.9971 O   0  0  0  0  0  0  0  0  0  1  0  0
  -14.2567  -28.4722   23.1043 F   0  0  0  0  0  0  0  0  0  0  0  0
  -18.7209  -28.0038   24.6065 F   0  0  0  0  0  0  0  0  0  0  0  0
  1  2  1  0  0  0  0
  1  5  2  0  0  0  0
  2  6  2  0  0  0  0
  3  8  2  0  0  0  0
  3 16  1  0  0  0  0
  4  9  1  0  0  0  0
  4 16  2  0  0  0  0
  5 18  1  0  0  0  0
  6 20  1  0  0  0  0
  7 10  2  0  0  0  0
  7 19  1  0  0  0  0
  8 22  1  0  0  0  0
  9 22  2  0  0  0  0
 10 23  1  0  0  0  0
 11 12  2  0  0  0  0
 11 24  1  0  0  0  0
 12 25  1  0  0  0  0
 13 21  1  0  0  0  0
 13 23  2  0  0  0  0
 14 25  2  0  0  0  0
 14 26  1  0  0  0  0
 15 28  2  0  0  0  0
 15 61  1  0  0  0  0
 16 27  1  0  0  0  0
 17 27  1  0  0  0  0
 17 29  2  0  0  0  0
 17 31  1  0  0  0  0
 18 20  2  0  0  0  0
 18 36  1  0  0  0  0
 19 21  2  0  0  0  0
 19 37  1  0  0  0  0
 20 48  1  0  0  0  0
 21 38  1  0  0  0  0
 22 77  1  0  0  0  0
 23 78  1  0  0  0  0
 24 26  2  0  0  0  0
 24 77  1  0  0  0  0
 25 79  1  0  0  0  0
 26 80  1  0  0  0  0
 27 60  2  0  0  0  0
 28 56  1  0  0  0  0
 28 63  1  0  0  0  0
 29 62  1  0  0  0  0
 29 67  1  0  0  0  0
 30 39  1  0  0  0  0
 30 61  1  0  0  0  0
 30 63  2  0  0  0  0
 31 68  1  0  0  0  0
 31 72  2  0  0  0  0
 32 49  1  0  0  0  0
 32 69  1  0  0  0  0
 32 73  2  0  0  0  0
 33 57  1  0  0  0  0
 33 64  1  0  0  0  0
 33 74  2  0  0  0  0
 34 58  1  0  0  0  0
 34 70  1  0  0  0  0
 34 75  2  0  0  0  0
 35 65  1  0  0  0  0
 35 66  1  0  0  0  0
 35 76  2  0  0  0  0
 36 40  1  0  0  0  0
 37 49  1  0  0  0  0
 38 64  1  0  0  0  0
 39 65  1  0  0  0  0
 40 42  1  0  0  0  0
 41 43  1  0  0  0  0
 41 45  1  0  0  0  0
 42 48  1  0  0  0  0
 43 50  1  0  0  0  0
 44 46  1  0  0  0  0
 44 61  1  0  0  0  0
 45 66  1  0  0  0  0
 46 65  1  0  0  0  0
 47 50  1  0  0  0  0
 47 66  1  0  0  0  0
 48 69  1  0  0  0  0
 49 64  1  0  0  0  0
 50 62  1  0  0  0  0
 51 58  1  0  0  0  0
 52 59  1  0  0  0  0
 53 59  1  0  0  0  0
 54 59  1  0  0  0  0
 55 71  1  0  0  0  0
 56 78  1  0  0  0  0
 57 59  1  0  0  0  0
 57 70  1  0  0  0  0
 58 71  1  0  0  0  0
 60 62  1  0  0  0  0
M  CHG  2  63   1  71   1
M  ISO  4  35 100  56 101  65 100  78 101
M  END
> <Batch ID>
0180

> <Smiles>
CNC(C)C(=O)NC(C(=O)N1Cc2cc([101O:1][101CH2:1]c3cn4c(n3)C[100N:0]([100C:0](=O)N3CCCC(n5nc(-c6ccc(Oc7ccc(F)cc7F)cc6)c(C(N)=O)c5N)C3)CC4)ccc2CC1C(=O)NC1CCCc2ccccc21)C(C)(C)C

> <Shape>
0.272

> <Color>
0.067

> <Negative vol penalty>
0.000

$$$$

  -OEChem-04052323003D

 86 95  0     1  0  0  0  0  0999 V2000
  -26.4021  -27.1660   13.4908 C   0  0  0  0  0  0  0  0  0  0  0  0
  -25.6240  -27.3027   14.6360 C   0  0  0  0  0  0  0  0  0  0  0  0
  -24.7584  -14.3436   21.4180 C   0  0  0  0  0  0  0  0  0  0  0  0
  -26.1532  -14.2631   19.4469 C   0  0  0  0  0  0  0  0  0  0  0  0
  -27.6675  -26.5868   13.5743 C   0  0  0  0  0  0  0  0  0  0  0  0
  -26.1106  -26.8591   15.8652 C   0  0  0  0  0  0  0  0  0  0  0  0
  -25.2982  -30.1896   19.5925 C   0  0  0  0  0  0  0  0  0  0  0  0
  -24.0897  -13.1962   20.9917 C   0  0  0  0  0  0  0  0  0  0  0  0
  -25.4846  -13.1156   19.0207 C   0  0  0  0  0  0  0  0  0  0  0  0
  -24.0125  -30.2435   20.1291 C   0  0  0  0  0  0  0  0  0  0  0  0
  -24.6362   -9.8595   20.9657 C   0  0  0  0  0  0  0  0  0  0  0  0
  -24.4004   -8.8588   21.9083 C   0  0  0  0  0  0  0  0  0  0  0  0
  -24.7403  -28.8957   21.9927 C   0  0  0  0  0  0  0  0  0  0  0  0
  -22.0218   -9.0778   21.5457 C   0  0  0  0  0  0  0  0  0  0  0  0
  -18.5215  -26.6622   22.1275 C   0  0  0  0  0  0  0  0  0  0  0  0
  -25.7901  -14.8772   20.6456 C   0  0  0  0  0  0  0  0  0  0  0  0
  -27.6302  -16.1259   21.8956 C   0  0  0  0  0  0  0  0  0  0  0  0
  -28.1738  -26.1447   14.8067 C   0  0  0  0  0  0  0  0  0  0  0  0
  -26.3136  -29.4779   20.2475 C   0  0  0  0  0  0  0  0  0  0  0  0
  -27.3835  -26.2722   15.9650 C   0  0  0  0  0  0  0  0  0  0  0  0
  -26.0386  -28.8363   21.4636 C   0  0  0  0  0  0  0  0  0  0  0  0
  -24.4528  -12.5821   19.7931 C   0  0  0  0  0  0  0  0  0  0  0  0
  -23.7327  -29.5941   21.3279 C   0  0  0  0  0  0  0  0  0  0  0  0
  -23.5648  -10.4694   20.3131 C   0  0  0  0  0  0  0  0  0  0  0  0
  -23.0932   -8.4679   22.1983 C   0  0  0  0  0  0  0  0  0  0  0  0
  -22.2576  -10.0786   20.6031 C   0  0  0  0  0  0  0  0  0  0  0  0
  -26.4809  -16.0628   21.0851 C   0  0  0  0  0  0  0  0  0  0  0  0
  -18.6648  -28.6918   23.1714 C   0  0  0  0  0  0  0  0  0  0  0  0
  -20.0396  -28.6167   23.1287 C   0  0  0  0  0  0  0  0  0  0  0  0
  -19.8963  -26.5874   22.0841 C   0  0  0  0  0  0  0  0  0  0  0  0
  -27.8879  -17.4690   22.0220 C   0  0  0  0  0  0  0  0  0  0  0  0
  -28.3964  -15.0651   22.4817 C   0  0  0  0  0  0  0  0  0  0  0  0
  -28.1262  -26.9712   19.5164 C   0  0  0  0  0  0  0  0  0  0  0  0
  -29.5926  -27.7078   22.3145 C   0  0  0  0  0  0  0  0  0  0  0  0
  -29.4041  -29.1945   25.3806 C   0  0  0  0  0  0  0  0  0  0  0  0
  -24.5980  -22.2166   21.8567 C   0  0  0  0  0  0  0  0  0  0  0  0
  -29.5282  -25.4819   14.8395 C   0  0  0  0  0  0  0  0  0  0  0  0
  -27.7018  -29.4516   19.6692 C   0  0  0  0  0  0  0  0  0  0  0  0
  -27.0985  -28.0759   22.2164 C   0  0  0  0  0  0  0  0  0  0  0  0
  -30.1222  -25.3789   16.2419 C   0  0  0  0  0  0  0  0  0  0  0  0
  -27.3324  -21.6285   19.7338 C   0  0  0  0  0  0  0  0  0  0  0  0
  -29.0777  -24.8646   17.2275 C   0  0  0  0  0  0  0  0  0  0  0  0
  -27.5415  -20.1256   19.9177 C   0  0  0  0  0  0  0  0  0  0  0  0
  -22.2022  -24.2647   20.2904 C   0  0  0  0  0  0  0  0  0  0  0  0
  -22.4662  -24.8004   22.7421 C   0  0  0  0  0  0  0  0  0  0  0  0
  -25.8492  -21.9964   19.6636 C   0  0  0  0  0  0  0  0  0  0  0  0
  -23.6950  -23.9295   20.2205 C   0  0  0  0  0  0  0  0  0  0  0  0
  -23.9538  -24.4831   22.6176 C   0  0  0  0  0  0  0  0  0  0  0  0
  -25.2613  -19.9930   20.9900 C   0  0  0  0  0  0  0  0  0  0  0  0
  -27.8865  -25.8258   17.3206 C   0  0  1  0  0  0  0  0  0  0  0  0
  -28.5306  -28.2680   20.1586 C   0  0  1  0  0  0  0  0  0  0  0  0
  -26.7408  -19.5998   21.1223 C   0  0  1  0  0  0  0  0  0  0  0  0
  -21.9042  -25.2760   21.3998 C   0  0  0  0  0  0  0  0  0  0  0  0
  -17.9688  -29.8627   23.7762 C   0  0  0  0  0  0  0  0  0  0  0  0
  -30.7498  -29.5992   27.4597 C   0  0  0  0  0  0  0  0  0  0  0  0
  -29.1312  -24.8164   23.1730 C   0  0  0  0  0  0  0  0  0  0  0  0
  -29.6074  -25.5135   25.5300 C   0  0  0  0  0  0  0  0  0  0  0  0
  -31.3735  -25.7406   23.7830 C   0  0  0  0  0  0  0  0  0  0  0  0
  -29.2631  -32.1310   25.0399 C   0  0  0  0  0  0  0  0  0  0  0  0
  -20.8950  -29.7028   23.6857 C   0  0  0  0  0  0  0  0  0  0  0  0
  -22.3654  -29.5778   23.2737 C   0  0  0  0  0  0  0  0  0  1  0  0
  -29.3969  -27.3167   23.7594 C   0  0  1  0  0  0  0  0  0  0  0  0
  -30.3453  -30.1446   26.0990 C   0  0  2  0  0  0  0  0  0  0  0  0
  -29.8566  -25.8594   24.0464 C   0  0  0  0  0  0  0  0  0  0  0  0
  -17.8810  -27.7158   22.6718 N   0  0  0  0  0  0  0  0  0  0  0  0
  -26.0389  -17.2699   20.7224 N   0  0  0  0  0  0  0  0  0  0  0  0
  -20.6800  -27.5633   22.5840 N   0  0  0  0  0  0  0  0  0  0  0  0
  -26.9150  -18.1041   21.3077 N   0  0  0  0  0  0  0  0  0  0  0  0
  -28.4388  -28.0740   21.6071 N   0  0  0  0  0  0  0  0  0  0  0  0
  -25.1201  -21.4396   20.8117 N   0  0  0  0  0  0  0  0  0  0  0  0
  -24.1997  -23.5239   21.5402 N   0  0  0  0  0  0  0  0  0  0  0  0
  -28.8495  -18.1570   22.6735 N   0  0  0  0  0  0  0  0  0  0  0  0
  -27.9927  -13.7430   22.2510 N   0  0  0  0  0  0  0  0  0  0  0  0
  -20.4751  -25.4709   21.5072 N   0  0  0  0  0  0  0  0  0  0  0  0
  -28.2241  -26.9713   18.1381 N   0  0  0  0  0  0  0  0  0  0  0  0
  -30.0866  -28.3281   24.5531 N   0  0  0  0  0  0  0  0  0  0  0  0
  -29.6915  -31.4688   26.2988 N   0  3  0  0  0  0  0  0  0  0  0  0
  -29.3994  -15.2839   23.2026 O   0  0  0  0  0  0  0  0  0  0  0  0
  -27.7542  -26.0390   20.2195 O   0  0  0  0  0  0  0  0  0  0  0  0
  -30.7283  -27.6959   21.8333 O   0  0  0  0  0  0  0  0  0  0  0  0
  -28.1857  -29.2162   25.5406 O   0  0  0  0  0  0  0  0  0  0  0  0
  -24.4937  -21.7685   23.0054 O   0  0  0  0  0  0  0  0  0  0  0  0
  -23.8007  -11.4622   19.3769 O   0  0  0  0  0  0  0  0  0  0  0  0
  -22.4697  -29.6450   21.8572 O   0  0  0  0  0  0  0  0  0  1  0  0
  -22.8669   -7.5058   23.1024 F   0  0  0  0  0  0  0  0  0  0  0  0
  -21.2244  -10.6600   19.9785 F   0  0  0  0  0  0  0  0  0  0  0  0
  1  2  1  0  0  0  0
  1  5  2  0  0  0  0
  2  6  2  0  0  0  0
  3  8  2  0  0  0  0
  3 16  1  0  0  0  0
  4  9  1  0  0  0  0
  4 16  2  0  0  0  0
  5 18  1  0  0  0  0
  6 20  1  0  0  0  0
  7 10  2  0  0  0  0
  7 19  1  0  0  0  0
  8 22  1  0  0  0  0
  9 22  2  0  0  0  0
 10 23  1  0  0  0  0
 11 12  2  0  0  0  0
 11 24  1  0  0  0  0
 12 25  1  0  0  0  0
 13 21  1  0  0  0  0
 13 23  2  0  0  0  0
 14 25  2  0  0  0  0
 14 26  1  0  0  0  0
 15 30  1  0  0  0  0
 15 65  2  0  0  0  0
 16 27  1  0  0  0  0
 17 27  1  0  0  0  0
 17 31  2  0  0  0  0
 17 32  1  0  0  0  0
 18 20  2  0  0  0  0
 18 37  1  0  0  0  0
 19 21  2  0  0  0  0
 19 38  1  0  0  0  0
 20 50  1  0  0  0  0
 21 39  1  0  0  0  0
 22 83  1  0  0  0  0
 23 84  1  0  0  0  0
 24 26  2  0  0  0  0
 24 83  1  0  0  0  0
 25 85  1  0  0  0  0
 26 86  1  0  0  0  0
 27 66  2  0  0  0  0
 28 29  2  0  0  0  0
 28 54  1  0  0  0  0
 28 65  1  0  0  0  0
 29 60  1  0  0  0  0
 29 67  1  0  0  0  0
 30 67  2  0  0  0  0
 30 74  1  0  0  0  0
 31 68  1  0  0  0  0
 31 72  1  0  0  0  0
 32 73  1  0  0  0  0
 32 78  2  0  0  0  0
 33 51  1  0  0  0  0
 33 75  1  0  0  0  0
 33 79  2  0  0  0  0
 34 62  1  0  0  0  0
 34 69  1  0  0  0  0
 34 80  2  0  0  0  0
 35 63  1  0  0  0  0
 35 76  1  0  0  0  0
 35 81  2  0  0  0  0
 36 70  1  0  0  0  0
 36 71  1  0  0  0  0
 36 82  2  0  0  0  0
 37 40  1  0  0  0  0
 38 51  1  0  0  0  0
 39 69  1  0  0  0  0
 40 42  1  0  0  0  0
 41 43  1  0  0  0  0
 41 46  1  0  0  0  0
 42 50  1  0  0  0  0
 43 52  1  0  0  0  0
 44 47  1  0  0  0  0
 44 53  1  0  0  0  0
 45 48  1  0  0  0  0
 45 53  1  0  0  0  0
 46 70  1  0  0  0  0
 47 71  1  0  0  0  0
 48 71  1  0  0  0  0
 49 52  1  0  0  0  0
 49 70  1  0  0  0  0
 50 75  1  0  0  0  0
 51 69  1  0  0  0  0
 52 68  1  0  0  0  0
 53 74  1  0  0  0  0
 55 63  1  0  0  0  0
 56 64  1  0  0  0  0
 57 64  1  0  0  0  0
 58 64  1  0  0  0  0
 59 77  1  0  0  0  0
 60 61  1  0  0  0  0
 61 84  1  0  0  0  0
 62 64  1  0  0  0  0
 62 76  1  0  0  0  0
 63 77  1  0  0  0  0
 66 68  1  0  0  0  0
M  CHG  1  77   1
M  ISO  4  36 100  61 101  71 100  84 101
M  END
> <Batch ID>
0180

> <Smiles>
CNC(C)C(=O)NC(C(=O)N1Cc2cc([101O:1][101CH2:1]Cc3nc(NC4CC[100N:0]([100C:0](=O)N5CCCC(n6nc(-c7ccc(Oc8ccc(F)cc8F)cc7)c(C(N)=O)c6N)C5)CC4)cnc3C)ccc2CC1C(=O)NC1CCCc2ccccc21)C(C)(C)C

> <Shape>
0.236

> <Color>
0.062

> <Negative vol penalty>
0.000

$$$$

  -OEChem-04052323003D

 85 94  0     1  0  0  0  0  0999 V2000
  -27.7660  -33.4750   26.3281 C   0  0  0  0  0  0  0  0  0  0  0  0
  -27.9748  -32.3008   25.6119 C   0  0  0  0  0  0  0  0  0  0  0  0
  -25.4490  -15.1148   20.5075 C   0  0  0  0  0  0  0  0  0  0  0  0
  -24.2525  -14.3881   22.4766 C   0  0  0  0  0  0  0  0  0  0  0  0
  -26.4732  -33.8452   26.6961 C   0  0  0  0  0  0  0  0  0  0  0  0
  -26.8909  -31.4955   25.2642 C   0  0  0  0  0  0  0  0  0  0  0  0
  -27.1150  -29.9035   20.4620 C   0  0  0  0  0  0  0  0  0  0  0  0
  -25.7590  -13.7886   20.2064 C   0  0  0  0  0  0  0  0  0  0  0  0
  -24.5624  -13.0618   22.1755 C   0  0  0  0  0  0  0  0  0  0  0  0
  -27.9805  -28.8473   20.1811 C   0  0  0  0  0  0  0  0  0  0  0  0
  -23.4535  -10.6628   20.0694 C   0  0  0  0  0  0  0  0  0  0  0  0
  -22.4301   -9.7205   20.1713 C   0  0  0  0  0  0  0  0  0  0  0  0
  -26.1151  -27.3181   20.2125 C   0  0  0  0  0  0  0  0  0  0  0  0
  -23.7058   -8.5147   21.8313 C   0  0  0  0  0  0  0  0  0  0  0  0
  -24.6958  -15.4145   21.6427 C   0  0  0  0  0  0  0  0  0  0  0  0
  -23.2445  -17.5097   21.5351 C   0  0  0  0  0  0  0  0  0  0  0  0
  -25.3719  -33.0490   26.3444 C   0  0  0  0  0  0  0  0  0  0  0  0
  -25.7421  -29.6729   20.6314 C   0  0  0  0  0  0  0  0  0  0  0  0
  -25.5822  -31.8547   25.6290 C   0  0  0  0  0  0  0  0  0  0  0  0
  -25.2338  -28.3735   20.4930 C   0  0  0  0  0  0  0  0  0  0  0  0
  -25.3157  -12.7621   21.0403 C   0  0  0  0  0  0  0  0  0  0  0  0
  -27.4811  -27.5539   20.0592 C   0  0  0  0  0  0  0  0  0  0  0  0
  -24.6030  -10.5310   20.8484 C   0  0  0  0  0  0  0  0  0  0  0  0
  -22.5563   -8.6464   21.0523 C   0  0  0  0  0  0  0  0  0  0  0  0
  -24.7292   -9.4570   21.7294 C   0  0  0  0  0  0  0  0  0  0  0  0
  -24.3757  -16.7843   21.9545 C   0  0  0  0  0  0  0  0  0  0  0  0
  -28.5475  -21.3604   20.3572 C   0  0  0  0  0  0  0  0  0  0  0  0
  -29.8046  -21.8690   20.5852 C   0  0  0  0  0  0  0  0  0  0  0  0
  -23.4075  -18.7536   22.0943 C   0  0  0  0  0  0  0  0  0  0  0  0
  -28.6492  -21.7074   22.4549 C   0  0  0  0  0  0  0  0  0  0  0  0
  -22.1446  -17.0961   20.7136 C   0  0  0  0  0  0  0  0  0  0  0  0
  -28.2619  -21.7671   23.8702 C   0  0  0  0  0  0  0  0  0  0  0  0
  -23.6815  -30.0545   23.0213 C   0  0  0  0  0  0  0  0  0  0  0  0
  -21.5096  -29.1994   20.7688 C   0  0  0  0  0  0  0  0  0  0  0  0
  -20.8647  -27.5895   17.8296 C   0  0  0  0  0  0  0  0  0  0  0  0
  -23.9978  -33.4661   26.8054 C   0  0  0  0  0  0  0  0  0  0  0  0
  -24.8179  -30.8270   20.9076 C   0  0  0  0  0  0  0  0  0  0  0  0
  -23.7653  -28.0760   20.6454 C   0  0  0  0  0  0  0  0  0  0  0  0
  -22.8661  -32.7490   26.0736 C   0  0  0  0  0  0  0  0  0  0  0  0
  -25.4054  -20.9495   25.8484 C   0  0  0  0  0  0  0  0  0  0  0  0
  -23.1439  -31.2510   25.9981 C   0  0  0  0  0  0  0  0  0  0  0  0
  -27.3606  -22.0115   18.1124 C   0  0  0  0  0  0  0  0  0  0  0  0
  -26.5005  -20.9748   18.7650 C   0  0  0  0  0  0  0  0  0  0  0  0
  -24.7199  -19.8424   25.0456 C   0  0  0  0  0  0  0  0  0  0  0  0
  -26.9259  -20.8631   25.7431 C   0  0  0  0  0  0  0  0  0  0  0  0
  -26.7592  -19.7329   23.5523 C   0  0  0  0  0  0  0  0  0  0  0  0
  -24.4295  -30.9673   25.2118 C   0  0  1  0  0  0  0  0  0  0  0  0
  -27.9999  -20.9541   18.9916 C   0  0  0  0  0  0  0  0  0  0  0  0
  -23.5110  -30.4007   21.5692 C   0  0  1  0  0  0  0  0  0  0  0  0
  -25.2243  -19.8145   23.5905 C   0  0  1  0  0  0  0  0  0  0  0  0
  -31.4829  -20.8816   18.9908 C   0  0  0  0  0  0  0  0  0  0  0  0
  -18.9877  -27.0295   16.2609 C   0  0  0  0  0  0  0  0  0  0  0  0
  -20.5425  -27.0434   22.6993 C   0  0  0  0  0  0  0  0  0  0  0  0
  -19.3746  -25.9442   20.7769 C   0  0  0  0  0  0  0  0  0  0  0  0
  -18.7198  -28.2461   21.4805 C   0  0  0  0  0  0  0  0  0  0  0  0
  -30.9742  -22.6198   22.6752 C   0  0  0  0  0  0  0  0  0  0  0  0
  -22.1303  -29.0705   15.6017 C   0  0  0  0  0  0  0  0  0  0  0  0
  -29.9203  -25.5840   18.2508 C   0  0  0  0  0  0  0  0  0  0  0  0
  -30.6143  -23.2064   18.5735 C   0  0  0  0  0  0  0  0  0  0  0  0
  -29.4882  -26.8191   19.0164 C   0  0  0  0  0  0  0  0  0  1  0  0
  -30.9673  -22.1681   19.6464 C   0  0  1  0  0  0  0  0  0  0  0  0
  -20.9227  -27.8931   20.2911 C   0  0  1  0  0  0  0  0  0  0  0  0
  -20.0939  -28.0185   16.5942 C   0  0  2  0  0  0  0  0  0  0  0  0
  -19.9179  -27.2867   21.3109 C   0  0  0  0  0  0  0  0  0  0  0  0
  -25.1968  -17.5072   22.7209 N   0  0  0  0  0  0  0  0  0  0  0  0
  -27.8334  -21.2623   21.5252 N   0  0  0  0  0  0  0  0  0  0  0  0
  -29.8549  -22.0862   21.9333 N   0  0  0  0  0  0  0  0  0  0  0  0
  -24.5809  -18.6999   22.7873 N   0  0  0  0  0  0  0  0  0  0  0  0
  -27.3462  -20.8240   24.3429 N   0  0  0  0  0  0  0  0  0  0  0  0
  -22.9028  -29.2369   20.9213 N   0  0  0  0  0  0  0  0  0  0  0  0
  -22.6602  -19.8772   22.0557 N   0  0  0  0  0  0  0  0  0  0  0  0
  -22.1344  -15.7836   20.2221 N   0  0  0  0  0  0  0  0  0  0  0  0
  -24.1885  -31.0851   23.7896 N   0  0  0  0  0  0  0  0  0  0  0  0
  -20.3512  -28.1594   18.9754 N   0  0  0  0  0  0  0  0  0  0  0  0
  -21.0077  -28.1144   15.4209 N   0  3  0  0  0  0  0  0  0  0  0  0
  -30.2063  -24.4878   19.2103 N   0  3  0  0  0  0  0  0  0  0  0  0
  -21.2072  -17.8725   20.4105 O   0  0  0  0  0  0  0  0  0  0  0  0
  -28.7741  -22.6655   24.5363 O   0  0  0  0  0  0  0  0  0  0  0  0
  -23.3744  -28.9357   23.4158 O   0  0  0  0  0  0  0  0  0  0  0  0
  -20.7602  -30.1536   20.9915 O   0  0  0  0  0  0  0  0  0  0  0  0
  -21.8238  -26.8224   17.7833 O   0  0  0  0  0  0  0  0  0  0  0  0
  -25.6178  -11.4678   20.7467 O   0  0  0  0  0  0  0  0  0  0  0  0
  -28.3239  -26.5211   19.7857 O   0  0  0  0  0  0  0  0  0  1  0  0
  -21.5728   -7.7425   21.1511 F   0  0  0  0  0  0  0  0  0  0  0  0
  -25.8307   -9.3257   22.4813 F   0  0  0  0  0  0  0  0  0  0  0  0
  1  2  1  0  0  0  0
  1  5  2  0  0  0  0
  2  6  2  0  0  0  0
  3  8  2  0  0  0  0
  3 15  1  0  0  0  0
  4  9  1  0  0  0  0
  4 15  2  0  0  0  0
  5 17  1  0  0  0  0
  6 19  1  0  0  0  0
  7 10  2  0  0  0  0
  7 18  1  0  0  0  0
  8 21  1  0  0  0  0
  9 21  2  0  0  0  0
 10 22  1  0  0  0  0
 11 12  2  0  0  0  0
 11 23  1  0  0  0  0
 12 24  1  0  0  0  0
 13 20  1  0  0  0  0
 13 22  2  0  0  0  0
 14 24  2  0  0  0  0
 14 25  1  0  0  0  0
 15 26  1  0  0  0  0
 16 26  1  0  0  0  0
 16 29  2  0  0  0  0
 16 31  1  0  0  0  0
 17 19  2  0  0  0  0
 17 36  1  0  0  0  0
 18 20  2  0  0  0  0
 18 37  1  0  0  0  0
 19 47  1  0  0  0  0
 20 38  1  0  0  0  0
 21 82  1  0  0  0  0
 22 83  1  0  0  0  0
 23 25  2  0  0  0  0
 23 82  1  0  0  0  0
 24 84  1  0  0  0  0
 25 85  1  0  0  0  0
 26 65  2  0  0  0  0
 27 28  2  0  0  0  0
 27 48  1  0  0  0  0
 27 66  1  0  0  0  0
 28 61  1  0  0  0  0
 28 67  1  0  0  0  0
 29 68  1  0  0  0  0
 29 71  1  0  0  0  0
 30 32  1  0  0  0  0
 30 66  2  0  0  0  0
 30 67  1  0  0  0  0
 31 72  1  0  0  0  0
 31 77  2  0  0  0  0
 32 69  1  0  0  0  0
 32 78  2  0  0  0  0
 33 49  1  0  0  0  0
 33 73  1  0  0  0  0
 33 79  2  0  0  0  0
 34 62  1  0  0  0  0
 34 70  1  0  0  0  0
 34 80  2  0  0  0  0
 35 63  1  0  0  0  0
 35 74  1  0  0  0  0
 35 81  2  0  0  0  0
 36 39  1  0  0  0  0
 37 49  1  0  0  0  0
 38 70  1  0  0  0  0
 39 41  1  0  0  0  0
 40 44  1  0  0  0  0
 40 45  1  0  0  0  0
 41 47  1  0  0  0  0
 42 43  1  0  0  0  0
 42 48  1  0  0  0  0
 43 48  1  0  0  0  0
 44 50  1  0  0  0  0
 45 69  1  0  0  0  0
 46 50  1  0  0  0  0
 46 69  1  0  0  0  0
 47 73  1  0  0  0  0
 49 70  1  0  0  0  0
 50 68  1  0  0  0  0
 51 61  1  0  0  0  0
 52 63  1  0  0  0  0
 53 64  1  0  0  0  0
 54 64  1  0  0  0  0
 55 64  1  0  0  0  0
 56 67  1  0  0  0  0
 57 75  1  0  0  0  0
 58 60  1  0  0  0  0
 58 76  1  0  0  0  0
 59 61  1  0  0  0  0
 59 76  1  0  0  0  0
 60 83  1  0  0  0  0
 62 64  1  0  0  0  0
 62 74  1  0  0  0  0
 63 75  1  0  0  0  0
 65 68  1  0  0  0  0
M  CHG  2  75   1  76   1
M  ISO  4  30 100  32 100  60 101  83 101
M  END
> <Batch ID>
0180

> <Smiles>
CNC(C)C(=O)NC(C(=O)N1Cc2cc([101O:1][101CH2:1]CNCC(C)c3c(C4CC4)n[100c:0]([100C:0](=O)N4CCCC(n5nc(-c6ccc(Oc7ccc(F)cc7F)cc6)c(C(N)=O)c5N)C4)n3C)ccc2CC1C(=O)NC1CCCc2ccccc21)C(C)(C)C

> <Shape>
0.280

> <Color>
0.087

> <Negative vol penalty>
0.000

$$$$

  -OEChem-04052323003D

 84 93  0     1  0  0  0  0  0999 V2000
  -18.3998  -29.1842   26.3407 C   0  0  0  0  0  0  0  0  0  0  0  0
  -19.7832  -29.0531   26.4078 C   0  0  0  0  0  0  0  0  0  0  0  0
  -26.5954  -12.0016   21.8437 C   0  0  0  0  0  0  0  0  0  0  0  0
  -26.0009  -12.3876   19.5340 C   0  0  0  0  0  0  0  0  0  0  0  0
  -17.7327  -28.9181   25.1457 C   0  0  0  0  0  0  0  0  0  0  0  0
  -20.5002  -28.6549   25.2801 C   0  0  0  0  0  0  0  0  0  0  0  0
  -26.8304  -29.6081   22.0651 C   0  0  0  0  0  0  0  0  0  0  0  0
  -25.4295  -11.2564   22.0193 C   0  0  0  0  0  0  0  0  0  0  0  0
  -24.8350  -11.6424   19.7096 C   0  0  0  0  0  0  0  0  0  0  0  0
  -27.8946  -28.8742   21.5430 C   0  0  0  0  0  0  0  0  0  0  0  0
  -23.9638   -8.3804   19.8549 C   0  0  0  0  0  0  0  0  0  0  0  0
  -23.6375   -7.4485   18.8696 C   0  0  0  0  0  0  0  0  0  0  0  0
  -26.6444  -28.5181   19.5110 C   0  0  0  0  0  0  0  0  0  0  0  0
  -21.5553   -8.6052   18.4651 C   0  0  0  0  0  0  0  0  0  0  0  0
  -32.9147  -25.2927   18.5270 C   0  0  0  0  0  0  0  0  0  0  0  0
  -26.8812  -12.5672   20.6010 C   0  0  0  0  0  0  0  0  0  0  0  0
  -29.3464  -12.8608   20.0146 C   0  0  0  0  0  0  0  0  0  0  0  0
  -18.4429  -28.5258   24.0001 C   0  0  0  0  0  0  0  0  0  0  0  0
  -25.6589  -29.7937   21.3170 C   0  0  0  0  0  0  0  0  0  0  0  0
  -19.8419  -28.3821   24.0690 C   0  0  0  0  0  0  0  0  0  0  0  0
  -25.5677  -29.2570   20.0248 C   0  0  0  0  0  0  0  0  0  0  0  0
  -24.5492  -11.0768   20.9523 C   0  0  0  0  0  0  0  0  0  0  0  0
  -27.8006  -28.3266   20.2669 C   0  0  0  0  0  0  0  0  0  0  0  0
  -23.0858   -9.4247   20.1453 C   0  0  0  0  0  0  0  0  0  0  0  0
  -22.4333   -7.5609   18.1747 C   0  0  0  0  0  0  0  0  0  0  0  0
  -21.8816   -9.5371   19.4504 C   0  0  0  0  0  0  0  0  0  0  0  0
  -28.0852  -13.3375   20.4192 C   0  0  0  0  0  0  0  0  0  0  0  0
  -33.0049  -26.6572   18.7122 C   0  0  0  0  0  0  0  0  0  0  0  0
  -31.7958  -24.6899   19.0646 C   0  0  0  0  0  0  0  0  0  0  0  0
  -30.1455  -13.9777   19.9947 C   0  0  0  0  0  0  0  0  0  0  0  0
  -31.0355  -26.6841   19.8470 C   0  0  0  0  0  0  0  0  0  0  0  0
  -29.7588  -11.5275   19.6861 C   0  0  0  0  0  0  0  0  0  0  0  0
  -22.6061  -28.9927   21.6943 C   0  0  0  0  0  0  0  0  0  0  0  0
  -22.2092  -30.7873   19.0215 C   0  0  0  0  0  0  0  0  0  0  0  0
  -23.5795  -32.1081   16.1887 C   0  0  0  0  0  0  0  0  0  0  0  0
  -31.1598  -19.1088   18.7753 C   0  0  0  0  0  0  0  0  0  0  0  0
  -17.6732  -28.2034   22.7438 C   0  0  0  0  0  0  0  0  0  0  0  0
  -24.5304  -30.6105   21.8840 C   0  0  0  0  0  0  0  0  0  0  0  0
  -24.3398  -29.4445   19.1731 C   0  0  0  0  0  0  0  0  0  0  0  0
  -18.5455  -28.1488   21.4922 C   0  0  0  0  0  0  0  0  0  0  0  0
  -29.3396  -18.6472   21.7440 C   0  0  0  0  0  0  0  0  0  0  0  0
  -19.8081  -27.3346   21.7565 C   0  0  0  0  0  0  0  0  0  0  0  0
  -28.9463  -17.1745   21.6333 C   0  0  0  0  0  0  0  0  0  0  0  0
  -29.2338  -19.3711   20.4007 C   0  0  0  0  0  0  0  0  0  0  0  0
  -32.6988  -22.4161   19.4424 C   0  0  0  0  0  0  0  0  0  0  0  0
  -30.3084  -22.7539   18.7956 C   0  0  0  0  0  0  0  0  0  0  0  0
  -32.6744  -21.0554   18.7513 C   0  0  0  0  0  0  0  0  0  0  0  0
  -30.3302  -21.3943   18.1059 C   0  0  0  0  0  0  0  0  0  0  0  0
  -29.5867  -17.2413   19.1935 C   0  0  0  0  0  0  0  0  0  0  0  0
  -20.6573  -27.9763   22.8604 C   0  0  1  0  0  0  0  0  0  0  0  0
  -23.1845  -30.3014   21.2355 C   0  0  1  0  0  0  0  0  0  0  0  0
  -29.7391  -16.4735   20.5158 C   0  0  2  0  0  0  0  0  0  0  0  0
  -34.1798  -27.3974   18.1667 C   0  0  0  0  0  0  0  0  0  0  0  0
  -22.9978  -33.4990   14.1826 C   0  0  0  0  0  0  0  0  0  0  0  0
  -20.7891  -28.3915   17.7751 C   0  0  0  0  0  0  0  0  0  0  0  0
  -21.0832  -29.4708   15.5352 C   0  0  0  0  0  0  0  0  0  0  0  0
  -19.7232  -30.6021   17.2941 C   0  0  0  0  0  0  0  0  0  0  0  0
  -25.5348  -34.2026   16.9294 C   0  0  0  0  0  0  0  0  0  0  0  0
  -29.9918  -27.4567   20.5798 C   0  0  0  0  0  0  0  0  0  1  0  0
  -22.2383  -30.5150   17.5369 C   0  0  1  0  0  0  0  0  0  0  0  0
  -23.5332  -33.5091   15.6060 C   0  0  2  0  0  0  0  0  0  0  0  0
  -20.9810  -29.7395   17.0519 C   0  0  0  0  0  0  0  0  0  0  0  0
  -28.0785  -14.6547   20.6405 N   0  0  0  0  0  0  0  0  0  0  0  0
  -32.0801  -27.3872   19.3697 N   0  0  0  0  0  0  0  0  0  0  0  0
  -30.8328  -25.3576   19.7333 N   0  0  0  0  0  0  0  0  0  0  0  0
  -29.3455  -15.0151   20.3741 N   0  0  0  0  0  0  0  0  0  0  0  0
  -31.6666  -23.3051   18.8981 N   0  0  0  0  0  0  0  0  0  0  0  0
  -23.2607  -30.2456   19.7743 N   0  0  0  0  0  0  0  0  0  0  0  0
  -29.9712  -18.6447   19.3583 N   0  0  0  0  0  0  0  0  0  0  0  0
  -31.3273  -20.5004   18.6983 N   0  0  0  0  0  0  0  0  0  0  0  0
  -31.4474  -14.1638   19.6900 N   0  0  0  0  0  0  0  0  0  0  0  0
  -28.8108  -10.4978   19.7588 N   0  0  0  0  0  0  0  0  0  0  0  0
  -21.3899  -29.1105   22.3396 N   0  0  0  0  0  0  0  0  0  0  0  0
  -22.4300  -31.8077   16.8884 N   0  0  0  0  0  0  0  0  0  0  0  0
  -24.8973  -34.1091   15.5908 N   0  3  0  0  0  0  0  0  0  0  0  0
  -30.9373  -11.2545   19.3542 O   0  0  0  0  0  0  0  0  0  0  0  0
  -23.2172  -27.9529   21.4776 O   0  0  0  0  0  0  0  0  0  0  0  0
  -21.2913  -31.4619   19.4947 O   0  0  0  0  0  0  0  0  0  0  0  0
  -24.5378  -31.3541   16.0351 O   0  0  0  0  0  0  0  0  0  0  0  0
  -32.0219  -18.3291   18.3514 O   0  0  0  0  0  0  0  0  0  0  0  0
  -23.4115  -10.3495   21.1232 O   0  0  0  0  0  0  0  0  0  0  0  0
  -28.8447  -27.6043   19.7517 O   0  0  0  0  0  0  0  0  0  1  0  0
  -22.1209   -6.6668   17.2276 F   0  0  0  0  0  0  0  0  0  0  0  0
  -21.0347  -10.5389   19.7242 F   0  0  0  0  0  0  0  0  0  0  0  0
  1  2  1  0  0  0  0
  1  5  2  0  0  0  0
  2  6  2  0  0  0  0
  3  8  2  0  0  0  0
  3 16  1  0  0  0  0
  4  9  1  0  0  0  0
  4 16  2  0  0  0  0
  5 18  1  0  0  0  0
  6 20  1  0  0  0  0
  7 10  2  0  0  0  0
  7 19  1  0  0  0  0
  8 22  1  0  0  0  0
  9 22  2  0  0  0  0
 10 23  1  0  0  0  0
 11 12  2  0  0  0  0
 11 24  1  0  0  0  0
 12 25  1  0  0  0  0
 13 21  1  0  0  0  0
 13 23  2  0  0  0  0
 14 25  2  0  0  0  0
 14 26  1  0  0  0  0
 15 28  1  0  0  0  0
 15 29  2  0  0  0  0
 16 27  1  0  0  0  0
 17 27  1  0  0  0  0
 17 30  2  0  0  0  0
 17 32  1  0  0  0  0
 18 20  2  0  0  0  0
 18 37  1  0  0  0  0
 19 21  2  0  0  0  0
 19 38  1  0  0  0  0
 20 50  1  0  0  0  0
 21 39  1  0  0  0  0
 22 81  1  0  0  0  0
 23 82  1  0  0  0  0
 24 26  2  0  0  0  0
 24 81  1  0  0  0  0
 25 83  1  0  0  0  0
 26 84  1  0  0  0  0
 27 63  2  0  0  0  0
 28 53  1  0  0  0  0
 28 64  2  0  0  0  0
 29 65  1  0  0  0  0
 29 67  1  0  0  0  0
 30 66  1  0  0  0  0
 30 71  1  0  0  0  0
 31 59  1  0  0  0  0
 31 64  1  0  0  0  0
 31 65  2  0  0  0  0
 32 72  1  0  0  0  0
 32 76  2  0  0  0  0
 33 51  1  0  0  0  0
 33 73  1  0  0  0  0
 33 77  2  0  0  0  0
 34 60  1  0  0  0  0
 34 68  1  0  0  0  0
 34 78  2  0  0  0  0
 35 61  1  0  0  0  0
 35 74  1  0  0  0  0
 35 79  2  0  0  0  0
 36 69  1  0  0  0  0
 36 70  1  0  0  0  0
 36 80  2  0  0  0  0
 37 40  1  0  0  0  0
 38 51  1  0  0  0  0
 39 68  1  0  0  0  0
 40 42  1  0  0  0  0
 41 43  1  0  0  0  0
 41 44  1  0  0  0  0
 42 50  1  0  0  0  0
 43 52  1  0  0  0  0
 44 69  1  0  0  0  0
 45 47  1  0  0  0  0
 45 67  1  0  0  0  0
 46 48  1  0  0  0  0
 46 67  1  0  0  0  0
 47 70  1  0  0  0  0
 48 70  1  0  0  0  0
 49 52  1  0  0  0  0
 49 69  1  0  0  0  0
 50 73  1  0  0  0  0
 51 68  1  0  0  0  0
 52 66  1  0  0  0  0
 54 61  1  0  0  0  0
 55 62  1  0  0  0  0
 56 62  1  0  0  0  0
 57 62  1  0  0  0  0
 58 75  1  0  0  0  0
 59 82  1  0  0  0  0
 60 62  1  0  0  0  0
 60 74  1  0  0  0  0
 61 75  1  0  0  0  0
 63 66  1  0  0  0  0
M  CHG  1  75   1
M  ISO  4  36 100  59 101  70 100  82 101
M  END
> <Batch ID>
0180

> <Smiles>
CNC(C)C(=O)NC(C(=O)N1Cc2cc([101O:1][101CH2:1]c3nc(C)cc(N4CC[100N:0]([100C:0](=O)N5CCCC(n6nc(-c7ccc(Oc8ccc(F)cc8F)cc7)c(C(N)=O)c6N)C5)CC4)n3)ccc2CC1C(=O)NC1CCCc2ccccc21)C(C)(C)C

> <Shape>
0.284

> <Color>
0.100

> <Negative vol penalty>
0.000

$$$$

  -OEChem-04052323003D

 83 92  0     1  0  0  0  0  0999 V2000
  -24.3907  -30.3475   15.0084 C   0  0  0  0  0  0  0  0  0  0  0  0
  -24.7043  -29.0101   15.2286 C   0  0  0  0  0  0  0  0  0  0  0  0
  -23.0452   -9.9819   19.9247 C   0  0  0  0  0  0  0  0  0  0  0  0
  -23.8849   -9.8741   22.1876 C   0  0  0  0  0  0  0  0  0  0  0  0
  -24.9867  -31.3393   15.7863 C   0  0  0  0  0  0  0  0  0  0  0  0
  -25.6151  -28.6638   16.2260 C   0  0  0  0  0  0  0  0  0  0  0  0
  -25.4771  -23.6666   19.7637 C   0  0  0  0  0  0  0  0  0  0  0  0
  -22.2821   -8.8369   20.1533 C   0  0  0  0  0  0  0  0  0  0  0  0
  -23.1217   -8.7292   22.4162 C   0  0  0  0  0  0  0  0  0  0  0  0
  -26.1463  -22.4458   19.6891 C   0  0  0  0  0  0  0  0  0  0  0  0
  -19.8978   -7.9824   23.1010 C   0  0  0  0  0  0  0  0  0  0  0  0
  -19.1815   -7.9107   24.2958 C   0  0  0  0  0  0  0  0  0  0  0  0
  -27.8083  -23.2697   21.2313 C   0  0  0  0  0  0  0  0  0  0  0  0
  -20.3993   -5.9154   24.9062 C   0  0  0  0  0  0  0  0  0  0  0  0
  -23.8467  -10.5005   20.9418 C   0  0  0  0  0  0  0  0  0  0  0  0
  -24.2469  -13.0197   20.9142 C   0  0  0  0  0  0  0  0  0  0  0  0
  -25.8980  -31.0043   16.8002 C   0  0  0  0  0  0  0  0  0  0  0  0
  -25.9752  -24.7036   20.5655 C   0  0  0  0  0  0  0  0  0  0  0  0
  -26.2250  -29.6521   17.0173 C   0  0  0  0  0  0  0  0  0  0  0  0
  -27.1421  -24.5018   21.3163 C   0  0  0  0  0  0  0  0  0  0  0  0
  -28.4366  -18.1752   20.7902 C   0  0  0  0  0  0  0  0  0  0  0  0
  -22.3203   -8.2106   21.3991 C   0  0  0  0  0  0  0  0  0  0  0  0
  -27.3137  -22.2482   20.4207 C   0  0  0  0  0  0  0  0  0  0  0  0
  -20.8647   -7.0205   22.8088 C   0  0  0  0  0  0  0  0  0  0  0  0
  -19.4323   -6.8773   25.1984 C   0  0  0  0  0  0  0  0  0  0  0  0
  -21.1155   -5.9870   23.7114 C   0  0  0  0  0  0  0  0  0  0  0  0
  -24.6357  -11.6829   20.7061 C   0  0  0  0  0  0  0  0  0  0  0  0
  -29.2303  -17.0471   20.7495 C   0  0  0  0  0  0  0  0  0  0  0  0
  -28.2493  -18.8174   19.5833 C   0  0  0  0  0  0  0  0  0  0  0  0
  -25.3440  -13.7581   20.5432 C   0  0  0  0  0  0  0  0  0  0  0  0
  -29.5442  -17.2875   18.5110 C   0  0  0  0  0  0  0  0  0  0  0  0
  -23.0051  -13.5470   21.3996 C   0  0  0  0  0  0  0  0  0  0  0  0
  -27.0255  -27.6538   20.0204 C   0  0  0  0  0  0  0  0  0  0  0  0
  -27.1317  -27.7961   23.2594 C   0  0  0  0  0  0  0  0  0  0  0  0
  -27.3557  -26.1257   26.2270 C   0  0  0  0  0  0  0  0  0  0  0  0
  -31.0383  -14.2216   20.9905 C   0  0  0  0  0  0  0  0  0  0  0  0
  -26.5525  -32.1144   17.5838 C   0  0  0  0  0  0  0  0  0  0  0  0
  -25.2270  -26.0053   20.6558 C   0  0  0  0  0  0  0  0  0  0  0  0
  -27.7072  -25.5761   22.2078 C   0  0  0  0  0  0  0  0  0  0  0  0
  -27.2234  -31.6386   18.8698 C   0  0  0  0  0  0  0  0  0  0  0  0
  -29.5472  -12.4260   18.1127 C   0  0  0  0  0  0  0  0  0  0  0  0
  -28.0627  -30.3928   18.6047 C   0  0  0  0  0  0  0  0  0  0  0  0
  -28.1361  -12.1144   18.6018 C   0  0  0  0  0  0  0  0  0  0  0  0
  -30.4594  -16.8288   23.0968 C   0  0  0  0  0  0  0  0  0  0  0  0
  -30.5309  -12.5425   19.2715 C   0  0  0  0  0  0  0  0  0  0  0  0
  -31.3229  -15.5731   23.1251 C   0  0  0  0  0  0  0  0  0  0  0  0
  -28.7102  -13.2462   20.7890 C   0  0  0  0  0  0  0  0  0  0  0  0
  -27.1894  -29.2350   18.1063 C   0  0  1  0  0  0  0  0  0  0  0  0
  -29.5724  -16.1628   22.0209 C   0  0  2  0  0  0  0  0  0  0  0  0
  -26.1050  -27.1693   21.1047 C   0  0  1  0  0  0  0  0  0  0  0  0
  -27.6871  -13.1482   19.6454 C   0  0  2  0  0  0  0  0  0  0  0  0
  -27.8280  -18.6584   22.0574 C   0  0  0  0  0  0  0  0  0  0  0  0
  -30.1592  -16.7945   17.2453 C   0  0  0  0  0  0  0  0  0  0  0  0
  -27.4565  -26.5152   28.7040 C   0  0  0  0  0  0  0  0  0  0  0  0
  -30.0429  -28.6724   23.0006 C   0  0  0  0  0  0  0  0  0  0  0  0
  -30.3497  -28.1273   25.4249 C   0  0  0  0  0  0  0  0  0  0  0  0
  -28.7344  -29.9012   24.7419 C   0  0  0  0  0  0  0  0  0  0  0  0
  -24.8606  -24.6014   26.6853 C   0  0  0  0  0  0  0  0  0  0  0  0
  -27.4049  -20.0552   19.5050 C   0  0  0  0  0  0  0  0  0  1  0  0
  -28.1670  -27.4756   24.3102 C   0  0  1  0  0  0  0  0  0  0  0  0
  -26.5541  -26.2413   27.5109 C   0  0  2  0  0  0  0  0  0  0  0  0
  -29.3142  -28.5243   24.3512 C   0  0  0  0  0  0  0  0  0  0  0  0
  -25.8824  -11.5752   20.2389 N   0  0  0  0  0  0  0  0  0  0  0  0
  -29.8022  -16.5732   19.6231 N   0  0  0  0  0  0  0  0  0  0  0  0
  -28.7902  -18.3996   18.4200 N   0  0  0  0  0  0  0  0  0  0  0  0
  -26.2864  -12.8539   20.1504 N   0  0  0  0  0  0  0  0  0  0  0  0
  -26.9429  -26.8334   22.2576 N   0  0  0  0  0  0  0  0  0  0  0  0
  -30.0712  -13.4885   20.2918 N   0  0  0  0  0  0  0  0  0  0  0  0
  -30.6150  -15.1348   21.9286 N   0  0  0  0  0  0  0  0  0  0  0  0
  -25.5848  -15.0862   20.5179 N   0  0  0  0  0  0  0  0  0  0  0  0
  -21.9833  -12.6483   21.7352 N   0  0  0  0  0  0  0  0  0  0  0  0
  -26.4759  -28.6287   19.2099 N   0  0  0  0  0  0  0  0  0  0  0  0
  -27.4417  -27.3339   25.5681 N   0  0  0  0  0  0  0  0  0  0  0  0
  -25.8041  -24.9796   27.7687 N   0  3  0  0  0  0  0  0  0  0  0  0
  -22.8017  -14.7793   21.5164 O   0  0  0  0  0  0  0  0  0  0  0  0
  -28.1515  -27.1794   19.9271 O   0  0  0  0  0  0  0  0  0  0  0  0
  -26.5081  -28.8581   23.3289 O   0  0  0  0  0  0  0  0  0  0  0  0
  -27.8585  -25.0701   25.8484 O   0  0  0  0  0  0  0  0  0  0  0  0
  -32.2479  -14.0843   20.7629 O   0  0  0  0  0  0  0  0  0  0  0  0
  -21.5756   -7.0935   21.6226 O   0  0  0  0  0  0  0  0  0  0  0  0
  -27.9692  -21.0578   20.3493 O   0  0  0  0  0  0  0  0  0  1  0  0
  -18.7455   -6.8094   26.3463 F   0  0  0  0  0  0  0  0  0  0  0  0
  -22.0441   -5.0607   23.4367 F   0  0  0  0  0  0  0  0  0  0  0  0
  1  2  1  0  0  0  0
  1  5  2  0  0  0  0
  2  6  2  0  0  0  0
  3  8  2  0  0  0  0
  3 15  1  0  0  0  0
  4  9  1  0  0  0  0
  4 15  2  0  0  0  0
  5 17  1  0  0  0  0
  6 19  1  0  0  0  0
  7 10  2  0  0  0  0
  7 18  1  0  0  0  0
  8 22  1  0  0  0  0
  9 22  2  0  0  0  0
 10 23  1  0  0  0  0
 11 12  2  0  0  0  0
 11 24  1  0  0  0  0
 12 25  1  0  0  0  0
 13 20  1  0  0  0  0
 13 23  2  0  0  0  0
 14 25  2  0  0  0  0
 14 26  1  0  0  0  0
 15 27  1  0  0  0  0
 16 27  1  0  0  0  0
 16 30  2  0  0  0  0
 16 32  1  0  0  0  0
 17 19  2  0  0  0  0
 17 37  1  0  0  0  0
 18 20  2  0  0  0  0
 18 38  1  0  0  0  0
 19 48  1  0  0  0  0
 20 39  1  0  0  0  0
 21 28  1  0  0  0  0
 21 29  2  0  0  0  0
 21 52  1  0  0  0  0
 22 80  1  0  0  0  0
 23 81  1  0  0  0  0
 24 26  2  0  0  0  0
 24 80  1  0  0  0  0
 25 82  1  0  0  0  0
 26 83  1  0  0  0  0
 27 63  2  0  0  0  0
 28 49  1  0  0  0  0
 28 64  2  0  0  0  0
 29 59  1  0  0  0  0
 29 65  1  0  0  0  0
 30 66  1  0  0  0  0
 30 70  1  0  0  0  0
 31 53  1  0  0  0  0
 31 64  1  0  0  0  0
 31 65  2  0  0  0  0
 32 71  1  0  0  0  0
 32 75  2  0  0  0  0
 33 50  1  0  0  0  0
 33 72  1  0  0  0  0
 33 76  2  0  0  0  0
 34 60  1  0  0  0  0
 34 67  1  0  0  0  0
 34 77  2  0  0  0  0
 35 61  1  0  0  0  0
 35 73  1  0  0  0  0
 35 78  2  0  0  0  0
 36 68  1  0  0  0  0
 36 69  1  0  0  0  0
 36 79  2  0  0  0  0
 37 40  1  0  0  0  0
 38 50  1  0  0  0  0
 39 67  1  0  0  0  0
 40 42  1  0  0  0  0
 41 43  1  0  0  0  0
 41 45  1  0  0  0  0
 42 48  1  0  0  0  0
 43 51  1  0  0  0  0
 44 46  1  0  0  0  0
 44 49  1  0  0  0  0
 45 68  1  0  0  0  0
 46 69  1  0  0  0  0
 47 51  1  0  0  0  0
 47 68  1  0  0  0  0
 48 72  1  0  0  0  0
 49 69  1  0  0  0  0
 50 67  1  0  0  0  0
 51 66  1  0  0  0  0
 54 61  1  0  0  0  0
 55 62  1  0  0  0  0
 56 62  1  0  0  0  0
 57 62  1  0  0  0  0
 58 74  1  0  0  0  0
 59 81  1  0  0  0  0
 60 62  1  0  0  0  0
 60 73  1  0  0  0  0
 61 74  1  0  0  0  0
 63 66  1  0  0  0  0
M  CHG  1  74   1
M  ISO  4  36 100  59 101  69 100  81 101
M  END
> <Batch ID>
0180

> <Smiles>
CNC(C)C(=O)NC(C(=O)N1Cc2cc([101O:1][101CH2:1]c3nc(C)nc(C4CC[100N:0]4[100C:0](=O)N4CCCC(n5nc(-c6ccc(Oc7ccc(F)cc7F)cc6)c(C(N)=O)c5N)C4)c3C)ccc2CC1C(=O)NC1CCCc2ccccc21)C(C)(C)C

> <Shape>
0.259

> <Color>
0.200

> <Negative vol penalty>
0.000

$$$$

  -OEChem-04052323003D

 84 93  0     1  0  0  0  0  0999 V2000
  -18.2422  -32.6685   20.9174 C   0  0  0  0  0  0  0  0  0  0  0  0
  -19.5234  -32.4649   20.4149 C   0  0  0  0  0  0  0  0  0  0  0  0
  -25.8331  -15.9433   20.5329 C   0  0  0  0  0  0  0  0  0  0  0  0
  -28.0521  -15.1575   19.9891 C   0  0  0  0  0  0  0  0  0  0  0  0
  -17.8918  -32.1471   22.1621 C   0  0  0  0  0  0  0  0  0  0  0  0
  -20.4554  -31.7407   21.1574 C   0  0  0  0  0  0  0  0  0  0  0  0
  -24.8000  -28.0129   18.9819 C   0  0  0  0  0  0  0  0  0  0  0  0
  -25.3837  -14.6248   20.6045 C   0  0  0  0  0  0  0  0  0  0  0  0
  -27.6026  -13.8389   20.0607 C   0  0  0  0  0  0  0  0  0  0  0  0
  -26.1612  -28.1975   18.7435 C   0  0  0  0  0  0  0  0  0  0  0  0
  -25.5070  -12.0675   22.8131 C   0  0  0  0  0  0  0  0  0  0  0  0
  -24.6982  -11.7162   23.8938 C   0  0  0  0  0  0  0  0  0  0  0  0
  -26.6632  -27.2292   20.8952 C   0  0  0  0  0  0  0  0  0  0  0  0
  -22.9268  -11.1042   22.3690 C   0  0  0  0  0  0  0  0  0  0  0  0
  -27.1673  -16.2097   20.2251 C   0  0  0  0  0  0  0  0  0  0  0  0
  -28.1636  -18.3470   21.1982 C   0  0  0  0  0  0  0  0  0  0  0  0
  -18.8170  -31.4080   22.9160 C   0  0  0  0  0  0  0  0  0  0  0  0
  -24.3589  -27.4441   20.1853 C   0  0  0  0  0  0  0  0  0  0  0  0
  -20.1175  -31.2101   22.4140 C   0  0  0  0  0  0  0  0  0  0  0  0
  -25.2960  -27.0361   21.1453 C   0  0  0  0  0  0  0  0  0  0  0  0
  -31.1888  -27.0772   19.4587 C   0  0  0  0  0  0  0  0  0  0  0  0
  -26.2684  -13.5726   20.3684 C   0  0  0  0  0  0  0  0  0  0  0  0
  -27.0929  -27.8083   19.7014 C   0  0  0  0  0  0  0  0  0  0  0  0
  -25.0258  -11.9374   21.5103 C   0  0  0  0  0  0  0  0  0  0  0  0
  -23.4081  -11.2345   23.6717 C   0  0  0  0  0  0  0  0  0  0  0  0
  -23.7357  -11.4557   21.2883 C   0  0  0  0  0  0  0  0  0  0  0  0
  -27.6320  -17.5715   20.1505 C   0  0  0  0  0  0  0  0  0  0  0  0
  -31.3176  -27.0169   18.0860 C   0  0  0  0  0  0  0  0  0  0  0  0
  -31.5263  -25.9263   20.1411 C   0  0  0  0  0  0  0  0  0  0  0  0
  -28.4511  -19.5580   20.6174 C   0  0  0  0  0  0  0  0  0  0  0  0
  -32.0407  -24.8648   18.1980 C   0  0  0  0  0  0  0  0  0  0  0  0
  -28.3785  -18.0034   22.5735 C   0  0  0  0  0  0  0  0  0  0  0  0
  -22.5484  -28.4338   22.6032 C   0  0  0  0  0  0  0  0  0  0  0  0
  -22.8865  -25.3661   23.6018 C   0  0  0  0  0  0  0  0  0  0  0  0
  -24.7122  -22.4834   23.5391 C   0  0  0  0  0  0  0  0  0  0  0  0
  -30.5596  -22.5602   16.4120 C   0  0  0  0  0  0  0  0  0  0  0  0
  -18.4070  -30.9044   24.2772 C   0  0  0  0  0  0  0  0  0  0  0  0
  -22.8885  -27.2272   20.4159 C   0  0  0  0  0  0  0  0  0  0  0  0
  -24.8751  -26.4021   22.4450 C   0  0  0  0  0  0  0  0  0  0  0  0
  -19.3365  -29.8293   24.8343 C   0  0  0  0  0  0  0  0  0  0  0  0
  -27.2066  -21.4102   16.0780 C   0  0  0  0  0  0  0  0  0  0  0  0
  -20.7946  -30.2423   24.6613 C   0  0  0  0  0  0  0  0  0  0  0  0
  -31.6269  -28.3654   15.9043 C   0  0  0  0  0  0  0  0  0  0  0  0
  -32.0228  -29.2680   17.0307 C   0  0  0  0  0  0  0  0  0  0  0  0
  -27.0645  -20.3691   17.1896 C   0  0  0  0  0  0  0  0  0  0  0  0
  -28.6006  -21.3841   15.4551 C   0  0  0  0  0  0  0  0  0  0  0  0
  -29.5692  -20.4702   17.5288 C   0  0  0  0  0  0  0  0  0  0  0  0
  -21.1487  -30.4088   23.1786 C   0  0  1  0  0  0  0  0  0  0  0  0
  -30.9767  -28.2092   17.2524 C   0  0  0  0  0  0  0  0  0  0  0  0
  -22.5262  -27.1098   21.8932 C   0  0  1  0  0  0  0  0  0  0  0  0
  -28.1979  -20.4964   18.2253 C   0  0  2  0  0  0  0  0  0  0  0  0
  -31.4277  -25.8725   21.6304 C   0  0  0  0  0  0  0  0  0  0  0  0
  -24.7576  -20.1595   24.4850 C   0  0  0  0  0  0  0  0  0  0  0  0
  -23.8633  -26.4746   26.2715 C   0  0  0  0  0  0  0  0  0  0  0  0
  -24.7714  -24.2028   26.8031 C   0  0  0  0  0  0  0  0  0  0  0  0
  -22.3208  -24.5148   26.4572 C   0  0  0  0  0  0  0  0  0  0  0  0
  -24.5226  -21.2605   20.8507 C   0  0  0  0  0  0  0  0  0  0  0  0
  -30.7099  -28.3191   20.1704 C   0  0  0  0  0  0  0  0  0  0  0  0
  -32.5145  -23.6364   17.4980 C   0  0  0  0  0  0  0  0  0  0  0  0
  -29.2538  -28.2105   20.6096 C   0  0  0  0  0  0  0  0  0  1  0  0
  -23.8774  -24.6269   24.4681 C   0  0  1  0  0  0  0  0  0  0  0  0
  -24.3034  -21.0367   23.3287 C   0  0  2  0  0  0  0  0  0  0  0  0
  -23.7164  -24.9685   25.9764 C   0  0  0  0  0  0  0  0  0  0  0  0
  -27.5834  -18.2343   18.9919 N   0  0  0  0  0  0  0  0  0  0  0  0
  -31.7421  -25.9229   17.4203 N   0  0  0  0  0  0  0  0  0  0  0  0
  -31.9574  -24.7977   19.5404 N   0  0  0  0  0  0  0  0  0  0  0  0
  -28.0880  -19.4390   19.3082 N   0  0  0  0  0  0  0  0  0  0  0  0
  -23.4258  -26.2169   22.6265 N   0  0  0  0  0  0  0  0  0  0  0  0
  -29.6295  -21.5106   16.4902 N   0  0  0  0  0  0  0  0  0  0  0  0
  -28.9764  -20.7024   21.1041 N   0  0  0  0  0  0  0  0  0  0  0  0
  -28.0272  -16.7164   23.0034 N   0  0  0  0  0  0  0  0  0  0  0  0
  -21.3478  -29.1165   22.5583 N   0  0  0  0  0  0  0  0  0  0  0  0
  -23.7163  -23.2110   24.1556 N   0  0  0  0  0  0  0  0  0  0  0  0
  -31.4967  -22.6111   17.4366 N   0  0  0  0  0  0  0  0  0  0  0  0
  -24.9042  -20.5061   22.0723 N   0  3  0  0  0  0  0  0  0  0  0  0
  -28.8522  -18.8189   23.4006 O   0  0  0  0  0  0  0  0  0  0  0  0
  -23.5781  -28.8077   23.1524 O   0  0  0  0  0  0  0  0  0  0  0  0
  -21.6786  -25.1895   23.7789 O   0  0  0  0  0  0  0  0  0  0  0  0
  -25.8069  -22.9232   23.1945 O   0  0  0  0  0  0  0  0  0  0  0  0
  -30.5519  -23.3937   15.4997 O   0  0  0  0  0  0  0  0  0  0  0  0
  -25.8303  -12.2859   20.4384 O   0  0  0  0  0  0  0  0  0  0  0  0
  -28.4221  -27.9879   19.4716 O   0  0  0  0  0  0  0  0  0  1  0  0
  -22.6320  -10.8956   24.7096 F   0  0  0  0  0  0  0  0  0  0  0  0
  -23.2682  -11.3273   20.0390 F   0  0  0  0  0  0  0  0  0  0  0  0
  1  2  1  0  0  0  0
  1  5  2  0  0  0  0
  2  6  2  0  0  0  0
  3  8  2  0  0  0  0
  3 15  1  0  0  0  0
  4  9  1  0  0  0  0
  4 15  2  0  0  0  0
  5 17  1  0  0  0  0
  6 19  1  0  0  0  0
  7 10  2  0  0  0  0
  7 18  1  0  0  0  0
  8 22  1  0  0  0  0
  9 22  2  0  0  0  0
 10 23  1  0  0  0  0
 11 12  2  0  0  0  0
 11 24  1  0  0  0  0
 12 25  1  0  0  0  0
 13 20  1  0  0  0  0
 13 23  2  0  0  0  0
 14 25  2  0  0  0  0
 14 26  1  0  0  0  0
 15 27  1  0  0  0  0
 16 27  1  0  0  0  0
 16 30  2  0  0  0  0
 16 32  1  0  0  0  0
 17 19  2  0  0  0  0
 17 37  1  0  0  0  0
 18 20  2  0  0  0  0
 18 38  1  0  0  0  0
 19 48  1  0  0  0  0
 20 39  1  0  0  0  0
 21 28  2  0  0  0  0
 21 29  1  0  0  0  0
 21 58  1  0  0  0  0
 22 81  1  0  0  0  0
 23 82  1  0  0  0  0
 24 26  2  0  0  0  0
 24 81  1  0  0  0  0
 25 83  1  0  0  0  0
 26 84  1  0  0  0  0
 27 64  2  0  0  0  0
 28 49  1  0  0  0  0
 28 65  1  0  0  0  0
 29 52  1  0  0  0  0
 29 66  2  0  0  0  0
 30 67  1  0  0  0  0
 30 70  1  0  0  0  0
 31 59  1  0  0  0  0
 31 65  2  0  0  0  0
 31 66  1  0  0  0  0
 32 71  1  0  0  0  0
 32 76  2  0  0  0  0
 33 50  1  0  0  0  0
 33 72  1  0  0  0  0
 33 77  2  0  0  0  0
 34 61  1  0  0  0  0
 34 68  1  0  0  0  0
 34 78  2  0  0  0  0
 35 62  1  0  0  0  0
 35 73  1  0  0  0  0
 35 79  2  0  0  0  0
 36 69  1  0  0  0  0
 36 74  1  0  0  0  0
 36 80  2  0  0  0  0
 37 40  1  0  0  0  0
 38 50  1  0  0  0  0
 39 68  1  0  0  0  0
 40 42  1  0  0  0  0
 41 45  1  0  0  0  0
 41 46  1  0  0  0  0
 42 48  1  0  0  0  0
 43 44  1  0  0  0  0
 43 49  1  0  0  0  0
 44 49  1  0  0  0  0
 45 51  1  0  0  0  0
 46 69  1  0  0  0  0
 47 51  1  0  0  0  0
 47 69  1  0  0  0  0
 48 72  1  0  0  0  0
 50 68  1  0  0  0  0
 51 67  1  0  0  0  0
 53 62  1  0  0  0  0
 54 63  1  0  0  0  0
 55 63  1  0  0  0  0
 56 63  1  0  0  0  0
 57 75  1  0  0  0  0
 58 60  1  0  0  0  0
 59 74  1  0  0  0  0
 60 82  1  0  0  0  0
 61 63  1  0  0  0  0
 61 73  1  0  0  0  0
 62 75  1  0  0  0  0
 64 67  1  0  0  0  0
M  CHG  1  75   1
M  ISO  4  36 100  60 101  74 100  82 101
M  END
> <Batch ID>
0180

> <Smiles>
CNC(C)C(=O)NC(C(=O)N1Cc2cc([101O:1][101CH2:1]Cc3c(C)nc(C[100NH:0][100C:0](=O)N4CCCC(n5nc(-c6ccc(Oc7ccc(F)cc7F)cc6)c(C(N)=O)c5N)C4)nc3C3CC3)ccc2CC1C(=O)NC1CCCc2ccccc21)C(C)(C)C

> <Shape>
0.193

> <Color>
0.071

> <Negative vol penalty>
0.000

$$$$

  -OEChem-04052323003D

 81 90  0     1  0  0  0  0  0999 V2000
  -26.3632  -17.2280   26.6050 C   0  0  0  0  0  0  0  0  0  0  0  0
  -27.1875  -18.1708   25.9992 C   0  0  0  0  0  0  0  0  0  0  0  0
  -26.3658  -12.9153   21.3948 C   0  0  0  0  0  0  0  0  0  0  0  0
  -26.2730  -13.4002   19.0298 C   0  0  0  0  0  0  0  0  0  0  0  0
  -24.9857  -17.2697   26.3938 C   0  0  0  0  0  0  0  0  0  0  0  0
  -26.6347  -19.1554   25.1809 C   0  0  0  0  0  0  0  0  0  0  0  0
  -28.5656  -24.9334   24.5550 C   0  0  0  0  0  0  0  0  0  0  0  0
  -25.1414  -12.2528   21.3070 C   0  0  0  0  0  0  0  0  0  0  0  0
  -25.0487  -12.7377   18.9420 C   0  0  0  0  0  0  0  0  0  0  0  0
  -29.3629  -25.5573   23.5965 C   0  0  0  0  0  0  0  0  0  0  0  0
  -24.0084   -9.2386   20.2757 C   0  0  0  0  0  0  0  0  0  0  0  0
  -23.8907   -8.0062   20.9182 C   0  0  0  0  0  0  0  0  0  0  0  0
  -27.3806  -26.2854   22.4304 C   0  0  0  0  0  0  0  0  0  0  0  0
  -22.0971   -8.8860   22.2770 C   0  0  0  0  0  0  0  0  0  0  0  0
  -32.2813  -25.6683   19.8953 C   0  0  0  0  0  0  0  0  0  0  0  0
  -26.9316  -13.4890   20.2562 C   0  0  0  0  0  0  0  0  0  0  0  0
  -29.4783  -13.6168   20.1817 C   0  0  0  0  0  0  0  0  0  0  0  0
  -24.4148  -18.2611   25.5802 C   0  0  0  0  0  0  0  0  0  0  0  0
  -27.1676  -24.9716   24.4523 C   0  0  0  0  0  0  0  0  0  0  0  0
  -25.2484  -19.2096   24.9575 C   0  0  0  0  0  0  0  0  0  0  0  0
  -26.5678  -25.6634   23.3903 C   0  0  0  0  0  0  0  0  0  0  0  0
  -32.6688  -24.3778   19.6906 C   0  0  0  0  0  0  0  0  0  0  0  0
  -24.4829  -12.1640   20.0806 C   0  0  0  0  0  0  0  0  0  0  0  0
  -28.7705  -26.2310   22.5324 C   0  0  0  0  0  0  0  0  0  0  0  0
  -23.1706  -10.2948   20.6339 C   0  0  0  0  0  0  0  0  0  0  0  0
  -22.9350   -7.8298   21.9188 C   0  0  0  0  0  0  0  0  0  0  0  0
  -22.2150  -10.1184   21.6345 C   0  0  0  0  0  0  0  0  0  0  0  0
  -28.1960  -14.1740   20.3464 C   0  0  0  0  0  0  0  0  0  0  0  0
  -31.6127  -23.7798   19.0008 C   0  0  0  0  0  0  0  0  0  0  0  0
  -30.3375  -14.6728   20.3637 C   0  0  0  0  0  0  0  0  0  0  0  0
  -29.8587  -12.2655   19.8902 C   0  0  0  0  0  0  0  0  0  0  0  0
  -24.8829  -22.7880   24.1123 C   0  0  0  0  0  0  0  0  0  0  0  0
  -22.9229  -25.3428   24.5039 C   0  0  0  0  0  0  0  0  0  0  0  0
  -22.4882  -28.7209   24.2882 C   0  0  0  0  0  0  0  0  0  0  0  0
  -30.7025  -20.2291   19.1780 C   0  0  0  0  0  0  0  0  0  0  0  0
  -22.9254  -18.2372   25.3436 C   0  0  0  0  0  0  0  0  0  0  0  0
  -26.3213  -24.3163   25.5091 C   0  0  0  0  0  0  0  0  0  0  0  0
  -33.7765  -23.4418   19.9393 C   0  0  0  0  0  0  0  0  0  0  0  0
  -25.0712  -25.7510   23.2456 C   0  0  0  0  0  0  0  0  0  0  0  0
  -22.3799  -19.5394   24.7632 C   0  0  0  0  0  0  0  0  0  0  0  0
  -33.3983  -22.2442   18.9957 C   0  0  0  0  0  0  0  0  0  0  0  0
  -30.0078  -19.0985   22.5450 C   0  0  0  0  0  0  0  0  0  0  0  0
  -23.2549  -20.0170   23.6086 C   0  0  0  0  0  0  0  0  0  0  0  0
  -29.5922  -17.6470   22.2987 C   0  0  0  0  0  0  0  0  0  0  0  0
  -29.4992  -20.0149   21.4361 C   0  0  0  0  0  0  0  0  0  0  0  0
  -29.4983  -18.1586   19.8149 C   0  0  0  0  0  0  0  0  0  0  0  0
  -24.6838  -20.3080   24.0830 C   0  0  1  0  0  0  0  0  0  0  0  0
  -31.8648  -22.3639   18.6791 C   0  0  1  0  0  0  0  0  0  0  0  0
  -24.9140  -23.9813   25.0248 C   0  0  1  0  0  0  0  0  0  0  0  0
  -30.0016  -17.1782   20.8899 C   0  0  2  0  0  0  0  0  0  0  0  0
  -20.7658  -30.5118   24.6396 C   0  0  0  0  0  0  0  0  0  0  0  0
  -21.5530  -24.5327   21.9006 C   0  0  0  0  0  0  0  0  0  0  0  0
  -20.5265  -26.8145   21.8121 C   0  0  0  0  0  0  0  0  0  0  0  0
  -19.9967  -25.2832   23.7087 C   0  0  0  0  0  0  0  0  0  0  0  0
  -24.1295  -30.0553   26.3582 C   0  0  0  0  0  0  0  0  0  0  0  0
  -30.1626  -26.9840   19.2645 C   0  0  0  0  0  0  0  0  0  0  0  0
  -29.0193  -26.9263   20.2717 C   0  0  0  0  0  0  0  0  0  1  0  0
  -22.2844  -26.3519   23.5804 C   0  0  1  0  0  0  0  0  0  0  0  0
  -21.9073  -29.7262   25.2662 C   0  0  2  0  0  0  0  0  0  0  0  0
  -21.1184  -25.7425   22.7518 C   0  0  0  0  0  0  0  0  0  0  0  0
  -28.2326  -15.4823   20.6127 N   0  0  0  0  0  0  0  0  0  0  0  0
  -30.5994  -24.5975   18.7488 N   0  0  0  0  0  0  0  0  0  0  0  0
  -31.0349  -25.7533   19.3152 N   0  0  0  0  0  0  0  0  0  0  0  0
  -29.5484  -15.7560   20.6168 N   0  0  0  0  0  0  0  0  0  0  0  0
  -24.2867  -25.0888   24.3009 N   0  0  0  0  0  0  0  0  0  0  0  0
  -29.9390  -19.5233   20.1227 N   0  0  0  0  0  0  0  0  0  0  0  0
  -31.6835  -14.7711   20.3303 N   0  0  0  0  0  0  0  0  0  0  0  0
  -28.8491  -11.3061   19.7338 N   0  0  0  0  0  0  0  0  0  0  0  0
  -24.7392  -21.5809   24.7694 N   0  0  0  0  0  0  0  0  0  0  0  0
  -21.8959  -27.4823   24.4169 N   0  0  0  0  0  0  0  0  0  0  0  0
  -31.0732  -21.5173   19.5438 N   0  0  0  0  0  0  0  0  0  0  0  0
  -22.9568  -30.6898   25.7030 N   0  3  0  0  0  0  0  0  0  0  0  0
  -31.0590  -11.9158   19.7881 O   0  0  0  0  0  0  0  0  0  0  0  0
  -24.9805  -22.9505   22.9016 O   0  0  0  0  0  0  0  0  0  0  0  0
  -22.2385  -24.8052   25.3781 O   0  0  0  0  0  0  0  0  0  0  0  0
  -23.3758  -29.0067   23.4876 O   0  0  0  0  0  0  0  0  0  0  0  0
  -31.0341  -19.7450   18.0905 O   0  0  0  0  0  0  0  0  0  0  0  0
  -23.2883  -11.5175   19.9945 O   0  0  0  0  0  0  0  0  0  0  0  0
  -29.5463  -26.8403   21.5950 O   0  0  0  0  0  0  0  0  0  1  0  0
  -22.8210   -6.6458   22.5347 F   0  0  0  0  0  0  0  0  0  0  0  0
  -21.4064  -11.1290   21.9821 F   0  0  0  0  0  0  0  0  0  0  0  0
  1  2  1  0  0  0  0
  1  5  2  0  0  0  0
  2  6  2  0  0  0  0
  3  8  2  0  0  0  0
  3 16  1  0  0  0  0
  4  9  1  0  0  0  0
  4 16  2  0  0  0  0
  5 18  1  0  0  0  0
  6 20  1  0  0  0  0
  7 10  2  0  0  0  0
  7 19  1  0  0  0  0
  8 23  1  0  0  0  0
  9 23  2  0  0  0  0
 10 24  1  0  0  0  0
 11 12  2  0  0  0  0
 11 25  1  0  0  0  0
 12 26  1  0  0  0  0
 13 21  1  0  0  0  0
 13 24  2  0  0  0  0
 14 26  2  0  0  0  0
 14 27  1  0  0  0  0
 15 22  2  0  0  0  0
 15 63  1  0  0  0  0
 16 28  1  0  0  0  0
 17 28  1  0  0  0  0
 17 30  2  0  0  0  0
 17 31  1  0  0  0  0
 18 20  2  0  0  0  0
 18 36  1  0  0  0  0
 19 21  2  0  0  0  0
 19 37  1  0  0  0  0
 20 47  1  0  0  0  0
 21 39  1  0  0  0  0
 22 29  1  0  0  0  0
 22 38  1  0  0  0  0
 23 78  1  0  0  0  0
 24 79  1  0  0  0  0
 25 27  2  0  0  0  0
 25 78  1  0  0  0  0
 26 80  1  0  0  0  0
 27 81  1  0  0  0  0
 28 61  2  0  0  0  0
 29 48  1  0  0  0  0
 29 62  2  0  0  0  0
 30 64  1  0  0  0  0
 30 67  1  0  0  0  0
 31 68  1  0  0  0  0
 31 73  2  0  0  0  0
 32 49  1  0  0  0  0
 32 69  1  0  0  0  0
 32 74  2  0  0  0  0
 33 58  1  0  0  0  0
 33 65  1  0  0  0  0
 33 75  2  0  0  0  0
 34 59  1  0  0  0  0
 34 70  1  0  0  0  0
 34 76  2  0  0  0  0
 35 66  1  0  0  0  0
 35 71  1  0  0  0  0
 35 77  2  0  0  0  0
 36 40  1  0  0  0  0
 37 49  1  0  0  0  0
 38 41  1  0  0  0  0
 39 65  1  0  0  0  0
 40 43  1  0  0  0  0
 41 48  1  0  0  0  0
 42 44  1  0  0  0  0
 42 45  1  0  0  0  0
 43 47  1  0  0  0  0
 44 50  1  0  0  0  0
 45 66  1  0  0  0  0
 46 50  1  0  0  0  0
 46 66  1  0  0  0  0
 47 69  1  0  0  0  0
 48 71  1  0  0  0  0
 49 65  1  0  0  0  0
 50 64  1  0  0  0  0
 51 59  1  0  0  0  0
 52 60  1  0  0  0  0
 53 60  1  0  0  0  0
 54 60  1  0  0  0  0
 55 72  1  0  0  0  0
 56 57  1  0  0  0  0
 56 63  1  0  0  0  0
 57 79  1  0  0  0  0
 58 60  1  0  0  0  0
 58 70  1  0  0  0  0
 59 72  1  0  0  0  0
 61 64  1  0  0  0  0
 62 63  1  0  0  0  0
M  CHG  1  72   1
M  ISO  4  35 100  57 101  71 100  79 101
M  END
> <Batch ID>
0180

> <Smiles>
CNC(C)C(=O)NC(C(=O)N1Cc2cc([101O:1][101CH2:1]Cn3cc4c(n3)C([100NH:0][100C:0](=O)N3CCCC(n5nc(-c6ccc(Oc7ccc(F)cc7F)cc6)c(C(N)=O)c5N)C3)CC4)ccc2CC1C(=O)NC1CCCc2ccccc21)C(C)(C)C

> <Shape>
0.209

> <Color>
0.073

> <Negative vol penalty>
0.000

$$$$

  -OEChem-04052323003D

 82 91  0     1  0  0  0  0  0999 V2000
  -18.5861  -26.0989   19.4119 C   0  0  0  0  0  0  0  0  0  0  0  0
  -19.6506  -26.7218   20.0555 C   0  0  0  0  0  0  0  0  0  0  0  0
  -25.6864  -16.8067   23.5079 C   0  0  0  0  0  0  0  0  0  0  0  0
  -26.1607  -18.3111   21.6779 C   0  0  0  0  0  0  0  0  0  0  0  0
  -18.6750  -24.7516   19.0645 C   0  0  0  0  0  0  0  0  0  0  0  0
  -20.8044  -25.9974   20.3531 C   0  0  0  0  0  0  0  0  0  0  0  0
  -25.0379  -28.5335   19.2174 C   0  0  0  0  0  0  0  0  0  0  0  0
  -24.9858  -30.3304   25.4573 C   0  0  0  0  0  0  0  0  0  0  0  0
  -25.2280  -15.8498   22.6025 C   0  0  0  0  0  0  0  0  0  0  0  0
  -25.7023  -17.3541   20.7725 C   0  0  0  0  0  0  0  0  0  0  0  0
  -25.4420  -29.5284   20.1065 C   0  0  0  0  0  0  0  0  0  0  0  0
  -24.2696  -12.8738   20.7477 C   0  0  0  0  0  0  0  0  0  0  0  0
  -24.6905  -11.5563   20.9280 C   0  0  0  0  0  0  0  0  0  0  0  0
  -25.0015  -29.3296   26.4225 C   0  0  0  0  0  0  0  0  0  0  0  0
  -27.0507  -28.0087   21.0665 C   0  0  0  0  0  0  0  0  0  0  0  0
  -26.9888  -12.2554   20.6710 C   0  0  0  0  0  0  0  0  0  0  0  0
  -27.2656  -29.8416   24.9881 C   0  0  0  0  0  0  0  0  0  0  0  0
  -26.1527  -18.0374   23.0456 C   0  0  0  0  0  0  0  0  0  0  0  0
  -27.9418  -19.1879   24.4539 C   0  0  0  0  0  0  0  0  0  0  0  0
  -26.1353  -30.5975   24.7221 C   0  0  0  0  0  0  0  0  0  0  0  0
  -19.8342  -24.0127   19.3493 C   0  0  0  0  0  0  0  0  0  0  0  0
  -25.6306  -27.2632   19.2534 C   0  0  0  0  0  0  0  0  0  0  0  0
  -20.9083  -24.6385   20.0104 C   0  0  0  0  0  0  0  0  0  0  0  0
  -26.6541  -27.0002   20.1750 C   0  0  0  0  0  0  0  0  0  0  0  0
  -25.2359  -16.1235   21.2348 C   0  0  0  0  0  0  0  0  0  0  0  0
  -26.4466  -29.2652   21.0332 C   0  0  0  0  0  0  0  0  0  0  0  0
  -25.2083  -13.8822   20.5290 C   0  0  0  0  0  0  0  0  0  0  0  0
  -26.0501  -11.2471   20.8897 C   0  0  0  0  0  0  0  0  0  0  0  0
  -26.5679  -13.5730   20.4907 C   0  0  0  0  0  0  0  0  0  0  0  0
  -26.6259  -19.0265   23.9804 C   0  0  0  0  0  0  0  0  0  0  0  0
  -26.1825  -28.6303   26.6123 C   0  0  0  0  0  0  0  0  0  0  0  0
  -27.8689  -20.2571   25.3129 C   0  0  0  0  0  0  0  0  0  0  0  0
  -29.1243  -18.4384   24.1447 C   0  0  0  0  0  0  0  0  0  0  0  0
  -24.5838  -24.3146   19.8141 C   0  0  0  0  0  0  0  0  0  0  0  0
  -27.6067  -23.4988   18.9661 C   0  0  0  0  0  0  0  0  0  0  0  0
  -30.8788  -24.4194   18.6619 C   0  0  0  0  0  0  0  0  0  0  0  0
  -26.2024  -25.3352   26.4527 C   0  0  0  0  0  0  0  0  0  0  0  0
  -19.8654  -22.5466   18.9968 C   0  0  0  0  0  0  0  0  0  0  0  0
  -25.2019  -26.2091   18.2698 C   0  0  0  0  0  0  0  0  0  0  0  0
  -27.3364  -25.6590   20.2411 C   0  0  0  0  0  0  0  0  0  0  0  0
  -21.2688  -21.9463   19.0120 C   0  0  0  0  0  0  0  0  0  0  0  0
  -23.8614  -22.6850   27.2184 C   0  0  0  0  0  0  0  0  0  0  0  0
  -22.0169  -22.3696   20.2721 C   0  0  0  0  0  0  0  0  0  0  0  0
  -24.4894  -21.5035   26.4772 C   0  0  0  0  0  0  0  0  0  0  0  0
  -27.1316  -32.8088   23.8504 C   0  0  0  0  0  0  0  0  0  0  0  0
  -25.6712  -33.0482   24.0739 C   0  0  0  0  0  0  0  0  0  0  0  0
  -24.0177  -23.9811   26.4279 C   0  0  0  0  0  0  0  0  0  0  0  0
  -26.0516  -23.1363   25.3244 C   0  0  0  0  0  0  0  0  0  0  0  0
  -22.1862  -23.8926   20.3279 C   0  0  1  0  0  0  0  0  0  0  0  0
  -25.5172  -24.7917   18.7376 C   0  0  1  0  0  0  0  0  0  0  0  0
  -25.9482  -21.8012   26.0836 C   0  0  2  0  0  0  0  0  0  0  0  0
  -26.1508  -31.6626   23.6803 C   0  0  0  0  0  0  0  0  0  0  0  0
  -33.1212  -23.5253   17.9767 C   0  0  0  0  0  0  0  0  0  0  0  0
  -27.7990  -21.9697   21.5995 C   0  0  0  0  0  0  0  0  0  0  0  0
  -30.2848  -21.9157   21.3062 C   0  0  0  0  0  0  0  0  0  0  0  0
  -28.8090  -20.7961   19.6355 C   0  0  0  0  0  0  0  0  0  0  0  0
  -31.1392  -26.4127   16.4898 C   0  0  0  0  0  0  0  0  0  0  0  0
  -26.2353  -27.5484   27.6389 C   0  0  0  0  0  0  0  0  0  0  0  0
  -25.8624  -31.1943   22.2955 C   0  0  0  0  0  0  0  0  0  1  0  0
  -28.9126  -23.3213   19.7024 C   0  0  1  0  0  0  0  0  0  0  0  0
  -31.8687  -24.2585   17.5223 C   0  0  2  0  0  0  0  0  0  0  0  0
  -28.9373  -22.0255   20.5612 C   0  0  0  0  0  0  0  0  0  0  0  0
  -27.3190  -28.8614   25.9176 N   0  0  0  0  0  0  0  0  0  0  0  0
  -25.7790  -19.9214   24.4960 N   0  0  0  0  0  0  0  0  0  0  0  0
  -26.5645  -20.6554   25.3024 N   0  0  0  0  0  0  0  0  0  0  0  0
  -26.8778  -24.6592   19.2626 N   0  0  0  0  0  0  0  0  0  0  0  0
  -25.4318  -24.2153   26.1016 N   0  0  0  0  0  0  0  0  0  0  0  0
  -28.7940  -20.8860   26.0686 N   0  0  0  0  0  0  0  0  0  0  0  0
  -29.0220  -17.3712   23.2420 N   0  0  0  0  0  0  0  0  0  0  0  0
  -23.2522  -24.3154   19.4451 N   0  0  0  0  0  0  0  0  0  0  0  0
  -29.9631  -23.3890   18.6923 N   0  0  0  0  0  0  0  0  0  0  0  0
  -25.5516  -26.3172   27.1919 N   0  0  0  0  0  0  0  0  0  0  0  0
  -32.2709  -25.5924   16.9933 N   0  3  0  0  0  0  0  0  0  0  0  0
  -30.2354  -18.6967   24.6666 O   0  0  0  0  0  0  0  0  0  0  0  0
  -25.0383  -23.9700   20.8987 O   0  0  0  0  0  0  0  0  0  0  0  0
  -27.2501  -22.6430   18.1524 O   0  0  0  0  0  0  0  0  0  0  0  0
  -30.9165  -25.3628   19.4488 O   0  0  0  0  0  0  0  0  0  0  0  0
  -27.3915  -25.4561   26.1378 O   0  0  0  0  0  0  0  0  0  0  0  0
  -24.7889  -15.1899   20.3510 O   0  0  0  0  0  0  0  0  0  0  0  0
  -26.8425  -30.2343   21.9026 O   0  0  0  0  0  0  0  0  0  1  0  0
  -26.4543   -9.9820   21.0644 F   0  0  0  0  0  0  0  0  0  0  0  0
  -27.4745  -14.5376   20.2822 F   0  0  0  0  0  0  0  0  0  0  0  0
  1  2  1  0  0  0  0
  1  5  2  0  0  0  0
  2  6  2  0  0  0  0
  3  9  2  0  0  0  0
  3 18  1  0  0  0  0
  4 10  1  0  0  0  0
  4 18  2  0  0  0  0
  5 21  1  0  0  0  0
  6 23  1  0  0  0  0
  7 11  2  0  0  0  0
  7 22  1  0  0  0  0
  8 14  2  0  0  0  0
  8 20  1  0  0  0  0
  9 25  1  0  0  0  0
 10 25  2  0  0  0  0
 11 26  1  0  0  0  0
 12 13  2  0  0  0  0
 12 27  1  0  0  0  0
 13 28  1  0  0  0  0
 14 31  1  0  0  0  0
 15 24  1  0  0  0  0
 15 26  2  0  0  0  0
 16 28  2  0  0  0  0
 16 29  1  0  0  0  0
 17 20  2  0  0  0  0
 17 63  1  0  0  0  0
 18 30  1  0  0  0  0
 19 30  1  0  0  0  0
 19 32  2  0  0  0  0
 19 33  1  0  0  0  0
 20 52  1  0  0  0  0
 21 23  2  0  0  0  0
 21 38  1  0  0  0  0
 22 24  2  0  0  0  0
 22 39  1  0  0  0  0
 23 49  1  0  0  0  0
 24 40  1  0  0  0  0
 25 79  1  0  0  0  0
 26 80  1  0  0  0  0
 27 29  2  0  0  0  0
 27 79  1  0  0  0  0
 28 81  1  0  0  0  0
 29 82  1  0  0  0  0
 30 64  2  0  0  0  0
 31 58  1  0  0  0  0
 31 63  2  0  0  0  0
 32 65  1  0  0  0  0
 32 68  1  0  0  0  0
 33 69  1  0  0  0  0
 33 74  2  0  0  0  0
 34 50  1  0  0  0  0
 34 70  1  0  0  0  0
 34 75  2  0  0  0  0
 35 60  1  0  0  0  0
 35 66  1  0  0  0  0
 35 76  2  0  0  0  0
 36 61  1  0  0  0  0
 36 71  1  0  0  0  0
 36 77  2  0  0  0  0
 37 67  1  0  0  0  0
 37 72  1  0  0  0  0
 37 78  2  0  0  0  0
 38 41  1  0  0  0  0
 39 50  1  0  0  0  0
 40 66  1  0  0  0  0
 41 43  1  0  0  0  0
 42 44  1  0  0  0  0
 42 47  1  0  0  0  0
 43 49  1  0  0  0  0
 44 51  1  0  0  0  0
 45 46  1  0  0  0  0
 45 52  1  0  0  0  0
 46 52  1  0  0  0  0
 47 67  1  0  0  0  0
 48 51  1  0  0  0  0
 48 67  1  0  0  0  0
 49 70  1  0  0  0  0
 50 66  1  0  0  0  0
 51 65  1  0  0  0  0
 52 59  1  0  0  0  0
 53 61  1  0  0  0  0
 54 62  1  0  0  0  0
 55 62  1  0  0  0  0
 56 62  1  0  0  0  0
 57 73  1  0  0  0  0
 58 72  1  0  0  0  0
 59 80  1  0  0  0  0
 60 62  1  0  0  0  0
 60 71  1  0  0  0  0
 61 73  1  0  0  0  0
 64 65  1  0  0  0  0
M  CHG  1  73   1
M  ISO  4  37 100  59 101  72 100  80 101
M  END
> <Batch ID>
0180

> <Smiles>
CNC(C)C(=O)NC(C(=O)N1Cc2cc([101O:1][101CH2:1]C3(c4ccc(C[100NH:0][100C:0](=O)N5CCCC(n6nc(-c7ccc(Oc8ccc(F)cc8F)cc7)c(C(N)=O)c6N)C5)nc4)CC3)ccc2CC1C(=O)NC1CCCc2ccccc21)C(C)(C)C

> <Shape>
0.201

> <Color>
0.069

> <Negative vol penalty>
0.000

$$$$

  -OEChem-04052323003D

 87 96  0     1  0  0  0  0  0999 V2000
  -21.5967   -5.9858   20.7838 C   0  0  0  0  0  0  0  0  0  0  0  0
  -21.9051   -7.0240   21.6571 C   0  0  0  0  0  0  0  0  0  0  0  0
  -25.4907  -31.2060   24.1280 C   0  0  0  0  0  0  0  0  0  0  0  0
  -25.7762  -28.8566   24.6141 C   0  0  0  0  0  0  0  0  0  0  0  0
  -22.4995   -5.6260   19.7841 C   0  0  0  0  0  0  0  0  0  0  0  0
  -23.1170   -7.7022   21.5317 C   0  0  0  0  0  0  0  0  0  0  0  0
  -22.5776  -12.7252   21.8836 C   0  0  0  0  0  0  0  0  0  0  0  0
  -26.4403  -31.5224   25.0994 C   0  0  0  0  0  0  0  0  0  0  0  0
  -26.7258  -29.1730   25.5855 C   0  0  0  0  0  0  0  0  0  0  0  0
  -22.4184  -13.2605   23.1610 C   0  0  0  0  0  0  0  0  0  0  0  0
  -29.8099  -31.5291   25.3800 C   0  0  0  0  0  0  0  0  0  0  0  0
  -30.7806  -32.4760   25.0534 C   0  0  0  0  0  0  0  0  0  0  0  0
  -24.7496  -13.8807   23.1851 C   0  0  0  0  0  0  0  0  0  0  0  0
  -30.0265  -33.8762   26.8722 C   0  0  0  0  0  0  0  0  0  0  0  0
  -21.5241  -21.0494   23.8419 C   0  0  0  0  0  0  0  0  0  0  0  0
  -25.1586  -29.8731   23.8853 C   0  0  0  0  0  0  0  0  0  0  0  0
  -24.2340  -29.8449   21.5079 C   0  0  0  0  0  0  0  0  0  0  0  0
  -23.7188   -6.3065   19.6403 C   0  0  0  0  0  0  0  0  0  0  0  0
  -23.8286  -12.7538   21.2506 C   0  0  0  0  0  0  0  0  0  0  0  0
  -24.0375   -7.3503   20.5299 C   0  0  0  0  0  0  0  0  0  0  0  0
  -24.9214  -13.3473   21.8985 C   0  0  0  0  0  0  0  0  0  0  0  0
  -27.0579  -30.5059   25.8282 C   0  0  0  0  0  0  0  0  0  0  0  0
  -23.5051  -13.8358   23.8131 C   0  0  0  0  0  0  0  0  0  0  0  0
  -28.9474  -31.7558   26.4526 C   0  0  0  0  0  0  0  0  0  0  0  0
  -30.8889  -33.6496   25.7995 C   0  0  0  0  0  0  0  0  0  0  0  0
  -29.0558  -32.9293   27.1987 C   0  0  0  0  0  0  0  0  0  0  0  0
  -24.1773  -29.5456   22.8824 C   0  0  0  0  0  0  0  0  0  0  0  0
  -22.6794  -20.4184   24.2558 C   0  0  0  0  0  0  0  0  0  0  0  0
  -21.6794  -21.9764   22.8315 C   0  0  0  0  0  0  0  0  0  0  0  0
  -23.0711  -29.3244   20.9950 C   0  0  0  0  0  0  0  0  0  0  0  0
  -23.9180  -21.5898   22.7522 C   0  0  0  0  0  0  0  0  0  0  0  0
  -25.2473  -30.5319   20.7617 C   0  0  0  0  0  0  0  0  0  0  0  0
  -25.8571  -10.5482   20.1904 C   0  0  0  0  0  0  0  0  0  0  0  0
  -27.4515  -13.1277   19.0387 C   0  0  0  0  0  0  0  0  0  0  0  0
  -28.2909  -16.4389   20.2001 C   0  0  0  0  0  0  0  0  0  0  0  0
  -19.4415  -24.9111   22.7839 C   0  0  0  0  0  0  0  0  0  0  0  0
  -24.6833   -5.8506   18.5742 C   0  0  0  0  0  0  0  0  0  0  0  0
  -23.9776  -12.1961   19.8617 C   0  0  0  0  0  0  0  0  0  0  0  0
  -26.2807  -13.4214   21.2542 C   0  0  0  0  0  0  0  0  0  0  0  0
  -25.7824   -6.8661   18.2726 C   0  0  0  0  0  0  0  0  0  0  0  0
  -18.5587  -28.3145   22.2236 C   0  0  0  0  0  0  0  0  0  0  0  0
  -26.3864   -7.3995   19.5677 C   0  0  0  0  0  0  0  0  0  0  0  0
  -19.9037  -29.0430   22.2049 C   0  0  0  0  0  0  0  0  0  0  0  0
  -23.8759  -19.2836   26.2045 C   0  0  0  0  0  0  0  0  0  0  0  0
  -18.5478  -27.1757   23.2410 C   0  0  0  0  0  0  0  0  0  0  0  0
  -20.9951  -26.9349   23.0788 C   0  0  0  0  0  0  0  0  0  0  0  0
  -23.6678  -17.9778   26.9427 C   0  0  0  0  0  0  0  0  0  0  0  0
  -22.3787  -17.9572   24.8629 C   0  0  0  0  0  0  0  0  0  0  0  0
  -25.3312   -8.1262   20.4103 C   0  0  1  0  0  0  0  0  0  0  0  0
  -22.6104  -19.3876   25.3558 C   0  0  2  0  0  0  0  0  0  0  0  0
  -25.4158  -11.8187   19.5205 C   0  0  1  0  0  0  0  0  0  0  0  0
  -21.0734  -28.0561   22.0285 C   0  0  2  0  0  0  0  0  0  0  0  0
  -25.2466  -21.8877   22.1441 C   0  0  0  0  0  0  0  0  0  0  0  0
  -20.2351  -22.4626   20.8217 C   0  0  0  0  0  0  0  0  0  0  0  0
  -28.7417  -18.5507   18.9218 C   0  0  0  0  0  0  0  0  0  0  0  0
  -30.3768  -12.2851   19.2449 C   0  0  0  0  0  0  0  0  0  0  0  0
  -30.9739  -14.6926   19.5849 C   0  0  0  0  0  0  0  0  0  0  0  0
  -29.8987  -13.9649   17.4549 C   0  0  0  0  0  0  0  0  0  0  0  0
  -26.2101  -17.9234   21.6918 C   0  0  0  0  0  0  0  0  0  0  0  0
  -22.2245  -15.9766   26.4356 C   0  0  0  0  0  0  0  0  0  0  0  0
  -22.0701  -14.8907   25.3892 C   0  0  0  0  0  0  0  0  0  1  0  0
  -20.4859  -22.7089   22.3163 C   0  0  2  0  0  0  0  0  0  0  0  0
  -28.5209  -14.0497   19.5730 C   0  0  1  0  0  0  0  0  0  0  0  0
  -27.7109  -17.7506   19.7028 C   0  0  2  0  0  0  0  0  0  0  0  0
  -29.9241  -13.7352   18.9817 C   0  0  0  0  0  0  0  0  0  0  0  0
  -23.0662  -28.8863   23.2211 N   0  0  0  0  0  0  0  0  0  0  0  0
  -23.8976  -20.6651   23.7310 N   0  0  0  0  0  0  0  0  0  0  0  0
  -22.8659  -22.2726   22.2617 N   0  0  0  0  0  0  0  0  0  0  0  0
  -22.4139  -28.7670   22.0522 N   0  0  0  0  0  0  0  0  0  0  0  0
  -26.3773  -12.8567   19.8980 N   0  0  0  0  0  0  0  0  0  0  0  0
  -19.6814  -26.2752   23.0179 N   0  0  0  0  0  0  0  0  0  0  0  0
  -22.5567  -29.2938   19.7472 N   0  0  0  0  0  0  0  0  0  0  0  0
  -26.3774  -31.0014   21.4448 N   0  0  0  0  0  0  0  0  0  0  0  0
  -25.0815   -9.4483   19.8771 N   0  0  0  0  0  0  0  0  0  0  0  0
  -28.0547  -15.4079   19.3155 N   0  0  0  0  0  0  0  0  0  0  0  0
  -20.5709  -24.1288   22.5758 N   0  0  0  0  0  0  0  0  0  0  0  0
  -23.0761  -17.0746   25.8853 N   0  3  2  0  0  0  0  0  0  0  0  0
  -27.2442  -18.5788   20.8504 N   0  3  0  0  0  0  0  0  0  0  0  0
  -25.1457  -30.7380   19.5285 O   0  0  0  0  0  0  0  0  0  0  0  0
  -26.8301  -10.5643   20.9352 O   0  0  0  0  0  0  0  0  0  0  0  0
  -27.5616  -12.6707   17.8982 O   0  0  0  0  0  0  0  0  0  0  0  0
  -28.8965  -16.3395   21.2650 O   0  0  0  0  0  0  0  0  0  0  0  0
  -18.3048  -24.4273   22.7568 O   0  0  0  0  0  0  0  0  0  0  0  0
  -27.9848  -30.8143   26.7760 O   0  0  0  0  0  0  0  0  0  0  0  0
  -23.3527  -14.3585   25.0603 O   0  0  0  0  0  0  0  0  0  1  0  0
  -31.8222  -34.5581   25.4868 F   0  0  0  0  0  0  0  0  0  0  0  0
  -28.2308  -33.1521   28.2310 F   0  0  0  0  0  0  0  0  0  0  0  0
  1  2  1  0  0  0  0
  1  5  2  0  0  0  0
  2  6  2  0  0  0  0
  3  8  2  0  0  0  0
  3 16  1  0  0  0  0
  4  9  1  0  0  0  0
  4 16  2  0  0  0  0
  5 18  1  0  0  0  0
  6 20  1  0  0  0  0
  7 10  2  0  0  0  0
  7 19  1  0  0  0  0
  8 22  1  0  0  0  0
  9 22  2  0  0  0  0
 10 23  1  0  0  0  0
 11 12  2  0  0  0  0
 11 24  1  0  0  0  0
 12 25  1  0  0  0  0
 13 21  1  0  0  0  0
 13 23  2  0  0  0  0
 14 25  2  0  0  0  0
 14 26  1  0  0  0  0
 15 28  1  0  0  0  0
 15 29  2  0  0  0  0
 16 27  1  0  0  0  0
 17 27  1  0  0  0  0
 17 30  2  0  0  0  0
 17 32  1  0  0  0  0
 18 20  2  0  0  0  0
 18 37  1  0  0  0  0
 19 21  2  0  0  0  0
 19 38  1  0  0  0  0
 20 49  1  0  0  0  0
 21 39  1  0  0  0  0
 22 84  1  0  0  0  0
 23 85  1  0  0  0  0
 24 26  2  0  0  0  0
 24 84  1  0  0  0  0
 25 86  1  0  0  0  0
 26 87  1  0  0  0  0
 27 66  2  0  0  0  0
 28 50  1  0  0  0  0
 28 67  2  0  0  0  0
 29 62  1  0  0  0  0
 29 68  1  0  0  0  0
 30 69  1  0  0  0  0
 30 72  1  0  0  0  0
 31 53  1  0  0  0  0
 31 67  1  0  0  0  0
 31 68  2  0  0  0  0
 32 73  1  0  0  0  0
 32 79  2  0  0  0  0
 33 51  1  0  0  0  0
 33 74  1  0  0  0  0
 33 80  2  0  0  0  0
 34 63  1  0  0  0  0
 34 70  1  0  0  0  0
 34 81  2  0  0  0  0
 35 64  1  0  0  0  0
 35 75  1  0  0  0  0
 35 82  2  0  0  0  0
 36 71  1  0  0  0  0
 36 76  1  0  0  0  0
 36 83  2  0  0  0  0
 37 40  1  0  0  0  0
 38 51  1  0  0  0  0
 39 70  1  0  0  0  0
 40 42  1  0  0  0  0
 41 43  1  0  0  0  0
 41 45  1  0  0  0  0
 42 49  1  0  0  0  0
 43 52  1  0  0  0  0
 44 47  1  0  0  0  0
 44 50  1  0  0  0  0
 45 71  1  0  0  0  0
 46 52  1  0  0  0  0
 46 71  1  0  0  0  0
 47 77  1  0  0  0  0
 48 50  1  0  0  0  0
 48 77  1  0  0  0  0
 49 74  1  0  0  0  0
 51 70  1  0  0  0  0
 52 69  1  0  0  0  0
 54 62  1  0  0  0  0
 55 64  1  0  0  0  0
 56 65  1  0  0  0  0
 57 65  1  0  0  0  0
 58 65  1  0  0  0  0
 59 78  1  0  0  0  0
 60 61  1  0  0  0  0
 60 77  1  0  0  0  0
 61 85  1  0  0  0  0
 62 76  1  0  0  0  0
 63 65  1  0  0  0  0
 63 75  1  0  0  0  0
 64 78  1  0  0  0  0
 66 69  1  0  0  0  0
M  CHG  2  77   1  78   1
M  ISO  4  36 100  61 101  76 100  85 101
M  END
> <Batch ID>
0180

> <Smiles>
CNC(C)C(=O)NC(C(=O)N1Cc2cc([101O:1][101CH2:1]CN3CCC(c4cc(C(C)[100NH:0][100C:0](=O)N5CCCC(n6nc(-c7ccc(Oc8ccc(F)cc8F)cc7)c(C(N)=O)c6N)C5)nc(C)n4)C3)ccc2CC1C(=O)NC1CCCc2ccccc21)C(C)(C)C

> <Shape>
0.238

> <Color>
0.050

> <Negative vol penalty>
0.000

$$$$

  -OEChem-04052323003D

 81 89  0     1  0  0  0  0  0999 V2000
  -24.1850  -30.0655   26.7020 C   0  0  0  0  0  0  0  0  0  0  0  0
  -25.2707  -29.1957   26.6916 C   0  0  0  0  0  0  0  0  0  0  0  0
  -22.9990   -9.8920   19.9847 C   0  0  0  0  0  0  0  0  0  0  0  0
  -23.7219   -9.9506   22.2893 C   0  0  0  0  0  0  0  0  0  0  0  0
  -23.2649  -30.0426   25.6548 C   0  0  0  0  0  0  0  0  0  0  0  0
  -25.4363  -28.3017   25.6343 C   0  0  0  0  0  0  0  0  0  0  0  0
  -30.7315  -26.4115   23.2066 C   0  0  0  0  0  0  0  0  0  0  0  0
  -22.2322   -8.7584   20.2540 C   0  0  0  0  0  0  0  0  0  0  0  0
  -22.9551   -8.8169   22.5586 C   0  0  0  0  0  0  0  0  0  0  0  0
  -31.4909  -25.2575   23.3952 C   0  0  0  0  0  0  0  0  0  0  0  0
  -23.2001   -5.4765   22.0979 C   0  0  0  0  0  0  0  0  0  0  0  0
  -23.7870   -4.4618   22.8539 C   0  0  0  0  0  0  0  0  0  0  0  0
  -30.4567  -24.2670   21.4538 C   0  0  0  0  0  0  0  0  0  0  0  0
  -29.7589  -17.7012   22.6580 C   0  0  0  0  0  0  0  0  0  0  0  0
  -22.0615   -4.7101   24.5266 C   0  0  0  0  0  0  0  0  0  0  0  0
  -23.7438  -10.4881   21.0023 C   0  0  0  0  0  0  0  0  0  0  0  0
  -24.1292  -13.0031   20.8185 C   0  0  0  0  0  0  0  0  0  0  0  0
  -23.4246  -29.1546   24.5793 C   0  0  0  0  0  0  0  0  0  0  0  0
  -29.8196  -26.4978   22.1448 C   0  0  0  0  0  0  0  0  0  0  0  0
  -24.5167  -28.2661   24.5723 C   0  0  0  0  0  0  0  0  0  0  0  0
  -29.6889  -25.4242   21.2525 C   0  0  0  0  0  0  0  0  0  0  0  0
  -30.2470  -18.9390   23.0617 C   0  0  0  0  0  0  0  0  0  0  0  0
  -31.5229  -19.3359   22.6775 C   0  0  0  0  0  0  0  0  0  0  0  0
  -22.2103   -8.2208   21.5410 C   0  0  0  0  0  0  0  0  0  0  0  0
  -31.3514  -24.1840   22.5204 C   0  0  0  0  0  0  0  0  0  0  0  0
  -22.0439   -6.1081   22.5563 C   0  0  0  0  0  0  0  0  0  0  0  0
  -23.2177   -4.0786   24.0682 C   0  0  0  0  0  0  0  0  0  0  0  0
  -21.4746   -5.7248   23.7706 C   0  0  0  0  0  0  0  0  0  0  0  0
  -24.5365  -11.6589   20.7246 C   0  0  0  0  0  0  0  0  0  0  0  0
  -32.2650  -18.4654   21.8956 C   0  0  0  0  0  0  0  0  0  0  0  0
  -30.5798  -16.9040   21.8768 C   0  0  0  0  0  0  0  0  0  0  0  0
  -25.2393  -13.7246   20.4528 C   0  0  0  0  0  0  0  0  0  0  0  0
  -22.8608  -13.5507   21.2020 C   0  0  0  0  0  0  0  0  0  0  0  0
  -26.6705  -26.8651   21.9169 C   0  0  0  0  0  0  0  0  0  0  0  0
  -27.3159  -27.0696   18.7445 C   0  0  0  0  0  0  0  0  0  0  0  0
  -29.4199  -26.3269   16.1622 C   0  0  0  0  0  0  0  0  0  0  0  0
  -30.7185  -14.6868   20.6889 C   0  0  0  0  0  0  0  0  0  0  0  0
  -22.3781  -29.1340   23.4934 C   0  0  0  0  0  0  0  0  0  0  0  0
  -29.0274  -27.7598   21.9394 C   0  0  0  0  0  0  0  0  0  0  0  0
  -28.7386  -25.4745   20.0850 C   0  0  0  0  0  0  0  0  0  0  0  0
  -22.8307  -28.4151   22.2250 C   0  0  0  0  0  0  0  0  0  0  0  0
  -29.6026  -12.2262   18.3700 C   0  0  0  0  0  0  0  0  0  0  0  0
  -23.4918  -27.0850   22.5723 C   0  0  0  0  0  0  0  0  0  0  0  0
  -28.1516  -11.9698   18.7835 C   0  0  0  0  0  0  0  0  0  0  0  0
  -30.5019  -12.4736   19.5798 C   0  0  0  0  0  0  0  0  0  0  0  0
  -28.5852  -13.2667   20.9089 C   0  0  0  0  0  0  0  0  0  0  0  0
  -24.7442  -27.2989   23.4308 C   0  0  1  0  0  0  0  0  0  0  0  0
  -27.7550  -27.5410   21.1266 C   0  0  1  0  0  0  0  0  0  0  0  0
  -27.6287  -13.0764   19.7204 C   0  0  2  0  0  0  0  0  0  0  0  0
  -29.3858  -19.8204   23.9047 C   0  0  0  0  0  0  0  0  0  0  0  0
  -33.6428  -18.8375   21.4535 C   0  0  0  0  0  0  0  0  0  0  0  0
  -29.6610  -26.5932   13.6786 C   0  0  0  0  0  0  0  0  0  0  0  0
  -25.2534  -24.8633   18.3101 C   0  0  0  0  0  0  0  0  0  0  0  0
  -26.2068  -24.5187   16.0209 C   0  0  0  0  0  0  0  0  0  0  0  0
  -25.1772  -26.7092   16.6245 C   0  0  0  0  0  0  0  0  0  0  0  0
  -31.9198  -27.8837   16.4550 C   0  0  0  0  0  0  0  0  0  0  0  0
  -32.0794  -20.6741   23.0994 C   0  0  0  0  0  0  0  0  0  0  0  0
  -31.5126  -21.8241   22.2739 C   0  0  0  0  0  0  0  0  0  1  0  0
  -27.4196  -26.0805   17.6087 C   0  0  1  0  0  0  0  0  0  0  0  0
  -29.9822  -27.1841   15.0426 C   0  0  2  0  0  0  0  0  0  0  0  0
  -26.0308  -25.5409   17.1641 C   0  0  0  0  0  0  0  0  0  0  0  0
  -25.8062  -11.5311   20.3301 N   0  0  0  0  0  0  0  0  0  0  0  0
  -31.8248  -17.2554   21.4839 N   0  0  0  0  0  0  0  0  0  0  0  0
  -26.2062  -12.8044   20.1727 N   0  0  0  0  0  0  0  0  0  0  0  0
  -27.9816  -26.7277   19.9301 N   0  0  0  0  0  0  0  0  0  0  0  0
  -29.9460  -13.5373   20.4191 N   0  0  0  0  0  0  0  0  0  0  0  0
  -25.4728  -15.0500   20.3466 N   0  0  0  0  0  0  0  0  0  0  0  0
  -21.8288  -12.6677   21.5474 N   0  0  0  0  0  0  0  0  0  0  0  0
  -30.0734  -15.6445   21.4707 N   0  0  0  0  0  0  0  0  0  0  0  0
  -25.8517  -27.7371   22.6087 N   0  0  0  0  0  0  0  0  0  0  0  0
  -28.1667  -26.7513   16.5503 N   0  0  0  0  0  0  0  0  0  0  0  0
  -31.4629  -27.2958   15.1695 N   0  3  0  0  0  0  0  0  0  0  0  0
  -22.6440  -14.7861   21.2215 O   0  0  0  0  0  0  0  0  0  0  0  0
  -26.5820  -25.6430   21.8990 O   0  0  0  0  0  0  0  0  0  0  0  0
  -26.6740  -28.1105   18.5832 O   0  0  0  0  0  0  0  0  0  0  0  0
  -30.0298  -25.3737   16.6418 O   0  0  0  0  0  0  0  0  0  0  0  0
  -31.8576  -14.8243   20.2356 O   0  0  0  0  0  0  0  0  0  0  0  0
  -21.4620   -7.1148   21.8042 O   0  0  0  0  0  0  0  0  0  0  0  0
  -32.0909  -23.0562   22.7026 O   0  0  0  0  0  0  0  0  0  1  0  0
  -23.7805   -3.1031   24.7934 F   0  0  0  0  0  0  0  0  0  0  0  0
  -20.3633   -6.3271   24.2156 F   0  0  0  0  0  0  0  0  0  0  0  0
  1  2  1  0  0  0  0
  1  5  2  0  0  0  0
  2  6  2  0  0  0  0
  3  8  2  0  0  0  0
  3 16  1  0  0  0  0
  4  9  1  0  0  0  0
  4 16  2  0  0  0  0
  5 18  1  0  0  0  0
  6 20  1  0  0  0  0
  7 10  2  0  0  0  0
  7 19  1  0  0  0  0
  8 24  1  0  0  0  0
  9 24  2  0  0  0  0
 10 25  1  0  0  0  0
 11 12  2  0  0  0  0
 11 26  1  0  0  0  0
 12 27  1  0  0  0  0
 13 21  1  0  0  0  0
 13 25  2  0  0  0  0
 14 22  2  0  0  0  0
 14 31  1  0  0  0  0
 15 27  2  0  0  0  0
 15 28  1  0  0  0  0
 16 29  1  0  0  0  0
 17 29  1  0  0  0  0
 17 32  2  0  0  0  0
 17 33  1  0  0  0  0
 18 20  2  0  0  0  0
 18 38  1  0  0  0  0
 19 21  2  0  0  0  0
 19 39  1  0  0  0  0
 20 47  1  0  0  0  0
 21 40  1  0  0  0  0
 22 23  1  0  0  0  0
 22 50  1  0  0  0  0
 23 30  2  0  0  0  0
 23 57  1  0  0  0  0
 24 78  1  0  0  0  0
 25 79  1  0  0  0  0
 26 28  2  0  0  0  0
 26 78  1  0  0  0  0
 27 80  1  0  0  0  0
 28 81  1  0  0  0  0
 29 62  2  0  0  0  0
 30 51  1  0  0  0  0
 30 63  1  0  0  0  0
 31 63  2  0  0  0  0
 31 69  1  0  0  0  0
 32 64  1  0  0  0  0
 32 67  1  0  0  0  0
 33 68  1  0  0  0  0
 33 73  2  0  0  0  0
 34 48  1  0  0  0  0
 34 70  1  0  0  0  0
 34 74  2  0  0  0  0
 35 59  1  0  0  0  0
 35 65  1  0  0  0  0
 35 75  2  0  0  0  0
 36 60  1  0  0  0  0
 36 71  1  0  0  0  0
 36 76  2  0  0  0  0
 37 66  1  0  0  0  0
 37 69  1  0  0  0  0
 37 77  2  0  0  0  0
 38 41  1  0  0  0  0
 39 48  1  0  0  0  0
 40 65  1  0  0  0  0
 41 43  1  0  0  0  0
 42 44  1  0  0  0  0
 42 45  1  0  0  0  0
 43 47  1  0  0  0  0
 44 49  1  0  0  0  0
 45 66  1  0  0  0  0
 46 49  1  0  0  0  0
 46 66  1  0  0  0  0
 47 70  1  0  0  0  0
 48 65  1  0  0  0  0
 49 64  1  0  0  0  0
 52 60  1  0  0  0  0
 53 61  1  0  0  0  0
 54 61  1  0  0  0  0
 55 61  1  0  0  0  0
 56 72  1  0  0  0  0
 57 58  1  0  0  0  0
 58 79  1  0  0  0  0
 59 61  1  0  0  0  0
 59 71  1  0  0  0  0
 60 72  1  0  0  0  0
 62 64  1  0  0  0  0
M  CHG  1  72   1
M  ISO  4  37 100  58 101  69 100  79 101
M  END
> <Batch ID>
0180

> <Smiles>
CNC(C)C(=O)NC(C(=O)N1Cc2cc([101O:1][101CH2:1]Cc3c(C)cc([100NH:0][100C:0](=O)N4CCCC(n5nc(-c6ccc(Oc7ccc(F)cc7F)cc6)c(C(N)=O)c5N)C4)nc3C)ccc2CC1C(=O)NC1CCCc2ccccc21)C(C)(C)C

> <Shape>
0.252

> <Color>
0.202

> <Negative vol penalty>
0.000

$$$$

  -OEChem-04052323003D

 83 92  0     1  0  0  0  0  0999 V2000
  -25.3516  -37.3970   21.6041 C   0  0  0  0  0  0  0  0  0  0  0  0
  -26.1172  -36.2922   21.2451 C   0  0  0  0  0  0  0  0  0  0  0  0
  -24.3736   -9.4098   22.1566 C   0  0  0  0  0  0  0  0  0  0  0  0
  -24.1790   -8.9555   19.7917 C   0  0  0  0  0  0  0  0  0  0  0  0
  -24.3376  -37.2628   22.5515 C   0  0  0  0  0  0  0  0  0  0  0  0
  -25.8698  -35.0528   21.8343 C   0  0  0  0  0  0  0  0  0  0  0  0
  -26.3831  -29.5522   19.1912 C   0  0  0  0  0  0  0  0  0  0  0  0
  -23.2435   -8.6292   22.3995 C   0  0  0  0  0  0  0  0  0  0  0  0
  -23.0489   -8.1748   20.0346 C   0  0  0  0  0  0  0  0  0  0  0  0
  -27.3916  -28.5899   19.2163 C   0  0  0  0  0  0  0  0  0  0  0  0
  -20.6215   -6.4620   23.6816 C   0  0  0  0  0  0  0  0  0  0  0  0
  -20.6728   -5.5596   24.7439 C   0  0  0  0  0  0  0  0  0  0  0  0
  -26.2324  -27.4299   20.9856 C   0  0  0  0  0  0  0  0  0  0  0  0
  -22.5416   -4.4383   23.7012 C   0  0  0  0  0  0  0  0  0  0  0  0
  -28.5663  -24.3763   21.0607 C   0  0  0  0  0  0  0  0  0  0  0  0
  -26.9535  -24.7513   19.4129 C   0  0  0  0  0  0  0  0  0  0  0  0
  -24.8414   -9.5730   20.8526 C   0  0  0  0  0  0  0  0  0  0  0  0
  -27.3488   -9.9503   20.5730 C   0  0  0  0  0  0  0  0  0  0  0  0
  -24.0713  -36.0190   23.1454 C   0  0  0  0  0  0  0  0  0  0  0  0
  -25.2953  -29.4664   20.0720 C   0  0  0  0  0  0  0  0  0  0  0  0
  -24.8521  -34.9022   22.7915 C   0  0  0  0  0  0  0  0  0  0  0  0
  -25.2101  -28.3910   20.9679 C   0  0  0  0  0  0  0  0  0  0  0  0
  -22.5811   -8.0117   21.3386 C   0  0  0  0  0  0  0  0  0  0  0  0
  -27.3179  -27.5301   20.1156 C   0  0  0  0  0  0  0  0  0  0  0  0
  -21.5302   -6.3525   22.6289 C   0  0  0  0  0  0  0  0  0  0  0  0
  -27.9581  -25.2708   20.2039 C   0  0  0  0  0  0  0  0  0  1  0  0
  -21.6328   -4.5478   24.7538 C   0  0  0  0  0  0  0  0  0  0  0  0
  -22.4902   -5.3407   22.6388 C   0  0  0  0  0  0  0  0  0  0  0  0
  -26.0084  -10.3797   20.6009 C   0  0  0  0  0  0  0  0  0  0  0  0
  -28.0677  -11.0870   20.2946 C   0  0  0  0  0  0  0  0  0  0  0  0
  -27.2343  -22.6879   20.3244 C   0  0  0  0  0  0  0  0  0  0  0  0
  -27.8951   -8.6410   20.7800 C   0  0  0  0  0  0  0  0  0  0  0  0
  -26.8394  -21.2785   20.3901 C   0  0  0  0  0  0  0  0  0  0  0  0
  -24.1485  -31.2954   22.4051 C   0  0  0  0  0  0  0  0  0  0  0  0
  -21.7373  -29.1256   22.3920 C   0  0  0  0  0  0  0  0  0  0  0  0
  -20.6895  -25.9632   21.6515 C   0  0  0  0  0  0  0  0  0  0  0  0
  -26.5146  -16.8557   21.2206 C   0  0  0  0  0  0  0  0  0  0  0  0
  -22.9958  -35.9333   24.1994 C   0  0  0  0  0  0  0  0  0  0  0  0
  -24.2021  -30.4979   20.0140 C   0  0  0  0  0  0  0  0  0  0  0  0
  -24.0530  -28.2422   21.9204 C   0  0  0  0  0  0  0  0  0  0  0  0
  -22.5511  -34.5044   24.5009 C   0  0  0  0  0  0  0  0  0  0  0  0
  -27.7050  -15.3032   18.0678 C   0  0  0  0  0  0  0  0  0  0  0  0
  -23.7624  -33.5937   24.6746 C   0  0  0  0  0  0  0  0  0  0  0  0
  -27.4749  -13.8195   18.3587 C   0  0  0  0  0  0  0  0  0  0  0  0
  -28.7681  -19.7155   20.7064 C   0  0  0  0  0  0  0  0  0  0  0  0
  -26.6812  -16.1662   18.7938 C   0  0  0  0  0  0  0  0  0  0  0  0
  -28.1664  -18.4554   20.0958 C   0  0  0  0  0  0  0  0  0  0  0  0
  -26.7001  -19.2510   21.8268 C   0  0  0  0  0  0  0  0  0  0  0  0
  -26.4077  -14.4776   20.5688 C   0  0  0  0  0  0  0  0  0  0  0  0
  -24.5978  -33.5357   23.3900 C   0  0  1  0  0  0  0  0  0  0  0  0
  -27.5761  -20.4064   21.3619 C   0  0  2  0  0  0  0  0  0  0  0  0
  -23.4001  -30.5920   21.3084 C   0  0  1  0  0  0  0  0  0  0  0  0
  -27.4209  -13.5510   19.8737 C   0  0  1  0  0  0  0  0  0  0  0  0
  -18.6758  -24.4721   21.7898 C   0  0  0  0  0  0  0  0  0  0  0  0
  -22.2111  -28.7673   25.3848 C   0  0  0  0  0  0  0  0  0  0  0  0
  -20.8786  -26.6507   25.2716 C   0  0  0  0  0  0  0  0  0  0  0  0
  -19.8038  -28.8306   24.7100 C   0  0  0  0  0  0  0  0  0  0  0  0
  -20.5948  -25.6240   18.7130 C   0  0  0  0  0  0  0  0  0  0  0  0
  -21.4706  -27.8193   23.1003 C   0  0  1  0  0  0  0  0  0  0  0  0
  -19.4552  -25.4542   20.9291 C   0  0  2  0  0  0  0  0  0  0  0  0
  -21.1140  -28.0206   24.6002 C   0  0  0  0  0  0  0  0  0  0  0  0
  -28.2283  -23.0730   21.1473 N   0  0  0  0  0  0  0  0  0  0  0  0
  -26.5645  -23.4599   19.4473 N   0  0  0  0  0  0  0  0  0  0  0  0
  -25.8807  -11.6872   20.3597 N   0  0  0  0  0  0  0  0  0  0  0  0
  -27.1501  -12.0892   20.1776 N   0  0  0  0  0  0  0  0  0  0  0  0
  -23.0124  -29.2797   21.8297 N   0  0  0  0  0  0  0  0  0  0  0  0
  -26.6688  -15.8783   20.2308 N   0  0  0  0  0  0  0  0  0  0  0  0
  -27.0382  -18.1226   20.9634 N   0  0  0  0  0  0  0  0  0  0  0  0
  -29.3891  -11.3170   20.1410 N   0  0  0  0  0  0  0  0  0  0  0  0
  -27.0149   -7.5857   21.0559 N   0  0  0  0  0  0  0  0  0  0  0  0
  -23.9707  -32.6657   22.4182 N   0  0  0  0  0  0  0  0  0  0  0  0
  -20.4378  -27.1389   22.3266 N   0  0  0  0  0  0  0  0  0  0  0  0
  -19.8416  -24.7670   19.6645 N   0  3  0  0  0  0  0  0  0  0  0  0
  -29.1286   -8.4166   20.7383 O   0  0  0  0  0  0  0  0  0  0  0  0
  -25.9576  -20.7704   19.7053 O   0  0  0  0  0  0  0  0  0  0  0  0
  -24.8351  -30.6431   23.1827 O   0  0  0  0  0  0  0  0  0  0  0  0
  -20.8446  -29.9749   22.3334 O   0  0  0  0  0  0  0  0  0  0  0  0
  -21.7680  -25.3745   21.6231 O   0  0  0  0  0  0  0  0  0  0  0  0
  -25.9776  -16.5946   22.3053 O   0  0  0  0  0  0  0  0  0  0  0  0
  -21.4785   -7.2497   21.5753 O   0  0  0  0  0  0  0  0  0  0  0  0
  -28.3221  -26.5699   20.1432 O   0  0  0  0  0  0  0  0  0  1  0  0
  -21.6829   -3.6823   25.7748 F   0  0  0  0  0  0  0  0  0  0  0  0
  -23.3666   -5.2312   21.6310 F   0  0  0  0  0  0  0  0  0  0  0  0
  1  2  1  0  0  0  0
  1  5  2  0  0  0  0
  2  6  2  0  0  0  0
  3  8  2  0  0  0  0
  3 17  1  0  0  0  0
  4  9  1  0  0  0  0
  4 17  2  0  0  0  0
  5 19  1  0  0  0  0
  6 21  1  0  0  0  0
  7 10  2  0  0  0  0
  7 20  1  0  0  0  0
  8 23  1  0  0  0  0
  9 23  2  0  0  0  0
 10 24  1  0  0  0  0
 11 12  2  0  0  0  0
 11 25  1  0  0  0  0
 12 27  1  0  0  0  0
 13 22  1  0  0  0  0
 13 24  2  0  0  0  0
 14 27  2  0  0  0  0
 14 28  1  0  0  0  0
 15 26  1  0  0  0  0
 15 62  2  0  0  0  0
 16 26  2  0  0  0  0
 16 63  1  0  0  0  0
 17 29  1  0  0  0  0
 18 29  1  0  0  0  0
 18 30  2  0  0  0  0
 18 32  1  0  0  0  0
 19 21  2  0  0  0  0
 19 38  1  0  0  0  0
 20 22  2  0  0  0  0
 20 39  1  0  0  0  0
 21 50  1  0  0  0  0
 22 40  1  0  0  0  0
 23 80  1  0  0  0  0
 24 81  1  0  0  0  0
 25 28  2  0  0  0  0
 25 80  1  0  0  0  0
 26 81  1  0  0  0  0
 27 82  1  0  0  0  0
 28 83  1  0  0  0  0
 29 64  2  0  0  0  0
 30 65  1  0  0  0  0
 30 69  1  0  0  0  0
 31 33  1  0  0  0  0
 31 62  1  0  0  0  0
 31 63  2  0  0  0  0
 32 70  1  0  0  0  0
 32 74  2  0  0  0  0
 33 51  1  0  0  0  0
 33 75  2  0  0  0  0
 34 52  1  0  0  0  0
 34 71  1  0  0  0  0
 34 76  2  0  0  0  0
 35 59  1  0  0  0  0
 35 66  1  0  0  0  0
 35 77  2  0  0  0  0
 36 60  1  0  0  0  0
 36 72  1  0  0  0  0
 36 78  2  0  0  0  0
 37 67  1  0  0  0  0
 37 68  1  0  0  0  0
 37 79  2  0  0  0  0
 38 41  1  0  0  0  0
 39 52  1  0  0  0  0
 40 66  1  0  0  0  0
 41 43  1  0  0  0  0
 42 44  1  0  0  0  0
 42 46  1  0  0  0  0
 43 50  1  0  0  0  0
 44 53  1  0  0  0  0
 45 47  1  0  0  0  0
 45 51  1  0  0  0  0
 46 67  1  0  0  0  0
 47 68  1  0  0  0  0
 48 51  1  0  0  0  0
 48 68  1  0  0  0  0
 49 53  1  0  0  0  0
 49 67  1  0  0  0  0
 50 71  1  0  0  0  0
 52 66  1  0  0  0  0
 53 65  1  0  0  0  0
 54 60  1  0  0  0  0
 55 61  1  0  0  0  0
 56 61  1  0  0  0  0
 57 61  1  0  0  0  0
 58 73  1  0  0  0  0
 59 61  1  0  0  0  0
 59 72  1  0  0  0  0
 60 73  1  0  0  0  0
 64 65  1  0  0  0  0
M  CHG  1  73   1
M  ISO  4  26 101  37 100  68 100  81 101
M  END
> <Batch ID>
0180

> <Smiles>
CNC(C)C(=O)NC(C(=O)N1Cc2cc([101O:1][101c:1]3cnc(C(=O)C4CC[100N:0]([100C:0](=O)N5CCCC(n6nc(-c7ccc(Oc8ccc(F)cc8F)cc7)c(C(N)=O)c6N)C5)C4)nc3)ccc2CC1C(=O)NC1CCCc2ccccc21)C(C)(C)C

> <Shape>
0.303

> <Color>
0.110

> <Negative vol penalty>
0.000

$$$$

  -OEChem-04052323003D

 85 94  0     1  0  0  0  0  0999 V2000
  -28.3053  -37.4371   20.3909 C   0  0  0  0  0  0  0  0  0  0  0  0
  -28.7098  -36.1223   20.1835 C   0  0  0  0  0  0  0  0  0  0  0  0
  -24.2341   -9.4432   21.4739 C   0  0  0  0  0  0  0  0  0  0  0  0
  -23.7905   -8.6464   19.2366 C   0  0  0  0  0  0  0  0  0  0  0  0
  -27.3350  -37.7237   21.3502 C   0  0  0  0  0  0  0  0  0  0  0  0
  -28.1449  -35.0933   20.9362 C   0  0  0  0  0  0  0  0  0  0  0  0
  -26.9642  -29.3831   19.0640 C   0  0  0  0  0  0  0  0  0  0  0  0
  -23.1941   -8.6520   21.9619 C   0  0  0  0  0  0  0  0  0  0  0  0
  -22.7505   -7.8552   19.7246 C   0  0  0  0  0  0  0  0  0  0  0  0
  -27.6578  -28.1834   19.2172 C   0  0  0  0  0  0  0  0  0  0  0  0
  -22.6910   -5.3993   22.7362 C   0  0  0  0  0  0  0  0  0  0  0  0
  -22.9283   -4.6589   23.8943 C   0  0  0  0  0  0  0  0  0  0  0  0
  -26.2910  -27.6445   21.1305 C   0  0  0  0  0  0  0  0  0  0  0  0
  -21.1281   -5.8238   25.0077 C   0  0  0  0  0  0  0  0  0  0  0  0
  -28.4344  -22.9844   20.7229 C   0  0  0  0  0  0  0  0  0  0  0  0
  -24.5322   -9.4404   20.1112 C   0  0  0  0  0  0  0  0  0  0  0  0
  -26.9588   -9.8937   19.4677 C   0  0  0  0  0  0  0  0  0  0  0  0
  -26.7509  -36.6966   22.1083 C   0  0  0  0  0  0  0  0  0  0  0  0
  -25.9343  -29.7281   19.9510 C   0  0  0  0  0  0  0  0  0  0  0  0
  -27.1668  -35.3665   21.9075 C   0  0  0  0  0  0  0  0  0  0  0  0
  -25.5841  -28.8479   20.9848 C   0  0  0  0  0  0  0  0  0  0  0  0
  -22.4523   -7.8580   21.0872 C   0  0  0  0  0  0  0  0  0  0  0  0
  -27.3232  -27.3152   20.2523 C   0  0  0  0  0  0  0  0  0  0  0  0
  -21.6724   -6.3520   22.7139 C   0  0  0  0  0  0  0  0  0  0  0  0
  -22.1468   -4.8711   25.0300 C   0  0  0  0  0  0  0  0  0  0  0  0
  -20.8909   -6.5642   23.8496 C   0  0  0  0  0  0  0  0  0  0  0  0
  -25.6060  -10.2579   19.6065 C   0  0  0  0  0  0  0  0  0  0  0  0
  -28.4590  -24.1127   21.5643 C   0  0  0  0  0  0  0  0  0  0  0  0
  -29.4286  -22.1713   21.2097 C   0  0  0  0  0  0  0  0  0  0  0  0
  -27.5639  -11.0121   18.9485 C   0  0  0  0  0  0  0  0  0  0  0  0
  -27.6101   -8.6552   19.7801 C   0  0  0  0  0  0  0  0  0  0  0  0
  -25.4519  -32.0954   22.0166 C   0  0  0  0  0  0  0  0  0  0  0  0
  -22.5251  -30.7267   22.3043 C   0  0  0  0  0  0  0  0  0  0  0  0
  -20.5922  -27.9303   22.0030 C   0  0  0  0  0  0  0  0  0  0  0  0
  -28.4743  -16.2978   18.7524 C   0  0  0  0  0  0  0  0  0  0  0  0
  -25.7400  -37.0605   23.1667 C   0  0  0  0  0  0  0  0  0  0  0  0
  -25.1779  -31.0135   19.7560 C   0  0  0  0  0  0  0  0  0  0  0  0
  -24.4728  -29.1622   21.9516 C   0  0  0  0  0  0  0  0  0  0  0  0
  -24.9204  -35.8711   23.6607 C   0  0  0  0  0  0  0  0  0  0  0  0
  -25.5899  -15.2541   17.0437 C   0  0  0  0  0  0  0  0  0  0  0  0
  -25.8290  -34.6814   23.9536 C   0  0  0  0  0  0  0  0  0  0  0  0
  -25.4404  -13.8193   17.5490 C   0  0  0  0  0  0  0  0  0  0  0  0
  -28.0416  -19.5162   20.1099 C   0  0  0  0  0  0  0  0  0  0  0  0
  -30.3699  -19.1629   19.2033 C   0  0  0  0  0  0  0  0  0  0  0  0
  -26.0120  -16.2132   18.1582 C   0  0  0  0  0  0  0  0  0  0  0  0
  -27.4906  -18.6215   18.9957 C   0  0  0  0  0  0  0  0  0  0  0  0
  -29.7720  -18.3014   18.0945 C   0  0  0  0  0  0  0  0  0  0  0  0
  -27.0792  -14.3536   19.3918 C   0  0  0  0  0  0  0  0  0  0  0  0
  -26.5597  -34.2201   22.6868 C   0  0  1  0  0  0  0  0  0  0  0  0
  -24.4899  -31.5007   21.0274 C   0  0  1  0  0  0  0  0  0  0  0  0
  -26.7123  -13.3565   18.2818 C   0  0  1  0  0  0  0  0  0  0  0  0
  -29.3490  -20.1935   19.6924 C   0  0  0  0  0  0  0  0  0  0  0  0
  -30.6088  -21.3504   24.1269 C   0  0  0  0  0  0  0  0  0  0  0  0
  -18.2453  -27.1114   22.3476 C   0  0  0  0  0  0  0  0  0  0  0  0
  -23.0009  -30.6382   25.3169 C   0  0  0  0  0  0  0  0  0  0  0  0
  -21.1183  -28.9973   25.4957 C   0  0  0  0  0  0  0  0  0  0  0  0
  -20.6851  -31.3022   24.6455 C   0  0  0  0  0  0  0  0  0  0  0  0
  -20.2836  -27.2551   19.1381 C   0  0  0  0  0  0  0  0  0  0  0  0
  -27.5970  -25.3043   21.4921 C   0  0  0  0  0  0  0  0  0  1  0  0
  -31.0528  -22.3968   23.1193 C   0  0  0  0  0  0  0  0  0  0  0  0
  -21.9278  -29.6553   23.1842 C   0  0  1  0  0  0  0  0  0  0  0  0
  -19.2354  -27.7082   21.3595 C   0  0  2  0  0  0  0  0  0  0  0  0
  -21.7053  -30.1429   24.6437 C   0  0  0  0  0  0  0  0  0  0  0  0
  -25.3656  -11.5098   19.2078 N   0  0  0  0  0  0  0  0  0  0  0  0
  -29.3945  -24.0276   22.5138 N   0  0  0  0  0  0  0  0  0  0  0  0
  -26.5754  -11.9421   18.8135 N   0  0  0  0  0  0  0  0  0  0  0  0
  -29.9670  -22.8360   22.2720 N   0  0  0  0  0  0  0  0  0  0  0  0
  -23.7671  -30.4340   21.7232 N   0  0  0  0  0  0  0  0  0  0  0  0
  -27.2046  -15.7098   18.8539 N   0  0  0  0  0  0  0  0  0  0  0  0
  -28.5187  -17.6816   18.5264 N   0  0  0  0  0  0  0  0  0  0  0  0
  -28.8398  -11.2809   18.5991 N   0  0  0  0  0  0  0  0  0  0  0  0
  -26.8396   -7.6093   20.3062 N   0  0  0  0  0  0  0  0  0  0  0  0
  -29.8928  -20.9300   20.8122 N   0  0  0  0  0  0  0  0  0  0  0  0
  -25.6716  -33.4487   21.8438 N   0  0  0  0  0  0  0  0  0  0  0  0
  -20.7131  -29.2058   22.5126 N   0  0  0  0  0  0  0  0  0  0  0  0
  -19.3580  -26.7812   20.1991 N   0  3  0  0  0  0  0  0  0  0  0  0
  -28.8419   -8.4867   19.6136 O   0  0  0  0  0  0  0  0  0  0  0  0
  -25.9564  -31.3798   22.8740 O   0  0  0  0  0  0  0  0  0  0  0  0
  -21.9090  -31.7816   22.1330 O   0  0  0  0  0  0  0  0  0  0  0  0
  -21.4569  -27.0583   22.0523 O   0  0  0  0  0  0  0  0  0  0  0  0
  -29.5081  -15.6259   18.8578 O   0  0  0  0  0  0  0  0  0  0  0  0
  -21.4376   -7.0857   21.5631 O   0  0  0  0  0  0  0  0  0  0  0  0
  -28.0023  -26.1384   20.4053 O   0  0  0  0  0  0  0  0  0  1  0  0
  -22.3737   -4.1590   26.1416 F   0  0  0  0  0  0  0  0  0  0  0  0
  -19.9101   -7.4772   23.8338 F   0  0  0  0  0  0  0  0  0  0  0  0
  1  2  1  0  0  0  0
  1  5  2  0  0  0  0
  2  6  2  0  0  0  0
  3  8  2  0  0  0  0
  3 16  1  0  0  0  0
  4  9  1  0  0  0  0
  4 16  2  0  0  0  0
  5 18  1  0  0  0  0
  6 20  1  0  0  0  0
  7 10  2  0  0  0  0
  7 19  1  0  0  0  0
  8 22  1  0  0  0  0
  9 22  2  0  0  0  0
 10 23  1  0  0  0  0
 11 12  2  0  0  0  0
 11 24  1  0  0  0  0
 12 25  1  0  0  0  0
 13 21  1  0  0  0  0
 13 23  2  0  0  0  0
 14 25  2  0  0  0  0
 14 26  1  0  0  0  0
 15 28  1  0  0  0  0
 15 29  2  0  0  0  0
 16 27  1  0  0  0  0
 17 27  1  0  0  0  0
 17 30  2  0  0  0  0
 17 31  1  0  0  0  0
 18 20  2  0  0  0  0
 18 36  1  0  0  0  0
 19 21  2  0  0  0  0
 19 37  1  0  0  0  0
 20 49  1  0  0  0  0
 21 38  1  0  0  0  0
 22 82  1  0  0  0  0
 23 83  1  0  0  0  0
 24 26  2  0  0  0  0
 24 82  1  0  0  0  0
 25 84  1  0  0  0  0
 26 85  1  0  0  0  0
 27 64  2  0  0  0  0
 28 59  1  0  0  0  0
 28 65  2  0  0  0  0
 29 67  1  0  0  0  0
 29 73  1  0  0  0  0
 30 66  1  0  0  0  0
 30 71  1  0  0  0  0
 31 72  1  0  0  0  0
 31 77  2  0  0  0  0
 32 50  1  0  0  0  0
 32 74  1  0  0  0  0
 32 78  2  0  0  0  0
 33 61  1  0  0  0  0
 33 68  1  0  0  0  0
 33 79  2  0  0  0  0
 34 62  1  0  0  0  0
 34 75  1  0  0  0  0
 34 80  2  0  0  0  0
 35 69  1  0  0  0  0
 35 70  1  0  0  0  0
 35 81  2  0  0  0  0
 36 39  1  0  0  0  0
 37 50  1  0  0  0  0
 38 68  1  0  0  0  0
 39 41  1  0  0  0  0
 40 42  1  0  0  0  0
 40 45  1  0  0  0  0
 41 49  1  0  0  0  0
 42 51  1  0  0  0  0
 43 46  1  0  0  0  0
 43 52  1  0  0  0  0
 44 47  1  0  0  0  0
 44 52  1  0  0  0  0
 45 69  1  0  0  0  0
 46 70  1  0  0  0  0
 47 70  1  0  0  0  0
 48 51  1  0  0  0  0
 48 69  1  0  0  0  0
 49 74  1  0  0  0  0
 50 68  1  0  0  0  0
 51 66  1  0  0  0  0
 52 73  1  0  0  0  0
 53 60  1  0  0  0  0
 54 62  1  0  0  0  0
 55 63  1  0  0  0  0
 56 63  1  0  0  0  0
 57 63  1  0  0  0  0
 58 76  1  0  0  0  0
 59 83  1  0  0  0  0
 60 67  1  0  0  0  0
 61 63  1  0  0  0  0
 61 75  1  0  0  0  0
 62 76  1  0  0  0  0
 64 66  1  0  0  0  0
 65 67  1  0  0  0  0
M  CHG  1  76   1
M  ISO  4  35 100  59 101  70 100  83 101
M  END
> <Batch ID>
0180

> <Smiles>
CCn1nc([101CH2:1][101O:1]c2ccc3c(c2)CN(C(=O)C(NC(=O)C(C)NC)C(C)(C)C)C(C(=O)NC2CCCc4ccccc42)C3)cc1NC1CC[100N:0]([100C:0](=O)N2CCCC(n3nc(-c4ccc(Oc5ccc(F)cc5F)cc4)c(C(N)=O)c3N)C2)CC1

> <Shape>
0.298

> <Color>
0.097

> <Negative vol penalty>
0.000

$$$$

  -OEChem-04052323003D

 84 93  0     1  0  0  0  0  0999 V2000
  -36.8259  -15.6774   24.3902 C   0  0  0  0  0  0  0  0  0  0  0  0
  -36.0458  -16.3419   23.4494 C   0  0  0  0  0  0  0  0  0  0  0  0
  -19.9229  -27.0610   21.7756 C   0  0  0  0  0  0  0  0  0  0  0  0
  -19.5283  -28.6613   23.5420 C   0  0  0  0  0  0  0  0  0  0  0  0
  -36.5805  -14.3346   24.6743 C   0  0  0  0  0  0  0  0  0  0  0  0
  -35.0203  -15.6638   22.7913 C   0  0  0  0  0  0  0  0  0  0  0  0
  -30.7440  -18.3659   22.5537 C   0  0  0  0  0  0  0  0  0  0  0  0
  -18.8677  -26.2802   22.2472 C   0  0  0  0  0  0  0  0  0  0  0  0
  -18.4730  -27.8806   24.0136 C   0  0  0  0  0  0  0  0  0  0  0  0
  -30.6815  -19.3760   21.5948 C   0  0  0  0  0  0  0  0  0  0  0  0
  -15.4902  -26.2991   22.0884 C   0  0  0  0  0  0  0  0  0  0  0  0
  -14.5882  -25.7943   21.1518 C   0  0  0  0  0  0  0  0  0  0  0  0
  -29.4060  -17.9212   20.1541 C   0  0  0  0  0  0  0  0  0  0  0  0
  -15.1421  -23.5431   21.8316 C   0  0  0  0  0  0  0  0  0  0  0  0
  -31.1100  -22.1918   17.4824 C   0  0  0  0  0  0  0  0  0  0  0  0
  -20.2533  -28.2516   22.4230 C   0  0  0  0  0  0  0  0  0  0  0  0
  -21.2767  -30.0930   20.9845 C   0  0  0  0  0  0  0  0  0  0  0  0
  -35.5453  -13.6423   24.0265 C   0  0  0  0  0  0  0  0  0  0  0  0
  -30.1462  -17.1200   22.3151 C   0  0  0  0  0  0  0  0  0  0  0  0
  -34.7617  -14.3102   23.0661 C   0  0  0  0  0  0  0  0  0  0  0  0
  -29.4601  -16.8978   21.1127 C   0  0  0  0  0  0  0  0  0  0  0  0
  -18.1427  -26.6900   23.3662 C   0  0  0  0  0  0  0  0  0  0  0  0
  -30.0150  -19.1528   20.3936 C   0  0  0  0  0  0  0  0  0  0  0  0
  -16.2182  -25.4258   22.8966 C   0  0  0  0  0  0  0  0  0  0  0  0
  -14.4141  -24.4164   21.0234 C   0  0  0  0  0  0  0  0  0  0  0  0
  -16.0442  -24.0478   22.7682 C   0  0  0  0  0  0  0  0  0  0  0  0
  -21.3436  -29.0582   21.9366 C   0  0  0  0  0  0  0  0  0  0  0  0
  -30.8591  -23.1304   16.5023 C   0  0  0  0  0  0  0  0  0  0  0  0
  -30.3893  -22.3404   18.6498 C   0  0  0  0  0  0  0  0  0  0  0  0
  -22.5708  -30.5390   20.8706 C   0  0  0  0  0  0  0  0  0  0  0  0
  -29.3350  -24.1773   17.8246 C   0  0  0  0  0  0  0  0  0  0  0  0
  -20.1459  -30.6053   20.2672 C   0  0  0  0  0  0  0  0  0  0  0  0
  -31.2053  -14.1323   22.0794 C   0  0  0  0  0  0  0  0  0  0  0  0
  -28.0413  -13.4370   21.9119 C   0  0  0  0  0  0  0  0  0  0  0  0
  -24.8796  -14.4867   21.1714 C   0  0  0  0  0  0  0  0  0  0  0  0
  -27.7814  -27.6577   22.1176 C   0  0  0  0  0  0  0  0  0  0  0  0
  -35.3484  -12.1786   24.3323 C   0  0  0  0  0  0  0  0  0  0  0  0
  -30.1996  -16.0499   23.3707 C   0  0  0  0  0  0  0  0  0  0  0  0
  -28.7843  -15.5848   20.8162 C   0  0  0  0  0  0  0  0  0  0  0  0
  -34.0012  -11.6344   23.8641 C   0  0  0  0  0  0  0  0  0  0  0  0
  -26.6419  -30.9187   23.3588 C   0  0  0  0  0  0  0  0  0  0  0  0
  -33.7095  -12.0869   22.4369 C   0  0  0  0  0  0  0  0  0  0  0  0
  -25.1368  -30.8758   23.0912 C   0  0  0  0  0  0  0  0  0  0  0  0
  -26.4453  -26.3038   18.9714 C   0  0  0  0  0  0  0  0  0  0  0  0
  -27.2151  -29.5285   23.6242 C   0  0  0  0  0  0  0  0  0  0  0  0
  -26.1145  -26.7646   20.3872 C   0  0  0  0  0  0  0  0  0  0  0  0
  -25.3987  -28.4880   22.3239 C   0  0  0  0  0  0  0  0  0  0  0  0
  -28.4290  -26.1363   20.2717 C   0  0  0  0  0  0  0  0  0  0  0  0
  -33.6242  -13.6155   22.3494 C   0  0  1  0  0  0  0  0  0  0  0  0
  -29.9965  -14.6460   22.8092 C   0  0  1  0  0  0  0  0  0  0  0  0
  -24.7982  -29.8593   21.9848 C   0  0  1  0  0  0  0  0  0  0  0  0
  -27.6453  -25.3917   19.2014 C   0  0  2  0  0  0  0  0  0  0  0  0
  -31.5907  -23.0518   15.2046 C   0  0  0  0  0  0  0  0  0  0  0  0
  -22.5037  -13.6822   21.0967 C   0  0  0  0  0  0  0  0  0  0  0  0
  -28.6397  -11.9166   19.3350 C   0  0  0  0  0  0  0  0  0  0  0  0
  -26.1896  -11.9612   18.8220 C   0  0  0  0  0  0  0  0  0  0  0  0
  -27.0138  -10.7841   20.8610 C   0  0  0  0  0  0  0  0  0  0  0  0
  -24.0167  -16.4888   23.1729 C   0  0  0  0  0  0  0  0  0  0  0  0
  -30.5926  -21.3732   19.7674 C   0  0  0  0  0  0  0  0  0  1  0  0
  -27.0319  -13.3114   20.7964 C   0  0  1  0  0  0  0  0  0  0  0  0
  -23.5732  -14.3652   21.9349 C   0  0  2  0  0  0  0  0  0  0  0  0
  -27.2330  -12.0175   19.9581 C   0  0  0  0  0  0  0  0  0  0  0  0
  -22.5822  -28.8585   22.3949 N   0  0  0  0  0  0  0  0  0  0  0  0
  -29.9749  -24.1401   16.6403 N   0  0  0  0  0  0  0  0  0  0  0  0
  -29.4905  -23.3252   18.8557 N   0  0  0  0  0  0  0  0  0  0  0  0
  -23.3056  -29.7739   21.7278 N   0  0  0  0  0  0  0  0  0  0  0  0
  -28.8698  -14.5676   21.8772 N   0  0  0  0  0  0  0  0  0  0  0  0
  -26.8423  -28.5954   22.5608 N   0  0  0  0  0  0  0  0  0  0  0  0
  -27.4113  -26.8191   21.0670 N   0  0  0  0  0  0  0  0  0  0  0  0
  -23.1404  -31.5071   20.1218 N   0  0  0  0  0  0  0  0  0  0  0  0
  -18.8889  -30.0325   20.5043 N   0  0  0  0  0  0  0  0  0  0  0  0
  -28.4171  -25.2038   18.0014 N   0  0  0  0  0  0  0  0  0  0  0  0
  -32.3494  -14.0802   22.8527 N   0  0  0  0  0  0  0  0  0  0  0  0
  -25.7179  -13.4207   21.4207 N   0  0  0  0  0  0  0  0  0  0  0  0
  -23.0741  -15.7141   22.3254 N   0  3  0  0  0  0  0  0  0  0  0  0
  -20.2499  -31.5321   19.4283 O   0  0  0  0  0  0  0  0  0  0  0  0
  -31.1070  -13.8059   20.9023 O   0  0  0  0  0  0  0  0  0  0  0  0
  -28.0880  -12.5678   22.7859 O   0  0  0  0  0  0  0  0  0  0  0  0
  -25.1297  -15.4307   20.4253 O   0  0  0  0  0  0  0  0  0  0  0  0
  -28.9175  -27.6033   22.6069 O   0  0  0  0  0  0  0  0  0  0  0  0
  -17.1128  -25.9285   23.8265 O   0  0  0  0  0  0  0  0  0  0  0  0
  -29.9526  -20.1436   19.4491 O   0  0  0  0  0  0  0  0  0  1  0  0
  -13.5468  -23.9318   20.1250 F   0  0  0  0  0  0  0  0  0  0  0  0
  -16.7399  -23.2040   23.5426 F   0  0  0  0  0  0  0  0  0  0  0  0
  1  2  1  0  0  0  0
  1  5  2  0  0  0  0
  2  6  2  0  0  0  0
  3  8  2  0  0  0  0
  3 16  1  0  0  0  0
  4  9  1  0  0  0  0
  4 16  2  0  0  0  0
  5 18  1  0  0  0  0
  6 20  1  0  0  0  0
  7 10  2  0  0  0  0
  7 19  1  0  0  0  0
  8 22  1  0  0  0  0
  9 22  2  0  0  0  0
 10 23  1  0  0  0  0
 11 12  2  0  0  0  0
 11 24  1  0  0  0  0
 12 25  1  0  0  0  0
 13 21  1  0  0  0  0
 13 23  2  0  0  0  0
 14 25  2  0  0  0  0
 14 26  1  0  0  0  0
 15 28  2  0  0  0  0
 15 29  1  0  0  0  0
 16 27  1  0  0  0  0
 17 27  1  0  0  0  0
 17 30  2  0  0  0  0
 17 32  1  0  0  0  0
 18 20  2  0  0  0  0
 18 37  1  0  0  0  0
 19 21  2  0  0  0  0
 19 38  1  0  0  0  0
 20 49  1  0  0  0  0
 21 39  1  0  0  0  0
 22 81  1  0  0  0  0
 23 82  1  0  0  0  0
 24 26  2  0  0  0  0
 24 81  1  0  0  0  0
 25 83  1  0  0  0  0
 26 84  1  0  0  0  0
 27 63  2  0  0  0  0
 28 53  1  0  0  0  0
 28 64  1  0  0  0  0
 29 59  1  0  0  0  0
 29 65  2  0  0  0  0
 30 66  1  0  0  0  0
 30 70  1  0  0  0  0
 31 64  2  0  0  0  0
 31 65  1  0  0  0  0
 31 72  1  0  0  0  0
 32 71  1  0  0  0  0
 32 76  2  0  0  0  0
 33 50  1  0  0  0  0
 33 73  1  0  0  0  0
 33 77  2  0  0  0  0
 34 60  1  0  0  0  0
 34 67  1  0  0  0  0
 34 78  2  0  0  0  0
 35 61  1  0  0  0  0
 35 74  1  0  0  0  0
 35 79  2  0  0  0  0
 36 68  1  0  0  0  0
 36 69  1  0  0  0  0
 36 80  2  0  0  0  0
 37 40  1  0  0  0  0
 38 50  1  0  0  0  0
 39 67  1  0  0  0  0
 40 42  1  0  0  0  0
 41 43  1  0  0  0  0
 41 45  1  0  0  0  0
 42 49  1  0  0  0  0
 43 51  1  0  0  0  0
 44 46  1  0  0  0  0
 44 52  1  0  0  0  0
 45 68  1  0  0  0  0
 46 69  1  0  0  0  0
 47 51  1  0  0  0  0
 47 68  1  0  0  0  0
 48 52  1  0  0  0  0
 48 69  1  0  0  0  0
 49 73  1  0  0  0  0
 50 67  1  0  0  0  0
 51 66  1  0  0  0  0
 52 72  1  0  0  0  0
 54 61  1  0  0  0  0
 55 62  1  0  0  0  0
 56 62  1  0  0  0  0
 57 62  1  0  0  0  0
 58 75  1  0  0  0  0
 59 82  1  0  0  0  0
 60 62  1  0  0  0  0
 60 74  1  0  0  0  0
 61 75  1  0  0  0  0
 63 66  1  0  0  0  0
M  CHG  1  75   1
M  ISO  4  36 100  59 101  69 100  82 101
M  END
> <Batch ID>
0180

> <Smiles>
CNC(C)C(=O)NC(C(=O)N1Cc2cc([101O:1][101CH2:1]c3cc(C)nc(NC4CC[100N:0]([100C:0](=O)N5CCCC(n6nc(-c7ccc(Oc8ccc(F)cc8F)cc7)c(C(N)=O)c6N)C5)C4)n3)ccc2CC1C(=O)NC1CCCc2ccccc21)C(C)(C)C

> <Shape>
0.261

> <Color>
0.062

> <Negative vol penalty>
0.000

$$$$

  -OEChem-04052323003D

 81 89  0     1  0  0  0  0  0999 V2000
  -16.7830  -29.2939   24.4223 C   0  0  0  0  0  0  0  0  0  0  0  0
  -17.3582  -28.2132   23.7615 C   0  0  0  0  0  0  0  0  0  0  0  0
  -24.4907  -15.2101   22.6014 C   0  0  0  0  0  0  0  0  0  0  0  0
  -23.4876  -15.4781   20.4199 C   0  0  0  0  0  0  0  0  0  0  0  0
  -17.2661  -30.5828   24.2002 C   0  0  0  0  0  0  0  0  0  0  0  0
  -18.4162  -28.4210   22.8772 C   0  0  0  0  0  0  0  0  0  0  0  0
  -23.1736  -24.6935   21.8879 C   0  0  0  0  0  0  0  0  0  0  0  0
  -23.9013  -16.4033   23.0191 C   0  0  0  0  0  0  0  0  0  0  0  0
  -22.8981  -16.6713   20.8376 C   0  0  0  0  0  0  0  0  0  0  0  0
  -23.4352  -23.7497   20.8957 C   0  0  0  0  0  0  0  0  0  0  0  0
  -24.4691  -19.7170   22.6706 C   0  0  0  0  0  0  0  0  0  0  0  0
  -25.2624  -20.6162   23.3831 C   0  0  0  0  0  0  0  0  0  0  0  0
  -24.7042  -25.3964   19.6722 C   0  0  0  0  0  0  0  0  0  0  0  0
  -23.7489  -20.4642   25.2601 C   0  0  0  0  0  0  0  0  0  0  0  0
  -24.2839  -14.7475   21.3018 C   0  0  0  0  0  0  0  0  0  0  0  0
  -24.3486  -12.2203   20.9605 C   0  0  0  0  0  0  0  0  0  0  0  0
  -18.3368  -30.8054   23.3202 C   0  0  0  0  0  0  0  0  0  0  0  0
  -23.6671  -26.0012   21.7741 C   0  0  0  0  0  0  0  0  0  0  0  0
  -18.9132  -29.7143   22.6421 C   0  0  0  0  0  0  0  0  0  0  0  0
  -24.4496  -26.3543   20.6655 C   0  0  0  0  0  0  0  0  0  0  0  0
  -23.1050  -17.1339   22.1372 C   0  0  0  0  0  0  0  0  0  0  0  0
  -24.1982  -24.1018   19.7862 C   0  0  0  0  0  0  0  0  0  0  0  0
  -23.3156  -19.1914   23.2528 C   0  0  0  0  0  0  0  0  0  0  0  0
  -24.9023  -20.9898   24.6779 C   0  0  0  0  0  0  0  0  0  0  0  0
  -22.9555  -19.5650   24.5476 C   0  0  0  0  0  0  0  0  0  0  0  0
  -24.8930  -13.5153   20.8696 C   0  0  0  0  0  0  0  0  0  0  0  0
  -25.3106  -11.4045   20.4170 C   0  0  0  0  0  0  0  0  0  0  0  0
  -23.0861  -11.7930   21.4890 C   0  0  0  0  0  0  0  0  0  0  0  0
  -22.3486  -28.8858   21.5630 C   0  0  0  0  0  0  0  0  0  0  0  0
  -25.4286  -29.8812   21.7749 C   0  0  0  0  0  0  0  0  0  0  0  0
  -28.7385  -29.1745   21.3365 C   0  0  0  0  0  0  0  0  0  0  0  0
  -28.9010  -15.2840   18.8301 C   0  0  0  0  0  0  0  0  0  0  0  0
  -18.7936  -32.2219   23.0763 C   0  0  0  0  0  0  0  0  0  0  0  0
  -23.3984  -27.0001   22.8661 C   0  0  0  0  0  0  0  0  0  0  0  0
  -25.0197  -27.7392   20.5060 C   0  0  0  0  0  0  0  0  0  0  0  0
  -20.1634  -32.3138   22.4087 C   0  0  0  0  0  0  0  0  0  0  0  0
  -29.4174  -12.5532   21.0758 C   0  0  0  0  0  0  0  0  0  0  0  0
  -29.0607  -16.1534   15.3133 C   0  0  0  0  0  0  0  0  0  0  0  0
  -20.2490  -31.3482   21.2309 C   0  0  0  0  0  0  0  0  0  0  0  0
  -28.6830  -11.3789   20.4385 C   0  0  0  0  0  0  0  0  0  0  0  0
  -28.1024  -17.2386   15.7835 C   0  0  0  0  0  0  0  0  0  0  0  0
  -30.0414  -13.4384   20.0080 C   0  0  0  0  0  0  0  0  0  0  0  0
  -28.7966  -15.0266   16.2999 C   0  0  0  0  0  0  0  0  0  0  0  0
  -28.2310  -12.8629   18.4025 C   0  0  0  0  0  0  0  0  0  0  0  0
  -20.0787  -29.8964   21.6943 C   0  0  1  0  0  0  0  0  0  0  0  0
  -23.5194  -28.4464   22.3959 C   0  0  1  0  0  0  0  0  0  0  0  0
  -27.6496  -11.8276   19.3928 C   0  0  2  0  0  0  0  0  0  0  0  0
  -28.1506  -17.1133   17.3087 C   0  0  1  0  0  0  0  0  0  0  0  0
  -31.0180  -30.1998   21.5595 C   0  0  0  0  0  0  0  0  0  0  0  0
  -25.6618  -16.7008   17.4095 C   0  0  0  0  0  0  0  0  0  0  0  0
  -24.9553  -31.4830   19.2214 C   0  0  0  0  0  0  0  0  0  0  0  0
  -27.4379  -31.6961   18.9778 C   0  0  0  0  0  0  0  0  0  0  0  0
  -26.2932  -32.6737   20.9669 C   0  0  0  0  0  0  0  0  0  0  0  0
  -29.5812  -27.1512   23.3252 C   0  0  0  0  0  0  0  0  0  0  0  0
  -25.5043  -21.0826   18.3070 C   0  0  0  0  0  0  0  0  0  0  0  0
  -25.6524  -19.6039   18.6326 C   0  0  0  0  0  0  0  0  0  0  0  0
  -24.5276  -21.8161   19.2179 C   0  0  0  0  0  0  0  0  0  1  0  0
  -26.5315  -30.1634   20.7834 C   0  0  1  0  0  0  0  0  0  0  0  0
  -29.9397  -29.3737   22.2431 C   0  0  2  0  0  0  0  0  0  0  0  0
  -26.8282  -17.5073   17.9541 C   0  0  2  0  0  0  0  0  0  0  0  0
  -26.2922  -31.4784   19.9891 C   0  0  0  0  0  0  0  0  0  0  0  0
  -26.1068  -13.5264   20.3123 N   0  0  0  0  0  0  0  0  0  0  0  0
  -26.3331  -12.2283   20.0482 N   0  0  0  0  0  0  0  0  0  0  0  0
  -24.7240  -28.6822   21.5973 N   0  0  0  0  0  0  0  0  0  0  0  0
  -29.0515  -13.9047   19.0368 N   0  0  0  0  0  0  0  0  0  0  0  0
  -28.5059  -15.7115   17.5605 N   0  0  0  0  0  0  0  0  0  0  0  0
  -25.3733  -10.0699   20.2235 N   0  0  0  0  0  0  0  0  0  0  0  0
  -22.2169  -12.7619   22.0086 N   0  0  0  0  0  0  0  0  0  0  0  0
  -21.3020  -29.4113   22.2965 N   0  0  0  0  0  0  0  0  0  0  0  0
  -27.7776  -30.1418   21.5419 N   0  0  0  0  0  0  0  0  0  0  0  0
  -30.5260  -28.0572   22.6227 N   0  3  0  0  0  0  0  0  0  0  0  0
  -26.5808  -18.9473   17.6749 N   0  3  0  0  0  0  0  0  0  0  0  0
  -22.7461  -10.5858   21.5151 O   0  0  0  0  0  0  0  0  0  0  0  0
  -22.3921  -28.7589   20.3449 O   0  0  0  0  0  0  0  0  0  0  0  0
  -25.2054  -30.6913   22.6779 O   0  0  0  0  0  0  0  0  0  0  0  0
  -28.6620  -28.2551   20.5245 O   0  0  0  0  0  0  0  0  0  0  0  0
  -29.1196  -16.0986   19.7366 O   0  0  0  0  0  0  0  0  0  0  0  0
  -22.5295  -18.2981   22.5445 O   0  0  0  0  0  0  0  0  0  0  0  0
  -24.4563  -23.1762   18.8092 O   0  0  0  0  0  0  0  0  0  1  0  0
  -25.6651  -21.8521   25.3625 F   0  0  0  0  0  0  0  0  0  0  0  0
  -21.8492  -19.0625   25.1127 F   0  0  0  0  0  0  0  0  0  0  0  0
  1  2  1  0  0  0  0
  1  5  2  0  0  0  0
  2  6  2  0  0  0  0
  3  8  2  0  0  0  0
  3 15  1  0  0  0  0
  4  9  1  0  0  0  0
  4 15  2  0  0  0  0
  5 17  1  0  0  0  0
  6 19  1  0  0  0  0
  7 10  2  0  0  0  0
  7 18  1  0  0  0  0
  8 21  1  0  0  0  0
  9 21  2  0  0  0  0
 10 22  1  0  0  0  0
 11 12  2  0  0  0  0
 11 23  1  0  0  0  0
 12 24  1  0  0  0  0
 13 20  1  0  0  0  0
 13 22  2  0  0  0  0
 14 24  2  0  0  0  0
 14 25  1  0  0  0  0
 15 26  1  0  0  0  0
 16 26  1  0  0  0  0
 16 27  2  0  0  0  0
 16 28  1  0  0  0  0
 17 19  2  0  0  0  0
 17 33  1  0  0  0  0
 18 20  2  0  0  0  0
 18 34  1  0  0  0  0
 19 45  1  0  0  0  0
 20 35  1  0  0  0  0
 21 78  1  0  0  0  0
 22 79  1  0  0  0  0
 23 25  2  0  0  0  0
 23 78  1  0  0  0  0
 24 80  1  0  0  0  0
 25 81  1  0  0  0  0
 26 62  2  0  0  0  0
 27 63  1  0  0  0  0
 27 67  1  0  0  0  0
 28 68  1  0  0  0  0
 28 73  2  0  0  0  0
 29 46  1  0  0  0  0
 29 69  1  0  0  0  0
 29 74  2  0  0  0  0
 30 58  1  0  0  0  0
 30 64  1  0  0  0  0
 30 75  2  0  0  0  0
 31 59  1  0  0  0  0
 31 70  1  0  0  0  0
 31 76  2  0  0  0  0
 32 65  1  0  0  0  0
 32 66  1  0  0  0  0
 32 77  2  0  0  0  0
 33 36  1  0  0  0  0
 34 46  1  0  0  0  0
 35 64  1  0  0  0  0
 36 39  1  0  0  0  0
 37 40  1  0  0  0  0
 37 42  1  0  0  0  0
 38 41  1  0  0  0  0
 38 43  1  0  0  0  0
 39 45  1  0  0  0  0
 40 47  1  0  0  0  0
 41 48  1  0  0  0  0
 42 65  1  0  0  0  0
 43 66  1  0  0  0  0
 44 47  1  0  0  0  0
 44 65  1  0  0  0  0
 45 69  1  0  0  0  0
 46 64  1  0  0  0  0
 47 63  1  0  0  0  0
 48 60  1  0  0  0  0
 48 66  1  0  0  0  0
 49 59  1  0  0  0  0
 50 60  1  0  0  0  0
 51 61  1  0  0  0  0
 52 61  1  0  0  0  0
 53 61  1  0  0  0  0
 54 71  1  0  0  0  0
 55 56  1  0  0  0  0
 55 57  1  0  0  0  0
 56 72  1  0  0  0  0
 57 79  1  0  0  0  0
 58 61  1  0  0  0  0
 58 70  1  0  0  0  0
 59 71  1  0  0  0  0
 60 72  1  0  0  0  0
 62 63  1  0  0  0  0
M  CHG  2  71   1  72   1
M  ISO  4  32 100  57 101  66 100  79 101
M  END
> <Batch ID>
0180

> <Smiles>
CNC(C)C(=O)NC(C(=O)N1Cc2cc([101O:1][101CH2:1]CCNC(C)C3CCC[100N:0]3[100C:0](=O)N3CCCC(n4nc(-c5ccc(Oc6ccc(F)cc6F)cc5)c(C(N)=O)c4N)C3)ccc2CC1C(=O)NC1CCCc2ccccc21)C(C)(C)C

> <Shape>
0.202

> <Color>
0.101

> <Negative vol penalty>
0.000

$$$$

  -OEChem-04052323003D

 87 97  0     1  0  0  0  0  0999 V2000
  -21.5919  -30.0368   22.3046 C   0  0  0  0  0  0  0  0  0  0  0  0
  -22.3423  -28.8774   22.1372 C   0  0  0  0  0  0  0  0  0  0  0  0
  -29.5116  -24.0426   18.3641 C   0  0  0  0  0  0  0  0  0  0  0  0
  -30.3538  -23.6229   20.5893 C   0  0  0  0  0  0  0  0  0  0  0  0
  -20.2243  -29.9497   22.5616 C   0  0  0  0  0  0  0  0  0  0  0  0
  -21.7256  -27.6300   22.2277 C   0  0  0  0  0  0  0  0  0  0  0  0
  -23.1182  -22.5943   19.0326 C   0  0  0  0  0  0  0  0  0  0  0  0
  -29.1005  -25.3153   18.7597 C   0  0  0  0  0  0  0  0  0  0  0  0
  -29.9427  -24.8957   20.9849 C   0  0  0  0  0  0  0  0  0  0  0  0
  -23.8836  -21.4702   19.3399 C   0  0  0  0  0  0  0  0  0  0  0  0
  -26.5280  -26.6802   20.4755 C   0  0  0  0  0  0  0  0  0  0  0  0
  -25.2550  -27.0987   20.0885 C   0  0  0  0  0  0  0  0  0  0  0  0
  -21.8804  -20.2891   19.9813 C   0  0  0  0  0  0  0  0  0  0  0  0
  -26.2131  -16.1195   22.0753 C   0  0  0  0  0  0  0  0  0  0  0  0
  -26.2296  -28.9591   18.8943 C   0  0  0  0  0  0  0  0  0  0  0  0
  -24.2182  -15.7700   20.2468 C   0  0  0  0  0  0  0  0  0  0  0  0
  -30.1382  -23.1963   19.2789 C   0  0  0  0  0  0  0  0  0  0  0  0
  -31.8115  -21.5204   18.3305 C   0  0  0  0  0  0  0  0  0  0  0  0
  -19.5888  -28.7008   22.6457 C   0  0  0  0  0  0  0  0  0  0  0  0
  -21.7270  -22.5778   19.2080 C   0  0  0  0  0  0  0  0  0  0  0  0
  -20.3485  -27.5260   22.4874 C   0  0  0  0  0  0  0  0  0  0  0  0
  -21.0993  -21.4134   19.6730 C   0  0  0  0  0  0  0  0  0  0  0  0
  -25.3202  -17.1575   21.8332 C   0  0  0  0  0  0  0  0  0  0  0  0
  -24.3009  -16.9875   20.9030 C   0  0  0  0  0  0  0  0  0  0  0  0
  -29.3160  -25.7419   20.0701 C   0  0  0  0  0  0  0  0  0  0  0  0
  -23.2650  -20.3184   19.8170 C   0  0  0  0  0  0  0  0  0  0  0  0
  -27.6519  -27.4012   20.0720 C   0  0  0  0  0  0  0  0  0  0  0  0
  -25.1058  -28.2381   19.2978 C   0  0  0  0  0  0  0  0  0  0  0  0
  -27.5027  -28.5406   19.2814 C   0  0  0  0  0  0  0  0  0  0  0  0
  -30.5626  -21.8811   18.8709 C   0  0  0  0  0  0  0  0  0  0  0  0
  -26.0447  -14.9408   21.3668 C   0  0  0  0  0  0  0  0  0  0  0  0
  -31.7138  -20.1678   18.1132 C   0  0  0  0  0  0  0  0  0  0  0  0
  -32.9574  -22.3352   18.0500 C   0  0  0  0  0  0  0  0  0  0  0  0
  -29.3931  -15.5499   20.6244 C   0  0  0  0  0  0  0  0  0  0  0  0
  -19.6725  -24.2115   21.0006 C   0  0  0  0  0  0  0  0  0  0  0  0
  -17.4668  -22.5504   19.2984 C   0  0  0  0  0  0  0  0  0  0  0  0
  -16.7204  -19.7845   17.4438 C   0  0  0  0  0  0  0  0  0  0  0  0
  -18.1170  -28.6558   22.9722 C   0  0  0  0  0  0  0  0  0  0  0  0
  -20.9126  -23.7896   18.8465 C   0  0  0  0  0  0  0  0  0  0  0  0
  -19.6067  -21.3375   19.8597 C   0  0  0  0  0  0  0  0  0  0  0  0
  -17.4696  -27.3044   22.6809 C   0  0  0  0  0  0  0  0  0  0  0  0
  -27.9912  -16.9728   17.5784 C   0  0  0  0  0  0  0  0  0  0  0  0
  -18.3326  -26.1705   23.2253 C   0  0  0  0  0  0  0  0  0  0  0  0
  -28.6121  -18.3691   17.5733 C   0  0  0  0  0  0  0  0  0  0  0  0
  -29.7641  -12.9552   20.9642 C   0  0  0  0  0  0  0  0  0  0  0  0
  -27.6877  -16.4986   18.9972 C   0  0  0  0  0  0  0  0  0  0  0  0
  -29.4948  -17.9280   19.9053 C   0  0  0  0  0  0  0  0  0  0  0  0
  -28.9454  -11.5497   19.0242 C   0  0  0  0  0  0  0  0  0  0  0  0
  -29.6520  -13.9500   18.6402 C   0  0  0  0  0  0  0  0  0  0  0  0
  -19.7111  -26.1551   22.5537 C   0  0  1  0  0  0  0  0  0  0  0  0
  -19.5601  -23.8325   19.5510 C   0  0  1  0  0  0  0  0  0  0  0  0
  -28.5954  -12.1027   20.4023 C   0  0  2  0  0  0  0  0  0  0  0  0
  -27.7756  -13.4378   20.3504 C   0  0  2  0  0  0  0  0  0  0  0  0
  -29.8439  -18.4282   18.4936 C   0  0  2  0  0  0  0  0  0  0  0  0
  -29.1819  -14.1165   20.0939 C   0  0  2  0  0  0  0  0  0  0  0  0
  -25.4743  -18.4405   22.5807 C   0  0  0  0  0  0  0  0  0  0  0  0
  -26.2729  -12.5574   22.1552 C   0  0  0  0  0  0  0  0  0  0  0  0
  -14.8251  -18.6864   16.2194 C   0  0  0  0  0  0  0  0  0  0  0  0
  -16.2663  -21.6615   21.9589 C   0  0  0  0  0  0  0  0  0  0  0  0
  -15.0310  -19.8686   20.7229 C   0  0  0  0  0  0  0  0  0  0  0  0
  -14.5872  -22.2686   20.2077 C   0  0  0  0  0  0  0  0  0  0  0  0
  -18.1587  -19.9180   14.8607 C   0  0  0  0  0  0  0  0  0  0  0  0
  -23.3108  -18.0741   20.6027 C   0  0  0  0  0  0  0  0  0  1  0  0
  -26.9846  -13.8056   21.6006 C   0  0  2  0  0  0  0  0  0  0  0  0
  -16.7660  -21.2236   19.4640 C   0  0  1  0  0  0  0  0  0  0  0  0
  -16.0149  -19.6271   16.1089 C   0  0  2  0  0  0  0  0  0  0  0  0
  -15.6910  -21.2573   20.5868 C   0  0  0  0  0  0  0  0  0  0  0  0
  -25.0668  -14.7386   20.4554 N   0  0  0  0  0  0  0  0  0  0  0  0
  -29.7325  -20.8415   18.9896 N   0  0  0  0  0  0  0  0  0  0  0  0
  -30.4611  -19.8143   18.5206 N   0  0  0  0  0  0  0  0  0  0  0  0
  -28.8748  -16.6010   19.8517 N   0  0  0  0  0  0  0  0  0  0  0  0
  -18.8546  -22.5504   19.4984 N   0  0  0  0  0  0  0  0  0  0  0  0
  -32.5781  -19.2581   17.6153 N   0  0  0  0  0  0  0  0  0  0  0  0
  -32.8882  -23.7060   18.3339 N   0  0  0  0  0  0  0  0  0  0  0  0
  -19.6227  -25.5730   21.2316 N   0  0  0  0  0  0  0  0  0  0  0  0
  -16.2446  -20.8703   18.1480 N   0  0  0  0  0  0  0  0  0  0  0  0
  -29.1528  -12.6640   18.0356 N   0  3  0  0  0  0  0  0  0  0  0  0
  -16.9532  -19.0802   15.0884 N   0  3  0  0  0  0  0  0  0  0  0  0
  -34.0057  -21.8647   17.5468 O   0  0  0  0  0  0  0  0  0  0  0  0
  -29.9978  -15.7417   21.6903 O   0  0  0  0  0  0  0  0  0  0  0  0
  -19.7939  -23.3337   21.8470 O   0  0  0  0  0  0  0  0  0  0  0  0
  -16.8083  -23.5485   18.9954 O   0  0  0  0  0  0  0  0  0  0  0  0
  -17.6026  -19.0185   17.8253 O   0  0  0  0  0  0  0  0  0  0  0  0
  -28.9152  -26.9840   20.4564 O   0  0  0  0  0  0  0  0  0  0  0  0
  -24.0098  -19.2200   20.1184 O   0  0  0  0  0  0  0  0  0  1  0  0
  -23.8833  -28.6390   18.9250 F   0  0  0  0  0  0  0  0  0  0  0  0
  -28.5787  -29.2366   18.8896 F   0  0  0  0  0  0  0  0  0  0  0  0
  1  2  1  0  0  0  0
  1  5  2  0  0  0  0
  2  6  2  0  0  0  0
  3  8  2  0  0  0  0
  3 17  1  0  0  0  0
  4  9  1  0  0  0  0
  4 17  2  0  0  0  0
  5 19  1  0  0  0  0
  6 21  1  0  0  0  0
  7 10  2  0  0  0  0
  7 20  1  0  0  0  0
  8 25  1  0  0  0  0
  9 25  2  0  0  0  0
 10 26  1  0  0  0  0
 11 12  2  0  0  0  0
 11 27  1  0  0  0  0
 12 28  1  0  0  0  0
 13 22  1  0  0  0  0
 13 26  2  0  0  0  0
 14 23  1  0  0  0  0
 14 31  2  0  0  0  0
 15 28  2  0  0  0  0
 15 29  1  0  0  0  0
 16 24  1  0  0  0  0
 16 68  2  0  0  0  0
 17 30  1  0  0  0  0
 18 30  1  0  0  0  0
 18 32  2  0  0  0  0
 18 33  1  0  0  0  0
 19 21  2  0  0  0  0
 19 38  1  0  0  0  0
 20 22  2  0  0  0  0
 20 39  1  0  0  0  0
 21 50  1  0  0  0  0
 22 40  1  0  0  0  0
 23 24  2  0  0  0  0
 23 56  1  0  0  0  0
 24 63  1  0  0  0  0
 25 84  1  0  0  0  0
 26 85  1  0  0  0  0
 27 29  2  0  0  0  0
 27 84  1  0  0  0  0
 28 86  1  0  0  0  0
 29 87  1  0  0  0  0
 30 69  2  0  0  0  0
 31 64  1  0  0  0  0
 31 68  1  0  0  0  0
 32 70  1  0  0  0  0
 32 73  1  0  0  0  0
 33 74  1  0  0  0  0
 33 79  2  0  0  0  0
 34 55  1  0  0  0  0
 34 71  1  0  0  0  0
 34 80  2  0  0  0  0
 35 51  1  0  0  0  0
 35 75  1  0  0  0  0
 35 81  2  0  0  0  0
 36 65  1  0  0  0  0
 36 72  1  0  0  0  0
 36 82  2  0  0  0  0
 37 66  1  0  0  0  0
 37 76  1  0  0  0  0
 37 83  2  0  0  0  0
 38 41  1  0  0  0  0
 39 51  1  0  0  0  0
 40 72  1  0  0  0  0
 41 43  1  0  0  0  0
 42 44  1  0  0  0  0
 42 46  1  0  0  0  0
 43 50  1  0  0  0  0
 44 54  1  0  0  0  0
 45 52  1  0  0  0  0
 45 55  1  0  0  0  0
 46 71  1  0  0  0  0
 47 54  1  0  0  0  0
 47 71  1  0  0  0  0
 48 52  1  0  0  0  0
 48 77  1  0  0  0  0
 49 55  1  0  0  0  0
 49 77  1  0  0  0  0
 50 75  1  0  0  0  0
 51 72  1  0  0  0  0
 52 53  1  0  0  0  0
 53 55  1  0  0  0  0
 53 64  1  0  0  0  0
 54 70  1  0  0  0  0
 57 64  1  0  0  0  0
 58 66  1  0  0  0  0
 59 67  1  0  0  0  0
 60 67  1  0  0  0  0
 61 67  1  0  0  0  0
 62 78  1  0  0  0  0
 63 85  1  0  0  0  0
 65 67  1  0  0  0  0
 65 76  1  0  0  0  0
 66 78  1  0  0  0  0
 69 70  1  0  0  0  0
M  CHG  2  77   1  78   1
M  ISO  4  34 100  55 100  63 101  85 101
M  END
> <Batch ID>
0180

> <Smiles>
CNC(C)C(=O)NC(C(=O)N1Cc2cc([101O:1][101CH2:1]c3cnc(C(C)C4C5CNC[100C:0]4([100C:0](=O)N4CCCC(n6nc(-c7ccc(Oc8ccc(F)cc8F)cc7)c(C(N)=O)c6N)C4)C5)cc3C)ccc2CC1C(=O)NC1CCCc2ccccc21)C(C)(C)C

> <Shape>
0.231

> <Color>
0.091

> <Negative vol penalty>
0.000

$$$$

  -OEChem-04052323003D

 85 94  0     1  0  0  0  0  0999 V2000
  -25.5844  -38.5475   18.9751 C   0  0  0  0  0  0  0  0  0  0  0  0
  -25.7580  -37.3663   18.2610 C   0  0  0  0  0  0  0  0  0  0  0  0
  -23.0635   -9.6847   21.6041 C   0  0  0  0  0  0  0  0  0  0  0  0
  -24.8096   -8.0418   21.9027 C   0  0  0  0  0  0  0  0  0  0  0  0
  -25.8881  -38.5897   20.3352 C   0  0  0  0  0  0  0  0  0  0  0  0
  -26.2366  -36.2267   18.9065 C   0  0  0  0  0  0  0  0  0  0  0  0
  -25.6597  -29.0873   18.7900 C   0  0  0  0  0  0  0  0  0  0  0  0
  -22.1648   -8.6698   21.2756 C   0  0  0  0  0  0  0  0  0  0  0  0
  -23.9108   -7.0269   21.5743 C   0  0  0  0  0  0  0  0  0  0  0  0
  -26.4543  -27.9434   18.7282 C   0  0  0  0  0  0  0  0  0  0  0  0
  -21.4243   -5.3159   23.0942 C   0  0  0  0  0  0  0  0  0  0  0  0
  -21.4201   -4.1725   23.8931 C   0  0  0  0  0  0  0  0  0  0  0  0
  -26.8709  -28.1121   21.0983 C   0  0  0  0  0  0  0  0  0  0  0  0
  -21.9817   -2.8254   21.9677 C   0  0  0  0  0  0  0  0  0  0  0  0
  -30.1969  -24.6264   18.8473 C   0  0  0  0  0  0  0  0  0  0  0  0
  -24.3860   -9.3707   21.9176 C   0  0  0  0  0  0  0  0  0  0  0  0
  -25.5827  -10.9358   23.5381 C   0  0  0  0  0  0  0  0  0  0  0  0
  -26.3616  -37.4474   20.9998 C   0  0  0  0  0  0  0  0  0  0  0  0
  -25.4732  -29.7596   20.0064 C   0  0  0  0  0  0  0  0  0  0  0  0
  -26.5483  -36.2539   20.2765 C   0  0  0  0  0  0  0  0  0  0  0  0
  -26.0713  -29.2629   21.1733 C   0  0  0  0  0  0  0  0  0  0  0  0
  -22.5884   -7.3409   21.2607 C   0  0  0  0  0  0  0  0  0  0  0  0
  -27.0624  -27.4573   19.8819 C   0  0  0  0  0  0  0  0  0  0  0  0
  -21.7071   -5.2141   21.7321 C   0  0  0  0  0  0  0  0  0  0  0  0
  -21.6988   -2.9272   23.3298 C   0  0  0  0  0  0  0  0  0  0  0  0
  -21.9859   -3.9688   21.1689 C   0  0  0  0  0  0  0  0  0  0  0  0
  -25.3150  -10.4186   22.2564 C   0  0  0  0  0  0  0  0  0  0  0  0
  -30.9002  -23.4446   18.9625 C   0  0  0  0  0  0  0  0  0  0  0  0
  -28.8330  -24.4959   18.6834 C   0  0  0  0  0  0  0  0  0  0  0  0
  -26.5322  -11.9052   23.3258 C   0  0  0  0  0  0  0  0  0  0  0  0
  -28.9900  -22.2294   18.7586 C   0  0  0  0  0  0  0  0  0  0  0  0
  -25.0230  -10.5724   24.8071 C   0  0  0  0  0  0  0  0  0  0  0  0
  -26.1515  -32.6709   21.0873 C   0  0  0  0  0  0  0  0  0  0  0  0
  -24.4824  -31.6720   23.6832 C   0  0  0  0  0  0  0  0  0  0  0  0
  -23.3533  -29.0654   25.5746 C   0  0  0  0  0  0  0  0  0  0  0  0
  -28.5548  -16.1167   20.6843 C   0  0  0  0  0  0  0  0  0  0  0  0
  -26.7213  -37.5542   22.4605 C   0  0  0  0  0  0  0  0  0  0  0  0
  -24.5914  -30.9769   20.0613 C   0  0  0  0  0  0  0  0  0  0  0  0
  -25.8862  -29.9362   22.5077 C   0  0  0  0  0  0  0  0  0  0  0  0
  -26.8684  -36.2013   23.1522 C   0  0  0  0  0  0  0  0  0  0  0  0
  -29.2736  -13.0039   19.2274 C   0  0  0  0  0  0  0  0  0  0  0  0
  -27.7098  -35.2554   22.3012 C   0  0  0  0  0  0  0  0  0  0  0  0
  -28.3225  -12.0840   19.9924 C   0  0  0  0  0  0  0  0  0  0  0  0
  -28.2277  -18.6148   18.2265 C   0  0  0  0  0  0  0  0  0  0  0  0
  -29.3958  -19.4558   20.2991 C   0  0  0  0  0  0  0  0  0  0  0  0
  -28.6191  -14.3414   18.8768 C   0  0  0  0  0  0  0  0  0  0  0  0
  -28.8781  -17.2443   18.4369 C   0  0  0  0  0  0  0  0  0  0  0  0
  -30.0429  -18.0821   20.4519 C   0  0  0  0  0  0  0  0  0  0  0  0
  -27.0845  -14.1271   20.8049 C   0  0  0  0  0  0  0  0  0  0  0  0
  -27.0418  -34.9900   20.9467 C   0  0  1  0  0  0  0  0  0  0  0  0
  -24.8878  -31.8760   21.2576 C   0  0  1  0  0  0  0  0  0  0  0  0
  -27.7332  -12.7981   21.2219 C   0  0  1  0  0  0  0  0  0  0  0  0
  -29.0750  -19.7379   18.8290 C   0  0  0  0  0  0  0  0  0  0  0  0
  -32.3806  -23.4846   19.1428 C   0  0  0  0  0  0  0  0  0  0  0  0
  -22.0471  -28.5636   27.6577 C   0  0  0  0  0  0  0  0  0  0  0  0
  -26.8894  -32.4675   25.3812 C   0  0  0  0  0  0  0  0  0  0  0  0
  -25.9354  -31.1007   27.2492 C   0  0  0  0  0  0  0  0  0  0  0  0
  -24.6716  -33.0639   26.3711 C   0  0  0  0  0  0  0  0  0  0  0  0
  -21.2906  -27.5769   24.0618 C   0  0  0  0  0  0  0  0  0  0  0  0
  -27.9883  -25.7183   18.5498 C   0  0  0  0  0  0  0  0  0  1  0  0
  -24.8303  -30.9649   24.9707 C   0  0  1  0  0  0  0  0  0  0  0  0
  -21.9829  -28.7583   26.1508 C   0  0  2  0  0  0  0  0  0  0  0  0
  -25.5869  -31.8875   25.9677 C   0  0  0  0  0  0  0  0  0  0  0  0
  -26.0362  -11.0106   21.3006 N   0  0  0  0  0  0  0  0  0  0  0  0
  -30.3267  -22.2241   18.9223 N   0  0  0  0  0  0  0  0  0  0  0  0
  -28.1941  -23.3086   18.6342 N   0  0  0  0  0  0  0  0  0  0  0  0
  -26.7663  -11.9098   21.9821 N   0  0  0  0  0  0  0  0  0  0  0  0
  -25.0200  -31.1267   22.5087 N   0  0  0  0  0  0  0  0  0  0  0  0
  -28.0367  -14.9651   20.0731 N   0  0  0  0  0  0  0  0  0  0  0  0
  -29.2105  -17.0379   19.8538 N   0  0  0  0  0  0  0  0  0  0  0  0
  -27.1814  -12.7456   24.1592 N   0  0  0  0  0  0  0  0  0  0  0  0
  -24.0589   -9.5558   24.8457 N   0  0  0  0  0  0  0  0  0  0  0  0
  -28.3681  -20.9943   18.7130 N   0  0  0  0  0  0  0  0  0  0  0  0
  -25.9605  -34.0394   21.0940 N   0  0  0  0  0  0  0  0  0  0  0  0
  -23.5792  -30.4230   25.4898 N   0  0  0  0  0  0  0  0  0  0  0  0
  -21.4304  -27.5165   25.5396 N   0  3  0  0  0  0  0  0  0  0  0  0
  -25.3557  -11.1437   25.8731 O   0  0  0  0  0  0  0  0  0  0  0  0
  -27.2208  -32.0859   20.9606 O   0  0  0  0  0  0  0  0  0  0  0  0
  -23.7543  -32.6672   23.7174 O   0  0  0  0  0  0  0  0  0  0  0  0
  -24.1458  -28.1886   25.2371 O   0  0  0  0  0  0  0  0  0  0  0  0
  -28.4384  -16.3109   21.9008 O   0  0  0  0  0  0  0  0  0  0  0  0
  -21.7116   -6.3503   20.9405 O   0  0  0  0  0  0  0  0  0  0  0  0
  -27.8444  -26.3336   19.8239 O   0  0  0  0  0  0  0  0  0  1  0  0
  -21.6963   -1.8295   24.0974 F   0  0  0  0  0  0  0  0  0  0  0  0
  -22.2595   -3.8649   19.8612 F   0  0  0  0  0  0  0  0  0  0  0  0
  1  2  1  0  0  0  0
  1  5  2  0  0  0  0
  2  6  2  0  0  0  0
  3  8  2  0  0  0  0
  3 16  1  0  0  0  0
  4  9  1  0  0  0  0
  4 16  2  0  0  0  0
  5 18  1  0  0  0  0
  6 20  1  0  0  0  0
  7 10  2  0  0  0  0
  7 19  1  0  0  0  0
  8 22  1  0  0  0  0
  9 22  2  0  0  0  0
 10 23  1  0  0  0  0
 11 12  2  0  0  0  0
 11 24  1  0  0  0  0
 12 25  1  0  0  0  0
 13 21  1  0  0  0  0
 13 23  2  0  0  0  0
 14 25  2  0  0  0  0
 14 26  1  0  0  0  0
 15 28  2  0  0  0  0
 15 29  1  0  0  0  0
 16 27  1  0  0  0  0
 17 27  1  0  0  0  0
 17 30  2  0  0  0  0
 17 32  1  0  0  0  0
 18 20  2  0  0  0  0
 18 37  1  0  0  0  0
 19 21  2  0  0  0  0
 19 38  1  0  0  0  0
 20 50  1  0  0  0  0
 21 39  1  0  0  0  0
 22 82  1  0  0  0  0
 23 83  1  0  0  0  0
 24 26  2  0  0  0  0
 24 82  1  0  0  0  0
 25 84  1  0  0  0  0
 26 85  1  0  0  0  0
 27 64  2  0  0  0  0
 28 54  1  0  0  0  0
 28 65  1  0  0  0  0
 29 60  1  0  0  0  0
 29 66  2  0  0  0  0
 30 67  1  0  0  0  0
 30 71  1  0  0  0  0
 31 65  2  0  0  0  0
 31 66  1  0  0  0  0
 31 73  1  0  0  0  0
 32 72  1  0  0  0  0
 32 77  2  0  0  0  0
 33 51  1  0  0  0  0
 33 74  1  0  0  0  0
 33 78  2  0  0  0  0
 34 61  1  0  0  0  0
 34 68  1  0  0  0  0
 34 79  2  0  0  0  0
 35 62  1  0  0  0  0
 35 75  1  0  0  0  0
 35 80  2  0  0  0  0
 36 69  1  0  0  0  0
 36 70  1  0  0  0  0
 36 81  2  0  0  0  0
 37 40  1  0  0  0  0
 38 51  1  0  0  0  0
 39 68  1  0  0  0  0
 40 42  1  0  0  0  0
 41 43  1  0  0  0  0
 41 46  1  0  0  0  0
 42 50  1  0  0  0  0
 43 52  1  0  0  0  0
 44 47  1  0  0  0  0
 44 53  1  0  0  0  0
 45 48  1  0  0  0  0
 45 53  1  0  0  0  0
 46 69  1  0  0  0  0
 47 70  1  0  0  0  0
 48 70  1  0  0  0  0
 49 52  1  0  0  0  0
 49 69  1  0  0  0  0
 50 74  1  0  0  0  0
 51 68  1  0  0  0  0
 52 67  1  0  0  0  0
 53 73  1  0  0  0  0
 55 62  1  0  0  0  0
 56 63  1  0  0  0  0
 57 63  1  0  0  0  0
 58 63  1  0  0  0  0
 59 76  1  0  0  0  0
 60 83  1  0  0  0  0
 61 63  1  0  0  0  0
 61 75  1  0  0  0  0
 62 76  1  0  0  0  0
 64 67  1  0  0  0  0
M  CHG  1  76   1
M  ISO  4  36 100  60 101  70 100  83 101
M  END
> <Batch ID>
0180

> <Smiles>
CNC(C)C(=O)NC(C(=O)N1Cc2cc([101O:1][101CH2:1]c3cc(C)nc(NC4CC[100N:0]([100C:0](=O)N5CCCC(n6nc(-c7ccc(Oc8ccc(F)cc8F)cc7)c(C(N)=O)c6N)C5)CC4)n3)ccc2CC1C(=O)NC1CCCc2ccccc21)C(C)(C)C

> <Shape>
0.302

> <Color>
0.097

> <Negative vol penalty>
0.000

$$$$

  -OEChem-04052323003D

 84 93  0     1  0  0  0  0  0999 V2000
  -28.6697  -34.5295   24.6028 C   0  0  0  0  0  0  0  0  0  0  0  0
  -29.4738  -33.5650   24.0041 C   0  0  0  0  0  0  0  0  0  0  0  0
  -22.9639  -10.0089   22.2647 C   0  0  0  0  0  0  0  0  0  0  0  0
  -23.5871   -9.5214   19.9819 C   0  0  0  0  0  0  0  0  0  0  0  0
  -27.3425  -34.2349   24.9120 C   0  0  0  0  0  0  0  0  0  0  0  0
  -28.9513  -32.3048   23.7151 C   0  0  0  0  0  0  0  0  0  0  0  0
  -29.4929  -26.9995   18.9321 C   0  0  0  0  0  0  0  0  0  0  0  0
  -22.3038   -8.7829   22.3464 C   0  0  0  0  0  0  0  0  0  0  0  0
  -22.9270   -8.2953   20.0636 C   0  0  0  0  0  0  0  0  0  0  0  0
  -29.7018  -25.6225   18.8700 C   0  0  0  0  0  0  0  0  0  0  0  0
  -23.1293   -5.5342   22.7913 C   0  0  0  0  0  0  0  0  0  0  0  0
  -23.3346   -4.7624   23.9348 C   0  0  0  0  0  0  0  0  0  0  0  0
  -27.3725  -25.2524   19.3766 C   0  0  0  0  0  0  0  0  0  0  0  0
  -29.1187  -20.6705   20.0679 C   0  0  0  0  0  0  0  0  0  0  0  0
  -20.9691   -4.8497   24.4184 C   0  0  0  0  0  0  0  0  0  0  0  0
  -23.6055  -10.3782   21.0825 C   0  0  0  0  0  0  0  0  0  0  0  0
  -25.6345  -11.9078   21.3088 C   0  0  0  0  0  0  0  0  0  0  0  0
  -26.8007  -32.9737   24.6178 C   0  0  0  0  0  0  0  0  0  0  0  0
  -28.2224  -27.5141   19.2281 C   0  0  0  0  0  0  0  0  0  0  0  0
  -27.6160  -31.9927   24.0218 C   0  0  0  0  0  0  0  0  0  0  0  0
  -27.1495  -26.6364   19.4393 C   0  0  0  0  0  0  0  0  0  0  0  0
  -29.4736  -19.3393   19.9488 C   0  0  0  0  0  0  0  0  0  0  0  0
  -28.8615  -18.5313   18.9877 C   0  0  0  0  0  0  0  0  0  0  0  0
  -22.2854   -7.9260   21.2458 C   0  0  0  0  0  0  0  0  0  0  0  0
  -28.6422  -24.7486   19.0952 C   0  0  0  0  0  0  0  0  0  0  0  0
  -21.8439   -5.9639   22.4613 C   0  0  0  0  0  0  0  0  0  0  0  0
  -22.2545   -4.4201   24.7484 C   0  0  0  0  0  0  0  0  0  0  0  0
  -20.7638   -5.6216   23.2749 C   0  0  0  0  0  0  0  0  0  0  0  0
  -24.2870  -11.6449   20.9973 C   0  0  0  0  0  0  0  0  0  0  0  0
  -28.1417  -21.1311   19.1966 C   0  0  0  0  0  0  0  0  0  0  0  0
  -27.9103  -19.0788   18.1581 C   0  0  0  0  0  0  0  0  0  0  0  0
  -25.7880  -13.2504   21.0631 C   0  0  0  0  0  0  0  0  0  0  0  0
  -26.6561  -11.0180   21.7781 C   0  0  0  0  0  0  0  0  0  0  0  0
  -27.0143  -29.3011   21.5628 C   0  0  0  0  0  0  0  0  0  0  0  0
  -24.3522  -29.2306   19.7107 C   0  0  0  0  0  0  0  0  0  0  0  0
  -22.5459  -27.6364   17.2935 C   0  0  0  0  0  0  0  0  0  0  0  0
  -24.9430  -17.7389   17.8562 C   0  0  0  0  0  0  0  0  0  0  0  0
  -25.3741  -32.6862   25.0137 C   0  0  0  0  0  0  0  0  0  0  0  0
  -28.0077  -29.0024   19.2650 C   0  0  0  0  0  0  0  0  0  0  0  0
  -29.4137  -17.1464   18.9975 C   0  0  0  0  0  0  0  0  0  0  0  0
  -25.7618  -27.1383   19.7407 C   0  0  0  0  0  0  0  0  0  0  0  0
  -24.7904  -31.4506   24.3333 C   0  0  0  0  0  0  0  0  0  0  0  0
  -30.0697  -17.1058   20.3871 C   0  0  0  0  0  0  0  0  0  0  0  0
  -22.3498  -16.8397   20.1241 C   0  0  0  0  0  0  0  0  0  0  0  0
  -25.7745  -30.2872   24.4040 C   0  0  0  0  0  0  0  0  0  0  0  0
  -22.7305  -15.4281   20.5739 C   0  0  0  0  0  0  0  0  0  0  0  0
  -22.6938  -17.0760   18.6552 C   0  0  0  0  0  0  0  0  0  0  0  0
  -24.4744  -15.3743   18.7424 C   0  0  0  0  0  0  0  0  0  0  0  0
  -27.0786  -30.6224   23.6702 C   0  0  1  0  0  0  0  0  0  0  0  0
  -26.7852  -29.4096   20.0818 C   0  0  1  0  0  0  0  0  0  0  0  0
  -24.1979  -15.1072   20.2318 C   0  0  2  0  0  0  0  0  0  0  0  0
  -30.5092  -18.5578   20.7226 C   0  0  0  0  0  0  0  0  0  0  0  0
  -30.4578  -18.8087   22.2316 C   0  0  0  0  0  0  0  0  0  0  0  0
  -31.9154  -18.8508   20.1833 C   0  0  0  0  0  0  0  0  0  0  0  0
  -20.3926  -27.7977   16.0150 C   0  0  0  0  0  0  0  0  0  0  0  0
  -22.8268  -28.2368   22.1593 C   0  0  0  0  0  0  0  0  0  0  0  0
  -20.9765  -27.5239   20.6308 C   0  0  0  0  0  0  0  0  0  0  0  0
  -21.6049  -29.9329   20.7865 C   0  0  0  0  0  0  0  0  0  0  0  0
  -23.9643  -27.8542   14.7051 C   0  0  0  0  0  0  0  0  0  0  0  0
  -27.2507  -18.2569   17.1044 C   0  0  0  0  0  0  0  0  0  0  0  0
  -27.7133  -22.5669   19.2770 C   0  0  0  0  0  0  0  0  0  1  0  0
  -23.1510  -28.3229   19.5993 C   0  0  1  0  0  0  0  0  0  0  0  0
  -21.8713  -28.1523   16.0352 C   0  0  2  0  0  0  0  0  0  0  0  0
  -22.1663  -28.4943   20.7902 C   0  0  0  0  0  0  0  0  0  0  0  0
  -23.6312  -12.7331   20.5854 N   0  0  0  0  0  0  0  0  0  0  0  0
  -27.5299  -20.3733   18.2476 N   0  0  0  0  0  0  0  0  0  0  0  0
  -24.5705  -13.6928   20.6364 N   0  0  0  0  0  0  0  0  0  0  0  0
  -25.6039  -28.6017   19.7722 N   0  0  0  0  0  0  0  0  0  0  0  0
  -24.0997  -16.7547   18.3976 N   0  0  0  0  0  0  0  0  0  0  0  0
  -26.8443  -14.0838   21.1727 N   0  0  0  0  0  0  0  0  0  0  0  0
  -26.3281   -9.6699   21.9772 N   0  0  0  0  0  0  0  0  0  0  0  0
  -26.8990  -30.5005   22.2393 N   0  0  0  0  0  0  0  0  0  0  0  0
  -22.5596  -28.5871   18.2921 N   0  0  0  0  0  0  0  0  0  0  0  0
  -26.2618  -17.3535   17.6491 N   0  0  0  0  0  0  0  0  0  0  0  0
  -22.5123  -27.5639   14.8253 N   0  3  0  0  0  0  0  0  0  0  0  0
  -27.8208  -11.4101   22.0296 O   0  0  0  0  0  0  0  0  0  0  0  0
  -27.2749  -28.2098   22.0555 O   0  0  0  0  0  0  0  0  0  0  0  0
  -24.1865  -30.4527   19.7348 O   0  0  0  0  0  0  0  0  0  0  0  0
  -23.0107  -26.5022   17.3828 O   0  0  0  0  0  0  0  0  0  0  0  0
  -24.5510  -18.8785   17.5829 O   0  0  0  0  0  0  0  0  0  0  0  0
  -21.6416   -6.7295   21.3253 O   0  0  0  0  0  0  0  0  0  0  0  0
  -28.8435  -23.4041   19.0359 O   0  0  0  0  0  0  0  0  0  1  0  0
  -22.4516   -3.6776   25.8456 F   0  0  0  0  0  0  0  0  0  0  0  0
  -19.5265   -6.0305   22.9624 F   0  0  0  0  0  0  0  0  0  0  0  0
  1  2  1  0  0  0  0
  1  5  2  0  0  0  0
  2  6  2  0  0  0  0
  3  8  2  0  0  0  0
  3 16  1  0  0  0  0
  4  9  1  0  0  0  0
  4 16  2  0  0  0  0
  5 18  1  0  0  0  0
  6 20  1  0  0  0  0
  7 10  2  0  0  0  0
  7 19  1  0  0  0  0
  8 24  1  0  0  0  0
  9 24  2  0  0  0  0
 10 25  1  0  0  0  0
 11 12  2  0  0  0  0
 11 26  1  0  0  0  0
 12 27  1  0  0  0  0
 13 21  1  0  0  0  0
 13 25  2  0  0  0  0
 14 22  2  0  0  0  0
 14 30  1  0  0  0  0
 15 27  2  0  0  0  0
 15 28  1  0  0  0  0
 16 29  1  0  0  0  0
 17 29  1  0  0  0  0
 17 32  2  0  0  0  0
 17 33  1  0  0  0  0
 18 20  2  0  0  0  0
 18 38  1  0  0  0  0
 19 21  2  0  0  0  0
 19 39  1  0  0  0  0
 20 49  1  0  0  0  0
 21 41  1  0  0  0  0
 22 23  1  0  0  0  0
 22 52  1  0  0  0  0
 23 31  2  0  0  0  0
 23 40  1  0  0  0  0
 24 81  1  0  0  0  0
 25 82  1  0  0  0  0
 26 28  2  0  0  0  0
 26 81  1  0  0  0  0
 27 83  1  0  0  0  0
 28 84  1  0  0  0  0
 29 65  2  0  0  0  0
 30 61  1  0  0  0  0
 30 66  2  0  0  0  0
 31 60  1  0  0  0  0
 31 66  1  0  0  0  0
 32 67  1  0  0  0  0
 32 70  1  0  0  0  0
 33 71  1  0  0  0  0
 33 76  2  0  0  0  0
 34 50  1  0  0  0  0
 34 72  1  0  0  0  0
 34 77  2  0  0  0  0
 35 62  1  0  0  0  0
 35 68  1  0  0  0  0
 35 78  2  0  0  0  0
 36 63  1  0  0  0  0
 36 73  1  0  0  0  0
 36 79  2  0  0  0  0
 37 69  1  0  0  0  0
 37 74  1  0  0  0  0
 37 80  2  0  0  0  0
 38 42  1  0  0  0  0
 39 50  1  0  0  0  0
 40 43  1  0  0  0  0
 41 68  1  0  0  0  0
 42 45  1  0  0  0  0
 43 52  1  0  0  0  0
 44 46  1  0  0  0  0
 44 47  1  0  0  0  0
 45 49  1  0  0  0  0
 46 51  1  0  0  0  0
 47 69  1  0  0  0  0
 48 51  1  0  0  0  0
 48 69  1  0  0  0  0
 49 72  1  0  0  0  0
 50 68  1  0  0  0  0
 51 67  1  0  0  0  0
 52 53  1  0  0  0  0
 52 54  1  0  0  0  0
 55 63  1  0  0  0  0
 56 64  1  0  0  0  0
 57 64  1  0  0  0  0
 58 64  1  0  0  0  0
 59 75  1  0  0  0  0
 60 74  1  0  0  0  0
 61 82  1  0  0  0  0
 62 64  1  0  0  0  0
 62 73  1  0  0  0  0
 63 75  1  0  0  0  0
 65 67  1  0  0  0  0
M  CHG  1  75   1
M  ISO  4  37 100  61 101  74 100  82 101
M  END
> <Batch ID>
0180

> <Smiles>
CNC(C)C(=O)NC(C(=O)N1Cc2cc([101O:1][101CH2:1]c3cc4c(c(C[100NH:0][100C:0](=O)N5CCCC(n6nc(-c7ccc(Oc8ccc(F)cc8F)cc7)c(C(N)=O)c6N)C5)n3)CCC4(C)C)ccc2CC1C(=O)NC1CCCc2ccccc21)C(C)(C)C

> <Shape>
0.308

> <Color>
0.090

> <Negative vol penalty>
0.000

$$$$

  -OEChem-04052323003D

 80 88  0     1  0  0  0  0  0999 V2000
  -16.7473  -28.5918   22.9153 C   0  0  0  0  0  0  0  0  0  0  0  0
  -17.6326  -27.5212   22.8417 C   0  0  0  0  0  0  0  0  0  0  0  0
  -23.5062   -9.6719   20.3116 C   0  0  0  0  0  0  0  0  0  0  0  0
  -23.9869  -10.1843   22.6232 C   0  0  0  0  0  0  0  0  0  0  0  0
  -17.2363  -29.8941   23.0084 C   0  0  0  0  0  0  0  0  0  0  0  0
  -19.0076  -27.7524   22.8601 C   0  0  0  0  0  0  0  0  0  0  0  0
  -23.3043  -24.2018   25.3973 C   0  0  0  0  0  0  0  0  0  0  0  0
  -27.5370  -19.5665   24.0928 C   0  0  0  0  0  0  0  0  0  0  0  0
  -22.9039   -8.4759   20.7020 C   0  0  0  0  0  0  0  0  0  0  0  0
  -23.3844   -8.9883   23.0136 C   0  0  0  0  0  0  0  0  0  0  0  0
  -24.1686  -23.2476   24.8623 C   0  0  0  0  0  0  0  0  0  0  0  0
  -20.2485   -7.8108   23.4609 C   0  0  0  0  0  0  0  0  0  0  0  0
  -19.3736   -7.8517   24.5464 C   0  0  0  0  0  0  0  0  0  0  0  0
  -28.5404  -18.7580   23.5704 C   0  0  0  0  0  0  0  0  0  0  0  0
  -25.9021  -24.9173   24.7006 C   0  0  0  0  0  0  0  0  0  0  0  0
  -20.7755   -6.2839   25.7354 C   0  0  0  0  0  0  0  0  0  0  0  0
  -24.0478  -10.5261   21.2723 C   0  0  0  0  0  0  0  0  0  0  0  0
  -24.0512  -13.0167   20.7203 C   0  0  0  0  0  0  0  0  0  0  0  0
  -18.6180  -30.1408   23.0377 C   0  0  0  0  0  0  0  0  0  0  0  0
  -23.7297  -25.5257   25.5781 C   0  0  0  0  0  0  0  0  0  0  0  0
  -19.5156  -29.0594   22.9523 C   0  0  0  0  0  0  0  0  0  0  0  0
  -25.0421  -25.8858   25.2404 C   0  0  0  0  0  0  0  0  0  0  0  0
  -26.8859  -20.4773   23.2682 C   0  0  0  0  0  0  0  0  0  0  0  0
  -22.8429   -8.1341   22.0530 C   0  0  0  0  0  0  0  0  0  0  0  0
  -25.4668  -23.6059   24.5112 C   0  0  0  0  0  0  0  0  0  0  0  0
  -21.3869   -7.0063   23.5125 C   0  0  0  0  0  0  0  0  0  0  0  0
  -19.6371   -7.0883   25.6837 C   0  0  0  0  0  0  0  0  0  0  0  0
  -21.6504   -6.2429   24.6498 C   0  0  0  0  0  0  0  0  0  0  0  0
  -24.6707  -11.7614   20.8696 C   0  0  0  0  0  0  0  0  0  0  0  0
  -28.8528  -18.8979   22.2277 C   0  0  0  0  0  0  0  0  0  0  0  0
  -27.2725  -20.5404   21.9392 C   0  0  0  0  0  0  0  0  0  0  0  0
  -25.0648  -13.8549   20.3247 C   0  0  0  0  0  0  0  0  0  0  0  0
  -22.6820  -13.3915   20.9214 C   0  0  0  0  0  0  0  0  0  0  0  0
  -22.8276  -28.3485   24.4283 C   0  0  0  0  0  0  0  0  0  0  0  0
  -24.9939  -29.4737   26.5644 C   0  0  0  0  0  0  0  0  0  0  0  0
  -27.7883  -28.8936   28.4356 C   0  0  0  0  0  0  0  0  0  0  0  0
  -30.2974  -15.7327   20.8130 C   0  0  0  0  0  0  0  0  0  0  0  0
  -19.0995  -31.5690   23.0916 C   0  0  0  0  0  0  0  0  0  0  0  0
  -22.7936  -26.5369   26.1812 C   0  0  0  0  0  0  0  0  0  0  0  0
  -25.5540  -27.2891   25.4335 C   0  0  0  0  0  0  0  0  0  0  0  0
  -20.5690  -31.7021   23.4827 C   0  0  0  0  0  0  0  0  0  0  0  0
  -29.7826  -12.8317   18.8141 C   0  0  0  0  0  0  0  0  0  0  0  0
  -21.4230  -30.7149   22.6935 C   0  0  0  0  0  0  0  0  0  0  0  0
  -28.3587  -12.3950   19.1630 C   0  0  0  0  0  0  0  0  0  0  0  0
  -30.5152  -13.3923   20.0311 C   0  0  0  0  0  0  0  0  0  0  0  0
  -28.3832  -14.0417   21.0831 C   0  0  0  0  0  0  0  0  0  0  0  0
  -21.0139  -29.2679   22.9944 C   0  0  1  0  0  0  0  0  0  0  0  0
  -23.1702  -27.9760   25.8430 C   0  0  1  0  0  0  0  0  0  0  0  0
  -27.5855  -13.5212   19.8752 C   0  0  2  0  0  0  0  0  0  0  0  0
  -26.6060  -21.4976   21.0063 C   0  0  0  0  0  0  0  0  0  0  0  0
  -29.3435  -30.0161   30.0539 C   0  0  0  0  0  0  0  0  0  0  0  0
  -26.2884  -30.9976   24.2596 C   0  0  0  0  0  0  0  0  0  0  0  0
  -28.3164  -31.3067   25.6948 C   0  0  0  0  0  0  0  0  0  0  0  0
  -26.1310  -32.2806   26.4005 C   0  0  0  0  0  0  0  0  0  0  0  0
  -27.1501  -26.9512   30.5755 C   0  0  0  0  0  0  0  0  0  0  0  0
  -25.8033  -21.3534   23.8265 C   0  0  0  0  0  0  0  0  0  1  0  0
  -29.9235  -18.0448   21.6335 C   0  0  0  0  0  0  0  0  0  0  0  0
  -26.4720  -29.7787   26.5282 C   0  0  1  0  0  0  0  0  0  0  0  0
  -28.0950  -29.1619   29.8979 C   0  0  2  0  0  0  0  0  0  0  0  0
  -26.7920  -31.0648   25.7152 C   0  0  0  0  0  0  0  0  0  0  0  0
  -25.9766  -11.7945   20.5913 N   0  0  0  0  0  0  0  0  0  0  0  0
  -28.2425  -19.7713   21.3957 N   0  0  0  0  0  0  0  0  0  0  0  0
  -26.1860  -13.0808   20.2630 N   0  0  0  0  0  0  0  0  0  0  0  0
  -24.5989  -28.2431   26.0208 N   0  0  0  0  0  0  0  0  0  0  0  0
  -29.7296  -14.4571   20.6595 N   0  0  0  0  0  0  0  0  0  0  0  0
  -25.0974  -15.1712   20.0268 N   0  0  0  0  0  0  0  0  0  0  0  0
  -21.7723  -12.4060   21.3283 N   0  0  0  0  0  0  0  0  0  0  0  0
  -21.5483  -28.8469   24.2717 N   0  0  0  0  0  0  0  0  0  0  0  0
  -26.9133  -29.8251   27.9180 N   0  0  0  0  0  0  0  0  0  0  0  0
  -29.4828  -16.6855   21.4124 N   0  0  0  0  0  0  0  0  0  0  0  0
  -28.3090  -27.8793   30.6261 N   0  3  0  0  0  0  0  0  0  0  0  0
  -22.2739  -14.5621   20.7297 O   0  0  0  0  0  0  0  0  0  0  0  0
  -23.6626  -28.1964   23.5443 O   0  0  0  0  0  0  0  0  0  0  0  0
  -24.2192  -30.2939   27.0632 O   0  0  0  0  0  0  0  0  0  0  0  0
  -28.2790  -27.9539   27.8136 O   0  0  0  0  0  0  0  0  0  0  0  0
  -31.4434  -16.0038   20.4386 O   0  0  0  0  0  0  0  0  0  0  0  0
  -22.2550   -6.9673   22.4343 O   0  0  0  0  0  0  0  0  0  0  0  0
  -26.3123  -22.6767   23.9882 O   0  0  0  0  0  0  0  0  0  1  0  0
  -18.7976   -7.1289   26.7267 F   0  0  0  0  0  0  0  0  0  0  0  0
  -22.7430   -5.4690   24.7057 F   0  0  0  0  0  0  0  0  0  0  0  0
  1  2  1  0  0  0  0
  1  5  2  0  0  0  0
  2  6  2  0  0  0  0
  3  9  2  0  0  0  0
  3 17  1  0  0  0  0
  4 10  1  0  0  0  0
  4 17  2  0  0  0  0
  5 19  1  0  0  0  0
  6 21  1  0  0  0  0
  7 11  2  0  0  0  0
  7 20  1  0  0  0  0
  8 14  2  0  0  0  0
  8 23  1  0  0  0  0
  9 24  1  0  0  0  0
 10 24  2  0  0  0  0
 11 25  1  0  0  0  0
 12 13  2  0  0  0  0
 12 26  1  0  0  0  0
 13 27  1  0  0  0  0
 14 30  1  0  0  0  0
 15 22  1  0  0  0  0
 15 25  2  0  0  0  0
 16 27  2  0  0  0  0
 16 28  1  0  0  0  0
 17 29  1  0  0  0  0
 18 29  1  0  0  0  0
 18 32  2  0  0  0  0
 18 33  1  0  0  0  0
 19 21  2  0  0  0  0
 19 38  1  0  0  0  0
 20 22  2  0  0  0  0
 20 39  1  0  0  0  0
 21 47  1  0  0  0  0
 22 40  1  0  0  0  0
 23 31  2  0  0  0  0
 23 56  1  0  0  0  0
 24 77  1  0  0  0  0
 25 78  1  0  0  0  0
 26 28  2  0  0  0  0
 26 77  1  0  0  0  0
 27 79  1  0  0  0  0
 28 80  1  0  0  0  0
 29 61  2  0  0  0  0
 30 57  1  0  0  0  0
 30 62  2  0  0  0  0
 31 50  1  0  0  0  0
 31 62  1  0  0  0  0
 32 63  1  0  0  0  0
 32 66  1  0  0  0  0
 33 67  1  0  0  0  0
 33 72  2  0  0  0  0
 34 48  1  0  0  0  0
 34 68  1  0  0  0  0
 34 73  2  0  0  0  0
 35 58  1  0  0  0  0
 35 64  1  0  0  0  0
 35 74  2  0  0  0  0
 36 59  1  0  0  0  0
 36 69  1  0  0  0  0
 36 75  2  0  0  0  0
 37 65  1  0  0  0  0
 37 70  1  0  0  0  0
 37 76  2  0  0  0  0
 38 41  1  0  0  0  0
 39 48  1  0  0  0  0
 40 64  1  0  0  0  0
 41 43  1  0  0  0  0
 42 44  1  0  0  0  0
 42 45  1  0  0  0  0
 43 47  1  0  0  0  0
 44 49  1  0  0  0  0
 45 65  1  0  0  0  0
 46 49  1  0  0  0  0
 46 65  1  0  0  0  0
 47 68  1  0  0  0  0
 48 64  1  0  0  0  0
 49 63  1  0  0  0  0
 51 59  1  0  0  0  0
 52 60  1  0  0  0  0
 53 60  1  0  0  0  0
 54 60  1  0  0  0  0
 55 71  1  0  0  0  0
 56 78  1  0  0  0  0
 57 70  1  0  0  0  0
 58 60  1  0  0  0  0
 58 69  1  0  0  0  0
 59 71  1  0  0  0  0
 61 63  1  0  0  0  0
M  CHG  1  71   1
M  ISO  4  37 100  56 101  70 100  78 101
M  END
> <Batch ID>
0180

> <Smiles>
CNC(C)C(=O)NC(C(=O)N1Cc2cc([101O:1][101CH2:1]c3ccc(C[100NH:0][100C:0](=O)N4CCCC(n5nc(-c6ccc(Oc7ccc(F)cc7F)cc6)c(C(N)=O)c5N)C4)nc3C)ccc2CC1C(=O)NC1CCCc2ccccc21)C(C)(C)C

> <Shape>
0.271

> <Color>
0.191

> <Negative vol penalty>
0.000

$$$$

  -OEChem-04052323003D

 89 98  0     1  0  0  0  0  0999 V2000
  -36.0682  -32.1330   21.5682 C   0  0  0  0  0  0  0  0  0  0  0  0
  -35.1727  -31.0699   21.5111 C   0  0  0  0  0  0  0  0  0  0  0  0
  -23.0316   -9.9829   19.9025 C   0  0  0  0  0  0  0  0  0  0  0  0
  -23.8164   -9.8790   22.1851 C   0  0  0  0  0  0  0  0  0  0  0  0
  -35.7627  -33.3352   20.9317 C   0  0  0  0  0  0  0  0  0  0  0  0
  -33.9706  -31.2088   20.8182 C   0  0  0  0  0  0  0  0  0  0  0  0
  -32.9349  -27.2003   17.9018 C   0  0  0  0  0  0  0  0  0  0  0  0
  -22.2762   -8.8288   20.1096 C   0  0  0  0  0  0  0  0  0  0  0  0
  -23.0610   -8.7249   22.3923 C   0  0  0  0  0  0  0  0  0  0  0  0
  -32.4303  -26.0655   18.5353 C   0  0  0  0  0  0  0  0  0  0  0  0
  -23.3044   -5.4277   21.6851 C   0  0  0  0  0  0  0  0  0  0  0  0
  -23.9148   -4.3642   22.3499 C   0  0  0  0  0  0  0  0  0  0  0  0
  -30.2017  -26.6783   17.8447 C   0  0  0  0  0  0  0  0  0  0  0  0
  -29.7493  -21.3598   21.8739 C   0  0  0  0  0  0  0  0  0  0  0  0
  -22.2344   -4.4822   24.0818 C   0  0  0  0  0  0  0  0  0  0  0  0
  -23.8018  -10.5080   20.9402 C   0  0  0  0  0  0  0  0  0  0  0  0
  -24.1737  -13.0317   20.9282 C   0  0  0  0  0  0  0  0  0  0  0  0
  -34.5606  -33.4857   20.2225 C   0  0  0  0  0  0  0  0  0  0  0  0
  -32.0739  -28.0900   17.2433 C   0  0  0  0  0  0  0  0  0  0  0  0
  -33.6482  -32.4146   20.1726 C   0  0  0  0  0  0  0  0  0  0  0  0
  -30.6982  -27.8224   17.2015 C   0  0  0  0  0  0  0  0  0  0  0  0
  -29.6130  -20.7745   20.5887 C   0  0  0  0  0  0  0  0  0  0  0  0
  -22.2908   -8.1998   21.3545 C   0  0  0  0  0  0  0  0  0  0  0  0
  -31.0632  -25.8058   18.5092 C   0  0  0  0  0  0  0  0  0  0  0  0
  -22.1590   -6.0185   22.2187 C   0  0  0  0  0  0  0  0  0  0  0  0
  -23.3799   -3.8914   23.5482 C   0  0  0  0  0  0  0  0  0  0  0  0
  -21.6240   -5.5457   23.4170 C   0  0  0  0  0  0  0  0  0  0  0  0
  -24.5828  -11.6999   20.7267 C   0  0  0  0  0  0  0  0  0  0  0  0
  -30.2252  -21.6293   19.6941 C   0  0  0  0  0  0  0  0  0  0  0  0
  -30.4517  -22.5368   21.7190 C   0  0  0  0  0  0  0  0  0  0  0  0
  -25.2711  -13.7835   20.5860 C   0  0  0  0  0  0  0  0  0  0  0  0
  -22.9144  -13.5436   21.3840 C   0  0  0  0  0  0  0  0  0  0  0  0
  -31.3066  -31.1530   17.6078 C   0  0  0  0  0  0  0  0  0  0  0  0
  -29.6489  -30.6614   14.8633 C   0  0  0  0  0  0  0  0  0  0  0  0
  -28.0862  -28.4581   12.7775 C   0  0  0  0  0  0  0  0  0  0  0  0
  -30.7688  -14.7275   20.7566 C   0  0  0  0  0  0  0  0  0  0  0  0
  -34.2529  -34.8200   19.5902 C   0  0  0  0  0  0  0  0  0  0  0  0
  -32.6371  -29.2956   16.5420 C   0  0  0  0  0  0  0  0  0  0  0  0
  -29.7340  -28.7353   16.4906 C   0  0  0  0  0  0  0  0  0  0  0  0
  -30.3359  -21.4362   18.2269 C   0  0  0  0  0  0  0  0  0  0  0  0
  -33.1266  -34.7613   18.5615 C   0  0  0  0  0  0  0  0  0  0  0  0
  -29.3272  -20.3668   17.7707 C   0  0  0  0  0  0  0  0  0  0  0  0
  -29.5757  -12.4651   18.2798 C   0  0  0  0  0  0  0  0  0  0  0  0
  -31.9446  -33.9676   19.1089 C   0  0  0  0  0  0  0  0  0  0  0  0
  -28.1395  -12.1697   18.7157 C   0  0  0  0  0  0  0  0  0  0  0  0
  -30.5085  -12.6214   19.4787 C   0  0  0  0  0  0  0  0  0  0  0  0
  -28.6312  -13.3129   20.9179 C   0  0  0  0  0  0  0  0  0  0  0  0
  -32.3452  -32.5183   19.4100 C   0  0  1  0  0  0  0  0  0  0  0  0
  -28.9273  -19.5177   20.1596 C   0  0  1  0  0  0  0  0  0  0  0  0
  -31.6087  -30.4043   16.3406 C   0  0  1  0  0  0  0  0  0  0  0  0
  -29.3246  -19.1240   18.7027 C   0  0  1  0  0  0  0  0  0  0  0  0
  -27.6422  -13.2024   19.7449 C   0  0  2  0  0  0  0  0  0  0  0  0
  -30.8682  -23.5275   22.7335 C   0  0  0  0  0  0  0  0  0  0  0  0
  -26.7908  -28.3580   10.6306 C   0  0  0  0  0  0  0  0  0  0  0  0
  -27.1193  -18.6905   17.5835 C   0  0  0  0  0  0  0  0  0  0  0  0
  -29.1090  -17.2617   17.0329 C   0  0  0  0  0  0  0  0  0  0  0  0
  -30.4984  -17.1534   23.5271 C   0  0  0  0  0  0  0  0  0  0  0  0
  -27.1915  -31.7634   16.2975 C   0  0  0  0  0  0  0  0  0  0  0  0
  -25.7760  -30.7732   14.4853 C   0  0  0  0  0  0  0  0  0  0  0  0
  -27.4531  -32.5354   13.9332 C   0  0  0  0  0  0  0  0  0  0  0  0
  -30.1072  -26.7106   11.5044 C   0  0  0  0  0  0  0  0  0  0  0  0
  -30.6457  -17.9778   21.1158 C   0  0  0  0  0  0  0  0  0  0  0  0
  -31.5028  -23.8407   19.7870 C   0  0  0  0  0  0  0  0  0  1  0  0
  -28.2482  -30.2099   14.5266 C   0  0  1  0  0  0  0  0  0  0  0  0
  -28.1656  -28.2649   11.2739 C   0  0  2  0  0  0  0  0  0  0  0  0
  -28.3953  -18.0529   18.1245 C   0  0  0  0  0  0  0  0  0  0  0  0
  -30.8749  -16.8201   22.0867 C   0  0  2  0  0  0  0  0  0  0  0  0
  -27.1849  -31.3041   14.8258 C   0  0  0  0  0  0  0  0  0  0  0  0
  -25.8417  -11.6076   20.2901 N   0  0  0  0  0  0  0  0  0  0  0  0
  -30.7390  -22.6898   20.3861 N   0  0  0  0  0  0  0  0  0  0  0  0
  -26.2332  -12.8910   20.2144 N   0  0  0  0  0  0  0  0  0  0  0  0
  -30.3324  -29.9045   15.8254 N   0  0  0  0  0  0  0  0  0  0  0  0
  -29.9805  -13.6161   20.4156 N   0  0  0  0  0  0  0  0  0  0  0  0
  -25.4973  -15.1143   20.5696 N   0  0  0  0  0  0  0  0  0  0  0  0
  -21.8950  -12.6325   21.6922 N   0  0  0  0  0  0  0  0  0  0  0  0
  -32.4114  -31.7477   18.1869 N   0  0  0  0  0  0  0  0  0  0  0  0
  -28.2830  -29.7754   13.1343 N   0  0  0  0  0  0  0  0  0  0  0  0
  -30.1905  -15.6251   21.6457 N   0  0  0  0  0  0  0  0  0  0  0  0
  -29.2139  -18.3650   21.0660 N   0  3  0  0  0  0  0  0  0  0  0  0
  -28.7453  -26.9300   10.9530 N   0  3  0  0  0  0  0  0  0  0  0  0
  -22.6941  -14.7732   21.4984 O   0  0  0  0  0  0  0  0  0  0  0  0
  -30.1562  -31.1897   18.0283 O   0  0  0  0  0  0  0  0  0  0  0  0
  -30.1218  -31.6450   14.2884 O   0  0  0  0  0  0  0  0  0  0  0  0
  -27.8675  -27.5336   13.5572 O   0  0  0  0  0  0  0  0  0  0  0  0
  -31.9019  -14.9093   20.2983 O   0  0  0  0  0  0  0  0  0  0  0  0
  -21.5536   -7.0737   21.5571 O   0  0  0  0  0  0  0  0  0  0  0  0
  -30.5680  -24.6991   19.1272 O   0  0  0  0  0  0  0  0  0  1  0  0
  -23.9653   -2.8692   24.1857 F   0  0  0  0  0  0  0  0  0  0  0  0
  -20.5231   -6.1085   23.9338 F   0  0  0  0  0  0  0  0  0  0  0  0
  1  2  1  0  0  0  0
  1  5  2  0  0  0  0
  2  6  2  0  0  0  0
  3  8  2  0  0  0  0
  3 16  1  0  0  0  0
  4  9  1  0  0  0  0
  4 16  2  0  0  0  0
  5 18  1  0  0  0  0
  6 20  1  0  0  0  0
  7 10  2  0  0  0  0
  7 19  1  0  0  0  0
  8 23  1  0  0  0  0
  9 23  2  0  0  0  0
 10 24  1  0  0  0  0
 11 12  2  0  0  0  0
 11 25  1  0  0  0  0
 12 26  1  0  0  0  0
 13 21  1  0  0  0  0
 13 24  2  0  0  0  0
 14 22  1  0  0  0  0
 14 30  2  0  0  0  0
 15 26  2  0  0  0  0
 15 27  1  0  0  0  0
 16 28  1  0  0  0  0
 17 28  1  0  0  0  0
 17 31  2  0  0  0  0
 17 32  1  0  0  0  0
 18 20  2  0  0  0  0
 18 37  1  0  0  0  0
 19 21  2  0  0  0  0
 19 38  1  0  0  0  0
 20 48  1  0  0  0  0
 21 39  1  0  0  0  0
 22 29  2  0  0  0  0
 22 49  1  0  0  0  0
 23 86  1  0  0  0  0
 24 87  1  0  0  0  0
 25 27  2  0  0  0  0
 25 86  1  0  0  0  0
 26 88  1  0  0  0  0
 27 89  1  0  0  0  0
 28 69  2  0  0  0  0
 29 40  1  0  0  0  0
 29 70  1  0  0  0  0
 30 53  1  0  0  0  0
 30 70  1  0  0  0  0
 31 71  1  0  0  0  0
 31 74  1  0  0  0  0
 32 75  1  0  0  0  0
 32 81  2  0  0  0  0
 33 50  1  0  0  0  0
 33 76  1  0  0  0  0
 33 82  2  0  0  0  0
 34 64  1  0  0  0  0
 34 72  1  0  0  0  0
 34 83  2  0  0  0  0
 35 65  1  0  0  0  0
 35 77  1  0  0  0  0
 35 84  2  0  0  0  0
 36 73  1  0  0  0  0
 36 78  1  0  0  0  0
 36 85  2  0  0  0  0
 37 41  1  0  0  0  0
 38 50  1  0  0  0  0
 39 72  1  0  0  0  0
 40 42  1  0  0  0  0
 41 44  1  0  0  0  0
 42 51  1  0  0  0  0
 43 45  1  0  0  0  0
 43 46  1  0  0  0  0
 44 48  1  0  0  0  0
 45 52  1  0  0  0  0
 46 73  1  0  0  0  0
 47 52  1  0  0  0  0
 47 73  1  0  0  0  0
 48 76  1  0  0  0  0
 49 51  1  0  0  0  0
 49 79  1  0  0  0  0
 50 72  1  0  0  0  0
 51 66  1  0  0  0  0
 52 71  1  0  0  0  0
 54 65  1  0  0  0  0
 55 66  1  0  0  0  0
 56 66  1  0  0  0  0
 57 67  1  0  0  0  0
 58 68  1  0  0  0  0
 59 68  1  0  0  0  0
 60 68  1  0  0  0  0
 61 80  1  0  0  0  0
 62 67  1  0  0  0  0
 62 79  1  0  0  0  0
 63 70  1  0  0  0  0
 63 87  1  0  0  0  0
 64 68  1  0  0  0  0
 64 77  1  0  0  0  0
 65 80  1  0  0  0  0
 67 78  1  0  0  0  0
 69 71  1  0  0  0  0
M  CHG  2  79   1  80   1
M  ISO  4  36 100  63 101  78 100  87 101
M  END
> <Batch ID>
0180

> <Smiles>
CNC(C)C(=O)NC(C(=O)N1Cc2cc([101O:1][101CH2:1]n3c(C)cc4c3CCC(C(C)C)C4NCC(C)[100NH:0][100C:0](=O)N3CCCC(n4nc(-c5ccc(Oc6ccc(F)cc6F)cc5)c(C(N)=O)c4N)C3)ccc2CC1C(=O)NC1CCCc2ccccc21)C(C)(C)C

> <Shape>
0.248

> <Color>
0.199

> <Negative vol penalty>
0.000

$$$$

  -OEChem-04052323003D

 84 93  0     1  0  0  0  0  0999 V2000
  -28.3487  -37.6558   19.5715 C   0  0  0  0  0  0  0  0  0  0  0  0
  -28.7312  -36.3352   19.3593 C   0  0  0  0  0  0  0  0  0  0  0  0
  -23.6514   -9.2997   19.9875 C   0  0  0  0  0  0  0  0  0  0  0  0
  -23.7899   -9.4670   22.3937 C   0  0  0  0  0  0  0  0  0  0  0  0
  -27.4923  -37.9715   20.6255 C   0  0  0  0  0  0  0  0  0  0  0  0
  -28.2584  -35.3295   20.2016 C   0  0  0  0  0  0  0  0  0  0  0  0
  -26.8910  -29.5658   18.6474 C   0  0  0  0  0  0  0  0  0  0  0  0
  -23.5200   -7.9150   20.0913 C   0  0  0  0  0  0  0  0  0  0  0  0
  -23.6584   -8.0822   22.4975 C   0  0  0  0  0  0  0  0  0  0  0  0
  -27.6012  -28.3711   18.7571 C   0  0  0  0  0  0  0  0  0  0  0  0
  -21.1700   -5.8002   22.3518 C   0  0  0  0  0  0  0  0  0  0  0  0
  -20.2899   -5.3046   23.3137 C   0  0  0  0  0  0  0  0  0  0  0  0
  -26.4614  -27.8906   20.8281 C   0  0  0  0  0  0  0  0  0  0  0  0
  -22.1141   -4.1318   24.3786 C   0  0  0  0  0  0  0  0  0  0  0  0
  -23.7864  -10.0757   21.1387 C   0  0  0  0  0  0  0  0  0  0  0  0
  -22.8881  -12.4607   21.0256 C   0  0  0  0  0  0  0  0  0  0  0  0
  -27.0010  -36.9679   21.4753 C   0  0  0  0  0  0  0  0  0  0  0  0
  -25.9670  -29.9377   19.6345 C   0  0  0  0  0  0  0  0  0  0  0  0
  -27.3956  -35.6323   21.2688 C   0  0  0  0  0  0  0  0  0  0  0  0
  -25.7389  -29.0893   20.7273 C   0  0  0  0  0  0  0  0  0  0  0  0
  -28.4219  -23.2571   21.8683 C   0  0  0  0  0  0  0  0  0  0  0  0
  -23.5234   -7.3062   21.3463 C   0  0  0  0  0  0  0  0  0  0  0  0
  -27.3886  -27.5347   19.8490 C   0  0  0  0  0  0  0  0  0  0  0  0
  -22.5222   -5.4615   22.4032 C   0  0  0  0  0  0  0  0  0  0  0  0
  -20.7619   -4.4704   24.3271 C   0  0  0  0  0  0  0  0  0  0  0  0
  -22.9942   -4.6274   23.4166 C   0  0  0  0  0  0  0  0  0  0  0  0
  -23.9229  -11.5062   21.0322 C   0  0  0  0  0  0  0  0  0  0  0  0
  -28.6889  -24.3418   21.0580 C   0  0  0  0  0  0  0  0  0  0  0  0
  -29.2903  -22.1918   21.7453 C   0  0  0  0  0  0  0  0  0  0  0  0
  -23.5342  -13.6667   20.9054 C   0  0  0  0  0  0  0  0  0  0  0  0
  -30.4962  -23.2925   20.1637 C   0  0  0  0  0  0  0  0  0  0  0  0
  -21.4697  -12.2738   21.1198 C   0  0  0  0  0  0  0  0  0  0  0  0
  -25.7143  -32.3665   21.6694 C   0  0  0  0  0  0  0  0  0  0  0  0
  -22.8431  -31.0081   22.3277 C   0  0  0  0  0  0  0  0  0  0  0  0
  -20.8972  -28.2045   22.3313 C   0  0  0  0  0  0  0  0  0  0  0  0
  -27.5540  -17.0337   22.6170 C   0  0  0  0  0  0  0  0  0  0  0  0
  -26.1152  -37.3639   22.6300 C   0  0  0  0  0  0  0  0  0  0  0  0
  -25.1895  -31.2169   19.4879 C   0  0  0  0  0  0  0  0  0  0  0  0
  -24.7431  -29.4330   21.8038 C   0  0  0  0  0  0  0  0  0  0  0  0
  -25.3605  -36.1903   23.2490 C   0  0  0  0  0  0  0  0  0  0  0  0
  -28.3309  -14.7533   19.8108 C   0  0  0  0  0  0  0  0  0  0  0  0
  -26.3001  -35.0097   23.4728 C   0  0  0  0  0  0  0  0  0  0  0  0
  -27.1886  -13.7491   19.9267 C   0  0  0  0  0  0  0  0  0  0  0  0
  -28.7640  -15.2924   21.1737 C   0  0  0  0  0  0  0  0  0  0  0  0
  -26.4958  -14.8632   22.0826 C   0  0  0  0  0  0  0  0  0  0  0  0
  -27.9100  -20.2470   22.5472 C   0  0  0  0  0  0  0  0  0  0  0  0
  -29.9860  -20.0018   22.7702 C   0  0  0  0  0  0  0  0  0  0  0  0
  -26.8841  -34.5102   22.1459 C   0  0  1  0  0  0  0  0  0  0  0  0
  -24.6483  -31.7425   20.8139 C   0  0  1  0  0  0  0  0  0  0  0  0
  -26.0168  -14.3520   20.7156 C   0  0  2  0  0  0  0  0  0  0  0  0
  -28.7765  -19.1529   23.1868 C   0  0  0  0  0  0  0  0  0  0  0  0
  -27.2692  -23.2469   22.8105 C   0  0  0  0  0  0  0  0  0  0  0  0
  -31.6482  -23.3122   19.2172 C   0  0  0  0  0  0  0  0  0  0  0  0
  -18.6069  -27.3970   22.9638 C   0  0  0  0  0  0  0  0  0  0  0  0
  -23.6570  -31.0103   25.2683 C   0  0  0  0  0  0  0  0  0  0  0  0
  -21.8119  -29.3762   25.7083 C   0  0  0  0  0  0  0  0  0  0  0  0
  -21.2781  -31.6545   24.8439 C   0  0  0  0  0  0  0  0  0  0  0  0
  -20.2684  -27.4432   19.5413 C   0  0  0  0  0  0  0  0  0  0  0  0
  -27.8133  -25.5594   21.1035 C   0  0  0  0  0  0  0  0  0  1  0  0
  -22.3525  -29.9639   23.3013 C   0  0  1  0  0  0  0  0  0  0  0  0
  -19.4769  -27.9635   21.8525 C   0  0  2  0  0  0  0  0  0  0  0  0
  -22.2951  -30.4954   24.7613 C   0  0  0  0  0  0  0  0  0  0  0  0
  -25.1343  -12.0583   20.9246 N   0  0  0  0  0  0  0  0  0  0  0  0
  -29.7213  -24.3936   20.1910 N   0  0  0  0  0  0  0  0  0  0  0  0
  -30.3417  -22.1755   20.8998 N   0  0  0  0  0  0  0  0  0  0  0  0
  -24.8649  -13.3727   20.8492 N   0  0  0  0  0  0  0  0  0  0  0  0
  -29.0687  -21.0478   22.5510 N   0  0  0  0  0  0  0  0  0  0  0  0
  -24.0122  -30.6975   21.6188 N   0  0  0  0  0  0  0  0  0  0  0  0
  -27.6196  -15.7982   21.9483 N   0  0  0  0  0  0  0  0  0  0  0  0
  -23.0883  -14.9394   20.8434 N   0  0  0  0  0  0  0  0  0  0  0  0
  -20.9742  -10.9681   21.2383 N   0  0  0  0  0  0  0  0  0  0  0  0
  -25.9088  -33.7139   21.4323 N   0  0  0  0  0  0  0  0  0  0  0  0
  -21.0710  -29.4947   22.7854 N   0  0  0  0  0  0  0  0  0  0  0  0
  -28.6903  -17.8322   22.5309 N   0  0  0  0  0  0  0  0  0  0  0  0
  -19.4703  -27.0018   20.7140 N   0  3  0  0  0  0  0  0  0  0  0  0
  -20.6646  -13.2350   21.0829 O   0  0  0  0  0  0  0  0  0  0  0  0
  -26.3147  -31.6770   22.4853 O   0  0  0  0  0  0  0  0  0  0  0  0
  -22.2083  -32.0574   22.1956 O   0  0  0  0  0  0  0  0  0  0  0  0
  -21.7645  -27.3340   22.3085 O   0  0  0  0  0  0  0  0  0  0  0  0
  -26.5604  -17.4019   23.2528 O   0  0  0  0  0  0  0  0  0  0  0  0
  -23.3949   -5.9550   21.4479 O   0  0  0  0  0  0  0  0  0  0  0  0
  -28.0810  -26.3683   19.9588 O   0  0  0  0  0  0  0  0  0  1  0  0
  -19.9169   -3.9958   25.2517 F   0  0  0  0  0  0  0  0  0  0  0  0
  -24.2924   -4.2995   23.4718 F   0  0  0  0  0  0  0  0  0  0  0  0
  1  2  1  0  0  0  0
  1  5  2  0  0  0  0
  2  6  2  0  0  0  0
  3  8  2  0  0  0  0
  3 15  1  0  0  0  0
  4  9  1  0  0  0  0
  4 15  2  0  0  0  0
  5 17  1  0  0  0  0
  6 19  1  0  0  0  0
  7 10  2  0  0  0  0
  7 18  1  0  0  0  0
  8 22  1  0  0  0  0
  9 22  2  0  0  0  0
 10 23  1  0  0  0  0
 11 12  2  0  0  0  0
 11 24  1  0  0  0  0
 12 25  1  0  0  0  0
 13 20  1  0  0  0  0
 13 23  2  0  0  0  0
 14 25  2  0  0  0  0
 14 26  1  0  0  0  0
 15 27  1  0  0  0  0
 16 27  1  0  0  0  0
 16 30  2  0  0  0  0
 16 32  1  0  0  0  0
 17 19  2  0  0  0  0
 17 37  1  0  0  0  0
 18 20  2  0  0  0  0
 18 38  1  0  0  0  0
 19 48  1  0  0  0  0
 20 39  1  0  0  0  0
 21 28  2  0  0  0  0
 21 29  1  0  0  0  0
 21 52  1  0  0  0  0
 22 81  1  0  0  0  0
 23 82  1  0  0  0  0
 24 26  2  0  0  0  0
 24 81  1  0  0  0  0
 25 83  1  0  0  0  0
 26 84  1  0  0  0  0
 27 63  2  0  0  0  0
 28 59  1  0  0  0  0
 28 64  1  0  0  0  0
 29 65  2  0  0  0  0
 29 67  1  0  0  0  0
 30 66  1  0  0  0  0
 30 70  1  0  0  0  0
 31 53  1  0  0  0  0
 31 64  2  0  0  0  0
 31 65  1  0  0  0  0
 32 71  1  0  0  0  0
 32 76  2  0  0  0  0
 33 49  1  0  0  0  0
 33 72  1  0  0  0  0
 33 77  2  0  0  0  0
 34 60  1  0  0  0  0
 34 68  1  0  0  0  0
 34 78  2  0  0  0  0
 35 61  1  0  0  0  0
 35 73  1  0  0  0  0
 35 79  2  0  0  0  0
 36 69  1  0  0  0  0
 36 74  1  0  0  0  0
 36 80  2  0  0  0  0
 37 40  1  0  0  0  0
 38 49  1  0  0  0  0
 39 68  1  0  0  0  0
 40 42  1  0  0  0  0
 41 43  1  0  0  0  0
 41 44  1  0  0  0  0
 42 48  1  0  0  0  0
 43 50  1  0  0  0  0
 44 69  1  0  0  0  0
 45 50  1  0  0  0  0
 45 69  1  0  0  0  0
 46 51  1  0  0  0  0
 46 67  1  0  0  0  0
 47 51  1  0  0  0  0
 47 67  1  0  0  0  0
 48 72  1  0  0  0  0
 49 68  1  0  0  0  0
 50 66  1  0  0  0  0
 51 74  1  0  0  0  0
 54 61  1  0  0  0  0
 55 62  1  0  0  0  0
 56 62  1  0  0  0  0
 57 62  1  0  0  0  0
 58 75  1  0  0  0  0
 59 82  1  0  0  0  0
 60 62  1  0  0  0  0
 60 73  1  0  0  0  0
 61 75  1  0  0  0  0
 63 66  1  0  0  0  0
M  CHG  1  75   1
M  ISO  4  36 100  59 101  74 100  82 101
M  END
> <Batch ID>
0180

> <Smiles>
CNC(C)C(=O)NC(C(=O)N1Cc2cc([101O:1][101CH2:1]c3nc(C)nc(N4CC([100NH:0][100C:0](=O)N5CCCC(n6nc(-c7ccc(Oc8ccc(F)cc8F)cc7)c(C(N)=O)c6N)C5)C4)c3C)ccc2CC1C(=O)NC1CCCc2ccccc21)C(C)(C)C

> <Shape>
0.298

> <Color>
0.108

> <Negative vol penalty>
0.000

$$$$

  -OEChem-04052323003D

 82 91  0     1  0  0  0  0  0999 V2000
  -27.6744  -37.9349   21.9898 C   0  0  0  0  0  0  0  0  0  0  0  0
  -28.1789  -36.8716   21.2480 C   0  0  0  0  0  0  0  0  0  0  0  0
  -23.5302  -10.0481   22.0617 C   0  0  0  0  0  0  0  0  0  0  0  0
  -24.3284   -8.7638   20.1775 C   0  0  0  0  0  0  0  0  0  0  0  0
  -26.9312  -37.6880   23.1433 C   0  0  0  0  0  0  0  0  0  0  0  0
  -27.9414  -35.5608   21.6599 C   0  0  0  0  0  0  0  0  0  0  0  0
  -26.8862  -28.9845   19.0226 C   0  0  0  0  0  0  0  0  0  0  0  0
  -29.8964  -22.1358   20.9400 C   0  0  0  0  0  0  0  0  0  0  0  0
  -22.2486   -9.5318   21.8707 C   0  0  0  0  0  0  0  0  0  0  0  0
  -23.0468   -8.2475   19.9864 C   0  0  0  0  0  0  0  0  0  0  0  0
  -27.3691  -27.6828   19.1498 C   0  0  0  0  0  0  0  0  0  0  0  0
  -20.0639   -6.3135   19.2247 C   0  0  0  0  0  0  0  0  0  0  0  0
  -19.9443   -4.9443   18.9869 C   0  0  0  0  0  0  0  0  0  0  0  0
  -29.5703  -23.4652   20.6956 C   0  0  0  0  0  0  0  0  0  0  0  0
  -26.0047  -27.3752   21.1153 C   0  0  0  0  0  0  0  0  0  0  0  0
  -20.9749   -4.4834   21.1229 C   0  0  0  0  0  0  0  0  0  0  0  0
  -24.5701   -9.6641   21.2151 C   0  0  0  0  0  0  0  0  0  0  0  0
  -26.9178   -9.6576   22.2130 C   0  0  0  0  0  0  0  0  0  0  0  0
  -26.6763  -36.3733   23.5643 C   0  0  0  0  0  0  0  0  0  0  0  0
  -25.9657  -29.4958   19.9487 C   0  0  0  0  0  0  0  0  0  0  0  0
  -27.1952  -35.2961   22.8209 C   0  0  0  0  0  0  0  0  0  0  0  0
  -29.3642  -21.1357   20.1338 C   0  0  0  0  0  0  0  0  0  0  0  0
  -25.5098  -28.6828   20.9961 C   0  0  0  0  0  0  0  0  0  0  0  0
  -22.0069   -8.6315   20.8331 C   0  0  0  0  0  0  0  0  0  0  0  0
  -26.9305  -26.8789   20.1979 C   0  0  0  0  0  0  0  0  0  0  0  0
  -20.6391   -6.7677   20.4116 C   0  0  0  0  0  0  0  0  0  0  0  0
  -20.3998   -4.0292   19.9360 C   0  0  0  0  0  0  0  0  0  0  0  0
  -21.0946   -5.8526   21.3607 C   0  0  0  0  0  0  0  0  0  0  0  0
  -25.8941  -10.1975   21.4116 C   0  0  0  0  0  0  0  0  0  0  0  0
  -28.7145  -23.7397   19.6411 C   0  0  0  0  0  0  0  0  0  0  0  0
  -28.5174  -21.5145   19.1046 C   0  0  0  0  0  0  0  0  0  0  0  0
  -27.9680  -10.5298   22.0623 C   0  0  0  0  0  0  0  0  0  0  0  0
  -26.9193   -8.4734   23.0214 C   0  0  0  0  0  0  0  0  0  0  0  0
  -25.9767  -31.8988   22.0294 C   0  0  0  0  0  0  0  0  0  0  0  0
  -22.8717  -31.0508   22.4321 C   0  0  0  0  0  0  0  0  0  0  0  0
  -20.4774  -28.6291   22.2088 C   0  0  0  0  0  0  0  0  0  0  0  0
  -27.9846  -16.3158   20.6406 C   0  0  0  0  0  0  0  0  0  0  0  0
  -25.9078  -36.1569   24.8439 C   0  0  0  0  0  0  0  0  0  0  0  0
  -25.4342  -30.8931   19.7821 C   0  0  0  0  0  0  0  0  0  0  0  0
  -24.5070  -29.1775   22.0051 C   0  0  0  0  0  0  0  0  0  0  0  0
  -25.3835  -34.7325   25.0060 C   0  0  0  0  0  0  0  0  0  0  0  0
  -29.8681  -13.6197   18.9684 C   0  0  0  0  0  0  0  0  0  0  0  0
  -26.4767  -33.7206   24.6776 C   0  0  0  0  0  0  0  0  0  0  0  0
  -29.1063  -12.3881   19.4489 C   0  0  0  0  0  0  0  0  0  0  0  0
  -29.4748  -19.1332   21.7619 C   0  0  0  0  0  0  0  0  0  0  0  0
  -28.9496  -14.8273   18.7864 C   0  0  0  0  0  0  0  0  0  0  0  0
  -27.3857  -13.9201   20.4821 C   0  0  0  0  0  0  0  0  0  0  0  0
  -29.7084  -19.7091   20.3904 C   0  0  1  0  0  0  0  0  0  0  0  0
  -26.9379  -33.8597   23.2218 C   0  0  1  0  0  0  0  0  0  0  0  0
  -24.8895  -31.4836   21.0790 C   0  0  1  0  0  0  0  0  0  0  0  0
  -28.3012  -12.7089   20.7174 C   0  0  1  0  0  0  0  0  0  0  0  0
  -28.5920  -18.7164   20.6229 C   0  0  1  0  0  0  0  0  0  0  0  0
  -27.9137  -20.4846   18.2066 C   0  0  0  0  0  0  0  0  0  0  0  0
  -18.0398  -28.2229   22.6451 C   0  0  0  0  0  0  0  0  0  0  0  0
  -23.4408  -30.8644   25.4239 C   0  0  0  0  0  0  0  0  0  0  0  0
  -21.3129  -29.5698   25.6773 C   0  0  0  0  0  0  0  0  0  0  0  0
  -21.2493  -31.9197   24.8426 C   0  0  0  0  0  0  0  0  0  0  0  0
  -19.9475  -28.0335   19.3586 C   0  0  0  0  0  0  0  0  0  0  0  0
  -28.3415  -25.1633   19.3484 C   0  0  0  0  0  0  0  0  0  1  0  0
  -22.1337  -30.0926   23.3355 C   0  0  1  0  0  0  0  0  0  0  0  0
  -19.0789  -28.6468   21.6187 C   0  0  2  0  0  0  0  0  0  0  0  0
  -22.0546  -30.6027   24.8021 C   0  0  0  0  0  0  0  0  0  0  0  0
  -26.2608  -11.3255   20.7975 N   0  0  0  0  0  0  0  0  0  0  0  0
  -28.1777  -22.7952   18.8364 N   0  0  0  0  0  0  0  0  0  0  0  0
  -27.5266  -11.5015   21.2132 N   0  0  0  0  0  0  0  0  0  0  0  0
  -24.0217  -30.5527   21.8033 N   0  0  0  0  0  0  0  0  0  0  0  0
  -28.1412  -15.0787   19.9898 N   0  0  0  0  0  0  0  0  0  0  0  0
  -29.2167  -10.5528   22.5748 N   0  0  0  0  0  0  0  0  0  0  0  0
  -25.7570   -7.6913   23.0630 N   0  0  0  0  0  0  0  0  0  0  0  0
  -25.9787  -33.2482   22.3271 N   0  0  0  0  0  0  0  0  0  0  0  0
  -20.8350  -29.8620   22.7121 N   0  0  0  0  0  0  0  0  0  0  0  0
  -28.6616  -17.3891   20.0726 N   0  0  0  0  0  0  0  0  0  0  0  0
  -18.9958  -27.7193   20.4552 N   0  3  0  0  0  0  0  0  0  0  0  0
  -27.9162   -8.1281   23.7000 O   0  0  0  0  0  0  0  0  0  0  0  0
  -26.7552  -31.0570   22.4617 O   0  0  0  0  0  0  0  0  0  0  0  0
  -22.4396  -32.1966   22.2839 O   0  0  0  0  0  0  0  0  0  0  0  0
  -21.1808  -27.6214   22.2251 O   0  0  0  0  0  0  0  0  0  0  0  0
  -27.2878  -16.4574   21.6516 O   0  0  0  0  0  0  0  0  0  0  0  0
  -20.7564   -8.1274   20.6465 O   0  0  0  0  0  0  0  0  0  0  0  0
  -27.4007  -25.6081   20.3247 O   0  0  0  0  0  0  0  0  0  1  0  0
  -20.2834   -2.7144   19.7082 F   0  0  0  0  0  0  0  0  0  0  0  0
  -21.6470   -6.2829   22.5033 F   0  0  0  0  0  0  0  0  0  0  0  0
  1  2  1  0  0  0  0
  1  5  2  0  0  0  0
  2  6  2  0  0  0  0
  3  9  2  0  0  0  0
  3 17  1  0  0  0  0
  4 10  1  0  0  0  0
  4 17  2  0  0  0  0
  5 19  1  0  0  0  0
  6 21  1  0  0  0  0
  7 11  2  0  0  0  0
  7 20  1  0  0  0  0
  8 14  2  0  0  0  0
  8 22  1  0  0  0  0
  9 24  1  0  0  0  0
 10 24  2  0  0  0  0
 11 25  1  0  0  0  0
 12 13  2  0  0  0  0
 12 26  1  0  0  0  0
 13 27  1  0  0  0  0
 14 30  1  0  0  0  0
 15 23  1  0  0  0  0
 15 25  2  0  0  0  0
 16 27  2  0  0  0  0
 16 28  1  0  0  0  0
 17 29  1  0  0  0  0
 18 29  1  0  0  0  0
 18 32  2  0  0  0  0
 18 33  1  0  0  0  0
 19 21  2  0  0  0  0
 19 38  1  0  0  0  0
 20 23  2  0  0  0  0
 20 39  1  0  0  0  0
 21 49  1  0  0  0  0
 22 31  2  0  0  0  0
 22 48  1  0  0  0  0
 23 40  1  0  0  0  0
 24 79  1  0  0  0  0
 25 80  1  0  0  0  0
 26 28  2  0  0  0  0
 26 79  1  0  0  0  0
 27 81  1  0  0  0  0
 28 82  1  0  0  0  0
 29 63  2  0  0  0  0
 30 59  1  0  0  0  0
 30 64  2  0  0  0  0
 31 53  1  0  0  0  0
 31 64  1  0  0  0  0
 32 65  1  0  0  0  0
 32 68  1  0  0  0  0
 33 69  1  0  0  0  0
 33 74  2  0  0  0  0
 34 50  1  0  0  0  0
 34 70  1  0  0  0  0
 34 75  2  0  0  0  0
 35 60  1  0  0  0  0
 35 66  1  0  0  0  0
 35 76  2  0  0  0  0
 36 61  1  0  0  0  0
 36 71  1  0  0  0  0
 36 77  2  0  0  0  0
 37 67  1  0  0  0  0
 37 72  1  0  0  0  0
 37 78  2  0  0  0  0
 38 41  1  0  0  0  0
 39 50  1  0  0  0  0
 40 66  1  0  0  0  0
 41 43  1  0  0  0  0
 42 44  1  0  0  0  0
 42 46  1  0  0  0  0
 43 49  1  0  0  0  0
 44 51  1  0  0  0  0
 45 48  1  0  0  0  0
 45 52  1  0  0  0  0
 46 67  1  0  0  0  0
 47 51  1  0  0  0  0
 47 67  1  0  0  0  0
 48 52  1  0  0  0  0
 49 70  1  0  0  0  0
 50 66  1  0  0  0  0
 51 65  1  0  0  0  0
 52 72  1  0  0  0  0
 54 61  1  0  0  0  0
 55 62  1  0  0  0  0
 56 62  1  0  0  0  0
 57 62  1  0  0  0  0
 58 73  1  0  0  0  0
 59 80  1  0  0  0  0
 60 62  1  0  0  0  0
 60 71  1  0  0  0  0
 61 73  1  0  0  0  0
 63 65  1  0  0  0  0
M  CHG  1  73   1
M  ISO  4  37 100  59 101  72 100  80 101
M  END
> <Batch ID>
0180

> <Smiles>
CNC(C)C(=O)NC(C(=O)N1Cc2cc([101O:1][101CH2:1]c3ccc(C4CC4[100NH:0][100C:0](=O)N4CCCC(n5nc(-c6ccc(Oc7ccc(F)cc7F)cc6)c(C(N)=O)c5N)C4)c(C)n3)ccc2CC1C(=O)NC1CCCc2ccccc21)C(C)(C)C

> <Shape>
0.308

> <Color>
0.099

> <Negative vol penalty>
0.000

$$$$

  -OEChem-04052323003D

 83 92  0     1  0  0  0  0  0999 V2000
  -16.5255  -29.2078   22.9173 C   0  0  0  0  0  0  0  0  0  0  0  0
  -17.3930  -29.7314   21.9641 C   0  0  0  0  0  0  0  0  0  0  0  0
  -29.3124  -12.1815   20.8398 C   0  0  0  0  0  0  0  0  0  0  0  0
  -29.6035  -13.7054   18.9877 C   0  0  0  0  0  0  0  0  0  0  0  0
  -16.8928  -29.1989   24.2623 C   0  0  0  0  0  0  0  0  0  0  0  0
  -18.6280  -30.2473   22.3554 C   0  0  0  0  0  0  0  0  0  0  0  0
  -24.7710  -27.5723   19.7099 C   0  0  0  0  0  0  0  0  0  0  0  0
  -28.7767  -11.2296   19.9723 C   0  0  0  0  0  0  0  0  0  0  0  0
  -29.0679  -12.7534   18.1202 C   0  0  0  0  0  0  0  0  0  0  0  0
  -25.9803  -27.2562   19.0904 C   0  0  0  0  0  0  0  0  0  0  0  0
  -30.1107   -9.9456   16.5553 C   0  0  0  0  0  0  0  0  0  0  0  0
  -30.7683   -9.7321   15.3439 C   0  0  0  0  0  0  0  0  0  0  0  0
  -27.1429  -28.7930   20.5515 C   0  0  0  0  0  0  0  0  0  0  0  0
  -28.7714  -10.3767   14.1463 C   0  0  0  0  0  0  0  0  0  0  0  0
  -29.7257  -13.4195   20.3475 C   0  0  0  0  0  0  0  0  0  0  0  0
  -31.6321  -14.5697   21.5925 C   0  0  0  0  0  0  0  0  0  0  0  0
  -18.1369  -29.7061   24.6692 C   0  0  0  0  0  0  0  0  0  0  0  0
  -24.7453  -28.4896   20.7641 C   0  0  0  0  0  0  0  0  0  0  0  0
  -19.0117  -30.2463   23.7073 C   0  0  0  0  0  0  0  0  0  0  0  0
  -25.9363  -29.1042   21.1841 C   0  0  0  0  0  0  0  0  0  0  0  0
  -28.6545  -11.5155   18.6126 C   0  0  0  0  0  0  0  0  0  0  0  0
  -27.1633  -27.8652   19.5100 C   0  0  0  0  0  0  0  0  0  0  0  0
  -28.7834  -10.3745   16.5623 C   0  0  0  0  0  0  0  0  0  0  0  0
  -30.0987   -9.9477   14.1394 C   0  0  0  0  0  0  0  0  0  0  0  0
  -28.1138  -10.5901   15.3578 C   0  0  0  0  0  0  0  0  0  0  0  0
  -30.2786  -14.4034   21.2432 C   0  0  0  0  0  0  0  0  0  0  0  0
  -29.3783  -24.4320   20.7565 C   0  0  0  0  0  0  0  0  0  0  0  0
  -30.0436  -22.2481   20.8895 C   0  0  0  0  0  0  0  0  0  0  0  0
  -29.0429  -21.9989   21.8028 C   0  0  0  0  0  0  0  0  0  0  0  0
  -28.3772  -24.1826   21.6692 C   0  0  0  0  0  0  0  0  0  0  0  0
  -31.6337  -15.6308   22.4647 C   0  0  0  0  0  0  0  0  0  0  0  0
  -32.7849  -13.8312   21.1667 C   0  0  0  0  0  0  0  0  0  0  0  0
  -22.6861  -30.3037   23.3224 C   0  0  0  0  0  0  0  0  0  0  0  0
  -25.3025  -29.4876   24.7003 C   0  0  0  0  0  0  0  0  0  0  0  0
  -27.6257  -27.7129   25.8650 C   0  0  0  0  0  0  0  0  0  0  0  0
  -27.9460  -20.2641   23.2635 C   0  0  0  0  0  0  0  0  0  0  0  0
  -18.4700  -29.7180   26.1401 C   0  0  0  0  0  0  0  0  0  0  0  0
  -23.4567  -28.9063   21.4197 C   0  0  0  0  0  0  0  0  0  0  0  0
  -25.8557  -30.1109   22.2991 C   0  0  0  0  0  0  0  0  0  0  0  0
  -19.9526  -29.9418   26.4270 C   0  0  0  0  0  0  0  0  0  0  0  0
  -28.8625  -17.8285   25.6935 C   0  0  0  0  0  0  0  0  0  0  0  0
  -20.4903  -31.0965   25.5878 C   0  0  0  0  0  0  0  0  0  0  0  0
  -29.4584  -16.6914   24.8603 C   0  0  0  0  0  0  0  0  0  0  0  0
  -30.2260  -25.9368   18.8348 C   0  0  0  0  0  0  0  0  0  0  0  0
  -27.6826  -18.4921   24.9857 C   0  0  0  0  0  0  0  0  0  0  0  0
  -28.5523  -17.8110   22.7836 C   0  0  0  0  0  0  0  0  0  0  0  0
  -20.3702  -30.7925   24.0896 C   0  0  1  0  0  0  0  0  0  0  0  0
  -29.5569  -25.7864   20.1810 C   0  0  1  0  0  0  0  0  0  0  0  0
  -23.6097  -29.1900   22.9248 C   0  0  1  0  0  0  0  0  0  0  0  0
  -29.7847  -17.1544   23.4268 C   0  0  2  0  0  0  0  0  0  0  0  0
  -28.7539  -26.1838   18.9618 C   0  0  1  0  0  0  0  0  0  1  0  0
  -30.9834  -21.1797   20.4420 C   0  0  0  0  0  0  0  0  0  0  0  0
  -29.4387  -26.5369   27.1406 C   0  0  0  0  0  0  0  0  0  0  0  0
  -26.3568  -32.3260   24.3321 C   0  0  0  0  0  0  0  0  0  0  0  0
  -28.2837  -31.7266   25.8139 C   0  0  0  0  0  0  0  0  0  0  0  0
  -25.9565  -31.6617   26.7097 C   0  0  0  0  0  0  0  0  0  0  0  0
  -25.6747  -26.0019   27.2880 C   0  0  0  0  0  0  0  0  0  0  0  0
  -26.5231  -24.8178   23.0164 C   0  0  0  0  0  0  0  0  0  0  0  0
  -26.7077  -29.8801   25.0807 C   0  0  1  0  0  0  0  0  0  0  0  0
  -27.9773  -26.9574   27.1339 C   0  0  2  0  0  0  0  0  0  0  0  0
  -26.8208  -31.3835   25.4606 C   0  0  0  0  0  0  0  0  0  0  0  0
  -29.4784  -15.2879   21.8444 N   0  0  0  0  0  0  0  0  0  0  0  0
  -30.2295  -23.4692   20.3502 N   0  0  0  0  0  0  0  0  0  0  0  0
  -28.1915  -22.9616   22.2087 N   0  0  0  0  0  0  0  0  0  0  0  0
  -30.3318  -16.0201   22.5805 N   0  0  0  0  0  0  0  0  0  0  0  0
  -24.9510  -29.6232   23.3518 N   0  0  0  0  0  0  0  0  0  0  0  0
  -28.0670  -18.9084   23.6351 N   0  0  0  0  0  0  0  0  0  0  0  0
  -32.6218  -16.2593   23.1363 N   0  0  0  0  0  0  0  0  0  0  0  0
  -32.6048  -12.7715   20.2674 N   0  0  0  0  0  0  0  0  0  0  0  0
  -28.8947  -20.6947   22.3366 N   0  0  0  0  0  0  0  0  0  0  0  0
  -21.4170  -29.8842   23.6727 N   0  0  0  0  0  0  0  0  0  0  0  0
  -27.1149  -28.9638   26.1404 N   0  0  0  0  0  0  0  0  0  0  0  0
  -27.1356  -25.7339   27.2583 N   0  3  0  0  0  0  0  0  0  0  0  0
  -33.9385  -14.0926   21.5844 O   0  0  0  0  0  0  0  0  0  0  0  0
  -23.0942  -31.4591   23.3138 O   0  0  0  0  0  0  0  0  0  0  0  0
  -24.5336  -29.0769   25.5740 O   0  0  0  0  0  0  0  0  0  0  0  0
  -27.7913  -27.2422   24.7419 O   0  0  0  0  0  0  0  0  0  0  0  0
  -27.0827  -20.9967   23.7534 O   0  0  0  0  0  0  0  0  0  0  0  0
  -28.1321  -10.5867   17.7658 O   0  0  0  0  0  0  0  0  0  0  0  0
  -28.3410  -27.5486   18.9039 O   0  0  0  0  0  0  0  0  0  1  0  0
  -27.5256  -25.1737   22.0693 O   0  0  0  0  0  0  0  0  0  0  0  0
  -30.7308   -9.7442   12.9761 F   0  0  0  0  0  0  0  0  0  0  0  0
  -26.8390  -11.0033   15.3581 F   0  0  0  0  0  0  0  0  0  0  0  0
  1  2  1  0  0  0  0
  1  5  2  0  0  0  0
  2  6  2  0  0  0  0
  3  8  2  0  0  0  0
  3 15  1  0  0  0  0
  4  9  1  0  0  0  0
  4 15  2  0  0  0  0
  5 17  1  0  0  0  0
  6 19  1  0  0  0  0
  7 10  2  0  0  0  0
  7 18  1  0  0  0  0
  8 21  1  0  0  0  0
  9 21  2  0  0  0  0
 10 22  1  0  0  0  0
 11 12  2  0  0  0  0
 11 23  1  0  0  0  0
 12 24  1  0  0  0  0
 13 20  1  0  0  0  0
 13 22  2  0  0  0  0
 14 24  2  0  0  0  0
 14 25  1  0  0  0  0
 15 26  1  0  0  0  0
 16 26  1  0  0  0  0
 16 31  2  0  0  0  0
 16 32  1  0  0  0  0
 17 19  2  0  0  0  0
 17 37  1  0  0  0  0
 18 20  2  0  0  0  0
 18 38  1  0  0  0  0
 19 47  1  0  0  0  0
 20 39  1  0  0  0  0
 21 79  1  0  0  0  0
 22 80  1  0  0  0  0
 23 25  2  0  0  0  0
 23 79  1  0  0  0  0
 24 82  1  0  0  0  0
 25 83  1  0  0  0  0
 26 62  2  0  0  0  0
 27 30  2  0  0  0  0
 27 48  1  0  0  0  0
 27 63  1  0  0  0  0
 28 29  1  0  0  0  0
 28 52  1  0  0  0  0
 28 63  2  0  0  0  0
 29 64  2  0  0  0  0
 29 70  1  0  0  0  0
 30 64  1  0  0  0  0
 30 81  1  0  0  0  0
 31 65  1  0  0  0  0
 31 68  1  0  0  0  0
 32 69  1  0  0  0  0
 32 74  2  0  0  0  0
 33 49  1  0  0  0  0
 33 71  1  0  0  0  0
 33 75  2  0  0  0  0
 34 59  1  0  0  0  0
 34 66  1  0  0  0  0
 34 76  2  0  0  0  0
 35 60  1  0  0  0  0
 35 72  1  0  0  0  0
 35 77  2  0  0  0  0
 36 67  1  0  0  0  0
 36 70  1  0  0  0  0
 36 78  2  0  0  0  0
 37 40  1  0  0  0  0
 38 49  1  0  0  0  0
 39 66  1  0  0  0  0
 40 42  1  0  0  0  0
 41 43  1  0  0  0  0
 41 45  1  0  0  0  0
 42 47  1  0  0  0  0
 43 50  1  0  0  0  0
 44 48  1  0  0  0  0
 44 51  1  0  0  0  0
 45 67  1  0  0  0  0
 46 50  1  0  0  0  0
 46 67  1  0  0  0  0
 47 71  1  0  0  0  0
 48 51  1  0  0  0  0
 49 66  1  0  0  0  0
 50 65  1  0  0  0  0
 51 80  1  0  0  0  0
 53 60  1  0  0  0  0
 54 61  1  0  0  0  0
 55 61  1  0  0  0  0
 56 61  1  0  0  0  0
 57 73  1  0  0  0  0
 58 81  1  0  0  0  0
 59 61  1  0  0  0  0
 59 72  1  0  0  0  0
 60 73  1  0  0  0  0
 62 65  1  0  0  0  0
M  CHG  1  73   1
M  ISO  4  36 100  51 101  70 100  80 101
M  END
> <Batch ID>
0180

> <Smiles>
CNC(C)C(=O)NC(C(=O)N1Cc2cc([101O:1][101CH:1]3CC3c3nc(C)c([100NH:0][100C:0](=O)N4CCCC(n5nc(-c6ccc(Oc7ccc(F)cc7F)cc6)c(C(N)=O)c5N)C4)nc3OC)ccc2CC1C(=O)NC1CCCc2ccccc21)C(C)(C)C

> <Shape>
0.247

> <Color>
0.085

> <Negative vol penalty>
0.000

$$$$

  -OEChem-04052323003D

 84 92  0     1  0  0  0  0  0999 V2000
  -29.8040  -20.0897   18.8260 C   0  0  0  0  0  0  0  0  0  0  0  0
  -30.3537  -19.0590   18.5455 C   0  0  0  0  0  0  0  0  0  0  0  0
  -27.2291  -37.2929   24.2696 C   0  0  0  0  0  0  0  0  0  0  0  0
  -27.7787  -36.4952   23.2712 C   0  0  0  0  0  0  0  0  0  0  0  0
  -23.9577  -10.7168   22.5230 C   0  0  0  0  0  0  0  0  0  0  0  0
  -24.6090   -8.7486   21.2824 C   0  0  0  0  0  0  0  0  0  0  0  0
  -26.5137  -36.7074   25.3133 C   0  0  0  0  0  0  0  0  0  0  0  0
  -27.6141  -35.1112   23.3164 C   0  0  0  0  0  0  0  0  0  0  0  0
  -26.8673  -29.4343   19.0115 C   0  0  0  0  0  0  0  0  0  0  0  0
  -22.7135  -10.1419   22.7820 C   0  0  0  0  0  0  0  0  0  0  0  0
  -23.3648   -8.1737   21.5414 C   0  0  0  0  0  0  0  0  0  0  0  0
  -27.4181  -28.1735   18.7864 C   0  0  0  0  0  0  0  0  0  0  0  0
  -21.8379   -6.5962   24.1106 C   0  0  0  0  0  0  0  0  0  0  0  0
  -21.8140   -5.2615   24.5150 C   0  0  0  0  0  0  0  0  0  0  0  0
  -26.0954  -27.2794   20.5947 C   0  0  0  0  0  0  0  0  0  0  0  0
  -20.4700   -4.7015   22.5870 C   0  0  0  0  0  0  0  0  0  0  0  0
  -29.1500  -21.3120   19.1593 C   0  0  0  0  0  0  0  0  0  0  0  0
  -24.9054  -10.0202   21.7732 C   0  0  0  0  0  0  0  0  0  0  0  0
  -27.3565  -10.5065   22.2866 C   0  0  0  0  0  0  0  0  0  0  0  0
  -26.3320  -35.3164   25.3661 C   0  0  0  0  0  0  0  0  0  0  0  0
  -25.9330  -29.6298   20.0388 C   0  0  0  0  0  0  0  0  0  0  0  0
  -26.8967  -34.5064   24.3624 C   0  0  0  0  0  0  0  0  0  0  0  0
  -25.5323  -28.5432   20.8292 C   0  0  0  0  0  0  0  0  0  0  0  0
  -22.4170   -8.8704   22.2913 C   0  0  0  0  0  0  0  0  0  0  0  0
  -27.0343  -27.0964   19.5799 C   0  0  0  0  0  0  0  0  0  0  0  0
  -21.1778   -6.9836   22.9445 C   0  0  0  0  0  0  0  0  0  0  0  0
  -21.1301   -4.3141   23.7532 C   0  0  0  0  0  0  0  0  0  0  0  0
  -20.4939   -6.0363   22.1827 C   0  0  0  0  0  0  0  0  0  0  0  0
  -26.1907  -10.6137   21.5048 C   0  0  0  0  0  0  0  0  0  0  0  0
  -29.5808  -22.5447   18.7205 C   0  0  0  0  0  0  0  0  0  0  0  0
  -27.4233  -22.3129   20.2756 C   0  0  0  0  0  0  0  0  0  0  0  0
  -27.8544  -23.5456   19.8375 C   0  0  0  0  0  0  0  0  0  0  0  0
  -28.2947  -11.2442   21.6069 C   0  0  0  0  0  0  0  0  0  0  0  0
  -27.5721   -9.8028   23.5170 C   0  0  0  0  0  0  0  0  0  0  0  0
  -25.8454  -31.3854   22.6872 C   0  0  0  0  0  0  0  0  0  0  0  0
  -22.7933  -30.2975   22.8413 C   0  0  0  0  0  0  0  0  0  0  0  0
  -20.5245  -27.9008   21.9724 C   0  0  0  0  0  0  0  0  0  0  0  0
  -29.6432  -15.9311   19.0444 C   0  0  0  0  0  0  0  0  0  0  0  0
  -25.5912  -34.7251   26.5393 C   0  0  0  0  0  0  0  0  0  0  0  0
  -25.3282  -30.9905   20.2515 C   0  0  0  0  0  0  0  0  0  0  0  0
  -24.5176  -28.6960   21.9317 C   0  0  0  0  0  0  0  0  0  0  0  0
  -25.1431  -33.2836   26.3128 C   0  0  0  0  0  0  0  0  0  0  0  0
  -28.2164  -13.2304   16.9748 C   0  0  0  0  0  0  0  0  0  0  0  0
  -26.2829  -32.4558   25.7277 C   0  0  0  0  0  0  0  0  0  0  0  0
  -27.6111  -12.3283   18.0462 C   0  0  0  0  0  0  0  0  0  0  0  0
  -28.1430  -14.7073   17.3601 C   0  0  0  0  0  0  0  0  0  0  0  0
  -28.1398  -14.1019   19.7638 C   0  0  0  0  0  0  0  0  0  0  0  0
  -26.7186  -33.0036   24.3633 C   0  0  1  0  0  0  0  0  0  0  0  0
  -24.7695  -31.1828   21.6580 C   0  0  1  0  0  0  0  0  0  0  0  0
  -28.2486  -12.6095   19.4155 C   0  0  1  0  0  0  0  0  0  0  0  0
  -26.2205  -22.1731   21.1449 C   0  0  0  0  0  0  0  0  0  0  0  0
  -32.0867  -22.5543   18.6375 C   0  0  0  0  0  0  0  0  0  0  0  0
  -18.1165  -27.2642   22.2788 C   0  0  0  0  0  0  0  0  0  0  0  0
  -23.4075  -29.3476   25.6752 C   0  0  0  0  0  0  0  0  0  0  0  0
  -21.3524  -27.9217   25.5679 C   0  0  0  0  0  0  0  0  0  0  0  0
  -21.1576  -30.4025   25.3931 C   0  0  0  0  0  0  0  0  0  0  0  0
  -19.9914  -28.0624   19.0658 C   0  0  0  0  0  0  0  0  0  0  0  0
  -31.0256  -17.8061   18.2048 C   0  0  0  0  0  0  0  0  0  0  0  0
  -30.7849  -22.6911   17.8524 C   0  0  0  0  0  0  0  0  0  0  0  0
  -27.1324  -24.8062   20.2132 C   0  0  0  0  0  0  0  0  0  1  0  0
  -22.1167  -29.0948   23.4535 C   0  0  1  0  0  0  0  0  0  0  0  0
  -19.1198  -28.0017   21.4057 C   0  0  2  0  0  0  0  0  0  0  0  0
  -22.0291  -29.1889   25.0030 C   0  0  0  0  0  0  0  0  0  0  0  0
  -28.0634  -21.1740   19.9447 N   0  0  0  0  0  0  0  0  0  0  0  0
  -26.3694  -11.3609   20.4122 N   0  0  0  0  0  0  0  0  0  0  0  0
  -28.9408  -23.6836   19.0518 N   0  0  0  0  0  0  0  0  0  0  0  0
  -27.6585  -11.7299   20.5026 N   0  0  0  0  0  0  0  0  0  0  0  0
  -23.9597  -30.0474   22.1046 N   0  0  0  0  0  0  0  0  0  0  0  0
  -28.7005  -14.9452   18.7008 N   0  0  0  0  0  0  0  0  0  0  0  0
  -29.5936  -11.5185   21.8523 N   0  0  0  0  0  0  0  0  0  0  0  0
  -26.5005   -9.0952   24.0786 N   0  0  0  0  0  0  0  0  0  0  0  0
  -25.7814  -32.6040   23.3355 N   0  0  0  0  0  0  0  0  0  0  0  0
  -20.8241  -28.9711   22.7884 N   0  0  0  0  0  0  0  0  0  0  0  0
  -30.0696  -16.7500   18.0050 N   0  0  0  0  0  0  0  0  0  0  0  0
  -19.0705  -27.4163   20.0361 N   0  3  0  0  0  0  0  0  0  0  0  0
  -28.6776   -9.8150   24.1097 O   0  0  0  0  0  0  0  0  0  0  0  0
  -26.6714  -30.5009   22.8799 O   0  0  0  0  0  0  0  0  0  0  0  0
  -22.3010  -31.4167   23.0046 O   0  0  0  0  0  0  0  0  0  0  0  0
  -21.2790  -26.9641   21.7197 O   0  0  0  0  0  0  0  0  0  0  0  0
  -30.0710  -16.0767   20.1948 O   0  0  0  0  0  0  0  0  0  0  0  0
  -21.2032   -8.3090   22.5440 O   0  0  0  0  0  0  0  0  0  0  0  0
  -27.5709  -25.8648   19.3627 O   0  0  0  0  0  0  0  0  0  1  0  0
  -21.1085   -3.0321   24.1407 F   0  0  0  0  0  0  0  0  0  0  0  0
  -19.8589   -6.4023   21.0608 F   0  0  0  0  0  0  0  0  0  0  0  0
  1  2  3  0  0  0  0
  1 17  1  0  0  0  0
  2 58  1  0  0  0  0
  3  4  1  0  0  0  0
  3  7  2  0  0  0  0
  4  8  2  0  0  0  0
  5 10  2  0  0  0  0
  5 18  1  0  0  0  0
  6 11  1  0  0  0  0
  6 18  2  0  0  0  0
  7 20  1  0  0  0  0
  8 22  1  0  0  0  0
  9 12  2  0  0  0  0
  9 21  1  0  0  0  0
 10 24  1  0  0  0  0
 11 24  2  0  0  0  0
 12 25  1  0  0  0  0
 13 14  2  0  0  0  0
 13 26  1  0  0  0  0
 14 27  1  0  0  0  0
 15 23  1  0  0  0  0
 15 25  2  0  0  0  0
 16 27  2  0  0  0  0
 16 28  1  0  0  0  0
 17 30  2  0  0  0  0
 17 64  1  0  0  0  0
 18 29  1  0  0  0  0
 19 29  1  0  0  0  0
 19 33  2  0  0  0  0
 19 34  1  0  0  0  0
 20 22  2  0  0  0  0
 20 39  1  0  0  0  0
 21 23  2  0  0  0  0
 21 40  1  0  0  0  0
 22 48  1  0  0  0  0
 23 41  1  0  0  0  0
 24 81  1  0  0  0  0
 25 82  1  0  0  0  0
 26 28  2  0  0  0  0
 26 81  1  0  0  0  0
 27 83  1  0  0  0  0
 28 84  1  0  0  0  0
 29 65  2  0  0  0  0
 30 59  1  0  0  0  0
 30 66  1  0  0  0  0
 31 32  1  0  0  0  0
 31 51  1  0  0  0  0
 31 64  2  0  0  0  0
 32 60  1  0  0  0  0
 32 66  2  0  0  0  0
 33 67  1  0  0  0  0
 33 70  1  0  0  0  0
 34 71  1  0  0  0  0
 34 76  2  0  0  0  0
 35 49  1  0  0  0  0
 35 72  1  0  0  0  0
 35 77  2  0  0  0  0
 36 61  1  0  0  0  0
 36 68  1  0  0  0  0
 36 78  2  0  0  0  0
 37 62  1  0  0  0  0
 37 73  1  0  0  0  0
 37 79  2  0  0  0  0
 38 69  1  0  0  0  0
 38 74  1  0  0  0  0
 38 80  2  0  0  0  0
 39 42  1  0  0  0  0
 40 49  1  0  0  0  0
 41 68  1  0  0  0  0
 42 44  1  0  0  0  0
 43 45  1  0  0  0  0
 43 46  1  0  0  0  0
 44 48  1  0  0  0  0
 45 50  1  0  0  0  0
 46 69  1  0  0  0  0
 47 50  1  0  0  0  0
 47 69  1  0  0  0  0
 48 72  1  0  0  0  0
 49 68  1  0  0  0  0
 50 67  1  0  0  0  0
 52 59  1  0  0  0  0
 53 62  1  0  0  0  0
 54 63  1  0  0  0  0
 55 63  1  0  0  0  0
 56 63  1  0  0  0  0
 57 75  1  0  0  0  0
 58 74  1  0  0  0  0
 60 82  1  0  0  0  0
 61 63  1  0  0  0  0
 61 73  1  0  0  0  0
 62 75  1  0  0  0  0
 65 67  1  0  0  0  0
M  CHG  1  75   1
M  ISO  4  38 100  60 101  74 100  82 101
M  END
> <Batch ID>
0180

> <Smiles>
CCc1nc([101CH2:1][101O:1]c2ccc3c(c2)CN(C(=O)C(NC(=O)C(C)NC)C(C)(C)C)C(C(=O)NC2CCCc4ccccc42)C3)c(C)nc1C#CC[100NH:0][100C:0](=O)N1CCCC(n2nc(-c3ccc(Oc4ccc(F)cc4F)cc3)c(C(N)=O)c2N)C1

> <Shape>
0.337

> <Color>
0.096

> <Negative vol penalty>
0.000

$$$$

  -OEChem-04052323003D

 85 94  0     1  0  0  0  0  0999 V2000
  -23.9523  -35.6453   18.8648 C   0  0  0  0  0  0  0  0  0  0  0  0
  -24.5893  -34.6838   18.0868 C   0  0  0  0  0  0  0  0  0  0  0  0
  -22.9994  -10.1643   20.2176 C   0  0  0  0  0  0  0  0  0  0  0  0
  -24.4046   -9.4446   22.0465 C   0  0  0  0  0  0  0  0  0  0  0  0
  -24.0896  -35.6207   20.2521 C   0  0  0  0  0  0  0  0  0  0  0  0
  -25.3649  -33.6978   18.6956 C   0  0  0  0  0  0  0  0  0  0  0  0
  -27.2876  -26.8401   17.9266 C   0  0  0  0  0  0  0  0  0  0  0  0
  -22.4132   -8.8995   20.1704 C   0  0  0  0  0  0  0  0  0  0  0  0
  -23.8183   -8.1798   21.9992 C   0  0  0  0  0  0  0  0  0  0  0  0
  -28.4285  -26.0403   17.8782 C   0  0  0  0  0  0  0  0  0  0  0  0
  -20.9514   -6.7247   23.0405 C   0  0  0  0  0  0  0  0  0  0  0  0
  -20.5785   -6.1393   24.2504 C   0  0  0  0  0  0  0  0  0  0  0  0
  -28.5297  -26.0493   20.2884 C   0  0  0  0  0  0  0  0  0  0  0  0
  -22.0640   -4.2852   23.8113 C   0  0  0  0  0  0  0  0  0  0  0  0
  -30.8852  -21.4038   19.0017 C   0  0  0  0  0  0  0  0  0  0  0  0
  -23.9952  -10.4368   21.1557 C   0  0  0  0  0  0  0  0  0  0  0  0
  -24.1780  -12.8489   21.9656 C   0  0  0  0  0  0  0  0  0  0  0  0
  -24.8594  -34.6282   20.8789 C   0  0  0  0  0  0  0  0  0  0  0  0
  -26.7645  -27.2602   19.1580 C   0  0  0  0  0  0  0  0  0  0  0  0
  -25.5137  -33.6608   20.0925 C   0  0  0  0  0  0  0  0  0  0  0  0
  -27.3805  -26.8523   20.3497 C   0  0  0  0  0  0  0  0  0  0  0  0
  -29.6296  -20.8342   19.0593 C   0  0  0  0  0  0  0  0  0  0  0  0
  -22.8225   -7.9073   21.0611 C   0  0  0  0  0  0  0  0  0  0  0  0
  -29.0514  -25.6472   19.0591 C   0  0  0  0  0  0  0  0  0  0  0  0
  -21.8806   -6.0903   22.2160 C   0  0  0  0  0  0  0  0  0  0  0  0
  -21.1347   -4.9196   24.6358 C   0  0  0  0  0  0  0  0  0  0  0  0
  -22.4369   -4.8706   22.6014 C   0  0  0  0  0  0  0  0  0  0  0  0
  -24.6016  -11.7429   21.2046 C   0  0  0  0  0  0  0  0  0  0  0  0
  -28.5731  -21.7209   19.1007 C   0  0  0  0  0  0  0  0  0  0  0  0
  -25.0801  -13.8395   21.6634 C   0  0  0  0  0  0  0  0  0  0  0  0
  -29.9932  -23.4944   19.0295 C   0  0  0  0  0  0  0  0  0  1  0  0
  -23.0682  -12.9700   22.8654 C   0  0  0  0  0  0  0  0  0  0  0  0
  -26.2940  -30.0783   20.5510 C   0  0  0  0  0  0  0  0  0  0  0  0
  -24.8255  -28.2767   22.8137 C   0  0  0  0  0  0  0  0  0  0  0  0
  -24.4817  -25.2346   24.3219 C   0  0  0  0  0  0  0  0  0  0  0  0
  -27.9527  -16.7259   18.0921 C   0  0  0  0  0  0  0  0  0  0  0  0
  -25.0170  -34.6705   22.3782 C   0  0  0  0  0  0  0  0  0  0  0  0
  -25.5176  -28.1007   19.1939 C   0  0  0  0  0  0  0  0  0  0  0  0
  -26.8468  -27.2596   21.6980 C   0  0  0  0  0  0  0  0  0  0  0  0
  -25.5515  -33.3695   22.9715 C   0  0  0  0  0  0  0  0  0  0  0  0
  -29.4743  -13.6711   19.1946 C   0  0  0  0  0  0  0  0  0  0  0  0
  -26.7449  -32.8661   22.1657 C   0  0  0  0  0  0  0  0  0  0  0  0
  -28.2905  -12.9681   19.8541 C   0  0  0  0  0  0  0  0  0  0  0  0
  -30.5842  -19.0184   16.8350 C   0  0  0  0  0  0  0  0  0  0  0  0
  -29.0643  -14.4462   17.9409 C   0  0  0  0  0  0  0  0  0  0  0  0
  -30.1416  -16.6834   16.7899 C   0  0  0  0  0  0  0  0  0  0  0  0
  -26.7614  -14.6853   18.8254 C   0  0  0  0  0  0  0  0  0  0  0  0
  -26.3435  -32.5604   20.7177 C   0  0  1  0  0  0  0  0  0  0  0  0
  -25.3698  -28.8954   20.4877 C   0  0  1  0  0  0  0  0  0  0  0  0
  -30.6130  -17.8203   15.8862 C   0  0  2  0  0  0  0  0  0  0  0  0
  -27.1487  -13.9618   20.1231 C   0  0  1  0  0  0  0  0  0  0  0  0
  -29.3226  -18.7702   17.6692 C   0  0  2  0  0  0  0  0  0  0  0  0
  -27.1687  -21.2182   19.1650 C   0  0  0  0  0  0  0  0  0  0  0  0
  -31.9880  -16.3658   14.3887 C   0  0  0  0  0  0  0  0  0  0  0  0
  -23.2313  -24.0804   26.1662 C   0  0  0  0  0  0  0  0  0  0  0  0
  -26.6363  -29.6128   24.8742 C   0  0  0  0  0  0  0  0  0  0  0  0
  -26.0327  -27.7917   26.4828 C   0  0  0  0  0  0  0  0  0  0  0  0
  -24.2635  -29.3166   25.6068 C   0  0  0  0  0  0  0  0  0  0  0  0
  -23.2123  -23.3417   22.4339 C   0  0  0  0  0  0  0  0  0  0  0  0
  -29.4517  -19.3394   19.0761 C   0  0  0  0  0  0  0  0  0  0  0  0
  -31.9798  -17.5736   15.2729 C   0  0  0  0  0  0  0  0  0  0  0  0
  -25.2682  -27.5744   24.0746 C   0  0  1  0  0  0  0  0  0  0  0  0
  -23.2508  -24.4236   24.6848 C   0  0  2  0  0  0  0  0  0  0  0  0
  -25.5616  -28.5676   25.2343 C   0  0  0  0  0  0  0  0  0  0  0  0
  -31.1044  -22.7349   18.9851 N   0  0  0  0  0  0  0  0  0  0  0  0
  -25.6883  -12.0057   20.4738 N   0  0  0  0  0  0  0  0  0  0  0  0
  -28.7191  -23.0621   19.0873 N   0  0  0  0  0  0  0  0  0  0  0  0
  -25.9550  -13.2882   20.7741 N   0  0  0  0  0  0  0  0  0  0  0  0
  -25.6290  -28.0866   21.6805 N   0  0  0  0  0  0  0  0  0  0  0  0
  -27.9235  -15.3303   18.2078 N   0  0  0  0  0  0  0  0  0  0  0  0
  -29.1457  -17.3123   17.6612 N   0  0  0  0  0  0  0  0  0  0  0  0
  -25.2024  -15.1196   22.0742 N   0  0  0  0  0  0  0  0  0  0  0  0
  -22.2417  -11.8550   23.0607 N   0  0  0  0  0  0  0  0  0  0  0  0
  -25.6453  -31.2949   20.6432 N   0  0  0  0  0  0  0  0  0  0  0  0
  -24.2350  -26.5901   24.3779 N   0  0  0  0  0  0  0  0  0  0  0  0
  -23.2202  -23.1526   23.9074 N   0  3  0  0  0  0  0  0  0  0  0  0
  -22.8074  -14.0402   23.4654 O   0  0  0  0  0  0  0  0  0  0  0  0
  -27.5061  -29.9004   20.5202 O   0  0  0  0  0  0  0  0  0  0  0  0
  -23.8004  -28.9627   22.8317 O   0  0  0  0  0  0  0  0  0  0  0  0
  -25.5557  -24.7175   24.0225 O   0  0  0  0  0  0  0  0  0  0  0  0
  -26.9520  -17.4137   18.3330 O   0  0  0  0  0  0  0  0  0  0  0  0
  -22.2505   -6.6731   21.0155 O   0  0  0  0  0  0  0  0  0  0  0  0
  -30.1797  -24.8572   19.0142 O   0  0  0  0  0  0  0  0  0  1  0  0
  -20.7776   -4.3584   25.7984 F   0  0  0  0  0  0  0  0  0  0  0  0
  -23.3309   -4.2570   21.8140 F   0  0  0  0  0  0  0  0  0  0  0  0
  1  2  1  0  0  0  0
  1  5  2  0  0  0  0
  2  6  2  0  0  0  0
  3  8  2  0  0  0  0
  3 16  1  0  0  0  0
  4  9  1  0  0  0  0
  4 16  2  0  0  0  0
  5 18  1  0  0  0  0
  6 20  1  0  0  0  0
  7 10  2  0  0  0  0
  7 19  1  0  0  0  0
  8 23  1  0  0  0  0
  9 23  2  0  0  0  0
 10 24  1  0  0  0  0
 11 12  2  0  0  0  0
 11 25  1  0  0  0  0
 12 26  1  0  0  0  0
 13 21  1  0  0  0  0
 13 24  2  0  0  0  0
 14 26  2  0  0  0  0
 14 27  1  0  0  0  0
 15 22  1  0  0  0  0
 15 65  2  0  0  0  0
 16 28  1  0  0  0  0
 17 28  1  0  0  0  0
 17 30  2  0  0  0  0
 17 32  1  0  0  0  0
 18 20  2  0  0  0  0
 18 37  1  0  0  0  0
 19 21  2  0  0  0  0
 19 38  1  0  0  0  0
 20 48  1  0  0  0  0
 21 39  1  0  0  0  0
 22 29  2  0  0  0  0
 22 60  1  0  0  0  0
 23 82  1  0  0  0  0
 24 83  1  0  0  0  0
 25 27  2  0  0  0  0
 25 82  1  0  0  0  0
 26 84  1  0  0  0  0
 27 85  1  0  0  0  0
 28 66  2  0  0  0  0
 29 53  1  0  0  0  0
 29 67  1  0  0  0  0
 30 68  1  0  0  0  0
 30 72  1  0  0  0  0
 31 65  1  0  0  0  0
 31 67  2  0  0  0  0
 31 83  1  0  0  0  0
 32 73  1  0  0  0  0
 32 77  2  0  0  0  0
 33 49  1  0  0  0  0
 33 74  1  0  0  0  0
 33 78  2  0  0  0  0
 34 62  1  0  0  0  0
 34 69  1  0  0  0  0
 34 79  2  0  0  0  0
 35 63  1  0  0  0  0
 35 75  1  0  0  0  0
 35 80  2  0  0  0  0
 36 70  1  0  0  0  0
 36 71  1  0  0  0  0
 36 81  2  0  0  0  0
 37 40  1  0  0  0  0
 38 49  1  0  0  0  0
 39 69  1  0  0  0  0
 40 42  1  0  0  0  0
 41 43  1  0  0  0  0
 41 45  1  0  0  0  0
 42 48  1  0  0  0  0
 43 51  1  0  0  0  0
 44 50  1  0  0  0  0
 44 52  1  0  0  0  0
 45 70  1  0  0  0  0
 46 50  1  0  0  0  0
 46 71  1  0  0  0  0
 47 51  1  0  0  0  0
 47 70  1  0  0  0  0
 48 74  1  0  0  0  0
 49 69  1  0  0  0  0
 50 61  1  0  0  0  0
 51 68  1  0  0  0  0
 52 60  1  0  0  0  0
 52 71  1  0  0  0  0
 54 61  1  0  0  0  0
 55 63  1  0  0  0  0
 56 64  1  0  0  0  0
 57 64  1  0  0  0  0
 58 64  1  0  0  0  0
 59 76  1  0  0  0  0
 62 64  1  0  0  0  0
 62 75  1  0  0  0  0
 63 76  1  0  0  0  0
 66 68  1  0  0  0  0
M  CHG  1  76   1
M  ISO  4  31 101  36 100  71 100  83 101
M  END
> <Batch ID>
0180

> <Smiles>
CCC1CC(Cc2cn[101c:1]([101O:1]c3ccc4c(c3)CN(C(=O)C(NC(=O)C(C)NC)C(C)(C)C)C(C(=O)NC3CCCc5ccccc53)C4)nc2C)[100N:0]([100C:0](=O)N2CCCC(n3nc(-c4ccc(Oc5ccc(F)cc5F)cc4)c(C(N)=O)c3N)C2)C1

> <Shape>
0.271

> <Color>
0.138

> <Negative vol penalty>
0.000

$$$$

  -OEChem-04052323003D

 84 93  0     1  0  0  0  0  0999 V2000
  -28.8538  -36.6786   18.9423 C   0  0  0  0  0  0  0  0  0  0  0  0
  -28.9735  -35.3202   18.6665 C   0  0  0  0  0  0  0  0  0  0  0  0
  -22.6915  -11.3389   19.2239 C   0  0  0  0  0  0  0  0  0  0  0  0
  -23.2684   -9.9301   21.0999 C   0  0  0  0  0  0  0  0  0  0  0  0
  -28.4299  -37.0982   20.2025 C   0  0  0  0  0  0  0  0  0  0  0  0
  -28.6704  -34.3807   19.6513 C   0  0  0  0  0  0  0  0  0  0  0  0
  -26.1424  -28.8644   18.8232 C   0  0  0  0  0  0  0  0  0  0  0  0
  -21.6770  -10.4501   18.8684 C   0  0  0  0  0  0  0  0  0  0  0  0
  -22.2538   -9.0413   20.7445 C   0  0  0  0  0  0  0  0  0  0  0  0
  -26.6893  -27.5845   18.7431 C   0  0  0  0  0  0  0  0  0  0  0  0
  -21.7771   -6.5850   18.4707 C   0  0  0  0  0  0  0  0  0  0  0  0
  -22.0767   -5.2227   18.4788 C   0  0  0  0  0  0  0  0  0  0  0  0
  -26.2231  -27.2454   21.0856 C   0  0  0  0  0  0  0  0  0  0  0  0
  -20.3515   -4.8532   20.1294 C   0  0  0  0  0  0  0  0  0  0  0  0
  -29.2131  -23.1903   21.2064 C   0  0  0  0  0  0  0  0  0  0  0  0
  -23.4873  -11.0789   20.3396 C   0  0  0  0  0  0  0  0  0  0  0  0
  -24.4328  -13.1035   21.5703 C   0  0  0  0  0  0  0  0  0  0  0  0
  -28.1121  -36.1631   21.2001 C   0  0  0  0  0  0  0  0  0  0  0  0
  -25.6408  -29.3494   20.0396 C   0  0  0  0  0  0  0  0  0  0  0  0
  -28.2431  -34.7882   20.9265 C   0  0  0  0  0  0  0  0  0  0  0  0
  -25.6681  -28.5309   21.1778 C   0  0  0  0  0  0  0  0  0  0  0  0
  -27.9346  -23.4443   20.7534 C   0  0  0  0  0  0  0  0  0  0  0  0
  -21.4581   -9.3014   19.6287 C   0  0  0  0  0  0  0  0  0  0  0  0
  -26.7323  -26.7758   19.8751 C   0  0  0  0  0  0  0  0  0  0  0  0
  -20.7648   -7.0814   19.2921 C   0  0  0  0  0  0  0  0  0  0  0  0
  -21.3639   -4.3568   19.3081 C   0  0  0  0  0  0  0  0  0  0  0  0
  -20.0520   -6.2155   20.1214 C   0  0  0  0  0  0  0  0  0  0  0  0
  -24.5358  -11.9963   20.7070 C   0  0  0  0  0  0  0  0  0  0  0  0
  -27.3275  -22.4111   20.0690 C   0  0  0  0  0  0  0  0  0  0  0  0
  -25.6956  -13.6434   21.5885 C   0  0  0  0  0  0  0  0  0  0  0  0
  -29.1609  -21.0932   20.3310 C   0  0  0  0  0  0  0  0  0  0  0  0
  -23.2972  -13.5995   22.2914 C   0  0  0  0  0  0  0  0  0  0  0  0
  -26.3718  -31.7745   21.9601 C   0  0  0  0  0  0  0  0  0  0  0  0
  -23.7140  -30.8083   23.5491 C   0  0  0  0  0  0  0  0  0  0  0  0
  -21.5268  -28.2911   24.2747 C   0  0  0  0  0  0  0  0  0  0  0  0
  -30.1724  -15.3090   18.5783 C   0  0  0  0  0  0  0  0  0  0  0  0
  -27.7034  -36.6655   22.5622 C   0  0  0  0  0  0  0  0  0  0  0  0
  -25.0299  -30.7223   20.1032 C   0  0  0  0  0  0  0  0  0  0  0  0
  -25.1243  -28.9968   22.5028 C   0  0  0  0  0  0  0  0  0  0  0  0
  -27.0423  -35.5990   23.4316 C   0  0  0  0  0  0  0  0  0  0  0  0
  -30.0822  -11.8559   19.8195 C   0  0  0  0  0  0  0  0  0  0  0  0
  -27.8429  -34.3014   23.3859 C   0  0  0  0  0  0  0  0  0  0  0  0
  -28.6095  -11.6659   20.1856 C   0  0  0  0  0  0  0  0  0  0  0  0
  -28.2850  -17.9482   20.3071 C   0  0  0  0  0  0  0  0  0  0  0  0
  -30.2625  -12.8445   18.6698 C   0  0  0  0  0  0  0  0  0  0  0  0
  -28.2004  -16.6259   19.5520 C   0  0  0  0  0  0  0  0  0  0  0  0
  -28.1377  -13.9554   19.2394 C   0  0  0  0  0  0  0  0  0  0  0  0
  -30.2327  -17.7574   18.9567 C   0  0  0  0  0  0  0  0  0  0  0  0
  -27.8998  -33.7382   21.9607 C   0  0  1  0  0  0  0  0  0  0  0  0
  -25.0162  -31.3056   21.5128 C   0  0  1  0  0  0  0  0  0  0  0  0
  -27.9206  -13.0202   20.4371 C   0  0  1  0  0  0  0  0  0  0  0  0
  -29.1962  -18.7757   19.4072 C   0  0  2  0  0  0  0  0  0  0  0  0
  -25.9422  -22.5710   19.5352 C   0  0  0  0  0  0  0  0  0  0  0  0
  -19.4770  -27.7932   25.6339 C   0  0  0  0  0  0  0  0  0  0  0  0
  -25.4226  -30.6790   26.0738 C   0  0  0  0  0  0  0  0  0  0  0  0
  -23.6215  -29.3037   27.1383 C   0  0  0  0  0  0  0  0  0  0  0  0
  -23.1379  -31.6395   26.4084 C   0  0  0  0  0  0  0  0  0  0  0  0
  -19.9421  -27.6423   21.8608 C   0  0  0  0  0  0  0  0  0  0  0  0
  -27.2772  -24.7528   21.0004 C   0  0  0  0  0  0  0  0  0  1  0  0
  -23.4314  -29.8320   24.6653 C   0  0  1  0  0  0  0  0  0  0  0  0
  -20.0095  -28.2464   24.2834 C   0  0  2  0  0  0  0  0  0  0  0  0
  -23.9154  -30.3552   26.0471 C   0  0  0  0  0  0  0  0  0  0  0  0
  -29.8589  -22.0217   21.0122 N   0  0  0  0  0  0  0  0  0  0  0  0
  -25.7668  -11.8409   20.2124 N   0  0  0  0  0  0  0  0  0  0  0  0
  -27.9137  -21.2179   19.8387 N   0  0  0  0  0  0  0  0  0  0  0  0
  -26.4488  -12.8576   20.7667 N   0  0  0  0  0  0  0  0  0  0  0  0
  -24.5428  -30.3493   22.5156 N   0  0  0  0  0  0  0  0  0  0  0  0
  -29.5673  -14.1020   18.9453 N   0  0  0  0  0  0  0  0  0  0  0  0
  -29.5070  -16.4905   18.9029 N   0  0  0  0  0  0  0  0  0  0  0  0
  -26.2240  -14.7090   22.2271 N   0  0  0  0  0  0  0  0  0  0  0  0
  -22.0756  -12.9252   22.1598 N   0  0  0  0  0  0  0  0  0  0  0  0
  -29.7949  -19.8774   20.1134 N   0  0  0  0  0  0  0  0  0  0  0  0
  -26.6525  -33.0854   21.6251 N   0  0  0  0  0  0  0  0  0  0  0  0
  -22.0028  -29.5429   24.6028 N   0  0  0  0  0  0  0  0  0  0  0  0
  -19.5130  -27.3031   23.2420 N   0  3  0  0  0  0  0  0  0  0  0  0
  -23.3598  -14.6203   23.0177 O   0  0  0  0  0  0  0  0  0  0  0  0
  -27.1080  -31.0044   22.5657 O   0  0  0  0  0  0  0  0  0  0  0  0
  -23.2119  -31.9344   23.5891 O   0  0  0  0  0  0  0  0  0  0  0  0
  -22.2205  -27.3124   24.0073 O   0  0  0  0  0  0  0  0  0  0  0  0
  -31.2808  -15.3324   18.0269 O   0  0  0  0  0  0  0  0  0  0  0  0
  -20.4680   -8.4340   19.2823 O   0  0  0  0  0  0  0  0  0  0  0  0
  -27.2694  -25.5186   19.7994 O   0  0  0  0  0  0  0  0  0  1  0  0
  -21.6506   -3.0484   19.3146 F   0  0  0  0  0  0  0  0  0  0  0  0
  -19.0776   -6.6863   20.9117 F   0  0  0  0  0  0  0  0  0  0  0  0
  1  2  1  0  0  0  0
  1  5  2  0  0  0  0
  2  6  2  0  0  0  0
  3  8  2  0  0  0  0
  3 16  1  0  0  0  0
  4  9  1  0  0  0  0
  4 16  2  0  0  0  0
  5 18  1  0  0  0  0
  6 20  1  0  0  0  0
  7 10  2  0  0  0  0
  7 19  1  0  0  0  0
  8 23  1  0  0  0  0
  9 23  2  0  0  0  0
 10 24  1  0  0  0  0
 11 12  2  0  0  0  0
 11 25  1  0  0  0  0
 12 26  1  0  0  0  0
 13 21  1  0  0  0  0
 13 24  2  0  0  0  0
 14 26  2  0  0  0  0
 14 27  1  0  0  0  0
 15 22  1  0  0  0  0
 15 63  2  0  0  0  0
 16 28  1  0  0  0  0
 17 28  1  0  0  0  0
 17 30  2  0  0  0  0
 17 32  1  0  0  0  0
 18 20  2  0  0  0  0
 18 37  1  0  0  0  0
 19 21  2  0  0  0  0
 19 38  1  0  0  0  0
 20 49  1  0  0  0  0
 21 39  1  0  0  0  0
 22 29  2  0  0  0  0
 22 59  1  0  0  0  0
 23 81  1  0  0  0  0
 24 82  1  0  0  0  0
 25 27  2  0  0  0  0
 25 81  1  0  0  0  0
 26 83  1  0  0  0  0
 27 84  1  0  0  0  0
 28 64  2  0  0  0  0
 29 53  1  0  0  0  0
 29 65  1  0  0  0  0
 30 66  1  0  0  0  0
 30 70  1  0  0  0  0
 31 63  1  0  0  0  0
 31 65  2  0  0  0  0
 31 72  1  0  0  0  0
 32 71  1  0  0  0  0
 32 76  2  0  0  0  0
 33 50  1  0  0  0  0
 33 73  1  0  0  0  0
 33 77  2  0  0  0  0
 34 60  1  0  0  0  0
 34 67  1  0  0  0  0
 34 78  2  0  0  0  0
 35 61  1  0  0  0  0
 35 74  1  0  0  0  0
 35 79  2  0  0  0  0
 36 68  1  0  0  0  0
 36 69  1  0  0  0  0
 36 80  2  0  0  0  0
 37 40  1  0  0  0  0
 38 50  1  0  0  0  0
 39 67  1  0  0  0  0
 40 42  1  0  0  0  0
 41 43  1  0  0  0  0
 41 45  1  0  0  0  0
 42 49  1  0  0  0  0
 43 51  1  0  0  0  0
 44 46  1  0  0  0  0
 44 52  1  0  0  0  0
 45 68  1  0  0  0  0
 46 69  1  0  0  0  0
 47 51  1  0  0  0  0
 47 68  1  0  0  0  0
 48 52  1  0  0  0  0
 48 69  1  0  0  0  0
 49 73  1  0  0  0  0
 50 67  1  0  0  0  0
 51 66  1  0  0  0  0
 52 72  1  0  0  0  0
 54 61  1  0  0  0  0
 55 62  1  0  0  0  0
 56 62  1  0  0  0  0
 57 62  1  0  0  0  0
 58 75  1  0  0  0  0
 59 82  1  0  0  0  0
 60 62  1  0  0  0  0
 60 74  1  0  0  0  0
 61 75  1  0  0  0  0
 64 66  1  0  0  0  0
M  CHG  1  75   1
M  ISO  4  36 100  59 101  69 100  82 101
M  END
> <Batch ID>
0180

> <Smiles>
CNC(C)C(=O)NC(C(=O)N1Cc2cc([101O:1][101CH2:1]c3cnc(NC4CC[100N:0]([100C:0](=O)N5CCCC(n6nc(-c7ccc(Oc8ccc(F)cc8F)cc7)c(C(N)=O)c6N)C5)C4)nc3C)ccc2CC1C(=O)NC1CCCc2ccccc21)C(C)(C)C

> <Shape>
0.287

> <Color>
0.126

> <Negative vol penalty>
0.000

$$$$

  -OEChem-04052323003D

 87 97  0     1  0  0  0  0  0999 V2000
  -19.3892  -24.4303   23.9139 C   0  0  0  0  0  0  0  0  0  0  0  0
  -20.6476  -24.4759   23.3224 C   0  0  0  0  0  0  0  0  0  0  0  0
  -24.2370  -12.2991   19.3773 C   0  0  0  0  0  0  0  0  0  0  0  0
  -25.4412  -13.7195   20.9166 C   0  0  0  0  0  0  0  0  0  0  0  0
  -18.5765  -25.5632   23.9091 C   0  0  0  0  0  0  0  0  0  0  0  0
  -21.0936  -25.6542   22.7247 C   0  0  0  0  0  0  0  0  0  0  0  0
  -25.8828  -26.7592   23.9443 C   0  0  0  0  0  0  0  0  0  0  0  0
  -24.7085  -11.1713   20.0490 C   0  0  0  0  0  0  0  0  0  0  0  0
  -25.9127  -12.5916   21.5884 C   0  0  0  0  0  0  0  0  0  0  0  0
  -26.8872  -26.0527   23.2841 C   0  0  0  0  0  0  0  0  0  0  0  0
  -23.9840   -9.4758   22.8834 C   0  0  0  0  0  0  0  0  0  0  0  0
  -23.0702   -8.4608   23.1665 C   0  0  0  0  0  0  0  0  0  0  0  0
  -24.6976  -22.0038   18.6508 C   0  0  0  0  0  0  0  0  0  0  0  0
  -27.2220  -27.9260   21.8016 C   0  0  0  0  0  0  0  0  0  0  0  0
  -24.3880   -6.9109   21.8632 C   0  0  0  0  0  0  0  0  0  0  0  0
  -24.6034  -13.5732   19.8111 C   0  0  0  0  0  0  0  0  0  0  0  0
  -23.4080  -21.5989   18.3245 C   0  0  0  0  0  0  0  0  0  0  0  0
  -24.3265  -15.0724   17.7657 C   0  0  0  0  0  0  0  0  0  0  0  0
  -19.0166  -26.7587   23.3196 C   0  0  0  0  0  0  0  0  0  0  0  0
  -25.5324  -28.0524   23.5304 C   0  0  0  0  0  0  0  0  0  0  0  0
  -20.2854  -26.8037   22.7109 C   0  0  0  0  0  0  0  0  0  0  0  0
  -25.6340  -22.2025   17.6422 C   0  0  0  0  0  0  0  0  0  0  0  0
  -26.2146  -28.6478   22.4598 C   0  0  0  0  0  0  0  0  0  0  0  0
  -25.5464  -11.3175   21.1546 C   0  0  0  0  0  0  0  0  0  0  0  0
  -27.5550  -26.6349   22.2108 C   0  0  0  0  0  0  0  0  0  0  0  0
  -25.0998   -9.2085   22.0901 C   0  0  0  0  0  0  0  0  0  0  0  0
  -23.2722   -7.1783   22.6565 C   0  0  0  0  0  0  0  0  0  0  0  0
  -25.3018   -7.9261   21.5800 C   0  0  0  0  0  0  0  0  0  0  0  0
  -24.1171  -14.7386   19.1172 C   0  0  0  0  0  0  0  0  0  0  0  0
  -25.2339  -21.9845   16.3337 C   0  0  0  0  0  0  0  0  0  0  0  0
  -23.1075  -21.4078   16.9855 C   0  0  0  0  0  0  0  0  0  0  0  0
  -23.6645  -16.2643   17.5999 C   0  0  0  0  0  0  0  0  0  0  0  0
  -22.4175  -21.3885   19.3882 C   0  0  0  0  0  0  0  0  0  0  0  0
  -25.0543  -14.3680   16.7510 C   0  0  0  0  0  0  0  0  0  0  0  0
  -22.8904  -29.4049   22.3928 C   0  0  0  0  0  0  0  0  0  0  0  0
  -24.6362  -32.1259   22.6580 C   0  0  0  0  0  0  0  0  0  0  0  0
  -26.1587  -35.1764   22.5054 C   0  0  0  0  0  0  0  0  0  0  0  0
  -18.0837  -27.9436   23.2974 C   0  0  0  0  0  0  0  0  0  0  0  0
  -24.4651  -28.8115   24.2701 C   0  0  0  0  0  0  0  0  0  0  0  0
  -25.8901  -30.0413   21.9894 C   0  0  0  0  0  0  0  0  0  0  0  0
  -18.7813  -29.2621   22.9729 C   0  0  0  0  0  0  0  0  0  0  0  0
  -20.4270  -18.6977   20.6289 C   0  0  0  0  0  0  0  0  0  0  0  0
  -19.7116  -29.0933   21.7759 C   0  0  0  0  0  0  0  0  0  0  0  0
  -26.0020  -21.4381   13.9284 C   0  0  0  0  0  0  0  0  0  0  0  0
  -27.1274  -21.0577   14.8390 C   0  0  0  0  0  0  0  0  0  0  0  0
  -21.2344  -17.4536   20.2538 C   0  0  0  0  0  0  0  0  0  0  0  0
  -27.7887  -21.6787   18.9069 C   0  0  0  0  0  0  0  0  0  0  0  0
  -21.3345  -19.8658   21.0064 C   0  0  0  0  0  0  0  0  0  0  0  0
  -23.1620  -18.9609   19.6113 C   0  0  0  0  0  0  0  0  0  0  0  0
  -28.9599  -22.5187   19.3718 C   0  0  0  0  0  0  0  0  0  0  0  0
  -27.1063  -23.9817   18.7300 C   0  0  0  0  0  0  0  0  0  0  0  0
  -27.0343  -22.6421   17.9931 C   0  0  2  0  0  0  0  0  0  0  0  0
  -20.8146  -28.0706   22.0743 C   0  0  1  0  0  0  0  0  0  0  0  0
  -26.2071  -22.1864   15.2176 C   0  0  0  0  0  0  0  0  0  0  0  0
  -23.8375  -29.9248   23.4369 C   0  0  1  0  0  0  0  0  0  0  0  0
  -22.2857  -17.7753   19.1750 C   0  0  1  0  0  0  0  0  0  0  0  0
  -21.7389  -20.9727   16.5729 C   0  0  0  0  0  0  0  0  0  0  0  0
  -26.0027  -37.4005   21.3538 C   0  0  0  0  0  0  0  0  0  0  0  0
  -25.8120  -30.8946   20.1260 C   0  0  0  0  0  0  0  0  0  0  0  0
  -26.5046  -33.1927   19.4137 C   0  0  0  0  0  0  0  0  0  0  0  0
  -24.0873  -32.6603   19.7235 C   0  0  0  0  0  0  0  0  0  0  0  0
  -25.7534  -36.6042   25.0659 C   0  0  0  0  0  0  0  0  0  0  0  0
  -29.2949  -25.0128   19.4828 C   0  0  0  0  0  0  0  0  0  0  0  0
  -28.7227  -26.2321   20.1785 C   0  0  0  0  0  0  0  0  0  1  0  0
  -25.5771  -32.8848   21.7538 C   0  0  1  0  0  0  0  0  0  0  0  0
  -25.5992  -36.5859   22.5730 C   0  0  2  0  0  0  0  0  0  0  0  0
  -25.5039  -32.3974   20.2792 C   0  0  0  0  0  0  0  0  0  0  0  0
  -23.3798  -15.6453   19.7640 N   0  0  0  0  0  0  0  0  0  0  0  0
  -23.9904  -21.5909   15.9782 N   0  0  0  0  0  0  0  0  0  0  0  0
  -23.1203  -16.5607   18.8148 N   0  0  0  0  0  0  0  0  0  0  0  0
  -22.3204  -20.1156   19.9555 N   0  0  0  0  0  0  0  0  0  0  0  0
  -24.8346  -30.7404   22.7408 N   0  0  0  0  0  0  0  0  0  0  0  0
  -23.5007  -17.0774   16.5347 N   0  0  0  0  0  0  0  0  0  0  0  0
  -26.4172  -14.6513   16.5878 N   0  0  0  0  0  0  0  0  0  0  0  0
  -21.8423  -28.6630   22.9033 N   0  0  0  0  0  0  0  0  0  0  0  0
  -25.2633  -34.2984   21.9322 N   0  0  0  0  0  0  0  0  0  0  0  0
  -28.3367  -23.8737   19.6161 N   0  3  2  0  0  0  0  0  0  0  0  0
  -26.0993  -37.2839   23.7910 N   0  3  0  0  0  0  0  0  0  0  0  0
  -21.7315  -22.3632   19.6926 O   0  0  0  0  0  0  0  0  0  0  0  0
  -24.5084  -13.5245   15.9999 O   0  0  0  0  0  0  0  0  0  0  0  0
  -23.0945  -29.6592   21.2115 O   0  0  0  0  0  0  0  0  0  0  0  0
  -23.7620  -32.7407   23.2740 O   0  0  0  0  0  0  0  0  0  0  0  0
  -27.2795  -34.8842   22.9165 O   0  0  0  0  0  0  0  0  0  0  0  0
  -26.0065  -10.2172   21.8105 O   0  0  0  0  0  0  0  0  0  0  0  0
  -28.5353  -25.9473   21.5642 O   0  0  0  0  0  0  0  0  0  1  0  0
  -22.3955   -6.2032   22.9297 F   0  0  0  0  0  0  0  0  0  0  0  0
  -26.3724   -7.6629   20.8183 F   0  0  0  0  0  0  0  0  0  0  0  0
  1  2  1  0  0  0  0
  1  5  2  0  0  0  0
  2  6  2  0  0  0  0
  3  8  2  0  0  0  0
  3 16  1  0  0  0  0
  4  9  1  0  0  0  0
  4 16  2  0  0  0  0
  5 19  1  0  0  0  0
  6 21  1  0  0  0  0
  7 10  2  0  0  0  0
  7 20  1  0  0  0  0
  8 24  1  0  0  0  0
  9 24  2  0  0  0  0
 10 25  1  0  0  0  0
 11 12  2  0  0  0  0
 11 26  1  0  0  0  0
 12 27  1  0  0  0  0
 13 17  2  0  0  0  0
 13 22  1  0  0  0  0
 14 23  1  0  0  0  0
 14 25  2  0  0  0  0
 15 27  2  0  0  0  0
 15 28  1  0  0  0  0
 16 29  1  0  0  0  0
 17 31  1  0  0  0  0
 17 33  1  0  0  0  0
 18 29  1  0  0  0  0
 18 32  2  0  0  0  0
 18 34  1  0  0  0  0
 19 21  2  0  0  0  0
 19 38  1  0  0  0  0
 20 23  2  0  0  0  0
 20 39  1  0  0  0  0
 21 53  1  0  0  0  0
 22 30  2  0  0  0  0
 22 52  1  0  0  0  0
 23 40  1  0  0  0  0
 24 84  1  0  0  0  0
 25 85  1  0  0  0  0
 26 28  2  0  0  0  0
 26 84  1  0  0  0  0
 27 86  1  0  0  0  0
 28 87  1  0  0  0  0
 29 68  2  0  0  0  0
 30 54  1  0  0  0  0
 30 69  1  0  0  0  0
 31 57  1  0  0  0  0
 31 69  2  0  0  0  0
 32 70  1  0  0  0  0
 32 73  1  0  0  0  0
 33 71  1  0  0  0  0
 33 79  2  0  0  0  0
 34 74  1  0  0  0  0
 34 80  2  0  0  0  0
 35 55  1  0  0  0  0
 35 75  1  0  0  0  0
 35 81  2  0  0  0  0
 36 65  1  0  0  0  0
 36 72  1  0  0  0  0
 36 82  2  0  0  0  0
 37 66  1  0  0  0  0
 37 76  1  0  0  0  0
 37 83  2  0  0  0  0
 38 41  1  0  0  0  0
 39 55  1  0  0  0  0
 40 72  1  0  0  0  0
 41 43  1  0  0  0  0
 42 46  1  0  0  0  0
 42 48  1  0  0  0  0
 43 53  1  0  0  0  0
 44 45  1  0  0  0  0
 44 54  1  0  0  0  0
 45 54  1  0  0  0  0
 46 56  1  0  0  0  0
 47 50  1  0  0  0  0
 47 52  1  0  0  0  0
 48 71  1  0  0  0  0
 49 56  1  0  0  0  0
 49 71  1  0  0  0  0
 50 77  1  0  0  0  0
 51 52  1  0  0  0  0
 51 77  1  0  0  0  0
 53 75  1  0  0  0  0
 55 72  1  0  0  0  0
 56 70  1  0  0  0  0
 58 66  1  0  0  0  0
 59 67  1  0  0  0  0
 60 67  1  0  0  0  0
 61 67  1  0  0  0  0
 62 78  1  0  0  0  0
 63 64  1  0  0  0  0
 63 77  1  0  0  0  0
 64 85  1  0  0  0  0
 65 67  1  0  0  0  0
 65 76  1  0  0  0  0
 66 78  1  0  0  0  0
 68 70  1  0  0  0  0
M  CHG  2  77   1  78   1
M  ISO  4  17 100  33 100  64 101  85 101
M  END
> <Batch ID>
0180

> <Smiles>
CNC(C)C(=O)NC(C(=O)N1Cc2cc([101O:1][101CH2:1]CN3CCC(c4c[100c:0]([100C:0](=O)N5CCCC(n6nc(-c7ccc(Oc8ccc(F)cc8F)cc7)c(C(N)=O)c6N)C5)c(C)nc4C4CC4)C3)ccc2CC1C(=O)NC1CCCc2ccccc21)C(C)(C)C

> <Shape>
0.208

> <Color>
0.098

> <Negative vol penalty>
0.000

$$$$

  -OEChem-04052323003D

 79 87  0     1  0  0  0  0  0999 V2000
  -19.9508  -29.1965   17.8944 C   0  0  0  0  0  0  0  0  0  0  0  0
  -20.4284  -27.8900   17.9146 C   0  0  0  0  0  0  0  0  0  0  0  0
  -23.0723   -9.8729   19.9417 C   0  0  0  0  0  0  0  0  0  0  0  0
  -23.8388   -9.8754   22.2329 C   0  0  0  0  0  0  0  0  0  0  0  0
  -20.3531  -30.0998   18.8773 C   0  0  0  0  0  0  0  0  0  0  0  0
  -21.3096  -27.4864   18.9171 C   0  0  0  0  0  0  0  0  0  0  0  0
  -21.6190  -21.9617   21.5416 C   0  0  0  0  0  0  0  0  0  0  0  0
  -22.3291   -8.7193   20.1915 C   0  0  0  0  0  0  0  0  0  0  0  0
  -23.0955   -8.7218   22.4828 C   0  0  0  0  0  0  0  0  0  0  0  0
  -22.4518  -20.8650   21.3236 C   0  0  0  0  0  0  0  0  0  0  0  0
  -19.8690   -7.9231   23.0930 C   0  0  0  0  0  0  0  0  0  0  0  0
  -19.1154   -7.8809   24.2660 C   0  0  0  0  0  0  0  0  0  0  0  0
  -23.8799  -21.5994   23.1237 C   0  0  0  0  0  0  0  0  0  0  0  0
  -20.3588   -5.9420   24.9951 C   0  0  0  0  0  0  0  0  0  0  0  0
  -23.8272  -10.4509   20.9623 C   0  0  0  0  0  0  0  0  0  0  0  0
  -24.1689  -12.9763   20.8462 C   0  0  0  0  0  0  0  0  0  0  0  0
  -21.2322  -29.7044   19.8979 C   0  0  0  0  0  0  0  0  0  0  0  0
  -21.9169  -22.8930   22.5468 C   0  0  0  0  0  0  0  0  0  0  0  0
  -21.7252  -28.3857   19.9137 C   0  0  0  0  0  0  0  0  0  0  0  0
  -23.0479  -22.7056   23.3541 C   0  0  0  0  0  0  0  0  0  0  0  0
  -22.3406   -8.1438   21.4621 C   0  0  0  0  0  0  0  0  0  0  0  0
  -23.5840  -20.6853   22.1128 C   0  0  0  0  0  0  0  0  0  0  0  0
  -20.8675   -6.9746   22.8710 C   0  0  0  0  0  0  0  0  0  0  0  0
  -19.3603   -6.8904   25.2171 C   0  0  0  0  0  0  0  0  0  0  0  0
  -21.1124   -5.9841   23.8221 C   0  0  0  0  0  0  0  0  0  0  0  0
  -24.5957  -11.6422   20.7047 C   0  0  0  0  0  0  0  0  0  0  0  0
  -25.2601  -13.7263   20.4813 C   0  0  0  0  0  0  0  0  0  0  0  0
  -22.8997  -13.4914   21.2698 C   0  0  0  0  0  0  0  0  0  0  0  0
  -22.5892  -25.9992   22.5991 C   0  0  0  0  0  0  0  0  0  0  0  0
  -22.4597  -25.5759   25.8125 C   0  0  0  0  0  0  0  0  0  0  0  0
  -22.7116  -23.4453   28.4666 C   0  0  0  0  0  0  0  0  0  0  0  0
  -30.7445  -14.7446   20.6558 C   0  0  0  0  0  0  0  0  0  0  0  0
  -21.6759  -30.7294   20.9113 C   0  0  0  0  0  0  0  0  0  0  0  0
  -20.9939  -24.0561   22.7868 C   0  0  0  0  0  0  0  0  0  0  0  0
  -23.4010  -23.6656   24.4597 C   0  0  0  0  0  0  0  0  0  0  0  0
  -22.3184  -30.1187   22.1541 C   0  0  0  0  0  0  0  0  0  0  0  0
  -29.5998  -12.3648   18.2677 C   0  0  0  0  0  0  0  0  0  0  0  0
  -23.3354  -29.0523   21.7599 C   0  0  0  0  0  0  0  0  0  0  0  0
  -28.1636  -12.0703   18.7042 C   0  0  0  0  0  0  0  0  0  0  0  0
  -26.8954  -19.3205   19.9089 C   0  0  0  0  0  0  0  0  0  0  0  0
  -30.5204  -12.5832   19.4664 C   0  0  0  0  0  0  0  0  0  0  0  0
  -28.6227  -13.3117   20.8599 C   0  0  0  0  0  0  0  0  0  0  0  0
  -22.6630  -27.9032   20.9990 C   0  0  1  0  0  0  0  0  0  0  0  0
  -21.6734  -25.2207   23.5006 C   0  0  1  0  0  0  0  0  0  0  0  0
  -26.5984  -18.9037   21.3248 C   0  0  1  0  0  0  0  0  0  0  0  0
  -27.6451  -13.1395   19.6847 C   0  0  2  0  0  0  0  0  0  0  0  0
  -27.9950  -19.3097   20.9360 C   0  0  1  0  0  0  0  0  0  0  0  0
  -22.5938  -23.3980   30.9728 C   0  0  0  0  0  0  0  0  0  0  0  0
  -31.6889  -16.6535   23.1236 C   0  0  0  0  0  0  0  0  0  0  0  0
  -25.2351  -26.8345   25.9644 C   0  0  0  0  0  0  0  0  0  0  0  0
  -25.4517  -25.9093   28.2807 C   0  0  0  0  0  0  0  0  0  0  0  0
  -23.6587  -27.5647   27.7633 C   0  0  0  0  0  0  0  0  0  0  0  0
  -20.4227  -21.5694   28.4393 C   0  0  0  0  0  0  0  0  0  0  0  0
  -25.7825  -19.7834   22.2081 C   0  0  0  0  0  0  0  0  0  1  0  0
  -29.8139  -18.0340   22.0774 C   0  0  0  0  0  0  0  0  0  0  0  0
  -23.4570  -25.2033   26.8828 C   0  0  1  0  0  0  0  0  0  0  0  0
  -21.8183  -23.2318   29.6752 C   0  0  2  0  0  0  0  0  0  0  0  0
  -30.8141  -16.8927   21.8967 C   0  0  2  0  0  0  0  0  0  0  0  0
  -24.4453  -26.3607   27.2008 C   0  0  0  0  0  0  0  0  0  0  0  0
  -25.8593  -11.5471   20.2826 N   0  0  0  0  0  0  0  0  0  0  0  0
  -26.2360  -12.8309   20.1557 N   0  0  0  0  0  0  0  0  0  0  0  0
  -22.4708  -24.7907   24.6510 N   0  0  0  0  0  0  0  0  0  0  0  0
  -29.9725  -13.6100   20.3559 N   0  0  0  0  0  0  0  0  0  0  0  0
  -25.4704  -15.0579   20.4102 N   0  0  0  0  0  0  0  0  0  0  0  0
  -21.8887  -12.5816   21.6082 N   0  0  0  0  0  0  0  0  0  0  0  0
  -21.9671  -27.0277   21.9175 N   0  0  0  0  0  0  0  0  0  0  0  0
  -22.6759  -24.7526   28.0296 N   0  0  0  0  0  0  0  0  0  0  0  0
  -30.1478  -15.6718   21.5014 N   0  0  0  0  0  0  0  0  0  0  0  0
  -29.0072  -18.2514   20.8377 N   0  3  0  0  0  0  0  0  0  0  0  0
  -21.2318  -21.8620   29.6504 N   0  3  0  0  0  0  0  0  0  0  0  0
  -22.6637  -14.7219   21.3302 O   0  0  0  0  0  0  0  0  0  0  0  0
  -23.7731  -25.6907   22.5282 O   0  0  0  0  0  0  0  0  0  0  0  0
  -21.6940  -26.5241   26.0031 O   0  0  0  0  0  0  0  0  0  0  0  0
  -23.3777  -22.5435   27.9629 O   0  0  0  0  0  0  0  0  0  0  0  0
  -31.8791  -14.9208   20.1993 O   0  0  0  0  0  0  0  0  0  0  0  0
  -21.6153   -7.0183   21.7063 O   0  0  0  0  0  0  0  0  0  0  0  0
  -24.3989  -19.6161   21.9017 O   0  0  0  0  0  0  0  0  0  1  0  0
  -18.6376   -6.8510   26.3442 F   0  0  0  0  0  0  0  0  0  0  0  0
  -22.0710   -5.0709   23.6149 F   0  0  0  0  0  0  0  0  0  0  0  0
  1  2  1  0  0  0  0
  1  5  2  0  0  0  0
  2  6  2  0  0  0  0
  3  8  2  0  0  0  0
  3 15  1  0  0  0  0
  4  9  1  0  0  0  0
  4 15  2  0  0  0  0
  5 17  1  0  0  0  0
  6 19  1  0  0  0  0
  7 10  2  0  0  0  0
  7 18  1  0  0  0  0
  8 21  1  0  0  0  0
  9 21  2  0  0  0  0
 10 22  1  0  0  0  0
 11 12  2  0  0  0  0
 11 23  1  0  0  0  0
 12 24  1  0  0  0  0
 13 20  1  0  0  0  0
 13 22  2  0  0  0  0
 14 24  2  0  0  0  0
 14 25  1  0  0  0  0
 15 26  1  0  0  0  0
 16 26  1  0  0  0  0
 16 27  2  0  0  0  0
 16 28  1  0  0  0  0
 17 19  2  0  0  0  0
 17 33  1  0  0  0  0
 18 20  2  0  0  0  0
 18 34  1  0  0  0  0
 19 43  1  0  0  0  0
 20 35  1  0  0  0  0
 21 76  1  0  0  0  0
 22 77  1  0  0  0  0
 23 25  2  0  0  0  0
 23 76  1  0  0  0  0
 24 78  1  0  0  0  0
 25 79  1  0  0  0  0
 26 60  2  0  0  0  0
 27 61  1  0  0  0  0
 27 64  1  0  0  0  0
 28 65  1  0  0  0  0
 28 71  2  0  0  0  0
 29 44  1  0  0  0  0
 29 66  1  0  0  0  0
 29 72  2  0  0  0  0
 30 56  1  0  0  0  0
 30 62  1  0  0  0  0
 30 73  2  0  0  0  0
 31 57  1  0  0  0  0
 31 67  1  0  0  0  0
 31 74  2  0  0  0  0
 32 63  1  0  0  0  0
 32 68  1  0  0  0  0
 32 75  2  0  0  0  0
 33 36  1  0  0  0  0
 34 44  1  0  0  0  0
 35 62  1  0  0  0  0
 36 38  1  0  0  0  0
 37 39  1  0  0  0  0
 37 41  1  0  0  0  0
 38 43  1  0  0  0  0
 39 46  1  0  0  0  0
 40 45  1  0  0  0  0
 40 47  1  0  0  0  0
 41 63  1  0  0  0  0
 42 46  1  0  0  0  0
 42 63  1  0  0  0  0
 43 66  1  0  0  0  0
 44 62  1  0  0  0  0
 45 47  1  0  0  0  0
 45 54  1  0  0  0  0
 46 61  1  0  0  0  0
 47 69  1  0  0  0  0
 48 57  1  0  0  0  0
 49 58  1  0  0  0  0
 50 59  1  0  0  0  0
 51 59  1  0  0  0  0
 52 59  1  0  0  0  0
 53 70  1  0  0  0  0
 54 77  1  0  0  0  0
 55 58  1  0  0  0  0
 55 69  1  0  0  0  0
 56 59  1  0  0  0  0
 56 67  1  0  0  0  0
 57 70  1  0  0  0  0
 58 68  1  0  0  0  0
 60 61  1  0  0  0  0
M  CHG  2  69   1  70   1
M  ISO  4  32 100  54 101  68 100  77 101
M  END
> <Batch ID>
0180

> <Smiles>
CNC(C)C(=O)NC(C(=O)N1Cc2cc([101O:1][101CH2:1]C3CC3NCC(C)[100NH:0][100C:0](=O)N3CCCC(n4nc(-c5ccc(Oc6ccc(F)cc6F)cc5)c(C(N)=O)c4N)C3)ccc2CC1C(=O)NC1CCCc2ccccc21)C(C)(C)C

> <Shape>
0.223

> <Color>
0.196

> <Negative vol penalty>
0.000

$$$$

  -OEChem-04052323003D

 81 90  0     1  0  0  0  0  0999 V2000
  -23.8833  -30.0249   21.6655 C   0  0  0  0  0  0  0  0  0  0  0  0
  -24.0041  -28.6603   21.4234 C   0  0  0  0  0  0  0  0  0  0  0  0
  -23.3960   -9.7016   20.0560 C   0  0  0  0  0  0  0  0  0  0  0  0
  -23.7134  -10.0875   22.4198 C   0  0  0  0  0  0  0  0  0  0  0  0
  -24.9550  -30.7330   22.2077 C   0  0  0  0  0  0  0  0  0  0  0  0
  -25.1971  -28.0031   21.7224 C   0  0  0  0  0  0  0  0  0  0  0  0
  -27.6702  -21.6594   23.9489 C   0  0  0  0  0  0  0  0  0  0  0  0
  -22.6958   -8.5296   20.3414 C   0  0  0  0  0  0  0  0  0  0  0  0
  -23.0131   -8.9155   22.7052 C   0  0  0  0  0  0  0  0  0  0  0  0
  -28.5979  -20.6807   23.5951 C   0  0  0  0  0  0  0  0  0  0  0  0
  -19.7885   -7.9141   22.8461 C   0  0  0  0  0  0  0  0  0  0  0  0
  -18.8310   -7.9634   23.8592 C   0  0  0  0  0  0  0  0  0  0  0  0
  -30.3552  -21.9907   24.6025 C   0  0  0  0  0  0  0  0  0  0  0  0
  -20.0377   -6.2649   25.0823 C   0  0  0  0  0  0  0  0  0  0  0  0
  -30.3642  -15.7900   24.7883 C   0  0  0  0  0  0  0  0  0  0  0  0
  -23.9049  -10.4806   21.0952 C   0  0  0  0  0  0  0  0  0  0  0  0
  -24.0970  -12.9871   20.6612 C   0  0  0  0  0  0  0  0  0  0  0  0
  -26.1584  -30.0824   22.5225 C   0  0  0  0  0  0  0  0  0  0  0  0
  -28.0805  -22.8182   24.6237 C   0  0  0  0  0  0  0  0  0  0  0  0
  -26.2863  -28.7035   22.2681 C   0  0  0  0  0  0  0  0  0  0  0  0
  -29.4304  -22.9814   24.9661 C   0  0  0  0  0  0  0  0  0  0  0  0
  -22.5043   -8.1365   21.6659 C   0  0  0  0  0  0  0  0  0  0  0  0
  -29.9411  -20.8475   23.9194 C   0  0  0  0  0  0  0  0  0  0  0  0
  -20.8706   -7.0401   22.9510 C   0  0  0  0  0  0  0  0  0  0  0  0
  -18.9556   -7.1388   24.9773 C   0  0  0  0  0  0  0  0  0  0  0  0
  -20.9952   -6.2156   24.0692 C   0  0  0  0  0  0  0  0  0  0  0  0
  -24.6288  -11.6912   20.8011 C   0  0  0  0  0  0  0  0  0  0  0  0
  -32.4601  -17.1799   23.9502 C   0  0  0  0  0  0  0  0  0  0  0  0
  -31.3802  -17.7959   24.5556 C   0  0  0  0  0  0  0  0  0  0  0  0
  -31.4471  -15.1724   24.1786 C   0  0  0  0  0  0  0  0  0  0  0  0
  -25.1862  -13.7775   20.3867 C   0  0  0  0  0  0  0  0  0  0  0  0
  -22.7397  -13.4362   20.7696 C   0  0  0  0  0  0  0  0  0  0  0  0
  -28.0332  -25.9290   23.9720 C   0  0  0  0  0  0  0  0  0  0  0  0
  -29.0997  -26.1879   27.0245 C   0  0  0  0  0  0  0  0  0  0  0  0
  -30.6987  -24.7375   29.6677 C   0  0  0  0  0  0  0  0  0  0  0  0
  -31.0273  -13.2288   21.5830 C   0  0  0  0  0  0  0  0  0  0  0  0
  -27.3053  -30.8990   23.0631 C   0  0  0  0  0  0  0  0  0  0  0  0
  -27.0632  -23.8522   25.0219 C   0  0  0  0  0  0  0  0  0  0  0  0
  -29.9189  -24.1978   25.7079 C   0  0  0  0  0  0  0  0  0  0  0  0
  -33.4929  -18.1817   23.5320 C   0  0  0  0  0  0  0  0  0  0  0  0
  -28.4066  -30.0555   23.7003 C   0  0  0  0  0  0  0  0  0  0  0  0
  -33.0892  -19.3931   24.3946 C   0  0  0  0  0  0  0  0  0  0  0  0
  -29.5249  -13.6075   18.3774 C   0  0  0  0  0  0  0  0  0  0  0  0
  -28.7624  -28.8753   22.8019 C   0  0  0  0  0  0  0  0  0  0  0  0
  -28.0518  -13.2763   18.6224 C   0  0  0  0  0  0  0  0  0  0  0  0
  -30.4481  -12.7355   19.2256 C   0  0  0  0  0  0  0  0  0  0  0  0
  -28.6835  -12.4173   20.9163 C   0  0  0  0  0  0  0  0  0  0  0  0
  -27.5557  -27.9504   22.6022 C   0  0  1  0  0  0  0  0  0  0  0  0
  -31.5711  -19.2804   24.6279 C   0  0  1  0  0  0  0  0  0  1  0  0
  -27.6724  -25.2316   25.2532 C   0  0  1  0  0  0  0  0  0  0  0  0
  -27.7119  -13.3094   20.1247 C   0  0  2  0  0  0  0  0  0  0  0  0
  -31.4531  -25.2099   32.0140 C   0  0  0  0  0  0  0  0  0  0  0  0
  -31.4142  -27.8556   25.9419 C   0  0  0  0  0  0  0  0  0  0  0  0
  -32.6021  -27.4909   28.1154 C   0  0  0  0  0  0  0  0  0  0  0  0
  -30.4240  -28.7060   28.0752 C   0  0  0  0  0  0  0  0  0  0  0  0
  -29.0066  -22.5745   30.7710 C   0  0  0  0  0  0  0  0  0  0  0  0
  -31.4513  -13.6951   23.9834 C   0  0  0  0  0  0  0  0  0  0  0  0
  -30.4572  -26.2084   27.6846 C   0  0  1  0  0  0  0  0  0  0  0  0
  -30.3392  -24.6545   31.1402 C   0  0  2  0  0  0  0  0  0  0  0  0
  -31.2158  -27.5431   27.4386 C   0  0  0  0  0  0  0  0  0  0  0  0
  -30.3048  -17.1253   24.9888 N   0  0  0  0  0  0  0  0  0  0  0  0
  -25.9530  -11.6560   20.6296 N   0  0  0  0  0  0  0  0  0  0  0  0
  -32.5249  -15.8592   23.7386 N   0  0  0  0  0  0  0  0  0  0  0  0
  -26.2623  -12.9396   20.3789 N   0  0  0  0  0  0  0  0  0  0  0  0
  -28.8869  -25.1835   26.0697 N   0  0  0  0  0  0  0  0  0  0  0  0
  -30.0734  -12.8127   20.6396 N   0  0  0  0  0  0  0  0  0  0  0  0
  -25.3189  -15.1005   20.1536 N   0  0  0  0  0  0  0  0  0  0  0  0
  -21.7444  -12.4921   21.0566 N   0  0  0  0  0  0  0  0  0  0  0  0
  -27.3585  -27.1178   23.7693 N   0  0  0  0  0  0  0  0  0  0  0  0
  -30.2312  -25.9002   29.0926 N   0  0  0  0  0  0  0  0  0  0  0  0
  -30.5880  -13.2801   22.9002 N   0  0  0  0  0  0  0  0  0  0  0  0
  -30.0942  -23.2384   31.5346 N   0  3  0  0  0  0  0  0  0  0  0  0
  -22.4168  -14.6365   20.6003 O   0  0  0  0  0  0  0  0  0  0  0  0
  -28.8633  -25.4265   23.2237 O   0  0  0  0  0  0  0  0  0  0  0  0
  -28.2566  -27.0277   27.3495 O   0  0  0  0  0  0  0  0  0  0  0  0
  -31.3341  -23.8604   29.0867 O   0  0  0  0  0  0  0  0  0  0  0  0
  -32.1832  -13.5371   21.2736 O   0  0  0  0  0  0  0  0  0  0  0  0
  -21.8208   -6.9929   21.9448 O   0  0  0  0  0  0  0  0  0  0  0  0
  -30.8487  -19.8940   23.5746 O   0  0  0  0  0  0  0  0  0  1  0  0
  -18.0369   -7.1874   25.9508 F   0  0  0  0  0  0  0  0  0  0  0  0
  -22.0332   -5.3748   24.1762 F   0  0  0  0  0  0  0  0  0  0  0  0
  1  2  1  0  0  0  0
  1  5  2  0  0  0  0
  2  6  2  0  0  0  0
  3  8  2  0  0  0  0
  3 16  1  0  0  0  0
  4  9  1  0  0  0  0
  4 16  2  0  0  0  0
  5 18  1  0  0  0  0
  6 20  1  0  0  0  0
  7 10  2  0  0  0  0
  7 19  1  0  0  0  0
  8 22  1  0  0  0  0
  9 22  2  0  0  0  0
 10 23  1  0  0  0  0
 11 12  2  0  0  0  0
 11 24  1  0  0  0  0
 12 25  1  0  0  0  0
 13 21  1  0  0  0  0
 13 23  2  0  0  0  0
 14 25  2  0  0  0  0
 14 26  1  0  0  0  0
 15 30  1  0  0  0  0
 15 61  2  0  0  0  0
 16 27  1  0  0  0  0
 17 27  1  0  0  0  0
 17 31  2  0  0  0  0
 17 32  1  0  0  0  0
 18 20  2  0  0  0  0
 18 37  1  0  0  0  0
 19 21  2  0  0  0  0
 19 38  1  0  0  0  0
 20 48  1  0  0  0  0
 21 39  1  0  0  0  0
 22 78  1  0  0  0  0
 23 79  1  0  0  0  0
 24 26  2  0  0  0  0
 24 78  1  0  0  0  0
 25 80  1  0  0  0  0
 26 81  1  0  0  0  0
 27 62  2  0  0  0  0
 28 29  2  0  0  0  0
 28 40  1  0  0  0  0
 28 63  1  0  0  0  0
 29 49  1  0  0  0  0
 29 61  1  0  0  0  0
 30 57  1  0  0  0  0
 30 63  2  0  0  0  0
 31 64  1  0  0  0  0
 31 67  1  0  0  0  0
 32 68  1  0  0  0  0
 32 73  2  0  0  0  0
 33 50  1  0  0  0  0
 33 69  1  0  0  0  0
 33 74  2  0  0  0  0
 34 58  1  0  0  0  0
 34 65  1  0  0  0  0
 34 75  2  0  0  0  0
 35 59  1  0  0  0  0
 35 70  1  0  0  0  0
 35 76  2  0  0  0  0
 36 66  1  0  0  0  0
 36 71  1  0  0  0  0
 36 77  2  0  0  0  0
 37 41  1  0  0  0  0
 38 50  1  0  0  0  0
 39 65  1  0  0  0  0
 40 42  1  0  0  0  0
 41 44  1  0  0  0  0
 42 49  1  0  0  0  0
 43 45  1  0  0  0  0
 43 46  1  0  0  0  0
 44 48  1  0  0  0  0
 45 51  1  0  0  0  0
 46 66  1  0  0  0  0
 47 51  1  0  0  0  0
 47 66  1  0  0  0  0
 48 69  1  0  0  0  0
 49 79  1  0  0  0  0
 50 65  1  0  0  0  0
 51 64  1  0  0  0  0
 52 59  1  0  0  0  0
 53 60  1  0  0  0  0
 54 60  1  0  0  0  0
 55 60  1  0  0  0  0
 56 72  1  0  0  0  0
 57 71  1  0  0  0  0
 58 60  1  0  0  0  0
 58 70  1  0  0  0  0
 59 72  1  0  0  0  0
 62 64  1  0  0  0  0
M  CHG  1  72   1
M  ISO  4  36 100  49 101  71 100  79 101
M  END
> <Batch ID>
0180

> <Smiles>
CNC(C)C(=O)NC(C(=O)N1Cc2cc([101O:1][101CH:1]3CCc4nc(C[100NH:0][100C:0](=O)N5CCCC(n6nc(-c7ccc(Oc8ccc(F)cc8F)cc7)c(C(N)=O)c6N)C5)cnc43)ccc2CC1C(=O)NC1CCCc2ccccc21)C(C)(C)C

> <Shape>
0.179

> <Color>
0.164

> <Negative vol penalty>
0.000

$$$$

  -OEChem-04052323003D

 83 92  0     1  0  0  0  0  0999 V2000
  -27.3447  -37.8014   22.8841 C   0  0  0  0  0  0  0  0  0  0  0  0
  -27.9494  -36.7581   22.1903 C   0  0  0  0  0  0  0  0  0  0  0  0
  -24.7705   -8.5008   21.5139 C   0  0  0  0  0  0  0  0  0  0  0  0
  -23.1214   -9.9006   20.4376 C   0  0  0  0  0  0  0  0  0  0  0  0
  -26.4123  -37.5247   23.8830 C   0  0  0  0  0  0  0  0  0  0  0  0
  -27.6226  -35.4374   22.4958 C   0  0  0  0  0  0  0  0  0  0  0  0
  -26.9165  -29.0063   19.4202 C   0  0  0  0  0  0  0  0  0  0  0  0
  -23.8001   -8.0427   22.4050 C   0  0  0  0  0  0  0  0  0  0  0  0
  -22.1510   -9.4424   21.3287 C   0  0  0  0  0  0  0  0  0  0  0  0
  -27.3481  -27.6888   19.5674 C   0  0  0  0  0  0  0  0  0  0  0  0
  -21.2595   -5.8115   22.3902 C   0  0  0  0  0  0  0  0  0  0  0  0
  -21.2078   -4.4410   22.6440 C   0  0  0  0  0  0  0  0  0  0  0  0
  -25.6646  -27.3327   21.2581 C   0  0  0  0  0  0  0  0  0  0  0  0
  -27.9002  -21.3815   20.1264 C   0  0  0  0  0  0  0  0  0  0  0  0
  -21.6226   -4.8591   24.9871 C   0  0  0  0  0  0  0  0  0  0  0  0
  -29.7755  -23.3224   20.5288 C   0  0  0  0  0  0  0  0  0  0  0  0
  -24.4312   -9.4298   20.5302 C   0  0  0  0  0  0  0  0  0  0  0  0
  -25.7739   -9.3465   18.3628 C   0  0  0  0  0  0  0  0  0  0  0  0
  -26.0668  -36.2002   24.1943 C   0  0  0  0  0  0  0  0  0  0  0  0
  -25.8611  -29.5010   20.1999 C   0  0  0  0  0  0  0  0  0  0  0  0
  -26.6857  -35.1427   23.5007 C   0  0  0  0  0  0  0  0  0  0  0  0
  -25.2199  -28.6561   21.1170 C   0  0  0  0  0  0  0  0  0  0  0  0
  -27.5745  -22.7085   19.8690 C   0  0  0  0  0  0  0  0  0  0  0  0
  -28.5244  -23.7035   20.0715 C   0  0  0  0  0  0  0  0  0  0  0  0
  -22.4903   -8.5134   22.3124 C   0  0  0  0  0  0  0  0  0  0  0  0
  -26.7240  -26.8526   20.4885 C   0  0  0  0  0  0  0  0  0  0  0  0
  -21.4928   -6.7059   23.4349 C   0  0  0  0  0  0  0  0  0  0  0  0
  -21.3893   -3.9647   23.9424 C   0  0  0  0  0  0  0  0  0  0  0  0
  -21.6743   -6.2297   24.7333 C   0  0  0  0  0  0  0  0  0  0  0  0
  -25.4333   -9.9039   19.6099 C   0  0  0  0  0  0  0  0  0  0  0  0
  -29.1794  -21.1043   20.5811 C   0  0  0  0  0  0  0  0  0  0  0  0
  -26.7735  -10.1585   17.8853 C   0  0  0  0  0  0  0  0  0  0  0  0
  -25.2348   -8.1977   17.6956 C   0  0  0  0  0  0  0  0  0  0  0  0
  -25.5604  -31.8131   22.3603 C   0  0  0  0  0  0  0  0  0  0  0  0
  -22.4179  -31.0263   22.1936 C   0  0  0  0  0  0  0  0  0  0  0  0
  -20.0546  -28.6766   21.4587 C   0  0  0  0  0  0  0  0  0  0  0  0
  -27.9879  -15.8492   19.0012 C   0  0  0  0  0  0  0  0  0  0  0  0
  -25.0886  -35.9493   25.3145 C   0  0  0  0  0  0  0  0  0  0  0  0
  -25.3900  -30.9167   20.0101 C   0  0  0  0  0  0  0  0  0  0  0  0
  -24.0691  -29.1326   21.9637 C   0  0  0  0  0  0  0  0  0  0  0  0
  -24.5197  -34.5327   25.3204 C   0  0  0  0  0  0  0  0  0  0  0  0
  -30.2977  -13.0221   19.3266 C   0  0  0  0  0  0  0  0  0  0  0  0
  -25.6351  -33.5087   25.1354 C   0  0  0  0  0  0  0  0  0  0  0  0
  -29.3216  -11.8516   19.3799 C   0  0  0  0  0  0  0  0  0  0  0  0
  -29.7366  -14.2783   19.9943 C   0  0  0  0  0  0  0  0  0  0  0  0
  -27.4264  -13.5037   19.5315 C   0  0  0  0  0  0  0  0  0  0  0  0
  -28.3035  -18.3774   19.1871 C   0  0  0  0  0  0  0  0  0  0  0  0
  -29.2801  -17.3119   20.7485 C   0  0  0  0  0  0  0  0  0  0  0  0
  -26.3391  -33.6975   23.7863 C   0  0  1  0  0  0  0  0  0  0  0  0
  -24.6433  -31.4655   21.2220 C   0  0  1  0  0  0  0  0  0  0  0  0
  -27.9582  -12.2612   18.8034 C   0  0  2  0  0  0  0  0  0  0  0  0
  -28.5917  -18.6807   20.6616 C   0  0  0  0  0  0  0  0  0  0  0  0
  -26.2046  -23.0411   19.3776 C   0  0  0  0  0  0  0  0  0  0  0  0
  -17.5716  -28.3130   21.4580 C   0  0  0  0  0  0  0  0  0  0  0  0
  -22.4674  -30.7000   25.2269 C   0  0  0  0  0  0  0  0  0  0  0  0
  -20.3052  -29.4491   25.0578 C   0  0  0  0  0  0  0  0  0  0  0  0
  -20.4250  -31.8330   24.3328 C   0  0  0  0  0  0  0  0  0  0  0  0
  -20.0061  -28.2149   18.5357 C   0  0  0  0  0  0  0  0  0  0  0  0
  -28.2289  -25.1399   19.8117 C   0  0  0  0  0  0  0  0  0  1  0  0
  -21.5206  -30.0496   22.9146 C   0  0  1  0  0  0  0  0  0  0  0  0
  -18.7770  -28.7538   20.6423 C   0  0  2  0  0  0  0  0  0  0  0  0
  -21.2025  -30.4992   24.3686 C   0  0  0  0  0  0  0  0  0  0  0  0
  -30.1288  -22.0438   20.7897 N   0  0  0  0  0  0  0  0  0  0  0  0
  -26.1578  -10.9861   19.9061 N   0  0  0  0  0  0  0  0  0  0  0  0
  -26.9637  -11.1153   18.8384 N   0  0  0  0  0  0  0  0  0  0  0  0
  -23.6491  -30.5268   21.7460 N   0  0  0  0  0  0  0  0  0  0  0  0
  -28.3937  -14.6072   19.5014 N   0  0  0  0  0  0  0  0  0  0  0  0
  -28.5766  -16.9805   19.5170 N   0  0  0  0  0  0  0  0  0  0  0  0
  -27.4995  -10.1402   16.7474 N   0  0  0  0  0  0  0  0  0  0  0  0
  -24.2120   -7.4770   18.3272 N   0  0  0  0  0  0  0  0  0  0  0  0
  -29.4924  -19.7647   20.8357 N   0  0  0  0  0  0  0  0  0  0  0  0
  -25.5352  -33.1483   22.7155 N   0  0  0  0  0  0  0  0  0  0  0  0
  -20.3428  -29.8779   22.0710 N   0  0  0  0  0  0  0  0  0  0  0  0
  -18.8766  -27.8785   19.4403 N   0  3  0  0  0  0  0  0  0  0  0  0
  -25.6592   -7.8117   16.5800 O   0  0  0  0  0  0  0  0  0  0  0  0
  -26.2394  -30.9347   22.8789 O   0  0  0  0  0  0  0  0  0  0  0  0
  -22.0372  -32.1878   22.0272 O   0  0  0  0  0  0  0  0  0  0  0  0
  -20.7274  -27.6519   21.5474 O   0  0  0  0  0  0  0  0  0  0  0  0
  -27.1031  -15.9498   18.1411 O   0  0  0  0  0  0  0  0  0  0  0  0
  -21.5431   -8.0664   23.1815 O   0  0  0  0  0  0  0  0  0  0  0  0
  -27.1465  -25.5578   20.6356 O   0  0  0  0  0  0  0  0  0  1  0  0
  -21.3381   -2.6486   24.1861 F   0  0  0  0  0  0  0  0  0  0  0  0
  -21.8976   -7.0841   25.7412 F   0  0  0  0  0  0  0  0  0  0  0  0
  1  2  1  0  0  0  0
  1  5  2  0  0  0  0
  2  6  2  0  0  0  0
  3  8  2  0  0  0  0
  3 17  1  0  0  0  0
  4  9  1  0  0  0  0
  4 17  2  0  0  0  0
  5 19  1  0  0  0  0
  6 21  1  0  0  0  0
  7 10  2  0  0  0  0
  7 20  1  0  0  0  0
  8 25  1  0  0  0  0
  9 25  2  0  0  0  0
 10 26  1  0  0  0  0
 11 12  2  0  0  0  0
 11 27  1  0  0  0  0
 12 28  1  0  0  0  0
 13 22  1  0  0  0  0
 13 26  2  0  0  0  0
 14 23  1  0  0  0  0
 14 31  2  0  0  0  0
 15 28  2  0  0  0  0
 15 29  1  0  0  0  0
 16 24  1  0  0  0  0
 16 63  2  0  0  0  0
 17 30  1  0  0  0  0
 18 30  1  0  0  0  0
 18 32  2  0  0  0  0
 18 33  1  0  0  0  0
 19 21  2  0  0  0  0
 19 38  1  0  0  0  0
 20 22  2  0  0  0  0
 20 39  1  0  0  0  0
 21 49  1  0  0  0  0
 22 40  1  0  0  0  0
 23 24  2  0  0  0  0
 23 53  1  0  0  0  0
 24 59  1  0  0  0  0
 25 80  1  0  0  0  0
 26 81  1  0  0  0  0
 27 29  2  0  0  0  0
 27 80  1  0  0  0  0
 28 82  1  0  0  0  0
 29 83  1  0  0  0  0
 30 64  2  0  0  0  0
 31 63  1  0  0  0  0
 31 71  1  0  0  0  0
 32 65  1  0  0  0  0
 32 69  1  0  0  0  0
 33 70  1  0  0  0  0
 33 75  2  0  0  0  0
 34 50  1  0  0  0  0
 34 72  1  0  0  0  0
 34 76  2  0  0  0  0
 35 60  1  0  0  0  0
 35 66  1  0  0  0  0
 35 77  2  0  0  0  0
 36 61  1  0  0  0  0
 36 73  1  0  0  0  0
 36 78  2  0  0  0  0
 37 67  1  0  0  0  0
 37 68  1  0  0  0  0
 37 79  2  0  0  0  0
 38 41  1  0  0  0  0
 39 50  1  0  0  0  0
 40 66  1  0  0  0  0
 41 43  1  0  0  0  0
 42 44  1  0  0  0  0
 42 45  1  0  0  0  0
 43 49  1  0  0  0  0
 44 51  1  0  0  0  0
 45 67  1  0  0  0  0
 46 51  1  0  0  0  0
 46 67  1  0  0  0  0
 47 52  1  0  0  0  0
 47 68  1  0  0  0  0
 48 52  1  0  0  0  0
 48 68  1  0  0  0  0
 49 72  1  0  0  0  0
 50 66  1  0  0  0  0
 51 65  1  0  0  0  0
 52 71  1  0  0  0  0
 54 61  1  0  0  0  0
 55 62  1  0  0  0  0
 56 62  1  0  0  0  0
 57 62  1  0  0  0  0
 58 74  1  0  0  0  0
 59 81  1  0  0  0  0
 60 62  1  0  0  0  0
 60 73  1  0  0  0  0
 61 74  1  0  0  0  0
 64 65  1  0  0  0  0
M  CHG  1  74   1
M  ISO  4  37 100  59 101  68 100  81 101
M  END
> <Batch ID>
0180

> <Smiles>
CNC(C)C(=O)NC(C(=O)N1Cc2cc([101O:1][101CH2:1]c3cnc(NC4C[100N:0]([100C:0](=O)N5CCCC(n6nc(-c7ccc(Oc8ccc(F)cc8F)cc7)c(C(N)=O)c6N)C5)C4)cc3C)ccc2CC1C(=O)NC1CCCc2ccccc21)C(C)(C)C

> <Shape>
0.350

> <Color>
0.100

> <Negative vol penalty>
0.000

$$$$

  -OEChem-04052323003D

 81 90  0     1  0  0  0  0  0999 V2000
  -28.5817  -34.8871   25.7717 C   0  0  0  0  0  0  0  0  0  0  0  0
  -28.7948  -34.1249   24.6276 C   0  0  0  0  0  0  0  0  0  0  0  0
  -25.3684  -14.0683   19.5667 C   0  0  0  0  0  0  0  0  0  0  0  0
  -24.4681  -13.7770   21.7897 C   0  0  0  0  0  0  0  0  0  0  0  0
  -27.8867  -34.3430   26.8510 C   0  0  0  0  0  0  0  0  0  0  0  0
  -28.3139  -32.8176   24.5625 C   0  0  0  0  0  0  0  0  0  0  0  0
  -26.1736  -29.9246   19.6071 C   0  0  0  0  0  0  0  0  0  0  0  0
  -25.5742  -12.6922   19.4697 C   0  0  0  0  0  0  0  0  0  0  0  0
  -24.6739  -12.4008   21.6927 C   0  0  0  0  0  0  0  0  0  0  0  0
  -26.7598  -29.0202   18.7227 C   0  0  0  0  0  0  0  0  0  0  0  0
  -23.1533   -9.7525   20.2454 C   0  0  0  0  0  0  0  0  0  0  0  0
  -22.1220   -8.9132   20.6669 C   0  0  0  0  0  0  0  0  0  0  0  0
  -25.8129  -27.1897   19.9765 C   0  0  0  0  0  0  0  0  0  0  0  0
  -23.5936   -7.9312   22.3122 C   0  0  0  0  0  0  0  0  0  0  0  0
  -29.8492  -24.8661   20.8169 C   0  0  0  0  0  0  0  0  0  0  0  0
  -24.8154  -14.6108   20.7267 C   0  0  0  0  0  0  0  0  0  0  0  0
  -23.4497  -16.7482   20.4546 C   0  0  0  0  0  0  0  0  0  0  0  0
  -27.3886  -33.0317   26.7954 C   0  0  0  0  0  0  0  0  0  0  0  0
  -25.4104  -29.4673   20.6910 C   0  0  0  0  0  0  0  0  0  0  0  0
  -27.6127  -32.2550   25.6426 C   0  0  0  0  0  0  0  0  0  0  0  0
  -25.2160  -28.0904   20.8717 C   0  0  0  0  0  0  0  0  0  0  0  0
  -25.2270  -11.8584   20.5327 C   0  0  0  0  0  0  0  0  0  0  0  0
  -26.5819  -27.6525   18.9090 C   0  0  0  0  0  0  0  0  0  0  0  0
  -24.4048   -9.6810   20.8573 C   0  0  0  0  0  0  0  0  0  0  0  0
  -22.3421   -8.0026   21.7003 C   0  0  0  0  0  0  0  0  0  0  0  0
  -24.6249   -8.7704   21.8907 C   0  0  0  0  0  0  0  0  0  0  0  0
  -24.6030  -16.0323   20.8277 C   0  0  0  0  0  0  0  0  0  0  0  0
  -29.4922  -24.6201   18.2017 C   0  0  0  0  0  0  0  0  0  0  0  0
  -29.1528  -25.7817   18.8708 C   0  0  0  0  0  0  0  0  0  0  0  0
  -30.1874  -23.6997   20.1453 C   0  0  0  0  0  0  0  0  0  0  0  0
  -23.7479  -18.0565   20.7477 C   0  0  0  0  0  0  0  0  0  0  0  0
  -22.2189  -16.2730   19.8934 C   0  0  0  0  0  0  0  0  0  0  0  0
  -25.6470  -29.6886   23.8531 C   0  0  0  0  0  0  0  0  0  0  0  0
  -22.7383  -28.2544   23.7808 C   0  0  0  0  0  0  0  0  0  0  0  0
  -20.5164  -26.2931   22.0887 C   0  0  0  0  0  0  0  0  0  0  0  0
  -29.0198  -20.8084   21.1115 C   0  0  0  0  0  0  0  0  0  0  0  0
  -26.6844  -32.4707   28.0053 C   0  0  0  0  0  0  0  0  0  0  0  0
  -24.7626  -30.4565   21.6206 C   0  0  0  0  0  0  0  0  0  0  0  0
  -24.3889  -27.5488   22.0079 C   0  0  0  0  0  0  0  0  0  0  0  0
  -29.1571  -24.7149   16.7443 C   0  0  0  0  0  0  0  0  0  0  0  0
  -25.8822  -31.2057   27.7112 C   0  0  0  0  0  0  0  0  0  0  0  0
  -29.0237  -26.2408   16.5751 C   0  0  0  0  0  0  0  0  0  0  0  0
  -26.3753  -20.7416   23.6834 C   0  0  0  0  0  0  0  0  0  0  0  0
  -26.7093  -30.2303   26.8797 C   0  0  0  0  0  0  0  0  0  0  0  0
  -25.5477  -19.5455   23.2223 C   0  0  0  0  0  0  0  0  0  0  0  0
  -27.8633  -20.5574   23.3885 C   0  0  0  0  0  0  0  0  0  0  0  0
  -27.3233  -19.0487   21.4973 C   0  0  0  0  0  0  0  0  0  0  0  0
  -27.0851  -30.8416   25.5244 C   0  0  1  0  0  0  0  0  0  0  0  0
  -28.5659  -26.7958   17.9368 C   0  0  1  0  0  0  0  0  0  1  0  0
  -24.4318  -29.8643   22.9871 C   0  0  1  0  0  0  0  0  0  0  0  0
  -25.8183  -19.2372   21.7417 C   0  0  1  0  0  0  0  0  0  0  0  0
  -18.2377  -25.2637   22.3012 C   0  0  0  0  0  0  0  0  0  0  0  0
  -23.8703  -26.1452   25.6728 C   0  0  0  0  0  0  0  0  0  0  0  0
  -21.9216  -24.6828   25.0964 C   0  0  0  0  0  0  0  0  0  0  0  0
  -21.5414  -26.8838   26.2071 C   0  0  0  0  0  0  0  0  0  0  0  0
  -19.5031  -27.7679   19.7314 C   0  0  0  0  0  0  0  0  0  0  0  0
  -30.7676  -22.5490   20.8936 C   0  0  0  0  0  0  0  0  0  0  0  0
  -22.2504  -26.8258   23.7810 C   0  0  1  0  0  0  0  0  0  0  0  0
  -19.0341  -26.4617   21.8081 C   0  0  2  0  0  0  0  0  0  0  0  0
  -22.4132  -26.1442   25.1690 C   0  0  0  0  0  0  0  0  0  0  0  0
  -29.3176  -25.9394   20.1907 N   0  0  0  0  0  0  0  0  0  0  0  0
  -25.5624  -16.8205   21.3201 N   0  0  0  0  0  0  0  0  0  0  0  0
  -30.0108  -23.5480   18.8139 N   0  0  0  0  0  0  0  0  0  0  0  0
  -25.0125  -18.0452   21.2584 N   0  0  0  0  0  0  0  0  0  0  0  0
  -23.7813  -28.5558   22.8935 N   0  0  0  0  0  0  0  0  0  0  0  0
  -28.0957  -20.2001   21.9801 N   0  0  0  0  0  0  0  0  0  0  0  0
  -23.0491  -19.2040   20.6159 N   0  0  0  0  0  0  0  0  0  0  0  0
  -22.0794  -14.8988   19.6560 N   0  0  0  0  0  0  0  0  0  0  0  0
  -25.9568  -30.7961   24.6192 N   0  0  0  0  0  0  0  0  0  0  0  0
  -20.8767  -26.8636   23.2912 N   0  0  0  0  0  0  0  0  0  0  0  0
  -29.7781  -21.8375   21.6580 N   0  0  0  0  0  0  0  0  0  0  0  0
  -18.7979  -26.6130   20.3445 N   0  3  0  0  0  0  0  0  0  0  0  0
  -21.2771  -17.0462   19.5955 O   0  0  0  0  0  0  0  0  0  0  0  0
  -26.2574  -28.6263   23.8292 O   0  0  0  0  0  0  0  0  0  0  0  0
  -22.2086  -29.0745   24.5348 O   0  0  0  0  0  0  0  0  0  0  0  0
  -21.2778  -25.7101   21.3200 O   0  0  0  0  0  0  0  0  0  0  0  0
  -29.1646  -20.4576   19.9352 O   0  0  0  0  0  0  0  0  0  0  0  0
  -25.4275  -10.5155   20.4383 O   0  0  0  0  0  0  0  0  0  0  0  0
  -27.1535  -26.7675   18.0476 O   0  0  0  0  0  0  0  0  0  1  0  0
  -21.3512   -7.1978   22.1059 F   0  0  0  0  0  0  0  0  0  0  0  0
  -25.8247   -8.6980   22.4832 F   0  0  0  0  0  0  0  0  0  0  0  0
  1  2  1  0  0  0  0
  1  5  2  0  0  0  0
  2  6  2  0  0  0  0
  3  8  2  0  0  0  0
  3 16  1  0  0  0  0
  4  9  1  0  0  0  0
  4 16  2  0  0  0  0
  5 18  1  0  0  0  0
  6 20  1  0  0  0  0
  7 10  2  0  0  0  0
  7 19  1  0  0  0  0
  8 22  1  0  0  0  0
  9 22  2  0  0  0  0
 10 23  1  0  0  0  0
 11 12  2  0  0  0  0
 11 24  1  0  0  0  0
 12 25  1  0  0  0  0
 13 21  1  0  0  0  0
 13 23  2  0  0  0  0
 14 25  2  0  0  0  0
 14 26  1  0  0  0  0
 15 30  1  0  0  0  0
 15 61  2  0  0  0  0
 16 27  1  0  0  0  0
 17 27  1  0  0  0  0
 17 31  2  0  0  0  0
 17 32  1  0  0  0  0
 18 20  2  0  0  0  0
 18 37  1  0  0  0  0
 19 21  2  0  0  0  0
 19 38  1  0  0  0  0
 20 48  1  0  0  0  0
 21 39  1  0  0  0  0
 22 78  1  0  0  0  0
 23 79  1  0  0  0  0
 24 26  2  0  0  0  0
 24 78  1  0  0  0  0
 25 80  1  0  0  0  0
 26 81  1  0  0  0  0
 27 62  2  0  0  0  0
 28 29  2  0  0  0  0
 28 40  1  0  0  0  0
 28 63  1  0  0  0  0
 29 49  1  0  0  0  0
 29 61  1  0  0  0  0
 30 57  1  0  0  0  0
 30 63  2  0  0  0  0
 31 64  1  0  0  0  0
 31 67  1  0  0  0  0
 32 68  1  0  0  0  0
 32 73  2  0  0  0  0
 33 50  1  0  0  0  0
 33 69  1  0  0  0  0
 33 74  2  0  0  0  0
 34 58  1  0  0  0  0
 34 65  1  0  0  0  0
 34 75  2  0  0  0  0
 35 59  1  0  0  0  0
 35 70  1  0  0  0  0
 35 76  2  0  0  0  0
 36 66  1  0  0  0  0
 36 71  1  0  0  0  0
 36 77  2  0  0  0  0
 37 41  1  0  0  0  0
 38 50  1  0  0  0  0
 39 65  1  0  0  0  0
 40 42  1  0  0  0  0
 41 44  1  0  0  0  0
 42 49  1  0  0  0  0
 43 45  1  0  0  0  0
 43 46  1  0  0  0  0
 44 48  1  0  0  0  0
 45 51  1  0  0  0  0
 46 66  1  0  0  0  0
 47 51  1  0  0  0  0
 47 66  1  0  0  0  0
 48 69  1  0  0  0  0
 49 79  1  0  0  0  0
 50 65  1  0  0  0  0
 51 64  1  0  0  0  0
 52 59  1  0  0  0  0
 53 60  1  0  0  0  0
 54 60  1  0  0  0  0
 55 60  1  0  0  0  0
 56 72  1  0  0  0  0
 57 71  1  0  0  0  0
 58 60  1  0  0  0  0
 58 70  1  0  0  0  0
 59 72  1  0  0  0  0
 62 64  1  0  0  0  0
M  CHG  1  72   1
M  ISO  4  36 100  49 101  71 100  79 101
M  END
> <Batch ID>
0180

> <Smiles>
CNC(C)C(=O)NC(C(=O)N1Cc2cc([101O:1][101CH:1]3CCc4nc(C[100NH:0][100C:0](=O)N5CCCC(n6nc(-c7ccc(Oc8ccc(F)cc8F)cc7)c(C(N)=O)c6N)C5)cnc43)ccc2CC1C(=O)NC1CCCc2ccccc21)C(C)(C)C

> <Shape>
0.280

> <Color>
0.080

> <Negative vol penalty>
0.000

$$$$

  -OEChem-04052323003D

 84 93  0     1  0  0  0  0  0999 V2000
  -28.5594  -36.8281   20.3091 C   0  0  0  0  0  0  0  0  0  0  0  0
  -28.8938  -35.4939   20.1009 C   0  0  0  0  0  0  0  0  0  0  0  0
  -22.5233  -10.8235   20.9975 C   0  0  0  0  0  0  0  0  0  0  0  0
  -24.3449   -9.2550   20.7551 C   0  0  0  0  0  0  0  0  0  0  0  0
  -27.6246  -37.1669   21.2865 C   0  0  0  0  0  0  0  0  0  0  0  0
  -28.2944  -34.4976   20.8707 C   0  0  0  0  0  0  0  0  0  0  0  0
  -26.7934  -28.8447   19.0551 C   0  0  0  0  0  0  0  0  0  0  0  0
  -21.6644   -9.7751   21.3271 C   0  0  0  0  0  0  0  0  0  0  0  0
  -23.4859   -8.2065   21.0848 C   0  0  0  0  0  0  0  0  0  0  0  0
  -27.4297  -27.6127   19.2008 C   0  0  0  0  0  0  0  0  0  0  0  0
  -22.1300   -6.8859   23.8844 C   0  0  0  0  0  0  0  0  0  0  0  0
  -22.5904   -5.9347   24.7948 C   0  0  0  0  0  0  0  0  0  0  0  0
  -26.0779  -27.1511   21.1447 C   0  0  0  0  0  0  0  0  0  0  0  0
  -27.4724  -19.3948   20.7267 C   0  0  0  0  0  0  0  0  0  0  0  0
  -22.3189   -4.2074   23.1276 C   0  0  0  0  0  0  0  0  0  0  0  0
  -23.8636  -10.5635   20.7115 C   0  0  0  0  0  0  0  0  0  0  0  0
  -28.7964  -21.4265   20.8641 C   0  0  0  0  0  0  0  0  0  0  0  0
  -24.6296  -12.5356   19.2861 C   0  0  0  0  0  0  0  0  0  0  0  0
  -27.0062  -36.1736   22.0622 C   0  0  0  0  0  0  0  0  0  0  0  0
  -25.8005  -29.2444   19.9611 C   0  0  0  0  0  0  0  0  0  0  0  0
  -27.3514  -34.8236   21.8603 C   0  0  0  0  0  0  0  0  0  0  0  0
  -25.4287  -28.3875   21.0068 C   0  0  0  0  0  0  0  0  0  0  0  0
  -27.6391  -20.7536   20.4303 C   0  0  0  0  0  0  0  0  0  0  0  0
  -22.1456   -8.4666   21.3707 C   0  0  0  0  0  0  0  0  0  0  0  0
  -27.0740  -26.7670   20.2474 C   0  0  0  0  0  0  0  0  0  0  0  0
  -21.7640   -6.4978   22.5955 C   0  0  0  0  0  0  0  0  0  0  0  0
  -22.6849   -4.5955   24.4165 C   0  0  0  0  0  0  0  0  0  0  0  0
  -21.8584   -5.1585   22.2172 C   0  0  0  0  0  0  0  0  0  0  0  0
  -24.7512  -11.6460   20.3704 C   0  0  0  0  0  0  0  0  0  0  0  0
  -29.7256  -20.6604   21.5735 C   0  0  0  0  0  0  0  0  0  0  0  0
  -28.4578  -18.7492   21.4503 C   0  0  0  0  0  0  0  0  0  0  0  0
  -25.7147  -13.3695   19.4028 C   0  0  0  0  0  0  0  0  0  0  0  0
  -29.0009  -22.8673   20.5442 C   0  0  0  0  0  0  0  0  0  0  0  0
  -29.8493  -23.6278   21.2593 C   0  0  0  0  0  0  0  0  0  0  0  0
  -23.6255  -12.6023   18.2649 C   0  0  0  0  0  0  0  0  0  0  0  0
  -25.4791  -31.6422   22.0228 C   0  0  0  0  0  0  0  0  0  0  0  0
  -22.4947  -30.4220   22.3782 C   0  0  0  0  0  0  0  0  0  0  0  0
  -20.4197  -27.7237   22.1324 C   0  0  0  0  0  0  0  0  0  0  0  0
  -29.1139  -16.5401   22.4680 C   0  0  0  0  0  0  0  0  0  0  0  0
  -26.0368  -36.5920   23.1391 C   0  0  0  0  0  0  0  0  0  0  0  0
  -25.1049  -30.5649   19.7745 C   0  0  0  0  0  0  0  0  0  0  0  0
  -26.5823  -21.4348   19.5981 C   0  0  0  0  0  0  0  0  0  0  0  0
  -24.3546  -28.7611   21.9944 C   0  0  0  0  0  0  0  0  0  0  0  0
  -25.1697  -35.4472   23.6564 C   0  0  0  0  0  0  0  0  0  0  0  0
  -26.6858  -22.9568   19.6266 C   0  0  0  0  0  0  0  0  0  0  0  0
  -29.8115  -13.0503   22.3586 C   0  0  0  0  0  0  0  0  0  0  0  0
  -26.0241  -34.2152   23.9373 C   0  0  0  0  0  0  0  0  0  0  0  0
  -28.5472  -12.4470   21.7424 C   0  0  0  0  0  0  0  0  0  0  0  0
  -29.4880  -14.2226   23.2832 C   0  0  0  0  0  0  0  0  0  0  0  0
  -27.3924  -14.6714   22.0680 C   0  0  0  0  0  0  0  0  0  0  0  0
  -26.7045  -33.7124   22.6583 C   0  0  1  0  0  0  0  0  0  0  0  0
  -28.1372  -23.4084   19.4066 C   0  0  1  0  0  0  0  0  0  0  0  0
  -24.4684  -31.0915   21.0570 C   0  0  1  0  0  0  0  0  0  0  0  0
  -27.6725  -13.5286   21.0784 C   0  0  2  0  0  0  0  0  0  0  0  0
  -30.9548  -21.2327   22.2005 C   0  0  0  0  0  0  0  0  0  0  0  0
  -18.0427  -27.0239   22.5296 C   0  0  0  0  0  0  0  0  0  0  0  0
  -23.0279  -30.3237   25.3809 C   0  0  0  0  0  0  0  0  0  0  0  0
  -21.0705  -28.7792   25.6074 C   0  0  0  0  0  0  0  0  0  0  0  0
  -20.7344  -31.0988   24.7535 C   0  0  0  0  0  0  0  0  0  0  0  0
  -20.0185  -27.0516   19.2782 C   0  0  0  0  0  0  0  0  0  0  0  0
  -28.1645  -24.9288   19.2043 C   0  0  0  0  0  0  0  0  0  1  0  0
  -21.8634  -29.3856   23.2762 C   0  0  1  0  0  0  0  0  0  0  0  0
  -19.0404  -27.5663   21.5181 C   0  0  2  0  0  0  0  0  0  0  0  0
  -21.6957  -29.8903   24.7372 C   0  0  0  0  0  0  0  0  0  0  0  0
  -25.8287  -11.8916   21.1205 N   0  0  0  0  0  0  0  0  0  0  0  0
  -29.5837  -19.3485   21.8809 N   0  0  0  0  0  0  0  0  0  0  0  0
  -26.3941  -12.9449   20.5066 N   0  0  0  0  0  0  0  0  0  0  0  0
  -23.7083  -30.0653   21.7734 N   0  0  0  0  0  0  0  0  0  0  0  0
  -28.6606  -15.2091   22.5851 N   0  0  0  0  0  0  0  0  0  0  0  0
  -26.1446  -14.4170   18.6678 N   0  0  0  0  0  0  0  0  0  0  0  0
  -23.8208  -11.8684   17.0869 N   0  0  0  0  0  0  0  0  0  0  0  0
  -28.2585  -17.3800   21.7557 N   0  0  0  0  0  0  0  0  0  0  0  0
  -25.7620  -32.9821   21.8380 N   0  0  0  0  0  0  0  0  0  0  0  0
  -20.6142  -28.9939   22.6322 N   0  0  0  0  0  0  0  0  0  0  0  0
  -19.0928  -26.6291   20.3606 N   0  3  0  0  0  0  0  0  0  0  0  0
  -22.5936  -13.3052   18.3863 O   0  0  0  0  0  0  0  0  0  0  0  0
  -25.9652  -30.9064   22.8737 O   0  0  0  0  0  0  0  0  0  0  0  0
  -21.9282  -31.5053   22.2137 O   0  0  0  0  0  0  0  0  0  0  0  0
  -21.2408  -26.8100   22.1688 O   0  0  0  0  0  0  0  0  0  0  0  0
  -30.1951  -16.9013   22.9398 O   0  0  0  0  0  0  0  0  0  0  0  0
  -21.3078   -7.4434   21.6925 O   0  0  0  0  0  0  0  0  0  0  0  0
  -27.6940  -25.5643   20.3922 O   0  0  0  0  0  0  0  0  0  1  0  0
  -23.1284   -3.6825   25.2904 F   0  0  0  0  0  0  0  0  0  0  0  0
  -21.5093   -4.7798   20.9800 F   0  0  0  0  0  0  0  0  0  0  0  0
  1  2  1  0  0  0  0
  1  5  2  0  0  0  0
  2  6  2  0  0  0  0
  3  8  2  0  0  0  0
  3 16  1  0  0  0  0
  4  9  1  0  0  0  0
  4 16  2  0  0  0  0
  5 19  1  0  0  0  0
  6 21  1  0  0  0  0
  7 10  2  0  0  0  0
  7 20  1  0  0  0  0
  8 24  1  0  0  0  0
  9 24  2  0  0  0  0
 10 25  1  0  0  0  0
 11 12  2  0  0  0  0
 11 26  1  0  0  0  0
 12 27  1  0  0  0  0
 13 22  1  0  0  0  0
 13 25  2  0  0  0  0
 14 23  2  0  0  0  0
 14 31  1  0  0  0  0
 15 27  2  0  0  0  0
 15 28  1  0  0  0  0
 16 29  1  0  0  0  0
 17 23  1  0  0  0  0
 17 30  2  0  0  0  0
 17 33  1  0  0  0  0
 18 29  1  0  0  0  0
 18 32  2  0  0  0  0
 18 35  1  0  0  0  0
 19 21  2  0  0  0  0
 19 40  1  0  0  0  0
 20 22  2  0  0  0  0
 20 41  1  0  0  0  0
 21 51  1  0  0  0  0
 22 43  1  0  0  0  0
 23 42  1  0  0  0  0
 24 81  1  0  0  0  0
 25 82  1  0  0  0  0
 26 28  2  0  0  0  0
 26 81  1  0  0  0  0
 27 83  1  0  0  0  0
 28 84  1  0  0  0  0
 29 65  2  0  0  0  0
 30 55  1  0  0  0  0
 30 66  1  0  0  0  0
 31 66  2  0  0  0  0
 31 72  1  0  0  0  0
 32 67  1  0  0  0  0
 32 70  1  0  0  0  0
 33 34  2  0  0  0  0
 33 52  1  0  0  0  0
 35 71  1  0  0  0  0
 35 76  2  0  0  0  0
 36 53  1  0  0  0  0
 36 73  1  0  0  0  0
 36 77  2  0  0  0  0
 37 62  1  0  0  0  0
 37 68  1  0  0  0  0
 37 78  2  0  0  0  0
 38 63  1  0  0  0  0
 38 74  1  0  0  0  0
 38 79  2  0  0  0  0
 39 69  1  0  0  0  0
 39 72  1  0  0  0  0
 39 80  2  0  0  0  0
 40 44  1  0  0  0  0
 41 53  1  0  0  0  0
 42 45  1  0  0  0  0
 43 68  1  0  0  0  0
 44 47  1  0  0  0  0
 45 52  1  0  0  0  0
 46 48  1  0  0  0  0
 46 49  1  0  0  0  0
 47 51  1  0  0  0  0
 48 54  1  0  0  0  0
 49 69  1  0  0  0  0
 50 54  1  0  0  0  0
 50 69  1  0  0  0  0
 51 73  1  0  0  0  0
 52 61  1  0  0  0  0
 53 68  1  0  0  0  0
 54 67  1  0  0  0  0
 56 63  1  0  0  0  0
 57 64  1  0  0  0  0
 58 64  1  0  0  0  0
 59 64  1  0  0  0  0
 60 75  1  0  0  0  0
 61 82  1  0  0  0  0
 62 64  1  0  0  0  0
 62 74  1  0  0  0  0
 63 75  1  0  0  0  0
 65 67  1  0  0  0  0
M  CHG  1  75   1
M  ISO  4  39 100  61 101  72 100  82 101
M  END
> <Batch ID>
0180

> <Smiles>
C=C1c2c(cc([100NH:0][100C:0](=O)N3CCCC(n4nc(-c5ccc(Oc6ccc(F)cc6F)cc5)c(C(N)=O)c4N)C3)nc2C)CCC1[101CH2:1][101O:1]c1ccc2c(c1)CN(C(=O)C(NC(=O)C(C)NC)C(C)(C)C)C(C(=O)NC1CCCc3ccccc31)C2

> <Shape>
0.335

> <Color>
0.115

> <Negative vol penalty>
0.000

$$$$

  -OEChem-04052323003D

 86 96  0     1  0  0  0  0  0999 V2000
  -29.9594  -33.9213   13.8950 C   0  0  0  0  0  0  0  0  0  0  0  0
  -30.0703  -32.8782   14.8088 C   0  0  0  0  0  0  0  0  0  0  0  0
  -31.7513  -23.6909   20.6226 C   0  0  0  0  0  0  0  0  0  0  0  0
  -23.3900   -9.0809   20.4309 C   0  0  0  0  0  0  0  0  0  0  0  0
  -23.0930  -10.7899   22.1126 C   0  0  0  0  0  0  0  0  0  0  0  0
  -29.3287  -35.1079   14.2665 C   0  0  0  0  0  0  0  0  0  0  0  0
  -29.5514  -33.0216   16.0951 C   0  0  0  0  0  0  0  0  0  0  0  0
  -26.9641  -28.9413   17.6121 C   0  0  0  0  0  0  0  0  0  0  0  0
  -22.5520   -8.2282   21.1494 C   0  0  0  0  0  0  0  0  0  0  0  0
  -22.2550   -9.9373   22.8311 C   0  0  0  0  0  0  0  0  0  0  0  0
  -27.7049  -27.8409   18.0414 C   0  0  0  0  0  0  0  0  0  0  0  0
  -22.7711   -6.2264   23.8640 C   0  0  0  0  0  0  0  0  0  0  0  0
  -23.1802   -4.9029   24.0272 C   0  0  0  0  0  0  0  0  0  0  0  0
  -31.1128  -24.7734   20.0362 C   0  0  0  0  0  0  0  0  0  0  0  0
  -27.3171  -28.4820   20.3344 C   0  0  0  0  0  0  0  0  0  0  0  0
  -29.2834  -21.0448   20.0102 C   0  0  0  0  0  0  0  0  0  0  0  0
  -21.1886   -4.1469   22.8874 C   0  0  0  0  0  0  0  0  0  0  0  0
  -31.7222  -21.2993   21.1864 C   0  0  0  0  0  0  0  0  0  0  0  0
  -31.1361  -22.4314   20.6150 C   0  0  0  0  0  0  0  0  0  0  0  0
  -23.6606  -10.3617   20.9125 C   0  0  0  0  0  0  0  0  0  0  0  0
  -24.1516  -12.1609   19.1720 C   0  0  0  0  0  0  0  0  0  0  0  0
  -28.7932  -35.2623   15.5549 C   0  0  0  0  0  0  0  0  0  0  0  0
  -26.4025  -29.8278   18.5422 C   0  0  0  0  0  0  0  0  0  0  0  0
  -28.9141  -34.2119   16.4846 C   0  0  0  0  0  0  0  0  0  0  0  0
  -26.5675  -29.5914   19.9144 C   0  0  0  0  0  0  0  0  0  0  0  0
  -29.8753  -22.3005   20.0065 C   0  0  0  0  0  0  0  0  0  0  0  0
  -21.9844   -8.6564   22.3495 C   0  0  0  0  0  0  0  0  0  0  0  0
  -27.8839  -27.6128   19.4026 C   0  0  0  0  0  0  0  0  0  0  0  0
  -21.5708   -6.5102   23.2126 C   0  0  0  0  0  0  0  0  0  0  0  0
  -22.3889   -3.8632   23.5389 C   0  0  0  0  0  0  0  0  0  0  0  0
  -20.7795   -5.4705   22.7243 C   0  0  0  0  0  0  0  0  0  0  0  0
  -24.5267  -11.2428   20.1711 C   0  0  0  0  0  0  0  0  0  0  0  0
  -29.9465  -19.9800   20.6052 C   0  0  0  0  0  0  0  0  0  0  0  0
  -29.8763  -24.5516   19.4617 C   0  0  0  0  0  0  0  0  0  0  0  0
  -25.3314  -12.7481   18.7849 C   0  0  0  0  0  0  0  0  0  0  0  0
  -22.8529  -12.4567   18.6414 C   0  0  0  0  0  0  0  0  0  0  0  0
  -26.7585  -32.9187   19.1928 C   0  0  0  0  0  0  0  0  0  0  0  0
  -24.2989  -32.3727   21.2360 C   0  0  0  0  0  0  0  0  0  0  0  0
  -22.5411  -30.1367   23.1220 C   0  0  0  0  0  0  0  0  0  0  0  0
  -30.2407  -15.0556   20.0778 C   0  0  0  0  0  0  0  0  0  0  0  0
  -28.1621  -36.5811   15.9255 C   0  0  0  0  0  0  0  0  0  0  0  0
  -25.5836  -30.9952   18.0634 C   0  0  0  0  0  0  0  0  0  0  0  0
  -25.9681  -30.5020   20.9537 C   0  0  0  0  0  0  0  0  0  0  0  0
  -27.3076  -36.5137   17.1887 C   0  0  0  0  0  0  0  0  0  0  0  0
  -30.1180  -11.5359   19.7958 C   0  0  0  0  0  0  0  0  0  0  0  0
  -28.0473  -35.7673   18.2944 C   0  0  0  0  0  0  0  0  0  0  0  0
  -28.6276  -11.2082   19.8195 C   0  0  0  0  0  0  0  0  0  0  0  0
  -29.0592  -17.9614   21.9790 C   0  0  0  0  0  0  0  0  0  0  0  0
  -30.4343  -12.6850   20.7436 C   0  0  0  0  0  0  0  0  0  0  0  0
  -28.8001  -16.5031   21.6249 C   0  0  0  0  0  0  0  0  0  0  0  0
  -30.1087  -17.5215   19.8949 C   0  0  0  0  0  0  0  0  0  0  0  0
  -28.1637  -13.6353   20.4413 C   0  0  0  0  0  0  0  0  0  0  0  0
  -28.3419  -34.3201   17.8814 C   0  0  1  0  0  0  0  0  0  0  0  0
  -29.2980  -18.6133   20.6074 C   0  0  2  0  0  0  0  0  0  0  0  0
  -25.4899  -32.1202   19.0895 C   0  0  1  0  0  0  0  0  0  0  0  0
  -27.7926  -12.4610   19.5122 C   0  0  2  0  0  0  0  0  0  0  0  0
  -20.6063  -29.9937   24.7138 C   0  0  0  0  0  0  0  0  0  0  0  0
  -26.0272  -33.5806   23.4414 C   0  0  0  0  0  0  0  0  0  0  0  0
  -24.4738  -32.5626   25.1203 C   0  0  0  0  0  0  0  0  0  0  0  0
  -23.6227  -34.2649   23.5077 C   0  0  0  0  0  0  0  0  0  0  0  0
  -21.0585  -28.2996   21.3371 C   0  0  0  0  0  0  0  0  0  0  0  0
  -29.1541  -25.6887   18.8191 C   0  0  0  0  0  0  0  0  0  1  0  0
  -24.1827  -31.9431   22.6785 C   0  0  1  0  0  0  0  0  0  0  0  0
  -21.0498  -29.8904   23.2628 C   0  0  2  0  0  0  0  0  0  0  0  0
  -24.5896  -33.0716   23.6676 C   0  0  0  0  0  0  0  0  0  0  0  0
  -31.1547  -20.0752   21.1955 N   0  0  0  0  0  0  0  0  0  0  0  0
  -29.2534  -23.3500   19.4361 N   0  0  0  0  0  0  0  0  0  0  0  0
  -25.8419  -11.2429   20.4039 N   0  0  0  0  0  0  0  0  0  0  0  0
  -26.3036  -12.1682   19.5457 N   0  0  0  0  0  0  0  0  0  0  0  0
  -25.1812  -31.6332   20.4355 N   0  0  0  0  0  0  0  0  0  0  0  0
  -29.6142  -13.8645   20.4611 N   0  0  0  0  0  0  0  0  0  0  0  0
  -29.6449  -16.2575   20.4580 N   0  0  0  0  0  0  0  0  0  0  0  0
  -25.6217  -13.6986   17.8712 N   0  0  0  0  0  0  0  0  0  0  0  0
  -21.7483  -11.7613   19.1520 N   0  0  0  0  0  0  0  0  0  0  0  0
  -27.1514  -33.5067   18.0056 N   0  0  0  0  0  0  0  0  0  0  0  0
  -22.8169  -31.4604   22.8519 N   0  0  0  0  0  0  0  0  0  0  0  0
  -20.6994  -28.5320   22.7598 N   0  3  0  0  0  0  0  0  0  0  0  0
  -22.6792  -13.3006   17.7297 O   0  0  0  0  0  0  0  0  0  0  0  0
  -27.3372  -32.9969   20.2701 O   0  0  0  0  0  0  0  0  0  0  0  0
  -23.6263  -33.3247   20.8324 O   0  0  0  0  0  0  0  0  0  0  0  0
  -23.3779  -29.2448   23.2436 O   0  0  0  0  0  0  0  0  0  0  0  0
  -31.3119  -15.0473   19.4563 O   0  0  0  0  0  0  0  0  0  0  0  0
  -21.1664   -7.8247   23.0507 O   0  0  0  0  0  0  0  0  0  0  0  0
  -28.6121  -26.5323   19.8273 O   0  0  0  0  0  0  0  0  0  1  0  0
  -22.7826   -2.5923   23.6942 F   0  0  0  0  0  0  0  0  0  0  0  0
  -19.6259   -5.7369   22.0965 F   0  0  0  0  0  0  0  0  0  0  0  0
  1  2  1  0  0  0  0
  1  6  2  0  0  0  0
  2  7  2  0  0  0  0
  3 14  2  0  0  0  0
  3 19  1  0  0  0  0
  4  9  2  0  0  0  0
  4 20  1  0  0  0  0
  5 10  1  0  0  0  0
  5 20  2  0  0  0  0
  6 22  1  0  0  0  0
  7 24  1  0  0  0  0
  8 11  2  0  0  0  0
  8 23  1  0  0  0  0
  9 27  1  0  0  0  0
 10 27  2  0  0  0  0
 11 28  1  0  0  0  0
 12 13  2  0  0  0  0
 12 29  1  0  0  0  0
 13 30  1  0  0  0  0
 14 34  1  0  0  0  0
 15 25  1  0  0  0  0
 15 28  2  0  0  0  0
 16 26  1  0  0  0  0
 16 33  2  0  0  0  0
 17 30  2  0  0  0  0
 17 31  1  0  0  0  0
 18 19  1  0  0  0  0
 18 66  2  0  0  0  0
 19 26  2  0  0  0  0
 20 32  1  0  0  0  0
 21 32  1  0  0  0  0
 21 35  2  0  0  0  0
 21 36  1  0  0  0  0
 22 24  2  0  0  0  0
 22 41  1  0  0  0  0
 23 25  2  0  0  0  0
 23 42  1  0  0  0  0
 24 53  1  0  0  0  0
 25 43  1  0  0  0  0
 26 67  1  0  0  0  0
 27 83  1  0  0  0  0
 28 84  1  0  0  0  0
 29 31  2  0  0  0  0
 29 83  1  0  0  0  0
 30 85  1  0  0  0  0
 31 86  1  0  0  0  0
 32 68  2  0  0  0  0
 33 54  1  0  0  0  0
 33 66  1  0  0  0  0
 34 62  1  0  0  0  0
 34 67  2  0  0  0  0
 35 69  1  0  0  0  0
 35 73  1  0  0  0  0
 36 74  1  0  0  0  0
 36 78  2  0  0  0  0
 37 55  1  0  0  0  0
 37 75  1  0  0  0  0
 37 79  2  0  0  0  0
 38 63  1  0  0  0  0
 38 70  1  0  0  0  0
 38 80  2  0  0  0  0
 39 64  1  0  0  0  0
 39 76  1  0  0  0  0
 39 81  2  0  0  0  0
 40 71  1  0  0  0  0
 40 72  1  0  0  0  0
 40 82  2  0  0  0  0
 41 44  1  0  0  0  0
 42 55  1  0  0  0  0
 43 70  1  0  0  0  0
 44 46  1  0  0  0  0
 45 47  1  0  0  0  0
 45 49  1  0  0  0  0
 46 53  1  0  0  0  0
 47 56  1  0  0  0  0
 48 50  1  0  0  0  0
 48 54  1  0  0  0  0
 49 71  1  0  0  0  0
 50 72  1  0  0  0  0
 51 54  1  0  0  0  0
 51 72  1  0  0  0  0
 52 56  1  0  0  0  0
 52 71  1  0  0  0  0
 53 75  1  0  0  0  0
 55 70  1  0  0  0  0
 56 69  1  0  0  0  0
 57 64  1  0  0  0  0
 58 65  1  0  0  0  0
 59 65  1  0  0  0  0
 60 65  1  0  0  0  0
 61 77  1  0  0  0  0
 62 84  1  0  0  0  0
 63 65  1  0  0  0  0
 63 76  1  0  0  0  0
 64 77  1  0  0  0  0
 68 69  1  0  0  0  0
M  CHG  1  77   1
M  ISO  4  40 100  62 101  72 100  84 101
M  END
> <Batch ID>
0180

> <Smiles>
CNC(C)C(=O)NC(C(=O)N1Cc2cc([101O:1][101CH2:1]c3ccc4cnc(C5CC[100N:0]([100C:0](=O)N6CCCC(n7nc(-c8ccc(Oc9ccc(F)cc9F)cc8)c(C(N)=O)c7N)C6)C5)cc4n3)ccc2CC1C(=O)NC1CCCc2ccccc21)C(C)(C)C

> <Shape>
0.286

> <Color>
0.126

> <Negative vol penalty>
0.000

$$$$

  -OEChem-04052323003D

 84 93  0     1  0  0  0  0  0999 V2000
  -23.0421  -17.7589   28.8431 C   0  0  0  0  0  0  0  0  0  0  0  0
  -23.1726  -19.1297   29.0414 C   0  0  0  0  0  0  0  0  0  0  0  0
  -25.7733  -15.6064   21.5373 C   0  0  0  0  0  0  0  0  0  0  0  0
  -25.2120  -16.6625   19.4381 C   0  0  0  0  0  0  0  0  0  0  0  0
  -23.1020  -17.2336   27.5530 C   0  0  0  0  0  0  0  0  0  0  0  0
  -23.3644  -19.9758   27.9498 C   0  0  0  0  0  0  0  0  0  0  0  0
  -21.8227  -26.5917   25.6759 C   0  0  0  0  0  0  0  0  0  0  0  0
  -24.4922  -15.0588   21.6044 C   0  0  0  0  0  0  0  0  0  0  0  0
  -23.9309  -16.1149   19.5052 C   0  0  0  0  0  0  0  0  0  0  0  0
  -22.4474  -27.7256   25.1585 C   0  0  0  0  0  0  0  0  0  0  0  0
  -22.8180  -12.4624   20.2301 C   0  0  0  0  0  0  0  0  0  0  0  0
  -22.7052  -11.1189   20.5877 C   0  0  0  0  0  0  0  0  0  0  0  0
  -22.4554  -26.7146   22.9683 C   0  0  0  0  0  0  0  0  0  0  0  0
  -28.8929  -27.1263   21.9130 C   0  0  0  0  0  0  0  0  0  0  0  0
  -21.3736  -11.7411   22.5053 C   0  0  0  0  0  0  0  0  0  0  0  0
  -27.0759  -27.3042   19.8189 C   0  0  0  0  0  0  0  0  0  0  0  0
  -26.1332  -16.4083   20.4542 C   0  0  0  0  0  0  0  0  0  0  0  0
  -26.8815  -28.0255   20.9695 C   0  0  0  0  0  0  0  0  0  0  0  0
  -28.5964  -16.4010   19.7908 C   0  0  0  0  0  0  0  0  0  0  0  0
  -23.2849  -18.0747   26.4441 C   0  0  0  0  0  0  0  0  0  0  0  0
  -21.5190  -25.5043   24.8440 C   0  0  0  0  0  0  0  0  0  0  0  0
  -23.4282  -19.4611   26.6438 C   0  0  0  0  0  0  0  0  0  0  0  0
  -21.8245  -25.5690   23.4771 C   0  0  0  0  0  0  0  0  0  0  0  0
  -27.7871  -27.9406   22.0210 C   0  0  0  0  0  0  0  0  0  0  0  0
  -23.5710  -15.3130   20.5883 C   0  0  0  0  0  0  0  0  0  0  0  0
  -22.7664  -27.7860   23.8051 C   0  0  0  0  0  0  0  0  0  0  0  0
  -22.2087  -13.4453   21.0101 C   0  0  0  0  0  0  0  0  0  0  0  0
  -21.9830  -10.7582   21.7253 C   0  0  0  0  0  0  0  0  0  0  0  0
  -21.4865  -13.0846   22.1477 C   0  0  0  0  0  0  0  0  0  0  0  0
  -27.4562  -16.9747   20.3846 C   0  0  0  0  0  0  0  0  0  0  0  0
  -29.0227  -26.4271   20.7188 C   0  0  0  0  0  0  0  0  0  0  0  0
  -29.5905  -17.3276   19.9902 C   0  0  0  0  0  0  0  0  0  0  0  0
  -25.8104  -28.9506   21.3440 C   0  0  0  0  0  0  0  0  0  0  0  0
  -28.7438  -15.1430   19.1189 C   0  0  0  0  0  0  0  0  0  0  0  0
  -22.3954  -22.4509   24.7339 C   0  0  0  0  0  0  0  0  0  0  0  0
  -20.1681  -22.3007   22.3805 C   0  0  0  0  0  0  0  0  0  0  0  0
  -18.3668  -23.9365   19.9875 C   0  0  0  0  0  0  0  0  0  0  0  0
  -29.4177  -23.1800   20.7483 C   0  0  0  0  0  0  0  0  0  0  0  0
  -23.3906  -17.4557   25.0729 C   0  0  0  0  0  0  0  0  0  0  0  0
  -20.8209  -24.2993   25.4124 C   0  0  0  0  0  0  0  0  0  0  0  0
  -21.5013  -24.4369   22.5378 C   0  0  0  0  0  0  0  0  0  0  0  0
  -27.3542  -28.8130   23.1491 C   0  0  0  0  0  0  0  0  0  0  0  0
  -23.2212  -18.4605   23.9363 C   0  0  0  0  0  0  0  0  0  0  0  0
  -30.9297  -20.7921   23.0086 C   0  0  0  0  0  0  0  0  0  0  0  0
  -24.0596  -19.7078   24.1971 C   0  0  0  0  0  0  0  0  0  0  0  0
  -30.3089  -19.4803   22.5250 C   0  0  0  0  0  0  0  0  0  0  0  0
  -29.9250  -21.9383   22.9377 C   0  0  0  0  0  0  0  0  0  0  0  0
  -28.6993  -20.8352   21.1062 C   0  0  0  0  0  0  0  0  0  0  0  0
  -23.6126  -20.4141   25.4827 C   0  0  1  0  0  0  0  0  0  0  0  0
  -21.0229  -23.0410   24.5738 C   0  0  1  0  0  0  0  0  0  0  0  0
  -29.6716  -19.6420   21.1322 C   0  0  2  0  0  0  0  0  0  0  0  0
  -16.6538  -23.5406   18.1969 C   0  0  0  0  0  0  0  0  0  0  0  0
  -22.3222  -21.0893   20.5909 C   0  0  0  0  0  0  0  0  0  0  0  0
  -20.8692  -21.5974   18.6164 C   0  0  0  0  0  0  0  0  0  0  0  0
  -20.0695  -20.0239   20.3792 C   0  0  0  0  0  0  0  0  0  0  0  0
  -16.4180  -25.7430   21.2904 C   0  0  0  0  0  0  0  0  0  0  0  0
  -30.1992  -25.5255   20.5351 C   0  0  0  0  0  0  0  0  0  0  0  0
  -25.3032  -30.3283   23.3664 C   0  0  0  0  0  0  0  0  0  0  0  0
  -24.2299  -29.6234   24.1766 C   0  0  0  0  0  0  0  0  0  1  0  0
  -20.1790  -22.4989   20.8839 C   0  0  1  0  0  0  0  0  0  0  0  0
  -16.8865  -23.9169   19.6519 C   0  0  2  0  0  0  0  0  0  0  0  0
  -20.8680  -21.3231   20.1354 C   0  0  0  0  0  0  0  0  0  0  0  0
  -28.1481  -26.4938   19.6740 N   0  0  0  0  0  0  0  0  0  0  0  0
  -27.7020  -18.1729   20.9211 N   0  0  0  0  0  0  0  0  0  0  0  0
  -29.0080  -18.3597   20.6653 N   0  0  0  0  0  0  0  0  0  0  0  0
  -26.1161  -29.3966   22.6304 N   0  0  0  0  0  0  0  0  0  0  0  0
  -20.8242  -23.2777   23.1425 N   0  0  0  0  0  0  0  0  0  0  0  0
  -29.3697  -22.0501   21.5815 N   0  0  0  0  0  0  0  0  0  0  0  0
  -30.8972  -17.3521   19.6522 N   0  0  0  0  0  0  0  0  0  0  0  0
  -27.6210  -14.3123   19.0021 N   0  0  0  0  0  0  0  0  0  0  0  0
  -22.4000  -21.1688   25.2493 N   0  0  0  0  0  0  0  0  0  0  0  0
  -18.7922  -22.7258   20.4921 N   0  0  0  0  0  0  0  0  0  0  0  0
  -30.0644  -24.2910   21.2759 N   0  0  0  0  0  0  0  0  0  0  0  0
  -16.2830  -25.2581   19.8927 N   0  3  0  0  0  0  0  0  0  0  0  0
  -24.8683  -29.2305   20.6262 O   0  0  0  0  0  0  0  0  0  0  0  0
  -29.8426  -14.7594   18.6509 O   0  0  0  0  0  0  0  0  0  0  0  0
  -23.3775  -23.1094   24.4122 O   0  0  0  0  0  0  0  0  0  0  0  0
  -19.5923  -21.3190   22.8563 O   0  0  0  0  0  0  0  0  0  0  0  0
  -19.0758  -24.9256   19.8155 O   0  0  0  0  0  0  0  0  0  0  0  0
  -28.9253  -23.1962   19.6150 O   0  0  0  0  0  0  0  0  0  0  0  0
  -22.3209  -14.7786   20.6534 O   0  0  0  0  0  0  0  0  0  0  0  0
  -23.3768  -28.8914   23.2976 O   0  0  0  0  0  0  0  0  0  1  0  0
  -21.8735   -9.4679   22.0677 F   0  0  0  0  0  0  0  0  0  0  0  0
  -20.8979  -14.0243   22.9003 F   0  0  0  0  0  0  0  0  0  0  0  0
  1  2  1  0  0  0  0
  1  5  2  0  0  0  0
  2  6  2  0  0  0  0
  3  8  2  0  0  0  0
  3 17  1  0  0  0  0
  4  9  1  0  0  0  0
  4 17  2  0  0  0  0
  5 20  1  0  0  0  0
  6 22  1  0  0  0  0
  7 10  2  0  0  0  0
  7 21  1  0  0  0  0
  8 25  1  0  0  0  0
  9 25  2  0  0  0  0
 10 26  1  0  0  0  0
 11 12  2  0  0  0  0
 11 27  1  0  0  0  0
 12 28  1  0  0  0  0
 13 23  1  0  0  0  0
 13 26  2  0  0  0  0
 14 24  1  0  0  0  0
 14 31  2  0  0  0  0
 15 28  2  0  0  0  0
 15 29  1  0  0  0  0
 16 18  1  0  0  0  0
 16 63  2  0  0  0  0
 17 30  1  0  0  0  0
 18 24  2  0  0  0  0
 18 33  1  0  0  0  0
 19 30  1  0  0  0  0
 19 32  2  0  0  0  0
 19 34  1  0  0  0  0
 20 22  2  0  0  0  0
 20 39  1  0  0  0  0
 21 23  2  0  0  0  0
 21 40  1  0  0  0  0
 22 49  1  0  0  0  0
 23 41  1  0  0  0  0
 24 42  1  0  0  0  0
 25 81  1  0  0  0  0
 26 82  1  0  0  0  0
 27 29  2  0  0  0  0
 27 81  1  0  0  0  0
 28 83  1  0  0  0  0
 29 84  1  0  0  0  0
 30 64  2  0  0  0  0
 31 57  1  0  0  0  0
 31 63  1  0  0  0  0
 32 65  1  0  0  0  0
 32 69  1  0  0  0  0
 33 66  1  0  0  0  0
 33 75  2  0  0  0  0
 34 70  1  0  0  0  0
 34 76  2  0  0  0  0
 35 50  1  0  0  0  0
 35 71  1  0  0  0  0
 35 77  2  0  0  0  0
 36 60  1  0  0  0  0
 36 67  1  0  0  0  0
 36 78  2  0  0  0  0
 37 61  1  0  0  0  0
 37 72  1  0  0  0  0
 37 79  2  0  0  0  0
 38 68  1  0  0  0  0
 38 73  1  0  0  0  0
 38 80  2  0  0  0  0
 39 43  1  0  0  0  0
 40 50  1  0  0  0  0
 41 67  1  0  0  0  0
 42 66  1  0  0  0  0
 43 45  1  0  0  0  0
 44 46  1  0  0  0  0
 44 47  1  0  0  0  0
 45 49  1  0  0  0  0
 46 51  1  0  0  0  0
 47 68  1  0  0  0  0
 48 51  1  0  0  0  0
 48 68  1  0  0  0  0
 49 71  1  0  0  0  0
 50 67  1  0  0  0  0
 51 65  1  0  0  0  0
 52 61  1  0  0  0  0
 53 62  1  0  0  0  0
 54 62  1  0  0  0  0
 55 62  1  0  0  0  0
 56 74  1  0  0  0  0
 57 73  1  0  0  0  0
 58 59  1  0  0  0  0
 58 66  1  0  0  0  0
 59 82  1  0  0  0  0
 60 62  1  0  0  0  0
 60 72  1  0  0  0  0
 61 74  1  0  0  0  0
 64 65  1  0  0  0  0
M  CHG  1  74   1
M  ISO  4  38 100  59 101  73 100  82 101
M  END
> <Batch ID>
0180

> <Smiles>
CNC(C)C(=O)NC(C(=O)N1Cc2cc([101O:1][101CH2:1]CN3Cc4cc(C[100NH:0][100C:0](=O)N5CCCC(n6nc(-c7ccc(Oc8ccc(F)cc8F)cc7)c(C(N)=O)c6N)C5)ncc4C3=O)ccc2CC1C(=O)NC1CCCc2ccccc21)C(C)(C)C

> <Shape>
0.176

> <Color>
0.073

> <Negative vol penalty>
0.000

$$$$

  -OEChem-04052323003D

 82 91  0     1  0  0  0  0  0999 V2000
  -32.8350  -33.9602   16.6683 C   0  0  0  0  0  0  0  0  0  0  0  0
  -32.5394  -32.6019   16.7232 C   0  0  0  0  0  0  0  0  0  0  0  0
  -22.7948  -10.4494   20.8039 C   0  0  0  0  0  0  0  0  0  0  0  0
  -24.5430   -9.1870   21.8935 C   0  0  0  0  0  0  0  0  0  0  0  0
  -32.5752  -34.7741   17.7701 C   0  0  0  0  0  0  0  0  0  0  0  0
  -31.9848  -32.0564   17.8805 C   0  0  0  0  0  0  0  0  0  0  0  0
  -27.9124  -27.4947   18.2148 C   0  0  0  0  0  0  0  0  0  0  0  0
  -21.9964   -9.3065   20.7606 C   0  0  0  0  0  0  0  0  0  0  0  0
  -23.7446   -8.0441   21.8502 C   0  0  0  0  0  0  0  0  0  0  0  0
  -28.0508  -26.1303   18.4658 C   0  0  0  0  0  0  0  0  0  0  0  0
  -21.1326   -6.7655   23.5716 C   0  0  0  0  0  0  0  0  0  0  0  0
  -21.0570   -5.9855   24.7255 C   0  0  0  0  0  0  0  0  0  0  0  0
  -27.5409  -26.5128   20.7924 C   0  0  0  0  0  0  0  0  0  0  0  0
  -21.9512   -4.0993   23.5090 C   0  0  0  0  0  0  0  0  0  0  0  0
  -24.0681  -10.3897   21.3704 C   0  0  0  0  0  0  0  0  0  0  0  0
  -24.9476  -12.5311   22.4420 C   0  0  0  0  0  0  0  0  0  0  0  0
  -32.0082  -34.2402   18.9381 C   0  0  0  0  0  0  0  0  0  0  0  0
  -27.5974  -28.3813   19.2545 C   0  0  0  0  0  0  0  0  0  0  0  0
  -31.7184  -32.8637   18.9995 C   0  0  0  0  0  0  0  0  0  0  0  0
  -27.3966  -27.8876   20.5514 C   0  0  0  0  0  0  0  0  0  0  0  0
  -22.4713   -8.1038   21.2837 C   0  0  0  0  0  0  0  0  0  0  0  0
  -27.8679  -25.6395   19.7553 C   0  0  0  0  0  0  0  0  0  0  0  0
  -21.6173   -6.2124   22.3863 C   0  0  0  0  0  0  0  0  0  0  0  0
  -21.4663   -4.6524   24.6942 C   0  0  0  0  0  0  0  0  0  0  0  0
  -22.0267   -4.8793   22.3550 C   0  0  0  0  0  0  0  0  0  0  0  0
  -24.8935  -11.5699   21.4149 C   0  0  0  0  0  0  0  0  0  0  0  0
  -25.8779  -13.4441   22.0091 C   0  0  0  0  0  0  0  0  0  0  0  0
  -24.2220  -12.5930   23.6771 C   0  0  0  0  0  0  0  0  0  0  0  0
  -29.0488  -30.8703   20.5970 C   0  0  0  0  0  0  0  0  0  0  0  0
  -26.2486  -31.1357   22.2129 C   0  0  0  0  0  0  0  0  0  0  0  0
  -23.4210  -29.6210   23.3778 C   0  0  0  0  0  0  0  0  0  0  0  0
  -27.6302  -16.6017   17.6142 C   0  0  0  0  0  0  0  0  0  0  0  0
  -31.7893  -35.1505   20.1204 C   0  0  0  0  0  0  0  0  0  0  0  0
  -27.4253  -29.8467   18.9622 C   0  0  0  0  0  0  0  0  0  0  0  0
  -27.0373  -28.7950   21.6986 C   0  0  0  0  0  0  0  0  0  0  0  0
  -30.8534  -34.5650   21.1748 C   0  0  0  0  0  0  0  0  0  0  0  0
  -29.1528  -13.2699   18.1719 C   0  0  0  0  0  0  0  0  0  0  0  0
  -31.2292  -33.1180   21.4777 C   0  0  0  0  0  0  0  0  0  0  0  0
  -28.1373  -12.5921   19.0901 C   0  0  0  0  0  0  0  0  0  0  0  0
  -27.3032  -21.4788   21.6226 C   0  0  0  0  0  0  0  0  0  0  0  0
  -27.2373  -22.9898   21.8706 C   0  0  0  0  0  0  0  0  0  0  0  0
  -26.4815  -22.4662   19.6112 C   0  0  0  0  0  0  0  0  0  0  0  0
  -28.4965  -14.3159   17.2764 C   0  0  0  0  0  0  0  0  0  0  0  0
  -26.2043  -18.6200   17.7577 C   0  0  0  0  0  0  0  0  0  0  0  0
  -26.7022  -14.6665   18.9437 C   0  0  0  0  0  0  0  0  0  0  0  0
  -26.9370  -17.5582   19.8584 C   0  0  0  0  0  0  0  0  0  0  0  0
  -26.8512  -19.9383   18.1503 C   0  0  0  0  0  0  0  0  0  0  0  0
  -31.0932  -32.2396   20.2282 C   0  0  1  0  0  0  0  0  0  0  0  0
  -27.6082  -30.7273   20.1944 C   0  0  1  0  0  0  0  0  0  0  0  0
  -27.3391  -13.6366   19.8892 C   0  0  1  0  0  0  0  0  0  0  0  0
  -27.3852  -21.3512   20.1115 C   0  0  2  0  0  0  0  0  0  0  0  0
  -26.8618  -23.6275   20.5271 C   0  0  2  0  0  0  0  0  0  1  0  0
  -27.6120  -18.8568   20.3250 C   0  0  1  0  0  0  0  0  0  0  0  0
  -29.1159  -18.8591   20.0513 C   0  0  0  0  0  0  0  0  0  0  0  0
  -21.3373  -30.0866   24.6965 C   0  0  0  0  0  0  0  0  0  0  0  0
  -27.8794  -31.1176   24.7917 C   0  0  0  0  0  0  0  0  0  0  0  0
  -25.7665  -30.6276   26.0422 C   0  0  0  0  0  0  0  0  0  0  0  0
  -25.9912  -32.7572   24.7629 C   0  0  0  0  0  0  0  0  0  0  0  0
  -21.6778  -28.9090   21.0946 C   0  0  0  0  0  0  0  0  0  0  0  0
  -25.7047  -30.5815   23.5075 C   0  0  1  0  0  0  0  0  0  0  0  0
  -21.9599  -30.0271   23.3102 C   0  0  2  0  0  0  0  0  0  0  0  0
  -26.3441  -31.2539   24.7551 C   0  0  0  0  0  0  0  0  0  0  0  0
  -25.7231  -11.8467   20.4054 N   0  0  0  0  0  0  0  0  0  0  0  0
  -26.3074  -12.9921   20.7961 N   0  0  0  0  0  0  0  0  0  0  0  0
  -26.8865  -30.2206   21.3634 N   0  0  0  0  0  0  0  0  0  0  0  0
  -27.7062  -15.2701   18.0543 N   0  0  0  0  0  0  0  0  0  0  0  0
  -26.8688  -17.4855   18.3936 N   0  0  0  0  0  0  0  0  0  0  0  0
  -26.3622  -14.5815   22.5515 N   0  0  0  0  0  0  0  0  0  0  0  0
  -23.3049  -11.5730   23.9651 N   0  0  0  0  0  0  0  0  0  0  0  0
  -29.7029  -31.9212   19.9830 N   0  0  0  0  0  0  0  0  0  0  0  0
  -24.2541  -30.7183   23.4326 N   0  0  0  0  0  0  0  0  0  0  0  0
  -26.9097  -20.0324   19.6587 N   0  3  2  0  0  0  0  0  0  0  0  0
  -21.1884  -29.0509   22.4900 N   0  3  0  0  0  0  0  0  0  0  0  0
  -24.3701  -13.5339   24.4934 O   0  0  0  0  0  0  0  0  0  0  0  0
  -29.5307  -30.0861   21.4061 O   0  0  0  0  0  0  0  0  0  0  0  0
  -26.1063  -32.3349   21.9613 O   0  0  0  0  0  0  0  0  0  0  0  0
  -23.7866  -28.4476   23.3854 O   0  0  0  0  0  0  0  0  0  0  0  0
  -28.2139  -16.9785   16.5902 O   0  0  0  0  0  0  0  0  0  0  0  0
  -21.6925   -6.9884   21.2418 O   0  0  0  0  0  0  0  0  0  0  0  0
  -28.0039  -24.3001   20.0047 O   0  0  0  0  0  0  0  0  0  1  0  0
  -21.3952   -3.9039   25.8027 F   0  0  0  0  0  0  0  0  0  0  0  0
  -22.4944   -4.3428   21.2196 F   0  0  0  0  0  0  0  0  0  0  0  0
  1  2  1  0  0  0  0
  1  5  2  0  0  0  0
  2  6  2  0  0  0  0
  3  8  2  0  0  0  0
  3 15  1  0  0  0  0
  4  9  1  0  0  0  0
  4 15  2  0  0  0  0
  5 17  1  0  0  0  0
  6 19  1  0  0  0  0
  7 10  2  0  0  0  0
  7 18  1  0  0  0  0
  8 21  1  0  0  0  0
  9 21  2  0  0  0  0
 10 22  1  0  0  0  0
 11 12  2  0  0  0  0
 11 23  1  0  0  0  0
 12 24  1  0  0  0  0
 13 20  1  0  0  0  0
 13 22  2  0  0  0  0
 14 24  2  0  0  0  0
 14 25  1  0  0  0  0
 15 26  1  0  0  0  0
 16 26  1  0  0  0  0
 16 27  2  0  0  0  0
 16 28  1  0  0  0  0
 17 19  2  0  0  0  0
 17 33  1  0  0  0  0
 18 20  2  0  0  0  0
 18 34  1  0  0  0  0
 19 48  1  0  0  0  0
 20 35  1  0  0  0  0
 21 79  1  0  0  0  0
 22 80  1  0  0  0  0
 23 25  2  0  0  0  0
 23 79  1  0  0  0  0
 24 81  1  0  0  0  0
 25 82  1  0  0  0  0
 26 63  2  0  0  0  0
 27 64  1  0  0  0  0
 27 68  1  0  0  0  0
 28 69  1  0  0  0  0
 28 74  2  0  0  0  0
 29 49  1  0  0  0  0
 29 70  1  0  0  0  0
 29 75  2  0  0  0  0
 30 60  1  0  0  0  0
 30 65  1  0  0  0  0
 30 76  2  0  0  0  0
 31 61  1  0  0  0  0
 31 71  1  0  0  0  0
 31 77  2  0  0  0  0
 32 66  1  0  0  0  0
 32 67  1  0  0  0  0
 32 78  2  0  0  0  0
 33 36  1  0  0  0  0
 34 49  1  0  0  0  0
 35 65  1  0  0  0  0
 36 38  1  0  0  0  0
 37 39  1  0  0  0  0
 37 43  1  0  0  0  0
 38 48  1  0  0  0  0
 39 50  1  0  0  0  0
 40 41  1  0  0  0  0
 40 51  1  0  0  0  0
 41 52  1  0  0  0  0
 42 51  1  0  0  0  0
 42 52  1  0  0  0  0
 43 66  1  0  0  0  0
 44 47  1  0  0  0  0
 44 67  1  0  0  0  0
 45 50  1  0  0  0  0
 45 66  1  0  0  0  0
 46 53  1  0  0  0  0
 46 67  1  0  0  0  0
 47 72  1  0  0  0  0
 48 70  1  0  0  0  0
 49 65  1  0  0  0  0
 50 64  1  0  0  0  0
 51 72  1  0  0  0  0
 52 80  1  0  0  0  0
 53 54  1  0  0  0  0
 53 72  1  0  0  0  0
 55 61  1  0  0  0  0
 56 62  1  0  0  0  0
 57 62  1  0  0  0  0
 58 62  1  0  0  0  0
 59 73  1  0  0  0  0
 60 62  1  0  0  0  0
 60 71  1  0  0  0  0
 61 73  1  0  0  0  0
 63 64  1  0  0  0  0
M  CHG  2  72   1  73   1
M  ISO  4  32 100  52 101  67 100  80 101
M  END
> <Batch ID>
0180

> <Smiles>
CNC(C)C(=O)NC(C(=O)N1Cc2cc([101O:1][101CH:1]3CCC(N4CC[100N:0]([100C:0](=O)N5CCCC(n6nc(-c7ccc(Oc8ccc(F)cc8F)cc7)c(C(N)=O)c6N)C5)CC4C)C3)ccc2CC1C(=O)NC1CCCc2ccccc21)C(C)(C)C

> <Shape>
0.274

> <Color>
0.141

> <Negative vol penalty>
0.000

$$$$

  -OEChem-04052323003D

 82 91  0     1  0  0  0  0  0999 V2000
  -19.8132  -25.9400   25.7287 C   0  0  0  0  0  0  0  0  0  0  0  0
  -21.1500  -25.9813   25.3460 C   0  0  0  0  0  0  0  0  0  0  0  0
  -26.0382  -13.2935   21.4966 C   0  0  0  0  0  0  0  0  0  0  0  0
  -25.2829  -12.4460   19.3639 C   0  0  0  0  0  0  0  0  0  0  0  0
  -18.8365  -26.5016   24.9074 C   0  0  0  0  0  0  0  0  0  0  0  0
  -21.5109  -26.5833   24.1411 C   0  0  0  0  0  0  0  0  0  0  0  0
  -26.6331  -29.7366   22.9900 C   0  0  0  0  0  0  0  0  0  0  0  0
  -25.1100  -12.4814   22.1481 C   0  0  0  0  0  0  0  0  0  0  0  0
  -24.3547  -11.6337   20.0155 C   0  0  0  0  0  0  0  0  0  0  0  0
  -27.8349  -29.3828   22.3781 C   0  0  0  0  0  0  0  0  0  0  0  0
  -24.3575   -8.6965   21.6868 C   0  0  0  0  0  0  0  0  0  0  0  0
  -24.2472   -7.3722   21.2629 C   0  0  0  0  0  0  0  0  0  0  0  0
  -30.5082  -26.3847   18.6729 C   0  0  0  0  0  0  0  0  0  0  0  0
  -27.0289  -30.2814   20.2895 C   0  0  0  0  0  0  0  0  0  0  0  0
  -21.9246   -7.7426   20.7103 C   0  0  0  0  0  0  0  0  0  0  0  0
  -26.1245  -13.2759   20.1045 C   0  0  0  0  0  0  0  0  0  0  0  0
  -28.4090  -13.7876   19.0911 C   0  0  0  0  0  0  0  0  0  0  0  0
  -19.1866  -27.1193   23.6964 C   0  0  0  0  0  0  0  0  0  0  0  0
  -25.6144  -30.3566   22.2525 C   0  0  0  0  0  0  0  0  0  0  0  0
  -20.5378  -27.1525   23.3021 C   0  0  0  0  0  0  0  0  0  0  0  0
  -29.3937  -25.5569   18.7494 C   0  0  0  0  0  0  0  0  0  0  0  0
  -25.8162  -30.6443   20.8950 C   0  0  0  0  0  0  0  0  0  0  0  0
  -30.4629  -27.6561   19.2343 C   0  0  0  0  0  0  0  0  0  0  0  0
  -24.2684  -11.6514   21.4076 C   0  0  0  0  0  0  0  0  0  0  0  0
  -28.0318  -29.6526   21.0270 C   0  0  0  0  0  0  0  0  0  0  0  0
  -23.2514   -9.5438   21.6225 C   0  0  0  0  0  0  0  0  0  0  0  0
  -23.0308   -6.8953   20.7746 C   0  0  0  0  0  0  0  0  0  0  0  0
  -22.0349   -9.0669   21.1342 C   0  0  0  0  0  0  0  0  0  0  0  0
  -27.0827  -14.1151   19.4308 C   0  0  0  0  0  0  0  0  0  0  0  0
  -28.2672  -26.0437   19.3928 C   0  0  0  0  0  0  0  0  0  0  0  0
  -29.2887  -28.0489   19.8560 C   0  0  0  0  0  0  0  0  0  1  0  0
  -28.8927  -14.9138   18.4712 C   0  0  0  0  0  0  0  0  0  0  0  0
  -29.1385  -12.5739   19.3156 C   0  0  0  0  0  0  0  0  0  0  0  0
  -22.6234  -29.6024   21.4852 C   0  0  0  0  0  0  0  0  0  0  0  0
  -22.5945  -32.6040   20.2555 C   0  0  0  0  0  0  0  0  0  0  0  0
  -24.3643  -35.2352   18.9941 C   0  0  0  0  0  0  0  0  0  0  0  0
  -28.4670  -20.6124   19.0395 C   0  0  0  0  0  0  0  0  0  0  0  0
  -18.0905  -27.6708   22.8193 C   0  0  0  0  0  0  0  0  0  0  0  0
  -24.3342  -30.7561   22.9336 C   0  0  0  0  0  0  0  0  0  0  0  0
  -24.7618  -31.3266   20.0637 C   0  0  0  0  0  0  0  0  0  0  0  0
  -18.5965  -28.6212   21.7372 C   0  0  0  0  0  0  0  0  0  0  0  0
  -26.8799  -18.8141   16.2359 C   0  0  0  0  0  0  0  0  0  0  0  0
  -19.8126  -28.0287   21.0323 C   0  0  0  0  0  0  0  0  0  0  0  0
  -26.8541  -17.3884   16.7789 C   0  0  0  0  0  0  0  0  0  0  0  0
  -30.5300  -23.2448   18.5601 C   0  0  0  0  0  0  0  0  0  0  0  0
  -26.6986  -19.8526   17.3422 C   0  0  0  0  0  0  0  0  0  0  0  0
  -27.6474  -18.2778   19.0049 C   0  0  0  0  0  0  0  0  0  0  0  0
  -29.4345  -24.1933   18.1508 C   0  0  1  0  0  0  0  0  0  0  0  0
  -20.9714  -27.8186   22.0143 C   0  0  1  0  0  0  0  0  0  0  0  0
  -23.1672  -30.9185   21.9645 C   0  0  1  0  0  0  0  0  0  0  0  0
  -27.8769  -17.2214   17.9131 C   0  0  1  0  0  0  0  0  0  0  0  0
  -29.1252  -22.9996   19.0256 C   0  0  1  0  0  0  0  0  0  0  0  0
  -31.6504  -28.5518   19.1579 C   0  0  0  0  0  0  0  0  0  0  0  0
  -27.0396  -25.2003   19.5051 C   0  0  0  0  0  0  0  0  0  0  0  0
  -24.0614  -37.5355   18.0378 C   0  0  0  0  0  0  0  0  0  0  0  0
  -21.6433  -31.3829   17.6260 C   0  0  0  0  0  0  0  0  0  0  0  0
  -22.2675  -33.5232   16.4869 C   0  0  0  0  0  0  0  0  0  0  0  0
  -20.5076  -33.5205   18.2547 C   0  0  0  0  0  0  0  0  0  0  0  0
  -25.9607  -36.4712   21.1580 C   0  0  0  0  0  0  0  0  0  0  0  0
  -22.9286  -33.2136   18.9154 C   0  0  1  0  0  0  0  0  0  0  0  0
  -24.3130  -36.7217   19.2976 C   0  0  2  0  0  0  0  0  0  0  0  0
  -21.8561  -32.8954   17.8357 C   0  0  0  0  0  0  0  0  0  0  0  0
  -26.7454  -15.3525   19.0579 N   0  0  0  0  0  0  0  0  0  0  0  0
  -28.1858  -27.2727   19.9500 N   0  0  0  0  0  0  0  0  0  0  0  0
  -27.8668  -15.8125   18.4775 N   0  0  0  0  0  0  0  0  0  0  0  0
  -23.5248  -31.6919   20.7737 N   0  0  0  0  0  0  0  0  0  0  0  0
  -27.6451  -19.6361   18.4479 N   0  0  0  0  0  0  0  0  0  0  0  0
  -30.0913  -15.2132   17.9269 N   0  0  0  0  0  0  0  0  0  0  0  0
  -28.4903  -11.5155   19.9666 N   0  0  0  0  0  0  0  0  0  0  0  0
  -21.6329  -29.0755   22.2919 N   0  0  0  0  0  0  0  0  0  0  0  0
  -23.1317  -34.6384   19.1544 N   0  0  0  0  0  0  0  0  0  0  0  0
  -28.3536  -21.8964   18.5186 N   0  0  0  0  0  0  0  0  0  0  0  0
  -25.6000  -37.1723   19.8989 N   0  3  0  0  0  0  0  0  0  0  0  0
  -30.3351  -12.4380   18.9643 O   0  0  0  0  0  0  0  0  0  0  0  0
  -23.0683  -29.1027   20.4585 O   0  0  0  0  0  0  0  0  0  0  0  0
  -21.5501  -32.9305   20.8250 O   0  0  0  0  0  0  0  0  0  0  0  0
  -25.3939  -34.6616   18.6457 O   0  0  0  0  0  0  0  0  0  0  0  0
  -29.2425  -20.3615   19.9687 O   0  0  0  0  0  0  0  0  0  0  0  0
  -23.3627  -10.8585   22.0430 O   0  0  0  0  0  0  0  0  0  0  0  0
  -29.2036  -29.3077   20.4271 O   0  0  0  0  0  0  0  0  0  1  0  0
  -22.9254   -5.6240   20.3661 F   0  0  0  0  0  0  0  0  0  0  0  0
  -20.9691   -9.8766   21.0690 F   0  0  0  0  0  0  0  0  0  0  0  0
  1  2  1  0  0  0  0
  1  5  2  0  0  0  0
  2  6  2  0  0  0  0
  3  8  2  0  0  0  0
  3 16  1  0  0  0  0
  4  9  1  0  0  0  0
  4 16  2  0  0  0  0
  5 18  1  0  0  0  0
  6 20  1  0  0  0  0
  7 10  2  0  0  0  0
  7 19  1  0  0  0  0
  8 24  1  0  0  0  0
  9 24  2  0  0  0  0
 10 25  1  0  0  0  0
 11 12  2  0  0  0  0
 11 26  1  0  0  0  0
 12 27  1  0  0  0  0
 13 21  2  0  0  0  0
 13 23  1  0  0  0  0
 14 22  1  0  0  0  0
 14 25  2  0  0  0  0
 15 27  2  0  0  0  0
 15 28  1  0  0  0  0
 16 29  1  0  0  0  0
 17 29  1  0  0  0  0
 17 32  2  0  0  0  0
 17 33  1  0  0  0  0
 18 20  2  0  0  0  0
 18 38  1  0  0  0  0
 19 22  2  0  0  0  0
 19 39  1  0  0  0  0
 20 49  1  0  0  0  0
 21 30  1  0  0  0  0
 21 48  1  0  0  0  0
 22 40  1  0  0  0  0
 23 31  2  0  0  0  0
 23 53  1  0  0  0  0
 24 79  1  0  0  0  0
 25 80  1  0  0  0  0
 26 28  2  0  0  0  0
 26 79  1  0  0  0  0
 27 81  1  0  0  0  0
 28 82  1  0  0  0  0
 29 63  2  0  0  0  0
 30 54  1  0  0  0  0
 30 64  2  0  0  0  0
 31 64  1  0  0  0  0
 31 80  1  0  0  0  0
 32 65  1  0  0  0  0
 32 68  1  0  0  0  0
 33 69  1  0  0  0  0
 33 74  2  0  0  0  0
 34 50  1  0  0  0  0
 34 70  1  0  0  0  0
 34 75  2  0  0  0  0
 35 60  1  0  0  0  0
 35 66  1  0  0  0  0
 35 76  2  0  0  0  0
 36 61  1  0  0  0  0
 36 71  1  0  0  0  0
 36 77  2  0  0  0  0
 37 67  1  0  0  0  0
 37 72  1  0  0  0  0
 37 78  2  0  0  0  0
 38 41  1  0  0  0  0
 39 50  1  0  0  0  0
 40 66  1  0  0  0  0
 41 43  1  0  0  0  0
 42 44  1  0  0  0  0
 42 46  1  0  0  0  0
 43 49  1  0  0  0  0
 44 51  1  0  0  0  0
 45 48  1  0  0  0  0
 45 52  1  0  0  0  0
 46 67  1  0  0  0  0
 47 51  1  0  0  0  0
 47 67  1  0  0  0  0
 48 52  1  0  0  0  0
 49 70  1  0  0  0  0
 50 66  1  0  0  0  0
 51 65  1  0  0  0  0
 52 72  1  0  0  0  0
 55 61  1  0  0  0  0
 56 62  1  0  0  0  0
 57 62  1  0  0  0  0
 58 62  1  0  0  0  0
 59 73  1  0  0  0  0
 60 62  1  0  0  0  0
 60 71  1  0  0  0  0
 61 73  1  0  0  0  0
 63 65  1  0  0  0  0
M  CHG  1  73   1
M  ISO  4  31 101  37 100  72 100  80 101
M  END
> <Batch ID>
0180

> <Smiles>
CNC(C)C(=O)NC(C(=O)N1Cc2cc([101O:1][101c:1]3nc(C)c(C4CC4[100NH:0][100C:0](=O)N4CCCC(n5nc(-c6ccc(Oc7ccc(F)cc7F)cc6)c(C(N)=O)c5N)C4)cc3C)ccc2CC1C(=O)NC1CCCc2ccccc21)C(C)(C)C

> <Shape>
0.292

> <Color>
0.106

> <Negative vol penalty>
0.000

$$$$

  -OEChem-04052323003D

 83 92  0     1  0  0  0  0  0999 V2000
  -32.1338  -33.3421   28.4634 C   0  0  0  0  0  0  0  0  0  0  0  0
  -32.2708  -31.9809   28.2109 C   0  0  0  0  0  0  0  0  0  0  0  0
  -23.0726   -9.8726   19.9420 C   0  0  0  0  0  0  0  0  0  0  0  0
  -23.8348   -9.8791   22.2346 C   0  0  0  0  0  0  0  0  0  0  0  0
  -30.9397  -33.9909   28.1522 C   0  0  0  0  0  0  0  0  0  0  0  0
  -31.2131  -31.2674   27.6481 C   0  0  0  0  0  0  0  0  0  0  0  0
  -31.6078  -26.5860   23.7195 C   0  0  0  0  0  0  0  0  0  0  0  0
  -22.3278   -8.7203   20.1928 C   0  0  0  0  0  0  0  0  0  0  0  0
  -23.0899   -8.7267   22.4854 C   0  0  0  0  0  0  0  0  0  0  0  0
  -31.5396  -25.2047   23.8964 C   0  0  0  0  0  0  0  0  0  0  0  0
  -19.8616   -7.9322   23.0913 C   0  0  0  0  0  0  0  0  0  0  0  0
  -19.1058   -7.8932   24.2629 C   0  0  0  0  0  0  0  0  0  0  0  0
  -29.1973  -25.2528   23.3213 C   0  0  0  0  0  0  0  0  0  0  0  0
  -20.3459   -5.9546   24.9983 C   0  0  0  0  0  0  0  0  0  0  0  0
  -31.3899  -20.3976   25.5720 C   0  0  0  0  0  0  0  0  0  0  0  0
  -23.8261  -10.4520   20.9629 C   0  0  0  0  0  0  0  0  0  0  0  0
  -24.1704  -12.9768   20.8422 C   0  0  0  0  0  0  0  0  0  0  0  0
  -29.8702  -33.2871   27.5764 C   0  0  0  0  0  0  0  0  0  0  0  0
  -30.4668  -27.3137   23.3522 C   0  0  0  0  0  0  0  0  0  0  0  0
  -30.0030  -31.9072   27.3301 C   0  0  0  0  0  0  0  0  0  0  0  0
  -29.2543  -26.6429   23.1379 C   0  0  0  0  0  0  0  0  0  0  0  0
  -30.5039  -18.9389   23.4429 C   0  0  0  0  0  0  0  0  0  0  0  0
  -31.1926  -21.0504   24.3659 C   0  0  0  0  0  0  0  0  0  0  0  0
  -30.7411  -20.3000   23.2860 C   0  0  0  0  0  0  0  0  0  0  0  0
  -22.3364   -8.1473   21.4645 C   0  0  0  0  0  0  0  0  0  0  0  0
  -30.3336  -24.5383   23.7001 C   0  0  0  0  0  0  0  0  0  0  0  0
  -20.8595   -6.9824   22.8731 C   0  0  0  0  0  0  0  0  0  0  0  0
  -19.3479   -6.9044   25.2165 C   0  0  0  0  0  0  0  0  0  0  0  0
  -21.1017   -5.9936   23.8266 C   0  0  0  0  0  0  0  0  0  0  0  0
  -24.5962  -11.6421   20.7042 C   0  0  0  0  0  0  0  0  0  0  0  0
  -30.7322  -18.3806   24.6903 C   0  0  0  0  0  0  0  0  0  0  0  0
  -25.2630  -13.7251   20.4778 C   0  0  0  0  0  0  0  0  0  0  0  0
  -22.9009  -13.4939   21.2624 C   0  0  0  0  0  0  0  0  0  0  0  0
  -28.7619  -29.6386   24.6909 C   0  0  0  0  0  0  0  0  0  0  0  0
  -27.2013  -29.6006   21.8474 C   0  0  0  0  0  0  0  0  0  0  0  0
  -26.3283  -27.8601   19.0446 C   0  0  0  0  0  0  0  0  0  0  0  0
  -30.7479  -14.7387   20.6605 C   0  0  0  0  0  0  0  0  0  0  0  0
  -28.5822  -34.0218   27.3010 C   0  0  0  0  0  0  0  0  0  0  0  0
  -30.5632  -28.7996   23.1393 C   0  0  0  0  0  0  0  0  0  0  0  0
  -28.0053  -27.3753   22.7232 C   0  0  0  0  0  0  0  0  0  0  0  0
  -27.6421  -33.2716   26.3608 C   0  0  0  0  0  0  0  0  0  0  0  0
  -29.6056  -12.3550   18.2753 C   0  0  0  0  0  0  0  0  0  0  0  0
  -27.5273  -31.8084   26.7764 C   0  0  0  0  0  0  0  0  0  0  0  0
  -28.1682  -12.0628   18.7096 C   0  0  0  0  0  0  0  0  0  0  0  0
  -30.7997  -18.1037   21.0165 C   0  0  0  0  0  0  0  0  0  0  0  0
  -30.5241  -12.5751   19.4752 C   0  0  0  0  0  0  0  0  0  0  0  0
  -28.6244  -13.3082   20.8636 C   0  0  0  0  0  0  0  0  0  0  0  0
  -30.0194  -18.1063   22.3026 C   0  0  1  0  0  0  0  0  0  0  0  0
  -28.8871  -31.1042   26.6976 C   0  0  1  0  0  0  0  0  0  0  0  0
  -29.2189  -29.5097   23.2653 C   0  0  1  0  0  0  0  0  0  0  0  0
  -27.6489  -13.1345   19.6869 C   0  0  2  0  0  0  0  0  0  0  0  0
  -30.8171  -16.8894   21.8971 C   0  0  1  0  0  0  0  0  0  0  0  0
  -30.5116  -20.9579   21.9627 C   0  0  0  0  0  0  0  0  0  0  0  0
  -30.4960  -16.9237   24.9213 C   0  0  0  0  0  0  0  0  0  0  0  0
  -25.0157  -28.0815   16.9173 C   0  0  0  0  0  0  0  0  0  0  0  0
  -24.6054  -29.2800   23.4186 C   0  0  0  0  0  0  0  0  0  0  0  0
  -23.4900  -28.5635   21.2947 C   0  0  0  0  0  0  0  0  0  0  0  0
  -24.4636  -30.8527   21.4793 C   0  0  0  0  0  0  0  0  0  0  0  0
  -28.7331  -27.4142   17.3781 C   0  0  0  0  0  0  0  0  0  0  0  0
  -31.4653  -22.5217   24.2553 C   0  0  0  0  0  0  0  0  0  1  0  0
  -26.0086  -28.8602   21.2923 C   0  0  1  0  0  0  0  0  0  0  0  0
  -26.3800  -28.2289   17.5730 C   0  0  2  0  0  0  0  0  0  0  0  0
  -24.6648  -29.3753   21.8809 C   0  0  0  0  0  0  0  0  0  0  0  0
  -31.1706  -19.0773   25.7627 N   0  0  0  0  0  0  0  0  0  0  0  0
  -25.8605  -11.5449   20.2847 N   0  0  0  0  0  0  0  0  0  0  0  0
  -26.2386  -12.8281   20.1559 N   0  0  0  0  0  0  0  0  0  0  0  0
  -28.1490  -28.8282   22.5339 N   0  0  0  0  0  0  0  0  0  0  0  0
  -29.9754  -13.6043   20.3616 N   0  0  0  0  0  0  0  0  0  0  0  0
  -25.4747  -15.0564   20.4044 N   0  0  0  0  0  0  0  0  0  0  0  0
  -21.8884  -12.5858   21.6008 N   0  0  0  0  0  0  0  0  0  0  0  0
  -29.2106  -30.7817   25.3244 N   0  0  0  0  0  0  0  0  0  0  0  0
  -26.1035  -28.9636   19.8402 N   0  0  0  0  0  0  0  0  0  0  0  0
  -30.1505  -15.6682   21.5030 N   0  0  0  0  0  0  0  0  0  0  0  0
  -27.3450  -27.3510   16.8525 N   0  3  0  0  0  0  0  0  0  0  0  0
  -22.6659  -14.7248   21.3198 O   0  0  0  0  0  0  0  0  0  0  0  0
  -28.0534  -28.7662   25.1794 O   0  0  0  0  0  0  0  0  0  0  0  0
  -27.2925  -30.8182   21.6720 O   0  0  0  0  0  0  0  0  0  0  0  0
  -26.4693  -26.7077   19.4479 O   0  0  0  0  0  0  0  0  0  0  0  0
  -31.8836  -14.9130   20.2058 O   0  0  0  0  0  0  0  0  0  0  0  0
  -21.6096   -7.0230   21.7097 O   0  0  0  0  0  0  0  0  0  0  0  0
  -30.2641  -23.1903   23.8727 O   0  0  0  0  0  0  0  0  0  1  0  0
  -18.6231   -6.8679   26.3423 F   0  0  0  0  0  0  0  0  0  0  0  0
  -22.0599   -5.0791   23.6231 F   0  0  0  0  0  0  0  0  0  0  0  0
  1  2  1  0  0  0  0
  1  5  2  0  0  0  0
  2  6  2  0  0  0  0
  3  8  2  0  0  0  0
  3 16  1  0  0  0  0
  4  9  1  0  0  0  0
  4 16  2  0  0  0  0
  5 18  1  0  0  0  0
  6 20  1  0  0  0  0
  7 10  2  0  0  0  0
  7 19  1  0  0  0  0
  8 25  1  0  0  0  0
  9 25  2  0  0  0  0
 10 26  1  0  0  0  0
 11 12  2  0  0  0  0
 11 27  1  0  0  0  0
 12 28  1  0  0  0  0
 13 21  1  0  0  0  0
 13 26  2  0  0  0  0
 14 28  2  0  0  0  0
 14 29  1  0  0  0  0
 15 23  1  0  0  0  0
 15 64  2  0  0  0  0
 16 30  1  0  0  0  0
 17 30  1  0  0  0  0
 17 32  2  0  0  0  0
 17 33  1  0  0  0  0
 18 20  2  0  0  0  0
 18 38  1  0  0  0  0
 19 21  2  0  0  0  0
 19 39  1  0  0  0  0
 20 49  1  0  0  0  0
 21 40  1  0  0  0  0
 22 24  1  0  0  0  0
 22 31  2  0  0  0  0
 22 48  1  0  0  0  0
 23 24  2  0  0  0  0
 23 60  1  0  0  0  0
 24 53  1  0  0  0  0
 25 80  1  0  0  0  0
 26 81  1  0  0  0  0
 27 29  2  0  0  0  0
 27 80  1  0  0  0  0
 28 82  1  0  0  0  0
 29 83  1  0  0  0  0
 30 65  2  0  0  0  0
 31 54  1  0  0  0  0
 31 64  1  0  0  0  0
 32 66  1  0  0  0  0
 32 69  1  0  0  0  0
 33 70  1  0  0  0  0
 33 75  2  0  0  0  0
 34 50  1  0  0  0  0
 34 71  1  0  0  0  0
 34 76  2  0  0  0  0
 35 61  1  0  0  0  0
 35 67  1  0  0  0  0
 35 77  2  0  0  0  0
 36 62  1  0  0  0  0
 36 72  1  0  0  0  0
 36 78  2  0  0  0  0
 37 68  1  0  0  0  0
 37 73  1  0  0  0  0
 37 79  2  0  0  0  0
 38 41  1  0  0  0  0
 39 50  1  0  0  0  0
 40 67  1  0  0  0  0
 41 43  1  0  0  0  0
 42 44  1  0  0  0  0
 42 46  1  0  0  0  0
 43 49  1  0  0  0  0
 44 51  1  0  0  0  0
 45 48  1  0  0  0  0
 45 52  1  0  0  0  0
 46 68  1  0  0  0  0
 47 51  1  0  0  0  0
 47 68  1  0  0  0  0
 48 52  1  0  0  0  0
 49 71  1  0  0  0  0
 50 67  1  0  0  0  0
 51 66  1  0  0  0  0
 52 73  1  0  0  0  0
 55 62  1  0  0  0  0
 56 63  1  0  0  0  0
 57 63  1  0  0  0  0
 58 63  1  0  0  0  0
 59 74  1  0  0  0  0
 60 81  1  0  0  0  0
 61 63  1  0  0  0  0
 61 72  1  0  0  0  0
 62 74  1  0  0  0  0
 65 66  1  0  0  0  0
M  CHG  1  74   1
M  ISO  4  37 100  60 101  73 100  81 101
M  END
> <Batch ID>
0180

> <Smiles>
CNC(C)C(=O)NC(C(=O)N1Cc2cc([101O:1][101CH2:1]c3cnc(C)c(C4CC4[100NH:0][100C:0](=O)N4CCCC(n5nc(-c6ccc(Oc7ccc(F)cc7F)cc6)c(C(N)=O)c5N)C4)c3C)ccc2CC1C(=O)NC1CCCc2ccccc21)C(C)(C)C

> <Shape>
0.262

> <Color>
0.196

> <Negative vol penalty>
0.000

$$$$

  -OEChem-04052323003D

 79 88  0     1  0  0  0  0  0999 V2000
  -26.9967  -34.4685   25.5468 C   0  0  0  0  0  0  0  0  0  0  0  0
  -27.3671  -33.2545   24.9771 C   0  0  0  0  0  0  0  0  0  0  0  0
  -26.8175   -9.9260   20.5904 C   0  0  0  0  0  0  0  0  0  0  0  0
  -25.6679  -11.7194   19.4505 C   0  0  0  0  0  0  0  0  0  0  0  0
  -25.6703  -34.6880   25.9161 C   0  0  0  0  0  0  0  0  0  0  0  0
  -26.4114  -32.2589   24.7775 C   0  0  0  0  0  0  0  0  0  0  0  0
  -26.7778  -30.1022   20.2103 C   0  0  0  0  0  0  0  0  0  0  0  0
  -25.6014   -9.2718   20.7876 C   0  0  0  0  0  0  0  0  0  0  0  0
  -24.4519  -11.0652   19.6476 C   0  0  0  0  0  0  0  0  0  0  0  0
  -27.7881  -29.1583   20.0311 C   0  0  0  0  0  0  0  0  0  0  0  0
  -22.9570   -9.5080   22.8794 C   0  0  0  0  0  0  0  0  0  0  0  0
  -22.7063   -8.9749   24.1437 C   0  0  0  0  0  0  0  0  0  0  0  0
  -26.1779  -27.3870   20.3298 C   0  0  0  0  0  0  0  0  0  0  0  0
  -22.5057   -6.7709   23.1746 C   0  0  0  0  0  0  0  0  0  0  0  0
  -26.8507  -11.1498   19.9219 C   0  0  0  0  0  0  0  0  0  0  0  0
  -29.2281  -11.3441   19.0174 C   0  0  0  0  0  0  0  0  0  0  0  0
  -24.6960  -33.6981   25.7120 C   0  0  0  0  0  0  0  0  0  0  0  0
  -25.4597  -29.6949   20.4619 C   0  0  0  0  0  0  0  0  0  0  0  0
  -25.0710  -32.4649   25.1457 C   0  0  0  0  0  0  0  0  0  0  0  0
  -25.1523  -28.3277   20.5093 C   0  0  0  0  0  0  0  0  0  0  0  0
  -24.4186   -9.8414   20.3162 C   0  0  0  0  0  0  0  0  0  0  0  0
  -27.4888  -27.8005   20.0937 C   0  0  0  0  0  0  0  0  0  0  0  0
  -22.9820   -8.6725   21.7626 C   0  0  0  0  0  0  0  0  0  0  0  0
  -22.4807   -7.6064   24.2914 C   0  0  0  0  0  0  0  0  0  0  0  0
  -22.7564   -7.3040   21.9103 C   0  0  0  0  0  0  0  0  0  0  0  0
  -28.1065  -11.8263   19.7184 C   0  0  0  0  0  0  0  0  0  0  0  0
  -30.1530  -12.3550   19.1123 C   0  0  0  0  0  0  0  0  0  0  0  0
  -29.4169  -10.0942   18.3408 C   0  0  0  0  0  0  0  0  0  0  0  0
  -23.4139  -30.0768   22.8645 C   0  0  0  0  0  0  0  0  0  0  0  0
  -21.3521  -28.6215   20.8265 C   0  0  0  0  0  0  0  0  0  0  0  0
  -20.9001  -26.5626   18.1425 C   0  0  0  0  0  0  0  0  0  0  0  0
  -29.5553  -18.1753   19.8437 C   0  0  0  0  0  0  0  0  0  0  0  0
  -23.2841  -33.9638   26.1709 C   0  0  0  0  0  0  0  0  0  0  0  0
  -24.3765  -30.7254   20.6264 C   0  0  0  0  0  0  0  0  0  0  0  0
  -23.7494  -27.8384   20.7565 C   0  0  0  0  0  0  0  0  0  0  0  0
  -22.2601  -32.9973   25.5813 C   0  0  0  0  0  0  0  0  0  0  0  0
  -31.4780  -15.9624   21.9643 C   0  0  0  0  0  0  0  0  0  0  0  0
  -22.7609  -31.5602   25.6850 C   0  0  0  0  0  0  0  0  0  0  0  0
  -30.9288  -14.5957   21.5517 C   0  0  0  0  0  0  0  0  0  0  0  0
  -27.7821  -24.4490   19.7539 C   0  0  0  0  0  0  0  0  0  0  0  0
  -29.6129  -24.7907   20.7971 C   0  0  0  0  0  0  0  0  0  0  0  0
  -30.3763  -17.0182   21.9872 C   0  0  0  0  0  0  0  0  0  0  0  0
  -29.0759  -15.7883   20.2946 C   0  0  0  0  0  0  0  0  0  0  0  0
  -30.5797  -21.8351   20.2584 C   0  0  0  0  0  0  0  0  0  0  0  0
  -28.7400  -21.2669   19.4624 C   0  0  0  0  0  0  0  0  0  0  0  0
  -24.0585  -31.3695   24.8903 C   0  0  1  0  0  0  0  0  0  0  0  0
  -23.1633  -30.2006   21.3881 C   0  0  1  0  0  0  0  0  0  0  0  0
  -30.1457  -14.6833   20.2285 C   0  0  2  0  0  0  0  0  0  0  0  0
  -30.1137  -20.5783   19.5057 C   0  0  0  0  0  0  0  0  0  0  0  0
  -28.7672  -23.5335   20.5092 C   0  0  0  0  0  0  0  0  0  0  0  0
  -28.3221  -25.6229   20.6052 C   0  0  0  0  0  0  0  0  0  1  0  0
  -19.0988  -25.5300   16.7332 C   0  0  0  0  0  0  0  0  0  0  0  0
  -20.7635  -26.6179   23.0511 C   0  0  0  0  0  0  0  0  0  0  0  0
  -19.7376  -25.1153   21.3312 C   0  0  0  0  0  0  0  0  0  0  0  0
  -18.7547  -27.3669   21.7634 C   0  0  0  0  0  0  0  0  0  0  0  0
  -21.8804  -27.9100   15.6966 C   0  0  0  0  0  0  0  0  0  0  0  0
  -20.9611  -27.1915   20.5415 C   0  0  1  0  0  0  0  0  0  0  0  0
  -20.0482  -26.7070   16.8944 C   0  0  2  0  0  0  0  0  0  0  0  0
  -20.0811  -26.5818   21.6691 C   0  0  0  0  0  0  0  0  0  0  0  0
  -28.2993  -13.0484   20.2217 N   0  0  0  0  0  0  0  0  0  0  0  0
  -29.5528  -13.3426   19.8365 N   0  0  0  0  0  0  0  0  0  0  0  0
  -22.7262  -28.8847   20.9174 N   0  0  0  0  0  0  0  0  0  0  0  0
  -29.6826  -17.0637   20.6919 N   0  0  0  0  0  0  0  0  0  0  0  0
  -31.4131  -12.4865   18.6463 N   0  0  0  0  0  0  0  0  0  0  0  0
  -28.3641   -9.1690   18.3403 N   0  0  0  0  0  0  0  0  0  0  0  0
  -23.7736  -31.2629   23.4754 N   0  0  0  0  0  0  0  0  0  0  0  0
  -20.3293  -27.1953   19.2265 N   0  0  0  0  0  0  0  0  0  0  0  0
  -30.1575  -19.3500   20.2817 N   0  0  0  0  0  0  0  0  0  0  0  0
  -29.4415  -22.5597   19.6451 N   0  3  0  0  0  0  0  0  0  0  0  0
  -20.9129  -26.7827   15.6830 N   0  3  0  0  0  0  0  0  0  0  0  0
  -30.4933   -9.7996   17.7681 O   0  0  0  0  0  0  0  0  0  0  0  0
  -23.2886  -28.9863   23.4092 O   0  0  0  0  0  0  0  0  0  0  0  0
  -20.4709  -29.4750   20.9562 O   0  0  0  0  0  0  0  0  0  0  0  0
  -21.9637  -25.9467   18.1555 O   0  0  0  0  0  0  0  0  0  0  0  0
  -28.9529  -18.1302   18.7655 O   0  0  0  0  0  0  0  0  0  0  0  0
  -23.2319   -9.2032   20.5082 O   0  0  0  0  0  0  0  0  0  0  0  0
  -28.4731  -26.8771   19.9197 O   0  0  0  0  0  0  0  0  0  1  0  0
  -22.2414   -7.0944   25.5058 F   0  0  0  0  0  0  0  0  0  0  0  0
  -22.7803   -6.4962   20.8413 F   0  0  0  0  0  0  0  0  0  0  0  0
  1  2  1  0  0  0  0
  1  5  2  0  0  0  0
  2  6  2  0  0  0  0
  3  8  2  0  0  0  0
  3 15  1  0  0  0  0
  4  9  1  0  0  0  0
  4 15  2  0  0  0  0
  5 17  1  0  0  0  0
  6 19  1  0  0  0  0
  7 10  2  0  0  0  0
  7 18  1  0  0  0  0
  8 21  1  0  0  0  0
  9 21  2  0  0  0  0
 10 22  1  0  0  0  0
 11 12  2  0  0  0  0
 11 23  1  0  0  0  0
 12 24  1  0  0  0  0
 13 20  1  0  0  0  0
 13 22  2  0  0  0  0
 14 24  2  0  0  0  0
 14 25  1  0  0  0  0
 15 26  1  0  0  0  0
 16 26  1  0  0  0  0
 16 27  2  0  0  0  0
 16 28  1  0  0  0  0
 17 19  2  0  0  0  0
 17 33  1  0  0  0  0
 18 20  2  0  0  0  0
 18 34  1  0  0  0  0
 19 46  1  0  0  0  0
 20 35  1  0  0  0  0
 21 76  1  0  0  0  0
 22 77  1  0  0  0  0
 23 25  2  0  0  0  0
 23 76  1  0  0  0  0
 24 78  1  0  0  0  0
 25 79  1  0  0  0  0
 26 60  2  0  0  0  0
 27 61  1  0  0  0  0
 27 64  1  0  0  0  0
 28 65  1  0  0  0  0
 28 71  2  0  0  0  0
 29 47  1  0  0  0  0
 29 66  1  0  0  0  0
 29 72  2  0  0  0  0
 30 57  1  0  0  0  0
 30 62  1  0  0  0  0
 30 73  2  0  0  0  0
 31 58  1  0  0  0  0
 31 67  1  0  0  0  0
 31 74  2  0  0  0  0
 32 63  1  0  0  0  0
 32 68  1  0  0  0  0
 32 75  2  0  0  0  0
 33 36  1  0  0  0  0
 34 47  1  0  0  0  0
 35 62  1  0  0  0  0
 36 38  1  0  0  0  0
 37 39  1  0  0  0  0
 37 42  1  0  0  0  0
 38 46  1  0  0  0  0
 39 48  1  0  0  0  0
 40 50  1  0  0  0  0
 40 51  1  0  0  0  0
 41 50  1  0  0  0  0
 41 51  1  0  0  0  0
 42 63  1  0  0  0  0
 43 48  1  0  0  0  0
 43 63  1  0  0  0  0
 44 49  1  0  0  0  0
 44 69  1  0  0  0  0
 45 49  1  0  0  0  0
 45 69  1  0  0  0  0
 46 66  1  0  0  0  0
 47 62  1  0  0  0  0
 48 61  1  0  0  0  0
 49 68  1  0  0  0  0
 50 69  1  0  0  0  0
 51 77  1  0  0  0  0
 52 58  1  0  0  0  0
 53 59  1  0  0  0  0
 54 59  1  0  0  0  0
 55 59  1  0  0  0  0
 56 70  1  0  0  0  0
 57 59  1  0  0  0  0
 57 67  1  0  0  0  0
 58 70  1  0  0  0  0
 60 61  1  0  0  0  0
M  CHG  2  69   1  70   1
M  ISO  4  32 100  51 101  68 100  77 101
M  END
> <Batch ID>
0180

> <Smiles>
CNC(C)C(=O)NC(C(=O)N1Cc2cc([101O:1][101CH:1]3CC(N4CC([100NH:0][100C:0](=O)N5CCCC(n6nc(-c7ccc(Oc8ccc(F)cc8F)cc7)c(C(N)=O)c6N)C5)C4)C3)ccc2CC1C(=O)NC1CCCc2ccccc21)C(C)(C)C

> <Shape>
0.334

> <Color>
0.071

> <Negative vol penalty>
0.000

$$$$

  -OEChem-04052323003D

 82 91  0     1  0  0  0  0  0999 V2000
  -24.1058   -8.6419   21.7252 C   0  0  0  0  0  0  0  0  0  0  0  0
  -25.2748   -9.3958   21.7026 C   0  0  0  0  0  0  0  0  0  0  0  0
  -20.3043  -28.2499   23.7787 C   0  0  0  0  0  0  0  0  0  0  0  0
  -20.5451  -26.8582   21.8185 C   0  0  0  0  0  0  0  0  0  0  0  0
  -22.9097   -9.1987   21.2742 C   0  0  0  0  0  0  0  0  0  0  0  0
  -25.2485  -10.7067   21.2280 C   0  0  0  0  0  0  0  0  0  0  0  0
  -28.3591  -17.0780   22.2518 C   0  0  0  0  0  0  0  0  0  0  0  0
  -18.9388  -28.3739   23.5229 C   0  0  0  0  0  0  0  0  0  0  0  0
  -19.1795  -26.9822   21.5628 C   0  0  0  0  0  0  0  0  0  0  0  0
  -29.0060  -18.0875   21.5403 C   0  0  0  0  0  0  0  0  0  0  0  0
  -16.2998  -25.6383   22.7124 C   0  0  0  0  0  0  0  0  0  0  0  0
  -15.5984  -24.4821   22.3708 C   0  0  0  0  0  0  0  0  0  0  0  0
  -26.8666  -18.9710   20.8606 C   0  0  0  0  0  0  0  0  0  0  0  0
  -14.9904  -25.4761   20.2544 C   0  0  0  0  0  0  0  0  0  0  0  0
  -29.8230  -21.4827   17.7755 C   0  0  0  0  0  0  0  0  0  0  0  0
  -21.1076  -27.4921   22.9264 C   0  0  0  0  0  0  0  0  0  0  0  0
  -23.1517  -26.3769   23.9682 C   0  0  0  0  0  0  0  0  0  0  0  0
  -22.8669  -10.5203   20.8029 C   0  0  0  0  0  0  0  0  0  0  0  0
  -26.9590  -17.0008   22.2641 C   0  0  0  0  0  0  0  0  0  0  0  0
  -24.0510  -11.2813   20.7691 C   0  0  0  0  0  0  0  0  0  0  0  0
  -26.2044  -17.9611   21.5751 C   0  0  0  0  0  0  0  0  0  0  0  0
  -18.3763  -27.7400   22.4150 C   0  0  0  0  0  0  0  0  0  0  0  0
  -28.2598  -19.0325   20.8422 C   0  0  0  0  0  0  0  0  0  0  0  0
  -16.3464  -26.7136   21.8250 C   0  0  0  0  0  0  0  0  0  0  0  0
  -14.9437  -24.4009   21.1418 C   0  0  0  0  0  0  0  0  0  0  0  0
  -15.6917  -26.6325   20.5960 C   0  0  0  0  0  0  0  0  0  0  0  0
  -22.5184  -27.3641   23.1898 C   0  0  0  0  0  0  0  0  0  0  0  0
  -30.5866  -22.4543   17.1613 C   0  0  0  0  0  0  0  0  0  0  0  0
  -28.9352  -21.9358   18.7299 C   0  0  0  0  0  0  0  0  0  0  0  0
  -24.4866  -26.6944   23.9058 C   0  0  0  0  0  0  0  0  0  0  0  0
  -29.5960  -24.0851   18.3968 C   0  0  0  0  0  0  0  0  0  0  0  0
  -22.5842  -25.2716   24.6838 C   0  0  0  0  0  0  0  0  0  0  0  0
  -24.8219  -14.8564   21.2954 C   0  0  0  0  0  0  0  0  0  0  0  0
  -22.7256  -16.8718   22.7327 C   0  0  0  0  0  0  0  0  0  0  0  0
  -22.0189  -20.0324   23.8088 C   0  0  0  0  0  0  0  0  0  0  0  0
  -28.9214  -28.2388   20.7744 C   0  0  0  0  0  0  0  0  0  0  0  0
  -21.5599  -11.0631   20.2816 C   0  0  0  0  0  0  0  0  0  0  0  0
  -26.2758  -15.9215   23.0583 C   0  0  0  0  0  0  0  0  0  0  0  0
  -24.6985  -17.9344   21.5733 C   0  0  0  0  0  0  0  0  0  0  0  0
  -21.5433  -12.5833   20.1442 C   0  0  0  0  0  0  0  0  0  0  0  0
  -26.8351  -30.8048   22.1870 C   0  0  0  0  0  0  0  0  0  0  0  0
  -22.8159  -13.0714   19.4593 C   0  0  0  0  0  0  0  0  0  0  0  0
  -25.5577  -30.0744   22.5877 C   0  0  0  0  0  0  0  0  0  0  0  0
  -27.4334  -30.2013   20.9234 C   0  0  0  0  0  0  0  0  0  0  0  0
  -28.1577  -26.1247   19.4300 C   0  0  0  0  0  0  0  0  0  0  0  0
  -30.1972  -26.1652   20.0064 C   0  0  0  0  0  0  0  0  0  0  0  0
  -26.4786  -27.9787   21.4735 C   0  0  0  0  0  0  0  0  0  0  0  0
  -24.0581  -12.7149   20.2847 C   0  0  1  0  0  0  0  0  0  0  0  0
  -29.4598  -25.6219   18.7608 C   0  0  0  0  0  0  0  0  0  0  0  0
  -24.8557  -15.6355   22.5798 C   0  0  1  0  0  0  0  0  0  0  0  0
  -25.8241  -28.5697   22.7379 C   0  0  2  0  0  0  0  0  0  0  0  0
  -31.5745  -22.0601   16.1153 C   0  0  0  0  0  0  0  0  0  0  0  0
  -20.2116  -21.3802   24.9108 C   0  0  0  0  0  0  0  0  0  0  0  0
  -21.1635  -16.9152   20.1120 C   0  0  0  0  0  0  0  0  0  0  0  0
  -19.9649  -18.9510   20.9409 C   0  0  0  0  0  0  0  0  0  0  0  0
  -19.7466  -16.7908   22.1691 C   0  0  0  0  0  0  0  0  0  0  0  0
  -23.7569  -20.6965   26.1105 C   0  0  0  0  0  0  0  0  0  0  0  0
  -28.0623  -20.9532   19.4538 C   0  0  0  0  0  0  0  0  0  1  0  0
  -21.9228  -18.0719   22.2918 C   0  0  1  0  0  0  0  0  0  0  0  0
  -21.4664  -20.5483   25.1253 C   0  0  2  0  0  0  0  0  0  0  0  0
  -20.7278  -17.6818   21.3767 C   0  0  0  0  0  0  0  0  0  0  0  0
  -23.3800  -28.2431   22.6710 N   0  0  0  0  0  0  0  0  0  0  0  0
  -30.4987  -23.7696   17.4486 N   0  0  0  0  0  0  0  0  0  0  0  0
  -28.7951  -23.2346   19.0669 N   0  0  0  0  0  0  0  0  0  0  0  0
  -24.5684  -27.8093   23.1244 N   0  0  0  0  0  0  0  0  0  0  0  0
  -24.0770  -16.8559   22.3595 N   0  0  0  0  0  0  0  0  0  0  0  0
  -27.6514  -28.7571   21.0512 N   0  0  0  0  0  0  0  0  0  0  0  0
  -29.0065  -26.9694   20.2529 N   0  0  0  0  0  0  0  0  0  0  0  0
  -25.5865  -26.1259   24.4436 N   0  0  0  0  0  0  0  0  0  0  0  0
  -21.1949  -25.0913   24.6421 N   0  0  0  0  0  0  0  0  0  0  0  0
  -24.2022  -13.6258   21.4001 N   0  0  0  0  0  0  0  0  0  0  0  0
  -21.5374  -18.7753   23.5104 N   0  0  0  0  0  0  0  0  0  0  0  0
  -22.4796  -21.3954   25.8158 N   0  3  0  0  0  0  0  0  0  0  0  0
  -23.2866  -24.4773   25.3541 O   0  0  0  0  0  0  0  0  0  0  0  0
  -25.3199  -15.3368   20.2841 O   0  0  0  0  0  0  0  0  0  0  0  0
  -22.1756  -15.9848   23.3902 O   0  0  0  0  0  0  0  0  0  0  0  0
  -22.7968  -20.6814   23.1129 O   0  0  0  0  0  0  0  0  0  0  0  0
  -29.9515  -28.9006   20.9591 O   0  0  0  0  0  0  0  0  0  0  0  0
  -17.0438  -27.8605   22.1653 O   0  0  0  0  0  0  0  0  0  0  0  0
  -28.8887  -20.0185   20.1464 O   0  0  0  0  0  0  0  0  0  1  0  0
  -14.2715  -23.2899   20.8132 F   0  0  0  0  0  0  0  0  0  0  0  0
  -15.7340  -27.6617   19.7389 F   0  0  0  0  0  0  0  0  0  0  0  0
  1  2  1  0  0  0  0
  1  5  2  0  0  0  0
  2  6  2  0  0  0  0
  3  8  2  0  0  0  0
  3 16  1  0  0  0  0
  4  9  1  0  0  0  0
  4 16  2  0  0  0  0
  5 18  1  0  0  0  0
  6 20  1  0  0  0  0
  7 10  2  0  0  0  0
  7 19  1  0  0  0  0
  8 22  1  0  0  0  0
  9 22  2  0  0  0  0
 10 23  1  0  0  0  0
 11 12  2  0  0  0  0
 11 24  1  0  0  0  0
 12 25  1  0  0  0  0
 13 21  1  0  0  0  0
 13 23  2  0  0  0  0
 14 25  2  0  0  0  0
 14 26  1  0  0  0  0
 15 28  2  0  0  0  0
 15 29  1  0  0  0  0
 16 27  1  0  0  0  0
 17 27  1  0  0  0  0
 17 30  2  0  0  0  0
 17 32  1  0  0  0  0
 18 20  2  0  0  0  0
 18 37  1  0  0  0  0
 19 21  2  0  0  0  0
 19 38  1  0  0  0  0
 20 48  1  0  0  0  0
 21 39  1  0  0  0  0
 22 79  1  0  0  0  0
 23 80  1  0  0  0  0
 24 26  2  0  0  0  0
 24 79  1  0  0  0  0
 25 81  1  0  0  0  0
 26 82  1  0  0  0  0
 27 62  2  0  0  0  0
 28 52  1  0  0  0  0
 28 63  1  0  0  0  0
 29 58  1  0  0  0  0
 29 64  2  0  0  0  0
 30 65  1  0  0  0  0
 30 69  1  0  0  0  0
 31 49  1  0  0  0  0
 31 63  2  0  0  0  0
 31 64  1  0  0  0  0
 32 70  1  0  0  0  0
 32 74  2  0  0  0  0
 33 50  1  0  0  0  0
 33 71  1  0  0  0  0
 33 75  2  0  0  0  0
 34 59  1  0  0  0  0
 34 66  1  0  0  0  0
 34 76  2  0  0  0  0
 35 60  1  0  0  0  0
 35 72  1  0  0  0  0
 35 77  2  0  0  0  0
 36 67  1  0  0  0  0
 36 68  1  0  0  0  0
 36 78  2  0  0  0  0
 37 40  1  0  0  0  0
 38 50  1  0  0  0  0
 39 66  1  0  0  0  0
 40 42  1  0  0  0  0
 41 43  1  0  0  0  0
 41 44  1  0  0  0  0
 42 48  1  0  0  0  0
 43 51  1  0  0  0  0
 44 67  1  0  0  0  0
 45 49  1  0  0  0  0
 45 68  1  0  0  0  0
 46 49  1  0  0  0  0
 46 68  1  0  0  0  0
 47 51  1  0  0  0  0
 47 67  1  0  0  0  0
 48 71  1  0  0  0  0
 50 66  1  0  0  0  0
 51 65  1  0  0  0  0
 53 60  1  0  0  0  0
 54 61  1  0  0  0  0
 55 61  1  0  0  0  0
 56 61  1  0  0  0  0
 57 73  1  0  0  0  0
 58 80  1  0  0  0  0
 59 61  1  0  0  0  0
 59 72  1  0  0  0  0
 60 73  1  0  0  0  0
 62 65  1  0  0  0  0
M  CHG  1  73   1
M  ISO  4  36 100  58 101  68 100  80 101
M  END
> <Batch ID>
0180

> <Smiles>
CNC(C)C(=O)NC(C(=O)N1Cc2cc([101O:1][101CH2:1]c3cc(C)nc(C4C[100N:0]([100C:0](=O)N5CCCC(n6nc(-c7ccc(Oc8ccc(F)cc8F)cc7)c(C(N)=O)c6N)C5)C4)n3)ccc2CC1C(=O)NC1CCCc2ccccc21)C(C)(C)C

> <Shape>
0.226

> <Color>
0.079

> <Negative vol penalty>
0.000

$$$$

  -OEChem-04052323003D

 83 92  0     1  0  0  0  0  0999 V2000
  -30.4224  -36.2820   21.2620 C   0  0  0  0  0  0  0  0  0  0  0  0
  -30.3905  -34.9716   20.7958 C   0  0  0  0  0  0  0  0  0  0  0  0
  -25.3587   -7.4885   21.8178 C   0  0  0  0  0  0  0  0  0  0  0  0
  -24.4834   -7.6217   19.5699 C   0  0  0  0  0  0  0  0  0  0  0  0
  -29.7404  -36.6221   22.4295 C   0  0  0  0  0  0  0  0  0  0  0  0
  -29.6776  -34.0002   21.4977 C   0  0  0  0  0  0  0  0  0  0  0  0
  -26.6133  -29.2549   19.1317 C   0  0  0  0  0  0  0  0  0  0  0  0
  -24.5285   -6.3979   22.0765 C   0  0  0  0  0  0  0  0  0  0  0  0
  -23.6531   -6.5311   19.8286 C   0  0  0  0  0  0  0  0  0  0  0  0
  -26.9446  -27.9101   18.9719 C   0  0  0  0  0  0  0  0  0  0  0  0
  -21.2769   -5.8673   22.8313 C   0  0  0  0  0  0  0  0  0  0  0  0
  -20.5807   -5.8560   24.0399 C   0  0  0  0  0  0  0  0  0  0  0  0
  -25.7993  -27.3897   21.0302 C   0  0  0  0  0  0  0  0  0  0  0  0
  -21.6801   -3.7941   24.6540 C   0  0  0  0  0  0  0  0  0  0  0  0
  -26.8527  -22.8539   18.4896 C   0  0  0  0  0  0  0  0  0  0  0  0
  -25.3362   -8.1004   20.5645 C   0  0  0  0  0  0  0  0  0  0  0  0
  -27.5040   -9.1957   19.7843 C   0  0  0  0  0  0  0  0  0  0  0  0
  -29.0108  -35.6565   23.1408 C   0  0  0  0  0  0  0  0  0  0  0  0
  -25.8806  -29.6796   20.2494 C   0  0  0  0  0  0  0  0  0  0  0  0
  -28.9864  -34.3274   22.6766 C   0  0  0  0  0  0  0  0  0  0  0  0
  -25.4578  -28.7400   21.2006 C   0  0  0  0  0  0  0  0  0  0  0  0
  -23.6757   -5.9192   21.0819 C   0  0  0  0  0  0  0  0  0  0  0  0
  -26.5400  -26.9777   19.9227 C   0  0  0  0  0  0  0  0  0  0  0  0
  -22.1746   -4.8419   22.5339 C   0  0  0  0  0  0  0  0  0  0  0  0
  -20.7823   -4.8195   24.9513 C   0  0  0  0  0  0  0  0  0  0  0  0
  -22.3762   -3.8054   23.4453 C   0  0  0  0  0  0  0  0  0  0  0  0
  -26.1932   -9.2274   20.2968 C   0  0  0  0  0  0  0  0  0  0  0  0
  -27.8331  -23.8626   18.5474 C   0  0  0  0  0  0  0  0  0  0  0  0
  -27.5678  -21.6819   18.4509 C   0  0  0  0  0  0  0  0  0  0  0  0
  -27.8779  -10.5156   19.7161 C   0  0  0  0  0  0  0  0  0  0  0  0
  -28.3113   -8.0736   19.4039 C   0  0  0  0  0  0  0  0  0  0  0  0
  -26.4366  -31.6532   22.6783 C   0  0  0  0  0  0  0  0  0  0  0  0
  -23.3222  -31.0603   23.3649 C   0  0  0  0  0  0  0  0  0  0  0  0
  -20.6396  -28.9701   23.0794 C   0  0  0  0  0  0  0  0  0  0  0  0
  -24.5414  -15.4507   19.2503 C   0  0  0  0  0  0  0  0  0  0  0  0
  -28.3285  -36.0614   24.4235 C   0  0  0  0  0  0  0  0  0  0  0  0
  -25.5084  -31.1298   20.3935 C   0  0  0  0  0  0  0  0  0  0  0  0
  -24.6520  -29.1415   22.4080 C   0  0  0  0  0  0  0  0  0  0  0  0
  -27.2879  -35.0534   24.9044 C   0  0  0  0  0  0  0  0  0  0  0  0
  -27.0832  -14.7483   21.7978 C   0  0  0  0  0  0  0  0  0  0  0  0
  -27.8470  -33.6358   24.8375 C   0  0  0  0  0  0  0  0  0  0  0  0
  -27.2436  -13.2337   21.6583 C   0  0  0  0  0  0  0  0  0  0  0  0
  -25.6427  -15.1706   21.5355 C   0  0  0  0  0  0  0  0  0  0  0  0
  -24.3491  -17.7710   18.2029 C   0  0  0  0  0  0  0  0  0  0  0  0
  -25.9818  -17.6152   19.5575 C   0  0  0  0  0  0  0  0  0  0  0  0
  -25.2638  -13.2328   20.0650 C   0  0  0  0  0  0  0  0  0  0  0  0
  -28.2036  -33.2508   23.3966 C   0  0  1  0  0  0  0  0  0  0  0  0
  -25.2002  -31.5273   21.8338 C   0  0  1  0  0  0  0  0  0  0  0  0
  -25.7531  -18.3978   18.2505 C   0  0  0  0  0  0  0  0  0  0  0  0
  -26.7020  -12.7377   20.3050 C   0  0  2  0  0  0  0  0  0  0  0  0
  -18.2409  -28.7368   23.7789 C   0  0  0  0  0  0  0  0  0  0  0  0
  -24.2200  -30.2800   26.1747 C   0  0  0  0  0  0  0  0  0  0  0  0
  -21.9955  -29.1796   26.5046 C   0  0  0  0  0  0  0  0  0  0  0  0
  -22.1206  -31.6362   26.0893 C   0  0  0  0  0  0  0  0  0  0  0  0
  -30.0323  -21.1707   18.4620 C   0  0  0  0  0  0  0  0  0  0  0  0
  -19.7015  -28.9557   20.2725 C   0  0  0  0  0  0  0  0  0  0  0  0
  -27.6198  -25.3184   18.6049 C   0  0  0  0  0  0  0  0  0  1  0  0
  -25.8152  -19.9090   18.3453 C   0  0  0  0  0  0  0  0  0  0  0  0
  -22.5864  -30.0329   24.1907 C   0  0  1  0  0  0  0  0  0  0  0  0
  -19.1930  -29.2336   22.7021 C   0  0  2  0  0  0  0  0  0  0  0  0
  -22.7474  -30.2746   25.7182 C   0  0  0  0  0  0  0  0  0  0  0  0
  -25.7634  -10.4689   20.5373 N   0  0  0  0  0  0  0  0  0  0  0  0
  -29.0762  -23.3740   18.5459 N   0  0  0  0  0  0  0  0  0  0  0  0
  -26.8101  -11.2297   20.1743 N   0  0  0  0  0  0  0  0  0  0  0  0
  -28.8818  -22.0456   18.4868 N   0  0  0  0  0  0  0  0  0  0  0  0
  -24.3184  -30.5720   22.5075 N   0  0  0  0  0  0  0  0  0  0  0  0
  -25.1861  -14.6884   20.2282 N   0  0  0  0  0  0  0  0  0  0  0  0
  -24.8566  -16.7856   19.1538 N   0  0  0  0  0  0  0  0  0  0  0  0
  -29.0126  -11.1234   19.3094 N   0  0  0  0  0  0  0  0  0  0  0  0
  -27.7726   -6.7868   19.5382 N   0  0  0  0  0  0  0  0  0  0  0  0
  -27.1743  -20.3456   18.3867 N   0  0  0  0  0  0  0  0  0  0  0  0
  -27.0090  -32.9107   22.6539 N   0  0  0  0  0  0  0  0  0  0  0  0
  -21.2037  -30.0497   23.7257 N   0  0  0  0  0  0  0  0  0  0  0  0
  -18.8574  -28.5448   21.4239 N   0  3  0  0  0  0  0  0  0  0  0  0
  -29.4820   -8.2073   18.9735 O   0  0  0  0  0  0  0  0  0  0  0  0
  -26.8405  -30.6818   23.3067 O   0  0  0  0  0  0  0  0  0  0  0  0
  -23.0193  -32.2513   23.4712 O   0  0  0  0  0  0  0  0  0  0  0  0
  -21.2109  -27.9110   22.8295 O   0  0  0  0  0  0  0  0  0  0  0  0
  -23.7290  -14.9486   18.4621 O   0  0  0  0  0  0  0  0  0  0  0  0
  -22.8656   -4.8549   21.3339 O   0  0  0  0  0  0  0  0  0  0  0  0
  -26.8641  -25.6583   19.7688 O   0  0  0  0  0  0  0  0  0  1  0  0
  -20.1149   -4.8096   26.1126 F   0  0  0  0  0  0  0  0  0  0  0  0
  -23.2383   -2.8182   23.1657 F   0  0  0  0  0  0  0  0  0  0  0  0
  1  2  1  0  0  0  0
  1  5  2  0  0  0  0
  2  6  2  0  0  0  0
  3  8  2  0  0  0  0
  3 16  1  0  0  0  0
  4  9  1  0  0  0  0
  4 16  2  0  0  0  0
  5 18  1  0  0  0  0
  6 20  1  0  0  0  0
  7 10  2  0  0  0  0
  7 19  1  0  0  0  0
  8 22  1  0  0  0  0
  9 22  2  0  0  0  0
 10 23  1  0  0  0  0
 11 12  2  0  0  0  0
 11 24  1  0  0  0  0
 12 25  1  0  0  0  0
 13 21  1  0  0  0  0
 13 23  2  0  0  0  0
 14 25  2  0  0  0  0
 14 26  1  0  0  0  0
 15 28  1  0  0  0  0
 15 29  2  0  0  0  0
 16 27  1  0  0  0  0
 17 27  1  0  0  0  0
 17 30  2  0  0  0  0
 17 31  1  0  0  0  0
 18 20  2  0  0  0  0
 18 36  1  0  0  0  0
 19 21  2  0  0  0  0
 19 37  1  0  0  0  0
 20 47  1  0  0  0  0
 21 38  1  0  0  0  0
 22 80  1  0  0  0  0
 23 81  1  0  0  0  0
 24 26  2  0  0  0  0
 24 80  1  0  0  0  0
 25 82  1  0  0  0  0
 26 83  1  0  0  0  0
 27 62  2  0  0  0  0
 28 57  1  0  0  0  0
 28 63  2  0  0  0  0
 29 65  1  0  0  0  0
 29 71  1  0  0  0  0
 30 64  1  0  0  0  0
 30 69  1  0  0  0  0
 31 70  1  0  0  0  0
 31 75  2  0  0  0  0
 32 48  1  0  0  0  0
 32 72  1  0  0  0  0
 32 76  2  0  0  0  0
 33 59  1  0  0  0  0
 33 66  1  0  0  0  0
 33 77  2  0  0  0  0
 34 60  1  0  0  0  0
 34 73  1  0  0  0  0
 34 78  2  0  0  0  0
 35 67  1  0  0  0  0
 35 68  1  0  0  0  0
 35 79  2  0  0  0  0
 36 39  1  0  0  0  0
 37 48  1  0  0  0  0
 38 66  1  0  0  0  0
 39 41  1  0  0  0  0
 40 42  1  0  0  0  0
 40 43  1  0  0  0  0
 41 47  1  0  0  0  0
 42 50  1  0  0  0  0
 43 67  1  0  0  0  0
 44 49  1  0  0  0  0
 44 68  1  0  0  0  0
 45 49  1  0  0  0  0
 45 68  1  0  0  0  0
 46 50  1  0  0  0  0
 46 67  1  0  0  0  0
 47 72  1  0  0  0  0
 48 66  1  0  0  0  0
 49 58  1  0  0  0  0
 50 64  1  0  0  0  0
 51 60  1  0  0  0  0
 52 61  1  0  0  0  0
 53 61  1  0  0  0  0
 54 61  1  0  0  0  0
 55 65  1  0  0  0  0
 56 74  1  0  0  0  0
 57 81  1  0  0  0  0
 58 71  1  0  0  0  0
 59 61  1  0  0  0  0
 59 73  1  0  0  0  0
 60 74  1  0  0  0  0
 62 64  1  0  0  0  0
 63 65  1  0  0  0  0
M  CHG  1  74   1
M  ISO  4  35 100  57 101  68 100  81 101
M  END
> <Batch ID>
0180

> <Smiles>
CNC(C)C(=O)NC(C(=O)N1Cc2cc([101O:1][101CH2:1]c3cc(NCC4C[100N:0]([100C:0](=O)N5CCCC(n6nc(-c7ccc(Oc8ccc(F)cc8F)cc7)c(C(N)=O)c6N)C5)C4)n(C)n3)ccc2CC1C(=O)NC1CCCc2ccccc21)C(C)(C)C

> <Shape>
0.234

> <Color>
0.085

> <Negative vol penalty>
0.000

$$$$

  -OEChem-04052323003D

 83 92  0     1  0  0  0  0  0999 V2000
  -25.8688  -28.7080    9.3662 C   0  0  0  0  0  0  0  0  0  0  0  0
  -26.3911  -27.6511   10.1048 C   0  0  0  0  0  0  0  0  0  0  0  0
  -23.0786   -9.9282   19.9265 C   0  0  0  0  0  0  0  0  0  0  0  0
  -23.8610   -9.9015   22.2122 C   0  0  0  0  0  0  0  0  0  0  0  0
  -25.4361  -29.8637   10.0150 C   0  0  0  0  0  0  0  0  0  0  0  0
  -26.4820  -27.7498   11.4928 C   0  0  0  0  0  0  0  0  0  0  0  0
  -25.7785  -23.2249   15.5593 C   0  0  0  0  0  0  0  0  0  0  0  0
  -22.3380   -8.7708   20.1665 C   0  0  0  0  0  0  0  0  0  0  0  0
  -23.1204   -8.7441   22.4522 C   0  0  0  0  0  0  0  0  0  0  0  0
  -26.6952  -22.4300   16.2459 C   0  0  0  0  0  0  0  0  0  0  0  0
  -19.8989   -7.9347   23.0744 C   0  0  0  0  0  0  0  0  0  0  0  0
  -19.1535   -7.8766   24.2519 C   0  0  0  0  0  0  0  0  0  0  0  0
  -26.5505  -23.9125   18.1433 C   0  0  0  0  0  0  0  0  0  0  0  0
  -20.4034   -5.9294   24.9470 C   0  0  0  0  0  0  0  0  0  0  0  0
  -23.8402  -10.4935   20.9494 C   0  0  0  0  0  0  0  0  0  0  0  0
  -24.1791  -13.0204   20.8638 C   0  0  0  0  0  0  0  0  0  0  0  0
  -25.5129  -29.9728   11.4125 C   0  0  0  0  0  0  0  0  0  0  0  0
  -25.2483  -24.3776   16.1564 C   0  0  0  0  0  0  0  0  0  0  0  0
  -26.0513  -28.9086   12.1608 C   0  0  0  0  0  0  0  0  0  0  0  0
  -25.6253  -24.7190   17.4631 C   0  0  0  0  0  0  0  0  0  0  0  0
  -22.3589   -8.1788   21.4293 C   0  0  0  0  0  0  0  0  0  0  0  0
  -27.0835  -22.7753   17.5371 C   0  0  0  0  0  0  0  0  0  0  0  0
  -20.8964   -6.9901   22.8331 C   0  0  0  0  0  0  0  0  0  0  0  0
  -19.4058   -6.8740   25.1882 C   0  0  0  0  0  0  0  0  0  0  0  0
  -21.1487   -5.9875   23.7694 C   0  0  0  0  0  0  0  0  0  0  0  0
  -24.6059  -11.6887   20.7020 C   0  0  0  0  0  0  0  0  0  0  0  0
  -31.3869  -19.3615   19.2982 C   0  0  0  0  0  0  0  0  0  0  0  0
  -30.1801  -20.0362   19.2526 C   0  0  0  0  0  0  0  0  0  0  0  0
  -30.5973  -18.0493   20.9609 C   0  0  0  0  0  0  0  0  0  0  0  0
  -29.3881  -18.7283   20.9200 C   0  0  0  0  0  0  0  0  0  0  0  0
  -25.2672  -13.7762   20.5011 C   0  0  0  0  0  0  0  0  0  0  0  0
  -22.9125  -13.5289   21.3029 C   0  0  0  0  0  0  0  0  0  0  0  0
  -25.3231  -27.4851   15.4919 C   0  0  0  0  0  0  0  0  0  0  0  0
  -23.2462  -27.6693   17.9769 C   0  0  0  0  0  0  0  0  0  0  0  0
  -22.0372  -26.2825   20.8512 C   0  0  0  0  0  0  0  0  0  0  0  0
  -30.7518  -14.7967   20.6508 C   0  0  0  0  0  0  0  0  0  0  0  0
  -25.0766  -31.2606   12.0652 C   0  0  0  0  0  0  0  0  0  0  0  0
  -24.2402  -25.2098   15.4125 C   0  0  0  0  0  0  0  0  0  0  0  0
  -25.0699  -25.9352   18.1566 C   0  0  0  0  0  0  0  0  0  0  0  0
  -32.3699  -19.9337   18.3227 C   0  0  0  0  0  0  0  0  0  0  0  0
  -24.8604  -31.1373   13.5713 C   0  0  0  0  0  0  0  0  0  0  0  0
  -31.4255  -20.7016   17.3829 C   0  0  0  0  0  0  0  0  0  0  0  0
  -29.5924  -12.4473   18.2399 C   0  0  0  0  0  0  0  0  0  0  0  0
  -26.0252  -30.3951   14.2188 C   0  0  0  0  0  0  0  0  0  0  0  0
  -28.1594  -12.1460   18.6825 C   0  0  0  0  0  0  0  0  0  0  0  0
  -30.5211  -12.6509   19.4349 C   0  0  0  0  0  0  0  0  0  0  0  0
  -28.6326  -13.3595   20.8509 C   0  0  0  0  0  0  0  0  0  0  0  0
  -26.1433  -28.9681   13.6702 C   0  0  1  0  0  0  0  0  0  0  0  0
  -30.2214  -21.1503   18.2414 C   0  0  1  0  0  0  0  0  0  0  0  0
  -24.1552  -26.6444   15.9244 C   0  0  1  0  0  0  0  0  0  0  0  0
  -27.6470  -13.2018   19.6804 C   0  0  2  0  0  0  0  0  0  0  0  0
  -20.3676  -26.6834   22.6812 C   0  0  0  0  0  0  0  0  0  0  0  0
  -25.1043  -29.7501   19.2129 C   0  0  0  0  0  0  0  0  0  0  0  0
  -23.9247  -29.4060   21.3942 C   0  0  0  0  0  0  0  0  0  0  0  0
  -22.6674  -30.2724   19.4216 C   0  0  0  0  0  0  0  0  0  0  0  0
  -20.5521  -23.8075   20.1970 C   0  0  0  0  0  0  0  0  0  0  0  0
  -30.8284  -16.9286   21.9191 C   0  0  0  0  0  0  0  0  0  0  0  0
  -28.9469  -21.3015   17.4290 C   0  0  0  0  0  0  0  0  0  1  0  0
  -23.3788  -27.8468   19.4701 C   0  0  1  0  0  0  0  0  0  0  0  0
  -20.6184  -26.0326   21.3298 C   0  0  2  0  0  0  0  0  0  0  0  0
  -23.7809  -29.2969   19.8612 C   0  0  0  0  0  0  0  0  0  0  0  0
  -25.8666  -11.6002   20.2699 N   0  0  0  0  0  0  0  0  0  0  0  0
  -31.6329  -18.3568   20.1491 N   0  0  0  0  0  0  0  0  0  0  0  0
  -29.1539  -19.7480   20.0646 N   0  0  0  0  0  0  0  0  0  0  0  0
  -26.2414  -12.8859   20.1571 N   0  0  0  0  0  0  0  0  0  0  0  0
  -24.0921  -26.7205   17.3853 N   0  0  0  0  0  0  0  0  0  0  0  0
  -29.9786  -13.6656   20.3415 N   0  0  0  0  0  0  0  0  0  0  0  0
  -28.3583  -18.3433   21.8099 N   0  0  0  0  0  0  0  0  0  0  0  0
  -25.4760  -15.1087   20.4460 N   0  0  0  0  0  0  0  0  0  0  0  0
  -21.9046  -12.6139   21.6364 N   0  0  0  0  0  0  0  0  0  0  0  0
  -25.1452  -28.1107   14.2727 N   0  0  0  0  0  0  0  0  0  0  0  0
  -22.1158  -27.4005   20.0480 N   0  0  0  0  0  0  0  0  0  0  0  0
  -30.1604  -15.7123   21.5125 N   0  0  0  0  0  0  0  0  0  0  0  0
  -20.3652  -24.5696   21.4585 N   0  3  0  0  0  0  0  0  0  0  0  0
  -22.6760  -14.7583   21.3810 O   0  0  0  0  0  0  0  0  0  0  0  0
  -26.3118  -27.5618   16.2119 O   0  0  0  0  0  0  0  0  0  0  0  0
  -22.4174  -28.3425   17.3591 O   0  0  0  0  0  0  0  0  0  0  0  0
  -22.9819  -25.5604   21.1620 O   0  0  0  0  0  0  0  0  0  0  0  0
  -31.8831  -14.9799   20.1887 O   0  0  0  0  0  0  0  0  0  0  0  0
  -21.6361   -7.0496   21.6639 O   0  0  0  0  0  0  0  0  0  0  0  0
  -27.9786  -22.0014   18.2093 O   0  0  0  0  0  0  0  0  0  1  0  0
  -18.6910   -6.8193   26.3197 F   0  0  0  0  0  0  0  0  0  0  0  0
  -22.1066   -5.0779   23.5437 F   0  0  0  0  0  0  0  0  0  0  0  0
  1  2  1  0  0  0  0
  1  5  2  0  0  0  0
  2  6  2  0  0  0  0
  3  8  2  0  0  0  0
  3 15  1  0  0  0  0
  4  9  1  0  0  0  0
  4 15  2  0  0  0  0
  5 17  1  0  0  0  0
  6 19  1  0  0  0  0
  7 10  2  0  0  0  0
  7 18  1  0  0  0  0
  8 21  1  0  0  0  0
  9 21  2  0  0  0  0
 10 22  1  0  0  0  0
 11 12  2  0  0  0  0
 11 23  1  0  0  0  0
 12 24  1  0  0  0  0
 13 20  1  0  0  0  0
 13 22  2  0  0  0  0
 14 24  2  0  0  0  0
 14 25  1  0  0  0  0
 15 26  1  0  0  0  0
 16 26  1  0  0  0  0
 16 31  2  0  0  0  0
 16 32  1  0  0  0  0
 17 19  2  0  0  0  0
 17 37  1  0  0  0  0
 18 20  2  0  0  0  0
 18 38  1  0  0  0  0
 19 48  1  0  0  0  0
 20 39  1  0  0  0  0
 21 80  1  0  0  0  0
 22 81  1  0  0  0  0
 23 25  2  0  0  0  0
 23 80  1  0  0  0  0
 24 82  1  0  0  0  0
 25 83  1  0  0  0  0
 26 62  2  0  0  0  0
 27 28  2  0  0  0  0
 27 40  1  0  0  0  0
 27 63  1  0  0  0  0
 28 49  1  0  0  0  0
 28 64  1  0  0  0  0
 29 30  1  0  0  0  0
 29 57  1  0  0  0  0
 29 63  2  0  0  0  0
 30 64  2  0  0  0  0
 30 68  1  0  0  0  0
 31 65  1  0  0  0  0
 31 69  1  0  0  0  0
 32 70  1  0  0  0  0
 32 75  2  0  0  0  0
 33 50  1  0  0  0  0
 33 71  1  0  0  0  0
 33 76  2  0  0  0  0
 34 59  1  0  0  0  0
 34 66  1  0  0  0  0
 34 77  2  0  0  0  0
 35 60  1  0  0  0  0
 35 72  1  0  0  0  0
 35 78  2  0  0  0  0
 36 67  1  0  0  0  0
 36 73  1  0  0  0  0
 36 79  2  0  0  0  0
 37 41  1  0  0  0  0
 38 50  1  0  0  0  0
 39 66  1  0  0  0  0
 40 42  1  0  0  0  0
 41 44  1  0  0  0  0
 42 49  1  0  0  0  0
 43 45  1  0  0  0  0
 43 46  1  0  0  0  0
 44 48  1  0  0  0  0
 45 51  1  0  0  0  0
 46 67  1  0  0  0  0
 47 51  1  0  0  0  0
 47 67  1  0  0  0  0
 48 71  1  0  0  0  0
 49 58  1  0  0  0  0
 50 66  1  0  0  0  0
 51 65  1  0  0  0  0
 52 60  1  0  0  0  0
 53 61  1  0  0  0  0
 54 61  1  0  0  0  0
 55 61  1  0  0  0  0
 56 74  1  0  0  0  0
 57 73  1  0  0  0  0
 58 81  1  0  0  0  0
 59 61  1  0  0  0  0
 59 72  1  0  0  0  0
 60 74  1  0  0  0  0
 62 65  1  0  0  0  0
M  CHG  1  74   1
M  ISO  4  36 100  58 101  73 100  81 101
M  END
> <Batch ID>
0180

> <Smiles>
CNC(C)C(=O)NC(C(=O)N1Cc2cc([101O:1][101CH2:1]C3CCc4nc(C[100NH:0][100C:0](=O)N5CCCC(n6nc(-c7ccc(Oc8ccc(F)cc8F)cc7)c(C(N)=O)c6N)C5)c(N)nc43)ccc2CC1C(=O)NC1CCCc2ccccc21)C(C)(C)C

> <Shape>
0.249

> <Color>
0.199

> <Negative vol penalty>
0.000

$$$$

  -OEChem-04052323003D

 85 94  0     1  0  0  0  0  0999 V2000
  -22.7392  -24.2264   21.3764 C   0  0  0  0  0  0  0  0  0  0  0  0
  -23.8016  -23.3292   21.3340 C   0  0  0  0  0  0  0  0  0  0  0  0
  -24.3048  -29.1150   22.1204 C   0  0  0  0  0  0  0  0  0  0  0  0
  -25.6361  -30.9437   21.2714 C   0  0  0  0  0  0  0  0  0  0  0  0
  -21.5750  -23.8944   22.0679 C   0  0  0  0  0  0  0  0  0  0  0  0
  -23.7006  -22.0997   21.9842 C   0  0  0  0  0  0  0  0  0  0  0  0
  -25.3839  -18.2577   19.1467 C   0  0  0  0  0  0  0  0  0  0  0  0
  -23.5908  -30.0065   22.9211 C   0  0  0  0  0  0  0  0  0  0  0  0
  -24.9221  -31.8352   22.0721 C   0  0  0  0  0  0  0  0  0  0  0  0
  -26.7650  -18.0892   19.0579 C   0  0  0  0  0  0  0  0  0  0  0  0
  -24.8778  -32.7832   25.3172 C   0  0  0  0  0  0  0  0  0  0  0  0
  -25.6030  -33.7382   26.0296 C   0  0  0  0  0  0  0  0  0  0  0  0
  -26.6510  -16.3342   20.7090 C   0  0  0  0  0  0  0  0  0  0  0  0
  -24.4179  -35.4991   24.8756 C   0  0  0  0  0  0  0  0  0  0  0  0
  -33.4561  -15.8915   20.0386 C   0  0  0  0  0  0  0  0  0  0  0  0
  -25.3275  -29.5836   21.2956 C   0  0  0  0  0  0  0  0  0  0  0  0
  -25.7619  -28.2728   19.1507 C   0  0  0  0  0  0  0  0  0  0  0  0
  -21.4561  -22.6563   22.7187 C   0  0  0  0  0  0  0  0  0  0  0  0
  -24.6261  -17.4719   20.0269 C   0  0  0  0  0  0  0  0  0  0  0  0
  -22.5342  -21.7514   22.6862 C   0  0  0  0  0  0  0  0  0  0  0  0
  -25.2601  -16.4930   20.8053 C   0  0  0  0  0  0  0  0  0  0  0  0
  -23.8994  -31.3666   22.8970 C   0  0  0  0  0  0  0  0  0  0  0  0
  -27.3992  -17.1293   19.8412 C   0  0  0  0  0  0  0  0  0  0  0  0
  -23.9226  -33.1861   24.3839 C   0  0  0  0  0  0  0  0  0  0  0  0
  -25.3731  -35.0961   25.8088 C   0  0  0  0  0  0  0  0  0  0  0  0
  -23.6926  -34.5441   24.1631 C   0  0  0  0  0  0  0  0  0  0  0  0
  -26.0657  -28.6631   20.4687 C   0  0  0  0  0  0  0  0  0  0  0  0
  -32.6801  -14.7833   19.7795 C   0  0  0  0  0  0  0  0  0  0  0  0
  -30.8108  -15.9484   20.3946 C   0  0  0  0  0  0  0  0  0  0  0  0
  -31.5870  -17.0564   20.6544 C   0  0  0  0  0  0  0  0  0  0  0  0
  -26.7602  -27.3912   18.8149 C   0  0  0  0  0  0  0  0  0  0  0  0
  -24.6745  -28.6714   18.3055 C   0  0  0  0  0  0  0  0  0  0  0  0
  -22.7920  -18.0678   22.5537 C   0  0  0  0  0  0  0  0  0  0  0  0
  -22.1423  -14.8968   22.3415 C   0  0  0  0  0  0  0  0  0  0  0  0
  -23.1216  -11.8031   21.2846 C   0  0  0  0  0  0  0  0  0  0  0  0
  -29.9876  -23.2203   19.8117 C   0  0  0  0  0  0  0  0  0  0  0  0
  -20.1960  -22.3614   23.4933 C   0  0  0  0  0  0  0  0  0  0  0  0
  -23.1337  -17.6477   20.0914 C   0  0  0  0  0  0  0  0  0  0  0  0
  -24.4893  -15.6098   21.7510 C   0  0  0  0  0  0  0  0  0  0  0  0
  -20.0261  -20.8847   23.8407 C   0  0  0  0  0  0  0  0  0  0  0  0
  -31.1015  -26.2725   21.1431 C   0  0  0  0  0  0  0  0  0  0  0  0
  -21.3272  -20.3137   24.3955 C   0  0  0  0  0  0  0  0  0  0  0  0
  -29.8578  -27.1460   20.9812 C   0  0  0  0  0  0  0  0  0  0  0  0
  -30.9366  -20.5256   21.8674 C   0  0  0  0  0  0  0  0  0  0  0  0
  -31.1021  -19.9640   19.4128 C   0  0  0  0  0  0  0  0  0  0  0  0
  -30.7505  -24.8533   21.5934 C   0  0  0  0  0  0  0  0  0  0  0  0
  -31.3447  -21.9667   21.5475 C   0  0  0  0  0  0  0  0  0  0  0  0
  -31.5328  -21.4036   19.1461 C   0  0  0  0  0  0  0  0  0  0  0  0
  -28.5067  -25.0546   20.5718 C   0  0  0  0  0  0  0  0  0  0  0  0
  -22.4533  -20.3978   23.3581 C   0  0  1  0  0  0  0  0  0  0  0  0
  -22.5287  -17.1441   21.3982 C   0  0  1  0  0  0  0  0  0  0  0  0
  -28.8234  -26.4698   20.0639 C   0  0  1  0  0  0  0  0  0  0  0  0
  -31.4885  -19.5420   20.8328 C   0  0  0  0  0  0  0  0  0  0  0  0
  -33.3034  -13.5220   19.2921 C   0  0  0  0  0  0  0  0  0  0  0  0
  -22.3996   -9.3998   21.2896 C   0  0  0  0  0  0  0  0  0  0  0  0
  -22.9525  -14.6620   25.2738 C   0  0  0  0  0  0  0  0  0  0  0  0
  -23.1293  -12.1852   24.9544 C   0  0  0  0  0  0  0  0  0  0  0  0
  -20.9345  -13.3281   24.6390 C   0  0  0  0  0  0  0  0  0  0  0  0
  -23.0328  -11.7029   18.3281 C   0  0  0  0  0  0  0  0  0  0  0  0
  -29.3319  -15.9618   20.5877 C   0  0  0  0  0  0  0  0  0  1  0  0
  -22.7539  -13.6397   22.9113 C   0  0  1  0  0  0  0  0  0  0  0  0
  -22.3803  -10.7158   20.5278 C   0  0  2  0  0  0  0  0  0  0  0  0
  -22.4576  -13.4715   24.4283 C   0  0  0  0  0  0  0  0  0  0  0  0
  -32.9235  -17.0480   20.4808 N   0  0  0  0  0  0  0  0  0  0  0  0
  -27.1705  -28.0775   20.9382 N   0  0  0  0  0  0  0  0  0  0  0  0
  -31.3435  -14.7919   19.9528 N   0  0  0  0  0  0  0  0  0  0  0  0
  -27.5696  -27.3100   19.9097 N   0  0  0  0  0  0  0  0  0  0  0  0
  -23.0331  -15.8244   21.7830 N   0  0  0  0  0  0  0  0  0  0  0  0
  -29.7319  -24.2649   20.7127 N   0  0  0  0  0  0  0  0  0  0  0  0
  -30.9968  -22.3108   20.1614 N   0  0  0  0  0  0  0  0  0  0  0  0
  -27.0158  -26.6852   17.6930 N   0  0  0  0  0  0  0  0  0  0  0  0
  -23.7381  -29.5853   18.8078 N   0  0  0  0  0  0  0  0  0  0  0  0
  -30.9812  -18.2154   21.1060 N   0  0  0  0  0  0  0  0  0  0  0  0
  -22.3100  -19.3497   22.3704 N   0  0  0  0  0  0  0  0  0  0  0  0
  -22.2722  -12.5396   22.0829 N   0  0  0  0  0  0  0  0  0  0  0  0
  -23.0055  -10.4954   19.1931 N   0  3  0  0  0  0  0  0  0  0  0  0
  -24.5282  -28.2177   17.1452 O   0  0  0  0  0  0  0  0  0  0  0  0
  -23.3872  -17.6480   23.5393 O   0  0  0  0  0  0  0  0  0  0  0  0
  -20.9187  -15.0469   22.3837 O   0  0  0  0  0  0  0  0  0  0  0  0
  -24.3336  -11.9789   21.1811 O   0  0  0  0  0  0  0  0  0  0  0  0
  -29.3514  -23.1067   18.7565 O   0  0  0  0  0  0  0  0  0  0  0  0
  -23.2028  -32.2368   23.6780 O   0  0  0  0  0  0  0  0  0  0  0  0
  -28.7565  -16.9621   19.7562 O   0  0  0  0  0  0  0  0  0  1  0  0
  -26.0686  -36.0131   26.4942 F   0  0  0  0  0  0  0  0  0  0  0  0
  -22.7755  -34.9373   23.2687 F   0  0  0  0  0  0  0  0  0  0  0  0
  1  2  1  0  0  0  0
  1  5  2  0  0  0  0
  2  6  2  0  0  0  0
  3  8  2  0  0  0  0
  3 16  1  0  0  0  0
  4  9  1  0  0  0  0
  4 16  2  0  0  0  0
  5 18  1  0  0  0  0
  6 20  1  0  0  0  0
  7 10  2  0  0  0  0
  7 19  1  0  0  0  0
  8 22  1  0  0  0  0
  9 22  2  0  0  0  0
 10 23  1  0  0  0  0
 11 12  2  0  0  0  0
 11 24  1  0  0  0  0
 12 25  1  0  0  0  0
 13 21  1  0  0  0  0
 13 23  2  0  0  0  0
 14 25  2  0  0  0  0
 14 26  1  0  0  0  0
 15 28  1  0  0  0  0
 15 64  2  0  0  0  0
 16 27  1  0  0  0  0
 17 27  1  0  0  0  0
 17 31  2  0  0  0  0
 17 32  1  0  0  0  0
 18 20  2  0  0  0  0
 18 37  1  0  0  0  0
 19 21  2  0  0  0  0
 19 38  1  0  0  0  0
 20 50  1  0  0  0  0
 21 39  1  0  0  0  0
 22 82  1  0  0  0  0
 23 83  1  0  0  0  0
 24 26  2  0  0  0  0
 24 82  1  0  0  0  0
 25 84  1  0  0  0  0
 26 85  1  0  0  0  0
 27 65  2  0  0  0  0
 28 54  1  0  0  0  0
 28 66  2  0  0  0  0
 29 30  2  0  0  0  0
 29 60  1  0  0  0  0
 29 66  1  0  0  0  0
 30 64  1  0  0  0  0
 30 73  1  0  0  0  0
 31 67  1  0  0  0  0
 31 71  1  0  0  0  0
 32 72  1  0  0  0  0
 32 77  2  0  0  0  0
 33 51  1  0  0  0  0
 33 74  1  0  0  0  0
 33 78  2  0  0  0  0
 34 61  1  0  0  0  0
 34 68  1  0  0  0  0
 34 79  2  0  0  0  0
 35 62  1  0  0  0  0
 35 75  1  0  0  0  0
 35 80  2  0  0  0  0
 36 69  1  0  0  0  0
 36 70  1  0  0  0  0
 36 81  2  0  0  0  0
 37 40  1  0  0  0  0
 38 51  1  0  0  0  0
 39 68  1  0  0  0  0
 40 42  1  0  0  0  0
 41 43  1  0  0  0  0
 41 46  1  0  0  0  0
 42 50  1  0  0  0  0
 43 52  1  0  0  0  0
 44 47  1  0  0  0  0
 44 53  1  0  0  0  0
 45 48  1  0  0  0  0
 45 53  1  0  0  0  0
 46 69  1  0  0  0  0
 47 70  1  0  0  0  0
 48 70  1  0  0  0  0
 49 52  1  0  0  0  0
 49 69  1  0  0  0  0
 50 74  1  0  0  0  0
 51 68  1  0  0  0  0
 52 67  1  0  0  0  0
 53 73  1  0  0  0  0
 55 62  1  0  0  0  0
 56 63  1  0  0  0  0
 57 63  1  0  0  0  0
 58 63  1  0  0  0  0
 59 76  1  0  0  0  0
 60 83  1  0  0  0  0
 61 63  1  0  0  0  0
 61 75  1  0  0  0  0
 62 76  1  0  0  0  0
 65 67  1  0  0  0  0
M  CHG  1  76   1
M  ISO  4  36 100  60 101  70 100  83 101
M  END
> <Batch ID>
0180

> <Smiles>
CNC(C)C(=O)NC(C(=O)N1Cc2cc([101O:1][101CH2:1]c3nc(C)cnc3NC3CC[100N:0]([100C:0](=O)N4CCCC(n5nc(-c6ccc(Oc7ccc(F)cc7F)cc6)c(C(N)=O)c5N)C4)CC3)ccc2CC1C(=O)NC1CCCc2ccccc21)C(C)(C)C

> <Shape>
0.213

> <Color>
0.083

> <Negative vol penalty>
0.000

$$$$

  -OEChem-04052323003D

 85 94  0     1  0  0  0  0  0999 V2000
  -26.4814  -36.9229   17.2230 C   0  0  0  0  0  0  0  0  0  0  0  0
  -26.8989  -35.5992   17.1276 C   0  0  0  0  0  0  0  0  0  0  0  0
  -23.3120  -10.8900   21.9715 C   0  0  0  0  0  0  0  0  0  0  0  0
  -23.9595   -9.2681   20.3019 C   0  0  0  0  0  0  0  0  0  0  0  0
  -26.2026  -37.4763   18.4720 C   0  0  0  0  0  0  0  0  0  0  0  0
  -27.0389  -34.8286   18.2812 C   0  0  0  0  0  0  0  0  0  0  0  0
  -25.9322  -28.8331   18.8601 C   0  0  0  0  0  0  0  0  0  0  0  0
  -21.9696  -10.5834   21.7487 C   0  0  0  0  0  0  0  0  0  0  0  0
  -22.6171   -8.9615   20.0791 C   0  0  0  0  0  0  0  0  0  0  0  0
  -26.7700  -27.7188   18.8444 C   0  0  0  0  0  0  0  0  0  0  0  0
  -20.2023   -7.1267   21.5700 C   0  0  0  0  0  0  0  0  0  0  0  0
  -19.8532   -5.7793   21.4798 C   0  0  0  0  0  0  0  0  0  0  0  0
  -26.8491  -27.7519   21.2552 C   0  0  0  0  0  0  0  0  0  0  0  0
  -19.0286   -6.1429   19.2382 C   0  0  0  0  0  0  0  0  0  0  0  0
  -24.3070  -10.2324   21.2480 C   0  0  0  0  0  0  0  0  0  0  0  0
  -26.5625   -9.9418   22.4038 C   0  0  0  0  0  0  0  0  0  0  0  0
  -26.3299  -36.7092   19.6407 C   0  0  0  0  0  0  0  0  0  0  0  0
  -25.5547  -29.4227   20.0751 C   0  0  0  0  0  0  0  0  0  0  0  0
  -26.7628  -35.3727   19.5471 C   0  0  0  0  0  0  0  0  0  0  0  0
  -26.0043  -28.8720   21.2836 C   0  0  0  0  0  0  0  0  0  0  0  0
  -21.6222   -9.6192   20.8026 C   0  0  0  0  0  0  0  0  0  0  0  0
  -27.2309  -27.1798   20.0420 C   0  0  0  0  0  0  0  0  0  0  0  0
  -19.9645   -7.9823   20.4943 C   0  0  0  0  0  0  0  0  0  0  0  0
  -19.2664   -5.2874   20.3140 C   0  0  0  0  0  0  0  0  0  0  0  0
  -19.3777   -7.4904   19.3284 C   0  0  0  0  0  0  0  0  0  0  0  0
  -25.6938  -10.5491   21.4773 C   0  0  0  0  0  0  0  0  0  0  0  0
  -27.7585  -10.5949   22.2320 C   0  0  0  0  0  0  0  0  0  0  0  0
  -31.2493  -23.4428   19.4257 C   0  0  0  0  0  0  0  0  0  0  0  0
  -29.2574  -24.3514   18.9325 C   0  0  0  0  0  0  0  0  0  0  0  0
  -29.5115  -22.1217   18.9043 C   0  0  0  0  0  0  0  0  0  0  0  0
  -26.3108   -8.8822   23.3362 C   0  0  0  0  0  0  0  0  0  0  0  0
  -25.9679  -32.2797   21.4058 C   0  0  0  0  0  0  0  0  0  0  0  0
  -23.9953  -31.0733   23.6808 C   0  0  0  0  0  0  0  0  0  0  0  0
  -22.7146  -28.3224   25.2426 C   0  0  0  0  0  0  0  0  0  0  0  0
  -29.2143  -15.8903   20.4350 C   0  0  0  0  0  0  0  0  0  0  0  0
  -26.0626  -37.3650   20.9723 C   0  0  0  0  0  0  0  0  0  0  0  0
  -24.6288  -30.6081   20.0759 C   0  0  0  0  0  0  0  0  0  0  0  0
  -25.6118  -29.4555   22.6156 C   0  0  0  0  0  0  0  0  0  0  0  0
  -25.8754  -36.3700   22.1147 C   0  0  0  0  0  0  0  0  0  0  0  0
  -30.3275  -12.9161   18.9369 C   0  0  0  0  0  0  0  0  0  0  0  0
  -26.9645  -35.3027   22.0769 C   0  0  0  0  0  0  0  0  0  0  0  0
  -29.3421  -11.8992   19.5123 C   0  0  0  0  0  0  0  0  0  0  0  0
  -29.0662  -18.5075   18.0863 C   0  0  0  0  0  0  0  0  0  0  0  0
  -29.8813  -19.2891   20.3430 C   0  0  0  0  0  0  0  0  0  0  0  0
  -29.6417  -14.2324   18.5663 C   0  0  0  0  0  0  0  0  0  0  0  0
  -29.7693  -17.1664   18.3160 C   0  0  0  0  0  0  0  0  0  0  0  0
  -30.5892  -17.9481   20.5152 C   0  0  0  0  0  0  0  0  0  0  0  0
  -27.8739  -13.8160   20.2456 C   0  0  0  0  0  0  0  0  0  0  0  0
  -26.9026  -34.4972   20.7735 C   0  0  1  0  0  0  0  0  0  0  0  0
  -24.7235  -31.4394   21.3516 C   0  0  1  0  0  0  0  0  0  0  0  0
  -28.5442  -12.5038   20.6814 C   0  0  1  0  0  0  0  0  0  0  0  0
  -29.7479  -19.6394   18.8587 C   0  0  0  0  0  0  0  0  0  0  0  0
  -32.6796  -23.6009   19.8147 C   0  0  0  0  0  0  0  0  0  0  0  0
  -21.1533  -27.6544   27.0901 C   0  0  0  0  0  0  0  0  0  0  0  0
  -26.1137  -31.8314   25.7418 C   0  0  0  0  0  0  0  0  0  0  0  0
  -24.9629  -30.3239   27.3763 C   0  0  0  0  0  0  0  0  0  0  0  0
  -23.7597  -32.3004   26.4443 C   0  0  0  0  0  0  0  0  0  0  0  0
  -20.9374  -26.8715   23.3731 C   0  0  0  0  0  0  0  0  0  0  0  0
  -28.3960  -25.5548   18.7543 C   0  0  0  0  0  0  0  0  0  1  0  0
  -24.1886  -30.2980   24.9616 C   0  0  1  0  0  0  0  0  0  0  0  0
  -21.2903  -27.9404   25.6028 C   0  0  2  0  0  0  0  0  0  0  0  0
  -24.7654  -31.1784   26.1060 C   0  0  0  0  0  0  0  0  0  0  0  0
  -26.2874  -11.5138   20.7696 N   0  0  0  0  0  0  0  0  0  0  0  0
  -30.5347  -24.5708   19.2834 N   0  0  0  0  0  0  0  0  0  0  0  0
  -30.8064  -22.1868   19.2533 N   0  0  0  0  0  0  0  0  0  0  0  0
  -28.6769  -23.1584   18.7258 N   0  0  0  0  0  0  0  0  0  0  0  0
  -27.5419  -11.5178   21.2516 N   0  0  0  0  0  0  0  0  0  0  0  0
  -24.7099  -30.6179   22.5637 N   0  0  0  0  0  0  0  0  0  0  0  0
  -28.8611  -14.7493   19.6990 N   0  0  0  0  0  0  0  0  0  0  0  0
  -29.9165  -16.8953   19.7532 N   0  0  0  0  0  0  0  0  0  0  0  0
  -28.9639  -10.4640   22.8257 N   0  0  0  0  0  0  0  0  0  0  0  0
  -25.0263   -8.3234   23.3819 N   0  0  0  0  0  0  0  0  0  0  0  0
  -28.9834  -20.8580   18.7087 N   0  0  0  0  0  0  0  0  0  0  0  0
  -25.8296  -33.5277   20.8289 N   0  0  0  0  0  0  0  0  0  0  0  0
  -22.8990  -29.6887   25.2685 N   0  0  0  0  0  0  0  0  0  0  0  0
  -20.8742  -26.7234   24.8499 N   0  3  0  0  0  0  0  0  0  0  0  0
  -27.1943   -8.4549   24.1175 O   0  0  0  0  0  0  0  0  0  0  0  0
  -26.9784  -31.8297   21.9332 O   0  0  0  0  0  0  0  0  0  0  0  0
  -23.2327  -32.0429   23.6700 O   0  0  0  0  0  0  0  0  0  0  0  0
  -23.5783  -27.4918   24.9695 O   0  0  0  0  0  0  0  0  0  0  0  0
  -28.9195  -16.0046   21.6313 O   0  0  0  0  0  0  0  0  0  0  0  0
  -20.3124   -9.3196   20.5851 O   0  0  0  0  0  0  0  0  0  0  0  0
  -28.0549  -26.0852   20.0294 O   0  0  0  0  0  0  0  0  0  1  0  0
  -18.9326   -3.9931   20.2269 F   0  0  0  0  0  0  0  0  0  0  0  0
  -19.1479   -8.3073   18.2913 F   0  0  0  0  0  0  0  0  0  0  0  0
  1  2  1  0  0  0  0
  1  5  2  0  0  0  0
  2  6  2  0  0  0  0
  3  8  2  0  0  0  0
  3 15  1  0  0  0  0
  4  9  1  0  0  0  0
  4 15  2  0  0  0  0
  5 17  1  0  0  0  0
  6 19  1  0  0  0  0
  7 10  2  0  0  0  0
  7 18  1  0  0  0  0
  8 21  1  0  0  0  0
  9 21  2  0  0  0  0
 10 22  1  0  0  0  0
 11 12  2  0  0  0  0
 11 23  1  0  0  0  0
 12 24  1  0  0  0  0
 13 20  1  0  0  0  0
 13 22  2  0  0  0  0
 14 24  2  0  0  0  0
 14 25  1  0  0  0  0
 15 26  1  0  0  0  0
 16 26  1  0  0  0  0
 16 27  2  0  0  0  0
 16 31  1  0  0  0  0
 17 19  2  0  0  0  0
 17 36  1  0  0  0  0
 18 20  2  0  0  0  0
 18 37  1  0  0  0  0
 19 49  1  0  0  0  0
 20 38  1  0  0  0  0
 21 82  1  0  0  0  0
 22 83  1  0  0  0  0
 23 25  2  0  0  0  0
 23 82  1  0  0  0  0
 24 84  1  0  0  0  0
 25 85  1  0  0  0  0
 26 63  2  0  0  0  0
 27 67  1  0  0  0  0
 27 71  1  0  0  0  0
 28 53  1  0  0  0  0
 28 64  2  0  0  0  0
 28 65  1  0  0  0  0
 29 59  1  0  0  0  0
 29 64  1  0  0  0  0
 29 66  2  0  0  0  0
 30 65  2  0  0  0  0
 30 66  1  0  0  0  0
 30 73  1  0  0  0  0
 31 72  1  0  0  0  0
 31 77  2  0  0  0  0
 32 50  1  0  0  0  0
 32 74  1  0  0  0  0
 32 78  2  0  0  0  0
 33 60  1  0  0  0  0
 33 68  1  0  0  0  0
 33 79  2  0  0  0  0
 34 61  1  0  0  0  0
 34 75  1  0  0  0  0
 34 80  2  0  0  0  0
 35 69  1  0  0  0  0
 35 70  1  0  0  0  0
 35 81  2  0  0  0  0
 36 39  1  0  0  0  0
 37 50  1  0  0  0  0
 38 68  1  0  0  0  0
 39 41  1  0  0  0  0
 40 42  1  0  0  0  0
 40 45  1  0  0  0  0
 41 49  1  0  0  0  0
 42 51  1  0  0  0  0
 43 46  1  0  0  0  0
 43 52  1  0  0  0  0
 44 47  1  0  0  0  0
 44 52  1  0  0  0  0
 45 69  1  0  0  0  0
 46 70  1  0  0  0  0
 47 70  1  0  0  0  0
 48 51  1  0  0  0  0
 48 69  1  0  0  0  0
 49 74  1  0  0  0  0
 50 68  1  0  0  0  0
 51 67  1  0  0  0  0
 52 73  1  0  0  0  0
 54 61  1  0  0  0  0
 55 62  1  0  0  0  0
 56 62  1  0  0  0  0
 57 62  1  0  0  0  0
 58 76  1  0  0  0  0
 59 83  1  0  0  0  0
 60 62  1  0  0  0  0
 60 75  1  0  0  0  0
 61 76  1  0  0  0  0
 63 67  1  0  0  0  0
M  CHG  1  76   1
M  ISO  4  35 100  59 101  70 100  83 101
M  END
> <Batch ID>
0180

> <Smiles>
CNC(C)C(=O)NC(C(=O)N1Cc2cc([101O:1][101CH2:1]c3nc(C)nc(NC4CC[100N:0]([100C:0](=O)N5CCCC(n6nc(-c7ccc(Oc8ccc(F)cc8F)cc7)c(C(N)=O)c6N)C5)CC4)n3)ccc2CC1C(=O)NC1CCCc2ccccc21)C(C)(C)C

> <Shape>
0.264

> <Color>
0.129

> <Negative vol penalty>
0.000

$$$$

  -OEChem-04052323003D

 86 95  0     1  0  0  0  0  0999 V2000
  -28.4488  -36.3989   21.5922 C   0  0  0  0  0  0  0  0  0  0  0  0
  -28.7377  -35.1517   21.0478 C   0  0  0  0  0  0  0  0  0  0  0  0
  -24.9072  -16.7481   17.5440 C   0  0  0  0  0  0  0  0  0  0  0  0
  -23.6550  -17.4242   19.4964 C   0  0  0  0  0  0  0  0  0  0  0  0
  -27.6666  -36.4918   22.7426 C   0  0  0  0  0  0  0  0  0  0  0  0
  -28.2453  -33.9965   21.6541 C   0  0  0  0  0  0  0  0  0  0  0  0
  -26.4477  -28.8520   18.8598 C   0  0  0  0  0  0  0  0  0  0  0  0
  -24.4507  -17.8753   16.8609 C   0  0  0  0  0  0  0  0  0  0  0  0
  -23.1985  -18.5514   18.8133 C   0  0  0  0  0  0  0  0  0  0  0  0
  -27.0869  -27.6332   18.6368 C   0  0  0  0  0  0  0  0  0  0  0  0
  -20.8439  -19.2778   16.4983 C   0  0  0  0  0  0  0  0  0  0  0  0
  -19.4888  -19.5923   16.5995 C   0  0  0  0  0  0  0  0  0  0  0  0
  -26.0227  -26.7226   20.6009 C   0  0  0  0  0  0  0  0  0  0  0  0
  -29.5359  -20.9671   19.1126 C   0  0  0  0  0  0  0  0  0  0  0  0
  -20.0576  -21.7322   17.5663 C   0  0  0  0  0  0  0  0  0  0  0  0
  -24.5093  -16.5225   18.8618 C   0  0  0  0  0  0  0  0  0  0  0  0
  -24.7805  -14.0104   19.2129 C   0  0  0  0  0  0  0  0  0  0  0  0
  -27.1563  -35.3378   23.3578 C   0  0  0  0  0  0  0  0  0  0  0  0
  -25.5983  -29.0189   19.9630 C   0  0  0  0  0  0  0  0  0  0  0  0
  -27.4566  -34.0741   22.8146 C   0  0  0  0  0  0  0  0  0  0  0  0
  -25.3719  -27.9437   20.8342 C   0  0  0  0  0  0  0  0  0  0  0  0
  -28.5018  -20.7953   20.0260 C   0  0  0  0  0  0  0  0  0  0  0  0
  -27.7314  -21.8876   20.4091 C   0  0  0  0  0  0  0  0  0  0  0  0
  -23.5964  -18.7770   17.4955 C   0  0  0  0  0  0  0  0  0  0  0  0
  -26.8767  -26.5691   19.5090 C   0  0  0  0  0  0  0  0  0  0  0  0
  -21.8059  -20.1905   16.9312 C   0  0  0  0  0  0  0  0  0  0  0  0
  -19.0956  -20.8195   17.1335 C   0  0  0  0  0  0  0  0  0  0  0  0
  -21.4127  -21.4177   17.4651 C   0  0  0  0  0  0  0  0  0  0  0  0
  -24.9800  -15.3580   19.5678 C   0  0  0  0  0  0  0  0  0  0  0  0
  -29.7572  -22.2414   18.6156 C   0  0  0  0  0  0  0  0  0  0  0  0
  -28.0336  -23.1207   19.8542 C   0  0  0  0  0  0  0  0  0  0  0  0
  -25.4198  -13.2977   20.1977 C   0  0  0  0  0  0  0  0  0  0  0  0
  -24.0800  -13.4526   18.0932 C   0  0  0  0  0  0  0  0  0  0  0  0
  -25.5973  -30.8936   22.5299 C   0  0  0  0  0  0  0  0  0  0  0  0
  -22.6832  -29.5573   23.0240 C   0  0  0  0  0  0  0  0  0  0  0  0
  -20.5694  -26.9335   22.4813 C   0  0  0  0  0  0  0  0  0  0  0  0
  -27.5747  -17.5204   23.0237 C   0  0  0  0  0  0  0  0  0  0  0  0
  -26.3548  -35.4857   24.6268 C   0  0  0  0  0  0  0  0  0  0  0  0
  -24.8954  -30.3317   20.1746 C   0  0  0  0  0  0  0  0  0  0  0  0
  -24.4536  -28.0652   22.0218 C   0  0  0  0  0  0  0  0  0  0  0  0
  -25.5599  -34.2353   24.9943 C   0  0  0  0  0  0  0  0  0  0  0  0
  -25.3347  -14.9831   24.1691 C   0  0  0  0  0  0  0  0  0  0  0  0
  -31.1068  -18.2392   22.6277 C   0  0  0  0  0  0  0  0  0  0  0  0
  -26.4343  -32.9915   24.8709 C   0  0  0  0  0  0  0  0  0  0  0  0
  -25.8360  -13.6975   23.5206 C   0  0  0  0  0  0  0  0  0  0  0  0
  -30.5487  -19.2158   21.6021 C   0  0  0  0  0  0  0  0  0  0  0  0
  -26.5004  -15.8893   24.5337 C   0  0  0  0  0  0  0  0  0  0  0  0
  -30.0611  -17.1350   22.6385 C   0  0  0  0  0  0  0  0  0  0  0  0
  -27.8392  -15.0170   22.6277 C   0  0  0  0  0  0  0  0  0  0  0  0
  -26.9201  -32.7995   23.4292 C   0  0  1  0  0  0  0  0  0  0  0  0
  -24.4538  -30.5471   21.6189 C   0  0  1  0  0  0  0  0  0  0  0  0
  -26.7514  -13.9638   22.3149 C   0  0  2  0  0  0  0  0  0  0  0  0
  -29.0395  -19.1684   21.8565 C   0  0  1  0  0  0  0  0  0  0  0  0
  -30.8577  -22.4630   17.6323 C   0  0  0  0  0  0  0  0  0  0  0  0
  -25.3721  -21.1114   20.7519 C   0  0  0  0  0  0  0  0  0  0  0  0
  -18.2673  -26.1092   23.0454 C   0  0  0  0  0  0  0  0  0  0  0  0
  -23.6394  -28.8099   25.8235 C   0  0  0  0  0  0  0  0  0  0  0  0
  -21.7202  -27.2093   25.9761 C   0  0  0  0  0  0  0  0  0  0  0  0
  -21.2870  -29.6520   25.7148 C   0  0  0  0  0  0  0  0  0  0  0  0
  -19.7581  -26.8999   19.6353 C   0  0  0  0  0  0  0  0  0  0  0  0
  -28.2398  -19.4224   20.5851 C   0  0  0  0  0  0  0  0  0  0  0  0
  -26.6140  -21.7329   21.3852 C   0  0  0  0  0  0  0  0  0  0  0  0
  -27.2404  -24.3308   20.2257 C   0  0  0  0  0  0  0  0  0  1  0  0
  -22.1772  -28.3339   23.7495 C   0  0  1  0  0  0  0  0  0  0  0  0
  -19.1151  -26.8844   22.0489 C   0  0  2  0  0  0  0  0  0  0  0  0
  -22.2248  -28.4993   25.2948 C   0  0  0  0  0  0  0  0  0  0  0  0
  -25.6904  -15.4959   20.6905 N   0  0  0  0  0  0  0  0  0  0  0  0
  -29.0301  -23.3265   18.9640 N   0  0  0  0  0  0  0  0  0  0  0  0
  -25.9427  -14.2257   21.0496 N   0  0  0  0  0  0  0  0  0  0  0  0
  -23.7944  -29.3709   22.1897 N   0  0  0  0  0  0  0  0  0  0  0  0
  -27.3483  -16.1820   23.3778 N   0  0  0  0  0  0  0  0  0  0  0  0
  -28.7944  -17.8355   22.4206 N   0  0  0  0  0  0  0  0  0  0  0  0
  -25.5800  -11.9741   20.4095 N   0  0  0  0  0  0  0  0  0  0  0  0
  -22.7137  -13.1727   18.2318 N   0  0  0  0  0  0  0  0  0  0  0  0
  -25.8633  -32.2473   22.6091 N   0  0  0  0  0  0  0  0  0  0  0  0
  -20.8452  -28.0659   23.2180 N   0  0  0  0  0  0  0  0  0  0  0  0
  -18.9927  -26.2277   20.7167 N   0  3  0  0  0  0  0  0  0  0  0  0
  -24.6525  -13.1944   17.0073 O   0  0  0  0  0  0  0  0  0  0  0  0
  -26.1932  -29.9992   23.1186 O   0  0  0  0  0  0  0  0  0  0  0  0
  -22.1091  -30.6370   23.1859 O   0  0  0  0  0  0  0  0  0  0  0  0
  -21.3788  -26.0533   22.1974 O   0  0  0  0  0  0  0  0  0  0  0  0
  -26.7290  -18.3971   23.2456 O   0  0  0  0  0  0  0  0  0  0  0  0
  -23.1510  -19.8771   16.8294 O   0  0  0  0  0  0  0  0  0  0  0  0
  -27.5043  -25.3701   19.2925 O   0  0  0  0  0  0  0  0  0  1  0  0
  -17.7942  -21.1220   17.2292 F   0  0  0  0  0  0  0  0  0  0  0  0
  -22.3324  -22.2990   17.8816 F   0  0  0  0  0  0  0  0  0  0  0  0
  1  2  1  0  0  0  0
  1  5  2  0  0  0  0
  2  6  2  0  0  0  0
  3  8  2  0  0  0  0
  3 16  1  0  0  0  0
  4  9  1  0  0  0  0
  4 16  2  0  0  0  0
  5 18  1  0  0  0  0
  6 20  1  0  0  0  0
  7 10  2  0  0  0  0
  7 19  1  0  0  0  0
  8 24  1  0  0  0  0
  9 24  2  0  0  0  0
 10 25  1  0  0  0  0
 11 12  2  0  0  0  0
 11 26  1  0  0  0  0
 12 27  1  0  0  0  0
 13 21  1  0  0  0  0
 13 25  2  0  0  0  0
 14 22  2  0  0  0  0
 14 30  1  0  0  0  0
 15 27  2  0  0  0  0
 15 28  1  0  0  0  0
 16 29  1  0  0  0  0
 17 29  1  0  0  0  0
 17 32  2  0  0  0  0
 17 33  1  0  0  0  0
 18 20  2  0  0  0  0
 18 38  1  0  0  0  0
 19 21  2  0  0  0  0
 19 39  1  0  0  0  0
 20 50  1  0  0  0  0
 21 40  1  0  0  0  0
 22 23  1  0  0  0  0
 22 61  1  0  0  0  0
 23 31  2  0  0  0  0
 23 62  1  0  0  0  0
 24 83  1  0  0  0  0
 25 84  1  0  0  0  0
 26 28  2  0  0  0  0
 26 83  1  0  0  0  0
 27 85  1  0  0  0  0
 28 86  1  0  0  0  0
 29 67  2  0  0  0  0
 30 54  1  0  0  0  0
 30 68  2  0  0  0  0
 31 63  1  0  0  0  0
 31 68  1  0  0  0  0
 32 69  1  0  0  0  0
 32 73  1  0  0  0  0
 33 74  1  0  0  0  0
 33 78  2  0  0  0  0
 34 51  1  0  0  0  0
 34 75  1  0  0  0  0
 34 79  2  0  0  0  0
 35 64  1  0  0  0  0
 35 70  1  0  0  0  0
 35 80  2  0  0  0  0
 36 65  1  0  0  0  0
 36 76  1  0  0  0  0
 36 81  2  0  0  0  0
 37 71  1  0  0  0  0
 37 72  1  0  0  0  0
 37 82  2  0  0  0  0
 38 41  1  0  0  0  0
 39 51  1  0  0  0  0
 40 70  1  0  0  0  0
 41 44  1  0  0  0  0
 42 45  1  0  0  0  0
 42 47  1  0  0  0  0
 43 46  1  0  0  0  0
 43 48  1  0  0  0  0
 44 50  1  0  0  0  0
 45 52  1  0  0  0  0
 46 53  1  0  0  0  0
 47 71  1  0  0  0  0
 48 72  1  0  0  0  0
 49 52  1  0  0  0  0
 49 71  1  0  0  0  0
 50 75  1  0  0  0  0
 51 70  1  0  0  0  0
 52 69  1  0  0  0  0
 53 61  1  0  0  0  0
 53 72  1  0  0  0  0
 55 62  1  0  0  0  0
 56 65  1  0  0  0  0
 57 66  1  0  0  0  0
 58 66  1  0  0  0  0
 59 66  1  0  0  0  0
 60 77  1  0  0  0  0
 63 84  1  0  0  0  0
 64 66  1  0  0  0  0
 64 76  1  0  0  0  0
 65 77  1  0  0  0  0
 67 69  1  0  0  0  0
M  CHG  1  77   1
M  ISO  4  37 100  63 101  72 100  84 101
M  END
> <Batch ID>
0180

> <Smiles>
CCc1c(CC2CCC[100N:0]2[100C:0](=O)N2CCCC(n3nc(-c4ccc(Oc5ccc(F)cc5F)cc4)c(C(N)=O)c3N)C2)cc(C)nc1[101CH2:1][101O:1]c1ccc2c(c1)CN(C(=O)C(NC(=O)C(C)NC)C(C)(C)C)C(C(=O)NC1CCCc3ccccc31)C2

> <Shape>
0.239

> <Color>
0.072

> <Negative vol penalty>
0.000

$$$$

  -OEChem-04052323003D

 85 94  0     1  0  0  0  0  0999 V2000
  -25.3910  -37.8071   18.2121 C   0  0  0  0  0  0  0  0  0  0  0  0
  -25.6567  -36.5697   17.6344 C   0  0  0  0  0  0  0  0  0  0  0  0
  -24.4152   -9.9583   21.2402 C   0  0  0  0  0  0  0  0  0  0  0  0
  -25.3593  -11.2224   23.0699 C   0  0  0  0  0  0  0  0  0  0  0  0
  -25.5680  -37.9873   19.5832 C   0  0  0  0  0  0  0  0  0  0  0  0
  -26.1006  -35.5121   18.4274 C   0  0  0  0  0  0  0  0  0  0  0  0
  -25.7029  -28.3790   18.9538 C   0  0  0  0  0  0  0  0  0  0  0  0
  -24.2977   -8.8439   22.0707 C   0  0  0  0  0  0  0  0  0  0  0  0
  -25.2417  -10.1080   23.9005 C   0  0  0  0  0  0  0  0  0  0  0  0
  -26.5262  -27.2603   19.0743 C   0  0  0  0  0  0  0  0  0  0  0  0
  -22.2077   -7.7528   24.4944 C   0  0  0  0  0  0  0  0  0  0  0  0
  -21.0105   -7.0381   24.4547 C   0  0  0  0  0  0  0  0  0  0  0  0
  -26.7200  -27.6657   21.4444 C   0  0  0  0  0  0  0  0  0  0  0  0
  -22.2147   -5.0593   23.7683 C   0  0  0  0  0  0  0  0  0  0  0  0
  -24.9460  -11.1476   21.7397 C   0  0  0  0  0  0  0  0  0  0  0  0
  -24.1117  -13.3113   20.6767 C   0  0  0  0  0  0  0  0  0  0  0  0
  -26.0050  -36.9287   20.3950 C   0  0  0  0  0  0  0  0  0  0  0  0
  -25.3903  -29.1571   20.0778 C   0  0  0  0  0  0  0  0  0  0  0  0
  -26.2849  -35.6788   19.8105 C   0  0  0  0  0  0  0  0  0  0  0  0
  -25.8905  -28.7923   21.3359 C   0  0  0  0  0  0  0  0  0  0  0  0
  -28.4445  -22.6311   19.6118 C   0  0  0  0  0  0  0  0  0  0  0  0
  -24.7109   -8.9187   23.4008 C   0  0  0  0  0  0  0  0  0  0  0  0
  -27.0372  -26.9052   20.3192 C   0  0  0  0  0  0  0  0  0  0  0  0
  -23.4084   -7.1208   24.1710 C   0  0  0  0  0  0  0  0  0  0  0  0
  -21.0140   -5.6914   24.0917 C   0  0  0  0  0  0  0  0  0  0  0  0
  -23.4119   -5.7740   23.8079 C   0  0  0  0  0  0  0  0  0  0  0  0
  -25.0682  -12.2990   20.8822 C   0  0  0  0  0  0  0  0  0  0  0  0
  -29.3273  -21.6183   19.9266 C   0  0  0  0  0  0  0  0  0  0  0  0
  -28.9812  -23.9020   19.5785 C   0  0  0  0  0  0  0  0  0  0  0  0
  -24.7045  -14.1670   19.7807 C   0  0  0  0  0  0  0  0  0  0  0  0
  -31.0375  -23.1025   20.1256 C   0  0  0  0  0  0  0  0  0  0  0  0
  -22.8043  -13.4643   21.2449 C   0  0  0  0  0  0  0  0  0  0  0  0
  -25.8989  -32.1777   20.9269 C   0  0  0  0  0  0  0  0  0  0  0  0
  -24.0229  -31.3761   23.4488 C   0  0  0  0  0  0  0  0  0  0  0  0
  -22.7864  -28.9254   25.4765 C   0  0  0  0  0  0  0  0  0  0  0  0
  -29.1659  -17.0291   18.0483 C   0  0  0  0  0  0  0  0  0  0  0  0
  -26.2270  -37.1847   21.8647 C   0  0  0  0  0  0  0  0  0  0  0  0
  -24.4791  -30.3453   19.9356 C   0  0  0  0  0  0  0  0  0  0  0  0
  -25.5684  -29.5826   22.5769 C   0  0  0  0  0  0  0  0  0  0  0  0
  -26.3415  -35.9087   22.6947 C   0  0  0  0  0  0  0  0  0  0  0  0
  -28.8739  -13.6700   16.9928 C   0  0  0  0  0  0  0  0  0  0  0  0
  -27.2791  -34.9139   22.0178 C   0  0  0  0  0  0  0  0  0  0  0  0
  -27.8063  -13.0790   17.9095 C   0  0  0  0  0  0  0  0  0  0  0  0
  -29.6212  -19.2430   20.9371 C   0  0  0  0  0  0  0  0  0  0  0  0
  -29.7579  -14.6494   17.7532 C   0  0  0  0  0  0  0  0  0  0  0  0
  -29.1859  -17.8599   20.4718 C   0  0  0  0  0  0  0  0  0  0  0  0
  -28.9508  -19.4174   18.6659 C   0  0  0  0  0  0  0  0  0  0  0  0
  -27.9028  -15.2122   19.2998 C   0  0  0  0  0  0  0  0  0  0  0  0
  -26.7442  -34.5004   20.6415 C   0  0  1  0  0  0  0  0  0  0  0  0
  -28.8541  -20.1830   19.9931 C   0  0  2  0  0  0  0  0  0  0  0  0
  -24.6438  -31.3625   21.0606 C   0  0  1  0  0  0  0  0  0  0  0  0
  -26.9918  -14.1948   18.5821 C   0  0  2  0  0  0  0  0  0  0  0  0
  -32.4781  -23.3639   20.4083 C   0  0  0  0  0  0  0  0  0  0  0  0
  -26.1020  -22.7350   20.4998 C   0  0  0  0  0  0  0  0  0  0  0  0
  -21.3070  -28.5814   27.4742 C   0  0  0  0  0  0  0  0  0  0  0  0
  -26.2453  -32.4051   25.2687 C   0  0  0  0  0  0  0  0  0  0  0  0
  -25.1563  -31.1913   27.1685 C   0  0  0  0  0  0  0  0  0  0  0  0
  -23.9329  -33.0214   25.9951 C   0  0  0  0  0  0  0  0  0  0  0  0
  -20.9058  -27.2354   23.9382 C   0  0  0  0  0  0  0  0  0  0  0  0
  -27.0084  -22.3693   19.3254 C   0  0  0  0  0  0  0  0  0  0  0  0
  -28.1216  -25.0782   19.2505 C   0  0  0  0  0  0  0  0  0  1  0  0
  -24.2679  -30.8054   24.8248 C   0  0  1  0  0  0  0  0  0  0  0  0
  -21.3764  -28.6306   25.9558 C   0  0  2  0  0  0  0  0  0  0  0  0
  -24.9084  -31.8418   25.7908 C   0  0  0  0  0  0  0  0  0  0  0  0
  -26.1839  -12.4923   20.1737 N   0  0  0  0  0  0  0  0  0  0  0  0
  -30.6352  -21.8189   20.1902 N   0  0  0  0  0  0  0  0  0  0  0  0
  -30.2781  -24.1749   19.8312 N   0  0  0  0  0  0  0  0  0  0  0  0
  -25.9321  -13.6359   19.5141 N   0  0  0  0  0  0  0  0  0  0  0  0
  -24.6783  -30.7396   22.3853 N   0  0  0  0  0  0  0  0  0  0  0  0
  -28.9710  -15.6925   18.4137 N   0  0  0  0  0  0  0  0  0  0  0  0
  -28.9974  -18.0048   19.0299 N   0  0  0  0  0  0  0  0  0  0  0  0
  -24.2901  -15.3145   19.2027 N   0  0  0  0  0  0  0  0  0  0  0  0
  -22.3507  -12.4937   22.1485 N   0  0  0  0  0  0  0  0  0  0  0  0
  -25.6764  -33.5339   20.7837 N   0  0  0  0  0  0  0  0  0  0  0  0
  -22.9874  -30.2753   25.2808 N   0  0  0  0  0  0  0  0  0  0  0  0
  -20.9112  -27.3195   25.4214 N   0  3  0  0  0  0  0  0  0  0  0  0
  -22.0538  -14.4244   20.9473 O   0  0  0  0  0  0  0  0  0  0  0  0
  -26.9886  -31.6178   20.9532 O   0  0  0  0  0  0  0  0  0  0  0  0
  -23.2718  -32.3463   23.3215 O   0  0  0  0  0  0  0  0  0  0  0  0
  -23.6265  -28.0463   25.2976 O   0  0  0  0  0  0  0  0  0  0  0  0
  -29.5172  -17.3372   16.9013 O   0  0  0  0  0  0  0  0  0  0  0  0
  -24.5962   -7.8315   24.2116 O   0  0  0  0  0  0  0  0  0  0  0  0
  -27.8473  -25.8064   20.4403 O   0  0  0  0  0  0  0  0  0  1  0  0
  -19.8645   -5.0048   24.0551 F   0  0  0  0  0  0  0  0  0  0  0  0
  -24.5624   -5.1610   23.4973 F   0  0  0  0  0  0  0  0  0  0  0  0
  1  2  1  0  0  0  0
  1  5  2  0  0  0  0
  2  6  2  0  0  0  0
  3  8  2  0  0  0  0
  3 15  1  0  0  0  0
  4  9  1  0  0  0  0
  4 15  2  0  0  0  0
  5 17  1  0  0  0  0
  6 19  1  0  0  0  0
  7 10  2  0  0  0  0
  7 18  1  0  0  0  0
  8 22  1  0  0  0  0
  9 22  2  0  0  0  0
 10 23  1  0  0  0  0
 11 12  2  0  0  0  0
 11 24  1  0  0  0  0
 12 25  1  0  0  0  0
 13 20  1  0  0  0  0
 13 23  2  0  0  0  0
 14 25  2  0  0  0  0
 14 26  1  0  0  0  0
 15 27  1  0  0  0  0
 16 27  1  0  0  0  0
 16 30  2  0  0  0  0
 16 32  1  0  0  0  0
 17 19  2  0  0  0  0
 17 37  1  0  0  0  0
 18 20  2  0  0  0  0
 18 38  1  0  0  0  0
 19 49  1  0  0  0  0
 20 39  1  0  0  0  0
 21 28  1  0  0  0  0
 21 29  2  0  0  0  0
 21 60  1  0  0  0  0
 22 82  1  0  0  0  0
 23 83  1  0  0  0  0
 24 26  2  0  0  0  0
 24 82  1  0  0  0  0
 25 84  1  0  0  0  0
 26 85  1  0  0  0  0
 27 65  2  0  0  0  0
 28 50  1  0  0  0  0
 28 66  2  0  0  0  0
 29 61  1  0  0  0  0
 29 67  1  0  0  0  0
 30 68  1  0  0  0  0
 30 72  1  0  0  0  0
 31 53  1  0  0  0  0
 31 66  1  0  0  0  0
 31 67  2  0  0  0  0
 32 73  1  0  0  0  0
 32 77  2  0  0  0  0
 33 51  1  0  0  0  0
 33 74  1  0  0  0  0
 33 78  2  0  0  0  0
 34 62  1  0  0  0  0
 34 69  1  0  0  0  0
 34 79  2  0  0  0  0
 35 63  1  0  0  0  0
 35 75  1  0  0  0  0
 35 80  2  0  0  0  0
 36 70  1  0  0  0  0
 36 71  1  0  0  0  0
 36 81  2  0  0  0  0
 37 40  1  0  0  0  0
 38 51  1  0  0  0  0
 39 69  1  0  0  0  0
 40 42  1  0  0  0  0
 41 43  1  0  0  0  0
 41 45  1  0  0  0  0
 42 49  1  0  0  0  0
 43 52  1  0  0  0  0
 44 46  1  0  0  0  0
 44 50  1  0  0  0  0
 45 70  1  0  0  0  0
 46 71  1  0  0  0  0
 47 50  1  0  0  0  0
 47 71  1  0  0  0  0
 48 52  1  0  0  0  0
 48 70  1  0  0  0  0
 49 74  1  0  0  0  0
 51 69  1  0  0  0  0
 52 68  1  0  0  0  0
 54 60  1  0  0  0  0
 55 63  1  0  0  0  0
 56 64  1  0  0  0  0
 57 64  1  0  0  0  0
 58 64  1  0  0  0  0
 59 76  1  0  0  0  0
 61 83  1  0  0  0  0
 62 64  1  0  0  0  0
 62 75  1  0  0  0  0
 63 76  1  0  0  0  0
 65 68  1  0  0  0  0
M  CHG  1  76   1
M  ISO  4  36 100  61 101  71 100  83 101
M  END
> <Batch ID>
0180

> <Smiles>
CCc1c(C2CC[100N:0]([100C:0](=O)N3CCCC(n4nc(-c5ccc(Oc6ccc(F)cc6F)cc5)c(C(N)=O)c4N)C3)C2)nc(C)nc1[101CH2:1][101O:1]c1ccc2c(c1)CN(C(=O)C(NC(=O)C(C)NC)C(C)(C)C)C(C(=O)NC1CCCc3ccccc31)C2

> <Shape>
0.296

> <Color>
0.115

> <Negative vol penalty>
0.000

$$$$

  -OEChem-04052323003D

 83 91  0     1  0  0  0  0  0999 V2000
  -25.1211  -17.7317   18.6805 C   0  0  0  0  0  0  0  0  0  0  0  0
  -24.3865  -18.9051   18.8178 C   0  0  0  0  0  0  0  0  0  0  0  0
  -23.1940  -14.0516   21.1128 C   0  0  0  0  0  0  0  0  0  0  0  0
  -24.9972  -15.0117   22.4027 C   0  0  0  0  0  0  0  0  0  0  0  0
  -26.3746  -17.6211   19.2808 C   0  0  0  0  0  0  0  0  0  0  0  0
  -24.9046  -19.9683   19.5565 C   0  0  0  0  0  0  0  0  0  0  0  0
  -24.1401  -25.9420   18.4448 C   0  0  0  0  0  0  0  0  0  0  0  0
  -24.0687  -13.0912   20.6048 C   0  0  0  0  0  0  0  0  0  0  0  0
  -25.8719  -14.0511   21.8948 C   0  0  0  0  0  0  0  0  0  0  0  0
  -23.2730  -26.8926   18.9816 C   0  0  0  0  0  0  0  0  0  0  0  0
  -28.6611  -12.0738   20.6617 C   0  0  0  0  0  0  0  0  0  0  0  0
  -29.9149  -12.5038   20.2272 C   0  0  0  0  0  0  0  0  0  0  0  0
  -24.9956  -27.5853   20.5218 C   0  0  0  0  0  0  0  0  0  0  0  0
  -28.8573  -13.9482   18.6047 C   0  0  0  0  0  0  0  0  0  0  0  0
  -19.5289  -28.3675   21.7275 C   0  0  0  0  0  0  0  0  0  0  0  0
  -23.6583  -15.0119   22.0117 C   0  0  0  0  0  0  0  0  0  0  0  0
  -21.9721  -15.9100   23.7021 C   0  0  0  0  0  0  0  0  0  0  0  0
  -26.9125  -18.6870   20.0192 C   0  0  0  0  0  0  0  0  0  0  0  0
  -25.4401  -25.7983   18.9505 C   0  0  0  0  0  0  0  0  0  0  0  0
  -26.1659  -19.8713   20.1685 C   0  0  0  0  0  0  0  0  0  0  0  0
  -25.8781  -26.6339   19.9878 C   0  0  0  0  0  0  0  0  0  0  0  0
  -25.4076  -13.0909   20.9958 C   0  0  0  0  0  0  0  0  0  0  0  0
  -23.6997  -27.7124   20.0222 C   0  0  0  0  0  0  0  0  0  0  0  0
  -27.5054  -12.5809   20.0676 C   0  0  0  0  0  0  0  0  0  0  0  0
  -30.0130  -13.4410   19.1988 C   0  0  0  0  0  0  0  0  0  0  0  0
  -27.6035  -13.5181   19.0392 C   0  0  0  0  0  0  0  0  0  0  0  0
  -22.7554  -16.0047   22.5363 C   0  0  0  0  0  0  0  0  0  0  0  0
  -18.6844  -27.2762   21.7241 C   0  0  0  0  0  0  0  0  0  0  0  0
  -20.6821  -28.2276   22.4724 C   0  0  0  0  0  0  0  0  0  0  0  0
  -21.2962  -17.1043   23.7597 C   0  0  0  0  0  0  0  0  0  0  0  0
  -20.0929  -26.1184   23.0815 C   0  0  0  0  0  0  0  0  0  0  0  0
  -21.8650  -14.8383   24.6486 C   0  0  0  0  0  0  0  0  0  0  0  0
  -27.0470  -23.4538   20.3735 C   0  0  0  0  0  0  0  0  0  0  0  0
  -29.5346  -25.5173   20.0970 C   0  0  0  0  0  0  0  0  0  0  0  0
  -30.6008  -28.7430   19.7733 C   0  0  0  0  0  0  0  0  0  0  0  0
  -21.2582  -22.5679   23.4520 C   0  0  0  0  0  0  0  0  0  0  0  0
  -28.2511  -18.5033   20.6894 C   0  0  0  0  0  0  0  0  0  0  0  0
  -26.3722  -24.7863   18.3425 C   0  0  0  0  0  0  0  0  0  0  0  0
  -27.2707  -26.5335   20.5527 C   0  0  0  0  0  0  0  0  0  0  0  0
  -28.8905  -19.8134   21.1422 C   0  0  0  0  0  0  0  0  0  0  0  0
  -20.8251  -20.7918   20.3286 C   0  0  0  0  0  0  0  0  0  0  0  0
  -27.8688  -20.6834   21.8674 C   0  0  0  0  0  0  0  0  0  0  0  0
  -21.2277  -19.3711   20.7283 C   0  0  0  0  0  0  0  0  0  0  0  0
  -21.6938  -21.8309   21.0313 C   0  0  0  0  0  0  0  0  0  0  0  0
  -22.1080  -20.3016   22.9190 C   0  0  0  0  0  0  0  0  0  0  0  0
  -26.7046  -21.0556   20.9413 C   0  0  1  0  0  0  0  0  0  0  0  0
  -27.5041  -24.3775   19.2801 C   0  0  1  0  0  0  0  0  0  0  0  0
  -21.2518  -19.2053   22.2593 C   0  0  2  0  0  0  0  0  0  0  0  0
  -17.4126  -27.3331   20.9460 C   0  0  0  0  0  0  0  0  0  0  0  0
  -20.5919  -30.4101   24.6123 C   0  0  0  0  0  0  0  0  0  0  0  0
  -32.6929  -30.1194   19.6116 C   0  0  0  0  0  0  0  0  0  0  0  0
  -29.9855  -25.1796   23.0958 C   0  0  0  0  0  0  0  0  0  0  0  0
  -31.4116  -27.2366   23.0424 C   0  0  0  0  0  0  0  0  0  0  0  0
  -32.0768  -25.2255   21.7250 C   0  0  0  0  0  0  0  0  0  0  0  0
  -29.8670  -29.7541   17.0903 C   0  0  0  0  0  0  0  0  0  0  0  0
  -20.4085  -24.8683   23.8308 C   0  0  0  0  0  0  0  0  0  0  0  0
  -21.8800  -29.9075   23.9712 C   0  0  0  0  0  0  0  0  0  0  0  0
  -23.0296  -28.9708   21.9258 C   0  0  0  0  0  0  0  0  0  1  0  0
  -21.6778  -29.3776   22.5361 C   0  0  1  0  0  0  0  0  0  0  0  0
  -30.1116  -26.6173   20.9550 C   0  0  1  0  0  0  0  0  0  0  0  0
  -31.6122  -29.3805   18.8377 C   0  0  2  0  0  0  0  0  0  0  0  0
  -30.8694  -26.0656   22.1954 C   0  0  0  0  0  0  0  0  0  0  0  0
  -22.5930  -17.1673   21.8990 N   0  0  0  0  0  0  0  0  0  0  0  0
  -18.9361  -26.1315   22.3923 N   0  0  0  0  0  0  0  0  0  0  0  0
  -20.9970  -27.1131   23.1645 N   0  0  0  0  0  0  0  0  0  0  0  0
  -21.6998  -17.8140   22.6671 N   0  0  0  0  0  0  0  0  0  0  0  0
  -28.1426  -25.5244   19.9290 N   0  0  0  0  0  0  0  0  0  0  0  0
  -21.6585  -21.6291   22.4867 N   0  0  0  0  0  0  0  0  0  0  0  0
  -20.4019  -17.6061   24.6376 N   0  0  0  0  0  0  0  0  0  0  0  0
  -22.6296  -13.6826   24.4385 N   0  0  0  0  0  0  0  0  0  0  0  0
  -27.0973  -22.1147   20.0365 N   0  0  0  0  0  0  0  0  0  0  0  0
  -30.9314  -27.4377   20.0700 N   0  0  0  0  0  0  0  0  0  0  0  0
  -20.8535  -23.8029   22.9602 N   0  0  0  0  0  0  0  0  0  0  0  0
  -30.9379  -30.3507   17.9294 N   0  3  0  0  0  0  0  0  0  0  0  0
  -21.1013  -14.8971   25.6419 O   0  0  0  0  0  0  0  0  0  0  0  0
  -26.6775  -23.9214   21.4443 O   0  0  0  0  0  0  0  0  0  0  0  0
  -30.2917  -24.6867   19.5886 O   0  0  0  0  0  0  0  0  0  0  0  0
  -29.6179  -29.3441   20.2012 O   0  0  0  0  0  0  0  0  0  0  0  0
  -21.2562  -22.3219   24.6630 O   0  0  0  0  0  0  0  0  0  0  0  0
  -26.2614  -12.1536   20.5006 O   0  0  0  0  0  0  0  0  0  0  0  0
  -22.8551  -28.6406   20.5485 O   0  0  0  0  0  0  0  0  0  1  0  0
  -31.2170  -13.8549   18.7827 F   0  0  0  0  0  0  0  0  0  0  0  0
  -26.4968  -14.0098   18.4654 F   0  0  0  0  0  0  0  0  0  0  0  0
  1  2  1  0  0  0  0
  1  5  2  0  0  0  0
  2  6  2  0  0  0  0
  3  8  2  0  0  0  0
  3 16  1  0  0  0  0
  4  9  1  0  0  0  0
  4 16  2  0  0  0  0
  5 18  1  0  0  0  0
  6 20  1  0  0  0  0
  7 10  2  0  0  0  0
  7 19  1  0  0  0  0
  8 22  1  0  0  0  0
  9 22  2  0  0  0  0
 10 23  1  0  0  0  0
 11 12  2  0  0  0  0
 11 24  1  0  0  0  0
 12 25  1  0  0  0  0
 13 21  1  0  0  0  0
 13 23  2  0  0  0  0
 14 25  2  0  0  0  0
 14 26  1  0  0  0  0
 15 28  2  0  0  0  0
 15 29  1  0  0  0  0
 16 27  1  0  0  0  0
 17 27  1  0  0  0  0
 17 30  2  0  0  0  0
 17 32  1  0  0  0  0
 18 20  2  0  0  0  0
 18 37  1  0  0  0  0
 19 21  2  0  0  0  0
 19 38  1  0  0  0  0
 20 46  1  0  0  0  0
 21 39  1  0  0  0  0
 22 80  1  0  0  0  0
 23 81  1  0  0  0  0
 24 26  2  0  0  0  0
 24 80  1  0  0  0  0
 25 82  1  0  0  0  0
 26 83  1  0  0  0  0
 27 63  2  0  0  0  0
 28 49  1  0  0  0  0
 28 64  1  0  0  0  0
 29 59  1  0  0  0  0
 29 65  2  0  0  0  0
 30 66  1  0  0  0  0
 30 69  1  0  0  0  0
 31 56  1  0  0  0  0
 31 64  2  0  0  0  0
 31 65  1  0  0  0  0
 32 70  1  0  0  0  0
 32 75  2  0  0  0  0
 33 47  1  0  0  0  0
 33 71  1  0  0  0  0
 33 76  2  0  0  0  0
 34 60  1  0  0  0  0
 34 67  1  0  0  0  0
 34 77  2  0  0  0  0
 35 61  1  0  0  0  0
 35 72  1  0  0  0  0
 35 78  2  0  0  0  0
 36 68  1  0  0  0  0
 36 73  1  0  0  0  0
 36 79  2  0  0  0  0
 37 40  1  0  0  0  0
 38 47  1  0  0  0  0
 39 67  1  0  0  0  0
 40 42  1  0  0  0  0
 41 43  1  0  0  0  0
 41 44  1  0  0  0  0
 42 46  1  0  0  0  0
 43 48  1  0  0  0  0
 44 68  1  0  0  0  0
 45 48  1  0  0  0  0
 45 68  1  0  0  0  0
 46 71  1  0  0  0  0
 47 67  1  0  0  0  0
 48 66  1  0  0  0  0
 50 57  1  0  0  0  0
 51 61  1  0  0  0  0
 52 62  1  0  0  0  0
 53 62  1  0  0  0  0
 54 62  1  0  0  0  0
 55 74  1  0  0  0  0
 56 73  1  0  0  0  0
 57 59  1  0  0  0  0
 58 59  1  0  0  0  0
 58 81  1  0  0  0  0
 60 62  1  0  0  0  0
 60 72  1  0  0  0  0
 61 74  1  0  0  0  0
 63 66  1  0  0  0  0
M  CHG  1  74   1
M  ISO  4  36 100  58 101  73 100  81 101
M  END
> <Batch ID>
0180

> <Smiles>
CCC(c1cc(C)nc(C[100NH:0][100C:0](=O)N2CCCC(n3nc(-c4ccc(Oc5ccc(F)cc5F)cc4)c(C(N)=O)c3N)C2)n1)[101CH2:1][101O:1]c1ccc2c(c1)CN(C(=O)C(NC(=O)C(C)NC)C(C)(C)C)C(C(=O)NC1CCCc3ccccc31)C2

> <Shape>
0.212

> <Color>
0.052

> <Negative vol penalty>
0.000

$$$$

  -OEChem-04052323003D

 84 93  0     1  0  0  0  0  0999 V2000
  -28.9580  -23.8757   17.9039 C   0  0  0  0  0  0  0  0  0  0  0  0
  -27.7471  -24.4888   18.2055 C   0  0  0  0  0  0  0  0  0  0  0  0
  -28.8816  -17.5681   22.5625 C   0  0  0  0  0  0  0  0  0  0  0  0
  -27.5593  -17.3624   20.5510 C   0  0  0  0  0  0  0  0  0  0  0  0
  -30.0974  -24.1917   18.6407 C   0  0  0  0  0  0  0  0  0  0  0  0
  -27.6779  -25.4269   19.2361 C   0  0  0  0  0  0  0  0  0  0  0  0
  -23.4269  -27.8436   19.7766 C   0  0  0  0  0  0  0  0  0  0  0  0
  -29.7161  -16.5422   22.1189 C   0  0  0  0  0  0  0  0  0  0  0  0
  -28.3938  -16.3364   20.1073 C   0  0  0  0  0  0  0  0  0  0  0  0
  -22.2746  -27.2390   20.2769 C   0  0  0  0  0  0  0  0  0  0  0  0
  -28.8170  -13.0355   20.7039 C   0  0  0  0  0  0  0  0  0  0  0  0
  -28.2154  -11.8967   20.1683 C   0  0  0  0  0  0  0  0  0  0  0  0
  -22.6277  -28.3345   22.3970 C   0  0  0  0  0  0  0  0  0  0  0  0
  -29.3587  -12.2777   18.0743 C   0  0  0  0  0  0  0  0  0  0  0  0
  -18.9445  -24.5246   22.8393 C   0  0  0  0  0  0  0  0  0  0  0  0
  -27.8032  -17.9782   21.7785 C   0  0  0  0  0  0  0  0  0  0  0  0
  -27.0882  -20.4171   21.9980 C   0  0  0  0  0  0  0  0  0  0  0  0
  -30.0386  -25.1250   19.6888 C   0  0  0  0  0  0  0  0  0  0  0  0
  -24.1956  -28.6910   20.5874 C   0  0  0  0  0  0  0  0  0  0  0  0
  -28.8220  -25.7770   19.9756 C   0  0  0  0  0  0  0  0  0  0  0  0
  -23.7880  -28.9506   21.9037 C   0  0  0  0  0  0  0  0  0  0  0  0
  -29.4722  -15.9263   20.8914 C   0  0  0  0  0  0  0  0  0  0  0  0
  -21.8764  -27.4821   21.5882 C   0  0  0  0  0  0  0  0  0  0  0  0
  -29.6893  -13.7955   19.9247 C   0  0  0  0  0  0  0  0  0  0  0  0
  -28.4863  -11.5178   18.8535 C   0  0  0  0  0  0  0  0  0  0  0  0
  -29.9602  -13.4165   18.6099 C   0  0  0  0  0  0  0  0  0  0  0  0
  -26.9406  -19.0375   22.2364 C   0  0  0  0  0  0  0  0  0  0  0  0
  -17.7699  -24.1028   23.4282 C   0  0  0  0  0  0  0  0  0  0  0  0
  -18.8130  -25.5152   21.8877 C   0  0  0  0  0  0  0  0  0  0  0  0
  -26.0196  -20.9929   22.6406 C   0  0  0  0  0  0  0  0  0  0  0  0
  -16.5589  -25.5639   22.1769 C   0  0  0  0  0  0  0  0  0  0  0  0
  -28.1008  -21.1156   21.2615 C   0  0  0  0  0  0  0  0  0  0  0  0
  -27.1774  -28.6454   21.6875 C   0  0  0  0  0  0  0  0  0  0  0  0
  -26.4036  -31.5981   22.7854 C   0  0  0  0  0  0  0  0  0  0  0  0
  -23.9662  -33.7848   23.7467 C   0  0  0  0  0  0  0  0  0  0  0  0
  -20.6913  -18.7134   24.0776 C   0  0  0  0  0  0  0  0  0  0  0  0
  -31.3040  -25.4355   20.4488 C   0  0  0  0  0  0  0  0  0  0  0  0
  -25.4213  -29.3565   20.0243 C   0  0  0  0  0  0  0  0  0  0  0  0
  -24.5671  -29.8683   22.8087 C   0  0  0  0  0  0  0  0  0  0  0  0
  -31.0405  -26.1002   21.7960 C   0  0  0  0  0  0  0  0  0  0  0  0
  -23.0722  -20.3249   26.3482 C   0  0  0  0  0  0  0  0  0  0  0  0
  -30.0784  -27.2657   21.6212 C   0  0  0  0  0  0  0  0  0  0  0  0
  -24.3577  -20.2840   25.5202 C   0  0  0  0  0  0  0  0  0  0  0  0
  -22.2167  -19.0906   26.0890 C   0  0  0  0  0  0  0  0  0  0  0  0
  -23.1463  -18.8286   23.8251 C   0  0  0  0  0  0  0  0  0  0  0  0
  -18.1918  -19.1872   24.2549 C   0  0  0  0  0  0  0  0  0  0  0  0
  -19.3539  -20.3640   25.6041 C   0  0  0  0  0  0  0  0  0  0  0  0
  -28.7162  -26.7777   21.1122 C   0  0  1  0  0  0  0  0  0  0  0  0
  -26.4101  -29.7958   21.0998 C   0  0  1  0  0  0  0  0  0  0  0  0
  -24.0537  -20.0561   24.0279 C   0  0  2  0  0  0  0  0  0  0  0  0
  -18.0102  -20.5690   24.8920 C   0  0  0  0  0  0  0  0  0  0  0  0
  -15.2347  -26.1440   21.8112 C   0  0  0  0  0  0  0  0  0  0  0  0
  -23.6438  -36.1112   24.6305 C   0  0  0  0  0  0  0  0  0  0  0  0
  -27.3100  -30.6717   25.5476 C   0  0  0  0  0  0  0  0  0  0  0  0
  -26.1049  -32.6364   26.5253 C   0  0  0  0  0  0  0  0  0  0  0  0
  -28.0034  -32.9985   24.9482 C   0  0  0  0  0  0  0  0  0  0  0  0
  -22.3807  -34.5886   21.3805 C   0  0  0  0  0  0  0  0  0  0  0  0
  -17.8119  -23.0293   24.4755 C   0  0  0  0  0  0  0  0  0  0  0  0
  -20.0285  -26.0370   21.1972 C   0  0  0  0  0  0  0  0  0  1  0  0
  -25.7982  -32.1410   24.0572 C   0  0  1  0  0  0  0  0  0  0  0  0
  -23.7184  -35.2386   23.3872 C   0  0  2  0  0  0  0  0  0  0  0  0
  -26.7903  -32.0930   25.2534 C   0  0  0  0  0  0  0  0  0  0  0  0
  -25.8631  -18.7540   22.9731 N   0  0  0  0  0  0  0  0  0  0  0  0
  -16.5552  -24.6025   23.1199 N   0  0  0  0  0  0  0  0  0  0  0  0
  -17.6313  -26.0595   21.5304 N   0  0  0  0  0  0  0  0  0  0  0  0
  -25.3241  -19.9634   23.2032 N   0  0  0  0  0  0  0  0  0  0  0  0
  -25.7617  -30.4903   22.2140 N   0  0  0  0  0  0  0  0  0  0  0  0
  -21.9432  -18.9359   24.6570 N   0  0  0  0  0  0  0  0  0  0  0  0
  -19.5847  -19.2550   24.6901 N   0  0  0  0  0  0  0  0  0  0  0  0
  -25.6164  -22.2744   22.7737 N   0  0  0  0  0  0  0  0  0  0  0  0
  -29.1266  -20.3703   20.6643 N   0  0  0  0  0  0  0  0  0  0  0  0
  -27.9054  -27.9230   20.7615 N   0  0  0  0  0  0  0  0  0  0  0  0
  -25.3106  -33.4786   23.7386 N   0  0  0  0  0  0  0  0  0  0  0  0
  -18.0419  -21.6655   23.9076 N   0  3  0  0  0  0  0  0  0  0  0  0
  -22.4369  -35.3761   22.6390 N   0  3  0  0  0  0  0  0  0  0  0  0
  -28.1051  -22.3651   21.1505 O   0  0  0  0  0  0  0  0  0  0  0  0
  -27.1149  -28.4301   22.8923 O   0  0  0  0  0  0  0  0  0  0  0  0
  -27.4049  -32.1414   22.3122 O   0  0  0  0  0  0  0  0  0  0  0  0
  -23.0582  -33.0001   24.0121 O   0  0  0  0  0  0  0  0  0  0  0  0
  -20.5646  -18.0768   23.0231 O   0  0  0  0  0  0  0  0  0  0  0  0
  -30.2864  -14.9254   20.4581 O   0  0  0  0  0  0  0  0  0  0  0  0
  -20.7446  -26.8887   22.0828 O   0  0  0  0  0  0  0  0  0  1  0  0
  -27.9097  -10.4233   18.3398 F   0  0  0  0  0  0  0  0  0  0  0  0
  -30.7984  -14.1419   17.8568 F   0  0  0  0  0  0  0  0  0  0  0  0
  1  2  1  0  0  0  0
  1  5  2  0  0  0  0
  2  6  2  0  0  0  0
  3  8  2  0  0  0  0
  3 16  1  0  0  0  0
  4  9  1  0  0  0  0
  4 16  2  0  0  0  0
  5 18  1  0  0  0  0
  6 20  1  0  0  0  0
  7 10  2  0  0  0  0
  7 19  1  0  0  0  0
  8 22  1  0  0  0  0
  9 22  2  0  0  0  0
 10 23  1  0  0  0  0
 11 12  2  0  0  0  0
 11 24  1  0  0  0  0
 12 25  1  0  0  0  0
 13 21  1  0  0  0  0
 13 23  2  0  0  0  0
 14 25  2  0  0  0  0
 14 26  1  0  0  0  0
 15 28  2  0  0  0  0
 15 29  1  0  0  0  0
 16 27  1  0  0  0  0
 17 27  1  0  0  0  0
 17 30  2  0  0  0  0
 17 32  1  0  0  0  0
 18 20  2  0  0  0  0
 18 37  1  0  0  0  0
 19 21  2  0  0  0  0
 19 38  1  0  0  0  0
 20 48  1  0  0  0  0
 21 39  1  0  0  0  0
 22 81  1  0  0  0  0
 23 82  1  0  0  0  0
 24 26  2  0  0  0  0
 24 81  1  0  0  0  0
 25 83  1  0  0  0  0
 26 84  1  0  0  0  0
 27 63  2  0  0  0  0
 28 58  1  0  0  0  0
 28 64  1  0  0  0  0
 29 59  1  0  0  0  0
 29 65  2  0  0  0  0
 30 66  1  0  0  0  0
 30 70  1  0  0  0  0
 31 52  1  0  0  0  0
 31 64  2  0  0  0  0
 31 65  1  0  0  0  0
 32 71  1  0  0  0  0
 32 76  2  0  0  0  0
 33 49  1  0  0  0  0
 33 72  1  0  0  0  0
 33 77  2  0  0  0  0
 34 60  1  0  0  0  0
 34 67  1  0  0  0  0
 34 78  2  0  0  0  0
 35 61  1  0  0  0  0
 35 73  1  0  0  0  0
 35 79  2  0  0  0  0
 36 68  1  0  0  0  0
 36 69  1  0  0  0  0
 36 80  2  0  0  0  0
 37 40  1  0  0  0  0
 38 49  1  0  0  0  0
 39 67  1  0  0  0  0
 40 42  1  0  0  0  0
 41 43  1  0  0  0  0
 41 44  1  0  0  0  0
 42 48  1  0  0  0  0
 43 50  1  0  0  0  0
 44 68  1  0  0  0  0
 45 50  1  0  0  0  0
 45 68  1  0  0  0  0
 46 51  1  0  0  0  0
 46 69  1  0  0  0  0
 47 51  1  0  0  0  0
 47 69  1  0  0  0  0
 48 72  1  0  0  0  0
 49 67  1  0  0  0  0
 50 66  1  0  0  0  0
 51 74  1  0  0  0  0
 53 61  1  0  0  0  0
 54 62  1  0  0  0  0
 55 62  1  0  0  0  0
 56 62  1  0  0  0  0
 57 75  1  0  0  0  0
 58 74  1  0  0  0  0
 59 82  1  0  0  0  0
 60 62  1  0  0  0  0
 60 73  1  0  0  0  0
 61 75  1  0  0  0  0
 63 66  1  0  0  0  0
M  CHG  2  74   1  75   1
M  ISO  4  36 100  59 101  69 100  82 101
M  END
> <Batch ID>
0180

> <Smiles>
CNC(C)C(=O)NC(C(=O)N1Cc2cc([101O:1][101CH2:1]c3cc(CNC4C[100N:0]([100C:0](=O)N5CCCC(n6nc(-c7ccc(Oc8ccc(F)cc8F)cc7)c(C(N)=O)c6N)C5)C4)nc(C)n3)ccc2CC1C(=O)NC1CCCc2ccccc21)C(C)(C)C

> <Shape>
0.276

> <Color>
0.056

> <Negative vol penalty>
0.000

$$$$

  -OEChem-04052323003D

 84 93  0     1  0  0  0  0  0999 V2000
  -24.2340  -11.7063   20.3192 C   0  0  0  0  0  0  0  0  0  0  0  0
  -23.6370  -12.9339   20.0509 C   0  0  0  0  0  0  0  0  0  0  0  0
  -29.1161  -26.6389   17.2931 C   0  0  0  0  0  0  0  0  0  0  0  0
  -29.4690  -28.9382   16.6406 C   0  0  0  0  0  0  0  0  0  0  0  0
  -25.4196  -11.6541   21.0510 C   0  0  0  0  0  0  0  0  0  0  0  0
  -24.2247  -14.1101   20.5154 C   0  0  0  0  0  0  0  0  0  0  0  0
  -24.2601  -19.5602   17.7223 C   0  0  0  0  0  0  0  0  0  0  0  0
  -29.5366  -26.2165   16.0320 C   0  0  0  0  0  0  0  0  0  0  0  0
  -29.8895  -28.5158   15.3795 C   0  0  0  0  0  0  0  0  0  0  0  0
  -23.4769  -20.7021   17.8841 C   0  0  0  0  0  0  0  0  0  0  0  0
  -28.2409  -26.0008   12.9177 C   0  0  0  0  0  0  0  0  0  0  0  0
  -27.4847  -25.0183   12.2787 C   0  0  0  0  0  0  0  0  0  0  0  0
  -25.1563  -21.6406   19.3394 C   0  0  0  0  0  0  0  0  0  0  0  0
  -29.4161  -23.5678   12.2233 C   0  0  0  0  0  0  0  0  0  0  0  0
  -20.6448  -24.4192   19.6681 C   0  0  0  0  0  0  0  0  0  0  0  0
  -29.0822  -27.9997   17.5974 C   0  0  0  0  0  0  0  0  0  0  0  0
  -29.4480  -28.6377   20.0401 C   0  0  0  0  0  0  0  0  0  0  0  0
  -26.0273  -12.8309   21.5164 C   0  0  0  0  0  0  0  0  0  0  0  0
  -25.4945  -19.4450   18.3777 C   0  0  0  0  0  0  0  0  0  0  0  0
  -25.4188  -14.0735   21.2553 C   0  0  0  0  0  0  0  0  0  0  0  0
  -25.9545  -20.4972   19.1823 C   0  0  0  0  0  0  0  0  0  0  0  0
  -29.9233  -27.1549   15.0752 C   0  0  0  0  0  0  0  0  0  0  0  0
  -23.9236  -21.7414   18.6950 C   0  0  0  0  0  0  0  0  0  0  0  0
  -29.5847  -25.7669   13.2095 C   0  0  0  0  0  0  0  0  0  0  0  0
  -28.0723  -23.8018   11.9315 C   0  0  0  0  0  0  0  0  0  0  0  0
  -30.1723  -24.5504   12.8623 C   0  0  0  0  0  0  0  0  0  0  0  0
  -28.6474  -28.4367   18.8997 C   0  0  0  0  0  0  0  0  0  0  0  0
  -21.2398  -24.2071   18.4412 C   0  0  0  0  0  0  0  0  0  0  0  0
  -20.0495  -25.6526   19.8377 C   0  0  0  0  0  0  0  0  0  0  0  0
  -28.5668  -29.0490   21.0101 C   0  0  0  0  0  0  0  0  0  0  0  0
  -20.6439  -26.2845   17.7366 C   0  0  0  0  0  0  0  0  0  0  0  0
  -30.8618  -28.4678   20.2077 C   0  0  0  0  0  0  0  0  0  0  0  0
  -26.7048  -17.4648   20.5497 C   0  0  0  0  0  0  0  0  0  0  0  0
  -29.4344  -19.1180   19.9676 C   0  0  0  0  0  0  0  0  0  0  0  0
  -30.8986  -22.0003   18.8742 C   0  0  0  0  0  0  0  0  0  0  0  0
  -22.7206  -28.0435   21.5675 C   0  0  0  0  0  0  0  0  0  0  0  0
  -27.2834  -12.7210   22.3439 C   0  0  0  0  0  0  0  0  0  0  0  0
  -26.3397  -18.2180   18.1716 C   0  0  0  0  0  0  0  0  0  0  0  0
  -27.2816  -20.4314   19.8916 C   0  0  0  0  0  0  0  0  0  0  0  0
  -28.0410  -14.0393   22.4790 C   0  0  0  0  0  0  0  0  0  0  0  0
  -24.4157  -31.3205   21.5925 C   0  0  0  0  0  0  0  0  0  0  0  0
  -27.0818  -15.1730   22.8274 C   0  0  0  0  0  0  0  0  0  0  0  0
  -25.7542  -30.9633   20.9528 C   0  0  0  0  0  0  0  0  0  0  0  0
  -18.4098  -27.2685   22.8741 C   0  0  0  0  0  0  0  0  0  0  0  0
  -19.4532  -28.2040   23.5219 C   0  0  0  0  0  0  0  0  0  0  0  0
  -23.2672  -30.4904   21.0207 C   0  0  0  0  0  0  0  0  0  0  0  0
  -24.8423  -28.6622   20.4544 C   0  0  0  0  0  0  0  0  0  0  0  0
  -26.0390  -15.3730   21.7209 C   0  0  1  0  0  0  0  0  0  0  0  0
  -27.3453  -17.9894   19.2958 C   0  0  1  0  0  0  0  0  0  0  0  0
  -26.0166  -29.4528   21.0514 C   0  0  1  0  0  0  0  0  0  0  0  0
  -19.3386  -27.2133   21.6417 C   0  0  1  0  0  0  0  0  0  0  0  0
  -20.5088  -27.5462   22.6004 C   0  0  1  0  0  0  0  0  0  0  0  0
  -20.6432  -27.3202   16.6640 C   0  0  0  0  0  0  0  0  0  0  0  0
  -32.7399  -23.5649   18.1967 C   0  0  0  0  0  0  0  0  0  0  0  0
  -29.6281  -19.6115   22.9725 C   0  0  0  0  0  0  0  0  0  0  0  0
  -31.2899  -21.4228   22.4974 C   0  0  0  0  0  0  0  0  0  0  0  0
  -31.8017  -19.0653   21.8627 C   0  0  0  0  0  0  0  0  0  0  0  0
  -30.8494  -21.0326   16.0778 C   0  0  0  0  0  0  0  0  0  0  0  0
  -21.9136  -22.8957   18.1628 C   0  0  0  0  0  0  0  0  0  1  0  0
  -30.0764  -20.3578   20.5418 C   0  0  1  0  0  0  0  0  0  0  0  0
  -32.0426  -22.2448   17.9069 C   0  0  2  0  0  0  0  0  0  0  0  0
  -30.6731  -20.1151   21.9569 C   0  0  0  0  0  0  0  0  0  0  0  0
  -27.3569  -28.6987   19.1231 N   0  0  0  0  0  0  0  0  0  0  0  0
  -21.2582  -25.1211   17.4490 N   0  0  0  0  0  0  0  0  0  0  0  0
  -20.0303  -26.6124   18.8897 N   0  0  0  0  0  0  0  0  0  0  0  0
  -27.3398  -29.0683   20.4150 N   0  0  0  0  0  0  0  0  0  0  0  0
  -28.0687  -19.2083   19.6635 N   0  0  0  0  0  0  0  0  0  0  0  0
  -23.5654  -29.0502   21.0661 N   0  0  0  0  0  0  0  0  0  0  0  0
  -28.7296  -29.3924   22.3055 N   0  0  0  0  0  0  0  0  0  0  0  0
  -31.6181  -28.0390   19.1084 N   0  0  0  0  0  0  0  0  0  0  0  0
  -19.4271  -25.9105   21.0837 N   0  0  0  0  0  0  0  0  0  0  0  0
  -26.6186  -16.0867   20.6033 N   0  0  0  0  0  0  0  0  0  0  0  0
  -31.0491  -20.8093   19.5526 N   0  0  0  0  0  0  0  0  0  0  0  0
  -21.4912  -28.4717   22.0555 N   0  0  0  0  0  0  0  0  0  0  0  0
  -31.5376  -22.2779   16.5051 N   0  3  0  0  0  0  0  0  0  0  0  0
  -31.4349  -28.6739   21.3043 O   0  0  0  0  0  0  0  0  0  0  0  0
  -26.3189  -18.2520   21.4059 O   0  0  0  0  0  0  0  0  0  0  0  0
  -30.1210  -18.1090   19.7887 O   0  0  0  0  0  0  0  0  0  0  0  0
  -29.9667  -22.7889   19.0168 O   0  0  0  0  0  0  0  0  0  0  0  0
  -23.0347  -26.8481   21.5755 O   0  0  0  0  0  0  0  0  0  0  0  0
  -30.3340  -26.7431   13.8447 O   0  0  0  0  0  0  0  0  0  0  0  0
  -23.1608  -22.8568   18.8551 O   0  0  0  0  0  0  0  0  0  1  0  0
  -27.3456  -22.8578   11.3192 F   0  0  0  0  0  0  0  0  0  0  0  0
  -31.4626  -24.3195   13.1411 F   0  0  0  0  0  0  0  0  0  0  0  0
  1  2  1  0  0  0  0
  1  5  2  0  0  0  0
  2  6  2  0  0  0  0
  3  8  2  0  0  0  0
  3 16  1  0  0  0  0
  4  9  1  0  0  0  0
  4 16  2  0  0  0  0
  5 18  1  0  0  0  0
  6 20  1  0  0  0  0
  7 10  2  0  0  0  0
  7 19  1  0  0  0  0
  8 22  1  0  0  0  0
  9 22  2  0  0  0  0
 10 23  1  0  0  0  0
 11 12  2  0  0  0  0
 11 24  1  0  0  0  0
 12 25  1  0  0  0  0
 13 21  1  0  0  0  0
 13 23  2  0  0  0  0
 14 25  2  0  0  0  0
 14 26  1  0  0  0  0
 15 28  1  0  0  0  0
 15 29  2  0  0  0  0
 16 27  1  0  0  0  0
 17 27  1  0  0  0  0
 17 30  2  0  0  0  0
 17 32  1  0  0  0  0
 18 20  2  0  0  0  0
 18 37  1  0  0  0  0
 19 21  2  0  0  0  0
 19 38  1  0  0  0  0
 20 48  1  0  0  0  0
 21 39  1  0  0  0  0
 22 81  1  0  0  0  0
 23 82  1  0  0  0  0
 24 26  2  0  0  0  0
 24 81  1  0  0  0  0
 25 83  1  0  0  0  0
 26 84  1  0  0  0  0
 27 63  2  0  0  0  0
 28 59  1  0  0  0  0
 28 64  2  0  0  0  0
 29 65  1  0  0  0  0
 29 71  1  0  0  0  0
 30 66  1  0  0  0  0
 30 69  1  0  0  0  0
 31 53  1  0  0  0  0
 31 64  1  0  0  0  0
 31 65  2  0  0  0  0
 32 70  1  0  0  0  0
 32 76  2  0  0  0  0
 33 49  1  0  0  0  0
 33 72  1  0  0  0  0
 33 77  2  0  0  0  0
 34 60  1  0  0  0  0
 34 67  1  0  0  0  0
 34 78  2  0  0  0  0
 35 61  1  0  0  0  0
 35 73  1  0  0  0  0
 35 79  2  0  0  0  0
 36 68  1  0  0  0  0
 36 74  1  0  0  0  0
 36 80  2  0  0  0  0
 37 40  1  0  0  0  0
 38 49  1  0  0  0  0
 39 67  1  0  0  0  0
 40 42  1  0  0  0  0
 41 43  1  0  0  0  0
 41 46  1  0  0  0  0
 42 48  1  0  0  0  0
 43 50  1  0  0  0  0
 44 45  1  0  0  0  0
 44 51  1  0  0  0  0
 45 52  1  0  0  0  0
 46 68  1  0  0  0  0
 47 50  1  0  0  0  0
 47 68  1  0  0  0  0
 48 72  1  0  0  0  0
 49 67  1  0  0  0  0
 50 66  1  0  0  0  0
 51 52  1  0  0  0  0
 51 71  1  0  0  0  0
 52 74  1  0  0  0  0
 54 61  1  0  0  0  0
 55 62  1  0  0  0  0
 56 62  1  0  0  0  0
 57 62  1  0  0  0  0
 58 75  1  0  0  0  0
 59 82  1  0  0  0  0
 60 62  1  0  0  0  0
 60 73  1  0  0  0  0
 61 75  1  0  0  0  0
 63 66  1  0  0  0  0
M  CHG  1  75   1
M  ISO  4  36 100  59 101  74 100  82 101
M  END
> <Batch ID>
0180

> <Smiles>
CNC(C)C(=O)NC(C(=O)N1Cc2cc([101O:1][101CH2:1]c3cc(NC4CCC4[100NH:0][100C:0](=O)N4CCCC(n5nc(-c6ccc(Oc7ccc(F)cc7F)cc6)c(C(N)=O)c5N)C4)nc(C)n3)ccc2CC1C(=O)NC1CCCc2ccccc21)C(C)(C)C

> <Shape>
0.194

> <Color>
0.082

> <Negative vol penalty>
0.000

$$$$

  -OEChem-04052323003D

 84 93  0     1  0  0  0  0  0999 V2000
  -26.2315  -36.8680   22.3618 C   0  0  0  0  0  0  0  0  0  0  0  0
  -26.8541  -35.7046   21.9212 C   0  0  0  0  0  0  0  0  0  0  0  0
  -24.6982   -9.7416   21.7210 C   0  0  0  0  0  0  0  0  0  0  0  0
  -22.8566  -10.9198   20.6927 C   0  0  0  0  0  0  0  0  0  0  0  0
  -25.1873  -36.7927   23.2826 C   0  0  0  0  0  0  0  0  0  0  0  0
  -26.4335  -34.4651   22.4021 C   0  0  0  0  0  0  0  0  0  0  0  0
  -26.2836  -29.1772   19.3164 C   0  0  0  0  0  0  0  0  0  0  0  0
  -23.7985   -9.0192   22.5047 C   0  0  0  0  0  0  0  0  0  0  0  0
  -21.9569  -10.1974   21.4764 C   0  0  0  0  0  0  0  0  0  0  0  0
  -27.1569  -28.0912   19.2733 C   0  0  0  0  0  0  0  0  0  0  0  0
  -21.7302   -6.3718   22.1232 C   0  0  0  0  0  0  0  0  0  0  0  0
  -21.9297   -4.9961   22.2379 C   0  0  0  0  0  0  0  0  0  0  0  0
  -25.8162  -26.9551   20.9259 C   0  0  0  0  0  0  0  0  0  0  0  0
  -22.1662   -5.2299   24.6309 C   0  0  0  0  0  0  0  0  0  0  0  0
  -29.0833  -23.5511   18.8815 C   0  0  0  0  0  0  0  0  0  0  0  0
  -24.2273  -10.6920   20.8150 C   0  0  0  0  0  0  0  0  0  0  0  0
  -25.6446  -11.0912   18.7318 C   0  0  0  0  0  0  0  0  0  0  0  0
  -24.7473  -35.5511   23.7677 C   0  0  0  0  0  0  0  0  0  0  0  0
  -25.1742  -29.1647   20.1741 C   0  0  0  0  0  0  0  0  0  0  0  0
  -25.3834  -34.3732   23.3313 C   0  0  0  0  0  0  0  0  0  0  0  0
  -24.9289  -28.0411   20.9762 C   0  0  0  0  0  0  0  0  0  0  0  0
  -22.4279   -9.2470   22.3824 C   0  0  0  0  0  0  0  0  0  0  0  0
  -26.9249  -26.9812   20.0802 C   0  0  0  0  0  0  0  0  0  0  0  0
  -21.7487   -7.1766   23.2623 C   0  0  0  0  0  0  0  0  0  0  0  0
  -22.1477   -4.4251   23.4917 C   0  0  0  0  0  0  0  0  0  0  0  0
  -21.9667   -6.6056   24.5161 C   0  0  0  0  0  0  0  0  0  0  0  0
  -25.1562  -11.4390   20.0055 C   0  0  0  0  0  0  0  0  0  0  0  0
  -29.6827  -24.7503   19.2089 C   0  0  0  0  0  0  0  0  0  0  0  0
  -29.8933  -22.4369   18.9634 C   0  0  0  0  0  0  0  0  0  0  0  0
  -26.4897  -12.1203   18.3954 C   0  0  0  0  0  0  0  0  0  0  0  0
  -31.6575  -23.7061   19.6294 C   0  0  0  0  0  0  0  0  0  0  0  0
  -25.3597   -9.9407   17.9249 C   0  0  0  0  0  0  0  0  0  0  0  0
  -24.2235  -30.9342   22.6376 C   0  0  0  0  0  0  0  0  0  0  0  0
  -21.5504  -29.1101   22.4152 C   0  0  0  0  0  0  0  0  0  0  0  0
  -20.1155  -26.1843   21.4016 C   0  0  0  0  0  0  0  0  0  0  0  0
  -27.7646  -17.3218   17.9928 C   0  0  0  0  0  0  0  0  0  0  0  0
  -23.6463  -35.5230   24.7980 C   0  0  0  0  0  0  0  0  0  0  0  0
  -24.2268  -30.3329   20.1892 C   0  0  0  0  0  0  0  0  0  0  0  0
  -23.7409  -27.9697   21.8992 C   0  0  0  0  0  0  0  0  0  0  0  0
  -23.0119  -34.1458   24.9742 C   0  0  0  0  0  0  0  0  0  0  0  0
  -28.3307  -15.9223   21.1646 C   0  0  0  0  0  0  0  0  0  0  0  0
  -24.0895  -33.0720   25.0859 C   0  0  0  0  0  0  0  0  0  0  0  0
  -27.5884  -14.5916   21.0463 C   0  0  0  0  0  0  0  0  0  0  0  0
  -27.5612  -17.0683   20.5057 C   0  0  0  0  0  0  0  0  0  0  0  0
  -30.1680  -20.1449   18.0694 C   0  0  0  0  0  0  0  0  0  0  0  0
  -28.1559  -20.7611   19.4177 C   0  0  0  0  0  0  0  0  0  0  0  0
  -29.3300  -19.1078   17.3266 C   0  0  0  0  0  0  0  0  0  0  0  0
  -27.3514  -19.7232   18.6431 C   0  0  0  0  0  0  0  0  0  0  0  0
  -26.4403  -15.4759   18.9806 C   0  0  0  0  0  0  0  0  0  0  0  0
  -24.9392  -33.0083   23.8109 C   0  0  1  0  0  0  0  0  0  0  0  0
  -23.4147  -30.4269   21.4773 C   0  0  1  0  0  0  0  0  0  0  0  0
  -27.2169  -14.2945   19.5826 C   0  0  2  0  0  0  0  0  0  0  0  0
  -33.0869  -23.7922   20.0449 C   0  0  0  0  0  0  0  0  0  0  0  0
  -17.9216  -24.9661   21.3914 C   0  0  0  0  0  0  0  0  0  0  0  0
  -21.9052  -28.4512   25.3732 C   0  0  0  0  0  0  0  0  0  0  0  0
  -20.3105  -26.5454   25.0684 C   0  0  0  0  0  0  0  0  0  0  0  0
  -19.5428  -28.8864   24.6775 C   0  0  0  0  0  0  0  0  0  0  0  0
  -20.0440  -26.0997   18.4442 C   0  0  0  0  0  0  0  0  0  0  0  0
  -28.8866  -26.0106   19.1498 C   0  0  0  0  0  0  0  0  0  1  0  0
  -21.0993  -27.7976   23.0091 C   0  0  1  0  0  0  0  0  0  0  0  0
  -18.8420  -25.9031   20.6248 C   0  0  2  0  0  0  0  0  0  0  0  0
  -20.7380  -27.9220   24.5162 C   0  0  0  0  0  0  0  0  0  0  0  0
  -25.6501  -12.5983   20.4482 N   0  0  0  0  0  0  0  0  0  0  0  0
  -30.9723  -24.8647   19.5884 N   0  0  0  0  0  0  0  0  0  0  0  0
  -31.1896  -22.4781   19.3350 N   0  0  0  0  0  0  0  0  0  0  0  0
  -26.4576  -12.9879   19.4472 N   0  0  0  0  0  0  0  0  0  0  0  0
  -29.3225  -21.1995   18.6392 N   0  0  0  0  0  0  0  0  0  0  0  0
  -22.8471  -29.1395   21.8829 N   0  0  0  0  0  0  0  0  0  0  0  0
  -27.1938  -16.7231   19.1258 N   0  0  0  0  0  0  0  0  0  0  0  0
  -28.2029  -18.6484   18.1292 N   0  0  0  0  0  0  0  0  0  0  0  0
  -27.2497  -12.3585   17.3054 N   0  0  0  0  0  0  0  0  0  0  0  0
  -24.4685   -8.9800   18.4221 N   0  0  0  0  0  0  0  0  0  0  0  0
  -24.2261  -32.3104   22.7627 N   0  0  0  0  0  0  0  0  0  0  0  0
  -20.0043  -27.3244   22.1692 N   0  0  0  0  0  0  0  0  0  0  0  0
  -19.1639  -25.2755   19.3120 N   0  3  0  0  0  0  0  0  0  0  0  0
  -25.8927   -9.7617   16.8036 O   0  0  0  0  0  0  0  0  0  0  0  0
  -24.8012  -30.1361   23.3663 O   0  0  0  0  0  0  0  0  0  0  0  0
  -20.7779  -30.0719   22.4170 O   0  0  0  0  0  0  0  0  0  0  0  0
  -21.1082  -25.4626   21.3371 O   0  0  0  0  0  0  0  0  0  0  0  0
  -27.8797  -16.7093   16.9240 O   0  0  0  0  0  0  0  0  0  0  0  0
  -21.5496   -8.5421   23.1469 O   0  0  0  0  0  0  0  0  0  0  0  0
  -27.7820  -25.9128   20.0403 O   0  0  0  0  0  0  0  0  0  1  0  0
  -22.3378   -3.1038   23.6019 F   0  0  0  0  0  0  0  0  0  0  0  0
  -21.9844   -7.3736   25.6142 F   0  0  0  0  0  0  0  0  0  0  0  0
  1  2  1  0  0  0  0
  1  5  2  0  0  0  0
  2  6  2  0  0  0  0
  3  8  2  0  0  0  0
  3 16  1  0  0  0  0
  4  9  1  0  0  0  0
  4 16  2  0  0  0  0
  5 18  1  0  0  0  0
  6 20  1  0  0  0  0
  7 10  2  0  0  0  0
  7 19  1  0  0  0  0
  8 22  1  0  0  0  0
  9 22  2  0  0  0  0
 10 23  1  0  0  0  0
 11 12  2  0  0  0  0
 11 24  1  0  0  0  0
 12 25  1  0  0  0  0
 13 21  1  0  0  0  0
 13 23  2  0  0  0  0
 14 25  2  0  0  0  0
 14 26  1  0  0  0  0
 15 28  1  0  0  0  0
 15 29  2  0  0  0  0
 16 27  1  0  0  0  0
 17 27  1  0  0  0  0
 17 30  2  0  0  0  0
 17 32  1  0  0  0  0
 18 20  2  0  0  0  0
 18 37  1  0  0  0  0
 19 21  2  0  0  0  0
 19 38  1  0  0  0  0
 20 50  1  0  0  0  0
 21 39  1  0  0  0  0
 22 81  1  0  0  0  0
 23 82  1  0  0  0  0
 24 26  2  0  0  0  0
 24 81  1  0  0  0  0
 25 83  1  0  0  0  0
 26 84  1  0  0  0  0
 27 63  2  0  0  0  0
 28 59  1  0  0  0  0
 28 64  2  0  0  0  0
 29 65  1  0  0  0  0
 29 67  1  0  0  0  0
 30 66  1  0  0  0  0
 30 71  1  0  0  0  0
 31 53  1  0  0  0  0
 31 64  1  0  0  0  0
 31 65  2  0  0  0  0
 32 72  1  0  0  0  0
 32 76  2  0  0  0  0
 33 51  1  0  0  0  0
 33 73  1  0  0  0  0
 33 77  2  0  0  0  0
 34 60  1  0  0  0  0
 34 68  1  0  0  0  0
 34 78  2  0  0  0  0
 35 61  1  0  0  0  0
 35 74  1  0  0  0  0
 35 79  2  0  0  0  0
 36 69  1  0  0  0  0
 36 70  1  0  0  0  0
 36 80  2  0  0  0  0
 37 40  1  0  0  0  0
 38 51  1  0  0  0  0
 39 68  1  0  0  0  0
 40 42  1  0  0  0  0
 41 43  1  0  0  0  0
 41 44  1  0  0  0  0
 42 50  1  0  0  0  0
 43 52  1  0  0  0  0
 44 69  1  0  0  0  0
 45 47  1  0  0  0  0
 45 67  1  0  0  0  0
 46 48  1  0  0  0  0
 46 67  1  0  0  0  0
 47 70  1  0  0  0  0
 48 70  1  0  0  0  0
 49 52  1  0  0  0  0
 49 69  1  0  0  0  0
 50 73  1  0  0  0  0
 51 68  1  0  0  0  0
 52 66  1  0  0  0  0
 54 61  1  0  0  0  0
 55 62  1  0  0  0  0
 56 62  1  0  0  0  0
 57 62  1  0  0  0  0
 58 75  1  0  0  0  0
 59 82  1  0  0  0  0
 60 62  1  0  0  0  0
 60 74  1  0  0  0  0
 61 75  1  0  0  0  0
 63 66  1  0  0  0  0
M  CHG  1  75   1
M  ISO  4  36 100  59 101  70 100  82 101
M  END
> <Batch ID>
0180

> <Smiles>
CNC(C)C(=O)NC(C(=O)N1Cc2cc([101O:1][101CH2:1]c3cc(N4CC[100N:0]([100C:0](=O)N5CCCC(n6nc(-c7ccc(Oc8ccc(F)cc8F)cc7)c(C(N)=O)c6N)C5)CC4)nc(C)n3)ccc2CC1C(=O)NC1CCCc2ccccc21)C(C)(C)C

> <Shape>
0.343

> <Color>
0.076

> <Negative vol penalty>
0.000

$$$$

  -OEChem-04052323003D

 82 91  0     1  0  0  0  0  0999 V2000
  -22.8848   -8.0184   22.0758 C   0  0  0  0  0  0  0  0  0  0  0  0
  -24.1570   -8.5815   22.0846 C   0  0  0  0  0  0  0  0  0  0  0  0
  -22.9369  -27.3151   20.4716 C   0  0  0  0  0  0  0  0  0  0  0  0
  -24.2685  -26.9339   22.4511 C   0  0  0  0  0  0  0  0  0  0  0  0
  -21.8690   -8.6057   21.3228 C   0  0  0  0  0  0  0  0  0  0  0  0
  -24.4142   -9.7317   21.3394 C   0  0  0  0  0  0  0  0  0  0  0  0
  -28.3934  -15.6873   21.4589 C   0  0  0  0  0  0  0  0  0  0  0  0
  -21.8258  -26.7687   21.1138 C   0  0  0  0  0  0  0  0  0  0  0  0
  -23.1574  -26.3876   23.0934 C   0  0  0  0  0  0  0  0  0  0  0  0
  -29.2884  -16.4008   20.6629 C   0  0  0  0  0  0  0  0  0  0  0  0
  -19.5317  -27.7546   23.3937 C   0  0  0  0  0  0  0  0  0  0  0  0
  -18.3176  -28.4313   23.2767 C   0  0  0  0  0  0  0  0  0  0  0  0
  -27.4360  -17.3736   19.4625 C   0  0  0  0  0  0  0  0  0  0  0  0
  -17.3321  -26.4837   22.2408 C   0  0  0  0  0  0  0  0  0  0  0  0
  -31.6764  -19.9957   18.2313 C   0  0  0  0  0  0  0  0  0  0  0  0
  -24.1583  -27.3977   21.1402 C   0  0  0  0  0  0  0  0  0  0  0  0
  -25.7056  -29.3115   20.4689 C   0  0  0  0  0  0  0  0  0  0  0  0
  -22.1115   -9.7692   20.5757 C   0  0  0  0  0  0  0  0  0  0  0  0
  -27.0109  -15.8034   21.2552 C   0  0  0  0  0  0  0  0  0  0  0  0
  -23.4010  -10.3344   20.5747 C   0  0  0  0  0  0  0  0  0  0  0  0
  -26.5254  -16.6625   20.2589 C   0  0  0  0  0  0  0  0  0  0  0  0
  -21.9360  -26.3050   22.4247 C   0  0  0  0  0  0  0  0  0  0  0  0
  -28.8099  -17.2419   19.6626 C   0  0  0  0  0  0  0  0  0  0  0  0
  -19.6461  -26.4426   22.9342 C   0  0  0  0  0  0  0  0  0  0  0  0
  -17.2178  -27.7958   22.7003 C   0  0  0  0  0  0  0  0  0  0  0  0
  -18.5463  -25.8072   22.3578 C   0  0  0  0  0  0  0  0  0  0  0  0
  -25.3066  -27.9615   20.4771 C   0  0  0  0  0  0  0  0  0  0  0  0
  -32.4432  -20.7158   17.3381 C   0  0  0  0  0  0  0  0  0  0  0  0
  -31.8622  -18.6284   18.2109 C   0  0  0  0  0  0  0  0  0  0  0  0
  -26.8471  -29.3274   19.7051 C   0  0  0  0  0  0  0  0  0  0  0  0
  -33.4167  -18.8136   16.5628 C   0  0  0  0  0  0  0  0  0  0  0  0
  -25.0989  -30.4493   21.0956 C   0  0  0  0  0  0  0  0  0  0  0  0
  -24.6880  -13.7951   20.4337 C   0  0  0  0  0  0  0  0  0  0  0  0
  -22.7919  -16.3583   21.0313 C   0  0  0  0  0  0  0  0  0  0  0  0
  -22.4937  -19.7500   21.2640 C   0  0  0  0  0  0  0  0  0  0  0  0
  -30.7948  -25.0156   18.6056 C   0  0  0  0  0  0  0  0  0  0  0  0
  -20.9940  -10.3411   19.7396 C   0  0  0  0  0  0  0  0  0  0  0  0
  -26.0578  -15.0475   22.1399 C   0  0  0  0  0  0  0  0  0  0  0  0
  -25.0499  -16.8379   20.0131 C   0  0  0  0  0  0  0  0  0  0  0  0
  -21.2520  -11.7721   19.2750 C   0  0  0  0  0  0  0  0  0  0  0  0
  -29.0095  -27.0578   16.1243 C   0  0  0  0  0  0  0  0  0  0  0  0
  -22.6670  -11.9068   18.7214 C   0  0  0  0  0  0  0  0  0  0  0  0
  -27.8466  -27.5819   16.9593 C   0  0  0  0  0  0  0  0  0  0  0  0
  -29.4472  -25.6555   16.5480 C   0  0  0  0  0  0  0  0  0  0  0  0
  -30.9947  -22.9701   17.0164 C   0  0  0  0  0  0  0  0  0  0  0  0
  -32.5225  -23.1581   18.4809 C   0  0  0  0  0  0  0  0  0  0  0  0
  -28.5739  -26.0726   18.8385 C   0  0  0  0  0  0  0  0  0  0  0  0
  -23.7128  -11.5958   19.7990 C   0  0  1  0  0  0  0  0  0  0  0  0
  -32.3726  -22.2950   17.2111 C   0  0  0  0  0  0  0  0  0  0  0  0
  -24.6847  -14.8478   21.5059 C   0  0  1  0  0  0  0  0  0  0  0  0
  -28.1853  -27.5068   18.4551 C   0  0  2  0  0  0  0  0  0  0  0  0
  -34.3831  -18.1572   15.6363 C   0  0  0  0  0  0  0  0  0  0  0  0
  -20.8111  -21.5521   21.7319 C   0  0  0  0  0  0  0  0  0  0  0  0
  -21.6151  -15.9805   18.2416 C   0  0  0  0  0  0  0  0  0  0  0  0
  -20.6790  -18.2972   18.3987 C   0  0  0  0  0  0  0  0  0  0  0  0
  -19.9413  -16.5438   20.0124 C   0  0  0  0  0  0  0  0  0  0  0  0
  -24.0031  -20.7079   23.6226 C   0  0  0  0  0  0  0  0  0  0  0  0
  -31.0726  -17.7610   19.1465 C   0  0  0  0  0  0  0  0  0  1  0  0
  -22.2674  -17.5139   20.2138 C   0  0  1  0  0  0  0  0  0  0  0  0
  -21.8689  -20.6357   22.3269 C   0  0  2  0  0  0  0  0  0  0  0  0
  -21.1536  -17.0793   19.2197 C   0  0  0  0  0  0  0  0  0  0  0  0
  -26.1277  -27.1768   19.7743 N   0  0  0  0  0  0  0  0  0  0  0  0
  -33.3265  -20.1551   16.4863 N   0  0  0  0  0  0  0  0  0  0  0  0
  -32.7270  -18.0016   17.3865 N   0  0  0  0  0  0  0  0  0  0  0  0
  -27.0540  -28.0364   19.3171 N   0  0  0  0  0  0  0  0  0  0  0  0
  -24.1582  -16.0726   20.9001 N   0  0  0  0  0  0  0  0  0  0  0  0
  -29.6565  -25.5536   17.9959 N   0  0  0  0  0  0  0  0  0  0  0  0
  -31.4513  -23.9949   17.9475 N   0  0  0  0  0  0  0  0  0  0  0  0
  -27.6838  -30.3197   19.3342 N   0  0  0  0  0  0  0  0  0  0  0  0
  -23.9297  -30.2556   21.8439 N   0  0  0  0  0  0  0  0  0  0  0  0
  -23.8614  -12.7199   20.6984 N   0  0  0  0  0  0  0  0  0  0  0  0
  -21.8503  -18.5341   21.1696 N   0  0  0  0  0  0  0  0  0  0  0  0
  -22.9114  -21.4803   22.9756 N   0  3  0  0  0  0  0  0  0  0  0  0
  -25.5701  -31.6063   20.9815 O   0  0  0  0  0  0  0  0  0  0  0  0
  -25.3875  -13.9479   19.4392 O   0  0  0  0  0  0  0  0  0  0  0  0
  -22.0192  -15.7367   21.7650 O   0  0  0  0  0  0  0  0  0  0  0  0
  -23.4539  -20.1030   20.5829 O   0  0  0  0  0  0  0  0  0  0  0  0
  -31.1944  -25.4045   19.7104 O   0  0  0  0  0  0  0  0  0  0  0  0
  -20.8519  -25.7719   23.0518 O   0  0  0  0  0  0  0  0  0  0  0  0
  -29.6813  -17.9389   18.8838 O   0  0  0  0  0  0  0  0  0  1  0  0
  -16.0515  -28.4452   22.5894 F   0  0  0  0  0  0  0  0  0  0  0  0
  -18.6497  -24.5464   21.9155 F   0  0  0  0  0  0  0  0  0  0  0  0
  1  2  1  0  0  0  0
  1  5  2  0  0  0  0
  2  6  2  0  0  0  0
  3  8  2  0  0  0  0
  3 16  1  0  0  0  0
  4  9  1  0  0  0  0
  4 16  2  0  0  0  0
  5 18  1  0  0  0  0
  6 20  1  0  0  0  0
  7 10  2  0  0  0  0
  7 19  1  0  0  0  0
  8 22  1  0  0  0  0
  9 22  2  0  0  0  0
 10 23  1  0  0  0  0
 11 12  2  0  0  0  0
 11 24  1  0  0  0  0
 12 25  1  0  0  0  0
 13 21  1  0  0  0  0
 13 23  2  0  0  0  0
 14 25  2  0  0  0  0
 14 26  1  0  0  0  0
 15 28  2  0  0  0  0
 15 29  1  0  0  0  0
 16 27  1  0  0  0  0
 17 27  1  0  0  0  0
 17 30  2  0  0  0  0
 17 32  1  0  0  0  0
 18 20  2  0  0  0  0
 18 37  1  0  0  0  0
 19 21  2  0  0  0  0
 19 38  1  0  0  0  0
 20 48  1  0  0  0  0
 21 39  1  0  0  0  0
 22 79  1  0  0  0  0
 23 80  1  0  0  0  0
 24 26  2  0  0  0  0
 24 79  1  0  0  0  0
 25 81  1  0  0  0  0
 26 82  1  0  0  0  0
 27 62  2  0  0  0  0
 28 49  1  0  0  0  0
 28 63  1  0  0  0  0
 29 58  1  0  0  0  0
 29 64  2  0  0  0  0
 30 65  1  0  0  0  0
 30 69  1  0  0  0  0
 31 52  1  0  0  0  0
 31 63  2  0  0  0  0
 31 64  1  0  0  0  0
 32 70  1  0  0  0  0
 32 74  2  0  0  0  0
 33 50  1  0  0  0  0
 33 71  1  0  0  0  0
 33 75  2  0  0  0  0
 34 59  1  0  0  0  0
 34 66  1  0  0  0  0
 34 76  2  0  0  0  0
 35 60  1  0  0  0  0
 35 72  1  0  0  0  0
 35 77  2  0  0  0  0
 36 67  1  0  0  0  0
 36 68  1  0  0  0  0
 36 78  2  0  0  0  0
 37 40  1  0  0  0  0
 38 50  1  0  0  0  0
 39 66  1  0  0  0  0
 40 42  1  0  0  0  0
 41 43  1  0  0  0  0
 41 44  1  0  0  0  0
 42 48  1  0  0  0  0
 43 51  1  0  0  0  0
 44 67  1  0  0  0  0
 45 49  1  0  0  0  0
 45 68  1  0  0  0  0
 46 49  1  0  0  0  0
 46 68  1  0  0  0  0
 47 51  1  0  0  0  0
 47 67  1  0  0  0  0
 48 71  1  0  0  0  0
 50 66  1  0  0  0  0
 51 65  1  0  0  0  0
 53 60  1  0  0  0  0
 54 61  1  0  0  0  0
 55 61  1  0  0  0  0
 56 61  1  0  0  0  0
 57 73  1  0  0  0  0
 58 80  1  0  0  0  0
 59 61  1  0  0  0  0
 59 72  1  0  0  0  0
 60 73  1  0  0  0  0
 62 65  1  0  0  0  0
M  CHG  1  73   1
M  ISO  4  36 100  58 101  68 100  80 101
M  END
> <Batch ID>
0180

> <Smiles>
CNC(C)C(=O)NC(C(=O)N1Cc2cc([101O:1][101CH2:1]c3cc(C4C[100N:0]([100C:0](=O)N5CCCC(n6nc(-c7ccc(Oc8ccc(F)cc8F)cc7)c(C(N)=O)c6N)C5)C4)nc(C)n3)ccc2CC1C(=O)NC1CCCc2ccccc21)C(C)(C)C

> <Shape>
0.233

> <Color>
0.064

> <Negative vol penalty>
0.000

$$$$

  -OEChem-04052323003D

 85 94  0     1  0  0  0  0  0999 V2000
  -31.8381  -14.2211   21.6407 C   0  0  0  0  0  0  0  0  0  0  0  0
  -31.2138  -15.4628   21.5794 C   0  0  0  0  0  0  0  0  0  0  0  0
  -27.2768  -26.9608   22.9737 C   0  0  0  0  0  0  0  0  0  0  0  0
  -27.4933  -28.8890   21.5342 C   0  0  0  0  0  0  0  0  0  0  0  0
  -31.2379  -13.1104   21.0488 C   0  0  0  0  0  0  0  0  0  0  0  0
  -29.9894  -15.5948   20.9253 C   0  0  0  0  0  0  0  0  0  0  0  0
  -26.6695  -18.3685   23.5579 C   0  0  0  0  0  0  0  0  0  0  0  0
  -27.3618  -27.7875   24.0939 C   0  0  0  0  0  0  0  0  0  0  0  0
  -27.5783  -29.7157   22.6544 C   0  0  0  0  0  0  0  0  0  0  0  0
  -26.8286  -19.7532   23.5243 C   0  0  0  0  0  0  0  0  0  0  0  0
  -25.4612  -31.0781   24.9089 C   0  0  0  0  0  0  0  0  0  0  0  0
  -24.7094  -32.2529   24.9039 C   0  0  0  0  0  0  0  0  0  0  0  0
  -25.0819  -19.9076   21.8677 C   0  0  0  0  0  0  0  0  0  0  0  0
  -26.7352  -33.5503   25.1271 C   0  0  0  0  0  0  0  0  0  0  0  0
  -27.3427  -27.5115   21.6938 C   0  0  0  0  0  0  0  0  0  0  0  0
  -26.0886  -26.2754   19.8480 C   0  0  0  0  0  0  0  0  0  0  0  0
  -30.0009  -13.2270   20.3955 C   0  0  0  0  0  0  0  0  0  0  0  0
  -25.7214  -17.7409   22.7372 C   0  0  0  0  0  0  0  0  0  0  0  0
  -29.3728  -14.4850   20.3230 C   0  0  0  0  0  0  0  0  0  0  0  0
  -24.9110  -18.5151   21.8945 C   0  0  0  0  0  0  0  0  0  0  0  0
  -27.5125  -29.1650   23.9343 C   0  0  0  0  0  0  0  0  0  0  0  0
  -26.0367  -20.5227   22.6771 C   0  0  0  0  0  0  0  0  0  0  0  0
  -26.8501  -31.1393   25.0231 C   0  0  0  0  0  0  0  0  0  0  0  0
  -25.3464  -33.4890   25.0130 C   0  0  0  0  0  0  0  0  0  0  0  0
  -27.4871  -32.3754   25.1322 C   0  0  0  0  0  0  0  0  0  0  0  0
  -27.2556  -26.6579   20.5362 C   0  0  0  0  0  0  0  0  0  0  0  0
  -26.5383  -25.4676   18.8322 C   0  0  0  0  0  0  0  0  0  0  0  0
  -30.4748  -21.7869   21.7377 C   0  0  0  0  0  0  0  0  0  0  0  0
  -30.7890  -21.3793   23.7717 C   0  0  0  0  0  0  0  0  0  0  0  0
  -24.7205  -26.6195   20.1039 C   0  0  0  0  0  0  0  0  0  0  0  0
  -25.8522  -15.6049   20.3868 C   0  0  0  0  0  0  0  0  0  0  0  0
  -22.6190  -15.7333   20.6152 C   0  0  0  0  0  0  0  0  0  0  0  0
  -19.8479  -17.4953   21.5445 C   0  0  0  0  0  0  0  0  0  0  0  0
  -31.1163  -22.0451   18.1352 C   0  0  0  0  0  0  0  0  0  0  0  0
  -29.4139  -12.0077   19.7297 C   0  0  0  0  0  0  0  0  0  0  0  0
  -25.5437  -16.2488   22.8047 C   0  0  0  0  0  0  0  0  0  0  0  0
  -23.8647  -17.8918   21.0085 C   0  0  0  0  0  0  0  0  0  0  0  0
  -27.9354  -12.1570   19.3801 C   0  0  0  0  0  0  0  0  0  0  0  0
  -30.3393  -24.7204   16.0358 C   0  0  0  0  0  0  0  0  0  0  0  0
  -27.6792  -13.5018   18.7072 C   0  0  0  0  0  0  0  0  0  0  0  0
  -29.3326  -25.4927   16.8880 C   0  0  0  0  0  0  0  0  0  0  0  0
  -31.5114  -24.1960   16.8673 C   0  0  0  0  0  0  0  0  0  0  0  0
  -30.0959  -24.1681   18.8948 C   0  0  0  0  0  0  0  0  0  0  0  0
  -30.6147  -20.0008   19.5704 C   0  0  0  0  0  0  0  0  0  0  0  0
  -28.0322  -14.6635   19.6439 C   0  0  1  0  0  0  0  0  0  0  0  0
  -30.1229  -22.3384   20.3971 C   0  0  2  0  0  0  0  0  0  0  0  0
  -24.9021  -15.6661   21.5492 C   0  0  1  0  0  0  0  0  0  0  0  0
  -28.8769  -24.6573   18.0974 C   0  0  1  0  0  0  0  0  0  0  0  0
  -31.4332  -19.6650   20.8279 C   0  0  1  0  0  0  0  0  0  0  0  0
  -30.7955  -21.5593   25.2281 C   0  0  0  0  0  0  0  0  0  0  0  0
  -32.9361  -19.7413   20.5595 C   0  0  0  0  0  0  0  0  0  0  0  0
  -17.3425  -17.3557   21.5724 C   0  0  0  0  0  0  0  0  0  0  0  0
  -22.5556  -16.3165   17.6209 C   0  0  0  0  0  0  0  0  0  0  0  0
  -20.1910  -17.0931   17.8929 C   0  0  0  0  0  0  0  0  0  0  0  0
  -20.7929  -14.7285   18.4120 C   0  0  0  0  0  0  0  0  0  0  0  0
  -19.7540  -17.6909   24.4961 C   0  0  0  0  0  0  0  0  0  0  0  0
  -28.6136  -22.5457   20.2677 C   0  0  0  0  0  0  0  0  0  0  0  0
  -26.7183  -23.8032   21.2998 C   0  0  0  0  0  0  0  0  0  0  0  0
  -25.9026  -22.5301   21.4089 C   0  0  0  0  0  0  0  0  0  1  0  0
  -21.5346  -16.5689   19.9789 C   0  0  1  0  0  0  0  0  0  0  0  0
  -18.6239  -17.0969   22.3493 C   0  0  2  0  0  0  0  0  0  0  0  0
  -21.2895  -16.1886   18.4913 C   0  0  0  0  0  0  0  0  0  0  0  0
  -28.3633  -26.1360   20.0028 N   0  0  0  0  0  0  0  0  0  0  0  0
  -30.3016  -22.3346   22.9228 N   0  0  0  0  0  0  0  0  0  0  0  0
  -31.2598  -20.2714   23.1936 N   0  0  0  0  0  0  0  0  0  0  0  0
  -27.8944  -25.4171   18.9687 N   0  0  0  0  0  0  0  0  0  0  0  0
  -31.0546  -20.5621   21.9016 N   0  0  0  0  0  0  0  0  0  0  0  0
  -23.7333  -16.4286   21.1057 N   0  0  0  0  0  0  0  0  0  0  0  0
  -31.0273  -23.4407   18.0308 N   0  0  0  0  0  0  0  0  0  0  0  0
  -30.6047  -21.4570   19.3061 N   0  0  0  0  0  0  0  0  0  0  0  0
  -25.9020  -24.8027   17.8446 N   0  0  0  0  0  0  0  0  0  0  0  0
  -24.4346  -27.4602   21.1883 N   0  0  0  0  0  0  0  0  0  0  0  0
  -26.9878  -14.8552   20.6272 N   0  0  0  0  0  0  0  0  0  0  0  0
  -20.3594  -16.4312   20.8323 N   0  0  0  0  0  0  0  0  0  0  0  0
  -18.5664  -17.8704   23.6218 N   0  3  0  0  0  0  0  0  0  0  0  0
  -28.1698  -23.4625   21.3365 N   0  3  0  0  0  0  0  0  0  0  0  0
  -23.7779  -26.1809   19.4020 O   0  0  0  0  0  0  0  0  0  0  0  0
  -25.5748  -16.1931   19.3481 O   0  0  0  0  0  0  0  0  0  0  0  0
  -22.4791  -14.5095   20.6813 O   0  0  0  0  0  0  0  0  0  0  0  0
  -20.3024  -18.6372   21.5446 O   0  0  0  0  0  0  0  0  0  0  0  0
  -31.6184  -21.3650   17.2317 O   0  0  0  0  0  0  0  0  0  0  0  0
  -27.5951  -29.9720   25.0272 O   0  0  0  0  0  0  0  0  0  0  0  0
  -26.1915  -21.8841   22.6416 O   0  0  0  0  0  0  0  0  0  1  0  0
  -24.6244  -34.6173   25.0066 F   0  0  0  0  0  0  0  0  0  0  0  0
  -28.8211  -32.4406   25.2410 F   0  0  0  0  0  0  0  0  0  0  0  0
  1  2  1  0  0  0  0
  1  5  2  0  0  0  0
  2  6  2  0  0  0  0
  3  8  2  0  0  0  0
  3 15  1  0  0  0  0
  4  9  1  0  0  0  0
  4 15  2  0  0  0  0
  5 17  1  0  0  0  0
  6 19  1  0  0  0  0
  7 10  2  0  0  0  0
  7 18  1  0  0  0  0
  8 21  1  0  0  0  0
  9 21  2  0  0  0  0
 10 22  1  0  0  0  0
 11 12  2  0  0  0  0
 11 23  1  0  0  0  0
 12 24  1  0  0  0  0
 13 20  1  0  0  0  0
 13 22  2  0  0  0  0
 14 24  2  0  0  0  0
 14 25  1  0  0  0  0
 15 26  1  0  0  0  0
 16 26  1  0  0  0  0
 16 27  2  0  0  0  0
 16 30  1  0  0  0  0
 17 19  2  0  0  0  0
 17 35  1  0  0  0  0
 18 20  2  0  0  0  0
 18 36  1  0  0  0  0
 19 45  1  0  0  0  0
 20 37  1  0  0  0  0
 21 82  1  0  0  0  0
 22 83  1  0  0  0  0
 23 25  2  0  0  0  0
 23 82  1  0  0  0  0
 24 84  1  0  0  0  0
 25 85  1  0  0  0  0
 26 63  2  0  0  0  0
 27 66  1  0  0  0  0
 27 71  1  0  0  0  0
 28 46  1  0  0  0  0
 28 64  2  0  0  0  0
 28 67  1  0  0  0  0
 29 50  1  0  0  0  0
 29 64  1  0  0  0  0
 29 65  2  0  0  0  0
 30 72  1  0  0  0  0
 30 77  2  0  0  0  0
 31 47  1  0  0  0  0
 31 73  1  0  0  0  0
 31 78  2  0  0  0  0
 32 60  1  0  0  0  0
 32 68  1  0  0  0  0
 32 79  2  0  0  0  0
 33 61  1  0  0  0  0
 33 74  1  0  0  0  0
 33 80  2  0  0  0  0
 34 69  1  0  0  0  0
 34 70  1  0  0  0  0
 34 81  2  0  0  0  0
 35 38  1  0  0  0  0
 36 47  1  0  0  0  0
 37 68  1  0  0  0  0
 38 40  1  0  0  0  0
 39 41  1  0  0  0  0
 39 42  1  0  0  0  0
 40 45  1  0  0  0  0
 41 48  1  0  0  0  0
 42 69  1  0  0  0  0
 43 48  1  0  0  0  0
 43 69  1  0  0  0  0
 44 49  1  0  0  0  0
 44 70  1  0  0  0  0
 45 73  1  0  0  0  0
 46 57  1  0  0  0  0
 46 70  1  0  0  0  0
 47 68  1  0  0  0  0
 48 66  1  0  0  0  0
 49 51  1  0  0  0  0
 49 67  1  0  0  0  0
 52 61  1  0  0  0  0
 53 62  1  0  0  0  0
 54 62  1  0  0  0  0
 55 62  1  0  0  0  0
 56 75  1  0  0  0  0
 57 76  1  0  0  0  0
 58 59  1  0  0  0  0
 58 76  1  0  0  0  0
 59 83  1  0  0  0  0
 60 62  1  0  0  0  0
 60 74  1  0  0  0  0
 61 75  1  0  0  0  0
 63 66  1  0  0  0  0
 65 67  1  0  0  0  0
M  CHG  2  75   1  76   1
M  ISO  4  34 100  59 101  70 100  83 101
M  END
> <Batch ID>
0180

> <Smiles>
CNC(C)C(=O)NC(C(=O)N1Cc2cc([101O:1][101CH2:1]CNCC3c4nc(C)nn4C(C)C[100N:0]3[100C:0](=O)N3CCCC(n4nc(-c5ccc(Oc6ccc(F)cc6F)cc5)c(C(N)=O)c4N)C3)ccc2CC1C(=O)NC1CCCc2ccccc21)C(C)(C)C

> <Shape>
0.214

> <Color>
0.045

> <Negative vol penalty>
0.000

$$$$

  -OEChem-04052323003D

 87 96  0     1  0  0  0  0  0999 V2000
  -27.3279  -35.2349   23.4067 C   0  0  0  0  0  0  0  0  0  0  0  0
  -27.6329  -33.8941   23.1954 C   0  0  0  0  0  0  0  0  0  0  0  0
  -26.8575  -15.0108   19.5146 C   0  0  0  0  0  0  0  0  0  0  0  0
  -25.2575  -15.0772   21.3236 C   0  0  0  0  0  0  0  0  0  0  0  0
  -26.0465  -35.6011   23.8164 C   0  0  0  0  0  0  0  0  0  0  0  0
  -26.6568  -32.9185   23.3949 C   0  0  0  0  0  0  0  0  0  0  0  0
  -26.5511  -29.4867   19.6724 C   0  0  0  0  0  0  0  0  0  0  0  0
  -27.5642  -20.8533   17.1100 C   0  0  0  0  0  0  0  0  0  0  0  0
  -26.8925  -13.6188   19.5965 C   0  0  0  0  0  0  0  0  0  0  0  0
  -25.2924  -13.6852   21.4056 C   0  0  0  0  0  0  0  0  0  0  0  0
  -27.5333  -28.4974   19.6904 C   0  0  0  0  0  0  0  0  0  0  0  0
  -24.6871  -10.1280   21.8509 C   0  0  0  0  0  0  0  0  0  0  0  0
  -23.4716   -9.4539   21.9675 C   0  0  0  0  0  0  0  0  0  0  0  0
  -28.7992  -20.2156   17.1454 C   0  0  0  0  0  0  0  0  0  0  0  0
  -25.9521  -26.9535   20.6574 C   0  0  0  0  0  0  0  0  0  0  0  0
  -22.7538  -10.3827   19.8558 C   0  0  0  0  0  0  0  0  0  0  0  0
  -26.0401  -15.7401   20.3782 C   0  0  0  0  0  0  0  0  0  0  0  0
  -27.0821  -18.0669   20.4667 C   0  0  0  0  0  0  0  0  0  0  0  0
  -25.0515  -34.6303   24.0117 C   0  0  0  0  0  0  0  0  0  0  0  0
  -25.2629  -29.2196   20.1577 C   0  0  0  0  0  0  0  0  0  0  0  0
  -25.3612  -33.2718   23.8089 C   0  0  0  0  0  0  0  0  0  0  0  0
  -27.4600  -22.1778   17.5202 C   0  0  0  0  0  0  0  0  0  0  0  0
  -24.9546  -27.9403   20.6421 C   0  0  0  0  0  0  0  0  0  0  0  0
  -26.1099  -12.9560   20.5420 C   0  0  0  0  0  0  0  0  0  0  0  0
  -27.2347  -27.2314   20.1856 C   0  0  0  0  0  0  0  0  0  0  0  0
  -24.9359  -10.9296   20.7367 C   0  0  0  0  0  0  0  0  0  0  0  0
  -22.5049   -9.5812   20.9700 C   0  0  0  0  0  0  0  0  0  0  0  0
  -23.9693  -11.0570   19.7392 C   0  0  0  0  0  0  0  0  0  0  0  0
  -26.0041  -17.1780   20.2944 C   0  0  0  0  0  0  0  0  0  0  0  0
  -29.8908  -20.9404   17.5958 C   0  0  0  0  0  0  0  0  0  0  0  0
  -28.6114  -22.8148   17.9540 C   0  0  0  0  0  0  0  0  0  0  0  0
  -26.5318  -19.3126   20.2883 C   0  0  0  0  0  0  0  0  0  0  0  0
  -28.4578  -17.7912   20.7615 C   0  0  0  0  0  0  0  0  0  0  0  0
  -23.4707  -30.3720   22.5165 C   0  0  0  0  0  0  0  0  0  0  0  0
  -21.2071  -28.4487   21.2132 C   0  0  0  0  0  0  0  0  0  0  0  0
  -20.4770  -25.7004   19.3261 C   0  0  0  0  0  0  0  0  0  0  0  0
  -21.3930  -20.8138   17.3089 C   0  0  0  0  0  0  0  0  0  0  0  0
  -23.6942  -35.0700   24.5006 C   0  0  0  0  0  0  0  0  0  0  0  0
  -24.2070  -30.2896   20.1067 C   0  0  0  0  0  0  0  0  0  0  0  0
  -23.5811  -27.5966   21.1559 C   0  0  0  0  0  0  0  0  0  0  0  0
  -22.6111  -34.0084   24.3276 C   0  0  0  0  0  0  0  0  0  0  0  0
  -22.4210  -21.7046   20.7514 C   0  0  0  0  0  0  0  0  0  0  0  0
  -23.1123  -32.6509   24.8101 C   0  0  0  0  0  0  0  0  0  0  0  0
  -23.5002  -20.6670   21.0558 C   0  0  0  0  0  0  0  0  0  0  0  0
  -21.3966  -21.1805   19.7496 C   0  0  0  0  0  0  0  0  0  0  0  0
  -23.0745  -19.6398   18.7877 C   0  0  0  0  0  0  0  0  0  0  0  0
  -25.9751  -24.1215   16.6512 C   0  0  0  0  0  0  0  0  0  0  0  0
  -24.3224  -32.1865   23.9907 C   0  0  1  0  0  0  0  0  0  0  0  0
  -26.1345  -22.8603   17.4814 C   0  0  1  0  0  0  0  0  0  0  0  0
  -23.0738  -30.0588   21.1016 C   0  0  1  0  0  0  0  0  0  0  0  0
  -24.1485  -20.1531   19.7586 C   0  0  2  0  0  0  0  0  0  0  0  0
  -31.2317  -20.2876   17.6471 C   0  0  0  0  0  0  0  0  0  0  0  0
  -18.5378  -24.3585   18.4681 C   0  0  0  0  0  0  0  0  0  0  0  0
  -20.8344  -27.2214   23.9817 C   0  0  0  0  0  0  0  0  0  0  0  0
  -19.6331  -25.3114   22.8969 C   0  0  0  0  0  0  0  0  0  0  0  0
  -18.7104  -27.6225   22.7240 C   0  0  0  0  0  0  0  0  0  0  0  0
  -21.5779  -21.1125   14.8683 C   0  0  0  0  0  0  0  0  0  0  0  0
  -21.2136  -26.2219   16.5076 C   0  0  0  0  0  0  0  0  0  0  0  0
  -23.6437  -21.1870   16.2146 C   0  0  0  0  0  0  0  0  0  0  0  0
  -29.6371  -24.9107   18.8376 C   0  0  0  0  0  0  0  0  0  0  0  0
  -23.9711  -22.6686   16.2127 C   0  0  0  0  0  0  0  0  0  0  0  0
  -29.1927  -26.3206   19.1894 C   0  0  0  0  0  0  0  0  0  1  0  0
  -20.7819  -27.0134   21.4088 C   0  0  1  0  0  0  0  0  0  0  0  0
  -19.5048  -25.4960   18.1783 C   0  0  2  0  0  0  0  0  0  0  0  0
  -20.0165  -26.7989   22.7450 C   0  0  0  0  0  0  0  0  0  0  0  0
  -24.8558  -17.8058   20.0273 N   0  0  0  0  0  0  0  0  0  0  0  0
  -29.8285  -22.2282   18.0024 N   0  0  0  0  0  0  0  0  0  0  0  0
  -25.2091  -19.1024   20.0304 N   0  0  0  0  0  0  0  0  0  0  0  0
  -22.5848  -28.6786   21.0910 N   0  0  0  0  0  0  0  0  0  0  0  0
  -22.0424  -20.6587   18.5446 N   0  0  0  0  0  0  0  0  0  0  0  0
  -27.0551  -20.5564   20.3285 N   0  0  0  0  0  0  0  0  0  0  0  0
  -28.8534  -17.7268   22.1046 N   0  0  0  0  0  0  0  0  0  0  0  0
  -28.5143  -24.1341   18.3641 N   0  0  0  0  0  0  0  0  0  0  0  0
  -23.8963  -31.6729   22.7065 N   0  0  0  0  0  0  0  0  0  0  0  0
  -20.0213  -26.6472   20.2190 N   0  0  0  0  0  0  0  0  0  0  0  0
  -22.2045  -20.9381   16.1710 N   0  0  0  0  0  0  0  0  0  0  0  0
  -25.4250  -22.8552   16.2053 N   0  3  1  0  0  0  0  0  0  0  0  0
  -20.2438  -25.1766   16.9242 N   0  3  0  0  0  0  0  0  0  0  0  0
  -29.3144  -17.6236   19.8605 O   0  0  0  0  0  0  0  0  0  0  0  0
  -23.3951  -29.4986   23.3727 O   0  0  0  0  0  0  0  0  0  0  0  0
  -20.3479  -29.3324   21.1633 O   0  0  0  0  0  0  0  0  0  0  0  0
  -21.5332  -25.0795   19.4231 O   0  0  0  0  0  0  0  0  0  0  0  0
  -20.1584  -20.8493   17.2284 O   0  0  0  0  0  0  0  0  0  0  0  0
  -26.1435  -11.5977   20.6220 O   0  0  0  0  0  0  0  0  0  0  0  0
  -28.1918  -26.2642   20.2049 O   0  0  0  0  0  0  0  0  0  1  0  0
  -21.3383   -8.9325   21.0814 F   0  0  0  0  0  0  0  0  0  0  0  0
  -24.2031  -11.8246   18.6660 F   0  0  0  0  0  0  0  0  0  0  0  0
  1  2  1  0  0  0  0
  1  5  2  0  0  0  0
  2  6  2  0  0  0  0
  3  9  2  0  0  0  0
  3 17  1  0  0  0  0
  4 10  1  0  0  0  0
  4 17  2  0  0  0  0
  5 19  1  0  0  0  0
  6 21  1  0  0  0  0
  7 11  2  0  0  0  0
  7 20  1  0  0  0  0
  8 14  2  0  0  0  0
  8 22  1  0  0  0  0
  9 24  1  0  0  0  0
 10 24  2  0  0  0  0
 11 25  1  0  0  0  0
 12 13  2  0  0  0  0
 12 26  1  0  0  0  0
 13 27  1  0  0  0  0
 14 30  1  0  0  0  0
 15 23  1  0  0  0  0
 15 25  2  0  0  0  0
 16 27  2  0  0  0  0
 16 28  1  0  0  0  0
 17 29  1  0  0  0  0
 18 29  1  0  0  0  0
 18 32  2  0  0  0  0
 18 33  1  0  0  0  0
 19 21  2  0  0  0  0
 19 38  1  0  0  0  0
 20 23  2  0  0  0  0
 20 39  1  0  0  0  0
 21 48  1  0  0  0  0
 22 31  2  0  0  0  0
 22 49  1  0  0  0  0
 23 40  1  0  0  0  0
 24 84  1  0  0  0  0
 25 85  1  0  0  0  0
 26 28  2  0  0  0  0
 26 84  1  0  0  0  0
 27 86  1  0  0  0  0
 28 87  1  0  0  0  0
 29 66  2  0  0  0  0
 30 52  1  0  0  0  0
 30 67  2  0  0  0  0
 31 67  1  0  0  0  0
 31 73  1  0  0  0  0
 32 68  1  0  0  0  0
 32 71  1  0  0  0  0
 33 72  1  0  0  0  0
 33 79  2  0  0  0  0
 34 50  1  0  0  0  0
 34 74  1  0  0  0  0
 34 80  2  0  0  0  0
 35 63  1  0  0  0  0
 35 69  1  0  0  0  0
 35 81  2  0  0  0  0
 36 64  1  0  0  0  0
 36 75  1  0  0  0  0
 36 82  2  0  0  0  0
 37 70  1  0  0  0  0
 37 76  1  0  0  0  0
 37 83  2  0  0  0  0
 38 41  1  0  0  0  0
 39 50  1  0  0  0  0
 40 69  1  0  0  0  0
 41 43  1  0  0  0  0
 42 44  1  0  0  0  0
 42 45  1  0  0  0  0
 43 48  1  0  0  0  0
 44 51  1  0  0  0  0
 45 70  1  0  0  0  0
 46 51  1  0  0  0  0
 46 70  1  0  0  0  0
 47 49  1  0  0  0  0
 47 77  1  0  0  0  0
 48 74  1  0  0  0  0
 49 77  1  0  0  0  0
 50 69  1  0  0  0  0
 51 68  1  0  0  0  0
 53 64  1  0  0  0  0
 54 65  1  0  0  0  0
 55 65  1  0  0  0  0
 56 65  1  0  0  0  0
 57 76  1  0  0  0  0
 58 78  1  0  0  0  0
 59 61  1  0  0  0  0
 59 76  1  0  0  0  0
 60 62  1  0  0  0  0
 60 73  1  0  0  0  0
 61 77  1  0  0  0  0
 62 85  1  0  0  0  0
 63 65  1  0  0  0  0
 63 75  1  0  0  0  0
 64 78  1  0  0  0  0
 66 68  1  0  0  0  0
M  CHG  2  77   1  78   1
M  ISO  4  37 100  62 101  76 100  85 101
M  END
> <Batch ID>
0180

> <Smiles>
CNC(C)C(=O)NC(C(=O)N1Cc2cc([101O:1][101CH2:1]CNc3nc(C)ccc3C3CN3CC[100N:0](C)[100C:0](=O)N3CCCC(n4nc(-c5ccc(Oc6ccc(F)cc6F)cc5)c(C(N)=O)c4N)C3)ccc2CC1C(=O)NC1CCCc2ccccc21)C(C)(C)C

> <Shape>
0.270

> <Color>
0.078

> <Negative vol penalty>
0.000

$$$$
