
  -OEChem-04052323023D

 84 93  0     1  0  0  0  0  0999 V2000
  -28.3057  -37.4371   20.3911 C   0  0  0  0  0  0  0  0  0  0  0  0
  -28.7102  -36.1222   20.1837 C   0  0  0  0  0  0  0  0  0  0  0  0
  -24.2345   -9.4431   21.4737 C   0  0  0  0  0  0  0  0  0  0  0  0
  -23.7908   -8.6464   19.2364 C   0  0  0  0  0  0  0  0  0  0  0  0
  -27.3354  -37.7236   21.3504 C   0  0  0  0  0  0  0  0  0  0  0  0
  -28.1454  -35.0932   20.9364 C   0  0  0  0  0  0  0  0  0  0  0  0
  -26.9646  -29.3831   19.0641 C   0  0  0  0  0  0  0  0  0  0  0  0
  -23.1945   -8.6520   21.9617 C   0  0  0  0  0  0  0  0  0  0  0  0
  -22.7509   -7.8552   19.7244 C   0  0  0  0  0  0  0  0  0  0  0  0
  -27.6582  -28.1834   19.2173 C   0  0  0  0  0  0  0  0  0  0  0  0
  -22.6915   -5.3992   22.7360 C   0  0  0  0  0  0  0  0  0  0  0  0
  -22.9287   -4.6588   23.8940 C   0  0  0  0  0  0  0  0  0  0  0  0
  -26.2914  -27.6444   21.1305 C   0  0  0  0  0  0  0  0  0  0  0  0
  -21.1286   -5.8237   25.0075 C   0  0  0  0  0  0  0  0  0  0  0  0
  -28.4348  -22.9843   20.7228 C   0  0  0  0  0  0  0  0  0  0  0  0
  -24.5326   -9.4404   20.1110 C   0  0  0  0  0  0  0  0  0  0  0  0
  -26.9591   -9.8937   19.4675 C   0  0  0  0  0  0  0  0  0  0  0  0
  -26.7514  -36.6965   22.1085 C   0  0  0  0  0  0  0  0  0  0  0  0
  -25.9347  -29.7280   19.9511 C   0  0  0  0  0  0  0  0  0  0  0  0
  -27.1673  -35.3664   21.9077 C   0  0  0  0  0  0  0  0  0  0  0  0
  -25.5845  -28.8479   20.9849 C   0  0  0  0  0  0  0  0  0  0  0  0
  -22.4527   -7.8580   21.0871 C   0  0  0  0  0  0  0  0  0  0  0  0
  -27.3236  -27.3152   20.2524 C   0  0  0  0  0  0  0  0  0  0  0  0
  -21.6728   -6.3519   22.7137 C   0  0  0  0  0  0  0  0  0  0  0  0
  -22.1472   -4.8710   25.0298 C   0  0  0  0  0  0  0  0  0  0  0  0
  -20.8914   -6.5641   23.8494 C   0  0  0  0  0  0  0  0  0  0  0  0
  -25.6064  -10.2579   19.6063 C   0  0  0  0  0  0  0  0  0  0  0  0
  -28.4594  -24.1126   21.5643 C   0  0  0  0  0  0  0  0  0  0  0  0
  -29.4290  -22.1712   21.2096 C   0  0  0  0  0  0  0  0  0  0  0  0
  -27.5643  -11.0121   18.9483 C   0  0  0  0  0  0  0  0  0  0  0  0
  -27.6105   -8.6552   19.7799 C   0  0  0  0  0  0  0  0  0  0  0  0
  -25.4524  -32.0953   22.0167 C   0  0  0  0  0  0  0  0  0  0  0  0
  -22.5256  -30.7267   22.3045 C   0  0  0  0  0  0  0  0  0  0  0  0
  -20.5927  -27.9303   22.0032 C   0  0  0  0  0  0  0  0  0  0  0  0
  -28.4747  -16.2978   18.7523 C   0  0  0  0  0  0  0  0  0  0  0  0
  -25.7405  -37.0604   23.1669 C   0  0  0  0  0  0  0  0  0  0  0  0
  -25.1783  -31.0134   19.7561 C   0  0  0  0  0  0  0  0  0  0  0  0
  -24.4732  -29.1622   21.9517 C   0  0  0  0  0  0  0  0  0  0  0  0
  -24.9209  -35.8710   23.6609 C   0  0  0  0  0  0  0  0  0  0  0  0
  -25.5903  -15.2541   17.0436 C   0  0  0  0  0  0  0  0  0  0  0  0
  -25.8295  -34.6813   23.9538 C   0  0  0  0  0  0  0  0  0  0  0  0
  -25.4408  -13.8193   17.5488 C   0  0  0  0  0  0  0  0  0  0  0  0
  -28.0420  -19.5162   20.1098 C   0  0  0  0  0  0  0  0  0  0  0  0
  -30.3703  -19.1628   19.2032 C   0  0  0  0  0  0  0  0  0  0  0  0
  -26.0124  -16.2131   18.1581 C   0  0  0  0  0  0  0  0  0  0  0  0
  -27.4910  -18.6215   18.9956 C   0  0  0  0  0  0  0  0  0  0  0  0
  -29.7723  -18.3014   18.0944 C   0  0  0  0  0  0  0  0  0  0  0  0
  -27.0796  -14.3535   19.3917 C   0  0  0  0  0  0  0  0  0  0  0  0
  -26.5601  -34.2201   22.6870 C   0  0  1  0  0  0  0  0  0  0  0  0
  -24.4903  -31.5006   21.0276 C   0  0  1  0  0  0  0  0  0  0  0  0
  -26.7127  -13.3564   18.2816 C   0  0  1  0  0  0  0  0  0  0  0  0
  -29.3494  -20.1935   19.6923 C   0  0  0  0  0  0  0  0  0  0  0  0
  -18.2458  -27.1113   22.3477 C   0  0  0  0  0  0  0  0  0  0  0  0
  -23.0014  -30.6381   25.3171 C   0  0  0  0  0  0  0  0  0  0  0  0
  -21.1188  -28.9972   25.4958 C   0  0  0  0  0  0  0  0  0  0  0  0
  -20.6856  -31.3021   24.6457 C   0  0  0  0  0  0  0  0  0  0  0  0
  -31.0533  -22.3967   23.1192 C   0  0  0  0  0  0  0  0  0  0  0  0
  -20.2841  -27.2551   19.1383 C   0  0  0  0  0  0  0  0  0  0  0  0
  -27.5974  -25.3043   21.4922 C   0  0  0  0  0  0  0  0  0  1  0  0
  -21.9283  -29.6552   23.1843 C   0  0  1  0  0  0  0  0  0  0  0  0
  -19.2358  -27.7082   21.3597 C   0  0  2  0  0  0  0  0  0  0  0  0
  -21.7058  -30.1428   24.6439 C   0  0  0  0  0  0  0  0  0  0  0  0
  -25.3659  -11.5098   19.2076 N   0  0  0  0  0  0  0  0  0  0  0  0
  -29.3950  -24.0275   22.5138 N   0  0  0  0  0  0  0  0  0  0  0  0
  -26.5758  -11.9420   18.8133 N   0  0  0  0  0  0  0  0  0  0  0  0
  -29.9674  -22.8359   22.2719 N   0  0  0  0  0  0  0  0  0  0  0  0
  -23.7675  -30.4339   21.7234 N   0  0  0  0  0  0  0  0  0  0  0  0
  -27.2050  -15.7098   18.8537 N   0  0  0  0  0  0  0  0  0  0  0  0
  -28.5191  -17.6816   18.5263 N   0  0  0  0  0  0  0  0  0  0  0  0
  -28.8402  -11.2809   18.5988 N   0  0  0  0  0  0  0  0  0  0  0  0
  -26.8400   -7.6093   20.3060 N   0  0  0  0  0  0  0  0  0  0  0  0
  -29.8932  -20.9299   20.8121 N   0  0  0  0  0  0  0  0  0  0  0  0
  -25.6721  -33.4486   21.8439 N   0  0  0  0  0  0  0  0  0  0  0  0
  -20.7136  -29.2058   22.5128 N   0  0  0  0  0  0  0  0  0  0  0  0
  -19.3584  -26.7812   20.1992 N   0  3  0  0  0  0  0  0  0  0  0  0
  -28.8423   -8.4867   19.6133 O   0  0  0  0  0  0  0  0  0  0  0  0
  -25.9569  -31.3798   22.8741 O   0  0  0  0  0  0  0  0  0  0  0  0
  -21.9095  -31.7815   22.1332 O   0  0  0  0  0  0  0  0  0  0  0  0
  -21.4573  -27.0582   22.0524 O   0  0  0  0  0  0  0  0  0  0  0  0
  -29.5084  -15.6259   18.8576 O   0  0  0  0  0  0  0  0  0  0  0  0
  -21.4380   -7.0856   21.5629 O   0  0  0  0  0  0  0  0  0  0  0  0
  -28.0027  -26.1383   20.4053 O   0  0  0  0  0  0  0  0  0  1  0  0
  -22.3741   -4.1589   26.1413 F   0  0  0  0  0  0  0  0  0  0  0  0
  -19.9106   -7.4772   23.8336 F   0  0  0  0  0  0  0  0  0  0  0  0
  1  2  1  0  0  0  0
  1  5  2  0  0  0  0
  2  6  2  0  0  0  0
  3  8  2  0  0  0  0
  3 16  1  0  0  0  0
  4  9  1  0  0  0  0
  4 16  2  0  0  0  0
  5 18  1  0  0  0  0
  6 20  1  0  0  0  0
  7 10  2  0  0  0  0
  7 19  1  0  0  0  0
  8 22  1  0  0  0  0
  9 22  2  0  0  0  0
 10 23  1  0  0  0  0
 11 12  2  0  0  0  0
 11 24  1  0  0  0  0
 12 25  1  0  0  0  0
 13 21  1  0  0  0  0
 13 23  2  0  0  0  0
 14 25  2  0  0  0  0
 14 26  1  0  0  0  0
 15 28  1  0  0  0  0
 15 29  2  0  0  0  0
 16 27  1  0  0  0  0
 17 27  1  0  0  0  0
 17 30  2  0  0  0  0
 17 31  1  0  0  0  0
 18 20  2  0  0  0  0
 18 36  1  0  0  0  0
 19 21  2  0  0  0  0
 19 37  1  0  0  0  0
 20 49  1  0  0  0  0
 21 38  1  0  0  0  0
 22 81  1  0  0  0  0
 23 82  1  0  0  0  0
 24 26  2  0  0  0  0
 24 81  1  0  0  0  0
 25 83  1  0  0  0  0
 26 84  1  0  0  0  0
 27 63  2  0  0  0  0
 28 59  1  0  0  0  0
 28 64  2  0  0  0  0
 29 66  1  0  0  0  0
 29 72  1  0  0  0  0
 30 65  1  0  0  0  0
 30 70  1  0  0  0  0
 31 71  1  0  0  0  0
 31 76  2  0  0  0  0
 32 50  1  0  0  0  0
 32 73  1  0  0  0  0
 32 77  2  0  0  0  0
 33 60  1  0  0  0  0
 33 67  1  0  0  0  0
 33 78  2  0  0  0  0
 34 61  1  0  0  0  0
 34 74  1  0  0  0  0
 34 79  2  0  0  0  0
 35 68  1  0  0  0  0
 35 69  1  0  0  0  0
 35 80  2  0  0  0  0
 36 39  1  0  0  0  0
 37 50  1  0  0  0  0
 38 67  1  0  0  0  0
 39 41  1  0  0  0  0
 40 42  1  0  0  0  0
 40 45  1  0  0  0  0
 41 49  1  0  0  0  0
 42 51  1  0  0  0  0
 43 46  1  0  0  0  0
 43 52  1  0  0  0  0
 44 47  1  0  0  0  0
 44 52  1  0  0  0  0
 45 68  1  0  0  0  0
 46 69  1  0  0  0  0
 47 69  1  0  0  0  0
 48 51  1  0  0  0  0
 48 68  1  0  0  0  0
 49 73  1  0  0  0  0
 50 67  1  0  0  0  0
 51 65  1  0  0  0  0
 52 72  1  0  0  0  0
 53 61  1  0  0  0  0
 54 62  1  0  0  0  0
 55 62  1  0  0  0  0
 56 62  1  0  0  0  0
 57 66  1  0  0  0  0
 58 75  1  0  0  0  0
 59 82  1  0  0  0  0
 60 62  1  0  0  0  0
 60 74  1  0  0  0  0
 61 75  1  0  0  0  0
 63 65  1  0  0  0  0
 64 66  1  0  0  0  0
M  CHG  1  75   1
M  ISO  4  35 100  59 101  69 100  82 101
M  END
> <Batch ID>
0181

> <Smiles>
CNC(C)C(=O)NC(C(=O)N1Cc2cc([101O:1][101CH2:1]c3cc(NC4CC[100N:0]([100C:0](=O)N5CCCC(n6nc(-c7ccc(Oc8ccc(F)cc8F)cc7)c(C(N)=O)c6N)C5)CC4)n(C)n3)ccc2CC1C(=O)NC1CCCc2ccccc21)C(C)(C)C

> <Shape>
0.299

> <Color>
0.097

> <Negative vol penalty>
0.000

$$$$

  -OEChem-04052323023D

 85 95  0     1  0  0  0  0  0999 V2000
  -29.8087  -11.6817   19.7323 C   0  0  0  0  0  0  0  0  0  0  0  0
  -30.1499  -13.0139   19.5222 C   0  0  0  0  0  0  0  0  0  0  0  0
  -26.9136  -26.2618   20.0971 C   0  0  0  0  0  0  0  0  0  0  0  0
  -25.7008  -27.8772   18.7716 C   0  0  0  0  0  0  0  0  0  0  0  0
  -28.4672  -11.3029   19.7604 C   0  0  0  0  0  0  0  0  0  0  0  0
  -29.1496  -13.9680   19.3390 C   0  0  0  0  0  0  0  0  0  0  0  0
  -29.2450  -19.8043   21.1922 C   0  0  0  0  0  0  0  0  0  0  0  0
  -27.6529  -27.2926   20.6770 C   0  0  0  0  0  0  0  0  0  0  0  0
  -26.4401  -28.9081   19.3516 C   0  0  0  0  0  0  0  0  0  0  0  0
  -29.5436  -20.9941   20.5296 C   0  0  0  0  0  0  0  0  0  0  0  0
  -27.7590  -31.9953   20.7471 C   0  0  0  0  0  0  0  0  0  0  0  0
  -27.0685  -33.1310   21.1703 C   0  0  0  0  0  0  0  0  0  0  0  0
  -27.1926  -21.3513   20.1243 C   0  0  0  0  0  0  0  0  0  0  0  0
  -25.7605  -31.7728   22.6808 C   0  0  0  0  0  0  0  0  0  0  0  0
  -25.9375  -26.5540   19.1443 C   0  0  0  0  0  0  0  0  0  0  0  0
  -23.9563  -24.9532   19.0044 C   0  0  0  0  0  0  0  0  0  0  0  0
  -27.4498  -12.2544   19.5871 C   0  0  0  0  0  0  0  0  0  0  0  0
  -27.9165  -19.3729   21.3166 C   0  0  0  0  0  0  0  0  0  0  0  0
  -27.7933  -13.6014   19.3635 C   0  0  0  0  0  0  0  0  0  0  0  0
  -26.8796  -20.1570   20.7912 C   0  0  0  0  0  0  0  0  0  0  0  0
  -30.5250  -26.9285   17.2647 C   0  0  0  0  0  0  0  0  0  0  0  0
  -27.4161  -28.6158   20.3043 C   0  0  0  0  0  0  0  0  0  0  0  0
  -28.5175  -21.7663   19.9930 C   0  0  0  0  0  0  0  0  0  0  0  0
  -27.4502  -30.7484   21.2907 C   0  0  0  0  0  0  0  0  0  0  0  0
  -26.0693  -33.0197   22.1371 C   0  0  0  0  0  0  0  0  0  0  0  0
  -26.4510  -30.6371   22.2576 C   0  0  0  0  0  0  0  0  0  0  0  0
  -25.1739  -25.4895   18.5445 C   0  0  0  0  0  0  0  0  0  0  0  0
  -30.6887  -26.8182   18.6344 C   0  0  0  0  0  0  0  0  0  0  0  0
  -30.2309  -25.7786   16.5827 C   0  0  0  0  0  0  0  0  0  0  0  0
  -23.6464  -23.9737   18.0928 C   0  0  0  0  0  0  0  0  0  0  0  0
  -30.3052  -24.6062   18.5508 C   0  0  0  0  0  0  0  0  0  0  0  0
  -23.1752  -25.3085   20.1530 C   0  0  0  0  0  0  0  0  0  0  0  0
  -26.2818  -16.8316   20.3301 C   0  0  0  0  0  0  0  0  0  0  0  0
  -23.9204  -18.1375   22.1302 C   0  0  0  0  0  0  0  0  0  0  0  0
  -22.5773  -20.9275   23.5650 C   0  0  0  0  0  0  0  0  0  0  0  0
  -27.7199  -24.8132   15.0048 C   0  0  0  0  0  0  0  0  0  0  0  0
  -26.0150  -11.7896   19.5783 C   0  0  0  0  0  0  0  0  0  0  0  0
  -27.6091  -18.1005   22.0575 C   0  0  0  0  0  0  0  0  0  0  0  0
  -30.6608  -28.3339   16.7996 C   0  0  0  0  0  0  0  0  0  0  0  0
  -25.4353  -19.7483   20.9154 C   0  0  0  0  0  0  0  0  0  0  0  0
  -30.9496  -28.1645   19.2461 C   0  0  0  0  0  0  0  0  0  0  0  0
  -25.0066  -12.9228   19.7492 C   0  0  0  0  0  0  0  0  0  0  0  0
  -31.3731  -28.9692   18.0065 C   0  0  0  0  0  0  0  0  0  0  0  0
  -30.7918  -24.8754   13.0186 C   0  0  0  0  0  0  0  0  0  0  0  0
  -26.3438  -21.2570   15.1146 C   0  0  0  0  0  0  0  0  0  0  0  0
  -25.3589  -14.0931   18.8364 C   0  0  0  0  0  0  0  0  0  0  0  0
  -31.2981  -25.5234   14.2992 C   0  0  0  0  0  0  0  0  0  0  0  0
  -25.4886  -21.7433   16.2796 C   0  0  0  0  0  0  0  0  0  0  0  0
  -27.4146  -22.2895   14.7529 C   0  0  0  0  0  0  0  0  0  0  0  0
  -29.6292  -24.0211   13.5018 C   0  0  0  0  0  0  0  0  0  0  0  0
  -25.4689  -23.8251   14.7764 C   0  0  0  0  0  0  0  0  0  0  0  0
  -26.7363  -14.6697   19.1853 C   0  0  1  0  0  0  0  0  0  0  0  0
  -30.0105  -25.7947   15.0861 C   0  0  1  0  0  0  0  0  0  0  0  0
  -26.2602  -17.4982   21.6765 C   0  0  1  0  0  0  0  0  0  0  0  0
  -24.8011  -23.0886   15.9564 C   0  0  2  0  0  0  0  0  0  0  0  0
  -20.6226  -21.6874   24.9431 C   0  0  0  0  0  0  0  0  0  0  0  0
  -22.1242  -17.9723   19.6692 C   0  0  0  0  0  0  0  0  0  0  0  0
  -20.5575  -19.5704   20.7915 C   0  0  0  0  0  0  0  0  0  0  0  0
  -21.0103  -17.3424   21.8179 C   0  0  0  0  0  0  0  0  0  0  0  0
  -24.3346  -21.8428   25.7634 C   0  0  0  0  0  0  0  0  0  0  0  0
  -30.1814  -23.2954   19.2517 C   0  0  0  0  0  0  0  0  0  1  0  0
  -22.8045  -19.1226   21.8783 C   0  0  1  0  0  0  0  0  0  0  0  0
  -22.0591  -21.1888   24.9677 C   0  0  2  0  0  0  0  0  0  0  0  0
  -21.6514  -18.5089   21.0350 C   0  0  0  0  0  0  0  0  0  0  0  0
  -25.6080  -24.8997   17.4275 N   0  0  0  0  0  0  0  0  0  0  0  0
  -30.5845  -25.6752   19.3261 N   0  0  0  0  0  0  0  0  0  0  0  0
  -30.1193  -24.5861   17.2075 N   0  0  0  0  0  0  0  0  0  0  0  0
  -24.6580  -23.9824   17.1780 N   0  0  0  0  0  0  0  0  0  0  0  0
  -25.1862  -18.4930   21.6432 N   0  0  0  0  0  0  0  0  0  0  0  0
  -26.9261  -23.6754   14.7889 N   0  0  0  0  0  0  0  0  0  0  0  0
  -29.0612  -24.7693   14.6223 N   0  0  0  0  0  0  0  0  0  0  0  0
  -22.6101  -23.1144   17.9924 N   0  0  0  0  0  0  0  0  0  0  0  0
  -23.6390  -26.3375   20.9840 N   0  0  0  0  0  0  0  0  0  0  0  0
  -26.6518  -15.5007   20.3671 N   0  0  0  0  0  0  0  0  0  0  0  0
  -22.3907  -19.6144   23.1880 N   0  0  0  0  0  0  0  0  0  0  0  0
  -22.9006  -22.2134   25.6483 N   0  3  0  0  0  0  0  0  0  0  0  0
  -22.1063  -24.7197   20.4432 O   0  0  0  0  0  0  0  0  0  0  0  0
  -25.9834  -17.4765   19.3317 O   0  0  0  0  0  0  0  0  0  0  0  0
  -23.6793  -17.0944   22.7430 O   0  0  0  0  0  0  0  0  0  0  0  0
  -23.0923  -21.8018   22.8716 O   0  0  0  0  0  0  0  0  0  0  0  0
  -27.2590  -25.8247   15.5525 O   0  0  0  0  0  0  0  0  0  0  0  0
  -28.1372  -29.6219   20.8701 O   0  0  0  0  0  0  0  0  0  0  0  0
  -28.8082  -22.9358   19.3407 O   0  0  0  0  0  0  0  0  0  1  0  0
  -25.4073  -34.1106   22.5445 F   0  0  0  0  0  0  0  0  0  0  0  0
  -26.1508  -29.4421   22.7844 F   0  0  0  0  0  0  0  0  0  0  0  0
  1  2  1  0  0  0  0
  1  5  2  0  0  0  0
  2  6  2  0  0  0  0
  3  8  2  0  0  0  0
  3 15  1  0  0  0  0
  4  9  1  0  0  0  0
  4 15  2  0  0  0  0
  5 17  1  0  0  0  0
  6 19  1  0  0  0  0
  7 10  2  0  0  0  0
  7 18  1  0  0  0  0
  8 22  1  0  0  0  0
  9 22  2  0  0  0  0
 10 23  1  0  0  0  0
 11 12  2  0  0  0  0
 11 24  1  0  0  0  0
 12 25  1  0  0  0  0
 13 20  1  0  0  0  0
 13 23  2  0  0  0  0
 14 25  2  0  0  0  0
 14 26  1  0  0  0  0
 15 27  1  0  0  0  0
 16 27  1  0  0  0  0
 16 30  2  0  0  0  0
 16 32  1  0  0  0  0
 17 19  2  0  0  0  0
 17 37  1  0  0  0  0
 18 20  2  0  0  0  0
 18 38  1  0  0  0  0
 19 52  1  0  0  0  0
 20 40  1  0  0  0  0
 21 28  1  0  0  0  0
 21 29  2  0  0  0  0
 21 39  1  0  0  0  0
 22 82  1  0  0  0  0
 23 83  1  0  0  0  0
 24 26  2  0  0  0  0
 24 82  1  0  0  0  0
 25 84  1  0  0  0  0
 26 85  1  0  0  0  0
 27 65  2  0  0  0  0
 28 41  1  0  0  0  0
 28 66  2  0  0  0  0
 29 53  1  0  0  0  0
 29 67  1  0  0  0  0
 30 68  1  0  0  0  0
 30 72  1  0  0  0  0
 31 61  1  0  0  0  0
 31 66  1  0  0  0  0
 31 67  2  0  0  0  0
 32 73  1  0  0  0  0
 32 77  2  0  0  0  0
 33 54  1  0  0  0  0
 33 74  1  0  0  0  0
 33 78  2  0  0  0  0
 34 62  1  0  0  0  0
 34 69  1  0  0  0  0
 34 79  2  0  0  0  0
 35 63  1  0  0  0  0
 35 75  1  0  0  0  0
 35 80  2  0  0  0  0
 36 70  1  0  0  0  0
 36 71  1  0  0  0  0
 36 81  2  0  0  0  0
 37 42  1  0  0  0  0
 38 54  1  0  0  0  0
 39 43  1  0  0  0  0
 40 69  1  0  0  0  0
 41 43  1  0  0  0  0
 42 46  1  0  0  0  0
 44 47  1  0  0  0  0
 44 50  1  0  0  0  0
 45 48  1  0  0  0  0
 45 49  1  0  0  0  0
 46 52  1  0  0  0  0
 47 53  1  0  0  0  0
 48 55  1  0  0  0  0
 49 70  1  0  0  0  0
 50 71  1  0  0  0  0
 51 55  1  0  0  0  0
 51 70  1  0  0  0  0
 52 74  1  0  0  0  0
 53 71  1  0  0  0  0
 54 69  1  0  0  0  0
 55 68  1  0  0  0  0
 56 63  1  0  0  0  0
 57 64  1  0  0  0  0
 58 64  1  0  0  0  0
 59 64  1  0  0  0  0
 60 76  1  0  0  0  0
 61 83  1  0  0  0  0
 62 64  1  0  0  0  0
 62 75  1  0  0  0  0
 63 76  1  0  0  0  0
 65 68  1  0  0  0  0
M  CHG  1  76   1
M  ISO  4  36 100  61 101  71 100  83 101
M  END
> <Batch ID>
0181

> <Smiles>
CNC(C)C(=O)NC(C(=O)N1Cc2cc([101O:1][101CH2:1]c3nc4c(c(C5CCC[100N:0]5[100C:0](=O)N5CCCC(n6nc(-c7ccc(Oc8ccc(F)cc8F)cc7)c(C(N)=O)c6N)C5)n3)CCC4)ccc2CC1C(=O)NC1CCCc2ccccc21)C(C)(C)C

> <Shape>
0.185

> <Color>
0.058

> <Negative vol penalty>
0.000

$$$$

  -OEChem-04052323023D

 83 92  0     1  0  0  0  0  0999 V2000
  -19.6709  -24.4357   24.0350 C   0  0  0  0  0  0  0  0  0  0  0  0
  -20.9760  -24.5083   23.5586 C   0  0  0  0  0  0  0  0  0  0  0  0
  -26.7433  -15.0682   21.6722 C   0  0  0  0  0  0  0  0  0  0  0  0
  -26.4003  -15.0606   19.2807 C   0  0  0  0  0  0  0  0  0  0  0  0
  -18.7906  -25.4947   23.8171 C   0  0  0  0  0  0  0  0  0  0  0  0
  -21.4011  -25.6395   22.8628 C   0  0  0  0  0  0  0  0  0  0  0  0
  -26.9873  -28.1471   22.9752 C   0  0  0  0  0  0  0  0  0  0  0  0
  -26.4755  -13.7000   21.7151 C   0  0  0  0  0  0  0  0  0  0  0  0
  -26.1325  -13.6923   19.3235 C   0  0  0  0  0  0  0  0  0  0  0  0
  -28.0756  -28.0522   22.1090 C   0  0  0  0  0  0  0  0  0  0  0  0
  -23.7576  -11.6915   21.6602 C   0  0  0  0  0  0  0  0  0  0  0  0
  -22.9082  -11.2292   22.6654 C   0  0  0  0  0  0  0  0  0  0  0  0
  -27.3810  -30.0908   21.0224 C   0  0  0  0  0  0  0  0  0  0  0  0
  -24.6769   -9.8171   23.5106 C   0  0  0  0  0  0  0  0  0  0  0  0
  -28.8140  -26.8935   16.8166 C   0  0  0  0  0  0  0  0  0  0  0  0
  -26.7056  -15.7485   20.4551 C   0  0  0  0  0  0  0  0  0  0  0  0
  -28.2342  -17.7783   20.2284 C   0  0  0  0  0  0  0  0  0  0  0  0
  -19.2080  -26.6436   23.1267 C   0  0  0  0  0  0  0  0  0  0  0  0
  -26.0800  -29.2105   22.8642 C   0  0  0  0  0  0  0  0  0  0  0  0
  -20.5252  -26.7143   22.6343 C   0  0  0  0  0  0  0  0  0  0  0  0
  -26.2833  -30.1983   21.8901 C   0  0  0  0  0  0  0  0  0  0  0  0
  -26.1701  -13.0120   20.5407 C   0  0  0  0  0  0  0  0  0  0  0  0
  -28.2710  -29.0225   21.1306 C   0  0  0  0  0  0  0  0  0  0  0  0
  -25.0667  -11.2164   21.5801 C   0  0  0  0  0  0  0  0  0  0  0  0
  -23.3678  -10.2921   23.5906 C   0  0  0  0  0  0  0  0  0  0  0  0
  -25.5263  -10.2793   22.5054 C   0  0  0  0  0  0  0  0  0  0  0  0
  -26.9816  -17.1620   20.4103 C   0  0  0  0  0  0  0  0  0  0  0  0
  -30.1828  -28.1020   18.1939 C   0  0  0  0  0  0  0  0  0  0  0  0
  -27.7844  -27.0282   17.7219 C   0  0  0  0  0  0  0  0  0  0  0  0
  -29.1532  -28.2364   19.0993 C   0  0  0  0  0  0  0  0  0  1  0  0
  -27.9628  -19.1242   20.2622 C   0  0  0  0  0  0  0  0  0  0  0  0
  -29.5274  -17.1869   20.0453 C   0  0  0  0  0  0  0  0  0  0  0  0
  -22.9738  -29.4524   22.2344 C   0  0  0  0  0  0  0  0  0  0  0  0
  -23.4759  -32.5830   22.9196 C   0  0  0  0  0  0  0  0  0  0  0  0
  -25.6700  -35.1894   23.1189 C   0  0  0  0  0  0  0  0  0  0  0  0
  -24.8700  -23.3386   18.5021 C   0  0  0  0  0  0  0  0  0  0  0  0
  -18.2067  -27.7428   22.8744 C   0  0  0  0  0  0  0  0  0  0  0  0
  -24.9260  -29.3129   23.8235 C   0  0  0  0  0  0  0  0  0  0  0  0
  -25.3495  -31.3708   21.7426 C   0  0  0  0  0  0  0  0  0  0  0  0
  -18.8455  -29.0639   22.4540 C   0  0  0  0  0  0  0  0  0  0  0  0
  -23.7980  -21.6249   21.5992 C   0  0  0  0  0  0  0  0  0  0  0  0
  -19.8987  -28.8285   21.3760 C   0  0  0  0  0  0  0  0  0  0  0  0
  -24.5994  -20.3303   21.5081 C   0  0  0  0  0  0  0  0  0  0  0  0
  -24.5321  -27.7478   17.9915 C   0  0  0  0  0  0  0  0  0  0  0  0
  -23.3112  -26.8280   18.2078 C   0  0  0  0  0  0  0  0  0  0  0  0
  -23.3876  -22.1459   20.2224 C   0  0  0  0  0  0  0  0  0  0  0  0
  -25.3386  -21.0106   19.1930 C   0  0  0  0  0  0  0  0  0  0  0  0
  -21.0310  -27.9350   21.8967 C   0  0  1  0  0  0  0  0  0  0  0  0
  -23.7771  -30.1616   23.2877 C   0  0  1  0  0  0  0  0  0  0  0  0
  -25.8010  -20.5035   20.5672 C   0  0  2  0  0  0  0  0  0  0  0  0
  -25.4150  -26.5136   18.2774 C   0  0  1  0  0  0  0  0  0  0  0  0
  -24.2234  -25.6435   17.8062 C   0  0  1  0  0  0  0  0  0  0  0  0
  -31.5236  -28.6989   18.4525 C   0  0  0  0  0  0  0  0  0  0  0  0
  -25.7789  -37.6348   23.6721 C   0  0  0  0  0  0  0  0  0  0  0  0
  -22.2125  -33.2468   20.2228 C   0  0  0  0  0  0  0  0  0  0  0  0
  -23.1933  -35.5430   20.4069 C   0  0  0  0  0  0  0  0  0  0  0  0
  -21.5316  -34.7594   22.0944 C   0  0  0  0  0  0  0  0  0  0  0  0
  -27.5519  -34.7187   25.3540 C   0  0  0  0  0  0  0  0  0  0  0  0
  -23.8714  -33.8020   22.1217 C   0  0  1  0  0  0  0  0  0  0  0  0
  -25.9158  -36.2181   24.2079 C   0  0  2  0  0  0  0  0  0  0  0  0
  -22.7189  -34.3148   21.2127 C   0  0  0  0  0  0  0  0  0  0  0  0
  -30.0317  -27.4281   17.0363 N   0  0  0  0  0  0  0  0  0  0  0  0
  -25.9884  -18.0441   20.5494 N   0  0  0  0  0  0  0  0  0  0  0  0
  -27.9355  -27.7020   18.8796 N   0  0  0  0  0  0  0  0  0  0  0  0
  -26.6167  -19.2283   20.4551 N   0  0  0  0  0  0  0  0  0  0  0  0
  -24.2325  -31.4231   22.7001 N   0  0  0  0  0  0  0  0  0  0  0  0
  -24.5376  -22.2355   19.3086 N   0  0  0  0  0  0  0  0  0  0  0  0
  -28.7468  -20.2171   20.1455 N   0  0  0  0  0  0  0  0  0  0  0  0
  -29.6276  -15.7890   20.0361 N   0  0  0  0  0  0  0  0  0  0  0  0
  -26.5394  -26.4358   17.4135 N   0  0  0  0  0  0  0  0  0  0  0  0
  -21.9309  -28.6971   22.7357 N   0  0  0  0  0  0  0  0  0  0  0  0
  -24.3525  -34.7838   23.0876 N   0  0  0  0  0  0  0  0  0  0  0  0
  -24.0142  -24.4326   18.5863 N   0  0  0  0  0  0  0  0  0  0  0  0
  -27.2865  -36.0590   24.7708 N   0  3  0  0  0  0  0  0  0  0  0  0
  -30.5658  -17.8777   19.9106 O   0  0  0  0  0  0  0  0  0  0  0  0
  -23.2767  -29.5822   21.0541 O   0  0  0  0  0  0  0  0  0  0  0  0
  -22.5352  -32.6592   23.7138 O   0  0  0  0  0  0  0  0  0  0  0  0
  -26.5570  -34.7888   22.3685 O   0  0  0  0  0  0  0  0  0  0  0  0
  -25.8528  -23.3518   17.7531 O   0  0  0  0  0  0  0  0  0  0  0  0
  -25.9090  -11.6769   20.5821 O   0  0  0  0  0  0  0  0  0  0  0  0
  -29.3321  -28.9320   20.2834 O   0  0  0  0  0  0  0  0  0  1  0  0
  -22.5525   -9.8495   24.5568 F   0  0  0  0  0  0  0  0  0  0  0  0
  -26.7833   -9.8201   22.4343 F   0  0  0  0  0  0  0  0  0  0  0  0
  1  2  1  0  0  0  0
  1  5  2  0  0  0  0
  2  6  2  0  0  0  0
  3  8  2  0  0  0  0
  3 16  1  0  0  0  0
  4  9  1  0  0  0  0
  4 16  2  0  0  0  0
  5 18  1  0  0  0  0
  6 20  1  0  0  0  0
  7 10  2  0  0  0  0
  7 19  1  0  0  0  0
  8 22  1  0  0  0  0
  9 22  2  0  0  0  0
 10 23  1  0  0  0  0
 11 12  2  0  0  0  0
 11 24  1  0  0  0  0
 12 25  1  0  0  0  0
 13 21  1  0  0  0  0
 13 23  2  0  0  0  0
 14 25  2  0  0  0  0
 14 26  1  0  0  0  0
 15 29  1  0  0  0  0
 15 62  2  0  0  0  0
 16 27  1  0  0  0  0
 17 27  1  0  0  0  0
 17 31  2  0  0  0  0
 17 32  1  0  0  0  0
 18 20  2  0  0  0  0
 18 37  1  0  0  0  0
 19 21  2  0  0  0  0
 19 38  1  0  0  0  0
 20 48  1  0  0  0  0
 21 39  1  0  0  0  0
 22 80  1  0  0  0  0
 23 81  1  0  0  0  0
 24 26  2  0  0  0  0
 24 80  1  0  0  0  0
 25 82  1  0  0  0  0
 26 83  1  0  0  0  0
 27 63  2  0  0  0  0
 28 30  2  0  0  0  0
 28 53  1  0  0  0  0
 28 62  1  0  0  0  0
 29 64  2  0  0  0  0
 29 70  1  0  0  0  0
 30 64  1  0  0  0  0
 30 81  1  0  0  0  0
 31 65  1  0  0  0  0
 31 68  1  0  0  0  0
 32 69  1  0  0  0  0
 32 75  2  0  0  0  0
 33 49  1  0  0  0  0
 33 71  1  0  0  0  0
 33 76  2  0  0  0  0
 34 59  1  0  0  0  0
 34 66  1  0  0  0  0
 34 77  2  0  0  0  0
 35 60  1  0  0  0  0
 35 72  1  0  0  0  0
 35 78  2  0  0  0  0
 36 67  1  0  0  0  0
 36 73  1  0  0  0  0
 36 79  2  0  0  0  0
 37 40  1  0  0  0  0
 38 49  1  0  0  0  0
 39 66  1  0  0  0  0
 40 42  1  0  0  0  0
 41 43  1  0  0  0  0
 41 46  1  0  0  0  0
 42 48  1  0  0  0  0
 43 50  1  0  0  0  0
 44 45  1  0  0  0  0
 44 51  1  0  0  0  0
 45 52  1  0  0  0  0
 46 67  1  0  0  0  0
 47 50  1  0  0  0  0
 47 67  1  0  0  0  0
 48 71  1  0  0  0  0
 49 66  1  0  0  0  0
 50 65  1  0  0  0  0
 51 52  1  0  0  0  0
 51 70  1  0  0  0  0
 52 73  1  0  0  0  0
 54 60  1  0  0  0  0
 55 61  1  0  0  0  0
 56 61  1  0  0  0  0
 57 61  1  0  0  0  0
 58 74  1  0  0  0  0
 59 61  1  0  0  0  0
 59 72  1  0  0  0  0
 60 74  1  0  0  0  0
 63 65  1  0  0  0  0
M  CHG  1  74   1
M  ISO  4  30 101  36 100  73 100  81 101
M  END
> <Batch ID>
0181

> <Smiles>
CNC(C)C(=O)NC(C(=O)N1Cc2cc([101O:1][101c:1]3nc(NC4CCC4[100NH:0][100C:0](=O)N4CCCC(n5nc(-c6ccc(Oc7ccc(F)cc7F)cc6)c(C(N)=O)c5N)C4)cnc3C)ccc2CC1C(=O)NC1CCCc2ccccc21)C(C)(C)C

> <Shape>
0.247

> <Color>
0.103

> <Negative vol penalty>
0.000

$$$$

  -OEChem-04052323023D

 84 93  0     1  0  0  0  0  0999 V2000
  -29.2848  -32.2671   26.1857 C   0  0  0  0  0  0  0  0  0  0  0  0
  -29.0063  -31.0587   25.5551 C   0  0  0  0  0  0  0  0  0  0  0  0
  -23.1482  -10.3772   21.7668 C   0  0  0  0  0  0  0  0  0  0  0  0
  -24.4366   -8.6559   20.6650 C   0  0  0  0  0  0  0  0  0  0  0  0
  -28.2502  -33.1559   26.4749 C   0  0  0  0  0  0  0  0  0  0  0  0
  -27.6928  -30.7380   25.2142 C   0  0  0  0  0  0  0  0  0  0  0  0
  -27.3088  -28.8354   20.5368 C   0  0  0  0  0  0  0  0  0  0  0  0
  -21.9705   -9.7056   21.4390 C   0  0  0  0  0  0  0  0  0  0  0  0
  -23.2588   -7.9842   20.3372 C   0  0  0  0  0  0  0  0  0  0  0  0
  -27.6728  -27.5012   20.3603 C   0  0  0  0  0  0  0  0  0  0  0  0
  -18.6439   -8.2584   21.2053 C   0  0  0  0  0  0  0  0  0  0  0  0
  -17.6756   -8.1240   22.2002 C   0  0  0  0  0  0  0  0  0  0  0  0
  -25.3461  -26.8661   20.4107 C   0  0  0  0  0  0  0  0  0  0  0  0
  -28.4718  -22.5864   20.8564 C   0  0  0  0  0  0  0  0  0  0  0  0
  -19.2520   -6.9095   23.5703 C   0  0  0  0  0  0  0  0  0  0  0  0
  -24.3813   -9.8524   21.3797 C   0  0  0  0  0  0  0  0  0  0  0  0
  -26.3749  -10.3829   22.8802 C   0  0  0  0  0  0  0  0  0  0  0  0
  -26.9246  -32.8501   26.1287 C   0  0  0  0  0  0  0  0  0  0  0  0
  -25.9590  -29.1943   20.6628 C   0  0  0  0  0  0  0  0  0  0  0  0
  -26.6393  -31.6229   25.5002 C   0  0  0  0  0  0  0  0  0  0  0  0
  -24.9675  -28.2058   20.5863 C   0  0  0  0  0  0  0  0  0  0  0  0
  -28.6623  -21.2304   20.6153 C   0  0  0  0  0  0  0  0  0  0  0  0
  -29.0024  -20.7981   19.3383 C   0  0  0  0  0  0  0  0  0  0  0  0
  -22.0258   -8.5091   20.7242 C   0  0  0  0  0  0  0  0  0  0  0  0
  -26.6916  -26.5160   20.3001 C   0  0  0  0  0  0  0  0  0  0  0  0
  -19.9163   -7.7183   21.3928 C   0  0  0  0  0  0  0  0  0  0  0  0
  -17.9796   -7.4496   23.3827 C   0  0  0  0  0  0  0  0  0  0  0  0
  -20.2203   -7.0439   22.5753 C   0  0  0  0  0  0  0  0  0  0  0  0
  -25.5982  -10.5460   21.7176 C   0  0  0  0  0  0  0  0  0  0  0  0
  -28.6320  -23.4626   19.7951 C   0  0  0  0  0  0  0  0  0  0  0  0
  -29.1386  -21.7543   18.3449 C   0  0  0  0  0  0  0  0  0  0  0  0
  -27.4177  -11.2629   22.7228 C   0  0  0  0  0  0  0  0  0  0  0  0
  -26.1721   -9.5135   24.0022 C   0  0  0  0  0  0  0  0  0  0  0  0
  -24.2028  -30.5566   22.9352 C   0  0  0  0  0  0  0  0  0  0  0  0
  -21.8990  -30.4880   20.6527 C   0  0  0  0  0  0  0  0  0  0  0  0
  -20.6909  -29.0613   17.7975 C   0  0  0  0  0  0  0  0  0  0  0  0
  -27.7860  -16.2927   19.6096 C   0  0  0  0  0  0  0  0  0  0  0  0
  -25.8337  -33.8215   26.5042 C   0  0  0  0  0  0  0  0  0  0  0  0
  -25.5813  -30.6411   20.8260 C   0  0  0  0  0  0  0  0  0  0  0  0
  -23.5032  -28.5412   20.6957 C   0  0  0  0  0  0  0  0  0  0  0  0
  -24.5173  -33.5716   25.7728 C   0  0  0  0  0  0  0  0  0  0  0  0
  -30.0457  -13.4149   19.3826 C   0  0  0  0  0  0  0  0  0  0  0  0
  -24.1621  -32.0885   25.8046 C   0  0  0  0  0  0  0  0  0  0  0  0
  -29.1918  -12.3218   20.0163 C   0  0  0  0  0  0  0  0  0  0  0  0
  -27.6536  -18.5380   17.1154 C   0  0  0  0  0  0  0  0  0  0  0  0
  -29.2076  -14.4288   18.6028 C   0  0  0  0  0  0  0  0  0  0  0  0
  -28.1952  -17.1058   17.1582 C   0  0  0  0  0  0  0  0  0  0  0  0
  -27.2458  -13.9207   20.0334 C   0  0  0  0  0  0  0  0  0  0  0  0
  -25.2304  -31.2500   25.0925 C   0  0  1  0  0  0  0  0  0  0  0  0
  -24.2060  -30.8319   21.4581 C   0  0  1  0  0  0  0  0  0  0  0  0
  -28.0762  -12.9393   20.8724 C   0  0  1  0  0  0  0  0  0  0  0  0
  -27.9363  -18.6448   18.6217 C   0  0  2  0  0  0  0  0  0  0  0  0
  -28.4936  -20.2626   21.7396 C   0  0  0  0  0  0  0  0  0  0  0  0
  -29.5040  -21.3511   16.9537 C   0  0  0  0  0  0  0  0  0  0  0  0
  -18.7682  -29.1936   16.1903 C   0  0  0  0  0  0  0  0  0  0  0  0
  -20.1141  -29.0606   22.6743 C   0  0  0  0  0  0  0  0  0  0  0  0
  -18.6237  -28.3876   20.7785 C   0  0  0  0  0  0  0  0  0  0  0  0
  -18.9541  -30.8032   21.3060 C   0  0  0  0  0  0  0  0  0  0  0  0
  -22.4774  -29.7304   15.5348 C   0  0  0  0  0  0  0  0  0  0  0  0
  -29.2177  -19.3340   19.0476 C   0  0  0  0  0  0  0  0  0  0  0  0
  -28.4368  -24.9253   20.0173 C   0  0  0  0  0  0  0  0  0  1  0  0
  -20.8371  -29.4996   20.2349 C   0  0  1  0  0  0  0  0  0  0  0  0
  -20.1770  -29.6716   16.5060 C   0  0  2  0  0  0  0  0  0  0  0  0
  -19.6599  -29.4309   21.2483 C   0  0  0  0  0  0  0  0  0  0  0  0
  -26.1041  -11.4581   20.8832 N   0  0  0  0  0  0  0  0  0  0  0  0
  -28.9617  -23.0802   18.5411 N   0  0  0  0  0  0  0  0  0  0  0  0
  -27.2100  -11.8760   21.5223 N   0  0  0  0  0  0  0  0  0  0  0  0
  -23.1848  -29.9691   20.8607 N   0  0  0  0  0  0  0  0  0  0  0  0
  -28.0875  -14.9427   19.4000 N   0  0  0  0  0  0  0  0  0  0  0  0
  -28.0876  -17.1881   18.6076 N   0  0  0  0  0  0  0  0  0  0  0  0
  -28.4827  -11.5644   23.4956 N   0  0  0  0  0  0  0  0  0  0  0  0
  -25.0497   -8.6742   24.0027 N   0  0  0  0  0  0  0  0  0  0  0  0
  -25.0759  -31.3480   23.6569 N   0  0  0  0  0  0  0  0  0  0  0  0
  -20.4398  -29.8748   18.8821 N   0  0  0  0  0  0  0  0  0  0  0  0
  -21.0652  -29.3005   15.3683 N   0  3  0  0  0  0  0  0  0  0  0  0
  -26.9539   -9.4938   24.9830 O   0  0  0  0  0  0  0  0  0  0  0  0
  -23.4620  -29.6912   23.3869 O   0  0  0  0  0  0  0  0  0  0  0  0
  -21.6003  -31.6777   20.7825 O   0  0  0  0  0  0  0  0  0  0  0  0
  -21.2552  -27.9703   17.8403 O   0  0  0  0  0  0  0  0  0  0  0  0
  -27.2357  -16.6864   20.6464 O   0  0  0  0  0  0  0  0  0  0  0  0
  -20.8767   -7.8533   20.4044 O   0  0  0  0  0  0  0  0  0  0  0  0
  -27.0466  -25.2038   20.1273 O   0  0  0  0  0  0  0  0  0  1  0  0
  -17.0501   -7.3219   24.3387 F   0  0  0  0  0  0  0  0  0  0  0  0
  -21.4413   -6.5240   22.7617 F   0  0  0  0  0  0  0  0  0  0  0  0
  1  2  1  0  0  0  0
  1  5  2  0  0  0  0
  2  6  2  0  0  0  0
  3  8  2  0  0  0  0
  3 16  1  0  0  0  0
  4  9  1  0  0  0  0
  4 16  2  0  0  0  0
  5 18  1  0  0  0  0
  6 20  1  0  0  0  0
  7 10  2  0  0  0  0
  7 19  1  0  0  0  0
  8 24  1  0  0  0  0
  9 24  2  0  0  0  0
 10 25  1  0  0  0  0
 11 12  2  0  0  0  0
 11 26  1  0  0  0  0
 12 27  1  0  0  0  0
 13 21  1  0  0  0  0
 13 25  2  0  0  0  0
 14 22  2  0  0  0  0
 14 30  1  0  0  0  0
 15 27  2  0  0  0  0
 15 28  1  0  0  0  0
 16 29  1  0  0  0  0
 17 29  1  0  0  0  0
 17 32  2  0  0  0  0
 17 33  1  0  0  0  0
 18 20  2  0  0  0  0
 18 38  1  0  0  0  0
 19 21  2  0  0  0  0
 19 39  1  0  0  0  0
 20 49  1  0  0  0  0
 21 40  1  0  0  0  0
 22 23  1  0  0  0  0
 22 53  1  0  0  0  0
 23 31  2  0  0  0  0
 23 60  1  0  0  0  0
 24 81  1  0  0  0  0
 25 82  1  0  0  0  0
 26 28  2  0  0  0  0
 26 81  1  0  0  0  0
 27 83  1  0  0  0  0
 28 84  1  0  0  0  0
 29 65  2  0  0  0  0
 30 61  1  0  0  0  0
 30 66  2  0  0  0  0
 31 54  1  0  0  0  0
 31 66  1  0  0  0  0
 32 67  1  0  0  0  0
 32 71  1  0  0  0  0
 33 72  1  0  0  0  0
 33 76  2  0  0  0  0
 34 50  1  0  0  0  0
 34 73  1  0  0  0  0
 34 77  2  0  0  0  0
 35 62  1  0  0  0  0
 35 68  1  0  0  0  0
 35 78  2  0  0  0  0
 36 63  1  0  0  0  0
 36 74  1  0  0  0  0
 36 79  2  0  0  0  0
 37 69  1  0  0  0  0
 37 70  1  0  0  0  0
 37 80  2  0  0  0  0
 38 41  1  0  0  0  0
 39 50  1  0  0  0  0
 40 68  1  0  0  0  0
 41 43  1  0  0  0  0
 42 44  1  0  0  0  0
 42 46  1  0  0  0  0
 43 49  1  0  0  0  0
 44 51  1  0  0  0  0
 45 47  1  0  0  0  0
 45 52  1  0  0  0  0
 46 69  1  0  0  0  0
 47 70  1  0  0  0  0
 48 51  1  0  0  0  0
 48 69  1  0  0  0  0
 49 73  1  0  0  0  0
 50 68  1  0  0  0  0
 51 67  1  0  0  0  0
 52 60  1  0  0  0  0
 52 70  1  0  0  0  0
 55 63  1  0  0  0  0
 56 64  1  0  0  0  0
 57 64  1  0  0  0  0
 58 64  1  0  0  0  0
 59 75  1  0  0  0  0
 61 82  1  0  0  0  0
 62 64  1  0  0  0  0
 62 74  1  0  0  0  0
 63 75  1  0  0  0  0
 65 67  1  0  0  0  0
M  CHG  1  75   1
M  ISO  4  37 100  61 101  70 100  82 101
M  END
> <Batch ID>
0181

> <Smiles>
CNC(C)C(=O)NC(C(=O)N1Cc2cc([101O:1][101CH2:1]c3cc(C)c(CC4CC[100N:0]4[100C:0](=O)N4CCCC(n5nc(-c6ccc(Oc7ccc(F)cc7F)cc6)c(C(N)=O)c5N)C4)c(C)n3)ccc2CC1C(=O)NC1CCCc2ccccc21)C(C)(C)C

> <Shape>
0.292

> <Color>
0.102

> <Negative vol penalty>
0.000

$$$$

  -OEChem-04052323023D

 86 95  0     1  0  0  0  0  0999 V2000
  -16.9481  -28.8696   24.4934 C   0  0  0  0  0  0  0  0  0  0  0  0
  -17.6674  -27.6880   24.3456 C   0  0  0  0  0  0  0  0  0  0  0  0
  -23.1233  -10.0234   21.7203 C   0  0  0  0  0  0  0  0  0  0  0  0
  -23.4034  -11.3239   23.7371 C   0  0  0  0  0  0  0  0  0  0  0  0
  -17.3199  -30.0051   23.7749 C   0  0  0  0  0  0  0  0  0  0  0  0
  -18.7583  -27.6409   23.4783 C   0  0  0  0  0  0  0  0  0  0  0  0
  -23.9058  -24.4046   24.2093 C   0  0  0  0  0  0  0  0  0  0  0  0
  -22.3064   -9.1283   22.4109 C   0  0  0  0  0  0  0  0  0  0  0  0
  -22.5865  -10.4287   24.4277 C   0  0  0  0  0  0  0  0  0  0  0  0
  -24.3230  -23.1772   23.6961 C   0  0  0  0  0  0  0  0  0  0  0  0
  -22.6975   -6.5461   24.5566 C   0  0  0  0  0  0  0  0  0  0  0  0
  -22.9186   -5.1832   24.3590 C   0  0  0  0  0  0  0  0  0  0  0  0
  -25.5091  -24.3233   21.9357 C   0  0  0  0  0  0  0  0  0  0  0  0
  -20.6613   -4.9367   23.5336 C   0  0  0  0  0  0  0  0  0  0  0  0
  -23.6719  -11.1212   22.3834 C   0  0  0  0  0  0  0  0  0  0  0  0
  -24.1146  -13.2046   20.9796 C   0  0  0  0  0  0  0  0  0  0  0  0
  -18.4218  -29.9747   22.9056 C   0  0  0  0  0  0  0  0  0  0  0  0
  -24.2788  -25.6021   23.5822 C   0  0  0  0  0  0  0  0  0  0  0  0
  -19.1443  -28.7767   22.7465 C   0  0  0  0  0  0  0  0  0  0  0  0
  -25.0974  -25.5647   22.4444 C   0  0  0  0  0  0  0  0  0  0  0  0
  -22.0379   -9.3310   23.7646 C   0  0  0  0  0  0  0  0  0  0  0  0
  -25.1224  -23.1364   22.5574 C   0  0  0  0  0  0  0  0  0  0  0  0
  -21.4583   -7.1044   24.2428 C   0  0  0  0  0  0  0  0  0  0  0  0
  -21.9005   -4.3784   23.8475 C   0  0  0  0  0  0  0  0  0  0  0  0
  -20.4402   -6.2996   23.7313 C   0  0  0  0  0  0  0  0  0  0  0  0
  -24.5164  -12.0459   21.6707 C   0  0  0  0  0  0  0  0  0  0  0  0
  -27.2091  -20.1961   22.0461 C   0  0  0  0  0  0  0  0  0  0  0  0
  -26.6993  -21.3956   22.4842 C   0  0  0  0  0  0  0  0  0  1  0  0
  -25.2820  -13.7288   20.4805 C   0  0  0  0  0  0  0  0  0  0  0  0
  -28.5288  -21.1350   23.5405 C   0  0  0  0  0  0  0  0  0  0  0  0
  -22.8035  -13.7578   20.8044 C   0  0  0  0  0  0  0  0  0  0  0  0
  -22.7083  -27.9834   22.1797 C   0  0  0  0  0  0  0  0  0  0  0  0
  -25.6578  -29.3261   22.0368 C   0  0  0  0  0  0  0  0  0  0  0  0
  -29.0420  -28.8876   22.0020 C   0  0  0  0  0  0  0  0  0  0  0  0
  -30.5555  -15.1145   20.9064 C   0  0  0  0  0  0  0  0  0  0  0  0
  -18.7567  -31.2142   22.1145 C   0  0  0  0  0  0  0  0  0  0  0  0
  -23.8426  -26.9189   24.1637 C   0  0  0  0  0  0  0  0  0  0  0  0
  -25.5422  -26.8226   21.7457 C   0  0  0  0  0  0  0  0  0  0  0  0
  -20.1535  -31.1853   21.4994 C   0  0  0  0  0  0  0  0  0  0  0  0
  -29.9362  -11.7830   20.2172 C   0  0  0  0  0  0  0  0  0  0  0  0
  -20.4107  -29.8431   20.8216 C   0  0  0  0  0  0  0  0  0  0  0  0
  -28.4367  -11.6329   20.4739 C   0  0  0  0  0  0  0  0  0  0  0  0
  -29.9309  -18.7496   21.2002 C   0  0  0  0  0  0  0  0  0  0  0  0
  -28.6906  -17.5486   23.0494 C   0  0  0  0  0  0  0  0  0  0  0  0
  -30.5863  -12.6658   21.2768 C   0  0  0  0  0  0  0  0  0  0  0  0
  -30.8754  -17.5552   21.0892 C   0  0  0  0  0  0  0  0  0  0  0  0
  -29.6637  -16.3830   22.8984 C   0  0  0  0  0  0  0  0  0  0  0  0
  -28.4683  -13.8855   21.6525 C   0  0  0  0  0  0  0  0  0  0  0  0
  -20.3487  -28.6930   21.8341 C   0  0  1  0  0  0  0  0  0  0  0  0
  -23.8566  -28.0554   23.1462 C   0  0  1  0  0  0  0  0  0  0  0  0
  -27.7586  -13.0085   20.6017 C   0  0  2  0  0  0  0  0  0  0  0  0
  -29.3415  -18.8739   22.6159 C   0  0  0  0  0  0  0  0  0  0  0  0
  -26.4917  -19.8095   19.6749 C   0  0  0  0  0  0  0  0  0  0  0  0
  -30.6758  -22.5737   26.4085 C   0  0  0  0  0  0  0  0  0  0  0  0
  -31.1929  -30.1699   21.8386 C   0  0  0  0  0  0  0  0  0  0  0  0
  -25.2079  -29.6942   19.0415 C   0  0  0  0  0  0  0  0  0  0  0  0
  -27.6697  -30.0742   18.7892 C   0  0  0  0  0  0  0  0  0  0  0  0
  -26.3046  -31.6334   20.1778 C   0  0  0  0  0  0  0  0  0  0  0  0
  -29.9373  -27.9513   24.6630 C   0  0  0  0  0  0  0  0  0  0  0  0
  -26.7082  -19.2115   21.0699 C   0  0  0  0  0  0  0  0  0  0  0  0
  -29.6946  -21.3035   24.4320 C   0  0  0  0  0  0  0  0  0  0  0  0
  -29.4904  -22.4269   25.4677 C   0  0  0  0  0  0  0  0  0  0  0  0
  -26.7934  -29.3084   21.0423 C   0  0  1  0  0  0  0  0  0  0  0  0
  -30.1545  -29.5725   22.7753 C   0  0  2  0  0  0  0  0  0  0  0  0
  -26.4841  -30.1536   19.7745 C   0  0  0  0  0  0  0  0  0  0  0  0
  -25.8358  -11.8451   21.6175 N   0  0  0  0  0  0  0  0  0  0  0  0
  -27.5257  -21.9750   23.4143 N   0  0  0  0  0  0  0  0  0  0  0  0
  -28.3810  -20.0426   22.7318 N   0  0  0  0  0  0  0  0  0  0  0  0
  -26.2733  -12.8848   20.8869 N   0  0  0  0  0  0  0  0  0  0  0  0
  -25.0845  -28.0852   22.3489 N   0  0  0  0  0  0  0  0  0  0  0  0
  -29.9100  -13.9593   21.3727 N   0  0  0  0  0  0  0  0  0  0  0  0
  -30.2328  -16.3232   21.5451 N   0  0  0  0  0  0  0  0  0  0  0  0
  -25.5469  -14.8246   19.7379 N   0  0  0  0  0  0  0  0  0  0  0  0
  -21.7147  -13.0923   21.3839 N   0  0  0  0  0  0  0  0  0  0  0  0
  -21.5690  -28.6364   22.6100 N   0  0  0  0  0  0  0  0  0  0  0  0
  -27.9815  -29.7382   21.7718 N   0  0  0  0  0  0  0  0  0  0  0  0
  -30.8367  -28.5983   23.6734 N   0  3  0  0  0  0  0  0  0  0  0  0
  -22.6016  -14.8021   20.1395 O   0  0  0  0  0  0  0  0  0  0  0  0
  -22.8463  -27.3813   21.1214 O   0  0  0  0  0  0  0  0  0  0  0  0
  -25.2975  -30.4004   22.5243 O   0  0  0  0  0  0  0  0  0  0  0  0
  -29.1089  -27.7164   21.6354 O   0  0  0  0  0  0  0  0  0  0  0  0
  -31.3664  -15.0725   19.9728 O   0  0  0  0  0  0  0  0  0  0  0  0
  -21.2406   -8.4578   24.4388 O   0  0  0  0  0  0  0  0  0  0  0  0
  -25.5401  -21.9115   22.0422 O   0  0  0  0  0  0  0  0  0  1  0  0
  -22.1135   -3.0699   23.6564 F   0  0  0  0  0  0  0  0  0  0  0  0
  -19.2480   -6.8305   23.4268 F   0  0  0  0  0  0  0  0  0  0  0  0
  1  2  1  0  0  0  0
  1  5  2  0  0  0  0
  2  6  2  0  0  0  0
  3  8  2  0  0  0  0
  3 15  1  0  0  0  0
  4  9  1  0  0  0  0
  4 15  2  0  0  0  0
  5 17  1  0  0  0  0
  6 19  1  0  0  0  0
  7 10  2  0  0  0  0
  7 18  1  0  0  0  0
  8 21  1  0  0  0  0
  9 21  2  0  0  0  0
 10 22  1  0  0  0  0
 11 12  2  0  0  0  0
 11 23  1  0  0  0  0
 12 24  1  0  0  0  0
 13 20  1  0  0  0  0
 13 22  2  0  0  0  0
 14 24  2  0  0  0  0
 14 25  1  0  0  0  0
 15 26  1  0  0  0  0
 16 26  1  0  0  0  0
 16 29  2  0  0  0  0
 16 31  1  0  0  0  0
 17 19  2  0  0  0  0
 17 36  1  0  0  0  0
 18 20  2  0  0  0  0
 18 37  1  0  0  0  0
 19 49  1  0  0  0  0
 20 38  1  0  0  0  0
 21 83  1  0  0  0  0
 22 84  1  0  0  0  0
 23 25  2  0  0  0  0
 23 83  1  0  0  0  0
 24 85  1  0  0  0  0
 25 86  1  0  0  0  0
 26 66  2  0  0  0  0
 27 28  2  0  0  0  0
 27 60  1  0  0  0  0
 27 68  1  0  0  0  0
 28 67  1  0  0  0  0
 28 84  1  0  0  0  0
 29 69  1  0  0  0  0
 29 73  1  0  0  0  0
 30 61  1  0  0  0  0
 30 67  2  0  0  0  0
 30 68  1  0  0  0  0
 31 74  1  0  0  0  0
 31 78  2  0  0  0  0
 32 50  1  0  0  0  0
 32 75  1  0  0  0  0
 32 79  2  0  0  0  0
 33 63  1  0  0  0  0
 33 70  1  0  0  0  0
 33 80  2  0  0  0  0
 34 64  1  0  0  0  0
 34 76  1  0  0  0  0
 34 81  2  0  0  0  0
 35 71  1  0  0  0  0
 35 72  1  0  0  0  0
 35 82  2  0  0  0  0
 36 39  1  0  0  0  0
 37 50  1  0  0  0  0
 38 70  1  0  0  0  0
 39 41  1  0  0  0  0
 40 42  1  0  0  0  0
 40 45  1  0  0  0  0
 41 49  1  0  0  0  0
 42 51  1  0  0  0  0
 43 46  1  0  0  0  0
 43 52  1  0  0  0  0
 44 47  1  0  0  0  0
 44 52  1  0  0  0  0
 45 71  1  0  0  0  0
 46 72  1  0  0  0  0
 47 72  1  0  0  0  0
 48 51  1  0  0  0  0
 48 71  1  0  0  0  0
 49 75  1  0  0  0  0
 50 70  1  0  0  0  0
 51 69  1  0  0  0  0
 52 68  1  0  0  0  0
 53 60  1  0  0  0  0
 54 62  1  0  0  0  0
 55 64  1  0  0  0  0
 56 65  1  0  0  0  0
 57 65  1  0  0  0  0
 58 65  1  0  0  0  0
 59 77  1  0  0  0  0
 61 62  1  0  0  0  0
 63 65  1  0  0  0  0
 63 76  1  0  0  0  0
 64 77  1  0  0  0  0
 66 69  1  0  0  0  0
M  CHG  1  77   1
M  ISO  4  28 101  35 100  72 100  84 101
M  END
> <Batch ID>
0181

> <Smiles>
CCCc1n[101c:1]([101O:1]c2ccc3c(c2)CN(C(=O)C(NC(=O)C(C)NC)C(C)(C)C)C(C(=O)NC2CCCc4ccccc42)C3)c(CC)n1C1CC[100N:0]([100C:0](=O)N2CCCC(n3nc(-c4ccc(Oc5ccc(F)cc5F)cc4)c(C(N)=O)c3N)C2)CC1

> <Shape>
0.254

> <Color>
0.121

> <Negative vol penalty>
0.000

$$$$

  -OEChem-04052323023D

 87 96  0     1  0  0  0  0  0999 V2000
  -28.2533  -32.1980   27.3067 C   0  0  0  0  0  0  0  0  0  0  0  0
  -28.2603  -31.1081   26.4421 C   0  0  0  0  0  0  0  0  0  0  0  0
  -23.5093  -10.1514   22.1293 C   0  0  0  0  0  0  0  0  0  0  0  0
  -23.9498   -8.9800   20.0627 C   0  0  0  0  0  0  0  0  0  0  0  0
  -27.0509  -32.8312   27.6186 C   0  0  0  0  0  0  0  0  0  0  0  0
  -27.0647  -30.6501   25.8897 C   0  0  0  0  0  0  0  0  0  0  0  0
  -27.4632  -29.6669   20.9380 C   0  0  0  0  0  0  0  0  0  0  0  0
  -22.1487   -9.8746   21.9962 C   0  0  0  0  0  0  0  0  0  0  0  0
  -22.5892   -8.7031   19.9296 C   0  0  0  0  0  0  0  0  0  0  0  0
  -28.0810  -28.4713   20.5740 C   0  0  0  0  0  0  0  0  0  0  0  0
  -19.2767   -7.3775   19.2308 C   0  0  0  0  0  0  0  0  0  0  0  0
  -18.9104   -6.0821   18.8655 C   0  0  0  0  0  0  0  0  0  0  0  0
  -25.9162  -27.4667   20.2224 C   0  0  0  0  0  0  0  0  0  0  0  0
  -27.9542  -22.8687   20.1017 C   0  0  0  0  0  0  0  0  0  0  0  0
  -19.9881   -5.2183   20.8478 C   0  0  0  0  0  0  0  0  0  0  0  0
  -24.4099   -9.7041   21.1625 C   0  0  0  0  0  0  0  0  0  0  0  0
  -26.7836   -9.2034   21.9513 C   0  0  0  0  0  0  0  0  0  0  0  0
  -25.8412  -32.3867   27.0622 C   0  0  0  0  0  0  0  0  0  0  0  0
  -26.0647  -29.7683   20.9575 C   0  0  0  0  0  0  0  0  0  0  0  0
  -25.8448  -31.2771   26.1955 C   0  0  0  0  0  0  0  0  0  0  0  0
  -25.2831  -28.6655   20.5846 C   0  0  0  0  0  0  0  0  0  0  0  0
  -27.8747  -23.9112   19.1953 C   0  0  0  0  0  0  0  0  0  0  0  0
  -21.6886   -9.1505   20.8964 C   0  0  0  0  0  0  0  0  0  0  0  0
  -27.3075  -27.3701   20.2189 C   0  0  0  0  0  0  0  0  0  0  0  0
  -19.9988   -7.5933   20.4046 C   0  0  0  0  0  0  0  0  0  0  0  0
  -19.2660   -5.0026   19.6740 C   0  0  0  0  0  0  0  0  0  0  0  0
  -20.3544   -6.5137   21.2131 C   0  0  0  0  0  0  0  0  0  0  0  0
  -25.8154   -9.9902   21.2991 C   0  0  0  0  0  0  0  0  0  0  0  0
  -28.5735  -23.7922   18.0108 C   0  0  0  0  0  0  0  0  0  0  0  0
  -28.7269  -21.7759   19.7635 C   0  0  0  0  0  0  0  0  0  0  0  0
  -27.9544   -9.9058   21.8017 C   0  0  0  0  0  0  0  0  0  0  0  0
  -26.6378   -7.9497   22.6314 C   0  0  0  0  0  0  0  0  0  0  0  0
  -23.8891  -30.3517   23.2003 C   0  0  0  0  0  0  0  0  0  0  0  0
  -21.8539  -30.3569   20.6743 C   0  0  0  0  0  0  0  0  0  0  0  0
  -21.1931  -29.3410   17.4840 C   0  0  0  0  0  0  0  0  0  0  0  0
  -29.2146  -15.5066   21.1433 C   0  0  0  0  0  0  0  0  0  0  0  0
  -24.5607  -33.0737   27.4661 C   0  0  0  0  0  0  0  0  0  0  0  0
  -25.4140  -31.0732   21.3268 C   0  0  0  0  0  0  0  0  0  0  0  0
  -23.7784  -28.7288   20.5696 C   0  0  0  0  0  0  0  0  0  0  0  0
  -23.3846  -32.7605   26.5446 C   0  0  0  0  0  0  0  0  0  0  0  0
  -30.1314  -12.9913   18.8714 C   0  0  0  0  0  0  0  0  0  0  0  0
  -23.3071  -31.2623   26.2685 C   0  0  0  0  0  0  0  0  0  0  0  0
  -29.2153  -11.8457   19.3011 C   0  0  0  0  0  0  0  0  0  0  0  0
  -28.8052  -18.5961   19.5078 C   0  0  0  0  0  0  0  0  0  0  0  0
  -29.8820  -18.8472   21.7761 C   0  0  0  0  0  0  0  0  0  0  0  0
  -29.4131  -14.3416   18.9013 C   0  0  0  0  0  0  0  0  0  0  0  0
  -29.5241  -17.2550   19.3340 C   0  0  0  0  0  0  0  0  0  0  0  0
  -30.5990  -17.5197   21.5462 C   0  0  0  0  0  0  0  0  0  0  0  0
  -27.8517  -13.5037   20.6272 C   0  0  0  0  0  0  0  0  0  0  0  0
  -24.5716  -30.7663   25.5568 C   0  0  1  0  0  0  0  0  0  0  0  0
  -23.9755  -30.9086   21.8074 C   0  0  1  0  0  0  0  0  0  0  0  0
  -28.5623  -12.1419   20.6630 C   0  0  1  0  0  0  0  0  0  0  0  0
  -29.5777  -19.5315   20.4409 C   0  0  0  0  0  0  0  0  0  0  0  0
  -19.4327  -29.4701   15.7003 C   0  0  0  0  0  0  0  0  0  0  0  0
  -20.1863  -28.2878   22.1737 C   0  0  0  0  0  0  0  0  0  0  0  0
  -19.0234  -27.7659   20.0188 C   0  0  0  0  0  0  0  0  0  0  0  0
  -18.8544  -30.0516   21.0034 C   0  0  0  0  0  0  0  0  0  0  0  0
  -23.0237  -30.7246   15.6149 C   0  0  0  0  0  0  0  0  0  0  0  0
  -27.0543  -25.1136   19.5115 C   0  0  0  0  0  0  0  0  0  1  0  0
  -28.5351  -24.8759   16.9866 C   0  0  0  0  0  0  0  0  0  0  0  0
  -21.0343  -29.3098   19.9595 C   0  0  1  0  0  0  0  0  0  0  0  0
  -20.6949  -30.1006   16.2678 C   0  0  2  0  0  0  0  0  0  0  0  0
  -19.8029  -28.8517   20.7909 C   0  0  0  0  0  0  0  0  0  0  0  0
  -26.3267  -11.1071   20.7744 N   0  0  0  0  0  0  0  0  0  0  0  0
  -29.3221  -22.7110   17.7061 N   0  0  0  0  0  0  0  0  0  0  0  0
  -29.3999  -21.6862   18.5969 N   0  0  0  0  0  0  0  0  0  0  0  0
  -27.6289  -11.0272   21.0968 N   0  0  0  0  0  0  0  0  0  0  0  0
  -23.1890  -30.0247   20.9446 N   0  0  0  0  0  0  0  0  0  0  0  0
  -28.7726  -14.5614   20.2055 N   0  0  0  0  0  0  0  0  0  0  0  0
  -29.8370  -16.6590   20.6407 N   0  0  0  0  0  0  0  0  0  0  0  0
  -29.2203   -9.6676   22.2057 N   0  0  0  0  0  0  0  0  0  0  0  0
  -25.3648   -7.3664   22.6916 N   0  0  0  0  0  0  0  0  0  0  0  0
  -28.8065  -20.7335   20.6698 N   0  0  0  0  0  0  0  0  0  0  0  0
  -24.5325  -31.1178   24.1534 N   0  0  0  0  0  0  0  0  0  0  0  0
  -20.6993  -29.8732   18.6562 N   0  0  0  0  0  0  0  0  0  0  0  0
  -21.7357  -30.1107   15.2012 N   0  3  0  0  0  0  0  0  0  0  0  0
  -27.6045   -7.3721   23.1839 O   0  0  0  0  0  0  0  0  0  0  0  0
  -23.2823  -29.3052   23.3959 O   0  0  0  0  0  0  0  0  0  0  0  0
  -21.3308  -31.4328   20.9752 O   0  0  0  0  0  0  0  0  0  0  0  0
  -21.9422  -28.3701   17.4022 O   0  0  0  0  0  0  0  0  0  0  0  0
  -29.0621  -15.3314   22.3587 O   0  0  0  0  0  0  0  0  0  0  0  0
  -20.3610   -8.8800   20.7663 O   0  0  0  0  0  0  0  0  0  0  0  0
  -27.9120  -26.1938   19.8614 O   0  0  0  0  0  0  0  0  0  1  0  0
  -18.9128   -3.7588   19.3238 F   0  0  0  0  0  0  0  0  0  0  0  0
  -21.0470   -6.7149   22.3425 F   0  0  0  0  0  0  0  0  0  0  0  0
  -27.2664  -25.0779   16.5438 F   0  0  0  0  0  0  0  0  0  0  0  0
  -29.2740  -24.5373   15.8976 F   0  0  0  0  0  0  0  0  0  0  0  0
  1  2  1  0  0  0  0
  1  5  2  0  0  0  0
  2  6  2  0  0  0  0
  3  8  2  0  0  0  0
  3 16  1  0  0  0  0
  4  9  1  0  0  0  0
  4 16  2  0  0  0  0
  5 18  1  0  0  0  0
  6 20  1  0  0  0  0
  7 10  2  0  0  0  0
  7 19  1  0  0  0  0
  8 23  1  0  0  0  0
  9 23  2  0  0  0  0
 10 24  1  0  0  0  0
 11 12  2  0  0  0  0
 11 25  1  0  0  0  0
 12 26  1  0  0  0  0
 13 21  1  0  0  0  0
 13 24  2  0  0  0  0
 14 22  1  0  0  0  0
 14 30  2  0  0  0  0
 15 26  2  0  0  0  0
 15 27  1  0  0  0  0
 16 28  1  0  0  0  0
 17 28  1  0  0  0  0
 17 31  2  0  0  0  0
 17 32  1  0  0  0  0
 18 20  2  0  0  0  0
 18 37  1  0  0  0  0
 19 21  2  0  0  0  0
 19 38  1  0  0  0  0
 20 50  1  0  0  0  0
 21 39  1  0  0  0  0
 22 29  2  0  0  0  0
 22 59  1  0  0  0  0
 23 82  1  0  0  0  0
 24 83  1  0  0  0  0
 25 27  2  0  0  0  0
 25 82  1  0  0  0  0
 26 84  1  0  0  0  0
 27 85  1  0  0  0  0
 28 64  2  0  0  0  0
 29 60  1  0  0  0  0
 29 65  1  0  0  0  0
 30 66  1  0  0  0  0
 30 73  1  0  0  0  0
 31 67  1  0  0  0  0
 31 71  1  0  0  0  0
 32 72  1  0  0  0  0
 32 77  2  0  0  0  0
 33 51  1  0  0  0  0
 33 74  1  0  0  0  0
 33 78  2  0  0  0  0
 34 61  1  0  0  0  0
 34 68  1  0  0  0  0
 34 79  2  0  0  0  0
 35 62  1  0  0  0  0
 35 75  1  0  0  0  0
 35 80  2  0  0  0  0
 36 69  1  0  0  0  0
 36 70  1  0  0  0  0
 36 81  2  0  0  0  0
 37 40  1  0  0  0  0
 38 51  1  0  0  0  0
 39 68  1  0  0  0  0
 40 42  1  0  0  0  0
 41 43  1  0  0  0  0
 41 46  1  0  0  0  0
 42 50  1  0  0  0  0
 43 52  1  0  0  0  0
 44 47  1  0  0  0  0
 44 53  1  0  0  0  0
 45 48  1  0  0  0  0
 45 53  1  0  0  0  0
 46 69  1  0  0  0  0
 47 70  1  0  0  0  0
 48 70  1  0  0  0  0
 49 52  1  0  0  0  0
 49 69  1  0  0  0  0
 50 74  1  0  0  0  0
 51 68  1  0  0  0  0
 52 67  1  0  0  0  0
 53 73  1  0  0  0  0
 54 62  1  0  0  0  0
 55 63  1  0  0  0  0
 56 63  1  0  0  0  0
 57 63  1  0  0  0  0
 58 76  1  0  0  0  0
 59 83  1  0  0  0  0
 60 86  1  0  0  0  0
 60 87  1  0  0  0  0
 61 63  1  0  0  0  0
 61 75  1  0  0  0  0
 62 76  1  0  0  0  0
 64 67  1  0  0  0  0
 65 66  2  0  0  0  0
M  CHG  1  76   1
M  ISO  4  36 100  59 101  70 100  83 101
M  END
> <Batch ID>
0181

> <Smiles>
CNC(C)C(=O)NC(C(=O)N1Cc2cc([101O:1][101CH2:1]c3cc(NC4CC[100N:0]([100C:0](=O)N5CCCC(n6nc(-c7ccc(Oc8ccc(F)cc8F)cc7)c(C(N)=O)c6N)C5)CC4)nnc3C(F)F)ccc2CC1C(=O)NC1CCCc2ccccc21)C(C)(C)C

> <Shape>
0.299

> <Color>
0.105

> <Negative vol penalty>
0.000

$$$$

  -OEChem-04052323023D

 87 97  0     1  0  0  0  0  0999 V2000
  -28.5204  -35.5145   23.3116 C   0  0  0  0  0  0  0  0  0  0  0  0
  -28.5998  -34.1263   23.3562 C   0  0  0  0  0  0  0  0  0  0  0  0
  -24.6177  -10.3900   23.3106 C   0  0  0  0  0  0  0  0  0  0  0  0
  -24.2311   -9.1503   21.2733 C   0  0  0  0  0  0  0  0  0  0  0  0
  -27.2758  -36.1419   23.3491 C   0  0  0  0  0  0  0  0  0  0  0  0
  -27.4347  -33.3647   23.4393 C   0  0  0  0  0  0  0  0  0  0  0  0
  -27.4708  -29.4075   20.2796 C   0  0  0  0  0  0  0  0  0  0  0  0
  -23.5760   -9.6987   23.9290 C   0  0  0  0  0  0  0  0  0  0  0  0
  -23.1894   -8.4589   21.8918 C   0  0  0  0  0  0  0  0  0  0  0  0
  -28.2174  -28.2939   20.6622 C   0  0  0  0  0  0  0  0  0  0  0  0
  -22.8487   -5.8829   24.0525 C   0  0  0  0  0  0  0  0  0  0  0  0
  -22.7907   -4.5015   23.8686 C   0  0  0  0  0  0  0  0  0  0  0  0
  -26.1991  -27.2057   21.4115 C   0  0  0  0  0  0  0  0  0  0  0  0
  -20.6069   -4.7276   22.8599 C   0  0  0  0  0  0  0  0  0  0  0  0
  -24.9453  -10.1159   21.9828 C   0  0  0  0  0  0  0  0  0  0  0  0
  -27.3801  -10.4655   21.3070 C   0  0  0  0  0  0  0  0  0  0  0  0
  -26.0944  -35.3873   23.4231 C   0  0  0  0  0  0  0  0  0  0  0  0
  -26.0818  -29.4329   20.4704 C   0  0  0  0  0  0  0  0  0  0  0  0
  -26.1733  -33.9826   23.4792 C   0  0  0  0  0  0  0  0  0  0  0  0
  -25.4369  -28.3197   21.0281 C   0  0  0  0  0  0  0  0  0  0  0  0
  -29.2302  -23.9767   21.0034 C   0  0  0  0  0  0  0  0  0  0  0  0
  -22.8618   -8.7331   23.2196 C   0  0  0  0  0  0  0  0  0  0  0  0
  -27.5820  -27.1940   21.2309 C   0  0  0  0  0  0  0  0  0  0  0  0
  -21.7859   -6.6867   23.6402 C   0  0  0  0  0  0  0  0  0  0  0  0
  -21.6698   -3.9238   23.2723 C   0  0  0  0  0  0  0  0  0  0  0  0
  -20.6650   -6.1090   23.0439 C   0  0  0  0  0  0  0  0  0  0  0  0
  -26.0209  -10.8301   21.3432 C   0  0  0  0  0  0  0  0  0  0  0  0
  -29.3594  -23.0396   19.9987 C   0  0  0  0  0  0  0  0  0  0  0  0
  -28.5022  -25.1033   20.6790 C   0  0  0  0  0  0  0  0  0  1  0  0
  -27.9844  -11.4644   20.5834 C   0  0  0  0  0  0  0  0  0  0  0  0
  -28.1362  -24.3225   18.5758 C   0  0  0  0  0  0  0  0  0  0  0  0
  -28.0378   -9.3257   21.8763 C   0  0  0  0  0  0  0  0  0  0  0  0
  -24.0820  -31.2383   22.1571 C   0  0  0  0  0  0  0  0  0  0  0  0
  -21.8234  -29.5005   20.6076 C   0  0  0  0  0  0  0  0  0  0  0  0
  -20.9999  -26.6197   18.9737 C   0  0  0  0  0  0  0  0  0  0  0  0
  -28.8414  -16.6161   19.3399 C   0  0  0  0  0  0  0  0  0  0  0  0
  -24.7744  -36.1118   23.5089 C   0  0  0  0  0  0  0  0  0  0  0  0
  -25.2873  -30.6309   20.0277 C   0  0  0  0  0  0  0  0  0  0  0  0
  -23.9454  -28.2889   21.2356 C   0  0  0  0  0  0  0  0  0  0  0  0
  -23.5700  -35.2197   23.2192 C   0  0  0  0  0  0  0  0  0  0  0  0
  -26.0066  -15.2022   17.8205 C   0  0  0  0  0  0  0  0  0  0  0  0
  -30.7624  -24.8468   22.8926 C   0  0  0  0  0  0  0  0  0  0  0  0
  -31.3139  -23.5233   22.4631 C   0  0  0  0  0  0  0  0  0  0  0  0
  -23.6857  -33.9029   23.9805 C   0  0  0  0  0  0  0  0  0  0  0  0
  -25.8617  -13.8978   18.6036 C   0  0  0  0  0  0  0  0  0  0  0  0
  -26.3944  -16.3738   18.7245 C   0  0  0  0  0  0  0  0  0  0  0  0
  -27.8288  -18.9262   19.0897 C   0  0  0  0  0  0  0  0  0  0  0  0
  -30.1277  -18.4688   18.3191 C   0  0  0  0  0  0  0  0  0  0  0  0
  -27.4541  -14.8191   20.3304 C   0  0  0  0  0  0  0  0  0  0  0  0
  -28.3435  -20.0429   19.9924 C   0  0  0  0  0  0  0  0  0  0  0  0
  -30.6787  -19.5576   19.2255 C   0  0  0  0  0  0  0  0  0  0  0  0
  -29.8344  -23.7895   22.3512 C   0  0  0  0  0  0  0  0  0  0  0  0
  -24.9308  -33.1211   23.5446 C   0  0  1  0  0  0  0  0  0  0  0  0
  -23.9446  -30.7543   20.7413 C   0  0  1  0  0  0  0  0  0  0  0  0
  -27.1223  -13.6123   19.4391 C   0  0  1  0  0  0  0  0  0  0  0  0
  -27.5278  -24.5144   17.2281 C   0  0  0  0  0  0  0  0  0  0  0  0
  -19.0684  -25.4725   17.8552 C   0  0  0  0  0  0  0  0  0  0  0  0
  -20.6376  -28.8380   23.3398 C   0  0  0  0  0  0  0  0  0  0  0  0
  -19.3522  -26.9836   22.2549 C   0  0  0  0  0  0  0  0  0  0  0  0
  -18.9500  -29.3471   21.5659 C   0  0  0  0  0  0  0  0  0  0  0  0
  -22.4092  -26.5299   16.3728 C   0  0  0  0  0  0  0  0  0  0  0  0
  -30.1260  -21.7717   20.2349 C   0  0  0  0  0  0  0  0  0  0  0  0
  -21.0984  -28.2046   20.8797 C   0  0  1  0  0  0  0  0  0  0  0  0
  -20.2753  -26.3775   17.6619 C   0  0  2  0  0  0  0  0  0  0  0  0
  -20.0379  -28.3444   22.0081 C   0  0  0  0  0  0  0  0  0  0  0  0
  -25.7757  -11.9716   20.6945 N   0  0  0  0  0  0  0  0  0  0  0  0
  -28.8234  -23.1806   18.7686 N   0  0  0  0  0  0  0  0  0  0  0  0
  -27.9391  -25.3096   19.4705 N   0  0  0  0  0  0  0  0  0  0  0  0
  -26.9891  -12.3330   20.2438 N   0  0  0  0  0  0  0  0  0  0  0  0
  -23.2131  -29.4868   20.7924 N   0  0  0  0  0  0  0  0  0  0  0  0
  -27.5766  -16.0400   19.5311 N   0  0  0  0  0  0  0  0  0  0  0  0
  -28.8754  -17.9272   18.8422 N   0  0  0  0  0  0  0  0  0  0  0  0
  -29.2646  -11.6759   20.2110 N   0  0  0  0  0  0  0  0  0  0  0  0
  -27.2674   -8.3966   22.5888 N   0  0  0  0  0  0  0  0  0  0  0  0
  -24.6989  -32.4692   22.2735 N   0  0  0  0  0  0  0  0  0  0  0  0
  -20.5543  -27.7647   19.5995 N   0  0  0  0  0  0  0  0  0  0  0  0
  -29.6177  -20.6156   19.4197 N   0  3  0  0  0  0  0  0  0  0  0  0
  -21.1901  -25.7366   16.6754 N   0  3  0  0  0  0  0  0  0  0  0  0
  -29.2746   -9.1453   21.7708 O   0  0  0  0  0  0  0  0  0  0  0  0
  -23.6582  -30.5468   23.0758 O   0  0  0  0  0  0  0  0  0  0  0  0
  -21.1812  -30.4865   20.2376 O   0  0  0  0  0  0  0  0  0  0  0  0
  -21.8712  -25.8663   19.4023 O   0  0  0  0  0  0  0  0  0  0  0  0
  -29.8799  -15.9953   19.5996 O   0  0  0  0  0  0  0  0  0  0  0  0
  -21.8454   -8.0581   23.8228 O   0  0  0  0  0  0  0  0  0  0  0  0
  -28.3190  -26.0902   21.6113 O   0  0  0  0  0  0  0  0  0  1  0  0
  -21.6148   -2.5973   23.0943 F   0  0  0  0  0  0  0  0  0  0  0  0
  -19.6414   -6.8762   22.6447 F   0  0  0  0  0  0  0  0  0  0  0  0
  1  2  1  0  0  0  0
  1  5  2  0  0  0  0
  2  6  2  0  0  0  0
  3  8  2  0  0  0  0
  3 15  1  0  0  0  0
  4  9  1  0  0  0  0
  4 15  2  0  0  0  0
  5 17  1  0  0  0  0
  6 19  1  0  0  0  0
  7 10  2  0  0  0  0
  7 18  1  0  0  0  0
  8 22  1  0  0  0  0
  9 22  2  0  0  0  0
 10 23  1  0  0  0  0
 11 12  2  0  0  0  0
 11 24  1  0  0  0  0
 12 25  1  0  0  0  0
 13 20  1  0  0  0  0
 13 23  2  0  0  0  0
 14 25  2  0  0  0  0
 14 26  1  0  0  0  0
 15 27  1  0  0  0  0
 16 27  1  0  0  0  0
 16 30  2  0  0  0  0
 16 32  1  0  0  0  0
 17 19  2  0  0  0  0
 17 37  1  0  0  0  0
 18 20  2  0  0  0  0
 18 38  1  0  0  0  0
 19 53  1  0  0  0  0
 20 39  1  0  0  0  0
 21 28  1  0  0  0  0
 21 29  2  0  0  0  0
 21 52  1  0  0  0  0
 22 84  1  0  0  0  0
 23 85  1  0  0  0  0
 24 26  2  0  0  0  0
 24 84  1  0  0  0  0
 25 86  1  0  0  0  0
 26 87  1  0  0  0  0
 27 66  2  0  0  0  0
 28 62  1  0  0  0  0
 28 67  2  0  0  0  0
 29 68  1  0  0  0  0
 29 85  1  0  0  0  0
 30 69  1  0  0  0  0
 30 73  1  0  0  0  0
 31 56  1  0  0  0  0
 31 67  1  0  0  0  0
 31 68  2  0  0  0  0
 32 74  1  0  0  0  0
 32 79  2  0  0  0  0
 33 54  1  0  0  0  0
 33 75  1  0  0  0  0
 33 80  2  0  0  0  0
 34 63  1  0  0  0  0
 34 70  1  0  0  0  0
 34 81  2  0  0  0  0
 35 64  1  0  0  0  0
 35 76  1  0  0  0  0
 35 82  2  0  0  0  0
 36 71  1  0  0  0  0
 36 72  1  0  0  0  0
 36 83  2  0  0  0  0
 37 40  1  0  0  0  0
 38 54  1  0  0  0  0
 39 70  1  0  0  0  0
 40 44  1  0  0  0  0
 41 45  1  0  0  0  0
 41 46  1  0  0  0  0
 42 43  1  0  0  0  0
 42 52  1  0  0  0  0
 43 52  1  0  0  0  0
 44 53  1  0  0  0  0
 45 55  1  0  0  0  0
 46 71  1  0  0  0  0
 47 50  1  0  0  0  0
 47 72  1  0  0  0  0
 48 51  1  0  0  0  0
 48 72  1  0  0  0  0
 49 55  1  0  0  0  0
 49 71  1  0  0  0  0
 50 77  1  0  0  0  0
 51 77  1  0  0  0  0
 53 75  1  0  0  0  0
 54 70  1  0  0  0  0
 55 69  1  0  0  0  0
 57 64  1  0  0  0  0
 58 65  1  0  0  0  0
 59 65  1  0  0  0  0
 60 65  1  0  0  0  0
 61 78  1  0  0  0  0
 62 77  1  0  0  0  0
 63 65  1  0  0  0  0
 63 76  1  0  0  0  0
 64 78  1  0  0  0  0
 66 69  1  0  0  0  0
M  CHG  2  77   1  78   1
M  ISO  4  29 101  36 100  72 100  85 101
M  END
> <Batch ID>
0181

> <Smiles>
CNC(C)C(=O)NC(C(=O)N1Cc2cc([101O:1][101c:1]3nc(C)nc(CN4CC[100N:0]([100C:0](=O)N5CCCC(n6nc(-c7ccc(Oc8ccc(F)cc8F)cc7)c(C(N)=O)c6N)C5)CC4)c3C3CC3)ccc2CC1C(=O)NC1CCCc2ccccc21)C(C)(C)C

> <Shape>
0.313

> <Color>
0.076

> <Negative vol penalty>
0.000

$$$$

  -OEChem-04052323023D

 83 92  0     1  0  0  0  0  0999 V2000
  -27.1862  -37.9171   19.1606 C   0  0  0  0  0  0  0  0  0  0  0  0
  -27.2089  -36.7171   18.4570 C   0  0  0  0  0  0  0  0  0  0  0  0
  -24.9035   -8.3358   21.5759 C   0  0  0  0  0  0  0  0  0  0  0  0
  -23.4206   -9.3530   19.9624 C   0  0  0  0  0  0  0  0  0  0  0  0
  -27.3111  -37.9121   20.5492 C   0  0  0  0  0  0  0  0  0  0  0  0
  -27.3576  -35.5115   19.1417 C   0  0  0  0  0  0  0  0  0  0  0  0
  -25.3656  -28.6371   18.8396 C   0  0  0  0  0  0  0  0  0  0  0  0
  -23.8041   -7.9476   22.3416 C   0  0  0  0  0  0  0  0  0  0  0  0
  -22.3212   -8.9648   20.7281 C   0  0  0  0  0  0  0  0  0  0  0  0
  -25.9129  -27.3550   18.8644 C   0  0  0  0  0  0  0  0  0  0  0  0
  -21.4642   -5.5075   22.2828 C   0  0  0  0  0  0  0  0  0  0  0  0
  -21.4488   -4.2048   22.7812 C   0  0  0  0  0  0  0  0  0  0  0  0
  -26.0404  -27.4627   21.2710 C   0  0  0  0  0  0  0  0  0  0  0  0
  -21.3554   -5.0683   25.0357 C   0  0  0  0  0  0  0  0  0  0  0  0
  -26.7172  -22.3825   18.9277 C   0  0  0  0  0  0  0  0  0  0  0  0
  -24.7117   -9.0385   20.3863 C   0  0  0  0  0  0  0  0  0  0  0  0
  -26.4665   -8.7086   18.5643 C   0  0  0  0  0  0  0  0  0  0  0  0
  -27.4517  -36.7052   21.2521 C   0  0  0  0  0  0  0  0  0  0  0  0
  -25.1614  -29.3470   20.0315 C   0  0  0  0  0  0  0  0  0  0  0  0
  -27.4858  -35.4905   20.5409 C   0  0  0  0  0  0  0  0  0  0  0  0
  -25.4880  -28.7526   21.2587 C   0  0  0  0  0  0  0  0  0  0  0  0
  -27.5163  -23.4992   19.0651 C   0  0  0  0  0  0  0  0  0  0  0  0
  -22.5130   -8.2621   21.9177 C   0  0  0  0  0  0  0  0  0  0  0  0
  -26.2531  -26.7688   20.0800 C   0  0  0  0  0  0  0  0  0  0  0  0
  -21.4253   -6.5906   23.1609 C   0  0  0  0  0  0  0  0  0  0  0  0
  -21.3943   -3.9852   24.1576 C   0  0  0  0  0  0  0  0  0  0  0  0
  -21.3709   -6.3711   24.5373 C   0  0  0  0  0  0  0  0  0  0  0  0
  -25.8470   -9.4402   19.5952 C   0  0  0  0  0  0  0  0  0  0  0  0
  -28.8301  -23.2545   19.4088 C   0  0  0  0  0  0  0  0  0  0  0  0
  -27.4887   -9.5190   18.1345 C   0  0  0  0  0  0  0  0  0  0  0  0
  -28.4567  -21.0125   19.4416 C   0  0  0  0  0  0  0  0  0  0  0  0
  -26.1464   -7.4123   18.0419 C   0  0  0  0  0  0  0  0  0  0  0  0
  -26.2680  -32.0721   21.2370 C   0  0  0  0  0  0  0  0  0  0  0  0
  -24.1052  -31.4626   23.5764 C   0  0  0  0  0  0  0  0  0  0  0  0
  -22.2329  -29.1612   25.2631 C   0  0  0  0  0  0  0  0  0  0  0  0
  -28.0925  -15.4094   18.3419 C   0  0  0  0  0  0  0  0  0  0  0  0
  -27.6308  -36.7534   22.7489 C   0  0  0  0  0  0  0  0  0  0  0  0
  -24.5453  -30.7186   19.9895 C   0  0  0  0  0  0  0  0  0  0  0  0
  -25.2698  -29.4646   22.5678 C   0  0  0  0  0  0  0  0  0  0  0  0
  -27.4085  -35.4068   23.4326 C   0  0  0  0  0  0  0  0  0  0  0  0
  -30.4625  -12.9277   19.6295 C   0  0  0  0  0  0  0  0  0  0  0  0
  -28.1449  -34.3002   22.6844 C   0  0  0  0  0  0  0  0  0  0  0  0
  -29.5713  -11.6937   19.7240 C   0  0  0  0  0  0  0  0  0  0  0  0
  -29.7004  -14.2197   19.9268 C   0  0  0  0  0  0  0  0  0  0  0  0
  -27.5844  -13.1500   19.1992 C   0  0  0  0  0  0  0  0  0  0  0  0
  -28.2043  -17.9494   18.0937 C   0  0  0  0  0  0  0  0  0  0  0  0
  -28.9111  -17.2782   19.9850 C   0  0  0  0  0  0  0  0  0  0  0  0
  -27.6206  -34.1605   21.2502 C   0  0  1  0  0  0  0  0  0  0  0  0
  -24.8582  -31.5523   21.2282 C   0  0  1  0  0  0  0  0  0  0  0  0
  -28.3292  -11.8578   18.8356 C   0  0  2  0  0  0  0  0  0  0  0  0
  -28.1696  -18.5349   19.5098 C   0  0  0  0  0  0  0  0  0  0  0  0
  -29.7883  -24.3866   19.5816 C   0  0  0  0  0  0  0  0  0  0  0  0
  -20.5904  -28.9588   27.1495 C   0  0  0  0  0  0  0  0  0  0  0  0
  -26.3795  -31.7722   25.5868 C   0  0  0  0  0  0  0  0  0  0  0  0
  -24.9314  -30.6488   27.2926 C   0  0  0  0  0  0  0  0  0  0  0  0
  -24.2183  -32.8176   26.2874 C   0  0  0  0  0  0  0  0  0  0  0  0
  -20.1279  -28.1053   23.4707 C   0  0  0  0  0  0  0  0  0  0  0  0
  -26.9729  -24.8645   18.8506 C   0  0  0  0  0  0  0  0  0  1  0  0
  -24.1306  -30.7143   24.8873 C   0  0  1  0  0  0  0  0  0  0  0  0
  -20.7652  -29.1453   25.6504 C   0  0  2  0  0  0  0  0  0  0  0  0
  -24.9210  -31.4753   25.9889 C   0  0  0  0  0  0  0  0  0  0  0  0
  -27.1561  -21.1197   19.1092 N   0  0  0  0  0  0  0  0  0  0  0  0
  -26.4273  -10.6243   19.8076 N   0  0  0  0  0  0  0  0  0  0  0  0
  -29.3359  -22.0193   19.6057 N   0  0  0  0  0  0  0  0  0  0  0  0
  -27.4222  -10.6429   18.9043 N   0  0  0  0  0  0  0  0  0  0  0  0
  -24.6705  -30.8061   22.4740 N   0  0  0  0  0  0  0  0  0  0  0  0
  -28.4664  -14.3215   19.1382 N   0  0  0  0  0  0  0  0  0  0  0  0
  -28.4926  -16.6667   18.7311 N   0  0  0  0  0  0  0  0  0  0  0  0
  -28.4290   -9.3727   17.1770 N   0  0  0  0  0  0  0  0  0  0  0  0
  -25.0647   -6.7161   18.5983 N   0  0  0  0  0  0  0  0  0  0  0  0
  -28.9466  -19.7167   19.6371 N   0  0  0  0  0  0  0  0  0  0  0  0
  -26.3593  -33.4509   21.2400 N   0  0  0  0  0  0  0  0  0  0  0  0
  -22.7385  -30.4436   25.2298 N   0  0  0  0  0  0  0  0  0  0  0  0
  -20.0575  -28.0346   24.9529 N   0  3  0  0  0  0  0  0  0  0  0  0
  -26.8105   -6.8799   17.1204 O   0  0  0  0  0  0  0  0  0  0  0  0
  -27.2037  -31.2808   21.2422 O   0  0  0  0  0  0  0  0  0  0  0  0
  -23.5959  -32.5852   23.5307 O   0  0  0  0  0  0  0  0  0  0  0  0
  -22.8684  -28.1380   25.0186 O   0  0  0  0  0  0  0  0  0  0  0  0
  -27.3948  -15.2684   17.3289 O   0  0  0  0  0  0  0  0  0  0  0  0
  -21.4400   -7.8833   22.6645 O   0  0  0  0  0  0  0  0  0  0  0  0
  -26.7913  -25.5100   20.1073 O   0  0  0  0  0  0  0  0  0  1  0  0
  -21.3779   -2.7342   24.6359 F   0  0  0  0  0  0  0  0  0  0  0  0
  -21.3321   -7.4076   25.3857 F   0  0  0  0  0  0  0  0  0  0  0  0
  1  2  1  0  0  0  0
  1  5  2  0  0  0  0
  2  6  2  0  0  0  0
  3  8  2  0  0  0  0
  3 16  1  0  0  0  0
  4  9  1  0  0  0  0
  4 16  2  0  0  0  0
  5 18  1  0  0  0  0
  6 20  1  0  0  0  0
  7 10  2  0  0  0  0
  7 19  1  0  0  0  0
  8 23  1  0  0  0  0
  9 23  2  0  0  0  0
 10 24  1  0  0  0  0
 11 12  2  0  0  0  0
 11 25  1  0  0  0  0
 12 26  1  0  0  0  0
 13 21  1  0  0  0  0
 13 24  2  0  0  0  0
 14 26  2  0  0  0  0
 14 27  1  0  0  0  0
 15 22  1  0  0  0  0
 15 62  2  0  0  0  0
 16 28  1  0  0  0  0
 17 28  1  0  0  0  0
 17 30  2  0  0  0  0
 17 32  1  0  0  0  0
 18 20  2  0  0  0  0
 18 37  1  0  0  0  0
 19 21  2  0  0  0  0
 19 38  1  0  0  0  0
 20 48  1  0  0  0  0
 21 39  1  0  0  0  0
 22 29  2  0  0  0  0
 22 58  1  0  0  0  0
 23 80  1  0  0  0  0
 24 81  1  0  0  0  0
 25 27  2  0  0  0  0
 25 80  1  0  0  0  0
 26 82  1  0  0  0  0
 27 83  1  0  0  0  0
 28 63  2  0  0  0  0
 29 52  1  0  0  0  0
 29 64  1  0  0  0  0
 30 65  1  0  0  0  0
 30 69  1  0  0  0  0
 31 62  1  0  0  0  0
 31 64  2  0  0  0  0
 31 71  1  0  0  0  0
 32 70  1  0  0  0  0
 32 75  2  0  0  0  0
 33 49  1  0  0  0  0
 33 72  1  0  0  0  0
 33 76  2  0  0  0  0
 34 59  1  0  0  0  0
 34 66  1  0  0  0  0
 34 77  2  0  0  0  0
 35 60  1  0  0  0  0
 35 73  1  0  0  0  0
 35 78  2  0  0  0  0
 36 67  1  0  0  0  0
 36 68  1  0  0  0  0
 36 79  2  0  0  0  0
 37 40  1  0  0  0  0
 38 49  1  0  0  0  0
 39 66  1  0  0  0  0
 40 42  1  0  0  0  0
 41 43  1  0  0  0  0
 41 44  1  0  0  0  0
 42 48  1  0  0  0  0
 43 50  1  0  0  0  0
 44 67  1  0  0  0  0
 45 50  1  0  0  0  0
 45 67  1  0  0  0  0
 46 51  1  0  0  0  0
 46 68  1  0  0  0  0
 47 51  1  0  0  0  0
 47 68  1  0  0  0  0
 48 72  1  0  0  0  0
 49 66  1  0  0  0  0
 50 65  1  0  0  0  0
 51 71  1  0  0  0  0
 53 60  1  0  0  0  0
 54 61  1  0  0  0  0
 55 61  1  0  0  0  0
 56 61  1  0  0  0  0
 57 74  1  0  0  0  0
 58 81  1  0  0  0  0
 59 61  1  0  0  0  0
 59 73  1  0  0  0  0
 60 74  1  0  0  0  0
 63 65  1  0  0  0  0
M  CHG  1  74   1
M  ISO  4  36 100  58 101  68 100  81 101
M  END
> <Batch ID>
0181

> <Smiles>
CNC(C)C(=O)NC(C(=O)N1Cc2cc([101O:1][101CH2:1]c3cnc(NC4C[100N:0]([100C:0](=O)N5CCCC(n6nc(-c7ccc(Oc8ccc(F)cc8F)cc7)c(C(N)=O)c6N)C5)C4)nc3C)ccc2CC1C(=O)NC1CCCc2ccccc21)C(C)(C)C

> <Shape>
0.289

> <Color>
0.107

> <Negative vol penalty>
0.000

$$$$

  -OEChem-04052323023D

 81 90  0     1  0  0  0  0  0999 V2000
  -26.7520  -30.6796   30.5943 C   0  0  0  0  0  0  0  0  0  0  0  0
  -27.6843  -30.4074   29.5983 C   0  0  0  0  0  0  0  0  0  0  0  0
  -26.2386  -13.9433   21.4365 C   0  0  0  0  0  0  0  0  0  0  0  0
  -26.4636  -12.3946   19.5959 C   0  0  0  0  0  0  0  0  0  0  0  0
  -25.3990  -30.4298   30.3682 C   0  0  0  0  0  0  0  0  0  0  0  0
  -27.2643  -29.8841   28.3759 C   0  0  0  0  0  0  0  0  0  0  0  0
  -28.8749  -30.0170   21.3971 C   0  0  0  0  0  0  0  0  0  0  0  0
  -24.9769  -13.4215   21.7215 C   0  0  0  0  0  0  0  0  0  0  0  0
  -25.2018  -11.8727   19.8809 C   0  0  0  0  0  0  0  0  0  0  0  0
  -29.1315  -29.1519   20.3342 C   0  0  0  0  0  0  0  0  0  0  0  0
  -23.8413   -9.7247   22.1071 C   0  0  0  0  0  0  0  0  0  0  0  0
  -23.7016   -8.3369   22.1115 C   0  0  0  0  0  0  0  0  0  0  0  0
  -26.7599  -28.8350   20.0275 C   0  0  0  0  0  0  0  0  0  0  0  0
  -22.0533   -8.4972   20.3524 C   0  0  0  0  0  0  0  0  0  0  0  0
  -28.7196  -25.4821   17.8724 C   0  0  0  0  0  0  0  0  0  0  0  0
  -26.9820  -13.4299   20.3737 C   0  0  0  0  0  0  0  0  0  0  0  0
  -29.5212  -13.5354   20.5941 C   0  0  0  0  0  0  0  0  0  0  0  0
  -24.9612  -29.9123   29.1390 C   0  0  0  0  0  0  0  0  0  0  0  0
  -27.5569  -30.2895   21.7907 C   0  0  0  0  0  0  0  0  0  0  0  0
  -25.9044  -29.6258   28.1337 C   0  0  0  0  0  0  0  0  0  0  0  0
  -26.4892  -29.7059   21.0939 C   0  0  0  0  0  0  0  0  0  0  0  0
  -24.4585  -12.3861   20.9437 C   0  0  0  0  0  0  0  0  0  0  0  0
  -28.0740  -28.5585   19.6511 C   0  0  0  0  0  0  0  0  0  0  0  0
  -23.0870  -10.4988   21.2254 C   0  0  0  0  0  0  0  0  0  0  0  0
  -22.8076   -7.7231   21.2341 C   0  0  0  0  0  0  0  0  0  0  0  0
  -22.1930   -9.8851   20.3480 C   0  0  0  0  0  0  0  0  0  0  0  0
  -28.2852  -13.9690   20.0785 C   0  0  0  0  0  0  0  0  0  0  0  0
  -28.8516  -24.1589   18.2412 C   0  0  0  0  0  0  0  0  0  0  0  0
  -28.4675  -26.3664   18.9013 C   0  0  0  0  0  0  0  0  0  1  0  0
  -30.4471  -14.3640   20.0089 C   0  0  0  0  0  0  0  0  0  0  0  0
  -28.5006  -24.6805   20.4256 C   0  0  0  0  0  0  0  0  0  0  0  0
  -29.8070  -12.4780   21.5193 C   0  0  0  0  0  0  0  0  0  0  0  0
  -25.8684  -29.8319   24.4446 C   0  0  0  0  0  0  0  0  0  0  0  0
  -23.6186  -31.5320   22.8414 C   0  0  0  0  0  0  0  0  0  0  0  0
  -22.3616  -32.5686   19.8426 C   0  0  0  0  0  0  0  0  0  0  0  0
  -29.8459  -19.8890   17.8611 C   0  0  0  0  0  0  0  0  0  0  0  0
  -23.4938  -29.6144   28.9581 C   0  0  0  0  0  0  0  0  0  0  0  0
  -27.2962  -31.2458   22.9221 C   0  0  0  0  0  0  0  0  0  0  0  0
  -25.0555  -29.9815   21.4641 C   0  0  0  0  0  0  0  0  0  0  0  0
  -23.0888  -29.4104   27.5005 C   0  0  0  0  0  0  0  0  0  0  0  0
  -31.2130  -16.9592   16.0835 C   0  0  0  0  0  0  0  0  0  0  0  0
  -24.0737  -28.4814   26.7978 C   0  0  0  0  0  0  0  0  0  0  0  0
  -30.6737  -15.8180   16.9407 C   0  0  0  0  0  0  0  0  0  0  0  0
  -30.3069  -23.3268   16.2758 C   0  0  0  0  0  0  0  0  0  0  0  0
  -30.2450  -18.1403   16.0260 C   0  0  0  0  0  0  0  0  0  0  0  0
  -29.3032  -17.5028   18.2284 C   0  0  0  0  0  0  0  0  0  0  0  0
  -25.4850  -29.0810   26.7856 C   0  0  1  0  0  0  0  0  0  0  0  0
  -29.1247  -23.1387   17.1877 C   0  0  1  0  0  0  0  0  0  0  0  0
  -25.9275  -31.0499   23.5667 C   0  0  1  0  0  0  0  0  0  0  0  0
  -30.2846  -16.3258   18.3375 C   0  0  1  0  0  0  0  0  0  0  0  0
  -30.3426  -22.2549   17.3246 C   0  0  1  0  0  0  0  0  0  0  0  0
  -28.3786  -24.2358   21.8436 C   0  0  0  0  0  0  0  0  0  0  0  0
  -20.4930  -33.9182   18.8506 C   0  0  0  0  0  0  0  0  0  0  0  0
  -21.6771  -29.2432   23.3908 C   0  0  0  0  0  0  0  0  0  0  0  0
  -20.1793  -30.1805   21.6170 C   0  0  0  0  0  0  0  0  0  0  0  0
  -20.6959  -31.5288   23.6512 C   0  0  0  0  0  0  0  0  0  0  0  0
  -24.2476  -34.4784   18.5958 C   0  0  0  0  0  0  0  0  0  0  0  0
  -22.4885  -31.1895   21.9009 C   0  0  1  0  0  0  0  0  0  0  0  0
  -21.9289  -33.9381   19.3511 C   0  0  2  0  0  0  0  0  0  0  0  0
  -21.2872  -30.5286   22.6340 C   0  0  0  0  0  0  0  0  0  0  0  0
  -28.4109  -14.9937   19.2310 N   0  0  0  0  0  0  0  0  0  0  0  0
  -28.7478  -23.7213   19.5133 N   0  0  0  0  0  0  0  0  0  0  0  0
  -28.3514  -25.9987   20.1942 N   0  0  0  0  0  0  0  0  0  0  0  0
  -29.7370  -15.2109   19.2097 N   0  0  0  0  0  0  0  0  0  0  0  0
  -24.8523  -30.9186   22.5814 N   0  0  0  0  0  0  0  0  0  0  0  0
  -29.8352  -18.5701   17.3722 N   0  0  0  0  0  0  0  0  0  0  0  0
  -31.7913  -14.4437   20.1052 N   0  0  0  0  0  0  0  0  0  0  0  0
  -28.7382  -11.7245   22.0237 N   0  0  0  0  0  0  0  0  0  0  0  0
  -25.5897  -30.1066   25.7699 N   0  0  0  0  0  0  0  0  0  0  0  0
  -22.1541  -32.4234   21.1981 N   0  0  0  0  0  0  0  0  0  0  0  0
  -30.2828  -20.8621   16.9695 N   0  0  0  0  0  0  0  0  0  0  0  0
  -22.8088  -34.3902   18.2365 N   0  3  0  0  0  0  0  0  0  0  0  0
  -30.9738  -12.2199   21.9005 O   0  0  0  0  0  0  0  0  0  0  0  0
  -26.0599  -28.7247   23.9556 O   0  0  0  0  0  0  0  0  0  0  0  0
  -23.4162  -32.3206   23.7681 O   0  0  0  0  0  0  0  0  0  0  0  0
  -22.8328  -31.7118   19.0980 O   0  0  0  0  0  0  0  0  0  0  0  0
  -29.4869  -20.1814   19.0072 O   0  0  0  0  0  0  0  0  0  0  0  0
  -23.2274  -11.8765   21.2217 O   0  0  0  0  0  0  0  0  0  0  0  0
  -28.3217  -27.7132   18.6138 O   0  0  0  0  0  0  0  0  0  1  0  0
  -22.6747   -6.3903   21.2374 F   0  0  0  0  0  0  0  0  0  0  0  0
  -21.4664  -10.6234   19.4978 F   0  0  0  0  0  0  0  0  0  0  0  0
  1  2  1  0  0  0  0
  1  5  2  0  0  0  0
  2  6  2  0  0  0  0
  3  8  2  0  0  0  0
  3 16  1  0  0  0  0
  4  9  1  0  0  0  0
  4 16  2  0  0  0  0
  5 18  1  0  0  0  0
  6 20  1  0  0  0  0
  7 10  2  0  0  0  0
  7 19  1  0  0  0  0
  8 22  1  0  0  0  0
  9 22  2  0  0  0  0
 10 23  1  0  0  0  0
 11 12  2  0  0  0  0
 11 24  1  0  0  0  0
 12 25  1  0  0  0  0
 13 21  1  0  0  0  0
 13 23  2  0  0  0  0
 14 25  2  0  0  0  0
 14 26  1  0  0  0  0
 15 28  2  0  0  0  0
 15 29  1  0  0  0  0
 16 27  1  0  0  0  0
 17 27  1  0  0  0  0
 17 30  2  0  0  0  0
 17 32  1  0  0  0  0
 18 20  2  0  0  0  0
 18 37  1  0  0  0  0
 19 21  2  0  0  0  0
 19 38  1  0  0  0  0
 20 47  1  0  0  0  0
 21 39  1  0  0  0  0
 22 78  1  0  0  0  0
 23 79  1  0  0  0  0
 24 26  2  0  0  0  0
 24 78  1  0  0  0  0
 25 80  1  0  0  0  0
 26 81  1  0  0  0  0
 27 61  2  0  0  0  0
 28 48  1  0  0  0  0
 28 62  1  0  0  0  0
 29 63  2  0  0  0  0
 29 79  1  0  0  0  0
 30 64  1  0  0  0  0
 30 67  1  0  0  0  0
 31 52  1  0  0  0  0
 31 62  2  0  0  0  0
 31 63  1  0  0  0  0
 32 68  1  0  0  0  0
 32 73  2  0  0  0  0
 33 49  1  0  0  0  0
 33 69  1  0  0  0  0
 33 74  2  0  0  0  0
 34 58  1  0  0  0  0
 34 65  1  0  0  0  0
 34 75  2  0  0  0  0
 35 59  1  0  0  0  0
 35 70  1  0  0  0  0
 35 76  2  0  0  0  0
 36 66  1  0  0  0  0
 36 71  1  0  0  0  0
 36 77  2  0  0  0  0
 37 40  1  0  0  0  0
 38 49  1  0  0  0  0
 39 65  1  0  0  0  0
 40 42  1  0  0  0  0
 41 43  1  0  0  0  0
 41 45  1  0  0  0  0
 42 47  1  0  0  0  0
 43 50  1  0  0  0  0
 44 48  1  0  0  0  0
 44 51  1  0  0  0  0
 45 66  1  0  0  0  0
 46 50  1  0  0  0  0
 46 66  1  0  0  0  0
 47 69  1  0  0  0  0
 48 51  1  0  0  0  0
 49 65  1  0  0  0  0
 50 64  1  0  0  0  0
 51 71  1  0  0  0  0
 53 59  1  0  0  0  0
 54 60  1  0  0  0  0
 55 60  1  0  0  0  0
 56 60  1  0  0  0  0
 57 72  1  0  0  0  0
 58 60  1  0  0  0  0
 58 70  1  0  0  0  0
 59 72  1  0  0  0  0
 61 64  1  0  0  0  0
M  CHG  1  72   1
M  ISO  4  29 101  36 100  71 100  79 101
M  END
> <Batch ID>
0181

> <Smiles>
CNC(C)C(=O)NC(C(=O)N1Cc2cc([101O:1][101c:1]3cc(C4CC4[100NH:0][100C:0](=O)N4CCCC(n5nc(-c6ccc(Oc7ccc(F)cc7F)cc6)c(C(N)=O)c5N)C4)nc(C)n3)ccc2CC1C(=O)NC1CCCc2ccccc21)C(C)(C)C

> <Shape>
0.262

> <Color>
0.099

> <Negative vol penalty>
0.000

$$$$

  -OEChem-04052323023D

 80 88  0     1  0  0  0  0  0999 V2000
  -16.5407  -30.3722   23.0922 C   0  0  0  0  0  0  0  0  0  0  0  0
  -17.5122  -30.3046   22.0986 C   0  0  0  0  0  0  0  0  0  0  0  0
  -26.8610  -12.5064   21.7621 C   0  0  0  0  0  0  0  0  0  0  0  0
  -26.0705  -14.1002   20.1274 C   0  0  0  0  0  0  0  0  0  0  0  0
  -16.8402  -29.9537   24.3880 C   0  0  0  0  0  0  0  0  0  0  0  0
  -18.7841  -29.8196   22.4007 C   0  0  0  0  0  0  0  0  0  0  0  0
  -24.2024  -26.1580   19.4763 C   0  0  0  0  0  0  0  0  0  0  0  0
  -25.5815  -11.9574   21.8456 C   0  0  0  0  0  0  0  0  0  0  0  0
  -24.7910  -13.5511   20.2108 C   0  0  0  0  0  0  0  0  0  0  0  0
  -25.5785  -26.2501   19.2723 C   0  0  0  0  0  0  0  0  0  0  0  0
  -22.6061   -9.9029   22.2216 C   0  0  0  0  0  0  0  0  0  0  0  0
  -22.4951   -8.5126   22.2120 C   0  0  0  0  0  0  0  0  0  0  0  0
  -25.9582  -25.4812   21.5270 C   0  0  0  0  0  0  0  0  0  0  0  0
  -23.5474   -8.4437   20.0382 C   0  0  0  0  0  0  0  0  0  0  0  0
  -30.5706  -23.8337   20.7075 C   0  0  0  0  0  0  0  0  0  0  0  0
  -29.2504  -21.7330   19.7221 C   0  0  0  0  0  0  0  0  0  0  0  0
  -27.1055  -13.5779   20.9030 C   0  0  0  0  0  0  0  0  0  0  0  0
  -29.4615  -13.7625   19.9425 C   0  0  0  0  0  0  0  0  0  0  0  0
  -18.1135  -29.4542   24.7038 C   0  0  0  0  0  0  0  0  0  0  0  0
  -23.6928  -25.7365   20.7129 C   0  0  0  0  0  0  0  0  0  0  0  0
  -19.1014  -29.3953   23.7022 C   0  0  0  0  0  0  0  0  0  0  0  0
  -24.5753  -25.3822   21.7433 C   0  0  0  0  0  0  0  0  0  0  0  0
  -24.5464  -12.4797   21.0700 C   0  0  0  0  0  0  0  0  0  0  0  0
  -26.4566  -25.9144   20.2986 C   0  0  0  0  0  0  0  0  0  0  0  0
  -23.1877  -10.5637   21.1396 C   0  0  0  0  0  0  0  0  0  0  0  0
  -22.9658   -7.7829   21.1203 C   0  0  0  0  0  0  0  0  0  0  0  0
  -23.6583   -9.8341   20.0479 C   0  0  0  0  0  0  0  0  0  0  0  0
  -28.4269  -14.1458   20.8168 C   0  0  0  0  0  0  0  0  0  0  0  0
  -29.8173  -23.9424   19.5594 C   0  0  0  0  0  0  0  0  0  0  0  0
  -30.0043  -21.6239   20.8698 C   0  0  0  0  0  0  0  0  0  0  0  0
  -30.5035  -14.6011   20.2549 C   0  0  0  0  0  0  0  0  0  0  0  0
  -29.4792  -12.7399   18.9376 C   0  0  0  0  0  0  0  0  0  0  0  0
  -21.8595  -27.0543   22.9503 C   0  0  0  0  0  0  0  0  0  0  0  0
  -22.0022  -24.0906   24.2611 C   0  0  0  0  0  0  0  0  0  0  0  0
  -23.6738  -21.1298   24.5545 C   0  0  0  0  0  0  0  0  0  0  0  0
  -30.7675  -20.0534   22.6856 C   0  0  0  0  0  0  0  0  0  0  0  0
  -18.4048  -29.0580   26.1296 C   0  0  0  0  0  0  0  0  0  0  0  0
  -22.2063  -25.6170   20.9083 C   0  0  0  0  0  0  0  0  0  0  0  0
  -24.0793  -24.9046   23.0829 C   0  0  0  0  0  0  0  0  0  0  0  0
  -19.6626  -28.2063   26.2802 C   0  0  0  0  0  0  0  0  0  0  0  0
  -32.3340  -17.0989   23.9080 C   0  0  0  0  0  0  0  0  0  0  0  0
  -20.8143  -28.8092   25.4821 C   0  0  0  0  0  0  0  0  0  0  0  0
  -31.6081  -15.9717   23.1699 C   0  0  0  0  0  0  0  0  0  0  0  0
  -31.3871  -18.2418   24.2697 C   0  0  0  0  0  0  0  0  0  0  0  0
  -29.8823  -17.6542   22.4097 C   0  0  0  0  0  0  0  0  0  0  0  0
  -20.4851  -28.8519   23.9850 C   0  0  1  0  0  0  0  0  0  0  0  0
  -21.7904  -25.6679   22.3752 C   0  0  1  0  0  0  0  0  0  0  0  0
  -30.8081  -16.5094   21.9671 C   0  0  2  0  0  0  0  0  0  0  0  0
  -30.3038  -25.1604   17.4120 C   0  0  0  0  0  0  0  0  0  0  0  0
  -23.5654  -18.9143   25.7280 C   0  0  0  0  0  0  0  0  0  0  0  0
  -22.9487  -25.4142   26.8422 C   0  0  0  0  0  0  0  0  0  0  0  0
  -23.7176  -23.1659   27.6311 C   0  0  0  0  0  0  0  0  0  0  0  0
  -21.2995  -23.5619   27.1637 C   0  0  0  0  0  0  0  0  0  0  0  0
  -23.5074  -19.6517   21.9959 C   0  0  0  0  0  0  0  0  0  0  0  0
  -28.2780  -25.7942   18.7742 C   0  0  0  0  0  0  0  0  0  1  0  0
  -29.7194  -25.2693   18.8231 C   0  0  1  0  0  0  0  0  0  0  0  0
  -22.9238  -23.3949   25.2335 C   0  0  1  0  0  0  0  0  0  0  0  0
  -23.1962  -19.6911   24.4738 C   0  0  2  0  0  0  0  0  0  0  0  0
  -22.7320  -23.8950   26.6932 C   0  0  0  0  0  0  0  0  0  0  0  0
  -29.1434  -22.8941   19.0462 N   0  0  0  0  0  0  0  0  0  0  0  0
  -30.6779  -22.6724   21.3831 N   0  0  0  0  0  0  0  0  0  0  0  0
  -28.7795  -15.1497   21.6242 N   0  0  0  0  0  0  0  0  0  0  0  0
  -30.0475  -15.4042   21.2586 N   0  0  0  0  0  0  0  0  0  0  0  0
  -22.6171  -24.8106   23.2271 N   0  0  0  0  0  0  0  0  0  0  0  0
  -30.6668  -18.7026   23.0807 N   0  0  0  0  0  0  0  0  0  0  0  0
  -31.7561  -14.7224   19.7664 N   0  0  0  0  0  0  0  0  0  0  0  0
  -28.3234  -11.9703   18.7472 N   0  0  0  0  0  0  0  0  0  0  0  0
  -30.0659  -20.3676   21.5221 N   0  0  0  0  0  0  0  0  0  0  0  0
  -20.6447  -27.5402   23.3948 N   0  0  0  0  0  0  0  0  0  0  0  0
  -22.6983  -21.9643   25.0576 N   0  0  0  0  0  0  0  0  0  0  0  0
  -23.8086  -19.0070   23.3000 N   0  3  0  0  0  0  0  0  0  0  0  0
  -30.4953  -12.5044   18.2408 O   0  0  0  0  0  0  0  0  0  0  0  0
  -22.9356  -27.6393   22.9893 O   0  0  0  0  0  0  0  0  0  0  0  0
  -20.7815  -23.9927   24.4093 O   0  0  0  0  0  0  0  0  0  0  0  0
  -24.8009  -21.4778   24.2094 O   0  0  0  0  0  0  0  0  0  0  0  0
  -31.4496  -20.8650   23.3165 O   0  0  0  0  0  0  0  0  0  0  0  0
  -23.2978  -11.9441   21.1510 O   0  0  0  0  0  0  0  0  0  0  0  0
  -27.8002  -26.0041   20.1023 O   0  0  0  0  0  0  0  0  0  1  0  0
  -22.8605   -6.4476   21.1119 F   0  0  0  0  0  0  0  0  0  0  0  0
  -24.2190  -10.4632   19.0060 F   0  0  0  0  0  0  0  0  0  0  0  0
  1  2  1  0  0  0  0
  1  5  2  0  0  0  0
  2  6  2  0  0  0  0
  3  8  2  0  0  0  0
  3 17  1  0  0  0  0
  4  9  1  0  0  0  0
  4 17  2  0  0  0  0
  5 19  1  0  0  0  0
  6 21  1  0  0  0  0
  7 10  2  0  0  0  0
  7 20  1  0  0  0  0
  8 23  1  0  0  0  0
  9 23  2  0  0  0  0
 10 24  1  0  0  0  0
 11 12  2  0  0  0  0
 11 25  1  0  0  0  0
 12 26  1  0  0  0  0
 13 22  1  0  0  0  0
 13 24  2  0  0  0  0
 14 26  2  0  0  0  0
 14 27  1  0  0  0  0
 15 29  1  0  0  0  0
 15 61  2  0  0  0  0
 16 30  2  0  0  0  0
 16 60  1  0  0  0  0
 17 28  1  0  0  0  0
 18 28  1  0  0  0  0
 18 31  2  0  0  0  0
 18 32  1  0  0  0  0
 19 21  2  0  0  0  0
 19 37  1  0  0  0  0
 20 22  2  0  0  0  0
 20 38  1  0  0  0  0
 21 46  1  0  0  0  0
 22 39  1  0  0  0  0
 23 77  1  0  0  0  0
 24 78  1  0  0  0  0
 25 27  2  0  0  0  0
 25 77  1  0  0  0  0
 26 79  1  0  0  0  0
 27 80  1  0  0  0  0
 28 62  2  0  0  0  0
 29 56  1  0  0  0  0
 29 60  2  0  0  0  0
 30 61  1  0  0  0  0
 30 68  1  0  0  0  0
 31 63  1  0  0  0  0
 31 66  1  0  0  0  0
 32 67  1  0  0  0  0
 32 72  2  0  0  0  0
 33 47  1  0  0  0  0
 33 69  1  0  0  0  0
 33 73  2  0  0  0  0
 34 57  1  0  0  0  0
 34 64  1  0  0  0  0
 34 74  2  0  0  0  0
 35 58  1  0  0  0  0
 35 70  1  0  0  0  0
 35 75  2  0  0  0  0
 36 65  1  0  0  0  0
 36 68  1  0  0  0  0
 36 76  2  0  0  0  0
 37 40  1  0  0  0  0
 38 47  1  0  0  0  0
 39 64  1  0  0  0  0
 40 42  1  0  0  0  0
 41 43  1  0  0  0  0
 41 44  1  0  0  0  0
 42 46  1  0  0  0  0
 43 48  1  0  0  0  0
 44 65  1  0  0  0  0
 45 48  1  0  0  0  0
 45 65  1  0  0  0  0
 46 69  1  0  0  0  0
 47 64  1  0  0  0  0
 48 63  1  0  0  0  0
 49 56  1  0  0  0  0
 50 58  1  0  0  0  0
 51 59  1  0  0  0  0
 52 59  1  0  0  0  0
 53 59  1  0  0  0  0
 54 71  1  0  0  0  0
 55 56  1  0  0  0  0
 55 78  1  0  0  0  0
 57 59  1  0  0  0  0
 57 70  1  0  0  0  0
 58 71  1  0  0  0  0
 62 63  1  0  0  0  0
M  CHG  1  71   1
M  ISO  4  36 100  55 101  68 100  78 101
M  END
> <Batch ID>
0181

> <Smiles>
CNC(C)C(=O)NC(C(=O)N1Cc2cc([101O:1][101CH2:1]C(C)c3cnc([100NH:0][100C:0](=O)N4CCCC(n5nc(-c6ccc(Oc7ccc(F)cc7F)cc6)c(C(N)=O)c5N)C4)cn3)ccc2CC1C(=O)NC1CCCc2ccccc21)C(C)(C)C

> <Shape>
0.246

> <Color>
0.092

> <Negative vol penalty>
0.000

$$$$

  -OEChem-04052323023D

 85 94  0     1  0  0  0  0  0999 V2000
  -23.8998   -7.9966   21.3391 C   0  0  0  0  0  0  0  0  0  0  0  0
  -24.4817   -9.0562   20.6505 C   0  0  0  0  0  0  0  0  0  0  0  0
  -22.6943  -26.1518   21.7636 C   0  0  0  0  0  0  0  0  0  0  0  0
  -22.8793  -27.8195   23.5018 C   0  0  0  0  0  0  0  0  0  0  0  0
  -30.9891  -18.3856   18.1756 C   0  0  0  0  0  0  0  0  0  0  0  0
  -22.6506   -8.1573   21.9369 C   0  0  0  0  0  0  0  0  0  0  0  0
  -23.8140  -10.2770   20.5585 C   0  0  0  0  0  0  0  0  0  0  0  0
  -26.8592  -14.2275   21.4333 C   0  0  0  0  0  0  0  0  0  0  0  0
  -21.3143  -26.1000   21.9600 C   0  0  0  0  0  0  0  0  0  0  0  0
  -21.4993  -27.7678   23.6983 C   0  0  0  0  0  0  0  0  0  0  0  0
  -27.7056  -14.6206   20.3975 C   0  0  0  0  0  0  0  0  0  0  0  0
  -17.9799  -28.3384   24.4101 C   0  0  0  0  0  0  0  0  0  0  0  0
  -17.2965  -29.5477   24.5372 C   0  0  0  0  0  0  0  0  0  0  0  0
  -30.0204  -17.4414   17.8539 C   0  0  0  0  0  0  0  0  0  0  0  0
  -26.1761  -16.3975   19.8300 C   0  0  0  0  0  0  0  0  0  0  0  0
  -18.0386  -30.1987   22.3321 C   0  0  0  0  0  0  0  0  0  0  0  0
  -23.4768  -27.0114   22.5345 C   0  0  0  0  0  0  0  0  0  0  0  0
  -31.0709  -18.8748   19.4746 C   0  0  0  0  0  0  0  0  0  0  0  0
  -25.6049  -27.9072   21.4498 C   0  0  0  0  0  0  0  0  0  0  0  0
  -21.9716   -9.3836   21.8604 C   0  0  0  0  0  0  0  0  0  0  0  0
  -25.6575  -14.9109   21.6687 C   0  0  0  0  0  0  0  0  0  0  0  0
  -22.5539  -10.4538   21.1548 C   0  0  0  0  0  0  0  0  0  0  0  0
  -25.3174  -16.0127   20.8710 C   0  0  0  0  0  0  0  0  0  0  0  0
  -20.7168  -26.9080   22.9274 C   0  0  0  0  0  0  0  0  0  0  0  0
  -27.3628  -15.7039   19.5939 C   0  0  0  0  0  0  0  0  0  0  0  0
  -18.6928  -28.0593   23.2441 C   0  0  0  0  0  0  0  0  0  0  0  0
  -17.3257  -30.4778   23.4982 C   0  0  0  0  0  0  0  0  0  0  0  0
  -18.7221  -28.9895   22.2051 C   0  0  0  0  0  0  0  0  0  0  0  0
  -24.9024  -27.0649   22.3324 C   0  0  0  0  0  0  0  0  0  0  0  0
  -30.1677  -18.3915   20.4076 C   0  0  0  0  0  0  0  0  0  0  0  0
  -29.1641  -17.0223   18.8594 C   0  0  0  0  0  0  0  0  0  1  0  0
  -26.9243  -27.5718   21.6323 C   0  0  0  0  0  0  0  0  0  0  0  0
  -32.0914  -19.8757   19.8152 C   0  0  0  0  0  0  0  0  0  0  0  0
  -25.1091  -28.9036   20.5460 C   0  0  0  0  0  0  0  0  0  0  0  0
  -22.5793  -14.1203   21.6125 C   0  0  0  0  0  0  0  0  0  0  0  0
  -22.1870  -17.1269   22.7651 C   0  0  0  0  0  0  0  0  0  0  0  0
  -23.4176  -20.2951   23.0732 C   0  0  0  0  0  0  0  0  0  0  0  0
  -30.9254  -23.7953   22.2718 C   0  0  0  0  0  0  0  0  0  0  0  0
  -20.6021   -9.4952   22.4823 C   0  0  0  0  0  0  0  0  0  0  0  0
  -24.7684  -14.4910   22.8069 C   0  0  0  0  0  0  0  0  0  0  0  0
  -24.0484  -16.7925   21.0952 C   0  0  0  0  0  0  0  0  0  0  0  0
  -20.1284  -10.9357   22.6579 C   0  0  0  0  0  0  0  0  0  0  0  0
  -29.1571  -24.7283   25.1507 C   0  0  0  0  0  0  0  0  0  0  0  0
  -20.3759  -11.7380   21.3845 C   0  0  0  0  0  0  0  0  0  0  0  0
  -27.9369  -25.4728   24.6132 C   0  0  0  0  0  0  0  0  0  0  0  0
  -29.4925  -23.5305   24.2713 C   0  0  0  0  0  0  0  0  0  0  0  0
  -30.4808  -21.7518   19.1992 C   0  0  0  0  0  0  0  0  0  0  0  0
  -32.8063  -22.2284   19.9254 C   0  0  0  0  0  0  0  0  0  0  0  0
  -29.9033  -22.7791   20.1788 C   0  0  0  0  0  0  0  0  0  0  0  0
  -32.2273  -23.6194   20.1756 C   0  0  0  0  0  0  0  0  0  0  0  0
  -28.5324  -24.6475   22.2788 C   0  0  0  0  0  0  0  0  0  0  0  0
  -21.8720  -11.8011   21.0541 C   0  0  1  0  0  0  0  0  0  0  0  0
  -23.3208  -14.9392   22.6309 C   0  0  1  0  0  0  0  0  0  0  0  0
  -28.1415  -25.8654   23.1408 C   0  0  1  0  0  0  0  0  0  0  0  0
  -30.2067  -18.8793   21.8193 C   0  0  0  0  0  0  0  0  0  0  0  0
  -22.8537  -22.5423   24.0374 C   0  0  0  0  0  0  0  0  0  0  0  0
  -20.2251  -17.6127   20.4793 C   0  0  0  0  0  0  0  0  0  0  0  0
  -20.4332  -20.0693   20.9154 C   0  0  0  0  0  0  0  0  0  0  0  0
  -19.5175  -18.5640   22.6813 C   0  0  0  0  0  0  0  0  0  0  0  0
  -25.7879  -20.2588   24.8449 C   0  0  0  0  0  0  0  0  0  0  0  0
  -21.9880  -18.4906   22.1489 C   0  0  1  0  0  0  0  0  0  0  0  0
  -23.5503  -21.2116   24.2761 C   0  0  2  0  0  0  0  0  0  0  0  0
  -20.5640  -18.6685   21.5505 C   0  0  0  0  0  0  0  0  0  0  0  0
  -25.7087  -26.2553   23.0240 N   0  0  0  0  0  0  0  0  0  0  0  0
  -29.2131  -17.4747   20.1325 N   0  0  0  0  0  0  0  0  0  0  0  0
  -26.9315  -26.5872   22.5760 N   0  0  0  0  0  0  0  0  0  0  0  0
  -31.7649  -21.2270   19.6792 N   0  0  0  0  0  0  0  0  0  0  0  0
  -23.2090  -16.3392   22.2165 N   0  0  0  0  0  0  0  0  0  0  0  0
  -29.6652  -23.9234   22.8722 N   0  0  0  0  0  0  0  0  0  0  0  0
  -30.9586  -23.5160   20.8955 N   0  0  0  0  0  0  0  0  0  0  0  0
  -28.0673  -28.0260   21.0759 N   0  0  0  0  0  0  0  0  0  0  0  0
  -23.7259  -29.1206   20.4840 N   0  0  0  0  0  0  0  0  0  0  0  0
  -22.5361  -12.7694   21.9001 N   0  0  0  0  0  0  0  0  0  0  0  0
  -22.3260  -19.4602   23.1853 N   0  0  0  0  0  0  0  0  0  0  0  0
  -24.9871  -21.4789   24.5676 N   0  3  0  0  0  0  0  0  0  0  0  0
  -33.1712  -19.4453   20.2187 O   0  0  0  0  0  0  0  0  0  0  0  0
  -25.8690  -29.5701   19.8030 O   0  0  0  0  0  0  0  0  0  0  0  0
  -22.0819  -14.6733   20.6385 O   0  0  0  0  0  0  0  0  0  0  0  0
  -21.4671  -16.7764   23.7034 O   0  0  0  0  0  0  0  0  0  0  0  0
  -24.2015  -20.3202   22.1270 O   0  0  0  0  0  0  0  0  0  0  0  0
  -31.9662  -23.8983   22.9339 O   0  0  0  0  0  0  0  0  0  0  0  0
  -19.3702  -26.8580   23.1192 O   0  0  0  0  0  0  0  0  0  0  0  0
  -28.1988  -16.0949   18.5671 O   0  0  0  0  0  0  0  0  0  1  0  0
  -16.6681  -31.6384   23.6197 F   0  0  0  0  0  0  0  0  0  0  0  0
  -19.4043  -28.7265   21.0820 F   0  0  0  0  0  0  0  0  0  0  0  0
  1  2  1  0  0  0  0
  1  6  2  0  0  0  0
  2  7  2  0  0  0  0
  3  9  2  0  0  0  0
  3 17  1  0  0  0  0
  4 10  1  0  0  0  0
  4 17  2  0  0  0  0
  5 14  2  0  0  0  0
  5 18  1  0  0  0  0
  6 20  1  0  0  0  0
  7 22  1  0  0  0  0
  8 11  2  0  0  0  0
  8 21  1  0  0  0  0
  9 24  1  0  0  0  0
 10 24  2  0  0  0  0
 11 25  1  0  0  0  0
 12 13  2  0  0  0  0
 12 26  1  0  0  0  0
 13 27  1  0  0  0  0
 14 31  1  0  0  0  0
 15 23  1  0  0  0  0
 15 25  2  0  0  0  0
 16 27  2  0  0  0  0
 16 28  1  0  0  0  0
 17 29  1  0  0  0  0
 18 30  2  0  0  0  0
 18 33  1  0  0  0  0
 19 29  1  0  0  0  0
 19 32  2  0  0  0  0
 19 34  1  0  0  0  0
 20 22  2  0  0  0  0
 20 39  1  0  0  0  0
 21 23  2  0  0  0  0
 21 40  1  0  0  0  0
 22 52  1  0  0  0  0
 23 41  1  0  0  0  0
 24 82  1  0  0  0  0
 25 83  1  0  0  0  0
 26 28  2  0  0  0  0
 26 82  1  0  0  0  0
 27 84  1  0  0  0  0
 28 85  1  0  0  0  0
 29 64  2  0  0  0  0
 30 55  1  0  0  0  0
 30 65  1  0  0  0  0
 31 65  2  0  0  0  0
 31 83  1  0  0  0  0
 32 66  1  0  0  0  0
 32 71  1  0  0  0  0
 33 67  1  0  0  0  0
 33 76  2  0  0  0  0
 34 72  1  0  0  0  0
 34 77  2  0  0  0  0
 35 53  1  0  0  0  0
 35 73  1  0  0  0  0
 35 78  2  0  0  0  0
 36 61  1  0  0  0  0
 36 68  1  0  0  0  0
 36 79  2  0  0  0  0
 37 62  1  0  0  0  0
 37 74  1  0  0  0  0
 37 80  2  0  0  0  0
 38 69  1  0  0  0  0
 38 70  1  0  0  0  0
 38 81  2  0  0  0  0
 39 42  1  0  0  0  0
 40 53  1  0  0  0  0
 41 68  1  0  0  0  0
 42 44  1  0  0  0  0
 43 45  1  0  0  0  0
 43 46  1  0  0  0  0
 44 52  1  0  0  0  0
 45 54  1  0  0  0  0
 46 69  1  0  0  0  0
 47 49  1  0  0  0  0
 47 67  1  0  0  0  0
 48 50  1  0  0  0  0
 48 67  1  0  0  0  0
 49 70  1  0  0  0  0
 50 70  1  0  0  0  0
 51 54  1  0  0  0  0
 51 69  1  0  0  0  0
 52 73  1  0  0  0  0
 53 68  1  0  0  0  0
 54 66  1  0  0  0  0
 56 62  1  0  0  0  0
 57 63  1  0  0  0  0
 58 63  1  0  0  0  0
 59 63  1  0  0  0  0
 60 75  1  0  0  0  0
 61 63  1  0  0  0  0
 61 74  1  0  0  0  0
 62 75  1  0  0  0  0
 64 66  1  0  0  0  0
M  CHG  1  75   1
M  ISO  4  31 101  38 100  70 100  83 101
M  END
> <Batch ID>
0181

> <Smiles>
CNC(C)C(=O)NC(C(=O)N1Cc2cc([101O:1][101c:1]3ccc(C(=O)N4CC[100N:0]([100C:0](=O)N5CCCC(n6nc(-c7ccc(Oc8ccc(F)cc8F)cc7)c(C(N)=O)c6N)C5)CC4)c(C)n3)ccc2CC1C(=O)NC1CCCc2ccccc21)C(C)(C)C

> <Shape>
0.196

> <Color>
0.076

> <Negative vol penalty>
0.000

$$$$

  -OEChem-04052323023D

 84 93  0     1  0  0  0  0  0999 V2000
  -16.8398  -30.2866   23.3558 C   0  0  0  0  0  0  0  0  0  0  0  0
  -17.8381  -30.5323   24.2931 C   0  0  0  0  0  0  0  0  0  0  0  0
  -26.8426  -18.7719   19.5637 C   0  0  0  0  0  0  0  0  0  0  0  0
  -28.3136  -18.0237   21.3281 C   0  0  0  0  0  0  0  0  0  0  0  0
  -17.0102  -29.2813   22.4049 C   0  0  0  0  0  0  0  0  0  0  0  0
  -19.0069  -29.7720   24.2807 C   0  0  0  0  0  0  0  0  0  0  0  0
  -26.0178  -30.2886   25.6581 C   0  0  0  0  0  0  0  0  0  0  0  0
  -26.3801  -17.4668   19.3957 C   0  0  0  0  0  0  0  0  0  0  0  0
  -27.8511  -16.7185   21.1601 C   0  0  0  0  0  0  0  0  0  0  0  0
  -27.0208  -29.6563   26.3915 C   0  0  0  0  0  0  0  0  0  0  0  0
  -28.3683  -14.1474   19.0263 C   0  0  0  0  0  0  0  0  0  0  0  0
  -29.3147  -13.1232   18.9971 C   0  0  0  0  0  0  0  0  0  0  0  0
  -27.2391  -27.9988   24.6525 C   0  0  0  0  0  0  0  0  0  0  0  0
  -34.4077  -28.1068   24.5367 C   0  0  0  0  0  0  0  0  0  0  0  0
  -32.9881  -26.2115   24.1158 C   0  0  0  0  0  0  0  0  0  0  0  0
  -28.2697  -12.1026   20.9216 C   0  0  0  0  0  0  0  0  0  0  0  0
  -27.8094  -19.0504   20.5299 C   0  0  0  0  0  0  0  0  0  0  0  0
  -27.7616  -21.3835   21.5604 C   0  0  0  0  0  0  0  0  0  0  0  0
  -18.1859  -28.5147   22.3748 C   0  0  0  0  0  0  0  0  0  0  0  0
  -25.6096  -29.7736   24.4193 C   0  0  0  0  0  0  0  0  0  0  0  0
  -19.1926  -28.7545   23.3294 C   0  0  0  0  0  0  0  0  0  0  0  0
  -26.2325  -28.6279   23.9042 C   0  0  0  0  0  0  0  0  0  0  0  0
  -33.4144  -27.2307   24.9601 C   0  0  0  0  0  0  0  0  0  0  0  0
  -26.8844  -16.4400   20.1939 C   0  0  0  0  0  0  0  0  0  0  0  0
  -27.6296  -28.5096   25.8901 C   0  0  0  0  0  0  0  0  0  0  0  0
  -27.3726  -14.1493   20.0032 C   0  0  0  0  0  0  0  0  0  0  0  0
  -29.2655  -12.1008   19.9447 C   0  0  0  0  0  0  0  0  0  0  0  0
  -27.3233  -13.1269   20.9508 C   0  0  0  0  0  0  0  0  0  0  0  0
  -28.2879  -20.3983   20.7035 C   0  0  0  0  0  0  0  0  0  0  0  0
  -34.9382  -27.9225   23.2700 C   0  0  0  0  0  0  0  0  0  0  0  0
  -33.5820  -26.1122   22.8679 C   0  0  0  0  0  0  0  0  0  0  0  0
  -28.5641  -22.4795   21.3573 C   0  0  0  0  0  0  0  0  0  0  0  0
  -26.6470  -21.3141   22.4596 C   0  0  0  0  0  0  0  0  0  0  0  0
  -22.8845  -28.6223   23.2566 C   0  0  0  0  0  0  0  0  0  0  0  0
  -24.5467  -28.5726   20.4715 C   0  0  0  0  0  0  0  0  0  0  0  0
  -27.8799  -27.6897   19.4095 C   0  0  0  0  0  0  0  0  0  0  0  0
  -33.5933  -24.7844   20.7271 C   0  0  0  0  0  0  0  0  0  0  0  0
  -18.3046  -27.4073   21.3578 C   0  0  0  0  0  0  0  0  0  0  0  0
  -24.5449  -30.4827   23.6282 C   0  0  0  0  0  0  0  0  0  0  0  0
  -25.8448  -28.0465   22.5699 C   0  0  0  0  0  0  0  0  0  0  0  0
  -19.7318  -26.8968   21.1770 C   0  0  0  0  0  0  0  0  0  0  0  0
  -32.0781  -23.3803   17.8271 C   0  0  0  0  0  0  0  0  0  0  0  0
  -20.3908  -26.6628   22.5326 C   0  0  0  0  0  0  0  0  0  0  0  0
  -35.7391  -30.3330   22.7985 C   0  0  0  0  0  0  0  0  0  0  0  0
  -35.8050  -29.5931   21.4991 C   0  0  0  0  0  0  0  0  0  0  0  0
  -30.9137  -22.5604   18.3874 C   0  0  0  0  0  0  0  0  0  0  0  0
  -33.3027  -23.3227   18.7387 C   0  0  0  0  0  0  0  0  0  0  0  0
  -31.8862  -22.8607   20.7007 C   0  0  0  0  0  0  0  0  0  0  0  0
  -20.4853  -27.9676   23.3327 C   0  0  1  0  0  0  0  0  0  0  0  0
  -36.0050  -28.8508   22.7939 C   0  0  0  0  0  0  0  0  0  0  0  0
  -23.8508  -29.5776   22.6151 C   0  0  1  0  0  0  0  0  0  0  0  0
  -30.6084  -22.9411   19.8495 C   0  0  2  0  0  0  0  0  0  0  0  0
  -29.2420  -28.5034   17.4652 C   0  0  0  0  0  0  0  0  0  0  0  0
  -23.4129  -26.1345   19.0292 C   0  0  0  0  0  0  0  0  0  0  0  0
  -25.6444  -25.8306   17.9355 C   0  0  0  0  0  0  0  0  0  0  0  0
  -24.3265  -27.9076   17.5206 C   0  0  0  0  0  0  0  0  0  0  0  0
  -30.1224  -28.4910   21.1667 C   0  0  0  0  0  0  0  0  0  0  0  0
  -32.8048  -27.3851   26.3222 C   0  0  0  0  0  0  0  0  0  0  0  0
  -30.7826  -28.0779   27.6143 C   0  0  0  0  0  0  0  0  0  0  0  0
  -29.4151  -28.7106   27.4482 C   0  0  0  0  0  0  0  0  0  1  0  0
  -25.4285  -27.5676   19.7705 C   0  0  1  0  0  0  0  0  0  0  0  0
  -28.9711  -28.6422   18.9553 C   0  0  2  0  0  0  0  0  0  0  0  0
  -24.7008  -26.8607   18.5923 C   0  0  0  0  0  0  0  0  0  0  0  0
  -29.3430  -20.8304   20.0077 N   0  0  0  0  0  0  0  0  0  0  0  0
  -34.5495  -26.9443   22.4217 N   0  0  0  0  0  0  0  0  0  0  0  0
  -29.4861  -22.0991   20.4271 N   0  0  0  0  0  0  0  0  0  0  0  0
  -24.7943  -28.7723   21.8370 N   0  0  0  0  0  0  0  0  0  0  0  0
  -32.9384  -23.6999   20.1061 N   0  0  0  0  0  0  0  0  0  0  0  0
  -28.5638  -23.7219   21.8854 N   0  0  0  0  0  0  0  0  0  0  0  0
  -25.9315  -20.1120   22.5453 N   0  0  0  0  0  0  0  0  0  0  0  0
  -33.1406  -25.0707   22.0146 N   0  0  0  0  0  0  0  0  0  0  0  0
  -21.5760  -28.7830   22.8428 N   0  0  0  0  0  0  0  0  0  0  0  0
  -26.6370  -28.2862   19.3814 N   0  0  0  0  0  0  0  0  0  0  0  0
  -30.2378  -28.3673   19.6908 N   0  3  0  0  0  0  0  0  0  0  0  0
  -31.4363  -27.9680   26.2859 N   0  3  0  0  0  0  0  0  0  0  0  0
  -26.2859  -22.2943   23.1541 O   0  0  0  0  0  0  0  0  0  0  0  0
  -23.2960  -27.7992   24.0659 O   0  0  0  0  0  0  0  0  0  0  0  0
  -23.6752  -29.1641   19.8294 O   0  0  0  0  0  0  0  0  0  0  0  0
  -28.1067  -26.5311   19.7512 O   0  0  0  0  0  0  0  0  0  0  0  0
  -34.4709  -25.4301   20.1484 O   0  0  0  0  0  0  0  0  0  0  0  0
  -26.4332  -15.1664   20.0304 O   0  0  0  0  0  0  0  0  0  0  0  0
  -28.6085  -27.8900   26.6042 O   0  0  0  0  0  0  0  0  0  1  0  0
  -30.1735  -11.1166   19.9155 F   0  0  0  0  0  0  0  0  0  0  0  0
  -26.3684  -13.1226   21.8910 F   0  0  0  0  0  0  0  0  0  0  0  0
  1  2  1  0  0  0  0
  1  5  2  0  0  0  0
  2  6  2  0  0  0  0
  3  8  2  0  0  0  0
  3 17  1  0  0  0  0
  4  9  1  0  0  0  0
  4 17  2  0  0  0  0
  5 19  1  0  0  0  0
  6 21  1  0  0  0  0
  7 10  2  0  0  0  0
  7 20  1  0  0  0  0
  8 24  1  0  0  0  0
  9 24  2  0  0  0  0
 10 25  1  0  0  0  0
 11 12  2  0  0  0  0
 11 26  1  0  0  0  0
 12 27  1  0  0  0  0
 13 22  1  0  0  0  0
 13 25  2  0  0  0  0
 14 23  2  0  0  0  0
 14 30  1  0  0  0  0
 15 23  1  0  0  0  0
 15 31  2  0  0  0  0
 16 27  2  0  0  0  0
 16 28  1  0  0  0  0
 17 29  1  0  0  0  0
 18 29  1  0  0  0  0
 18 32  2  0  0  0  0
 18 33  1  0  0  0  0
 19 21  2  0  0  0  0
 19 38  1  0  0  0  0
 20 22  2  0  0  0  0
 20 39  1  0  0  0  0
 21 49  1  0  0  0  0
 22 40  1  0  0  0  0
 23 58  1  0  0  0  0
 24 81  1  0  0  0  0
 25 82  1  0  0  0  0
 26 28  2  0  0  0  0
 26 81  1  0  0  0  0
 27 83  1  0  0  0  0
 28 84  1  0  0  0  0
 29 64  2  0  0  0  0
 30 50  1  0  0  0  0
 30 65  2  0  0  0  0
 31 65  1  0  0  0  0
 31 71  1  0  0  0  0
 32 66  1  0  0  0  0
 32 69  1  0  0  0  0
 33 70  1  0  0  0  0
 33 76  2  0  0  0  0
 34 51  1  0  0  0  0
 34 72  1  0  0  0  0
 34 77  2  0  0  0  0
 35 61  1  0  0  0  0
 35 67  1  0  0  0  0
 35 78  2  0  0  0  0
 36 62  1  0  0  0  0
 36 73  1  0  0  0  0
 36 79  2  0  0  0  0
 37 68  1  0  0  0  0
 37 71  1  0  0  0  0
 37 80  2  0  0  0  0
 38 41  1  0  0  0  0
 39 51  1  0  0  0  0
 40 67  1  0  0  0  0
 41 43  1  0  0  0  0
 42 46  1  0  0  0  0
 42 47  1  0  0  0  0
 43 49  1  0  0  0  0
 44 45  1  0  0  0  0
 44 50  1  0  0  0  0
 45 50  1  0  0  0  0
 46 52  1  0  0  0  0
 47 68  1  0  0  0  0
 48 52  1  0  0  0  0
 48 68  1  0  0  0  0
 49 72  1  0  0  0  0
 51 67  1  0  0  0  0
 52 66  1  0  0  0  0
 53 62  1  0  0  0  0
 54 63  1  0  0  0  0
 55 63  1  0  0  0  0
 56 63  1  0  0  0  0
 57 74  1  0  0  0  0
 58 75  1  0  0  0  0
 59 60  1  0  0  0  0
 59 75  1  0  0  0  0
 60 82  1  0  0  0  0
 61 63  1  0  0  0  0
 61 73  1  0  0  0  0
 62 74  1  0  0  0  0
 64 66  1  0  0  0  0
M  CHG  2  74   1  75   1
M  ISO  4  37 100  60 101  71 100  82 101
M  END
> <Batch ID>
0181

> <Smiles>
CNC(C)C(=O)NC(C(=O)N1Cc2cc([101O:1][101CH2:1]CNCc3cc([100NH:0][100C:0](=O)N4CCCC(n5nc(-c6ccc(Oc7ccc(F)cc7F)cc6)c(C(N)=O)c5N)C4)nc(C4CC4)c3)ccc2CC1C(=O)NC1CCCc2ccccc21)C(C)(C)C

> <Shape>
0.258

> <Color>
0.098

> <Negative vol penalty>
0.000

$$$$

  -OEChem-04052323023D

 82 91  0     1  0  0  0  0  0999 V2000
  -19.7536  -25.7789   29.2222 C   0  0  0  0  0  0  0  0  0  0  0  0
  -20.7995  -24.9107   28.9259 C   0  0  0  0  0  0  0  0  0  0  0  0
  -23.4819   -9.6717   19.8895 C   0  0  0  0  0  0  0  0  0  0  0  0
  -23.7126   -9.9320   22.2804 C   0  0  0  0  0  0  0  0  0  0  0  0
  -19.1180  -26.4782   28.1970 C   0  0  0  0  0  0  0  0  0  0  0  0
  -21.2097  -24.7405   27.6041 C   0  0  0  0  0  0  0  0  0  0  0  0
  -27.0756  -23.4443   23.7018 C   0  0  0  0  0  0  0  0  0  0  0  0
  -22.8133   -8.4634   20.0855 C   0  0  0  0  0  0  0  0  0  0  0  0
  -23.0439   -8.7236   22.4764 C   0  0  0  0  0  0  0  0  0  0  0  0
  -27.5427  -22.5778   22.7146 C   0  0  0  0  0  0  0  0  0  0  0  0
  -19.8523   -7.6129   22.4549 C   0  0  0  0  0  0  0  0  0  0  0  0
  -18.8628   -7.5735   23.4371 C   0  0  0  0  0  0  0  0  0  0  0  0
  -26.4234  -23.8983   21.0345 C   0  0  0  0  0  0  0  0  0  0  0  0
  -20.0879   -5.8475   24.6021 C   0  0  0  0  0  0  0  0  0  0  0  0
  -29.6680  -20.6608   18.6660 C   0  0  0  0  0  0  0  0  0  0  0  0
  -23.9316  -10.4060   20.9869 C   0  0  0  0  0  0  0  0  0  0  0  0
  -24.0520  -12.9380   20.7006 C   0  0  0  0  0  0  0  0  0  0  0  0
  -19.5270  -26.3238   26.8630 C   0  0  0  0  0  0  0  0  0  0  0  0
  -26.2685  -24.5400   23.3634 C   0  0  0  0  0  0  0  0  0  0  0  0
  -20.5781  -25.4374   26.5600 C   0  0  0  0  0  0  0  0  0  0  0  0
  -25.9495  -24.7787   22.0191 C   0  0  0  0  0  0  0  0  0  0  0  0
  -22.5942   -7.9893   21.3790 C   0  0  0  0  0  0  0  0  0  0  0  0
  -27.2142  -22.8030   21.3810 C   0  0  0  0  0  0  0  0  0  0  0  0
  -20.9596   -6.7695   22.5462 C   0  0  0  0  0  0  0  0  0  0  0  0
  -18.9805   -6.6908   24.5108 C   0  0  0  0  0  0  0  0  0  0  0  0
  -21.0774   -5.8869   23.6198 C   0  0  0  0  0  0  0  0  0  0  0  0
  -24.6229  -11.6540   20.7851 C   0  0  0  0  0  0  0  0  0  0  0  0
  -29.7152  -18.6736   17.5142 C   0  0  0  0  0  0  0  0  0  0  0  0
  -28.9673  -18.0754   18.5208 C   0  0  0  0  0  0  0  0  0  0  0  0
  -28.9188  -20.0730   19.6573 C   0  0  0  0  0  0  0  0  0  0  0  0
  -25.1218  -13.7774   20.5069 C   0  0  0  0  0  0  0  0  0  0  0  0
  -22.6776  -13.3364   20.7894 C   0  0  0  0  0  0  0  0  0  0  0  0
  -23.3019  -25.4418   24.0633 C   0  0  0  0  0  0  0  0  0  0  0  0
  -24.1558  -28.1281   22.4580 C   0  0  0  0  0  0  0  0  0  0  0  0
  -26.1808  -29.5949   20.1354 C   0  0  0  0  0  0  0  0  0  0  0  0
  -29.9049  -14.6834   17.5909 C   0  0  0  0  0  0  0  0  0  0  0  0
  -18.7785  -27.0652   25.7838 C   0  0  0  0  0  0  0  0  0  0  0  0
  -25.7949  -25.4806   24.4373 C   0  0  0  0  0  0  0  0  0  0  0  0
  -25.1030  -25.9523   21.6012 C   0  0  0  0  0  0  0  0  0  0  0  0
  -30.2012  -17.8852   16.3309 C   0  0  0  0  0  0  0  0  0  0  0  0
  -28.5326  -16.6368   18.4390 C   0  0  0  0  0  0  0  0  0  0  0  0
  -19.5204  -27.1126   24.4506 C   0  0  0  0  0  0  0  0  0  0  0  0
  -30.0913  -12.9431   20.8484 C   0  0  0  0  0  0  0  0  0  0  0  0
  -20.0621  -25.7326   24.0917 C   0  0  0  0  0  0  0  0  0  0  0  0
  -28.6457  -12.5017   21.0736 C   0  0  0  0  0  0  0  0  0  0  0  0
  -30.4295  -13.0459   19.3640 C   0  0  0  0  0  0  0  0  0  0  0  0
  -28.0564  -13.4700   18.8176 C   0  0  0  0  0  0  0  0  0  0  0  0
  -21.0681  -25.2447   25.1412 C   0  0  1  0  0  0  0  0  0  0  0  0
  -24.5542  -26.2717   24.0342 C   0  0  1  0  0  0  0  0  0  0  0  0
  -27.6686  -13.4062   20.3021 C   0  0  1  0  0  0  0  0  0  0  0  0
  -29.3949  -16.6016   16.0939 C   0  0  2  0  0  0  0  0  0  0  0  0
  -28.0549  -16.8719   15.4021 C   0  0  0  0  0  0  0  0  0  0  0  0
  -26.6164  -31.7954   19.0103 C   0  0  0  0  0  0  0  0  0  0  0  0
  -21.6763  -27.7301   20.7249 C   0  0  0  0  0  0  0  0  0  0  0  0
  -22.6556  -29.3398   19.0763 C   0  0  0  0  0  0  0  0  0  0  0  0
  -22.1149  -30.1008   21.3896 C   0  0  0  0  0  0  0  0  0  0  0  0
  -28.9471  -29.7137   21.1808 C   0  0  0  0  0  0  0  0  0  0  0  0
  -28.4767  -20.8615   20.8401 C   0  0  0  0  0  0  0  0  0  1  0  0
  -24.0977  -28.5769   21.0178 C   0  0  1  0  0  0  0  0  0  0  0  0
  -26.9848  -30.8821   20.1692 C   0  0  2  0  0  0  0  0  0  0  0  0
  -22.6505  -28.9136   20.5599 C   0  0  0  0  0  0  0  0  0  0  0  0
  -30.0804  -19.9740   17.5841 N   0  0  0  0  0  0  0  0  0  0  0  0
  -25.9521  -11.6712   20.6554 N   0  0  0  0  0  0  0  0  0  0  0  0
  -28.5556  -18.7778   19.6013 N   0  0  0  0  0  0  0  0  0  0  0  0
  -26.2254  -12.9762   20.4875 N   0  0  0  0  0  0  0  0  0  0  0  0
  -24.6587  -26.8398   22.6886 N   0  0  0  0  0  0  0  0  0  0  0  0
  -29.2085  -15.8851   17.3682 N   0  0  0  0  0  0  0  0  0  0  0  0
  -29.4591  -13.8768   18.6510 N   0  0  0  0  0  0  0  0  0  0  0  0
  -25.2167  -15.1151   20.3528 N   0  0  0  0  0  0  0  0  0  0  0  0
  -21.7064  -12.3460   20.9902 N   0  0  0  0  0  0  0  0  0  0  0  0
  -22.3479  -25.8942   24.9548 N   0  0  0  0  0  0  0  0  0  0  0  0
  -25.0360  -29.6877   20.8982 N   0  0  0  0  0  0  0  0  0  0  0  0
  -28.4428  -30.5845   20.0878 N   0  3  0  0  0  0  0  0  0  0  0  0
  -22.3196  -14.5334   20.6772 O   0  0  0  0  0  0  0  0  0  0  0  0
  -23.2076  -24.4644   23.3302 O   0  0  0  0  0  0  0  0  0  0  0  0
  -23.7759  -28.8952   23.3462 O   0  0  0  0  0  0  0  0  0  0  0  0
  -26.5313  -28.6073   19.4932 O   0  0  0  0  0  0  0  0  0  0  0  0
  -30.8732  -14.3544   16.8943 O   0  0  0  0  0  0  0  0  0  0  0  0
  -21.9416   -6.8104   21.5706 O   0  0  0  0  0  0  0  0  0  0  0  0
  -27.6713  -21.9528   20.4090 O   0  0  0  0  0  0  0  0  0  1  0  0
  -18.0309   -6.6542   25.4548 F   0  0  0  0  0  0  0  0  0  0  0  0
  -22.1395   -5.0751   23.7136 F   0  0  0  0  0  0  0  0  0  0  0  0
  1  2  1  0  0  0  0
  1  5  2  0  0  0  0
  2  6  2  0  0  0  0
  3  8  2  0  0  0  0
  3 16  1  0  0  0  0
  4  9  1  0  0  0  0
  4 16  2  0  0  0  0
  5 18  1  0  0  0  0
  6 20  1  0  0  0  0
  7 10  2  0  0  0  0
  7 19  1  0  0  0  0
  8 22  1  0  0  0  0
  9 22  2  0  0  0  0
 10 23  1  0  0  0  0
 11 12  2  0  0  0  0
 11 24  1  0  0  0  0
 12 25  1  0  0  0  0
 13 21  1  0  0  0  0
 13 23  2  0  0  0  0
 14 25  2  0  0  0  0
 14 26  1  0  0  0  0
 15 30  1  0  0  0  0
 15 62  2  0  0  0  0
 16 27  1  0  0  0  0
 17 27  1  0  0  0  0
 17 31  2  0  0  0  0
 17 32  1  0  0  0  0
 18 20  2  0  0  0  0
 18 37  1  0  0  0  0
 19 21  2  0  0  0  0
 19 38  1  0  0  0  0
 20 48  1  0  0  0  0
 21 39  1  0  0  0  0
 22 79  1  0  0  0  0
 23 80  1  0  0  0  0
 24 26  2  0  0  0  0
 24 79  1  0  0  0  0
 25 81  1  0  0  0  0
 26 82  1  0  0  0  0
 27 63  2  0  0  0  0
 28 29  2  0  0  0  0
 28 40  1  0  0  0  0
 28 62  1  0  0  0  0
 29 41  1  0  0  0  0
 29 64  1  0  0  0  0
 30 58  1  0  0  0  0
 30 64  2  0  0  0  0
 31 65  1  0  0  0  0
 31 69  1  0  0  0  0
 32 70  1  0  0  0  0
 32 74  2  0  0  0  0
 33 49  1  0  0  0  0
 33 71  1  0  0  0  0
 33 75  2  0  0  0  0
 34 59  1  0  0  0  0
 34 66  1  0  0  0  0
 34 76  2  0  0  0  0
 35 60  1  0  0  0  0
 35 72  1  0  0  0  0
 35 77  2  0  0  0  0
 36 67  1  0  0  0  0
 36 68  1  0  0  0  0
 36 78  2  0  0  0  0
 37 42  1  0  0  0  0
 38 49  1  0  0  0  0
 39 66  1  0  0  0  0
 40 51  1  0  0  0  0
 41 67  1  0  0  0  0
 42 44  1  0  0  0  0
 43 45  1  0  0  0  0
 43 46  1  0  0  0  0
 44 48  1  0  0  0  0
 45 50  1  0  0  0  0
 46 68  1  0  0  0  0
 47 50  1  0  0  0  0
 47 68  1  0  0  0  0
 48 71  1  0  0  0  0
 49 66  1  0  0  0  0
 50 65  1  0  0  0  0
 51 52  1  0  0  0  0
 51 67  1  0  0  0  0
 53 60  1  0  0  0  0
 54 61  1  0  0  0  0
 55 61  1  0  0  0  0
 56 61  1  0  0  0  0
 57 73  1  0  0  0  0
 58 80  1  0  0  0  0
 59 61  1  0  0  0  0
 59 72  1  0  0  0  0
 60 73  1  0  0  0  0
 63 65  1  0  0  0  0
M  CHG  1  73   1
M  ISO  4  36 100  58 101  67 100  80 101
M  END
> <Batch ID>
0181

> <Smiles>
CNC(C)C(=O)NC(C(=O)N1Cc2cc([101O:1][101CH2:1]c3cnc4c(n3)C[100N:0]([100C:0](=O)N3CCCC(n5nc(-c6ccc(Oc7ccc(F)cc7F)cc6)c(C(N)=O)c5N)C3)C(C)C4)ccc2CC1C(=O)NC1CCCc2ccccc21)C(C)(C)C

> <Shape>
0.241

> <Color>
0.185

> <Negative vol penalty>
0.000

$$$$

  -OEChem-04052323023D

 83 92  0     1  0  0  0  0  0999 V2000
  -25.2143  -29.2529   18.7426 C   0  0  0  0  0  0  0  0  0  0  0  0
  -25.9158  -28.1028   19.0899 C   0  0  0  0  0  0  0  0  0  0  0  0
  -23.0599   -9.7403   20.2527 C   0  0  0  0  0  0  0  0  0  0  0  0
  -23.5968  -10.2025   22.5626 C   0  0  0  0  0  0  0  0  0  0  0  0
  -24.8257  -30.1562   19.7310 C   0  0  0  0  0  0  0  0  0  0  0  0
  -26.2301  -27.8559   20.4258 C   0  0  0  0  0  0  0  0  0  0  0  0
  -25.3310  -23.0594   21.7787 C   0  0  0  0  0  0  0  0  0  0  0  0
  -22.2776   -8.6566   20.6514 C   0  0  0  0  0  0  0  0  0  0  0  0
  -22.8144   -9.1187   22.9613 C   0  0  0  0  0  0  0  0  0  0  0  0
  -26.2666  -22.1019   21.3892 C   0  0  0  0  0  0  0  0  0  0  0  0
  -23.1053   -5.7531   23.0993 C   0  0  0  0  0  0  0  0  0  0  0  0
  -23.6331   -4.8919   24.0612 C   0  0  0  0  0  0  0  0  0  0  0  0
  -27.2323  -22.1553   23.5991 C   0  0  0  0  0  0  0  0  0  0  0  0
  -29.5627  -18.0023   22.0693 C   0  0  0  0  0  0  0  0  0  0  0  0
  -21.7791   -5.3928   25.5271 C   0  0  0  0  0  0  0  0  0  0  0  0
  -23.7196  -10.5133   21.2083 C   0  0  0  0  0  0  0  0  0  0  0  0
  -24.1108  -12.9663   20.6275 C   0  0  0  0  0  0  0  0  0  0  0  0
  -25.1269  -29.9154   21.0807 C   0  0  0  0  0  0  0  0  0  0  0  0
  -25.3459  -23.5809   23.0803 C   0  0  0  0  0  0  0  0  0  0  0  0
  -25.8463  -28.7575   21.4331 C   0  0  0  0  0  0  0  0  0  0  0  0
  -26.2942  -23.1174   24.0034 C   0  0  0  0  0  0  0  0  0  0  0  0
  -30.0139  -19.2988   22.2908 C   0  0  0  0  0  0  0  0  0  0  0  0
  -31.3151  -19.6449   21.9437 C   0  0  0  0  0  0  0  0  0  0  0  0
  -22.1548   -8.3458   22.0056 C   0  0  0  0  0  0  0  0  0  0  0  0
  -27.2193  -21.6518   22.2986 C   0  0  0  0  0  0  0  0  0  0  0  0
  -21.9144   -6.4343   23.3513 C   0  0  0  0  0  0  0  0  0  0  0  0
  -22.9700   -4.7117   25.2751 C   0  0  0  0  0  0  0  0  0  0  0  0
  -21.2513   -6.2541   24.5652 C   0  0  0  0  0  0  0  0  0  0  0  0
  -24.5284  -11.6326   20.7971 C   0  0  0  0  0  0  0  0  0  0  0  0
  -32.1189  -18.6657   21.3827 C   0  0  0  0  0  0  0  0  0  0  0  0
  -30.4450  -17.0967   21.5025 C   0  0  0  0  0  0  0  0  0  0  0  0
  -25.2443  -13.6332   20.2315 C   0  0  0  0  0  0  0  0  0  0  0  0
  -22.8143  -13.5501   20.8116 C   0  0  0  0  0  0  0  0  0  0  0  0
  -25.7705  -26.4706   24.3343 C   0  0  0  0  0  0  0  0  0  0  0  0
  -25.0042  -24.9565   27.0988 C   0  0  0  0  0  0  0  0  0  0  0  0
  -24.8477  -22.0341   28.8544 C   0  0  0  0  0  0  0  0  0  0  0  0
  -30.6844  -14.7122   20.7260 C   0  0  0  0  0  0  0  0  0  0  0  0
  -24.7272  -30.9444   22.1084 C   0  0  0  0  0  0  0  0  0  0  0  0
  -24.3131  -24.5935   23.4928 C   0  0  0  0  0  0  0  0  0  0  0  0
  -26.3399  -23.6305   25.4187 C   0  0  0  0  0  0  0  0  0  0  0  0
  -24.7724  -30.4226   23.5423 C   0  0  0  0  0  0  0  0  0  0  0  0
  -29.7641  -11.8745   18.7823 C   0  0  0  0  0  0  0  0  0  0  0  0
  -26.0718  -29.6642   23.7937 C   0  0  0  0  0  0  0  0  0  0  0  0
  -34.5408  -17.8815   20.9424 C   0  0  0  0  0  0  0  0  0  0  0  0
  -34.6080  -18.9005   22.0368 C   0  0  0  0  0  0  0  0  0  0  0  0
  -28.2856  -11.6683   19.1193 C   0  0  0  0  0  0  0  0  0  0  0  0
  -30.5635  -12.3392   19.9984 C   0  0  0  0  0  0  0  0  0  0  0  0
  -28.5447  -13.3152   21.0186 C   0  0  0  0  0  0  0  0  0  0  0  0
  -26.1842  -28.4423   22.8741 C   0  0  1  0  0  0  0  0  0  0  0  0
  -33.5258  -18.9908   20.9955 C   0  0  0  0  0  0  0  0  0  0  0  0
  -24.7444  -25.4327   24.6915 C   0  0  1  0  0  0  0  0  0  0  0  0
  -27.6865  -12.9095   19.8093 C   0  0  2  0  0  0  0  0  0  0  0  0
  -31.3082  -22.0151   21.1261 C   0  0  0  0  0  0  0  0  0  0  0  0
  -24.2135  -21.1186   31.1031 C   0  0  0  0  0  0  0  0  0  0  0  0
  -27.5904  -26.0665   28.2775 C   0  0  0  0  0  0  0  0  0  0  0  0
  -27.3844  -24.3919   30.1272 C   0  0  0  0  0  0  0  0  0  0  0  0
  -25.6258  -26.1349   29.8234 C   0  0  0  0  0  0  0  0  0  0  0  0
  -22.7537  -20.2992   27.6865 C   0  0  0  0  0  0  0  0  0  0  0  0
  -31.8238  -21.0294   22.1709 C   0  0  0  0  0  0  0  0  0  0  0  0
  -29.0813  -20.3018   22.9036 C   0  0  0  0  0  0  0  0  0  1  0  0
  -25.7803  -24.2287   28.1698 C   0  0  1  0  0  0  0  0  0  0  0  0
  -23.7394  -21.4190   29.6897 C   0  0  2  0  0  0  0  0  0  0  0  0
  -26.5958  -25.1971   29.0723 C   0  0  0  0  0  0  0  0  0  0  0  0
  -25.8258  -11.4606   20.5304 N   0  0  0  0  0  0  0  0  0  0  0  0
  -31.7160  -17.3960   21.1523 N   0  0  0  0  0  0  0  0  0  0  0  0
  -26.2333  -12.6949   20.1892 N   0  0  0  0  0  0  0  0  0  0  0  0
  -25.3129  -24.6245   25.7721 N   0  0  0  0  0  0  0  0  0  0  0  0
  -29.9393  -13.5209   20.5974 N   0  0  0  0  0  0  0  0  0  0  0  0
  -25.4816  -14.9248   19.9186 N   0  0  0  0  0  0  0  0  0  0  0  0
  -21.7606  -12.7218   21.2214 N   0  0  0  0  0  0  0  0  0  0  0  0
  -29.9762  -15.7782   21.2797 N   0  0  0  0  0  0  0  0  0  0  0  0
  -25.3545  -27.3627   23.3645 N   0  0  0  0  0  0  0  0  0  0  0  0
  -24.8112  -23.4120   28.8924 N   0  0  0  0  0  0  0  0  0  0  0  0
  -23.2697  -20.1471   29.0712 N   0  3  0  0  0  0  0  0  0  0  0  0
  -22.5930  -14.7670   20.6025 O   0  0  0  0  0  0  0  0  0  0  0  0
  -26.8586  -26.4636   24.8980 O   0  0  0  0  0  0  0  0  0  0  0  0
  -24.1503  -25.7839   27.4275 O   0  0  0  0  0  0  0  0  0  0  0  0
  -25.6664  -21.3598   28.2335 O   0  0  0  0  0  0  0  0  0  0  0  0
  -31.8556  -14.7893   20.3460 O   0  0  0  0  0  0  0  0  0  0  0  0
  -21.3912   -7.2884   22.3950 O   0  0  0  0  0  0  0  0  0  0  0  0
  -28.1340  -20.7178   21.9208 O   0  0  0  0  0  0  0  0  0  1  0  0
  -23.4761   -3.8834   26.1980 F   0  0  0  0  0  0  0  0  0  0  0  0
  -20.1062   -6.9049   24.8125 F   0  0  0  0  0  0  0  0  0  0  0  0
  1  2  1  0  0  0  0
  1  5  2  0  0  0  0
  2  6  2  0  0  0  0
  3  8  2  0  0  0  0
  3 16  1  0  0  0  0
  4  9  1  0  0  0  0
  4 16  2  0  0  0  0
  5 18  1  0  0  0  0
  6 20  1  0  0  0  0
  7 10  2  0  0  0  0
  7 19  1  0  0  0  0
  8 24  1  0  0  0  0
  9 24  2  0  0  0  0
 10 25  1  0  0  0  0
 11 12  2  0  0  0  0
 11 26  1  0  0  0  0
 12 27  1  0  0  0  0
 13 21  1  0  0  0  0
 13 25  2  0  0  0  0
 14 22  2  0  0  0  0
 14 31  1  0  0  0  0
 15 27  2  0  0  0  0
 15 28  1  0  0  0  0
 16 29  1  0  0  0  0
 17 29  1  0  0  0  0
 17 32  2  0  0  0  0
 17 33  1  0  0  0  0
 18 20  2  0  0  0  0
 18 38  1  0  0  0  0
 19 21  2  0  0  0  0
 19 39  1  0  0  0  0
 20 49  1  0  0  0  0
 21 40  1  0  0  0  0
 22 23  1  0  0  0  0
 22 60  1  0  0  0  0
 23 30  2  0  0  0  0
 23 59  1  0  0  0  0
 24 80  1  0  0  0  0
 25 81  1  0  0  0  0
 26 28  2  0  0  0  0
 26 80  1  0  0  0  0
 27 82  1  0  0  0  0
 28 83  1  0  0  0  0
 29 64  2  0  0  0  0
 30 50  1  0  0  0  0
 30 65  1  0  0  0  0
 31 65  2  0  0  0  0
 31 71  1  0  0  0  0
 32 66  1  0  0  0  0
 32 69  1  0  0  0  0
 33 70  1  0  0  0  0
 33 75  2  0  0  0  0
 34 51  1  0  0  0  0
 34 72  1  0  0  0  0
 34 76  2  0  0  0  0
 35 61  1  0  0  0  0
 35 67  1  0  0  0  0
 35 77  2  0  0  0  0
 36 62  1  0  0  0  0
 36 73  1  0  0  0  0
 36 78  2  0  0  0  0
 37 68  1  0  0  0  0
 37 71  1  0  0  0  0
 37 79  2  0  0  0  0
 38 41  1  0  0  0  0
 39 51  1  0  0  0  0
 40 67  1  0  0  0  0
 41 43  1  0  0  0  0
 42 46  1  0  0  0  0
 42 47  1  0  0  0  0
 43 49  1  0  0  0  0
 44 45  1  0  0  0  0
 44 50  1  0  0  0  0
 45 50  1  0  0  0  0
 46 52  1  0  0  0  0
 47 68  1  0  0  0  0
 48 52  1  0  0  0  0
 48 68  1  0  0  0  0
 49 72  1  0  0  0  0
 51 67  1  0  0  0  0
 52 66  1  0  0  0  0
 53 59  1  0  0  0  0
 54 62  1  0  0  0  0
 55 63  1  0  0  0  0
 56 63  1  0  0  0  0
 57 63  1  0  0  0  0
 58 74  1  0  0  0  0
 60 81  1  0  0  0  0
 61 63  1  0  0  0  0
 61 73  1  0  0  0  0
 62 74  1  0  0  0  0
 64 66  1  0  0  0  0
M  CHG  1  74   1
M  ISO  4  37 100  60 101  71 100  81 101
M  END
> <Batch ID>
0181

> <Smiles>
CCc1c([101CH2:1][101O:1]c2ccc3c(c2)CN(C(=O)C(NC(=O)C(C)NC)C(C)(C)C)C(C(=O)NC2CCCc4ccccc42)C3)cc([100NH:0][100C:0](=O)N2CCCC(n3nc(-c4ccc(Oc5ccc(F)cc5F)cc4)c(C(N)=O)c3N)C2)nc1C1CC1

> <Shape>
0.231

> <Color>
0.179

> <Negative vol penalty>
0.000

$$$$

  -OEChem-04052323023D

 84 93  0     1  0  0  0  0  0999 V2000
  -31.9604  -12.9981   21.1404 C   0  0  0  0  0  0  0  0  0  0  0  0
  -31.4991  -14.2975   21.3253 C   0  0  0  0  0  0  0  0  0  0  0  0
  -24.1669  -32.0493   23.8774 C   0  0  0  0  0  0  0  0  0  0  0  0
  -24.4208  -31.7899   21.4888 C   0  0  0  0  0  0  0  0  0  0  0  0
  -31.1803  -12.0749   20.4455 C   0  0  0  0  0  0  0  0  0  0  0  0
  -30.2577  -14.6748   20.8144 C   0  0  0  0  0  0  0  0  0  0  0  0
  -27.5249  -17.3541   24.1308 C   0  0  0  0  0  0  0  0  0  0  0  0
  -25.1127  -33.0744   23.8667 C   0  0  0  0  0  0  0  0  0  0  0  0
  -25.3667  -32.8151   21.4781 C   0  0  0  0  0  0  0  0  0  0  0  0
  -27.8588  -18.6981   24.2923 C   0  0  0  0  0  0  0  0  0  0  0  0
  -25.2180  -36.3583   23.0682 C   0  0  0  0  0  0  0  0  0  0  0  0
  -24.9295  -37.5140   23.7939 C   0  0  0  0  0  0  0  0  0  0  0  0
  -27.7762  -23.3442   21.4511 C   0  0  0  0  0  0  0  0  0  0  0  0
  -26.0307  -19.3198   22.8463 C   0  0  0  0  0  0  0  0  0  0  0  0
  -26.9052  -37.1623   25.1393 C   0  0  0  0  0  0  0  0  0  0  0  0
  -23.8210  -31.4070   22.6884 C   0  0  0  0  0  0  0  0  0  0  0  0
  -21.4517  -30.4736   22.5370 C   0  0  0  0  0  0  0  0  0  0  0  0
  -29.9244  -12.4383   19.9342 C   0  0  0  0  0  0  0  0  0  0  0  0
  -26.4464  -16.9817   23.3157 C   0  0  0  0  0  0  0  0  0  0  0  0
  -29.4606  -13.7559   20.1109 C   0  0  0  0  0  0  0  0  0  0  0  0
  -27.5561  -23.3859   20.0788 C   0  0  0  0  0  0  0  0  0  0  0  0
  -25.6837  -17.9705   22.6781 C   0  0  0  0  0  0  0  0  0  0  0  0
  -28.9095  -22.7106   21.9488 C   0  0  0  0  0  0  0  0  0  0  0  0
  -25.7126  -33.4573   22.6670 C   0  0  0  0  0  0  0  0  0  0  0  0
  -27.1134  -19.6810   23.6477 C   0  0  0  0  0  0  0  0  0  0  0  0
  -26.3500  -35.6045   23.3781 C   0  0  0  0  0  0  0  0  0  0  0  0
  -25.7732  -37.9161   24.8294 C   0  0  0  0  0  0  0  0  0  0  0  0
  -27.1936  -36.0065   24.4136 C   0  0  0  0  0  0  0  0  0  0  0  0
  -22.8444  -30.3476   22.6989 C   0  0  0  0  0  0  0  0  0  0  0  0
  -28.4920  -22.7840   19.2532 C   0  0  0  0  0  0  0  0  0  0  0  0
  -29.7847  -22.1387   21.0395 C   0  0  0  0  0  0  0  0  0  0  0  0
  -20.9779  -29.1875   22.6254 C   0  0  0  0  0  0  0  0  0  0  0  0
  -20.6572  -31.6483   22.3255 C   0  0  0  0  0  0  0  0  0  0  0  0
  -26.1284  -15.2523   20.6676 C   0  0  0  0  0  0  0  0  0  0  0  0
  -22.9642  -15.7171   21.2102 C   0  0  0  0  0  0  0  0  0  0  0  0
  -20.5193  -17.6160   22.6467 C   0  0  0  0  0  0  0  0  0  0  0  0
  -23.6833  -23.8553   21.6534 C   0  0  0  0  0  0  0  0  0  0  0  0
  -29.1377  -11.4190   19.1489 C   0  0  0  0  0  0  0  0  0  0  0  0
  -26.0827  -15.5291   23.1731 C   0  0  0  0  0  0  0  0  0  0  0  0
  -24.5038  -17.6242   21.8084 C   0  0  0  0  0  0  0  0  0  0  0  0
  -27.6695  -11.7936   18.9637 C   0  0  0  0  0  0  0  0  0  0  0  0
  -21.9353  -24.9566   24.5912 C   0  0  0  0  0  0  0  0  0  0  0  0
  -27.5409  -13.2498   18.5283 C   0  0  0  0  0  0  0  0  0  0  0  0
  -21.8912  -26.4752   24.4565 C   0  0  0  0  0  0  0  0  0  0  0  0
  -23.2304  -24.3972   24.0179 C   0  0  0  0  0  0  0  0  0  0  0  0
  -24.9137  -23.3421   19.4807 C   0  0  0  0  0  0  0  0  0  0  0  0
  -25.5384  -25.1723   20.3673 C   0  0  0  0  0  0  0  0  0  0  0  0
  -23.3878  -26.2768   22.4067 C   0  0  0  0  0  0  0  0  0  0  0  0
  -26.2565  -24.1105   19.4974 C   0  0  0  0  0  0  0  0  0  0  0  0
  -28.1084  -14.1962   19.5931 C   0  0  1  0  0  0  0  0  0  0  0  0
  -25.2814  -15.2352   21.9086 C   0  0  1  0  0  0  0  0  0  0  0  0
  -22.1012  -26.8912   22.9935 C   0  0  2  0  0  0  0  0  0  0  0  0
  -28.3050  -22.7996   17.7717 C   0  0  0  0  0  0  0  0  0  0  0  0
  -31.0185  -21.4450   21.5171 C   0  0  0  0  0  0  0  0  0  0  0  0
  -18.0256  -17.7659   22.8841 C   0  0  0  0  0  0  0  0  0  0  0  0
  -22.7588  -16.7791   18.3571 C   0  0  0  0  0  0  0  0  0  0  0  0
  -20.5406  -17.7710   18.9603 C   0  0  0  0  0  0  0  0  0  0  0  0
  -20.8680  -15.3000   19.0584 C   0  0  0  0  0  0  0  0  0  0  0  0
  -20.6668  -17.3424   25.5898 C   0  0  0  0  0  0  0  0  0  0  0  0
  -29.1504  -22.6615   23.4180 C   0  0  0  0  0  0  0  0  0  0  0  0
  -28.8106  -21.3011   24.0362 C   0  0  0  0  0  0  0  0  0  1  0  0
  -21.9535  -16.7647   20.8101 C   0  0  1  0  0  0  0  0  0  0  0  0
  -19.3160  -17.2379   23.4914 C   0  0  2  0  0  0  0  0  0  0  0  0
  -21.5536  -16.6605   19.3113 C   0  0  0  0  0  0  0  0  0  0  0  0
  -23.2303  -29.0814   22.8769 N   0  0  0  0  0  0  0  0  0  0  0  0
  -29.6045  -22.1592   19.6998 N   0  0  0  0  0  0  0  0  0  0  0  0
  -22.0730  -28.4000   22.8274 N   0  0  0  0  0  0  0  0  0  0  0  0
  -24.1918  -16.1899   21.6952 N   0  0  0  0  0  0  0  0  0  0  0  0
  -23.4505  -24.8263   22.6336 N   0  0  0  0  0  0  0  0  0  0  0  0
  -24.4999  -24.1834   20.5951 N   0  0  0  0  0  0  0  0  0  0  0  0
  -19.7357  -28.6647   22.5494 N   0  0  0  0  0  0  0  0  0  0  0  0
  -21.3044  -32.8898   22.2602 N   0  0  0  0  0  0  0  0  0  0  0  0
  -27.1720  -14.3468   20.6862 N   0  0  0  0  0  0  0  0  0  0  0  0
  -20.8356  -16.6286   21.7377 N   0  0  0  0  0  0  0  0  0  0  0  0
  -19.4518  -17.7974   24.8660 N   0  3  0  0  0  0  0  0  0  0  0  0
  -19.4087  -31.6002   22.2145 O   0  0  0  0  0  0  0  0  0  0  0  0
  -25.8544  -16.0286   19.7599 O   0  0  0  0  0  0  0  0  0  0  0  0
  -22.6725  -14.5233   21.1032 O   0  0  0  0  0  0  0  0  0  0  0  0
  -21.1164  -18.6822   22.7773 O   0  0  0  0  0  0  0  0  0  0  0  0
  -23.2025  -22.7172   21.7343 O   0  0  0  0  0  0  0  0  0  0  0  0
  -26.6354  -34.4577   22.6562 O   0  0  0  0  0  0  0  0  0  0  0  0
  -27.4398  -21.0027   23.8042 O   0  0  0  0  0  0  0  0  0  1  0  0
  -25.4969  -39.0268   25.5252 F   0  0  0  0  0  0  0  0  0  0  0  0
  -28.2833  -35.2871   24.7151 F   0  0  0  0  0  0  0  0  0  0  0  0
  1  2  1  0  0  0  0
  1  5  2  0  0  0  0
  2  6  2  0  0  0  0
  3  8  2  0  0  0  0
  3 16  1  0  0  0  0
  4  9  1  0  0  0  0
  4 16  2  0  0  0  0
  5 18  1  0  0  0  0
  6 20  1  0  0  0  0
  7 10  2  0  0  0  0
  7 19  1  0  0  0  0
  8 24  1  0  0  0  0
  9 24  2  0  0  0  0
 10 25  1  0  0  0  0
 11 12  2  0  0  0  0
 11 26  1  0  0  0  0
 12 27  1  0  0  0  0
 13 21  2  0  0  0  0
 13 23  1  0  0  0  0
 14 22  1  0  0  0  0
 14 25  2  0  0  0  0
 15 27  2  0  0  0  0
 15 28  1  0  0  0  0
 16 29  1  0  0  0  0
 17 29  1  0  0  0  0
 17 32  2  0  0  0  0
 17 33  1  0  0  0  0
 18 20  2  0  0  0  0
 18 38  1  0  0  0  0
 19 22  2  0  0  0  0
 19 39  1  0  0  0  0
 20 50  1  0  0  0  0
 21 30  1  0  0  0  0
 21 49  1  0  0  0  0
 22 40  1  0  0  0  0
 23 31  2  0  0  0  0
 23 60  1  0  0  0  0
 24 81  1  0  0  0  0
 25 82  1  0  0  0  0
 26 28  2  0  0  0  0
 26 81  1  0  0  0  0
 27 83  1  0  0  0  0
 28 84  1  0  0  0  0
 29 65  2  0  0  0  0
 30 53  1  0  0  0  0
 30 66  2  0  0  0  0
 31 54  1  0  0  0  0
 31 66  1  0  0  0  0
 32 67  1  0  0  0  0
 32 71  1  0  0  0  0
 33 72  1  0  0  0  0
 33 76  2  0  0  0  0
 34 51  1  0  0  0  0
 34 73  1  0  0  0  0
 34 77  2  0  0  0  0
 35 62  1  0  0  0  0
 35 68  1  0  0  0  0
 35 78  2  0  0  0  0
 36 63  1  0  0  0  0
 36 74  1  0  0  0  0
 36 79  2  0  0  0  0
 37 69  1  0  0  0  0
 37 70  1  0  0  0  0
 37 80  2  0  0  0  0
 38 41  1  0  0  0  0
 39 51  1  0  0  0  0
 40 68  1  0  0  0  0
 41 43  1  0  0  0  0
 42 44  1  0  0  0  0
 42 45  1  0  0  0  0
 43 50  1  0  0  0  0
 44 52  1  0  0  0  0
 45 69  1  0  0  0  0
 46 49  1  0  0  0  0
 46 70  1  0  0  0  0
 47 49  1  0  0  0  0
 47 70  1  0  0  0  0
 48 52  1  0  0  0  0
 48 69  1  0  0  0  0
 50 73  1  0  0  0  0
 51 68  1  0  0  0  0
 52 67  1  0  0  0  0
 55 63  1  0  0  0  0
 56 64  1  0  0  0  0
 57 64  1  0  0  0  0
 58 64  1  0  0  0  0
 59 75  1  0  0  0  0
 60 61  1  0  0  0  0
 61 82  1  0  0  0  0
 62 64  1  0  0  0  0
 62 74  1  0  0  0  0
 63 75  1  0  0  0  0
 65 67  1  0  0  0  0
M  CHG  1  75   1
M  ISO  4  37 100  61 101  70 100  82 101
M  END
> <Batch ID>
0181

> <Smiles>
CNC(C)C(=O)NC(C(=O)N1Cc2cc([101O:1][101CH2:1]Cc3cc(C4C[100N:0]([100C:0](=O)N5CCCC(n6nc(-c7ccc(Oc8ccc(F)cc8F)cc7)c(C(N)=O)c6N)C5)C4)c(C)nc3C)ccc2CC1C(=O)NC1CCCc2ccccc21)C(C)(C)C

> <Shape>
0.211

> <Color>
0.071

> <Negative vol penalty>
0.000

$$$$

  -OEChem-04052323023D

 85 95  0     1  0  0  0  0  0999 V2000
  -20.0918  -32.7168   15.3456 C   0  0  0  0  0  0  0  0  0  0  0  0
  -21.0911  -31.7565   15.4667 C   0  0  0  0  0  0  0  0  0  0  0  0
  -22.7545  -11.9913   21.4438 C   0  0  0  0  0  0  0  0  0  0  0  0
  -23.7101   -9.7977   21.7783 C   0  0  0  0  0  0  0  0  0  0  0  0
  -20.1090  -33.8461   16.1632 C   0  0  0  0  0  0  0  0  0  0  0  0
  -22.1090  -31.9256   16.4047 C   0  0  0  0  0  0  0  0  0  0  0  0
  -24.9244  -27.5345   19.6138 C   0  0  0  0  0  0  0  0  0  0  0  0
  -21.4864  -11.4217   21.3302 C   0  0  0  0  0  0  0  0  0  0  0  0
  -22.4419   -9.2280   21.6648 C   0  0  0  0  0  0  0  0  0  0  0  0
  -26.1397  -26.8750   19.4352 C   0  0  0  0  0  0  0  0  0  0  0  0
  -19.7101   -8.8260   23.6132 C   0  0  0  0  0  0  0  0  0  0  0  0
  -19.3536   -7.8509   24.5447 C   0  0  0  0  0  0  0  0  0  0  0  0
  -29.8058  -21.5030   21.6461 C   0  0  0  0  0  0  0  0  0  0  0  0
  -27.1932  -28.4152   20.9640 C   0  0  0  0  0  0  0  0  0  0  0  0
  -19.0525   -6.2535   22.7573 C   0  0  0  0  0  0  0  0  0  0  0  0
  -29.8680  -21.0248   19.2809 C   0  0  0  0  0  0  0  0  0  0  0  0
  -23.8664  -11.1793   21.6678 C   0  0  0  0  0  0  0  0  0  0  0  0
  -25.8037  -12.2194   22.9612 C   0  0  0  0  0  0  0  0  0  0  0  0
  -21.1222  -34.0243   17.1183 C   0  0  0  0  0  0  0  0  0  0  0  0
  -24.8367  -28.6479   20.4618 C   0  0  0  0  0  0  0  0  0  0  0  0
  -22.1405  -33.0589   17.2349 C   0  0  0  0  0  0  0  0  0  0  0  0
  -29.8723  -20.5690   20.6084 C   0  0  0  0  0  0  0  0  0  0  0  0
  -29.7391  -22.8214   21.2872 C   0  0  0  0  0  0  0  0  0  0  0  0
  -25.9751  -29.0855   21.1536 C   0  0  0  0  0  0  0  0  0  0  0  0
  -21.3301  -10.0400   21.4407 C   0  0  0  0  0  0  0  0  0  0  0  0
  -27.2750  -27.3171   20.1081 C   0  0  0  0  0  0  0  0  0  0  0  0
  -19.7378   -8.5148   22.2537 C   0  0  0  0  0  0  0  0  0  0  0  0
  -19.0248   -6.5647   24.1167 C   0  0  0  0  0  0  0  0  0  0  0  0
  -19.4091   -7.2286   21.8258 C   0  0  0  0  0  0  0  0  0  0  0  0
  -25.1767  -11.7672   21.7847 C   0  0  0  0  0  0  0  0  0  0  0  0
  -29.7387  -23.1444   19.9646 C   0  0  0  0  0  0  0  0  0  0  0  0
  -27.0252  -12.6866   22.5415 C   0  0  0  0  0  0  0  0  0  0  0  0
  -25.3247  -12.2174   24.3126 C   0  0  0  0  0  0  0  0  0  0  0  0
  -24.0906  -31.7128   20.0700 C   0  0  0  0  0  0  0  0  0  0  0  0
  -24.3190  -31.7793   23.3051 C   0  0  0  0  0  0  0  0  0  0  0  0
  -25.6058  -30.3971   26.1477 C   0  0  0  0  0  0  0  0  0  0  0  0
  -30.2457  -15.4343   19.0631 C   0  0  0  0  0  0  0  0  0  0  0  0
  -21.1251  -35.2844   17.9470 C   0  0  0  0  0  0  0  0  0  0  0  0
  -23.5125  -29.3320   20.6644 C   0  0  0  0  0  0  0  0  0  0  0  0
  -29.6531  -24.2521   21.7285 C   0  0  0  0  0  0  0  0  0  0  0  0
  -25.9294  -30.2635   22.0910 C   0  0  0  0  0  0  0  0  0  0  0  0
  -22.0307  -35.2049   19.1734 C   0  0  0  0  0  0  0  0  0  0  0  0
  -29.3883  -12.2268   18.1013 C   0  0  0  0  0  0  0  0  0  0  0  0
  -23.3895  -34.6230   18.7967 C   0  0  0  0  0  0  0  0  0  0  0  0
  -28.2663  -11.8457   19.0667 C   0  0  0  0  0  0  0  0  0  0  0  0
  -28.7293  -18.3208   20.3617 C   0  0  0  0  0  0  0  0  0  0  0  0
  -31.2571  -18.4567   20.3995 C   0  0  0  0  0  0  0  0  0  0  0  0
  -29.2440  -13.6726   17.6405 C   0  0  0  0  0  0  0  0  0  0  0  0
  -28.8278  -16.8186   20.6423 C   0  0  0  0  0  0  0  0  0  0  0  0
  -31.2952  -16.9620   20.7043 C   0  0  0  0  0  0  0  0  0  0  0  0
  -28.0828  -14.2934   19.7344 C   0  0  0  0  0  0  0  0  0  0  0  0
  -29.9477  -19.0843   20.9111 C   0  0  0  0  0  0  0  0  0  0  0  0
  -23.2477  -33.1945   18.2576 C   0  0  1  0  0  0  0  0  0  0  0  0
  -29.6681  -24.6218   20.1877 C   0  0  2  0  0  0  0  0  0  0  0  0
  -23.6516  -30.7700   21.1544 C   0  0  1  0  0  0  0  0  0  0  0  0
  -28.1839  -12.8395   20.2389 C   0  0  1  0  0  0  0  0  0  0  0  0
  -25.6456  -30.6943   28.6392 C   0  0  0  0  0  0  0  0  0  0  0  0
  -26.2727  -34.1023   22.9944 C   0  0  0  0  0  0  0  0  0  0  0  0
  -26.9859  -33.7283   25.3650 C   0  0  0  0  0  0  0  0  0  0  0  0
  -24.6276  -34.3651   24.8596 C   0  0  0  0  0  0  0  0  0  0  0  0
  -24.3643  -27.7489   26.5998 C   0  0  0  0  0  0  0  0  0  0  0  0
  -28.4145  -25.2821   19.6430 C   0  0  0  0  0  0  0  0  0  1  0  0
  -25.4310  -32.0357   24.2933 C   0  0  1  0  0  0  0  0  0  0  0  0
  -24.9562  -30.0157   27.4656 C   0  0  2  0  0  0  0  0  0  0  0  0
  -25.8309  -33.5368   24.3590 C   0  0  0  0  0  0  0  0  0  0  0  0
  -29.8030  -22.3287   18.9157 N   0  0  0  0  0  0  0  0  0  0  0  0
  -25.9370  -11.9323   20.6990 N   0  0  0  0  0  0  0  0  0  0  0  0
  -27.0543  -12.4936   21.1917 N   0  0  0  0  0  0  0  0  0  0  0  0
  -24.6130  -30.9029   22.2509 N   0  0  0  0  0  0  0  0  0  0  0  0
  -29.1656  -14.5842   18.7818 N   0  0  0  0  0  0  0  0  0  0  0  0
  -30.1133  -16.2855   20.1705 N   0  0  0  0  0  0  0  0  0  0  0  0
  -28.0664  -13.2396   23.1991 N   0  0  0  0  0  0  0  0  0  0  0  0
  -24.0472  -11.7006   24.5679 N   0  0  0  0  0  0  0  0  0  0  0  0
  -23.0494  -32.2610   19.3456 N   0  0  0  0  0  0  0  0  0  0  0  0
  -24.9825  -31.4806   25.5657 N   0  0  0  0  0  0  0  0  0  0  0  0
  -25.0245  -28.5410   27.6692 N   0  3  0  0  0  0  0  0  0  0  0  0
  -26.0029  -12.6757   25.2632 O   0  0  0  0  0  0  0  0  0  0  0  0
  -25.2855  -31.9282   19.9039 O   0  0  0  0  0  0  0  0  0  0  0  0
  -23.2273  -32.3305   23.4667 O   0  0  0  0  0  0  0  0  0  0  0  0
  -26.5721  -29.7965   25.6829 O   0  0  0  0  0  0  0  0  0  0  0  0
  -31.2687  -15.4329   18.3669 O   0  0  0  0  0  0  0  0  0  0  0  0
  -20.0927   -9.4838   21.3302 O   0  0  0  0  0  0  0  0  0  0  0  0
  -28.4718  -26.6706   19.9337 O   0  0  0  0  0  0  0  0  0  1  0  0
  -18.6839   -5.6280   25.0115 F   0  0  0  0  0  0  0  0  0  0  0  0
  -19.4350   -6.9234   20.5212 F   0  0  0  0  0  0  0  0  0  0  0  0
  1  2  1  0  0  0  0
  1  5  2  0  0  0  0
  2  6  2  0  0  0  0
  3  8  2  0  0  0  0
  3 17  1  0  0  0  0
  4  9  1  0  0  0  0
  4 17  2  0  0  0  0
  5 19  1  0  0  0  0
  6 21  1  0  0  0  0
  7 10  2  0  0  0  0
  7 20  1  0  0  0  0
  8 25  1  0  0  0  0
  9 25  2  0  0  0  0
 10 26  1  0  0  0  0
 11 12  2  0  0  0  0
 11 27  1  0  0  0  0
 12 28  1  0  0  0  0
 13 22  2  0  0  0  0
 13 23  1  0  0  0  0
 14 24  1  0  0  0  0
 14 26  2  0  0  0  0
 15 28  2  0  0  0  0
 15 29  1  0  0  0  0
 16 22  1  0  0  0  0
 16 66  2  0  0  0  0
 17 30  1  0  0  0  0
 18 30  1  0  0  0  0
 18 32  2  0  0  0  0
 18 33  1  0  0  0  0
 19 21  2  0  0  0  0
 19 38  1  0  0  0  0
 20 24  2  0  0  0  0
 20 39  1  0  0  0  0
 21 53  1  0  0  0  0
 22 52  1  0  0  0  0
 23 31  2  0  0  0  0
 23 40  1  0  0  0  0
 24 41  1  0  0  0  0
 25 82  1  0  0  0  0
 26 83  1  0  0  0  0
 27 29  2  0  0  0  0
 27 82  1  0  0  0  0
 28 84  1  0  0  0  0
 29 85  1  0  0  0  0
 30 67  2  0  0  0  0
 31 54  1  0  0  0  0
 31 66  1  0  0  0  0
 32 68  1  0  0  0  0
 32 72  1  0  0  0  0
 33 73  1  0  0  0  0
 33 77  2  0  0  0  0
 34 55  1  0  0  0  0
 34 74  1  0  0  0  0
 34 78  2  0  0  0  0
 35 63  1  0  0  0  0
 35 69  1  0  0  0  0
 35 79  2  0  0  0  0
 36 64  1  0  0  0  0
 36 75  1  0  0  0  0
 36 80  2  0  0  0  0
 37 70  1  0  0  0  0
 37 71  1  0  0  0  0
 37 81  2  0  0  0  0
 38 42  1  0  0  0  0
 39 55  1  0  0  0  0
 40 54  1  0  0  0  0
 41 69  1  0  0  0  0
 42 44  1  0  0  0  0
 43 45  1  0  0  0  0
 43 48  1  0  0  0  0
 44 53  1  0  0  0  0
 45 56  1  0  0  0  0
 46 49  1  0  0  0  0
 46 52  1  0  0  0  0
 47 50  1  0  0  0  0
 47 52  1  0  0  0  0
 48 70  1  0  0  0  0
 49 71  1  0  0  0  0
 50 71  1  0  0  0  0
 51 56  1  0  0  0  0
 51 70  1  0  0  0  0
 53 74  1  0  0  0  0
 54 62  1  0  0  0  0
 55 69  1  0  0  0  0
 56 68  1  0  0  0  0
 57 64  1  0  0  0  0
 58 65  1  0  0  0  0
 59 65  1  0  0  0  0
 60 65  1  0  0  0  0
 61 76  1  0  0  0  0
 62 83  1  0  0  0  0
 63 65  1  0  0  0  0
 63 75  1  0  0  0  0
 64 76  1  0  0  0  0
 67 68  1  0  0  0  0
M  CHG  1  76   1
M  ISO  4  37 100  62 101  71 100  83 101
M  END
> <Batch ID>
0181

> <Smiles>
CNC(C)C(=O)NC(C(=O)N1Cc2cc([101O:1][101CH2:1]C3Cc4cc(C5CC[100N:0]([100C:0](=O)N6CCCC(n7nc(-c8ccc(Oc9ccc(F)cc9F)cc8)c(C(N)=O)c7N)C6)CC5)cnc43)ccc2CC1C(=O)NC1CCCc2ccccc21)C(C)(C)C

> <Shape>
0.283

> <Color>
0.108

> <Negative vol penalty>
0.000

$$$$

  -OEChem-04052323023D

 76 84  0     1  0  0  0  0  0999 V2000
  -29.0762  -30.3164   20.7834 C   0  0  0  0  0  0  0  0  0  0  0  0
  -29.1879  -28.9397   20.9502 C   0  0  0  0  0  0  0  0  0  0  0  0
  -22.7542  -15.2346   20.3735 C   0  0  0  0  0  0  0  0  0  0  0  0
  -22.4235  -13.4129   18.8214 C   0  0  0  0  0  0  0  0  0  0  0  0
  -27.8196  -30.8979   20.6203 C   0  0  0  0  0  0  0  0  0  0  0  0
  -28.0428  -28.1440   20.9552 C   0  0  0  0  0  0  0  0  0  0  0  0
  -28.5743  -23.9574   18.1561 C   0  0  0  0  0  0  0  0  0  0  0  0
  -21.6284  -15.8775   19.8588 C   0  0  0  0  0  0  0  0  0  0  0  0
  -21.2977  -14.0558   18.3067 C   0  0  0  0  0  0  0  0  0  0  0  0
  -29.2989  -22.9056   18.7150 C   0  0  0  0  0  0  0  0  0  0  0  0
  -18.2689  -15.6384   20.1577 C   0  0  0  0  0  0  0  0  0  0  0  0
  -17.3626  -16.1851   21.0662 C   0  0  0  0  0  0  0  0  0  0  0  0
  -27.2350  -21.8043   19.3036 C   0  0  0  0  0  0  0  0  0  0  0  0
  -17.7233  -18.3738   20.1089 C   0  0  0  0  0  0  0  0  0  0  0  0
  -23.1518  -14.0023   19.8548 C   0  0  0  0  0  0  0  0  0  0  0  0
  -24.3571  -12.4208   21.4528 C   0  0  0  0  0  0  0  0  0  0  0  0
  -26.6593  -30.1078   20.6136 C   0  0  0  0  0  0  0  0  0  0  0  0
  -27.1722  -23.9458   18.1765 C   0  0  0  0  0  0  0  0  0  0  0  0
  -26.7694  -28.7157   20.7932 C   0  0  0  0  0  0  0  0  0  0  0  0
  -26.4949  -22.8560   18.7420 C   0  0  0  0  0  0  0  0  0  0  0  0
  -20.9002  -15.2881   18.8254 C   0  0  0  0  0  0  0  0  0  0  0  0
  -28.6293  -21.8302   19.2914 C   0  0  0  0  0  0  0  0  0  0  0  0
  -18.9025  -16.4594   19.2249 C   0  0  0  0  0  0  0  0  0  0  0  0
  -17.0897  -17.5528   21.0418 C   0  0  0  0  0  0  0  0  0  0  0  0
  -18.6296  -17.8271   19.2005 C   0  0  0  0  0  0  0  0  0  0  0  0
  -24.3150  -13.3380   20.3856 C   0  0  0  0  0  0  0  0  0  0  0  0
  -25.6841  -12.0842   21.5639 C   0  0  0  0  0  0  0  0  0  0  0  0
  -23.2921  -11.9181   22.2704 C   0  0  0  0  0  0  0  0  0  0  0  0
  -24.9321  -25.8009   19.4587 C   0  0  0  0  0  0  0  0  0  0  0  0
  -22.9287  -23.8650   17.7970 C   0  0  0  0  0  0  0  0  0  0  0  0
  -22.3911  -20.8373   16.3168 C   0  0  0  0  0  0  0  0  0  0  0  0
  -30.7236  -14.9096   20.0106 C   0  0  0  0  0  0  0  0  0  0  0  0
  -25.3192  -30.7871   20.4813 C   0  0  0  0  0  0  0  0  0  0  0  0
  -26.4051  -25.0753   17.5456 C   0  0  0  0  0  0  0  0  0  0  0  0
  -24.9906  -22.7858   18.7713 C   0  0  0  0  0  0  0  0  0  0  0  0
  -24.1844  -29.8309   20.1233 C   0  0  0  0  0  0  0  0  0  0  0  0
  -29.6873  -11.6853   19.0069 C   0  0  0  0  0  0  0  0  0  0  0  0
  -24.2423  -28.5825   20.9979 C   0  0  0  0  0  0  0  0  0  0  0  0
  -28.1917  -11.6591   19.3096 C   0  0  0  0  0  0  0  0  0  0  0  0
  -30.7952  -18.4994   20.9086 C   0  0  0  0  0  0  0  0  0  0  0  0
  -30.1119  -13.0561   18.4974 C   0  0  0  0  0  0  0  0  0  0  0  0
  -31.4388  -17.1224   20.8604 C   0  0  0  0  0  0  0  0  0  0  0  0
  -29.2882  -17.0266   19.7995 C   0  0  0  0  0  0  0  0  0  0  0  0
  -28.3045  -14.1594   19.7880 C   0  0  0  0  0  0  0  0  0  0  0  0
  -25.5525  -27.8162   20.7794 C   0  0  1  0  0  0  0  0  0  0  0  0
  -24.9823  -25.2036   18.0808 C   0  0  1  0  0  0  0  0  0  0  0  0
  -29.8226  -18.4571   19.7294 C   0  0  1  0  0  0  0  0  0  0  0  0
  -27.8174  -12.7835   20.2877 C   0  0  1  0  0  0  0  0  0  0  0  0
  -20.6434  -19.5355   15.0725 C   0  0  0  0  0  0  0  0  0  0  0  0
  -21.4364  -23.3730   20.4125 C   0  0  0  0  0  0  0  0  0  0  0  0
  -20.3450  -21.3933   19.3365 C   0  0  0  0  0  0  0  0  0  0  0  0
  -19.9650  -23.6795   18.4136 C   0  0  0  0  0  0  0  0  0  0  0  0
  -24.1099  -20.5984   13.9194 C   0  0  0  0  0  0  0  0  0  0  0  0
  -28.7340  -19.5121   19.8124 C   0  0  0  0  0  0  0  0  0  1  0  0
  -22.2119  -22.5680   18.0851 C   0  0  1  0  0  0  0  0  0  0  0  0
  -21.8393  -20.4671   14.9519 C   0  0  2  0  0  0  0  0  0  0  0  0
  -21.0180  -22.7554   19.0633 C   0  0  0  0  0  0  0  0  0  0  0  0
  -25.5194  -13.5694   19.8567 N   0  0  0  0  0  0  0  0  0  0  0  0
  -26.3309  -12.7928   20.5946 N   0  0  0  0  0  0  0  0  0  0  0  0
  -24.2853  -23.9175   18.1473 N   0  0  0  0  0  0  0  0  0  0  0  0
  -29.7266  -14.1234   19.4225 N   0  0  0  0  0  0  0  0  0  0  0  0
  -30.4230  -16.2417   20.2920 N   0  0  0  0  0  0  0  0  0  0  0  0
  -26.3490  -11.2541   22.3954 N   0  0  0  0  0  0  0  0  0  0  0  0
  -21.9885  -12.3683   22.0208 N   0  0  0  0  0  0  0  0  0  0  0  0
  -25.4959  -27.0593   19.5472 N   0  0  0  0  0  0  0  0  0  0  0  0
  -21.8409  -22.0100   16.7892 N   0  0  0  0  0  0  0  0  0  0  0  0
  -22.8853  -19.7861   14.1377 N   0  3  0  0  0  0  0  0  0  0  0  0
  -23.4927  -11.1065   23.2056 O   0  0  0  0  0  0  0  0  0  0  0  0
  -24.4184  -25.1676   20.3734 O   0  0  0  0  0  0  0  0  0  0  0  0
  -22.3097  -24.7947   17.2735 O   0  0  0  0  0  0  0  0  0  0  0  0
  -23.2239  -20.1525   16.9067 O   0  0  0  0  0  0  0  0  0  0  0  0
  -31.8523  -14.4529   20.2369 O   0  0  0  0  0  0  0  0  0  0  0  0
  -19.8014  -15.9151   18.3231 O   0  0  0  0  0  0  0  0  0  0  0  0
  -29.3400  -20.7941   19.8427 O   0  0  0  0  0  0  0  0  0  1  0  0
  -16.2182  -18.0774   21.9132 F   0  0  0  0  0  0  0  0  0  0  0  0
  -19.2343  -18.6207   18.3058 F   0  0  0  0  0  0  0  0  0  0  0  0
  1  2  1  0  0  0  0
  1  5  2  0  0  0  0
  2  6  2  0  0  0  0
  3  8  2  0  0  0  0
  3 15  1  0  0  0  0
  4  9  1  0  0  0  0
  4 15  2  0  0  0  0
  5 17  1  0  0  0  0
  6 19  1  0  0  0  0
  7 10  2  0  0  0  0
  7 18  1  0  0  0  0
  8 21  1  0  0  0  0
  9 21  2  0  0  0  0
 10 22  1  0  0  0  0
 11 12  2  0  0  0  0
 11 23  1  0  0  0  0
 12 24  1  0  0  0  0
 13 20  1  0  0  0  0
 13 22  2  0  0  0  0
 14 24  2  0  0  0  0
 14 25  1  0  0  0  0
 15 26  1  0  0  0  0
 16 26  1  0  0  0  0
 16 27  2  0  0  0  0
 16 28  1  0  0  0  0
 17 19  2  0  0  0  0
 17 33  1  0  0  0  0
 18 20  2  0  0  0  0
 18 34  1  0  0  0  0
 19 45  1  0  0  0  0
 20 35  1  0  0  0  0
 21 73  1  0  0  0  0
 22 74  1  0  0  0  0
 23 25  2  0  0  0  0
 23 73  1  0  0  0  0
 24 75  1  0  0  0  0
 25 76  1  0  0  0  0
 26 58  2  0  0  0  0
 27 59  1  0  0  0  0
 27 63  1  0  0  0  0
 28 64  1  0  0  0  0
 28 68  2  0  0  0  0
 29 46  1  0  0  0  0
 29 65  1  0  0  0  0
 29 69  2  0  0  0  0
 30 55  1  0  0  0  0
 30 60  1  0  0  0  0
 30 70  2  0  0  0  0
 31 56  1  0  0  0  0
 31 66  1  0  0  0  0
 31 71  2  0  0  0  0
 32 61  1  0  0  0  0
 32 62  1  0  0  0  0
 32 72  2  0  0  0  0
 33 36  1  0  0  0  0
 34 46  1  0  0  0  0
 35 60  1  0  0  0  0
 36 38  1  0  0  0  0
 37 39  1  0  0  0  0
 37 41  1  0  0  0  0
 38 45  1  0  0  0  0
 39 48  1  0  0  0  0
 40 42  1  0  0  0  0
 40 47  1  0  0  0  0
 41 61  1  0  0  0  0
 42 62  1  0  0  0  0
 43 47  1  0  0  0  0
 43 62  1  0  0  0  0
 44 48  1  0  0  0  0
 44 61  1  0  0  0  0
 45 65  1  0  0  0  0
 46 60  1  0  0  0  0
 47 54  1  0  0  0  0
 48 59  1  0  0  0  0
 49 56  1  0  0  0  0
 50 57  1  0  0  0  0
 51 57  1  0  0  0  0
 52 57  1  0  0  0  0
 53 67  1  0  0  0  0
 54 74  1  0  0  0  0
 55 57  1  0  0  0  0
 55 66  1  0  0  0  0
 56 67  1  0  0  0  0
 58 59  1  0  0  0  0
M  CHG  1  67   1
M  ISO  4  32 100  54 101  62 100  74 101
M  END
> <Batch ID>
0181

> <Smiles>
CNC(C)C(=O)NC(C(=O)N1Cc2cc([101O:1][101CH2:1]C3CC[100N:0]([100C:0](=O)N4CCCC(n5nc(-c6ccc(Oc7ccc(F)cc7F)cc6)c(C(N)=O)c5N)C4)C3)ccc2CC1C(=O)NC1CCCc2ccccc21)C(C)(C)C

> <Shape>
0.198

> <Color>
0.105

> <Negative vol penalty>
0.000

$$$$

  -OEChem-04052323023D

 83 92  0     1  0  0  0  0  0999 V2000
  -28.9218  -17.0352   17.9896 C   0  0  0  0  0  0  0  0  0  0  0  0
  -27.7709  -17.7739   18.2448 C   0  0  0  0  0  0  0  0  0  0  0  0
  -25.5010  -14.2251   21.4753 C   0  0  0  0  0  0  0  0  0  0  0  0
  -23.1052  -13.9135   21.4749 C   0  0  0  0  0  0  0  0  0  0  0  0
  -30.1360  -17.4204   18.5565 C   0  0  0  0  0  0  0  0  0  0  0  0
  -27.8333  -18.8978   19.0679 C   0  0  0  0  0  0  0  0  0  0  0  0
  -24.5732  -24.0524   18.5137 C   0  0  0  0  0  0  0  0  0  0  0  0
  -25.6739  -12.8952   21.8585 C   0  0  0  0  0  0  0  0  0  0  0  0
  -23.2781  -12.5835   21.8581 C   0  0  0  0  0  0  0  0  0  0  0  0
  -23.4171  -24.5039   19.1488 C   0  0  0  0  0  0  0  0  0  0  0  0
  -24.1084   -9.6569   20.3864 C   0  0  0  0  0  0  0  0  0  0  0  0
  -23.3538   -8.6895   19.7229 C   0  0  0  0  0  0  0  0  0  0  0  0
  -24.7691  -25.7427   20.7162 C   0  0  0  0  0  0  0  0  0  0  0  0
  -22.3450   -8.0386   21.8196 C   0  0  0  0  0  0  0  0  0  0  0  0
  -24.2166  -14.7344   21.2835 C   0  0  0  0  0  0  0  0  0  0  0  0
  -23.9716  -16.6136   19.5759 C   0  0  0  0  0  0  0  0  0  0  0  0
  -30.2152  -18.5552   19.3791 C   0  0  0  0  0  0  0  0  0  0  0  0
  -25.8384  -24.4346   18.9826 C   0  0  0  0  0  0  0  0  0  0  0  0
  -29.0495  -19.2978   19.6473 C   0  0  0  0  0  0  0  0  0  0  0  0
  -25.9397  -25.2968   20.0837 C   0  0  0  0  0  0  0  0  0  0  0  0
  -24.5625  -12.0744   22.0499 C   0  0  0  0  0  0  0  0  0  0  0  0
  -23.5150  -25.3469   20.2520 C   0  0  0  0  0  0  0  0  0  0  0  0
  -23.9815   -9.8151   21.7665 C   0  0  0  0  0  0  0  0  0  0  0  0
  -22.4720   -7.8804   20.4395 C   0  0  0  0  0  0  0  0  0  0  0  0
  -23.0998   -9.0059   22.4830 C   0  0  0  0  0  0  0  0  0  0  0  0
  -24.0373  -16.1083   20.8882 C   0  0  0  0  0  0  0  0  0  0  0  0
  -23.7948  -17.9661   19.7373 C   0  0  0  0  0  0  0  0  0  0  0  0
  -20.2135  -26.9968   22.7033 C   0  0  0  0  0  0  0  0  0  0  0  0
  -19.2919  -28.8768   22.5629 C   0  0  0  0  0  0  0  0  0  0  0  0
  -24.0621  -15.9223   18.3231 C   0  0  0  0  0  0  0  0  0  0  0  0
  -28.3546  -22.8904   20.1607 C   0  0  0  0  0  0  0  0  0  0  0  0
  -29.7272  -25.8266   20.0302 C   0  0  0  0  0  0  0  0  0  0  0  0
  -29.3215  -29.2148   19.9817 C   0  0  0  0  0  0  0  0  0  0  0  0
  -21.2515  -22.1786   22.1317 C   0  0  0  0  0  0  0  0  0  0  0  0
  -31.5409  -18.9052   20.0074 C   0  0  0  0  0  0  0  0  0  0  0  0
  -27.0752  -23.9604   18.2701 C   0  0  0  0  0  0  0  0  0  0  0  0
  -27.2737  -25.7527   20.6138 C   0  0  0  0  0  0  0  0  0  0  0  0
  -31.5942  -20.3249   20.5660 C   0  0  0  0  0  0  0  0  0  0  0  0
  -24.1414  -20.8643   23.8691 C   0  0  0  0  0  0  0  0  0  0  0  0
  -30.3420  -20.6241   21.3840 C   0  0  0  0  0  0  0  0  0  0  0  0
  -24.3645  -19.5427   23.1317 C   0  0  0  0  0  0  0  0  0  0  0  0
  -18.9796  -24.4333   22.8018 C   0  0  0  0  0  0  0  0  0  0  0  0
  -22.6538  -21.1642   24.0283 C   0  0  0  0  0  0  0  0  0  0  0  0
  -22.1090  -19.8564   22.0117 C   0  0  0  0  0  0  0  0  0  0  0  0
  -29.0816  -20.5373   20.5149 C   0  0  1  0  0  0  0  0  0  0  0  0
  -21.1138  -25.8188   22.9181 C   0  0  1  0  0  0  0  0  0  0  0  0
  -28.3225  -23.9997   19.1477 C   0  0  1  0  0  0  0  0  0  0  0  0
  -23.5933  -19.5075   21.7989 C   0  0  2  0  0  0  0  0  0  0  0  0
  -20.4612  -24.5161   22.3937 C   0  0  1  0  0  0  0  0  0  0  0  0
  -18.1649  -25.6120   22.2360 C   0  0  2  0  0  0  0  0  0  0  0  0
  -19.1301  -30.3352   22.5647 C   0  0  0  0  0  0  0  0  0  0  0  0
  -17.8217  -25.4090   20.7593 C   0  0  0  0  0  0  0  0  0  0  0  0
  -30.6305  -31.3546   19.9101 C   0  0  0  0  0  0  0  0  0  0  0  0
  -30.4376  -25.4877   22.9782 C   0  0  0  0  0  0  0  0  0  0  0  0
  -30.8631  -27.9525   23.0871 C   0  0  0  0  0  0  0  0  0  0  0  0
  -32.2399  -26.5162   21.5823 C   0  0  0  0  0  0  0  0  0  0  0  0
  -28.0890  -30.0184   17.4138 C   0  0  0  0  0  0  0  0  0  0  0  0
  -22.4812  -26.0573   22.2725 C   0  0  0  0  0  0  0  0  0  1  0  0
  -29.8339  -26.9997   20.9743 C   0  0  1  0  0  0  0  0  0  0  0  0
  -29.9203  -30.2882   19.0908 C   0  0  2  0  0  0  0  0  0  0  0  0
  -30.8184  -26.7291   22.1469 C   0  0  0  0  0  0  0  0  0  0  0  0
  -23.9126  -17.0621   21.8149 N   0  0  0  0  0  0  0  0  0  0  0  0
  -20.4991  -28.2796   22.7937 N   0  0  0  0  0  0  0  0  0  0  0  0
  -18.2667  -28.0515   22.3415 N   0  0  0  0  0  0  0  0  0  0  0  0
  -23.7668  -18.1803   21.0839 N   0  0  0  0  0  0  0  0  0  0  0  0
  -18.8795  -26.8610   22.4327 N   0  0  0  0  0  0  0  0  0  0  0  0
  -28.4541  -25.2568   19.8869 N   0  0  0  0  0  0  0  0  0  0  0  0
  -21.9819  -21.1336   22.7215 N   0  0  0  0  0  0  0  0  0  0  0  0
  -23.6622  -18.9811   18.8572 N   0  0  0  0  0  0  0  0  0  0  0  0
  -24.2436  -14.5327   18.3384 N   0  0  0  0  0  0  0  0  0  0  0  0
  -28.9444  -21.7275   19.7031 N   0  0  0  0  0  0  0  0  0  0  0  0
  -30.1850  -28.1536   20.1535 N   0  0  0  0  0  0  0  0  0  0  0  0
  -21.1732  -23.3519   22.8720 N   0  0  0  0  0  0  0  0  0  0  0  0
  -28.8535  -30.9473   18.2854 N   0  3  0  0  0  0  0  0  0  0  0  0
  -24.0009  -16.5214   17.2227 O   0  0  0  0  0  0  0  0  0  0  0  0
  -27.8806  -23.0762   21.2754 O   0  0  0  0  0  0  0  0  0  0  0  0
  -30.7348  -25.4348   19.4362 O   0  0  0  0  0  0  0  0  0  0  0  0
  -28.2015  -29.3099   20.4786 O   0  0  0  0  0  0  0  0  0  0  0  0
  -20.7131  -22.0756   21.0242 O   0  0  0  0  0  0  0  0  0  0  0  0
  -24.7309  -10.7765   22.4236 O   0  0  0  0  0  0  0  0  0  0  0  0
  -22.3881  -25.7885   20.8741 O   0  0  0  0  0  0  0  0  0  1  0  0
  -21.7462   -6.9525   19.8020 F   0  0  0  0  0  0  0  0  0  0  0  0
  -22.9726   -9.1540   23.8088 F   0  0  0  0  0  0  0  0  0  0  0  0
  1  2  1  0  0  0  0
  1  5  2  0  0  0  0
  2  6  2  0  0  0  0
  3  8  2  0  0  0  0
  3 15  1  0  0  0  0
  4  9  1  0  0  0  0
  4 15  2  0  0  0  0
  5 17  1  0  0  0  0
  6 19  1  0  0  0  0
  7 10  2  0  0  0  0
  7 18  1  0  0  0  0
  8 21  1  0  0  0  0
  9 21  2  0  0  0  0
 10 22  1  0  0  0  0
 11 12  2  0  0  0  0
 11 23  1  0  0  0  0
 12 24  1  0  0  0  0
 13 20  1  0  0  0  0
 13 22  2  0  0  0  0
 14 24  2  0  0  0  0
 14 25  1  0  0  0  0
 15 26  1  0  0  0  0
 16 26  1  0  0  0  0
 16 27  2  0  0  0  0
 16 30  1  0  0  0  0
 17 19  2  0  0  0  0
 17 35  1  0  0  0  0
 18 20  2  0  0  0  0
 18 36  1  0  0  0  0
 19 45  1  0  0  0  0
 20 37  1  0  0  0  0
 21 80  1  0  0  0  0
 22 81  1  0  0  0  0
 23 25  2  0  0  0  0
 23 80  1  0  0  0  0
 24 82  1  0  0  0  0
 25 83  1  0  0  0  0
 26 62  2  0  0  0  0
 27 65  1  0  0  0  0
 27 69  1  0  0  0  0
 28 46  1  0  0  0  0
 28 63  2  0  0  0  0
 28 66  1  0  0  0  0
 29 51  1  0  0  0  0
 29 63  1  0  0  0  0
 29 64  2  0  0  0  0
 30 70  1  0  0  0  0
 30 75  2  0  0  0  0
 31 47  1  0  0  0  0
 31 71  1  0  0  0  0
 31 76  2  0  0  0  0
 32 59  1  0  0  0  0
 32 67  1  0  0  0  0
 32 77  2  0  0  0  0
 33 60  1  0  0  0  0
 33 72  1  0  0  0  0
 33 78  2  0  0  0  0
 34 68  1  0  0  0  0
 34 73  1  0  0  0  0
 34 79  2  0  0  0  0
 35 38  1  0  0  0  0
 36 47  1  0  0  0  0
 37 67  1  0  0  0  0
 38 40  1  0  0  0  0
 39 41  1  0  0  0  0
 39 43  1  0  0  0  0
 40 45  1  0  0  0  0
 41 48  1  0  0  0  0
 42 49  1  0  0  0  0
 42 50  1  0  0  0  0
 43 68  1  0  0  0  0
 44 48  1  0  0  0  0
 44 68  1  0  0  0  0
 45 71  1  0  0  0  0
 46 49  1  0  0  0  0
 46 58  1  0  0  0  0
 47 67  1  0  0  0  0
 48 65  1  0  0  0  0
 49 73  1  0  0  0  0
 50 52  1  0  0  0  0
 50 66  1  0  0  0  0
 53 60  1  0  0  0  0
 54 61  1  0  0  0  0
 55 61  1  0  0  0  0
 56 61  1  0  0  0  0
 57 74  1  0  0  0  0
 58 81  1  0  0  0  0
 59 61  1  0  0  0  0
 59 72  1  0  0  0  0
 60 74  1  0  0  0  0
 62 65  1  0  0  0  0
 64 66  1  0  0  0  0
M  CHG  1  74   1
M  ISO  4  34 100  58 101  73 100  81 101
M  END
> <Batch ID>
0181

> <Smiles>
CNC(C)C(=O)NC(C(=O)N1Cc2cc([101O:1][101CH2:1]C3c4nc(C)nn4C(C)CC3[100NH:0][100C:0](=O)N3CCCC(n4nc(-c5ccc(Oc6ccc(F)cc6F)cc5)c(C(N)=O)c4N)C3)ccc2CC1C(=O)NC1CCCc2ccccc21)C(C)(C)C

> <Shape>
0.211

> <Color>
0.054

> <Negative vol penalty>
0.000

$$$$

  -OEChem-04052323023D

 80 88  0     1  0  0  0  0  0999 V2000
  -16.7473  -28.5918   22.9153 C   0  0  0  0  0  0  0  0  0  0  0  0
  -17.6326  -27.5212   22.8417 C   0  0  0  0  0  0  0  0  0  0  0  0
  -23.5062   -9.6719   20.3116 C   0  0  0  0  0  0  0  0  0  0  0  0
  -23.9869  -10.1843   22.6232 C   0  0  0  0  0  0  0  0  0  0  0  0
  -17.2363  -29.8941   23.0084 C   0  0  0  0  0  0  0  0  0  0  0  0
  -19.0076  -27.7524   22.8601 C   0  0  0  0  0  0  0  0  0  0  0  0
  -23.3043  -24.2018   25.3973 C   0  0  0  0  0  0  0  0  0  0  0  0
  -27.5370  -19.5665   24.0928 C   0  0  0  0  0  0  0  0  0  0  0  0
  -22.9039   -8.4759   20.7020 C   0  0  0  0  0  0  0  0  0  0  0  0
  -23.3844   -8.9883   23.0136 C   0  0  0  0  0  0  0  0  0  0  0  0
  -24.1686  -23.2476   24.8623 C   0  0  0  0  0  0  0  0  0  0  0  0
  -20.2485   -7.8108   23.4609 C   0  0  0  0  0  0  0  0  0  0  0  0
  -19.3736   -7.8517   24.5464 C   0  0  0  0  0  0  0  0  0  0  0  0
  -28.5404  -18.7580   23.5704 C   0  0  0  0  0  0  0  0  0  0  0  0
  -25.9021  -24.9173   24.7006 C   0  0  0  0  0  0  0  0  0  0  0  0
  -20.7755   -6.2839   25.7354 C   0  0  0  0  0  0  0  0  0  0  0  0
  -24.0478  -10.5261   21.2723 C   0  0  0  0  0  0  0  0  0  0  0  0
  -24.0512  -13.0167   20.7203 C   0  0  0  0  0  0  0  0  0  0  0  0
  -18.6180  -30.1408   23.0377 C   0  0  0  0  0  0  0  0  0  0  0  0
  -23.7297  -25.5257   25.5781 C   0  0  0  0  0  0  0  0  0  0  0  0
  -19.5156  -29.0594   22.9523 C   0  0  0  0  0  0  0  0  0  0  0  0
  -25.0421  -25.8858   25.2404 C   0  0  0  0  0  0  0  0  0  0  0  0
  -26.8859  -20.4773   23.2682 C   0  0  0  0  0  0  0  0  0  0  0  0
  -22.8429   -8.1341   22.0530 C   0  0  0  0  0  0  0  0  0  0  0  0
  -25.4668  -23.6059   24.5112 C   0  0  0  0  0  0  0  0  0  0  0  0
  -21.3869   -7.0063   23.5125 C   0  0  0  0  0  0  0  0  0  0  0  0
  -19.6371   -7.0883   25.6837 C   0  0  0  0  0  0  0  0  0  0  0  0
  -21.6504   -6.2429   24.6498 C   0  0  0  0  0  0  0  0  0  0  0  0
  -24.6707  -11.7614   20.8696 C   0  0  0  0  0  0  0  0  0  0  0  0
  -28.8528  -18.8979   22.2277 C   0  0  0  0  0  0  0  0  0  0  0  0
  -27.2725  -20.5404   21.9392 C   0  0  0  0  0  0  0  0  0  0  0  0
  -25.0648  -13.8549   20.3247 C   0  0  0  0  0  0  0  0  0  0  0  0
  -22.6820  -13.3915   20.9214 C   0  0  0  0  0  0  0  0  0  0  0  0
  -22.8276  -28.3485   24.4283 C   0  0  0  0  0  0  0  0  0  0  0  0
  -24.9939  -29.4737   26.5644 C   0  0  0  0  0  0  0  0  0  0  0  0
  -27.7883  -28.8936   28.4356 C   0  0  0  0  0  0  0  0  0  0  0  0
  -30.2974  -15.7327   20.8130 C   0  0  0  0  0  0  0  0  0  0  0  0
  -19.0995  -31.5690   23.0916 C   0  0  0  0  0  0  0  0  0  0  0  0
  -22.7936  -26.5369   26.1812 C   0  0  0  0  0  0  0  0  0  0  0  0
  -25.5540  -27.2891   25.4335 C   0  0  0  0  0  0  0  0  0  0  0  0
  -20.5690  -31.7021   23.4827 C   0  0  0  0  0  0  0  0  0  0  0  0
  -29.7826  -12.8317   18.8141 C   0  0  0  0  0  0  0  0  0  0  0  0
  -21.4230  -30.7149   22.6935 C   0  0  0  0  0  0  0  0  0  0  0  0
  -28.3587  -12.3950   19.1630 C   0  0  0  0  0  0  0  0  0  0  0  0
  -30.5152  -13.3923   20.0311 C   0  0  0  0  0  0  0  0  0  0  0  0
  -28.3832  -14.0417   21.0831 C   0  0  0  0  0  0  0  0  0  0  0  0
  -21.0139  -29.2679   22.9944 C   0  0  1  0  0  0  0  0  0  0  0  0
  -23.1702  -27.9760   25.8430 C   0  0  1  0  0  0  0  0  0  0  0  0
  -27.5855  -13.5212   19.8752 C   0  0  2  0  0  0  0  0  0  0  0  0
  -26.6060  -21.4976   21.0063 C   0  0  0  0  0  0  0  0  0  0  0  0
  -29.3435  -30.0161   30.0539 C   0  0  0  0  0  0  0  0  0  0  0  0
  -26.2884  -30.9976   24.2596 C   0  0  0  0  0  0  0  0  0  0  0  0
  -28.3164  -31.3067   25.6948 C   0  0  0  0  0  0  0  0  0  0  0  0
  -26.1310  -32.2806   26.4005 C   0  0  0  0  0  0  0  0  0  0  0  0
  -27.1501  -26.9512   30.5755 C   0  0  0  0  0  0  0  0  0  0  0  0
  -25.8033  -21.3534   23.8265 C   0  0  0  0  0  0  0  0  0  1  0  0
  -29.9235  -18.0448   21.6335 C   0  0  0  0  0  0  0  0  0  0  0  0
  -26.4720  -29.7787   26.5282 C   0  0  1  0  0  0  0  0  0  0  0  0
  -28.0950  -29.1619   29.8979 C   0  0  2  0  0  0  0  0  0  0  0  0
  -26.7920  -31.0648   25.7152 C   0  0  0  0  0  0  0  0  0  0  0  0
  -25.9766  -11.7945   20.5913 N   0  0  0  0  0  0  0  0  0  0  0  0
  -28.2425  -19.7713   21.3957 N   0  0  0  0  0  0  0  0  0  0  0  0
  -26.1860  -13.0808   20.2630 N   0  0  0  0  0  0  0  0  0  0  0  0
  -24.5989  -28.2431   26.0208 N   0  0  0  0  0  0  0  0  0  0  0  0
  -29.7296  -14.4571   20.6595 N   0  0  0  0  0  0  0  0  0  0  0  0
  -25.0974  -15.1712   20.0268 N   0  0  0  0  0  0  0  0  0  0  0  0
  -21.7723  -12.4060   21.3283 N   0  0  0  0  0  0  0  0  0  0  0  0
  -21.5483  -28.8469   24.2717 N   0  0  0  0  0  0  0  0  0  0  0  0
  -26.9133  -29.8251   27.9180 N   0  0  0  0  0  0  0  0  0  0  0  0
  -29.4828  -16.6855   21.4124 N   0  0  0  0  0  0  0  0  0  0  0  0
  -28.3090  -27.8793   30.6261 N   0  3  0  0  0  0  0  0  0  0  0  0
  -22.2739  -14.5621   20.7297 O   0  0  0  0  0  0  0  0  0  0  0  0
  -23.6626  -28.1964   23.5443 O   0  0  0  0  0  0  0  0  0  0  0  0
  -24.2192  -30.2939   27.0632 O   0  0  0  0  0  0  0  0  0  0  0  0
  -28.2790  -27.9539   27.8136 O   0  0  0  0  0  0  0  0  0  0  0  0
  -31.4434  -16.0038   20.4386 O   0  0  0  0  0  0  0  0  0  0  0  0
  -22.2550   -6.9673   22.4343 O   0  0  0  0  0  0  0  0  0  0  0  0
  -26.3123  -22.6767   23.9882 O   0  0  0  0  0  0  0  0  0  1  0  0
  -18.7976   -7.1289   26.7267 F   0  0  0  0  0  0  0  0  0  0  0  0
  -22.7430   -5.4690   24.7057 F   0  0  0  0  0  0  0  0  0  0  0  0
  1  2  1  0  0  0  0
  1  5  2  0  0  0  0
  2  6  2  0  0  0  0
  3  9  2  0  0  0  0
  3 17  1  0  0  0  0
  4 10  1  0  0  0  0
  4 17  2  0  0  0  0
  5 19  1  0  0  0  0
  6 21  1  0  0  0  0
  7 11  2  0  0  0  0
  7 20  1  0  0  0  0
  8 14  2  0  0  0  0
  8 23  1  0  0  0  0
  9 24  1  0  0  0  0
 10 24  2  0  0  0  0
 11 25  1  0  0  0  0
 12 13  2  0  0  0  0
 12 26  1  0  0  0  0
 13 27  1  0  0  0  0
 14 30  1  0  0  0  0
 15 22  1  0  0  0  0
 15 25  2  0  0  0  0
 16 27  2  0  0  0  0
 16 28  1  0  0  0  0
 17 29  1  0  0  0  0
 18 29  1  0  0  0  0
 18 32  2  0  0  0  0
 18 33  1  0  0  0  0
 19 21  2  0  0  0  0
 19 38  1  0  0  0  0
 20 22  2  0  0  0  0
 20 39  1  0  0  0  0
 21 47  1  0  0  0  0
 22 40  1  0  0  0  0
 23 31  2  0  0  0  0
 23 56  1  0  0  0  0
 24 77  1  0  0  0  0
 25 78  1  0  0  0  0
 26 28  2  0  0  0  0
 26 77  1  0  0  0  0
 27 79  1  0  0  0  0
 28 80  1  0  0  0  0
 29 61  2  0  0  0  0
 30 57  1  0  0  0  0
 30 62  2  0  0  0  0
 31 50  1  0  0  0  0
 31 62  1  0  0  0  0
 32 63  1  0  0  0  0
 32 66  1  0  0  0  0
 33 67  1  0  0  0  0
 33 72  2  0  0  0  0
 34 48  1  0  0  0  0
 34 68  1  0  0  0  0
 34 73  2  0  0  0  0
 35 58  1  0  0  0  0
 35 64  1  0  0  0  0
 35 74  2  0  0  0  0
 36 59  1  0  0  0  0
 36 69  1  0  0  0  0
 36 75  2  0  0  0  0
 37 65  1  0  0  0  0
 37 70  1  0  0  0  0
 37 76  2  0  0  0  0
 38 41  1  0  0  0  0
 39 48  1  0  0  0  0
 40 64  1  0  0  0  0
 41 43  1  0  0  0  0
 42 44  1  0  0  0  0
 42 45  1  0  0  0  0
 43 47  1  0  0  0  0
 44 49  1  0  0  0  0
 45 65  1  0  0  0  0
 46 49  1  0  0  0  0
 46 65  1  0  0  0  0
 47 68  1  0  0  0  0
 48 64  1  0  0  0  0
 49 63  1  0  0  0  0
 51 59  1  0  0  0  0
 52 60  1  0  0  0  0
 53 60  1  0  0  0  0
 54 60  1  0  0  0  0
 55 71  1  0  0  0  0
 56 78  1  0  0  0  0
 57 70  1  0  0  0  0
 58 60  1  0  0  0  0
 58 69  1  0  0  0  0
 59 71  1  0  0  0  0
 61 63  1  0  0  0  0
M  CHG  1  71   1
M  ISO  4  37 100  56 101  70 100  78 101
M  END
> <Batch ID>
0181

> <Smiles>
CNC(C)C(=O)NC(C(=O)N1Cc2cc([101O:1][101CH2:1]c3ccc(C[100NH:0][100C:0](=O)N4CCCC(n5nc(-c6ccc(Oc7ccc(F)cc7F)cc6)c(C(N)=O)c5N)C4)nc3C)ccc2CC1C(=O)NC1CCCc2ccccc21)C(C)(C)C

> <Shape>
0.271

> <Color>
0.191

> <Negative vol penalty>
0.000

$$$$

  -OEChem-04052323023D

 82 91  0     1  0  0  0  0  0999 V2000
  -26.9342  -36.7236   24.8128 C   0  0  0  0  0  0  0  0  0  0  0  0
  -27.6328  -36.0596   23.8095 C   0  0  0  0  0  0  0  0  0  0  0  0
  -26.1108  -14.4110   20.4841 C   0  0  0  0  0  0  0  0  0  0  0  0
  -24.1139  -14.1436   21.8175 C   0  0  0  0  0  0  0  0  0  0  0  0
  -26.2994  -35.9951   25.8178 C   0  0  0  0  0  0  0  0  0  0  0  0
  -27.6978  -34.6667   23.8113 C   0  0  0  0  0  0  0  0  0  0  0  0
  -27.7915  -30.9791   18.9227 C   0  0  0  0  0  0  0  0  0  0  0  0
  -26.3203  -13.0325   20.5214 C   0  0  0  0  0  0  0  0  0  0  0  0
  -24.3234  -12.7650   21.8548 C   0  0  0  0  0  0  0  0  0  0  0  0
  -28.8317  -30.3391   18.2504 C   0  0  0  0  0  0  0  0  0  0  0  0
  -23.8495  -10.1190   19.8068 C   0  0  0  0  0  0  0  0  0  0  0  0
  -22.7503   -9.2915   19.5771 C   0  0  0  0  0  0  0  0  0  0  0  0
  -29.6603  -25.5307   17.2819 C   0  0  0  0  0  0  0  0  0  0  0  0
  -28.4157  -28.3351   19.5271 C   0  0  0  0  0  0  0  0  0  0  0  0
  -23.0323   -8.3092   21.7664 C   0  0  0  0  0  0  0  0  0  0  0  0
  -29.2945  -24.2491   17.6139 C   0  0  0  0  0  0  0  0  0  0  0  0
  -25.0076  -14.9666   21.1322 C   0  0  0  0  0  0  0  0  0  0  0  0
  -24.0544  -17.1133   20.1369 C   0  0  0  0  0  0  0  0  0  0  0  0
  -26.3485  -34.5922   25.8266 C   0  0  0  0  0  0  0  0  0  0  0  0
  -27.0614  -30.3043   19.9116 C   0  0  0  0  0  0  0  0  0  0  0  0
  -27.0641  -33.9188   24.8182 C   0  0  0  0  0  0  0  0  0  0  0  0
  -27.3650  -28.9680   20.2087 C   0  0  0  0  0  0  0  0  0  0  0  0
  -25.4266  -12.2095   21.2067 C   0  0  0  0  0  0  0  0  0  0  0  0
  -29.1458  -29.0177   18.5546 C   0  0  0  0  0  0  0  0  0  0  0  0
  -24.5401  -10.0415   21.0163 C   0  0  0  0  0  0  0  0  0  0  0  0
  -22.3417   -8.3866   20.5569 C   0  0  0  0  0  0  0  0  0  0  0  0
  -24.1315   -9.1367   21.9960 C   0  0  0  0  0  0  0  0  0  0  0  0
  -24.7909  -16.3905   21.0945 C   0  0  0  0  0  0  0  0  0  0  0  0
  -30.2776  -26.0325   18.4433 C   0  0  0  0  0  0  0  0  0  0  0  0
  -24.1508  -18.4212   20.5451 C   0  0  0  0  0  0  0  0  0  0  0  0
  -23.3464  -16.6444   18.9817 C   0  0  0  0  0  0  0  0  0  0  0  0
  -26.5846  -30.7232   23.0262 C   0  0  0  0  0  0  0  0  0  0  0  0
  -24.4958  -28.2717   22.6400 C   0  0  0  0  0  0  0  0  0  0  0  0
  -23.5389  -25.5378   20.8353 C   0  0  0  0  0  0  0  0  0  0  0  0
  -28.2312  -21.8291   23.0601 C   0  0  0  0  0  0  0  0  0  0  0  0
  -25.6865  -33.8497   26.9602 C   0  0  0  0  0  0  0  0  0  0  0  0
  -25.9248  -31.0004   20.6088 C   0  0  0  0  0  0  0  0  0  0  0  0
  -26.5984  -28.1927   21.2478 C   0  0  0  0  0  0  0  0  0  0  0  0
  -25.4882  -32.3622   26.6805 C   0  0  0  0  0  0  0  0  0  0  0  0
  -25.2139  -20.6835   24.8100 C   0  0  0  0  0  0  0  0  0  0  0  0
  -26.7633  -31.7522   26.1070 C   0  0  0  0  0  0  0  0  0  0  0  0
  -24.7601  -19.4952   23.9610 C   0  0  0  0  0  0  0  0  0  0  0  0
  -28.2783  -21.9921   19.3895 C   0  0  0  0  0  0  0  0  0  0  0  0
  -26.7288  -20.8706   24.7671 C   0  0  0  0  0  0  0  0  0  0  0  0
  -28.1391  -21.0882   20.6087 C   0  0  0  0  0  0  0  0  0  0  0  0
  -26.8419  -19.7714   22.5641 C   0  0  0  0  0  0  0  0  0  0  0  0
  -29.3615  -23.0610   21.2311 C   0  0  0  0  0  0  0  0  0  0  0  0
  -27.1366  -32.4080   24.7721 C   0  0  1  0  0  0  0  0  0  0  0  0
  -25.5831  -30.3800   21.9600 C   0  0  1  0  0  0  0  0  0  0  0  0
  -25.3179  -19.5912   22.5287 C   0  0  1  0  0  0  0  0  0  0  0  0
  -29.5254  -22.8183   19.7287 C   0  0  2  0  0  0  0  0  0  0  0  0
  -32.3425  -27.4607   18.2443 C   0  0  0  0  0  0  0  0  0  0  0  0
  -21.8155  -23.7144   20.7863 C   0  0  0  0  0  0  0  0  0  0  0  0
  -25.9472  -26.8421   24.9114 C   0  0  0  0  0  0  0  0  0  0  0  0
  -24.8369  -24.7172   24.1902 C   0  0  0  0  0  0  0  0  0  0  0  0
  -23.4553  -26.6401   24.9752 C   0  0  0  0  0  0  0  0  0  0  0  0
  -22.5218  -26.4110   18.1968 C   0  0  0  0  0  0  0  0  0  0  0  0
  -30.8592  -27.3708   18.6427 C   0  0  1  0  0  0  0  0  0  1  0  0
  -24.5872  -26.7669   22.7181 C   0  0  1  0  0  0  0  0  0  0  0  0
  -22.1850  -25.1073   20.3005 C   0  0  2  0  0  0  0  0  0  0  0  0
  -24.7226  -26.2565   24.1805 C   0  0  0  0  0  0  0  0  0  0  0  0
  -25.3165  -17.1742   22.0398 N   0  0  0  0  0  0  0  0  0  0  0  0
  -30.3041  -25.1425   19.4388 N   0  0  0  0  0  0  0  0  0  0  0  0
  -29.6989  -24.0684   18.9038 N   0  0  0  0  0  0  0  0  0  0  0  0
  -24.9099  -18.4030   21.6781 N   0  0  0  0  0  0  0  0  0  0  0  0
  -25.5001  -28.9191   21.9065 N   0  0  0  0  0  0  0  0  0  0  0  0
  -27.2115  -20.9283   23.3871 N   0  0  0  0  0  0  0  0  0  0  0  0
  -28.6315  -21.8963   21.7259 N   0  0  0  0  0  0  0  0  0  0  0  0
  -23.6596  -19.5735   20.0418 N   0  0  0  0  0  0  0  0  0  0  0  0
  -23.3492  -15.2697   18.7088 N   0  0  0  0  0  0  0  0  0  0  0  0
  -26.3042  -31.8932   23.7059 N   0  0  0  0  0  0  0  0  0  0  0  0
  -23.4210  -26.2498   22.0103 N   0  0  0  0  0  0  0  0  0  0  0  0
  -22.1959  -25.0979   18.8103 N   0  3  0  0  0  0  0  0  0  0  0  0
  -22.7432  -17.4232   18.2051 O   0  0  0  0  0  0  0  0  0  0  0  0
  -27.5403  -29.9807   23.2190 O   0  0  0  0  0  0  0  0  0  0  0  0
  -23.5634  -28.8510   23.2029 O   0  0  0  0  0  0  0  0  0  0  0  0
  -24.5956  -25.2662   20.2696 O   0  0  0  0  0  0  0  0  0  0  0  0
  -28.7299  -22.5745   23.9138 O   0  0  0  0  0  0  0  0  0  0  0  0
  -25.6306  -10.8643   21.2431 O   0  0  0  0  0  0  0  0  0  0  0  0
  -30.1617  -28.3904   17.8999 O   0  0  0  0  0  0  0  0  0  1  0  0
  -21.2853   -7.5932   20.3367 F   0  0  0  0  0  0  0  0  0  0  0  0
  -24.7903   -9.0586   23.1604 F   0  0  0  0  0  0  0  0  0  0  0  0
  1  2  1  0  0  0  0
  1  5  2  0  0  0  0
  2  6  2  0  0  0  0
  3  8  2  0  0  0  0
  3 17  1  0  0  0  0
  4  9  1  0  0  0  0
  4 17  2  0  0  0  0
  5 19  1  0  0  0  0
  6 21  1  0  0  0  0
  7 10  2  0  0  0  0
  7 20  1  0  0  0  0
  8 23  1  0  0  0  0
  9 23  2  0  0  0  0
 10 24  1  0  0  0  0
 11 12  2  0  0  0  0
 11 25  1  0  0  0  0
 12 26  1  0  0  0  0
 13 16  2  0  0  0  0
 13 29  1  0  0  0  0
 14 22  1  0  0  0  0
 14 24  2  0  0  0  0
 15 26  2  0  0  0  0
 15 27  1  0  0  0  0
 16 64  1  0  0  0  0
 17 28  1  0  0  0  0
 18 28  1  0  0  0  0
 18 30  2  0  0  0  0
 18 31  1  0  0  0  0
 19 21  2  0  0  0  0
 19 36  1  0  0  0  0
 20 22  2  0  0  0  0
 20 37  1  0  0  0  0
 21 48  1  0  0  0  0
 22 38  1  0  0  0  0
 23 79  1  0  0  0  0
 24 80  1  0  0  0  0
 25 27  2  0  0  0  0
 25 79  1  0  0  0  0
 26 81  1  0  0  0  0
 27 82  1  0  0  0  0
 28 62  2  0  0  0  0
 29 58  1  0  0  0  0
 29 63  2  0  0  0  0
 30 65  1  0  0  0  0
 30 69  1  0  0  0  0
 31 70  1  0  0  0  0
 31 74  2  0  0  0  0
 32 49  1  0  0  0  0
 32 71  1  0  0  0  0
 32 75  2  0  0  0  0
 33 59  1  0  0  0  0
 33 66  1  0  0  0  0
 33 76  2  0  0  0  0
 34 60  1  0  0  0  0
 34 72  1  0  0  0  0
 34 77  2  0  0  0  0
 35 67  1  0  0  0  0
 35 68  1  0  0  0  0
 35 78  2  0  0  0  0
 36 39  1  0  0  0  0
 37 49  1  0  0  0  0
 38 66  1  0  0  0  0
 39 41  1  0  0  0  0
 40 42  1  0  0  0  0
 40 44  1  0  0  0  0
 41 48  1  0  0  0  0
 42 50  1  0  0  0  0
 43 45  1  0  0  0  0
 43 51  1  0  0  0  0
 44 67  1  0  0  0  0
 45 68  1  0  0  0  0
 46 50  1  0  0  0  0
 46 67  1  0  0  0  0
 47 51  1  0  0  0  0
 47 68  1  0  0  0  0
 48 71  1  0  0  0  0
 49 66  1  0  0  0  0
 50 65  1  0  0  0  0
 51 64  1  0  0  0  0
 52 58  1  0  0  0  0
 53 60  1  0  0  0  0
 54 61  1  0  0  0  0
 55 61  1  0  0  0  0
 56 61  1  0  0  0  0
 57 73  1  0  0  0  0
 58 80  1  0  0  0  0
 59 61  1  0  0  0  0
 59 72  1  0  0  0  0
 60 73  1  0  0  0  0
 62 65  1  0  0  0  0
 63 64  1  0  0  0  0
M  CHG  1  73   1
M  ISO  4  35 100  58 101  68 100  80 101
M  END
> <Batch ID>
0181

> <Smiles>
CNC(C)C(=O)NC(C(=O)N1Cc2cc([101O:1][101CH:1](C)c3ccn(C4CC[100N:0]([100C:0](=O)N5CCCC(n6nc(-c7ccc(Oc8ccc(F)cc8F)cc7)c(C(N)=O)c6N)C5)C4)n3)ccc2CC1C(=O)NC1CCCc2ccccc21)C(C)(C)C

> <Shape>
0.244

> <Color>
0.064

> <Negative vol penalty>
0.000

$$$$

  -OEChem-04052323023D

 86 95  0     1  0  0  0  0  0999 V2000
  -19.8054   -8.0965   19.8091 C   0  0  0  0  0  0  0  0  0  0  0  0
  -19.5004   -9.3126   20.4121 C   0  0  0  0  0  0  0  0  0  0  0  0
  -24.7805  -33.2041   22.0459 C   0  0  0  0  0  0  0  0  0  0  0  0
  -27.0318  -32.5849   21.4250 C   0  0  0  0  0  0  0  0  0  0  0  0
  -21.0835   -7.5554   19.9413 C   0  0  0  0  0  0  0  0  0  0  0  0
  -20.4731   -9.9877   21.1485 C   0  0  0  0  0  0  0  0  0  0  0  0
  -23.2119  -17.2586   20.3357 C   0  0  0  0  0  0  0  0  0  0  0  0
  -25.2437  -34.4425   22.4902 C   0  0  0  0  0  0  0  0  0  0  0  0
  -27.4950  -33.8233   21.8693 C   0  0  0  0  0  0  0  0  0  0  0  0
  -23.8872  -18.4708   20.1920 C   0  0  0  0  0  0  0  0  0  0  0  0
  -26.8151  -35.6827   25.2135 C   0  0  0  0  0  0  0  0  0  0  0  0
  -26.3448  -36.1470   26.4418 C   0  0  0  0  0  0  0  0  0  0  0  0
  -25.8544  -17.5088   21.2180 C   0  0  0  0  0  0  0  0  0  0  0  0
  -25.4164  -38.0925   25.3509 C   0  0  0  0  0  0  0  0  0  0  0  0
  -25.6746  -32.2752   21.5133 C   0  0  0  0  0  0  0  0  0  0  0  0
  -24.7503  -30.6690   19.7602 C   0  0  0  0  0  0  0  0  0  0  0  0
  -22.0752   -8.2289   20.6717 C   0  0  0  0  0  0  0  0  0  0  0  0
  -23.8612  -16.1610   20.9078 C   0  0  0  0  0  0  0  0  0  0  0  0
  -21.7653   -9.4544   21.2918 C   0  0  0  0  0  0  0  0  0  0  0  0
  -25.1872  -16.2884   21.3532 C   0  0  0  0  0  0  0  0  0  0  0  0
  -26.6009  -34.7521   22.4018 C   0  0  0  0  0  0  0  0  0  0  0  0
  -25.2051  -18.5956   20.6323 C   0  0  0  0  0  0  0  0  0  0  0  0
  -26.5862  -36.4233   24.0539 C   0  0  0  0  0  0  0  0  0  0  0  0
  -25.6454  -37.3519   26.5105 C   0  0  0  0  0  0  0  0  0  0  0  0
  -25.8868  -37.6282   24.1226 C   0  0  0  0  0  0  0  0  0  0  0  0
  -25.1969  -30.9955   21.0547 C   0  0  0  0  0  0  0  0  0  0  0  0
  -28.1068  -21.6598   19.4784 C   0  0  0  0  0  0  0  0  0  0  0  0
  -27.7407  -21.2249   20.7331 C   0  0  0  0  0  0  0  0  0  0  0  0
  -28.3248  -23.2555   21.6076 C   0  0  0  0  0  0  0  0  0  0  0  0
  -28.6917  -23.6903   20.3530 C   0  0  0  0  0  0  0  0  0  0  0  0
  -24.4079  -29.3412   19.8399 C   0  0  0  0  0  0  0  0  0  0  0  0
  -24.6536  -31.4922   18.5904 C   0  0  0  0  0  0  0  0  0  0  0  0
  -23.6633  -12.5585   21.9365 C   0  0  0  0  0  0  0  0  0  0  0  0
  -26.4428  -12.9835   20.7102 C   0  0  0  0  0  0  0  0  0  0  0  0
  -29.2358  -13.7642   18.9139 C   0  0  0  0  0  0  0  0  0  0  0  0
  -26.1605  -24.8873   23.4374 C   0  0  0  0  0  0  0  0  0  0  0  0
  -23.4286   -7.5815   20.8263 C   0  0  0  0  0  0  0  0  0  0  0  0
  -23.1526  -14.8539   21.1385 C   0  0  0  0  0  0  0  0  0  0  0  0
  -25.8342  -15.0911   21.9940 C   0  0  0  0  0  0  0  0  0  0  0  0
  -24.5117   -8.5423   21.3102 C   0  0  0  0  0  0  0  0  0  0  0  0
  -22.8348  -26.0598   22.9460 C   0  0  0  0  0  0  0  0  0  0  0  0
  -24.0040   -9.3704   22.4864 C   0  0  0  0  0  0  0  0  0  0  0  0
  -23.0227  -27.4282   22.2888 C   0  0  0  0  0  0  0  0  0  0  0  0
  -29.2703  -27.2830   19.7397 C   0  0  0  0  0  0  0  0  0  0  0  0
  -23.9163  -25.7805   23.9873 C   0  0  0  0  0  0  0  0  0  0  0  0
  -28.5574  -25.9872   19.3495 C   0  0  0  0  0  0  0  0  0  0  0  0
  -25.4878  -27.2929   22.8398 C   0  0  0  0  0  0  0  0  0  0  0  0
  -30.3649  -25.4867   20.8827 C   0  0  0  0  0  0  0  0  0  0  0  0
  -22.8008  -10.2289   22.0780 C   0  0  1  0  0  0  0  0  0  0  0  0
  -24.0722  -13.6311   20.9703 C   0  0  1  0  0  0  0  0  0  0  0  0
  -24.4533  -27.5962   21.7425 C   0  0  2  0  0  0  0  0  0  0  0  0
  -30.6482  -26.7883   20.1410 C   0  0  2  0  0  0  0  0  0  0  0  0
  -27.9882  -20.7761   18.2841 C   0  0  0  0  0  0  0  0  0  0  0  0
  -31.3753  -12.7644   18.0652 C   0  0  0  0  0  0  0  0  0  0  0  0
  -27.6305  -13.1539   23.5145 C   0  0  0  0  0  0  0  0  0  0  0  0
  -29.9081  -13.0835   22.4773 C   0  0  0  0  0  0  0  0  0  0  0  0
  -28.3512  -11.1550   22.1956 C   0  0  0  0  0  0  0  0  0  0  0  0
  -28.4837  -14.2580   16.0944 C   0  0  0  0  0  0  0  0  0  0  0  0
  -28.4395  -24.1327   22.8083 C   0  0  0  0  0  0  0  0  0  0  0  0
  -27.2055  -19.8410   20.9563 C   0  0  0  0  0  0  0  0  0  1  0  0
  -27.8954  -13.3079   20.9509 C   0  0  1  0  0  0  0  0  0  0  0  0
  -29.9167  -13.0610   17.7535 C   0  0  2  0  0  0  0  0  0  0  0  0
  -28.4276  -12.6952   22.2771 C   0  0  0  0  0  0  0  0  0  0  0  0
  -25.1440  -29.9588   21.8952 N   0  0  0  0  0  0  0  0  0  0  0  0
  -27.8431  -22.0149   21.8202 N   0  0  0  0  0  0  0  0  0  0  0  0
  -28.5889  -22.9003   19.2658 N   0  0  0  0  0  0  0  0  0  0  0  0
  -24.6601  -28.9678   21.1272 N   0  0  0  0  0  0  0  0  0  0  0  0
  -29.1786  -24.9708   20.1993 N   0  0  3  0  0  0  0  0  0  0  0  0
  -25.5000  -13.8743   21.2375 N   0  0  0  0  0  0  0  0  0  0  0  0
  -25.2490  -25.9556   23.4049 N   0  0  0  0  0  0  0  0  0  0  0  0
  -23.9187  -28.4684   18.9337 N   0  0  0  0  0  0  0  0  0  0  0  0
  -25.0475  -32.8341   18.6832 N   0  0  0  0  0  0  0  0  0  0  0  0
  -23.2380  -11.3902   21.3333 N   0  0  0  0  0  0  0  0  0  0  0  0
  -28.6144  -12.8698   19.7595 N   0  0  0  0  0  0  0  0  0  0  0  0
  -27.3989  -25.1354   22.8580 N   0  0  0  0  0  0  0  0  0  0  0  0
  -31.3372  -27.7615   21.0053 N   0  3  0  0  0  0  0  0  0  0  0  0
  -29.8607  -13.9089   16.5292 N   0  3  0  0  0  0  0  0  0  0  0  0
  -24.2150  -31.0553   17.4994 O   0  0  0  0  0  0  0  0  0  0  0  0
  -23.7297  -12.7732   23.1412 O   0  0  0  0  0  0  0  0  0  0  0  0
  -26.1490  -11.9657   20.0770 O   0  0  0  0  0  0  0  0  0  0  0  0
  -29.2565  -14.9846   19.0579 O   0  0  0  0  0  0  0  0  0  0  0  0
  -25.8888  -23.7918   23.9403 O   0  0  0  0  0  0  0  0  0  0  0  0
  -27.0531  -35.9606   22.8351 O   0  0  0  0  0  0  0  0  0  0  0  0
  -25.8600  -19.7806   20.4849 O   0  0  0  0  0  0  0  0  0  1  0  0
  -25.1924  -37.7969   27.6899 F   0  0  0  0  0  0  0  0  0  0  0  0
  -25.6627  -38.3435   23.0117 F   0  0  0  0  0  0  0  0  0  0  0  0
  1  2  1  0  0  0  0
  1  5  2  0  0  0  0
  2  6  2  0  0  0  0
  3  8  2  0  0  0  0
  3 15  1  0  0  0  0
  4  9  1  0  0  0  0
  4 15  2  0  0  0  0
  5 17  1  0  0  0  0
  6 19  1  0  0  0  0
  7 10  2  0  0  0  0
  7 18  1  0  0  0  0
  8 21  1  0  0  0  0
  9 21  2  0  0  0  0
 10 22  1  0  0  0  0
 11 12  2  0  0  0  0
 11 23  1  0  0  0  0
 12 24  1  0  0  0  0
 13 20  1  0  0  0  0
 13 22  2  0  0  0  0
 14 24  2  0  0  0  0
 14 25  1  0  0  0  0
 15 26  1  0  0  0  0
 16 26  1  0  0  0  0
 16 31  2  0  0  0  0
 16 32  1  0  0  0  0
 17 19  2  0  0  0  0
 17 37  1  0  0  0  0
 18 20  2  0  0  0  0
 18 38  1  0  0  0  0
 19 49  1  0  0  0  0
 20 39  1  0  0  0  0
 21 83  1  0  0  0  0
 22 84  1  0  0  0  0
 23 25  2  0  0  0  0
 23 83  1  0  0  0  0
 24 85  1  0  0  0  0
 25 86  1  0  0  0  0
 26 64  2  0  0  0  0
 27 28  2  0  0  0  0
 27 53  1  0  0  0  0
 27 66  1  0  0  0  0
 28 60  1  0  0  0  0
 28 65  1  0  0  0  0
 29 30  1  0  0  0  0
 29 59  1  0  0  0  0
 29 65  2  0  0  0  0
 30 66  2  0  0  0  0
 30 68  1  0  0  0  0
 31 67  1  0  0  0  0
 31 71  1  0  0  0  0
 32 72  1  0  0  0  0
 32 78  2  0  0  0  0
 33 50  1  0  0  0  0
 33 73  1  0  0  0  0
 33 79  2  0  0  0  0
 34 61  1  0  0  0  0
 34 69  1  0  0  0  0
 34 80  2  0  0  0  0
 35 62  1  0  0  0  0
 35 74  1  0  0  0  0
 35 81  2  0  0  0  0
 36 70  1  0  0  0  0
 36 75  1  0  0  0  0
 36 82  2  0  0  0  0
 37 40  1  0  0  0  0
 38 50  1  0  0  0  0
 39 69  1  0  0  0  0
 40 42  1  0  0  0  0
 41 43  1  0  0  0  0
 41 45  1  0  0  0  0
 42 49  1  0  0  0  0
 43 51  1  0  0  0  0
 44 46  1  0  0  0  0
 44 52  1  0  0  0  0
 45 70  1  0  0  0  0
 46 68  1  0  0  0  0
 47 51  1  0  0  0  0
 47 70  1  0  0  0  0
 48 52  1  0  0  0  0
 48 68  1  0  0  0  0
 49 73  1  0  0  0  0
 50 69  1  0  0  0  0
 51 67  1  0  0  0  0
 52 76  1  0  0  0  0
 54 62  1  0  0  0  0
 55 63  1  0  0  0  0
 56 63  1  0  0  0  0
 57 63  1  0  0  0  0
 58 77  1  0  0  0  0
 59 75  1  0  0  0  0
 60 84  1  0  0  0  0
 61 63  1  0  0  0  0
 61 74  1  0  0  0  0
 62 77  1  0  0  0  0
 64 67  1  0  0  0  0
M  CHG  2  76   1  77   1
M  ISO  4  36 100  60 101  75 100  84 101
M  END
> <Batch ID>
0181

> <Smiles>
CNC(C)C(=O)NC(C(=O)N1Cc2cc([101O:1][101CH2:1]c3nc(C[100NH:0][100C:0](=O)N4CCCC(n5nc(-c6ccc(Oc7ccc(F)cc7F)cc6)c(C(N)=O)c5N)C4)c(N4CCC(N)C4)nc3C)ccc2CC1C(=O)NC1CCCc2ccccc21)C(C)(C)C

> <Shape>
0.265

> <Color>
0.061

> <Negative vol penalty>
0.000

$$$$

  -OEChem-04052323023D

 79 88  0     1  0  0  0  0  0999 V2000
  -18.1689  -27.9854   22.8090 C   0  0  0  0  0  0  0  0  0  0  0  0
  -19.3024  -28.6780   23.2225 C   0  0  0  0  0  0  0  0  0  0  0  0
  -25.5002  -14.9692   19.6514 C   0  0  0  0  0  0  0  0  0  0  0  0
  -24.1345  -14.6671   21.6213 C   0  0  0  0  0  0  0  0  0  0  0  0
  -18.2995  -26.7416   22.1927 C   0  0  0  0  0  0  0  0  0  0  0  0
  -20.5672  -28.1266   23.0210 C   0  0  0  0  0  0  0  0  0  0  0  0
  -27.3326  -30.0327   21.6379 C   0  0  0  0  0  0  0  0  0  0  0  0
  -25.8170  -13.6109   19.6626 C   0  0  0  0  0  0  0  0  0  0  0  0
  -24.4512  -13.3087   21.6325 C   0  0  0  0  0  0  0  0  0  0  0  0
  -28.6260  -29.8410   22.1218 C   0  0  0  0  0  0  0  0  0  0  0  0
  -23.4905  -10.5151   19.9914 C   0  0  0  0  0  0  0  0  0  0  0  0
  -22.4501   -9.6103   20.2024 C   0  0  0  0  0  0  0  0  0  0  0  0
  -28.7343  -27.7214   20.9752 C   0  0  0  0  0  0  0  0  0  0  0  0
  -23.5672   -8.7868   22.1800 C   0  0  0  0  0  0  0  0  0  0  0  0
  -24.6590  -15.4974   20.6307 C   0  0  0  0  0  0  0  0  0  0  0  0
  -23.2490  -17.5160   19.9638 C   0  0  0  0  0  0  0  0  0  0  0  0
  -19.5671  -26.1791   21.9748 C   0  0  0  0  0  0  0  0  0  0  0  0
  -26.7252  -29.0635   20.8266 C   0  0  0  0  0  0  0  0  0  0  0  0
  -20.7148  -26.8735   22.4024 C   0  0  0  0  0  0  0  0  0  0  0  0
  -27.4341  -27.9044   20.4802 C   0  0  0  0  0  0  0  0  0  0  0  0
  -25.2925  -12.7806   20.6532 C   0  0  0  0  0  0  0  0  0  0  0  0
  -29.3260  -28.6839   21.7929 C   0  0  0  0  0  0  0  0  0  0  0  0
  -24.5694  -10.5557   20.8747 C   0  0  0  0  0  0  0  0  0  0  0  0
  -22.4884   -8.7462   21.2966 C   0  0  0  0  0  0  0  0  0  0  0  0
  -24.6077   -9.6916   21.9690 C   0  0  0  0  0  0  0  0  0  0  0  0
  -24.3318  -16.9006   20.6199 C   0  0  0  0  0  0  0  0  0  0  0  0
  -23.3810  -18.8505   20.2610 C   0  0  0  0  0  0  0  0  0  0  0  0
  -22.2161  -16.9335   19.1579 C   0  0  0  0  0  0  0  0  0  0  0  0
  -24.1476  -27.2210   21.0801 C   0  0  0  0  0  0  0  0  0  0  0  0
  -24.9030  -26.4143   18.0303 C   0  0  0  0  0  0  0  0  0  0  0  0
  -27.2934  -26.1615   15.6077 C   0  0  0  0  0  0  0  0  0  0  0  0
  -28.2256  -22.0069   21.6983 C   0  0  0  0  0  0  0  0  0  0  0  0
  -19.6558  -24.8105   21.3472 C   0  0  0  0  0  0  0  0  0  0  0  0
  -25.3394  -29.2976   20.2907 C   0  0  0  0  0  0  0  0  0  0  0  0
  -26.8346  -26.8428   19.5958 C   0  0  0  0  0  0  0  0  0  0  0  0
  -21.0510  -24.4656   20.8328 C   0  0  0  0  0  0  0  0  0  0  0  0
  -25.0707  -21.8041   23.6004 C   0  0  0  0  0  0  0  0  0  0  0  0
  -22.1066  -24.8163   21.8765 C   0  0  0  0  0  0  0  0  0  0  0  0
  -24.4558  -20.5366   23.0144 C   0  0  0  0  0  0  0  0  0  0  0  0
  -31.2806  -23.4375   21.9907 C   0  0  0  0  0  0  0  0  0  0  0  0
  -26.5956  -21.7270   23.6604 C   0  0  0  0  0  0  0  0  0  0  0  0
  -26.6108  -20.1329   21.7623 C   0  0  0  0  0  0  0  0  0  0  0  0
  -22.1053  -26.3197   22.1790 C   0  0  1  0  0  0  0  0  0  0  0  0
  -24.6267  -28.0085   19.8935 C   0  0  1  0  0  0  0  0  0  0  0  0
  -30.7776  -24.6657   22.7042 C   0  0  1  0  0  0  0  0  0  0  0  0
  -31.2457  -26.0695   22.3507 C   0  0  2  0  0  0  0  0  0  0  0  0
  -32.2514  -26.8243   23.1951 C   0  0  2  0  0  0  0  0  0  0  0  0
  -25.0807  -20.2117   21.6490 C   0  0  1  0  0  0  0  0  0  0  0  0
  -29.8528  -23.8702   21.8102 C   0  0  2  0  0  0  0  0  0  0  0  0
  -30.8305  -27.3237   23.0985 C   0  0  2  0  0  0  0  0  0  1  0  0
  -33.3796  -27.5496   22.5450 C   0  0  0  0  0  0  0  0  0  0  0  0
  -29.9373  -27.2564   24.2933 C   0  0  0  0  0  0  0  0  0  0  0  0
  -27.6174  -25.4326   13.2284 C   0  0  0  0  0  0  0  0  0  0  0  0
  -24.8327  -23.4958   18.9174 C   0  0  0  0  0  0  0  0  0  0  0  0
  -26.0629  -22.9010   16.8196 C   0  0  0  0  0  0  0  0  0  0  0  0
  -23.7957  -23.9325   16.6839 C   0  0  0  0  0  0  0  0  0  0  0  0
  -28.1306  -28.8735   14.7690 C   0  0  0  0  0  0  0  0  0  0  0  0
  -25.7644  -25.3546   17.3869 C   0  0  1  0  0  0  0  0  0  0  0  0
  -27.3042  -26.5981   14.1538 C   0  0  2  0  0  0  0  0  0  0  0  0
  -25.1248  -23.9399   17.4702 C   0  0  0  0  0  0  0  0  0  0  0  0
  -25.0955  -17.7725   21.2837 N   0  0  0  0  0  0  0  0  0  0  0  0
  -24.4918  -18.9494   21.0462 N   0  0  0  0  0  0  0  0  0  0  0  0
  -25.4746  -27.1148   19.1020 N   0  0  0  0  0  0  0  0  0  0  0  0
  -27.1702  -21.3522   22.3587 N   0  0  0  0  0  0  0  0  0  0  0  0
  -22.6541  -19.9371   19.9246 N   0  0  0  0  0  0  0  0  0  0  0  0
  -22.2299  -15.5470   18.9538 N   0  0  0  0  0  0  0  0  0  0  0  0
  -22.7773  -27.0480   21.1243 N   0  0  0  0  0  0  0  0  0  0  0  0
  -26.0270  -25.8124   16.0268 N   0  0  0  0  0  0  0  0  0  0  0  0
  -28.7651  -23.1049   22.3587 N   0  0  0  0  0  0  0  0  0  0  0  0
  -28.3298  -27.6577   13.9388 N   0  3  0  0  0  0  0  0  0  0  0  0
  -21.3174  -17.6242   18.6206 O   0  0  0  0  0  0  0  0  0  0  0  0
  -24.9609  -26.8001   21.8943 O   0  0  0  0  0  0  0  0  0  0  0  0
  -23.7676  -26.6182   17.5934 O   0  0  0  0  0  0  0  0  0  0  0  0
  -28.3076  -26.1296   16.3012 O   0  0  0  0  0  0  0  0  0  0  0  0
  -28.6612  -21.6379   20.6020 O   0  0  0  0  0  0  0  0  0  0  0  0
  -25.6011  -11.4550   20.6643 O   0  0  0  0  0  0  0  0  0  0  0  0
  -30.5883  -28.4939   22.2644 O   0  0  0  0  0  0  0  0  0  1  0  0
  -21.4885   -7.8785   21.5000 F   0  0  0  0  0  0  0  0  0  0  0  0
  -25.6409   -9.7267   22.8217 F   0  0  0  0  0  0  0  0  0  0  0  0
  1  2  1  0  0  0  0
  1  5  2  0  0  0  0
  2  6  2  0  0  0  0
  3  8  2  0  0  0  0
  3 15  1  0  0  0  0
  4  9  1  0  0  0  0
  4 15  2  0  0  0  0
  5 17  1  0  0  0  0
  6 19  1  0  0  0  0
  7 10  2  0  0  0  0
  7 18  1  0  0  0  0
  8 21  1  0  0  0  0
  9 21  2  0  0  0  0
 10 22  1  0  0  0  0
 11 12  2  0  0  0  0
 11 23  1  0  0  0  0
 12 24  1  0  0  0  0
 13 20  1  0  0  0  0
 13 22  2  0  0  0  0
 14 24  2  0  0  0  0
 14 25  1  0  0  0  0
 15 26  1  0  0  0  0
 16 26  1  0  0  0  0
 16 27  2  0  0  0  0
 16 28  1  0  0  0  0
 17 19  2  0  0  0  0
 17 33  1  0  0  0  0
 18 20  2  0  0  0  0
 18 34  1  0  0  0  0
 19 43  1  0  0  0  0
 20 35  1  0  0  0  0
 21 76  1  0  0  0  0
 22 77  1  0  0  0  0
 23 25  2  0  0  0  0
 23 76  1  0  0  0  0
 24 78  1  0  0  0  0
 25 79  1  0  0  0  0
 26 61  2  0  0  0  0
 27 62  1  0  0  0  0
 27 65  1  0  0  0  0
 28 66  1  0  0  0  0
 28 71  2  0  0  0  0
 29 44  1  0  0  0  0
 29 67  1  0  0  0  0
 29 72  2  0  0  0  0
 30 58  1  0  0  0  0
 30 63  1  0  0  0  0
 30 73  2  0  0  0  0
 31 59  1  0  0  0  0
 31 68  1  0  0  0  0
 31 74  2  0  0  0  0
 32 64  1  0  0  0  0
 32 69  1  0  0  0  0
 32 75  2  0  0  0  0
 33 36  1  0  0  0  0
 34 44  1  0  0  0  0
 35 63  1  0  0  0  0
 36 38  1  0  0  0  0
 37 39  1  0  0  0  0
 37 41  1  0  0  0  0
 38 43  1  0  0  0  0
 39 48  1  0  0  0  0
 40 45  1  0  0  0  0
 40 49  1  0  0  0  0
 41 64  1  0  0  0  0
 42 48  1  0  0  0  0
 42 64  1  0  0  0  0
 43 67  1  0  0  0  0
 44 63  1  0  0  0  0
 45 46  1  0  0  0  0
 45 49  1  0  0  0  0
 46 47  1  0  0  0  0
 46 50  1  0  0  0  0
 47 50  1  0  0  0  0
 47 51  1  0  0  0  0
 48 62  1  0  0  0  0
 49 69  1  0  0  0  0
 50 52  1  0  0  0  0
 50 77  1  0  0  0  0
 53 59  1  0  0  0  0
 54 60  1  0  0  0  0
 55 60  1  0  0  0  0
 56 60  1  0  0  0  0
 57 70  1  0  0  0  0
 58 60  1  0  0  0  0
 58 68  1  0  0  0  0
 59 70  1  0  0  0  0
 61 62  1  0  0  0  0
M  CHG  1  70   1
M  ISO  4  32 100  50 101  69 100  77 101
M  END
> <Batch ID>
0181

> <Smiles>
CNC(C)C(=O)NC(C(=O)N1Cc2cc([101O:1][101C:1]3(C)C(C)C3C3CC3[100NH:0][100C:0](=O)N3CCCC(n4nc(-c5ccc(Oc6ccc(F)cc6F)cc5)c(C(N)=O)c4N)C3)ccc2CC1C(=O)NC1CCCc2ccccc21)C(C)(C)C

> <Shape>
0.199

> <Color>
0.075

> <Negative vol penalty>
0.000

$$$$

  -OEChem-04052323023D

 84 93  0     1  0  0  0  0  0999 V2000
  -28.5313  -36.5887   22.4316 C   0  0  0  0  0  0  0  0  0  0  0  0
  -28.9877  -35.6452   21.5168 C   0  0  0  0  0  0  0  0  0  0  0  0
  -24.1189  -10.5547   23.1582 C   0  0  0  0  0  0  0  0  0  0  0  0
  -24.6879  -12.6390   24.2394 C   0  0  0  0  0  0  0  0  0  0  0  0
  -27.8499  -36.1759   23.5758 C   0  0  0  0  0  0  0  0  0  0  0  0
  -28.7639  -34.2881   21.7462 C   0  0  0  0  0  0  0  0  0  0  0  0
  -27.5226  -28.1643   18.2428 C   0  0  0  0  0  0  0  0  0  0  0  0
  -23.7341  -10.0216   24.3884 C   0  0  0  0  0  0  0  0  0  0  0  0
  -24.3030  -12.1060   25.4696 C   0  0  0  0  0  0  0  0  0  0  0  0
  -28.0026  -26.8584   18.1529 C   0  0  0  0  0  0  0  0  0  0  0  0
  -21.0629  -10.1987   26.4539 C   0  0  0  0  0  0  0  0  0  0  0  0
  -19.8635   -9.4885   26.5060 C   0  0  0  0  0  0  0  0  0  0  0  0
  -26.7444  -26.2667   20.1242 C   0  0  0  0  0  0  0  0  0  0  0  0
  -21.0595   -7.5227   27.2425 C   0  0  0  0  0  0  0  0  0  0  0  0
  -24.5959  -11.8634   23.0837 C   0  0  0  0  0  0  0  0  0  0  0  0
  -24.1834  -13.1111   20.8972 C   0  0  0  0  0  0  0  0  0  0  0  0
  -27.6091  -34.8137   23.8145 C   0  0  0  0  0  0  0  0  0  0  0  0
  -26.6570  -28.5345   19.2820 C   0  0  0  0  0  0  0  0  0  0  0  0
  -28.0797  -33.8566   22.8953 C   0  0  0  0  0  0  0  0  0  0  0  0
  -26.2528  -27.5773   20.2235 C   0  0  0  0  0  0  0  0  0  0  0  0
  -23.8261  -10.7972   25.5441 C   0  0  0  0  0  0  0  0  0  0  0  0
  -27.6159  -25.9102   19.0954 C   0  0  0  0  0  0  0  0  0  0  0  0
  -22.2606   -9.5708   26.7961 C   0  0  0  0  0  0  0  0  0  0  0  0
  -19.8618   -8.1505   26.9003 C   0  0  0  0  0  0  0  0  0  0  0  0
  -22.2589   -8.2329   27.1904 C   0  0  0  0  0  0  0  0  0  0  0  0
  -24.9941  -12.4144   21.8133 C   0  0  0  0  0  0  0  0  0  0  0  0
  -29.4386  -20.0158   19.3070 C   0  0  0  0  0  0  0  0  0  0  0  0
  -29.8995  -21.1599   18.6935 C   0  0  0  0  0  0  0  0  0  0  0  0
  -27.8274  -21.2375   20.3752 C   0  0  0  0  0  0  0  0  0  0  0  0
  -28.2887  -22.3818   19.7623 C   0  0  0  0  0  0  0  0  0  0  0  0
  -25.0270  -13.4206   19.8585 C   0  0  0  0  0  0  0  0  0  0  0  0
  -22.7922  -13.4484   20.9781 C   0  0  0  0  0  0  0  0  0  0  0  0
  -26.7969  -30.6093   21.6861 C   0  0  0  0  0  0  0  0  0  0  0  0
  -23.7125  -29.7083   22.1298 C   0  0  0  0  0  0  0  0  0  0  0  0
  -21.2931  -27.3423   21.6878 C   0  0  0  0  0  0  0  0  0  0  0  0
  -30.0451  -15.3616   18.1529 C   0  0  0  0  0  0  0  0  0  0  0  0
  -26.9095  -34.4126   25.0890 C   0  0  0  0  0  0  0  0  0  0  0  0
  -26.1268  -29.9405   19.3495 C   0  0  0  0  0  0  0  0  0  0  0  0
  -25.3094  -27.9188   21.3468 C   0  0  0  0  0  0  0  0  0  0  0  0
  -26.3850  -32.9792   25.0707 C   0  0  0  0  0  0  0  0  0  0  0  0
  -29.6902  -11.8415   18.7973 C   0  0  0  0  0  0  0  0  0  0  0  0
  -27.4519  -32.0270   24.5397 C   0  0  0  0  0  0  0  0  0  0  0  0
  -28.4040  -11.7345   19.6097 C   0  0  0  0  0  0  0  0  0  0  0  0
  -30.4357  -13.1280   19.1259 C   0  0  0  0  0  0  0  0  0  0  0  0
  -29.3164  -17.3461   19.6992 C   0  0  0  0  0  0  0  0  0  0  0  0
  -29.8980  -17.8750   17.7306 C   0  0  0  0  0  0  0  0  0  0  0  0
  -28.3084  -14.2776   19.6800 C   0  0  0  0  0  0  0  0  0  0  0  0
  -27.8346  -32.3769   23.0966 C   0  0  1  0  0  0  0  0  0  0  0  0
  -30.0543  -18.5693   19.1031 C   0  0  0  0  0  0  0  0  0  0  0  0
  -25.6571  -30.3356   20.7462 C   0  0  1  0  0  0  0  0  0  0  0  0
  -27.5291  -12.9781   19.3964 C   0  0  2  0  0  0  0  0  0  0  0  0
  -26.6703  -21.2707   21.3140 C   0  0  0  0  0  0  0  0  0  0  0  0
  -30.6229  -21.1957   16.2931 C   0  0  0  0  0  0  0  0  0  0  0  0
  -18.8799  -26.8743   22.1927 C   0  0  0  0  0  0  0  0  0  0  0  0
  -24.4412  -29.0894   25.0274 C   0  0  0  0  0  0  0  0  0  0  0  0
  -22.3213  -27.7694   25.2055 C   0  0  0  0  0  0  0  0  0  0  0  0
  -22.2287  -30.2156   24.7259 C   0  0  0  0  0  0  0  0  0  0  0  0
  -20.6058  -27.1671   18.8145 C   0  0  0  0  0  0  0  0  0  0  0  0
  -31.0557  -21.1159   17.7556 C   0  0  0  0  0  0  0  0  0  0  0  0
  -27.6463  -23.7150   20.0098 C   0  0  0  0  0  0  0  0  0  1  0  0
  -23.0178  -28.6281   22.9233 C   0  0  1  0  0  0  0  0  0  0  0  0
  -19.8648  -27.4441   21.1837 C   0  0  2  0  0  0  0  0  0  0  0  0
  -23.0216  -28.9193   24.4506 C   0  0  0  0  0  0  0  0  0  0  0  0
  -26.2557  -12.2884   21.3934 N   0  0  0  0  0  0  0  0  0  0  0  0
  -28.3943  -20.0341   20.1588 N   0  0  0  0  0  0  0  0  0  0  0  0
  -29.3327  -22.3634   18.9102 N   0  0  0  0  0  0  0  0  0  0  0  0
  -26.2442  -12.9101   20.2020 N   0  0  0  0  0  0  0  0  0  0  0  0
  -24.8234  -29.3083   21.3737 N   0  0  0  0  0  0  0  0  0  0  0  0
  -29.5895  -14.3138   18.9609 N   0  0  0  0  0  0  0  0  0  0  0  0
  -29.6694  -16.6439   18.4771 N   0  0  0  0  0  0  0  0  0  0  0  0
  -24.8389  -14.0769   18.6939 N   0  0  0  0  0  0  0  0  0  0  0  0
  -22.0740  -13.0538   22.1151 N   0  0  0  0  0  0  0  0  0  0  0  0
  -26.8243  -31.9010   22.1762 N   0  0  0  0  0  0  0  0  0  0  0  0
  -21.6858  -28.4893   22.3448 N   0  0  0  0  0  0  0  0  0  0  0  0
  -19.7126  -26.6956   19.9040 N   0  3  0  0  0  0  0  0  0  0  0  0
  -22.1995  -14.0667   20.0616 O   0  0  0  0  0  0  0  0  0  0  0  0
  -27.5919  -29.7143   21.9485 O   0  0  0  0  0  0  0  0  0  0  0  0
  -23.2809  -30.8631   22.1735 O   0  0  0  0  0  0  0  0  0  0  0  0
  -21.9894  -26.3437   21.5192 O   0  0  0  0  0  0  0  0  0  0  0  0
  -30.7918  -15.1631   17.1854 O   0  0  0  0  0  0  0  0  0  0  0  0
  -23.4505  -10.2775   26.7446 O   0  0  0  0  0  0  0  0  0  0  0  0
  -28.0835  -24.6350   19.0105 O   0  0  0  0  0  0  0  0  0  1  0  0
  -18.7097   -7.4691   26.9518 F   0  0  0  0  0  0  0  0  0  0  0  0
  -23.4062   -7.6247   27.5214 F   0  0  0  0  0  0  0  0  0  0  0  0
  1  2  1  0  0  0  0
  1  5  2  0  0  0  0
  2  6  2  0  0  0  0
  3  8  2  0  0  0  0
  3 15  1  0  0  0  0
  4  9  1  0  0  0  0
  4 15  2  0  0  0  0
  5 17  1  0  0  0  0
  6 19  1  0  0  0  0
  7 10  2  0  0  0  0
  7 18  1  0  0  0  0
  8 21  1  0  0  0  0
  9 21  2  0  0  0  0
 10 22  1  0  0  0  0
 11 12  2  0  0  0  0
 11 23  1  0  0  0  0
 12 24  1  0  0  0  0
 13 20  1  0  0  0  0
 13 22  2  0  0  0  0
 14 24  2  0  0  0  0
 14 25  1  0  0  0  0
 15 26  1  0  0  0  0
 16 26  1  0  0  0  0
 16 31  2  0  0  0  0
 16 32  1  0  0  0  0
 17 19  2  0  0  0  0
 17 37  1  0  0  0  0
 18 20  2  0  0  0  0
 18 38  1  0  0  0  0
 19 48  1  0  0  0  0
 20 39  1  0  0  0  0
 21 81  1  0  0  0  0
 22 82  1  0  0  0  0
 23 25  2  0  0  0  0
 23 81  1  0  0  0  0
 24 83  1  0  0  0  0
 25 84  1  0  0  0  0
 26 64  2  0  0  0  0
 27 28  2  0  0  0  0
 27 49  1  0  0  0  0
 27 65  1  0  0  0  0
 28 59  1  0  0  0  0
 28 66  1  0  0  0  0
 29 30  1  0  0  0  0
 29 52  1  0  0  0  0
 29 65  2  0  0  0  0
 30 60  1  0  0  0  0
 30 66  2  0  0  0  0
 31 67  1  0  0  0  0
 31 71  1  0  0  0  0
 32 72  1  0  0  0  0
 32 76  2  0  0  0  0
 33 50  1  0  0  0  0
 33 73  1  0  0  0  0
 33 77  2  0  0  0  0
 34 61  1  0  0  0  0
 34 68  1  0  0  0  0
 34 78  2  0  0  0  0
 35 62  1  0  0  0  0
 35 74  1  0  0  0  0
 35 79  2  0  0  0  0
 36 69  1  0  0  0  0
 36 70  1  0  0  0  0
 36 80  2  0  0  0  0
 37 40  1  0  0  0  0
 38 50  1  0  0  0  0
 39 68  1  0  0  0  0
 40 42  1  0  0  0  0
 41 43  1  0  0  0  0
 41 44  1  0  0  0  0
 42 48  1  0  0  0  0
 43 51  1  0  0  0  0
 44 69  1  0  0  0  0
 45 49  1  0  0  0  0
 45 70  1  0  0  0  0
 46 49  1  0  0  0  0
 46 70  1  0  0  0  0
 47 51  1  0  0  0  0
 47 69  1  0  0  0  0
 48 73  1  0  0  0  0
 50 68  1  0  0  0  0
 51 67  1  0  0  0  0
 53 59  1  0  0  0  0
 54 62  1  0  0  0  0
 55 63  1  0  0  0  0
 56 63  1  0  0  0  0
 57 63  1  0  0  0  0
 58 75  1  0  0  0  0
 60 82  1  0  0  0  0
 61 63  1  0  0  0  0
 61 74  1  0  0  0  0
 62 75  1  0  0  0  0
 64 67  1  0  0  0  0
M  CHG  1  75   1
M  ISO  4  36 100  60 101  70 100  82 101
M  END
> <Batch ID>
0181

> <Smiles>
CCc1nc([101CH2:1][101O:1]c2ccc3c(c2)CN(C(=O)C(NC(=O)C(C)NC)C(C)(C)C)C(C(=O)NC2CCCc4ccccc42)C3)c(C)nc1C1C[100N:0]([100C:0](=O)N2CCCC(n3nc(-c4ccc(Oc5ccc(F)cc5F)cc4)c(C(N)=O)c3N)C2)C1

> <Shape>
0.276

> <Color>
0.109

> <Negative vol penalty>
0.000

$$$$

  -OEChem-04052323023D

 83 92  0     1  0  0  0  0  0999 V2000
  -26.0235  -10.4504   23.3823 C   0  0  0  0  0  0  0  0  0  0  0  0
  -26.7999  -11.5847   23.5966 C   0  0  0  0  0  0  0  0  0  0  0  0
  -22.3998  -27.6572   22.5709 C   0  0  0  0  0  0  0  0  0  0  0  0
  -23.0407  -29.2667   20.8869 C   0  0  0  0  0  0  0  0  0  0  0  0
  -25.2708  -10.3327   22.2146 C   0  0  0  0  0  0  0  0  0  0  0  0
  -26.8248  -12.6016   22.6428 C   0  0  0  0  0  0  0  0  0  0  0  0
  -27.4220  -19.7183   22.0836 C   0  0  0  0  0  0  0  0  0  0  0  0
  -29.3274  -24.8934   17.1661 C   0  0  0  0  0  0  0  0  0  0  0  0
  -21.4279  -28.5389   23.0438 C   0  0  0  0  0  0  0  0  0  0  0  0
  -22.0688  -30.1484   21.3598 C   0  0  0  0  0  0  0  0  0  0  0  0
  -28.1665  -20.6872   21.4124 C   0  0  0  0  0  0  0  0  0  0  0  0
  -18.3169  -29.5246   22.1591 C   0  0  0  0  0  0  0  0  0  0  0  0
  -17.0509  -29.0073   22.4337 C   0  0  0  0  0  0  0  0  0  0  0  0
  -29.4082  -26.2403   17.5016 C   0  0  0  0  0  0  0  0  0  0  0  0
  -26.7640  -20.4104   19.4694 C   0  0  0  0  0  0  0  0  0  0  0  0
  -17.2662  -29.7035   24.7372 C   0  0  0  0  0  0  0  0  0  0  0  0
  -23.2063  -28.0211   21.4925 C   0  0  0  0  0  0  0  0  0  0  0  0
  -24.0560  -26.1296   20.0067 C   0  0  0  0  0  0  0  0  0  0  0  0
  -25.2790  -11.3529   21.2504 C   0  0  0  0  0  0  0  0  0  0  0  0
  -26.3478  -19.0792   21.4479 C   0  0  0  0  0  0  0  0  0  0  0  0
  -26.0726  -12.4968   21.4605 C   0  0  0  0  0  0  0  0  0  0  0  0
  -26.0057  -19.4355   20.1356 C   0  0  0  0  0  0  0  0  0  0  0  0
  -30.0426  -23.9552   17.9022 C   0  0  0  0  0  0  0  0  0  0  0  0
  -21.2623  -29.7845   22.4382 C   0  0  0  0  0  0  0  0  0  0  0  0
  -27.8394  -21.0314   20.1041 C   0  0  0  0  0  0  0  0  0  0  0  0
  -19.0575  -30.1313   23.1736 C   0  0  0  0  0  0  0  0  0  0  0  0
  -16.5256  -29.0968   23.7228 C   0  0  0  0  0  0  0  0  0  0  0  0
  -18.5322  -30.2207   24.4626 C   0  0  0  0  0  0  0  0  0  0  0  0
  -24.2108  -27.1110   21.0040 C   0  0  0  0  0  0  0  0  0  0  0  0
  -30.2118  -26.5947   18.5732 C   0  0  0  0  0  0  0  0  0  0  0  0
  -30.8180  -24.4120   18.9558 C   0  0  0  0  0  0  0  0  0  0  0  0
  -25.2923  -25.5388   19.9114 C   0  0  0  0  0  0  0  0  0  0  0  0
  -22.8981  -25.7829   19.2354 C   0  0  0  0  0  0  0  0  0  0  0  0
  -25.6845  -16.0780   20.6376 C   0  0  0  0  0  0  0  0  0  0  0  0
  -22.8183  -17.3478   19.8038 C   0  0  0  0  0  0  0  0  0  0  0  0
  -21.0321  -20.0992   18.8625 C   0  0  0  0  0  0  0  0  0  0  0  0
  -30.7479  -27.8139   21.6613 C   0  0  0  0  0  0  0  0  0  0  0  0
  -24.4859  -11.1595   19.9822 C   0  0  0  0  0  0  0  0  0  0  0  0
  -25.5378  -18.0553   22.1948 C   0  0  0  0  0  0  0  0  0  0  0  0
  -24.8491  -18.7937   19.4154 C   0  0  0  0  0  0  0  0  0  0  0  0
  -24.2746  -12.4492   19.1934 C   0  0  0  0  0  0  0  0  0  0  0  0
  -29.1857  -24.5507   22.4615 C   0  0  0  0  0  0  0  0  0  0  0  0
  -25.5829  -13.2250   19.0781 C   0  0  0  0  0  0  0  0  0  0  0  0
  -27.7085  -24.8028   22.1751 C   0  0  0  0  0  0  0  0  0  0  0  0
  -31.6460  -28.8331   18.5430 C   0  0  0  0  0  0  0  0  0  0  0  0
  -29.9100  -25.8347   22.8498 C   0  0  0  0  0  0  0  0  0  0  0  0
  -31.9241  -29.3003   19.9670 C   0  0  0  0  0  0  0  0  0  0  0  0
  -28.3000  -27.1778   21.5395 C   0  0  0  0  0  0  0  0  0  0  0  0
  -26.1064  -13.6323   20.4607 C   0  0  1  0  0  0  0  0  0  0  0  0
  -30.3908  -28.0939   19.0590 C   0  0  2  0  0  0  0  0  0  0  0  0
  -24.7854  -17.1004   21.2732 C   0  0  1  0  0  0  0  0  0  0  0  0
  -27.5452  -25.9060   21.1188 C   0  0  2  0  0  0  0  0  0  0  0  0
  -31.6076  -23.4494   19.7810 C   0  0  0  0  0  0  0  0  0  0  0  0
  -18.7168  -20.8177   18.2141 C   0  0  0  0  0  0  0  0  0  0  0  0
  -23.1971  -16.0791   17.0548 C   0  0  0  0  0  0  0  0  0  0  0  0
  -21.3901  -17.5807   16.1899 C   0  0  0  0  0  0  0  0  0  0  0  0
  -20.8759  -15.9110   17.9705 C   0  0  0  0  0  0  0  0  0  0  0  0
  -20.8518  -21.9786   21.1416 C   0  0  0  0  0  0  0  0  0  0  0  0
  -29.9589  -22.4916   17.5429 C   0  0  0  0  0  0  0  0  0  0  0  0
  -28.6645  -21.8485   18.0286 C   0  0  0  0  0  0  0  0  0  1  0  0
  -22.2438  -17.9574   18.5479 C   0  0  1  0  0  0  0  0  0  0  0  0
  -19.7097  -20.6586   19.3550 C   0  0  2  0  0  0  0  0  0  0  0  0
  -21.9498  -16.8929   17.4534 C   0  0  0  0  0  0  0  0  0  0  0  0
  -25.4479  -27.1449   21.5064 N   0  0  0  0  0  0  0  0  0  0  0  0
  -30.9213  -25.7121   19.3116 N   0  0  0  0  0  0  0  0  0  0  0  0
  -26.0816  -26.1773   20.8222 N   0  0  0  0  0  0  0  0  0  0  0  0
  -24.0915  -17.7937   20.1859 N   0  0  0  0  0  0  0  0  0  0  0  0
  -29.7054  -26.9019   21.8668 N   0  0  0  0  0  0  0  0  0  0  0  0
  -30.8998  -28.3620   20.4085 N   0  0  0  0  0  0  0  0  0  0  0  0
  -25.7702  -24.5407   19.1383 N   0  0  0  0  0  0  0  0  0  0  0  0
  -21.7093  -26.4903   19.4601 N   0  0  0  0  0  0  0  0  0  0  0  0
  -25.3707  -14.7724   20.9640 N   0  0  0  0  0  0  0  0  0  0  0  0
  -21.0750  -18.7248   18.9644 N   0  0  0  0  0  0  0  0  0  0  0  0
  -19.9150  -21.9917   19.9887 N   0  3  0  0  0  0  0  0  0  0  0  0
  -22.9128  -24.8618   18.3840 O   0  0  0  0  0  0  0  0  0  0  0  0
  -26.5945  -16.4463   19.9043 O   0  0  0  0  0  0  0  0  0  0  0  0
  -22.1586  -16.5122   20.4269 O   0  0  0  0  0  0  0  0  0  0  0  0
  -21.9353  -20.8101   18.4271 O   0  0  0  0  0  0  0  0  0  0  0  0
  -31.5400  -28.1102   22.5662 O   0  0  0  0  0  0  0  0  0  0  0  0
  -20.3139  -30.6450   22.8992 O   0  0  0  0  0  0  0  0  0  0  0  0
  -28.5649  -21.9763   19.4464 O   0  0  0  0  0  0  0  0  0  1  0  0
  -15.3092  -28.6014   23.9860 F   0  0  0  0  0  0  0  0  0  0  0  0
  -19.2385  -30.8035   25.4410 F   0  0  0  0  0  0  0  0  0  0  0  0
  1  2  1  0  0  0  0
  1  5  2  0  0  0  0
  2  6  2  0  0  0  0
  3  9  2  0  0  0  0
  3 17  1  0  0  0  0
  4 10  1  0  0  0  0
  4 17  2  0  0  0  0
  5 19  1  0  0  0  0
  6 21  1  0  0  0  0
  7 11  2  0  0  0  0
  7 20  1  0  0  0  0
  8 14  2  0  0  0  0
  8 23  1  0  0  0  0
  9 24  1  0  0  0  0
 10 24  2  0  0  0  0
 11 25  1  0  0  0  0
 12 13  2  0  0  0  0
 12 26  1  0  0  0  0
 13 27  1  0  0  0  0
 14 30  1  0  0  0  0
 15 22  1  0  0  0  0
 15 25  2  0  0  0  0
 16 27  2  0  0  0  0
 16 28  1  0  0  0  0
 17 29  1  0  0  0  0
 18 29  1  0  0  0  0
 18 32  2  0  0  0  0
 18 33  1  0  0  0  0
 19 21  2  0  0  0  0
 19 38  1  0  0  0  0
 20 22  2  0  0  0  0
 20 39  1  0  0  0  0
 21 49  1  0  0  0  0
 22 40  1  0  0  0  0
 23 31  2  0  0  0  0
 23 59  1  0  0  0  0
 24 80  1  0  0  0  0
 25 81  1  0  0  0  0
 26 28  2  0  0  0  0
 26 80  1  0  0  0  0
 27 82  1  0  0  0  0
 28 83  1  0  0  0  0
 29 64  2  0  0  0  0
 30 50  1  0  0  0  0
 30 65  2  0  0  0  0
 31 53  1  0  0  0  0
 31 65  1  0  0  0  0
 32 66  1  0  0  0  0
 32 70  1  0  0  0  0
 33 71  1  0  0  0  0
 33 75  2  0  0  0  0
 34 51  1  0  0  0  0
 34 72  1  0  0  0  0
 34 76  2  0  0  0  0
 35 61  1  0  0  0  0
 35 67  1  0  0  0  0
 35 77  2  0  0  0  0
 36 62  1  0  0  0  0
 36 73  1  0  0  0  0
 36 78  2  0  0  0  0
 37 68  1  0  0  0  0
 37 69  1  0  0  0  0
 37 79  2  0  0  0  0
 38 41  1  0  0  0  0
 39 51  1  0  0  0  0
 40 67  1  0  0  0  0
 41 43  1  0  0  0  0
 42 44  1  0  0  0  0
 42 46  1  0  0  0  0
 43 49  1  0  0  0  0
 44 52  1  0  0  0  0
 45 47  1  0  0  0  0
 45 50  1  0  0  0  0
 46 68  1  0  0  0  0
 47 69  1  0  0  0  0
 48 52  1  0  0  0  0
 48 68  1  0  0  0  0
 49 72  1  0  0  0  0
 50 69  1  0  0  0  0
 51 67  1  0  0  0  0
 52 66  1  0  0  0  0
 54 62  1  0  0  0  0
 55 63  1  0  0  0  0
 56 63  1  0  0  0  0
 57 63  1  0  0  0  0
 58 74  1  0  0  0  0
 59 60  1  0  0  0  0
 60 81  1  0  0  0  0
 61 63  1  0  0  0  0
 61 73  1  0  0  0  0
 62 74  1  0  0  0  0
 64 66  1  0  0  0  0
M  CHG  1  74   1
M  ISO  4  37 100  60 101  69 100  81 101
M  END
> <Batch ID>
0181

> <Smiles>
CNC(C)C(=O)NC(C(=O)N1Cc2cc([101O:1][101CH2:1]Cc3ccc(C4CC[100N:0]4[100C:0](=O)N4CCCC(n5nc(-c6ccc(Oc7ccc(F)cc7F)cc6)c(C(N)=O)c5N)C4)nc3C)ccc2CC1C(=O)NC1CCCc2ccccc21)C(C)(C)C

> <Shape>
0.201

> <Color>
0.068

> <Negative vol penalty>
0.000

$$$$

  -OEChem-04052323023D

 86 95  0     1  0  0  0  0  0999 V2000
  -17.9762  -24.8844   21.3120 C   0  0  0  0  0  0  0  0  0  0  0  0
  -19.3352  -24.6107   21.1944 C   0  0  0  0  0  0  0  0  0  0  0  0
  -23.9460  -12.8393   21.1045 C   0  0  0  0  0  0  0  0  0  0  0  0
  -26.3303  -12.4501   21.1307 C   0  0  0  0  0  0  0  0  0  0  0  0
  -17.5549  -26.1241   21.7910 C   0  0  0  0  0  0  0  0  0  0  0  0
  -20.2736  -25.5772   21.5547 C   0  0  0  0  0  0  0  0  0  0  0  0
  -24.0686  -23.6678   24.3109 C   0  0  0  0  0  0  0  0  0  0  0  0
  -23.7244  -11.4715   20.9450 C   0  0  0  0  0  0  0  0  0  0  0  0
  -26.1087  -11.0822   20.9713 C   0  0  0  0  0  0  0  0  0  0  0  0
  -25.0623  -22.9680   23.6278 C   0  0  0  0  0  0  0  0  0  0  0  0
  -23.7058   -8.7074   22.8925 C   0  0  0  0  0  0  0  0  0  0  0  0
  -22.7171   -8.1150   23.6780 C   0  0  0  0  0  0  0  0  0  0  0  0
  -26.4799  -24.9183   23.7040 C   0  0  0  0  0  0  0  0  0  0  0  0
  -21.5309   -7.4478   21.6817 C   0  0  0  0  0  0  0  0  0  0  0  0
  -25.2489  -13.3287   21.1973 C   0  0  0  0  0  0  0  0  0  0  0  0
  -25.5811  -15.4511   22.5730 C   0  0  0  0  0  0  0  0  0  0  0  0
  -18.4887  -27.1028   22.1664 C   0  0  0  0  0  0  0  0  0  0  0  0
  -24.2693  -25.0038   24.6868 C   0  0  0  0  0  0  0  0  0  0  0  0
  -19.8643  -26.8317   22.0378 C   0  0  0  0  0  0  0  0  0  0  0  0
  -25.4882  -25.6321   24.3941 C   0  0  0  0  0  0  0  0  0  0  0  0
  -24.8058  -10.5929   20.8785 C   0  0  0  0  0  0  0  0  0  0  0  0
  -26.2670  -23.5941   23.3217 C   0  0  0  0  0  0  0  0  0  0  0  0
  -23.6071   -8.6701   21.5016 C   0  0  0  0  0  0  0  0  0  0  0  0
  -21.6297   -7.4851   23.0726 C   0  0  0  0  0  0  0  0  0  0  0  0
  -22.5197   -8.0403   20.8962 C   0  0  0  0  0  0  0  0  0  0  0  0
  -25.4785  -14.7417   21.3615 C   0  0  0  0  0  0  0  0  0  0  0  0
  -25.7986  -16.7525   22.1915 C   0  0  0  0  0  0  0  0  0  0  0  0
  -28.9770  -20.0776   22.1865 C   0  0  0  0  0  0  0  0  0  0  0  0
  -28.3439  -21.3399   20.2304 C   0  0  0  0  0  0  0  0  0  0  0  0
  -30.1595  -19.9504   20.2468 C   0  0  0  0  0  0  0  0  0  0  0  0
  -25.4883  -14.9762   23.9227 C   0  0  0  0  0  0  0  0  0  0  0  0
  -22.8592  -27.7660   23.9898 C   0  0  0  0  0  0  0  0  0  0  0  0
  -24.8797  -28.9208   26.2496 C   0  0  0  0  0  0  0  0  0  0  0  0
  -27.7988  -28.5633   27.9811 C   0  0  0  0  0  0  0  0  0  0  0  0
  -28.1304  -19.2203   17.2596 C   0  0  0  0  0  0  0  0  0  0  0  0
  -17.9850  -28.4452   22.6341 C   0  0  0  0  0  0  0  0  0  0  0  0
  -23.1978  -25.7365   25.4467 C   0  0  0  0  0  0  0  0  0  0  0  0
  -25.7610  -27.0585   24.7933 C   0  0  0  0  0  0  0  0  0  0  0  0
  -19.0460  -29.2790   23.3478 C   0  0  0  0  0  0  0  0  0  0  0  0
  -24.8949  -19.8095   18.6237 C   0  0  0  0  0  0  0  0  0  0  0  0
  -20.3525  -29.2677   22.5604 C   0  0  0  0  0  0  0  0  0  0  0  0
  -24.6868  -18.6415   19.5894 C   0  0  0  0  0  0  0  0  0  0  0  0
  -25.6611  -19.3794   17.3747 C   0  0  0  0  0  0  0  0  0  0  0  0
  -26.7360  -17.5334   18.6036 C   0  0  0  0  0  0  0  0  0  0  0  0
  -32.7367  -19.8316   17.7875 C   0  0  0  0  0  0  0  0  0  0  0  0
  -31.5667  -17.7732   17.1610 C   0  0  0  0  0  0  0  0  0  0  0  0
  -20.9129  -27.8453   22.4418 C   0  0  1  0  0  0  0  0  0  0  0  0
  -23.3117  -27.2531   25.3277 C   0  0  1  0  0  0  0  0  0  0  0  0
  -31.2791  -19.9030   18.2129 C   0  0  1  0  0  0  0  0  0  0  0  0
  -26.0167  -17.9304   19.9041 C   0  0  2  0  0  0  0  0  0  0  0  0
  -30.5961  -18.9377   17.2515 C   0  0  2  0  0  0  0  0  0  0  0  0
  -28.7894  -19.6507   23.6234 C   0  0  0  0  0  0  0  0  0  0  0  0
  -29.1989  -29.6861   29.7351 C   0  0  0  0  0  0  0  0  0  0  0  0
  -25.8112  -30.9706   24.1903 C   0  0  0  0  0  0  0  0  0  0  0  0
  -27.8084  -31.4106   25.6345 C   0  0  0  0  0  0  0  0  0  0  0  0
  -25.5166  -31.8751   26.5032 C   0  0  0  0  0  0  0  0  0  0  0  0
  -27.5787  -26.2443   29.8068 C   0  0  0  0  0  0  0  0  0  0  0  0
  -26.9618  -21.5571   22.2945 C   0  0  0  0  0  0  0  0  0  1  0  0
  -26.2822  -29.4795   26.2448 C   0  0  1  0  0  0  0  0  0  0  0  0
  -28.1088  -28.6610   29.4640 C   0  0  2  0  0  0  0  0  0  0  0  0
  -26.3490  -30.9076   25.6338 C   0  0  0  0  0  0  0  0  0  0  0  0
  -25.6190  -15.5273   20.2904 N   0  0  0  0  0  0  0  0  0  0  0  0
  -29.9960  -19.5539   21.5592 N   0  0  0  0  0  0  0  0  0  0  0  0
  -29.3562  -20.8384   19.5586 N   0  0  0  0  0  0  0  0  0  0  0  0
  -31.1596  -19.4427   19.6013 N   0  0  0  0  0  0  0  0  0  0  0  0
  -25.8121  -16.7438   20.8277 N   0  0  0  0  0  0  0  0  0  0  0  0
  -28.0833  -20.9942   21.5820 N   0  0  0  0  0  0  0  0  0  0  0  0
  -24.6799  -27.7347   25.5291 N   0  0  0  0  0  0  0  0  0  0  0  0
  -26.9128  -18.7132   17.7424 N   0  0  0  0  0  0  0  0  0  0  0  0
  -25.9776  -17.8920   22.8929 N   0  0  0  0  0  0  0  0  0  0  0  0
  -27.4900  -22.2331   19.6307 N   0  0  0  0  0  0  0  0  0  0  0  0
  -25.2621  -13.6096   24.1360 N   0  0  0  0  0  0  0  0  0  0  0  0
  -21.5508  -27.4486   23.6788 N   0  0  0  0  0  0  0  0  0  0  0  0
  -26.7599  -29.3952   27.6207 N   0  0  0  0  0  0  0  0  0  0  0  0
  -29.2696  -18.5333   17.6610 N   0  0  0  0  0  0  0  0  0  0  0  0
  -32.9154  -18.4273   17.2721 N   0  3  0  0  0  0  0  0  0  0  0  0
  -28.5641  -27.3415   29.9860 N   0  3  0  0  0  0  0  0  0  0  0  0
  -25.5862  -15.7437   24.9100 O   0  0  0  0  0  0  0  0  0  0  0  0
  -23.6390  -28.4038   23.2921 O   0  0  0  0  0  0  0  0  0  0  0  0
  -23.9958  -29.5110   26.8756 O   0  0  0  0  0  0  0  0  0  0  0  0
  -28.4188  -27.8258   27.2182 O   0  0  0  0  0  0  0  0  0  0  0  0
  -28.1979  -20.2150   16.5295 O   0  0  0  0  0  0  0  0  0  0  0  0
  -24.5899   -9.2581   20.7231 O   0  0  0  0  0  0  0  0  0  0  0  0
  -27.2383  -22.9135   22.6544 O   0  0  0  0  0  0  0  0  0  1  0  0
  -20.6810   -6.9149   23.8270 F   0  0  0  0  0  0  0  0  0  0  0  0
  -22.4200   -8.0001   19.5604 F   0  0  0  0  0  0  0  0  0  0  0  0
  1  2  1  0  0  0  0
  1  5  2  0  0  0  0
  2  6  2  0  0  0  0
  3  8  2  0  0  0  0
  3 15  1  0  0  0  0
  4  9  1  0  0  0  0
  4 15  2  0  0  0  0
  5 17  1  0  0  0  0
  6 19  1  0  0  0  0
  7 10  2  0  0  0  0
  7 18  1  0  0  0  0
  8 21  1  0  0  0  0
  9 21  2  0  0  0  0
 10 22  1  0  0  0  0
 11 12  2  0  0  0  0
 11 23  1  0  0  0  0
 12 24  1  0  0  0  0
 13 20  1  0  0  0  0
 13 22  2  0  0  0  0
 14 24  2  0  0  0  0
 14 25  1  0  0  0  0
 15 26  1  0  0  0  0
 16 26  1  0  0  0  0
 16 27  2  0  0  0  0
 16 31  1  0  0  0  0
 17 19  2  0  0  0  0
 17 36  1  0  0  0  0
 18 20  2  0  0  0  0
 18 37  1  0  0  0  0
 19 47  1  0  0  0  0
 20 38  1  0  0  0  0
 21 83  1  0  0  0  0
 22 84  1  0  0  0  0
 23 25  2  0  0  0  0
 23 83  1  0  0  0  0
 24 85  1  0  0  0  0
 25 86  1  0  0  0  0
 26 62  2  0  0  0  0
 27 66  1  0  0  0  0
 27 70  1  0  0  0  0
 28 52  1  0  0  0  0
 28 63  2  0  0  0  0
 28 67  1  0  0  0  0
 29 64  2  0  0  0  0
 29 67  1  0  0  0  0
 29 71  1  0  0  0  0
 30 63  1  0  0  0  0
 30 64  1  0  0  0  0
 30 65  2  0  0  0  0
 31 72  1  0  0  0  0
 31 78  2  0  0  0  0
 32 48  1  0  0  0  0
 32 73  1  0  0  0  0
 32 79  2  0  0  0  0
 33 59  1  0  0  0  0
 33 68  1  0  0  0  0
 33 80  2  0  0  0  0
 34 60  1  0  0  0  0
 34 74  1  0  0  0  0
 34 81  2  0  0  0  0
 35 69  1  0  0  0  0
 35 75  1  0  0  0  0
 35 82  2  0  0  0  0
 36 39  1  0  0  0  0
 37 48  1  0  0  0  0
 38 68  1  0  0  0  0
 39 41  1  0  0  0  0
 40 42  1  0  0  0  0
 40 43  1  0  0  0  0
 41 47  1  0  0  0  0
 42 50  1  0  0  0  0
 43 69  1  0  0  0  0
 44 50  1  0  0  0  0
 44 69  1  0  0  0  0
 45 49  1  0  0  0  0
 45 76  1  0  0  0  0
 46 51  1  0  0  0  0
 46 76  1  0  0  0  0
 47 73  1  0  0  0  0
 48 68  1  0  0  0  0
 49 51  1  0  0  0  0
 49 65  1  0  0  0  0
 50 66  1  0  0  0  0
 51 75  1  0  0  0  0
 53 60  1  0  0  0  0
 54 61  1  0  0  0  0
 55 61  1  0  0  0  0
 56 61  1  0  0  0  0
 57 77  1  0  0  0  0
 58 67  1  0  0  0  0
 58 84  1  0  0  0  0
 59 61  1  0  0  0  0
 59 74  1  0  0  0  0
 60 77  1  0  0  0  0
 62 66  1  0  0  0  0
M  CHG  2  76   1  77   1
M  ISO  4  35 100  58 101  75 100  84 101
M  END
> <Batch ID>
0181

> <Smiles>
CNC(C)C(=O)NC(C(=O)N1Cc2cc([101O:1][101CH2:1]n3c(C)nc(NC4CNCC4[100NH:0][100C:0](=O)N4CCCC(n5nc(-c6ccc(Oc7ccc(F)cc7F)cc6)c(C(N)=O)c5N)C4)nc3=N)ccc2CC1C(=O)NC1CCCc2ccccc21)C(C)(C)C

> <Shape>
0.212

> <Color>
0.084

> <Negative vol penalty>
0.000

$$$$

  -OEChem-04052323023D

 84 93  0     1  0  0  0  0  0999 V2000
  -36.8259  -15.6774   24.3902 C   0  0  0  0  0  0  0  0  0  0  0  0
  -36.0458  -16.3419   23.4494 C   0  0  0  0  0  0  0  0  0  0  0  0
  -19.9229  -27.0610   21.7756 C   0  0  0  0  0  0  0  0  0  0  0  0
  -19.5283  -28.6613   23.5420 C   0  0  0  0  0  0  0  0  0  0  0  0
  -36.5805  -14.3346   24.6743 C   0  0  0  0  0  0  0  0  0  0  0  0
  -35.0203  -15.6638   22.7913 C   0  0  0  0  0  0  0  0  0  0  0  0
  -30.7440  -18.3659   22.5537 C   0  0  0  0  0  0  0  0  0  0  0  0
  -18.8677  -26.2802   22.2472 C   0  0  0  0  0  0  0  0  0  0  0  0
  -18.4730  -27.8806   24.0136 C   0  0  0  0  0  0  0  0  0  0  0  0
  -30.6815  -19.3760   21.5948 C   0  0  0  0  0  0  0  0  0  0  0  0
  -15.4902  -26.2991   22.0884 C   0  0  0  0  0  0  0  0  0  0  0  0
  -14.5882  -25.7943   21.1518 C   0  0  0  0  0  0  0  0  0  0  0  0
  -29.4060  -17.9212   20.1541 C   0  0  0  0  0  0  0  0  0  0  0  0
  -15.1421  -23.5431   21.8316 C   0  0  0  0  0  0  0  0  0  0  0  0
  -31.1100  -22.1918   17.4824 C   0  0  0  0  0  0  0  0  0  0  0  0
  -20.2533  -28.2516   22.4230 C   0  0  0  0  0  0  0  0  0  0  0  0
  -21.2767  -30.0930   20.9845 C   0  0  0  0  0  0  0  0  0  0  0  0
  -35.5453  -13.6423   24.0265 C   0  0  0  0  0  0  0  0  0  0  0  0
  -30.1462  -17.1200   22.3151 C   0  0  0  0  0  0  0  0  0  0  0  0
  -34.7617  -14.3102   23.0661 C   0  0  0  0  0  0  0  0  0  0  0  0
  -29.4601  -16.8978   21.1127 C   0  0  0  0  0  0  0  0  0  0  0  0
  -18.1427  -26.6900   23.3662 C   0  0  0  0  0  0  0  0  0  0  0  0
  -30.0150  -19.1528   20.3936 C   0  0  0  0  0  0  0  0  0  0  0  0
  -16.2182  -25.4258   22.8966 C   0  0  0  0  0  0  0  0  0  0  0  0
  -14.4141  -24.4164   21.0234 C   0  0  0  0  0  0  0  0  0  0  0  0
  -16.0442  -24.0478   22.7682 C   0  0  0  0  0  0  0  0  0  0  0  0
  -21.3436  -29.0582   21.9366 C   0  0  0  0  0  0  0  0  0  0  0  0
  -30.8591  -23.1304   16.5023 C   0  0  0  0  0  0  0  0  0  0  0  0
  -30.3893  -22.3404   18.6498 C   0  0  0  0  0  0  0  0  0  0  0  0
  -22.5708  -30.5390   20.8706 C   0  0  0  0  0  0  0  0  0  0  0  0
  -29.3350  -24.1773   17.8246 C   0  0  0  0  0  0  0  0  0  0  0  0
  -20.1459  -30.6053   20.2672 C   0  0  0  0  0  0  0  0  0  0  0  0
  -31.2053  -14.1323   22.0794 C   0  0  0  0  0  0  0  0  0  0  0  0
  -28.0413  -13.4370   21.9119 C   0  0  0  0  0  0  0  0  0  0  0  0
  -24.8796  -14.4867   21.1714 C   0  0  0  0  0  0  0  0  0  0  0  0
  -27.7814  -27.6577   22.1176 C   0  0  0  0  0  0  0  0  0  0  0  0
  -35.3484  -12.1786   24.3323 C   0  0  0  0  0  0  0  0  0  0  0  0
  -30.1996  -16.0499   23.3707 C   0  0  0  0  0  0  0  0  0  0  0  0
  -28.7843  -15.5848   20.8162 C   0  0  0  0  0  0  0  0  0  0  0  0
  -34.0012  -11.6344   23.8641 C   0  0  0  0  0  0  0  0  0  0  0  0
  -26.6419  -30.9187   23.3588 C   0  0  0  0  0  0  0  0  0  0  0  0
  -33.7095  -12.0869   22.4369 C   0  0  0  0  0  0  0  0  0  0  0  0
  -25.1368  -30.8758   23.0912 C   0  0  0  0  0  0  0  0  0  0  0  0
  -26.4453  -26.3038   18.9714 C   0  0  0  0  0  0  0  0  0  0  0  0
  -27.2151  -29.5285   23.6242 C   0  0  0  0  0  0  0  0  0  0  0  0
  -26.1145  -26.7646   20.3872 C   0  0  0  0  0  0  0  0  0  0  0  0
  -25.3987  -28.4880   22.3239 C   0  0  0  0  0  0  0  0  0  0  0  0
  -28.4290  -26.1363   20.2717 C   0  0  0  0  0  0  0  0  0  0  0  0
  -33.6242  -13.6155   22.3494 C   0  0  1  0  0  0  0  0  0  0  0  0
  -29.9965  -14.6460   22.8092 C   0  0  1  0  0  0  0  0  0  0  0  0
  -24.7982  -29.8593   21.9848 C   0  0  1  0  0  0  0  0  0  0  0  0
  -27.6453  -25.3917   19.2014 C   0  0  2  0  0  0  0  0  0  0  0  0
  -31.5907  -23.0518   15.2046 C   0  0  0  0  0  0  0  0  0  0  0  0
  -22.5037  -13.6822   21.0967 C   0  0  0  0  0  0  0  0  0  0  0  0
  -28.6397  -11.9166   19.3350 C   0  0  0  0  0  0  0  0  0  0  0  0
  -26.1896  -11.9612   18.8220 C   0  0  0  0  0  0  0  0  0  0  0  0
  -27.0138  -10.7841   20.8610 C   0  0  0  0  0  0  0  0  0  0  0  0
  -24.0167  -16.4888   23.1729 C   0  0  0  0  0  0  0  0  0  0  0  0
  -30.5926  -21.3732   19.7674 C   0  0  0  0  0  0  0  0  0  1  0  0
  -27.0319  -13.3114   20.7964 C   0  0  1  0  0  0  0  0  0  0  0  0
  -23.5732  -14.3652   21.9349 C   0  0  2  0  0  0  0  0  0  0  0  0
  -27.2330  -12.0175   19.9581 C   0  0  0  0  0  0  0  0  0  0  0  0
  -22.5822  -28.8585   22.3949 N   0  0  0  0  0  0  0  0  0  0  0  0
  -29.9749  -24.1401   16.6403 N   0  0  0  0  0  0  0  0  0  0  0  0
  -29.4905  -23.3252   18.8557 N   0  0  0  0  0  0  0  0  0  0  0  0
  -23.3056  -29.7739   21.7278 N   0  0  0  0  0  0  0  0  0  0  0  0
  -28.8698  -14.5676   21.8772 N   0  0  0  0  0  0  0  0  0  0  0  0
  -26.8423  -28.5954   22.5608 N   0  0  0  0  0  0  0  0  0  0  0  0
  -27.4113  -26.8191   21.0670 N   0  0  0  0  0  0  0  0  0  0  0  0
  -23.1404  -31.5071   20.1218 N   0  0  0  0  0  0  0  0  0  0  0  0
  -18.8889  -30.0325   20.5043 N   0  0  0  0  0  0  0  0  0  0  0  0
  -28.4171  -25.2038   18.0014 N   0  0  0  0  0  0  0  0  0  0  0  0
  -32.3494  -14.0802   22.8527 N   0  0  0  0  0  0  0  0  0  0  0  0
  -25.7179  -13.4207   21.4207 N   0  0  0  0  0  0  0  0  0  0  0  0
  -23.0741  -15.7141   22.3254 N   0  3  0  0  0  0  0  0  0  0  0  0
  -20.2499  -31.5321   19.4283 O   0  0  0  0  0  0  0  0  0  0  0  0
  -31.1070  -13.8059   20.9023 O   0  0  0  0  0  0  0  0  0  0  0  0
  -28.0880  -12.5678   22.7859 O   0  0  0  0  0  0  0  0  0  0  0  0
  -25.1297  -15.4307   20.4253 O   0  0  0  0  0  0  0  0  0  0  0  0
  -28.9175  -27.6033   22.6069 O   0  0  0  0  0  0  0  0  0  0  0  0
  -17.1128  -25.9285   23.8265 O   0  0  0  0  0  0  0  0  0  0  0  0
  -29.9526  -20.1436   19.4491 O   0  0  0  0  0  0  0  0  0  1  0  0
  -13.5468  -23.9318   20.1250 F   0  0  0  0  0  0  0  0  0  0  0  0
  -16.7399  -23.2040   23.5426 F   0  0  0  0  0  0  0  0  0  0  0  0
  1  2  1  0  0  0  0
  1  5  2  0  0  0  0
  2  6  2  0  0  0  0
  3  8  2  0  0  0  0
  3 16  1  0  0  0  0
  4  9  1  0  0  0  0
  4 16  2  0  0  0  0
  5 18  1  0  0  0  0
  6 20  1  0  0  0  0
  7 10  2  0  0  0  0
  7 19  1  0  0  0  0
  8 22  1  0  0  0  0
  9 22  2  0  0  0  0
 10 23  1  0  0  0  0
 11 12  2  0  0  0  0
 11 24  1  0  0  0  0
 12 25  1  0  0  0  0
 13 21  1  0  0  0  0
 13 23  2  0  0  0  0
 14 25  2  0  0  0  0
 14 26  1  0  0  0  0
 15 28  2  0  0  0  0
 15 29  1  0  0  0  0
 16 27  1  0  0  0  0
 17 27  1  0  0  0  0
 17 30  2  0  0  0  0
 17 32  1  0  0  0  0
 18 20  2  0  0  0  0
 18 37  1  0  0  0  0
 19 21  2  0  0  0  0
 19 38  1  0  0  0  0
 20 49  1  0  0  0  0
 21 39  1  0  0  0  0
 22 81  1  0  0  0  0
 23 82  1  0  0  0  0
 24 26  2  0  0  0  0
 24 81  1  0  0  0  0
 25 83  1  0  0  0  0
 26 84  1  0  0  0  0
 27 63  2  0  0  0  0
 28 53  1  0  0  0  0
 28 64  1  0  0  0  0
 29 59  1  0  0  0  0
 29 65  2  0  0  0  0
 30 66  1  0  0  0  0
 30 70  1  0  0  0  0
 31 64  2  0  0  0  0
 31 65  1  0  0  0  0
 31 72  1  0  0  0  0
 32 71  1  0  0  0  0
 32 76  2  0  0  0  0
 33 50  1  0  0  0  0
 33 73  1  0  0  0  0
 33 77  2  0  0  0  0
 34 60  1  0  0  0  0
 34 67  1  0  0  0  0
 34 78  2  0  0  0  0
 35 61  1  0  0  0  0
 35 74  1  0  0  0  0
 35 79  2  0  0  0  0
 36 68  1  0  0  0  0
 36 69  1  0  0  0  0
 36 80  2  0  0  0  0
 37 40  1  0  0  0  0
 38 50  1  0  0  0  0
 39 67  1  0  0  0  0
 40 42  1  0  0  0  0
 41 43  1  0  0  0  0
 41 45  1  0  0  0  0
 42 49  1  0  0  0  0
 43 51  1  0  0  0  0
 44 46  1  0  0  0  0
 44 52  1  0  0  0  0
 45 68  1  0  0  0  0
 46 69  1  0  0  0  0
 47 51  1  0  0  0  0
 47 68  1  0  0  0  0
 48 52  1  0  0  0  0
 48 69  1  0  0  0  0
 49 73  1  0  0  0  0
 50 67  1  0  0  0  0
 51 66  1  0  0  0  0
 52 72  1  0  0  0  0
 54 61  1  0  0  0  0
 55 62  1  0  0  0  0
 56 62  1  0  0  0  0
 57 62  1  0  0  0  0
 58 75  1  0  0  0  0
 59 82  1  0  0  0  0
 60 62  1  0  0  0  0
 60 74  1  0  0  0  0
 61 75  1  0  0  0  0
 63 66  1  0  0  0  0
M  CHG  1  75   1
M  ISO  4  36 100  59 101  69 100  82 101
M  END
> <Batch ID>
0181

> <Smiles>
CNC(C)C(=O)NC(C(=O)N1Cc2cc([101O:1][101CH2:1]c3cc(C)nc(NC4CC[100N:0]([100C:0](=O)N5CCCC(n6nc(-c7ccc(Oc8ccc(F)cc8F)cc7)c(C(N)=O)c6N)C5)C4)n3)ccc2CC1C(=O)NC1CCCc2ccccc21)C(C)(C)C

> <Shape>
0.261

> <Color>
0.062

> <Negative vol penalty>
0.000

$$$$

  -OEChem-04052323023D

 83 92  0     1  0  0  0  0  0999 V2000
  -28.4104  -37.1286   24.7218 C   0  0  0  0  0  0  0  0  0  0  0  0
  -28.9060  -36.0790   23.9549 C   0  0  0  0  0  0  0  0  0  0  0  0
  -24.4702   -9.0420   21.5116 C   0  0  0  0  0  0  0  0  0  0  0  0
  -24.2312  -10.5797   23.3597 C   0  0  0  0  0  0  0  0  0  0  0  0
  -27.2679  -36.9435   25.4992 C   0  0  0  0  0  0  0  0  0  0  0  0
  -28.2600  -34.8433   23.9657 C   0  0  0  0  0  0  0  0  0  0  0  0
  -26.8328  -29.2523   19.7208 C   0  0  0  0  0  0  0  0  0  0  0  0
  -24.0912   -7.9864   22.3409 C   0  0  0  0  0  0  0  0  0  0  0  0
  -23.8522   -9.5241   24.1890 C   0  0  0  0  0  0  0  0  0  0  0  0
  -26.9451  -27.8629   19.6954 C   0  0  0  0  0  0  0  0  0  0  0  0
  -22.8377   -4.9413   23.8806 C   0  0  0  0  0  0  0  0  0  0  0  0
  -21.9131   -4.0241   23.3813 C   0  0  0  0  0  0  0  0  0  0  0  0
  -24.9338  -27.6823   21.0149 C   0  0  0  0  0  0  0  0  0  0  0  0
  -20.2985   -5.8005   23.1077 C   0  0  0  0  0  0  0  0  0  0  0  0
  -27.4198  -21.7508   20.8319 C   0  0  0  0  0  0  0  0  0  0  0  0
  -24.5403  -10.3387   22.0211 C   0  0  0  0  0  0  0  0  0  0  0  0
  -24.0896  -12.2405   20.3816 C   0  0  0  0  0  0  0  0  0  0  0  0
  -26.6020  -35.7077   25.5121 C   0  0  0  0  0  0  0  0  0  0  0  0
  -25.7744  -29.8685   20.4037 C   0  0  0  0  0  0  0  0  0  0  0  0
  -27.1083  -34.6411   24.7451 C   0  0  0  0  0  0  0  0  0  0  0  0
  -24.8089  -29.0796   21.0453 C   0  0  0  0  0  0  0  0  0  0  0  0
  -27.0321  -20.9984   19.7419 C   0  0  0  0  0  0  0  0  0  0  0  0
  -23.7821   -8.2274   23.6795 C   0  0  0  0  0  0  0  0  0  0  0  0
  -25.9972  -27.0777   20.3450 C   0  0  0  0  0  0  0  0  0  0  0  0
  -22.4927   -6.2881   23.9937 C   0  0  0  0  0  0  0  0  0  0  0  0
  -20.6435   -4.4536   22.9948 C   0  0  0  0  0  0  0  0  0  0  0  0
  -21.2232   -6.7177   23.6072 C   0  0  0  0  0  0  0  0  0  0  0  0
  -24.9323  -11.4294   21.1651 C   0  0  0  0  0  0  0  0  0  0  0  0
  -26.7079  -21.7140   18.6074 C   0  0  0  0  0  0  0  0  0  0  0  0
  -24.9411  -13.1210   19.7603 C   0  0  0  0  0  0  0  0  0  0  0  0
  -27.1483  -23.6798   19.6604 C   0  0  0  0  0  0  0  0  0  0  0  0
  -22.6645  -12.2014   20.2293 C   0  0  0  0  0  0  0  0  0  0  0  0
  -25.5544  -31.8628   22.8691 C   0  0  0  0  0  0  0  0  0  0  0  0
  -22.4076  -31.8704   22.0816 C   0  0  0  0  0  0  0  0  0  0  0  0
  -19.7922  -30.2700   20.5833 C   0  0  0  0  0  0  0  0  0  0  0  0
  -29.3014  -16.5918   19.9578 C   0  0  0  0  0  0  0  0  0  0  0  0
  -25.3978  -35.5413   26.4049 C   0  0  0  0  0  0  0  0  0  0  0  0
  -25.6526  -31.3677   20.3991 C   0  0  0  0  0  0  0  0  0  0  0  0
  -23.6423  -29.6916   21.7754 C   0  0  0  0  0  0  0  0  0  0  0  0
  -24.5566  -34.3122   26.0701 C   0  0  0  0  0  0  0  0  0  0  0  0
  -29.9683  -13.1670   19.4017 C   0  0  0  0  0  0  0  0  0  0  0  0
  -25.4493  -33.0900   25.8799 C   0  0  0  0  0  0  0  0  0  0  0  0
  -28.6661  -12.4645   19.7759 C   0  0  0  0  0  0  0  0  0  0  0  0
  -26.7056  -18.8692   21.1943 C   0  0  0  0  0  0  0  0  0  0  0  0
  -30.2389  -14.3383   20.3364 C   0  0  0  0  0  0  0  0  0  0  0  0
  -27.1111  -17.4140   21.0023 C   0  0  0  0  0  0  0  0  0  0  0  0
  -28.2781  -18.7809   19.4173 C   0  0  0  0  0  0  0  0  0  0  0  0
  -27.8106  -14.6751   20.7108 C   0  0  0  0  0  0  0  0  0  0  0  0
  -26.9744  -19.4884   19.8131 C   0  0  2  0  0  0  0  0  0  0  0  0
  -26.4212  -33.2932   24.7112 C   0  0  1  0  0  0  0  0  0  0  0  0
  -24.8192  -31.9031   21.5593 C   0  0  1  0  0  0  0  0  0  0  0  0
  -27.5002  -13.4649   19.8059 C   0  0  2  0  0  0  0  0  0  0  0  0
  -26.2746  -21.0054   17.3666 C   0  0  0  0  0  0  0  0  0  0  0  0
  -17.3345  -30.5060   20.1345 C   0  0  0  0  0  0  0  0  0  0  0  0
  -21.8093  -31.1231   24.9787 C   0  0  0  0  0  0  0  0  0  0  0  0
  -19.5072  -30.4534   24.2574 C   0  0  0  0  0  0  0  0  0  0  0  0
  -20.2555  -32.8188   23.9965 C   0  0  0  0  0  0  0  0  0  0  0  0
  -20.2067  -30.2439   17.6531 C   0  0  0  0  0  0  0  0  0  0  0  0
  -27.2135  -25.1690   19.6147 C   0  0  0  0  0  0  0  0  0  1  0  0
  -21.2065  -31.0423   22.4695 C   0  0  1  0  0  0  0  0  0  0  0  0
  -18.7380  -30.7591   19.6066 C   0  0  2  0  0  0  0  0  0  0  0  0
  -20.7175  -31.3476   23.9135 C   0  0  0  0  0  0  0  0  0  0  0  0
  -27.4894  -23.0981   20.8261 N   0  0  0  0  0  0  0  0  0  0  0  0
  -26.2204  -11.7648   21.0533 N   0  0  0  0  0  0  0  0  0  0  0  0
  -26.7548  -23.0602   18.5313 N   0  0  0  0  0  0  0  0  0  0  0  0
  -26.1934  -12.7962   20.1922 N   0  0  0  0  0  0  0  0  0  0  0  0
  -23.5705  -31.1618   21.7476 N   0  0  0  0  0  0  0  0  0  0  0  0
  -29.1114  -15.2713   20.3799 N   0  0  0  0  0  0  0  0  0  0  0  0
  -28.2219  -17.4690   20.0542 N   0  0  0  0  0  0  0  0  0  0  0  0
  -24.7334  -14.1335   18.8919 N   0  0  0  0  0  0  0  0  0  0  0  0
  -21.9427  -11.2332   20.9405 N   0  0  0  0  0  0  0  0  0  0  0  0
  -25.7399  -33.1035   23.4486 N   0  0  0  0  0  0  0  0  0  0  0  0
  -20.2016  -31.2723   21.4372 N   0  0  0  0  0  0  0  0  0  0  0  0
  -18.8809  -30.0609   18.2977 N   0  3  0  0  0  0  0  0  0  0  0  0
  -22.0510  -12.9909   19.4717 O   0  0  0  0  0  0  0  0  0  0  0  0
  -25.9246  -30.7857   23.3213 O   0  0  0  0  0  0  0  0  0  0  0  0
  -22.3154  -33.1004   22.0682 O   0  0  0  0  0  0  0  0  0  0  0  0
  -20.2079  -29.1134   20.5907 O   0  0  0  0  0  0  0  0  0  0  0  0
  -30.4029  -16.9839   19.5494 O   0  0  0  0  0  0  0  0  0  0  0  0
  -23.4120   -7.1977   24.4889 O   0  0  0  0  0  0  0  0  0  0  0  0
  -26.1055  -25.7120   20.3223 O   0  0  0  0  0  0  0  0  0  1  0  0
  -19.7563   -3.5730   22.5138 F   0  0  0  0  0  0  0  0  0  0  0  0
  -20.8864   -8.0105   23.7123 F   0  0  0  0  0  0  0  0  0  0  0  0
  1  2  1  0  0  0  0
  1  5  2  0  0  0  0
  2  6  2  0  0  0  0
  3  8  2  0  0  0  0
  3 16  1  0  0  0  0
  4  9  1  0  0  0  0
  4 16  2  0  0  0  0
  5 18  1  0  0  0  0
  6 20  1  0  0  0  0
  7 10  2  0  0  0  0
  7 19  1  0  0  0  0
  8 23  1  0  0  0  0
  9 23  2  0  0  0  0
 10 24  1  0  0  0  0
 11 12  2  0  0  0  0
 11 25  1  0  0  0  0
 12 26  1  0  0  0  0
 13 21  1  0  0  0  0
 13 24  2  0  0  0  0
 14 26  2  0  0  0  0
 14 27  1  0  0  0  0
 15 22  1  0  0  0  0
 15 63  2  0  0  0  0
 16 28  1  0  0  0  0
 17 28  1  0  0  0  0
 17 30  2  0  0  0  0
 17 32  1  0  0  0  0
 18 20  2  0  0  0  0
 18 37  1  0  0  0  0
 19 21  2  0  0  0  0
 19 38  1  0  0  0  0
 20 50  1  0  0  0  0
 21 39  1  0  0  0  0
 22 29  2  0  0  0  0
 22 49  1  0  0  0  0
 23 80  1  0  0  0  0
 24 81  1  0  0  0  0
 25 27  2  0  0  0  0
 25 80  1  0  0  0  0
 26 82  1  0  0  0  0
 27 83  1  0  0  0  0
 28 64  2  0  0  0  0
 29 53  1  0  0  0  0
 29 65  1  0  0  0  0
 30 66  1  0  0  0  0
 30 70  1  0  0  0  0
 31 59  1  0  0  0  0
 31 63  1  0  0  0  0
 31 65  2  0  0  0  0
 32 71  1  0  0  0  0
 32 75  2  0  0  0  0
 33 51  1  0  0  0  0
 33 72  1  0  0  0  0
 33 76  2  0  0  0  0
 34 60  1  0  0  0  0
 34 67  1  0  0  0  0
 34 77  2  0  0  0  0
 35 61  1  0  0  0  0
 35 73  1  0  0  0  0
 35 78  2  0  0  0  0
 36 68  1  0  0  0  0
 36 69  1  0  0  0  0
 36 79  2  0  0  0  0
 37 40  1  0  0  0  0
 38 51  1  0  0  0  0
 39 67  1  0  0  0  0
 40 42  1  0  0  0  0
 41 43  1  0  0  0  0
 41 45  1  0  0  0  0
 42 50  1  0  0  0  0
 43 52  1  0  0  0  0
 44 46  1  0  0  0  0
 44 49  1  0  0  0  0
 45 68  1  0  0  0  0
 46 69  1  0  0  0  0
 47 49  1  0  0  0  0
 47 69  1  0  0  0  0
 48 52  1  0  0  0  0
 48 68  1  0  0  0  0
 50 72  1  0  0  0  0
 51 67  1  0  0  0  0
 52 66  1  0  0  0  0
 54 61  1  0  0  0  0
 55 62  1  0  0  0  0
 56 62  1  0  0  0  0
 57 62  1  0  0  0  0
 58 74  1  0  0  0  0
 59 81  1  0  0  0  0
 60 62  1  0  0  0  0
 60 73  1  0  0  0  0
 61 74  1  0  0  0  0
 64 66  1  0  0  0  0
M  CHG  1  74   1
M  ISO  4  36 100  59 101  69 100  81 101
M  END
> <Batch ID>
0181

> <Smiles>
CNC(C)C(=O)NC(C(=O)N1Cc2cc([101O:1][101CH2:1]c3ncc(C4CC[100N:0]([100C:0](=O)N5CCCC(n6nc(-c7ccc(Oc8ccc(F)cc8F)cc7)c(C(N)=O)c6N)C5)C4)c(C)n3)ccc2CC1C(=O)NC1CCCc2ccccc21)C(C)(C)C

> <Shape>
0.298

> <Color>
0.107

> <Negative vol penalty>
0.000

$$$$

  -OEChem-04052323023D

 81 89  0     1  0  0  0  0  0999 V2000
  -17.5596  -25.8755   21.7632 C   0  0  0  0  0  0  0  0  0  0  0  0
  -18.8528  -25.3625   21.7613 C   0  0  0  0  0  0  0  0  0  0  0  0
  -23.5174   -9.5992   20.2830 C   0  0  0  0  0  0  0  0  0  0  0  0
  -23.9141  -10.1519   22.6013 C   0  0  0  0  0  0  0  0  0  0  0  0
  -17.3471  -27.2263   22.0356 C   0  0  0  0  0  0  0  0  0  0  0  0
  -19.9344  -26.2004   22.0307 C   0  0  0  0  0  0  0  0  0  0  0  0
  -23.2541  -24.1169   25.2375 C   0  0  0  0  0  0  0  0  0  0  0  0
  -22.8958   -8.4127   20.6722 C   0  0  0  0  0  0  0  0  0  0  0  0
  -23.2924   -8.9654   22.9905 C   0  0  0  0  0  0  0  0  0  0  0  0
  -24.1302  -23.1651   24.7176 C   0  0  0  0  0  0  0  0  0  0  0  0
  -19.8862   -7.4579   21.8818 C   0  0  0  0  0  0  0  0  0  0  0  0
  -18.6843   -7.1212   21.2591 C   0  0  0  0  0  0  0  0  0  0  0  0
  -25.8636  -24.8380   24.5919 C   0  0  0  0  0  0  0  0  0  0  0  0
  -19.6785   -5.0747   20.4464 C   0  0  0  0  0  0  0  0  0  0  0  0
  -24.0266  -10.4687   21.2476 C   0  0  0  0  0  0  0  0  0  0  0  0
  -24.0612  -12.9488   20.6513 C   0  0  0  0  0  0  0  0  0  0  0  0
  -18.4258  -28.0790   22.3181 C   0  0  0  0  0  0  0  0  0  0  0  0
  -23.6737  -25.4412   25.4286 C   0  0  0  0  0  0  0  0  0  0  0  0
  -19.7362  -27.5641   22.3059 C   0  0  0  0  0  0  0  0  0  0  0  0
  -24.9917  -25.8041   25.1168 C   0  0  0  0  0  0  0  0  0  0  0  0
  -22.7833   -8.0958   22.0259 C   0  0  0  0  0  0  0  0  0  0  0  0
  -25.4343  -23.5262   24.3920 C   0  0  0  0  0  0  0  0  0  0  0  0
  -20.9843   -6.6030   21.7867 C   0  0  0  0  0  0  0  0  0  0  0  0
  -18.5804   -5.9296   20.5415 C   0  0  0  0  0  0  0  0  0  0  0  0
  -20.8805   -5.4114   21.0691 C   0  0  0  0  0  0  0  0  0  0  0  0
  -24.6694  -11.6942   20.8461 C   0  0  0  0  0  0  0  0  0  0  0  0
  -28.4339  -18.7638   23.5441 C   0  0  0  0  0  0  0  0  0  0  0  0
  -27.2798  -20.4787   21.8546 C   0  0  0  0  0  0  0  0  0  0  0  0
  -28.8306  -18.8399   22.2271 C   0  0  0  0  0  0  0  0  0  0  0  0
  -26.8825  -20.4022   23.1713 C   0  0  0  0  0  0  0  0  0  0  0  0
  -25.0924  -13.7760   20.2785 C   0  0  0  0  0  0  0  0  0  0  0  0
  -22.6871  -13.3323   20.7945 C   0  0  0  0  0  0  0  0  0  0  0  0
  -22.7889  -28.2644   24.2664 C   0  0  0  0  0  0  0  0  0  0  0  0
  -24.9119  -29.3897   26.4456 C   0  0  0  0  0  0  0  0  0  0  0  0
  -27.6709  -28.8111   28.3691 C   0  0  0  0  0  0  0  0  0  0  0  0
  -30.3113  -15.6434   20.9273 C   0  0  0  0  0  0  0  0  0  0  0  0
  -18.1506  -29.5420   22.5601 C   0  0  0  0  0  0  0  0  0  0  0  0
  -22.7244  -26.4497   26.0154 C   0  0  0  0  0  0  0  0  0  0  0  0
  -25.4974  -27.2079   25.3220 C   0  0  0  0  0  0  0  0  0  0  0  0
  -19.3192  -30.2832   23.2045 C   0  0  0  0  0  0  0  0  0  0  0  0
  -29.8586  -12.7084   18.9632 C   0  0  0  0  0  0  0  0  0  0  0  0
  -20.6264  -29.9338   22.5003 C   0  0  0  0  0  0  0  0  0  0  0  0
  -28.4209  -12.2833   19.2668 C   0  0  0  0  0  0  0  0  0  0  0  0
  -30.5479  -13.2884   20.1963 C   0  0  0  0  0  0  0  0  0  0  0  0
  -28.3812  -13.9646   21.1564 C   0  0  0  0  0  0  0  0  0  0  0  0
  -20.9332  -28.4359   22.6178 C   0  0  1  0  0  0  0  0  0  0  0  0
  -23.1049  -27.8901   25.6869 C   0  0  1  0  0  0  0  0  0  0  0  0
  -27.6266  -13.4251   19.9293 C   0  0  2  0  0  0  0  0  0  0  0  0
  -29.0728  -17.8100   24.4946 C   0  0  0  0  0  0  0  0  0  0  0  0
  -26.6413  -21.4326   20.9039 C   0  0  0  0  0  0  0  0  0  0  0  0
  -29.1928  -29.9335   30.0188 C   0  0  0  0  0  0  0  0  0  0  0  0
  -26.2477  -30.9197   24.1686 C   0  0  0  0  0  0  0  0  0  0  0  0
  -28.2472  -31.2298   25.6431 C   0  0  0  0  0  0  0  0  0  0  0  0
  -26.0470  -32.1988   26.3083 C   0  0  0  0  0  0  0  0  0  0  0  0
  -26.9951  -26.8640   30.4931 C   0  0  0  0  0  0  0  0  0  0  0  0
  -29.9171  -17.9715   21.6914 C   0  0  0  0  0  0  0  0  0  0  0  0
  -25.7878  -21.2754   23.7101 C   0  0  0  0  0  0  0  0  0  1  0  0
  -26.3898  -29.6973   26.4383 C   0  0  1  0  0  0  0  0  0  0  0  0
  -27.9489  -29.0774   29.8375 C   0  0  2  0  0  0  0  0  0  0  0  0
  -26.7231  -30.9853   25.6338 C   0  0  0  0  0  0  0  0  0  0  0  0
  -25.9848  -11.7176   20.6160 N   0  0  0  0  0  0  0  0  0  0  0  0
  -28.2609  -19.6989   21.3588 N   0  0  0  0  0  0  0  0  0  0  0  0
  -27.4524  -19.5434   24.0397 N   0  0  0  0  0  0  0  0  0  0  0  0
  -26.2118  -12.9969   20.2726 N   0  0  0  0  0  0  0  0  0  0  0  0
  -24.5295  -28.1593   25.8925 N   0  0  0  0  0  0  0  0  0  0  0  0
  -29.7441  -14.3674   20.7757 N   0  0  0  0  0  0  0  0  0  0  0  0
  -25.1417  -15.0866   19.9584 N   0  0  0  0  0  0  0  0  0  0  0  0
  -21.7587  -12.3576   21.1850 N   0  0  0  0  0  0  0  0  0  0  0  0
  -21.4550  -28.1285   23.9322 N   0  0  0  0  0  0  0  0  0  0  0  0
  -26.8043  -29.7420   27.8364 N   0  0  0  0  0  0  0  0  0  0  0  0
  -29.4792  -16.6100   21.4786 N   0  0  0  0  0  0  0  0  0  0  0  0
  -28.1512  -27.7940   30.5675 N   0  3  0  0  0  0  0  0  0  0  0  0
  -22.2915  -14.5006   20.5666 O   0  0  0  0  0  0  0  0  0  0  0  0
  -23.6884  -28.6494   23.5286 O   0  0  0  0  0  0  0  0  0  0  0  0
  -24.1263  -30.2077   26.9308 O   0  0  0  0  0  0  0  0  0  0  0  0
  -28.1751  -27.8734   27.7551 O   0  0  0  0  0  0  0  0  0  0  0  0
  -31.4716  -15.9035   20.5908 O   0  0  0  0  0  0  0  0  0  0  0  0
  -22.1766   -6.9383   22.4061 O   0  0  0  0  0  0  0  0  0  0  0  0
  -26.2913  -22.5993   23.8838 O   0  0  0  0  0  0  0  0  0  1  0  0
  -17.4257   -5.6057   19.9449 F   0  0  0  0  0  0  0  0  0  0  0  0
  -21.9316   -4.5855   20.9752 F   0  0  0  0  0  0  0  0  0  0  0  0
  1  2  1  0  0  0  0
  1  5  2  0  0  0  0
  2  6  2  0  0  0  0
  3  8  2  0  0  0  0
  3 15  1  0  0  0  0
  4  9  1  0  0  0  0
  4 15  2  0  0  0  0
  5 17  1  0  0  0  0
  6 19  1  0  0  0  0
  7 10  2  0  0  0  0
  7 18  1  0  0  0  0
  8 21  1  0  0  0  0
  9 21  2  0  0  0  0
 10 22  1  0  0  0  0
 11 12  2  0  0  0  0
 11 23  1  0  0  0  0
 12 24  1  0  0  0  0
 13 20  1  0  0  0  0
 13 22  2  0  0  0  0
 14 24  2  0  0  0  0
 14 25  1  0  0  0  0
 15 26  1  0  0  0  0
 16 26  1  0  0  0  0
 16 31  2  0  0  0  0
 16 32  1  0  0  0  0
 17 19  2  0  0  0  0
 17 37  1  0  0  0  0
 18 20  2  0  0  0  0
 18 38  1  0  0  0  0
 19 46  1  0  0  0  0
 20 39  1  0  0  0  0
 21 78  1  0  0  0  0
 22 79  1  0  0  0  0
 23 25  2  0  0  0  0
 23 78  1  0  0  0  0
 24 80  1  0  0  0  0
 25 81  1  0  0  0  0
 26 61  2  0  0  0  0
 27 29  1  0  0  0  0
 27 49  1  0  0  0  0
 27 63  2  0  0  0  0
 28 30  2  0  0  0  0
 28 50  1  0  0  0  0
 28 62  1  0  0  0  0
 29 56  1  0  0  0  0
 29 62  2  0  0  0  0
 30 57  1  0  0  0  0
 30 63  1  0  0  0  0
 31 64  1  0  0  0  0
 31 67  1  0  0  0  0
 32 68  1  0  0  0  0
 32 73  2  0  0  0  0
 33 47  1  0  0  0  0
 33 69  1  0  0  0  0
 33 74  2  0  0  0  0
 34 58  1  0  0  0  0
 34 65  1  0  0  0  0
 34 75  2  0  0  0  0
 35 59  1  0  0  0  0
 35 70  1  0  0  0  0
 35 76  2  0  0  0  0
 36 66  1  0  0  0  0
 36 71  1  0  0  0  0
 36 77  2  0  0  0  0
 37 40  1  0  0  0  0
 38 47  1  0  0  0  0
 39 65  1  0  0  0  0
 40 42  1  0  0  0  0
 41 43  1  0  0  0  0
 41 44  1  0  0  0  0
 42 46  1  0  0  0  0
 43 48  1  0  0  0  0
 44 66  1  0  0  0  0
 45 48  1  0  0  0  0
 45 66  1  0  0  0  0
 46 69  1  0  0  0  0
 47 65  1  0  0  0  0
 48 64  1  0  0  0  0
 51 59  1  0  0  0  0
 52 60  1  0  0  0  0
 53 60  1  0  0  0  0
 54 60  1  0  0  0  0
 55 72  1  0  0  0  0
 56 71  1  0  0  0  0
 57 79  1  0  0  0  0
 58 60  1  0  0  0  0
 58 70  1  0  0  0  0
 59 72  1  0  0  0  0
 61 64  1  0  0  0  0
M  CHG  1  72   1
M  ISO  4  36 100  57 101  71 100  79 101
M  END
> <Batch ID>
0181

> <Smiles>
CNC(C)C(=O)NC(C(=O)N1Cc2cc([101O:1][101CH2:1]c3nc(C)c(C[100NH:0][100C:0](=O)N4CCCC(n5nc(-c6ccc(Oc7ccc(F)cc7F)cc6)c(C(N)=O)c5N)C4)nc3C)ccc2CC1C(=O)NC1CCCc2ccccc21)C(C)(C)C

> <Shape>
0.268

> <Color>
0.189

> <Negative vol penalty>
0.000

$$$$

  -OEChem-04052323023D

 80 88  0     1  0  0  0  0  0999 V2000
  -26.9681  -32.9395   17.6702 C   0  0  0  0  0  0  0  0  0  0  0  0
  -27.5152  -31.7935   18.2382 C   0  0  0  0  0  0  0  0  0  0  0  0
  -23.0361   -9.9008   19.9650 C   0  0  0  0  0  0  0  0  0  0  0  0
  -23.7758   -9.9399   22.2646 C   0  0  0  0  0  0  0  0  0  0  0  0
  -26.1366  -32.8350   16.5558 C   0  0  0  0  0  0  0  0  0  0  0  0
  -27.2303  -30.5421   17.6929 C   0  0  0  0  0  0  0  0  0  0  0  0
  -30.9867  -25.7144   17.3948 C   0  0  0  0  0  0  0  0  0  0  0  0
  -22.2905   -8.7508   20.2243 C   0  0  0  0  0  0  0  0  0  0  0  0
  -23.0302   -8.7899   22.5240 C   0  0  0  0  0  0  0  0  0  0  0  0
  -31.1138  -24.5745   18.1874 C   0  0  0  0  0  0  0  0  0  0  0  0
  -23.3274   -5.4607   22.0153 C   0  0  0  0  0  0  0  0  0  0  0  0
  -23.9370   -4.4457   22.7527 C   0  0  0  0  0  0  0  0  0  0  0  0
  -29.7177  -23.3536   16.6449 C   0  0  0  0  0  0  0  0  0  0  0  0
  -22.2206   -4.6420   24.4417 C   0  0  0  0  0  0  0  0  0  0  0  0
  -29.3397  -18.7091   20.8371 C   0  0  0  0  0  0  0  0  0  0  0  0
  -23.7788  -10.4953   20.9851 C   0  0  0  0  0  0  0  0  0  0  0  0
  -24.1206  -13.0187   20.8331 C   0  0  0  0  0  0  0  0  0  0  0  0
  -25.8492  -31.5826   15.9907 C   0  0  0  0  0  0  0  0  0  0  0  0
  -30.2139  -25.6854   16.2251 C   0  0  0  0  0  0  0  0  0  0  0  0
  -26.3932  -30.4207   16.5708 C   0  0  0  0  0  0  0  0  0  0  0  0
  -29.5844  -24.4938   15.8379 C   0  0  0  0  0  0  0  0  0  0  0  0
  -22.2876   -8.1954   21.5038 C   0  0  0  0  0  0  0  0  0  0  0  0
  -30.4769  -23.3947   17.8141 C   0  0  0  0  0  0  0  0  0  0  0  0
  -22.1644   -6.0664   22.4911 C   0  0  0  0  0  0  0  0  0  0  0  0
  -23.3836   -4.0364   23.9659 C   0  0  0  0  0  0  0  0  0  0  0  0
  -21.6110   -5.6571   23.7043 C   0  0  0  0  0  0  0  0  0  0  0  0
  -24.5496  -11.6829   20.7176 C   0  0  0  0  0  0  0  0  0  0  0  0
  -30.5452  -18.0463   20.9070 C   0  0  0  0  0  0  0  0  0  0  0  0
  -31.3562  -19.3424   19.2062 C   0  0  0  0  0  0  0  0  0  0  0  0
  -30.1503  -20.0045   19.1359 C   0  0  0  0  0  0  0  0  0  0  0  0
  -25.2156  -13.7637   20.4691 C   0  0  0  0  0  0  0  0  0  0  0  0
  -22.8463  -13.5396   21.2337 C   0  0  0  0  0  0  0  0  0  0  0  0
  -27.6082  -27.2032   15.2199 C   0  0  0  0  0  0  0  0  0  0  0  0
  -28.2455  -25.6473   12.4459 C   0  0  0  0  0  0  0  0  0  0  0  0
  -29.7278  -22.9999   10.8835 C   0  0  0  0  0  0  0  0  0  0  0  0
  -30.6971  -14.7882   20.6914 C   0  0  0  0  0  0  0  0  0  0  0  0
  -24.9071  -31.5157   14.8148 C   0  0  0  0  0  0  0  0  0  0  0  0
  -30.1086  -26.9162   15.3669 C   0  0  0  0  0  0  0  0  0  0  0  0
  -28.7599  -24.4048   14.5806 C   0  0  0  0  0  0  0  0  0  0  0  0
  -24.9559  -30.1840   14.0702 C   0  0  0  0  0  0  0  0  0  0  0  0
  -29.5814  -12.3702   18.3280 C   0  0  0  0  0  0  0  0  0  0  0  0
  -24.9147  -29.0199   15.0550 C   0  0  0  0  0  0  0  0  0  0  0  0
  -28.1404  -12.0818   18.7523 C   0  0  0  0  0  0  0  0  0  0  0  0
  -30.4879  -12.6082   19.5337 C   0  0  0  0  0  0  0  0  0  0  0  0
  -28.5738  -13.3573   20.8933 C   0  0  0  0  0  0  0  0  0  0  0  0
  -26.1276  -29.0475   15.9929 C   0  0  1  0  0  0  0  0  0  0  0  0
  -28.8762  -26.9140   14.4676 C   0  0  1  0  0  0  0  0  0  0  0  0
  -27.6101  -13.1659   19.7097 C   0  0  2  0  0  0  0  0  0  0  0  0
  -32.4875  -19.6898   18.3001 C   0  0  0  0  0  0  0  0  0  0  0  0
  -30.0439  -21.9770    8.6139 C   0  0  0  0  0  0  0  0  0  0  0  0
  -25.3827  -24.5948   12.5242 C   0  0  0  0  0  0  0  0  0  0  0  0
  -26.0406  -22.8799   10.8229 C   0  0  0  0  0  0  0  0  0  0  0  0
  -26.1709  -25.3066   10.2600 C   0  0  0  0  0  0  0  0  0  0  0  0
  -32.6689  -23.2940   11.0328 C   0  0  0  0  0  0  0  0  0  0  0  0
  -30.7512  -16.9557   21.8989 C   0  0  0  0  0  0  0  0  0  0  0  0
  -29.9194  -21.1064   18.1440 C   0  0  0  0  0  0  0  0  0  1  0  0
  -27.8605  -24.3120   11.8563 C   0  0  1  0  0  0  0  0  0  0  0  0
  -30.6179  -22.9241    9.6561 C   0  0  2  0  0  0  0  0  0  0  0  0
  -26.3776  -24.2752   11.3906 C   0  0  0  0  0  0  0  0  0  0  0  0
  -29.1205  -19.7001   19.9503 N   0  0  0  0  0  0  0  0  0  0  0  0
  -25.8181  -11.5820   20.3118 N   0  0  0  0  0  0  0  0  0  0  0  0
  -31.5752  -18.3511   20.0928 N   0  0  0  0  0  0  0  0  0  0  0  0
  -26.1956  -12.8638   20.1690 N   0  0  0  0  0  0  0  0  0  0  0  0
  -28.6819  -25.6367   13.7783 N   0  0  0  0  0  0  0  0  0  0  0  0
  -29.9292  -13.6485   20.4005 N   0  0  0  0  0  0  0  0  0  0  0  0
  -25.4261  -15.0941   20.3795 N   0  0  0  0  0  0  0  0  0  0  0  0
  -21.8319  -12.6347   21.5747 N   0  0  0  0  0  0  0  0  0  0  0  0
  -27.3035  -28.5478   15.3132 N   0  0  0  0  0  0  0  0  0  0  0  0
  -28.8263  -24.0397   10.7972 N   0  0  0  0  0  0  0  0  0  0  0  0
  -30.0902  -15.7282   21.5152 N   0  0  0  0  0  0  0  0  0  0  0  0
  -31.9774  -22.4423   10.0311 N   0  3  0  0  0  0  0  0  0  0  0  0
  -22.6091  -14.7708   21.2719 O   0  0  0  0  0  0  0  0  0  0  0  0
  -26.9537  -26.2751   15.6804 O   0  0  0  0  0  0  0  0  0  0  0  0
  -28.1690  -26.6614   11.7477 O   0  0  0  0  0  0  0  0  0  0  0  0
  -29.8203  -22.2130   11.8230 O   0  0  0  0  0  0  0  0  0  0  0  0
  -31.8369  -14.9579   20.2453 O   0  0  0  0  0  0  0  0  0  0  0  0
  -21.5600   -7.0734   21.7574 O   0  0  0  0  0  0  0  0  0  0  0  0
  -30.5988  -22.2808   18.5862 O   0  0  0  0  0  0  0  0  0  1  0  0
  -23.9683   -3.0607   24.6732 F   0  0  0  0  0  0  0  0  0  0  0  0
  -20.4933   -6.2344   24.1659 F   0  0  0  0  0  0  0  0  0  0  0  0
  1  2  1  0  0  0  0
  1  5  2  0  0  0  0
  2  6  2  0  0  0  0
  3  8  2  0  0  0  0
  3 16  1  0  0  0  0
  4  9  1  0  0  0  0
  4 16  2  0  0  0  0
  5 18  1  0  0  0  0
  6 20  1  0  0  0  0
  7 10  2  0  0  0  0
  7 19  1  0  0  0  0
  8 22  1  0  0  0  0
  9 22  2  0  0  0  0
 10 23  1  0  0  0  0
 11 12  2  0  0  0  0
 11 24  1  0  0  0  0
 12 25  1  0  0  0  0
 13 21  1  0  0  0  0
 13 23  2  0  0  0  0
 14 25  2  0  0  0  0
 14 26  1  0  0  0  0
 15 28  1  0  0  0  0
 15 60  2  0  0  0  0
 16 27  1  0  0  0  0
 17 27  1  0  0  0  0
 17 31  2  0  0  0  0
 17 32  1  0  0  0  0
 18 20  2  0  0  0  0
 18 37  1  0  0  0  0
 19 21  2  0  0  0  0
 19 38  1  0  0  0  0
 20 46  1  0  0  0  0
 21 39  1  0  0  0  0
 22 77  1  0  0  0  0
 23 78  1  0  0  0  0
 24 26  2  0  0  0  0
 24 77  1  0  0  0  0
 25 79  1  0  0  0  0
 26 80  1  0  0  0  0
 27 61  2  0  0  0  0
 28 55  1  0  0  0  0
 28 62  2  0  0  0  0
 29 30  2  0  0  0  0
 29 49  1  0  0  0  0
 29 62  1  0  0  0  0
 30 56  1  0  0  0  0
 30 60  1  0  0  0  0
 31 63  1  0  0  0  0
 31 66  1  0  0  0  0
 32 67  1  0  0  0  0
 32 72  2  0  0  0  0
 33 47  1  0  0  0  0
 33 68  1  0  0  0  0
 33 73  2  0  0  0  0
 34 57  1  0  0  0  0
 34 64  1  0  0  0  0
 34 74  2  0  0  0  0
 35 58  1  0  0  0  0
 35 69  1  0  0  0  0
 35 75  2  0  0  0  0
 36 65  1  0  0  0  0
 36 70  1  0  0  0  0
 36 76  2  0  0  0  0
 37 40  1  0  0  0  0
 38 47  1  0  0  0  0
 39 64  1  0  0  0  0
 40 42  1  0  0  0  0
 41 43  1  0  0  0  0
 41 44  1  0  0  0  0
 42 46  1  0  0  0  0
 43 48  1  0  0  0  0
 44 65  1  0  0  0  0
 45 48  1  0  0  0  0
 45 65  1  0  0  0  0
 46 68  1  0  0  0  0
 47 64  1  0  0  0  0
 48 63  1  0  0  0  0
 50 58  1  0  0  0  0
 51 59  1  0  0  0  0
 52 59  1  0  0  0  0
 53 59  1  0  0  0  0
 54 71  1  0  0  0  0
 55 70  1  0  0  0  0
 56 78  1  0  0  0  0
 57 59  1  0  0  0  0
 57 69  1  0  0  0  0
 58 71  1  0  0  0  0
 61 63  1  0  0  0  0
M  CHG  1  71   1
M  ISO  4  36 100  56 101  70 100  78 101
M  END
> <Batch ID>
0181

> <Smiles>
CNC(C)C(=O)NC(C(=O)N1Cc2cc([101O:1][101CH2:1]c3ncc(C[100NH:0][100C:0](=O)N4CCCC(n5nc(-c6ccc(Oc7ccc(F)cc7F)cc6)c(C(N)=O)c5N)C4)nc3C)ccc2CC1C(=O)NC1CCCc2ccccc21)C(C)(C)C

> <Shape>
0.226

> <Color>
0.216

> <Negative vol penalty>
0.000

$$$$

  -OEChem-04052323023D

 83 92  0     1  0  0  0  0  0999 V2000
  -28.4979  -33.0327   25.4394 C   0  0  0  0  0  0  0  0  0  0  0  0
  -28.5133  -31.7032   25.0302 C   0  0  0  0  0  0  0  0  0  0  0  0
  -22.5196  -14.7241   21.3951 C   0  0  0  0  0  0  0  0  0  0  0  0
  -24.4461  -13.6356   22.3649 C   0  0  0  0  0  0  0  0  0  0  0  0
  -27.2838  -33.7036   25.5802 C   0  0  0  0  0  0  0  0  0  0  0  0
  -27.3144  -31.0433   24.7625 C   0  0  0  0  0  0  0  0  0  0  0  0
  -27.5007  -28.3327   20.4890 C   0  0  0  0  0  0  0  0  0  0  0  0
  -21.8102  -13.5248   21.4582 C   0  0  0  0  0  0  0  0  0  0  0  0
  -23.7367  -12.4363   22.4280 C   0  0  0  0  0  0  0  0  0  0  0  0
  -28.1567  -27.1037   20.5427 C   0  0  0  0  0  0  0  0  0  0  0  0
  -22.8410   -9.9572   20.3108 C   0  0  0  0  0  0  0  0  0  0  0  0
  -23.4909   -8.7969   19.8901 C   0  0  0  0  0  0  0  0  0  0  0  0
  -26.0286  -25.9824   20.7245 C   0  0  0  0  0  0  0  0  0  0  0  0
  -23.2035   -7.8386   22.0893 C   0  0  0  0  0  0  0  0  0  0  0  0
  -23.8376  -14.7795   21.8484 C   0  0  0  0  0  0  0  0  0  0  0  0
  -24.6395  -17.0187   22.7707 C   0  0  0  0  0  0  0  0  0  0  0  0
  -26.0699  -33.0545   25.3048 C   0  0  0  0  0  0  0  0  0  0  0  0
  -26.1018  -28.3967   20.5638 C   0  0  0  0  0  0  0  0  0  0  0  0
  -26.0828  -31.7057   24.9011 C   0  0  0  0  0  0  0  0  0  0  0  0
  -25.3571  -27.2133   20.6690 C   0  0  0  0  0  0  0  0  0  0  0  0
  -22.4187  -12.3809   21.9747 C   0  0  0  0  0  0  0  0  0  0  0  0
  -27.4209  -25.9285   20.6633 C   0  0  0  0  0  0  0  0  0  0  0  0
  -22.3724  -10.0582   21.6208 C   0  0  0  0  0  0  0  0  0  0  0  0
  -23.6721   -7.7376   20.7793 C   0  0  0  0  0  0  0  0  0  0  0  0
  -22.5536   -8.9989   22.5100 C   0  0  0  0  0  0  0  0  0  0  0  0
  -24.5711  -16.0180   21.7830 C   0  0  0  0  0  0  0  0  0  0  0  0
  -29.6977  -20.1996   21.0557 C   0  0  0  0  0  0  0  0  0  0  0  0
  -29.0698  -20.6974   22.1762 C   0  0  0  0  0  0  0  0  0  0  0  0
  -28.7538  -21.8549   19.7914 C   0  0  0  0  0  0  0  0  0  0  0  0
  -28.1253  -22.3523   20.9117 C   0  0  0  0  0  0  0  0  0  0  0  0
  -25.4567  -17.9806   22.2290 C   0  0  0  0  0  0  0  0  0  0  0  0
  -24.0199  -17.0738   24.0625 C   0  0  0  0  0  0  0  0  0  0  0  0
  -24.0207  -29.6993   22.5827 C   0  0  0  0  0  0  0  0  0  0  0  0
  -21.8580  -28.7282   20.3686 C   0  0  0  0  0  0  0  0  0  0  0  0
  -21.0817  -26.6012   17.8151 C   0  0  0  0  0  0  0  0  0  0  0  0
  -30.2184  -17.9256   18.6333 C   0  0  0  0  0  0  0  0  0  0  0  0
  -24.7800  -33.8068   25.5169 C   0  0  0  0  0  0  0  0  0  0  0  0
  -25.4078  -29.7284   20.4777 C   0  0  0  0  0  0  0  0  0  0  0  0
  -23.8523  -27.2263   20.7327 C   0  0  0  0  0  0  0  0  0  0  0  0
  -23.5741  -33.1476   24.8524 C   0  0  0  0  0  0  0  0  0  0  0  0
  -26.8735  -19.2045   17.6818 C   0  0  0  0  0  0  0  0  0  0  0  0
  -23.5562  -31.6504   25.1438 C   0  0  0  0  0  0  0  0  0  0  0  0
  -25.9513  -18.5233   18.6883 C   0  0  0  0  0  0  0  0  0  0  0  0
  -32.1644  -19.2094   21.1101 C   0  0  0  0  0  0  0  0  0  0  0  0
  -28.1301  -18.3808   17.4236 C   0  0  0  0  0  0  0  0  0  0  0  0
  -32.3706  -18.2438   19.9489 C   0  0  0  0  0  0  0  0  0  0  0  0
  -27.9779  -17.3813   19.6799 C   0  0  0  0  0  0  0  0  0  0  0  0
  -24.8045  -30.9631   24.5774 C   0  0  1  0  0  0  0  0  0  0  0  0
  -30.6465  -18.9287   21.0394 C   0  0  2  0  0  0  0  0  0  0  0  0
  -24.0064  -29.7119   21.0802 C   0  0  1  0  0  0  0  0  0  0  0  0
  -26.7119  -18.1997   19.9829 C   0  0  2  0  0  0  0  0  0  0  0  0
  -29.2463  -20.0510   23.5064 C   0  0  0  0  0  0  0  0  0  0  0  0
  -28.5849  -22.4953   18.4562 C   0  0  0  0  0  0  0  0  0  0  0  0
  -19.2260  -26.0235   16.2277 C   0  0  0  0  0  0  0  0  0  0  0  0
  -20.3755  -27.3047   22.6237 C   0  0  0  0  0  0  0  0  0  0  0  0
  -19.1283  -26.0016   20.8873 C   0  0  0  0  0  0  0  0  0  0  0  0
  -18.8987  -28.4836   20.9855 C   0  0  0  0  0  0  0  0  0  0  0  0
  -22.7413  -27.2563   15.4538 C   0  0  0  0  0  0  0  0  0  0  0  0
  -27.2427  -23.5636   20.8405 C   0  0  0  0  0  0  0  0  0  1  0  0
  -21.0548  -27.4709   20.1383 C   0  0  1  0  0  0  0  0  0  0  0  0
  -20.4836  -26.8512   16.4425 C   0  0  2  0  0  0  0  0  0  0  0  0
  -19.8927  -27.3148   21.1595 C   0  0  0  0  0  0  0  0  0  0  0  0
  -25.2876  -16.3166   20.6960 N   0  0  0  0  0  0  0  0  0  0  0  0
  -29.5510  -20.7695   19.8432 N   0  0  0  0  0  0  0  0  0  0  0  0
  -28.2723  -21.7827   22.1243 N   0  0  0  0  0  0  0  0  0  0  0  0
  -25.8139  -17.5158   20.9975 N   0  0  0  0  0  0  0  0  0  0  0  0
  -23.2202  -28.5535   20.6510 N   0  0  0  0  0  0  0  0  0  0  0  0
  -28.8222  -18.0270   18.6658 N   0  0  0  0  0  0  0  0  0  0  0  0
  -30.9240  -18.2487   19.7695 N   0  0  0  0  0  0  0  0  0  0  0  0
  -25.8974  -19.1702   22.6906 N   0  0  0  0  0  0  0  0  0  0  0  0
  -23.2116  -16.0009   24.4621 N   0  0  0  0  0  0  0  0  0  0  0  0
  -24.6746  -30.7774   23.1481 N   0  0  0  0  0  0  0  0  0  0  0  0
  -20.6244  -27.5109   18.7449 N   0  0  0  0  0  0  0  0  0  0  0  0
  -21.4653  -26.4994   15.3778 N   0  3  0  0  0  0  0  0  0  0  0  0
  -24.1651  -18.0532   24.8327 O   0  0  0  0  0  0  0  0  0  0  0  0
  -23.4773  -28.7804   23.1844 O   0  0  0  0  0  0  0  0  0  0  0  0
  -21.2990  -29.8252   20.2933 O   0  0  0  0  0  0  0  0  0  0  0  0
  -21.8725  -25.6878   18.0408 O   0  0  0  0  0  0  0  0  0  0  0  0
  -30.8214  -17.5821   17.6075 O   0  0  0  0  0  0  0  0  0  0  0  0
  -21.7267  -11.2105   22.0367 O   0  0  0  0  0  0  0  0  0  0  0  0
  -28.0588  -24.7276   20.7166 O   0  0  0  0  0  0  0  0  0  1  0  0
  -24.2949   -6.6228   20.3748 F   0  0  0  0  0  0  0  0  0  0  0  0
  -22.1046   -9.0897   23.7693 F   0  0  0  0  0  0  0  0  0  0  0  0
  1  2  1  0  0  0  0
  1  5  2  0  0  0  0
  2  6  2  0  0  0  0
  3  8  2  0  0  0  0
  3 15  1  0  0  0  0
  4  9  1  0  0  0  0
  4 15  2  0  0  0  0
  5 17  1  0  0  0  0
  6 19  1  0  0  0  0
  7 10  2  0  0  0  0
  7 18  1  0  0  0  0
  8 21  1  0  0  0  0
  9 21  2  0  0  0  0
 10 22  1  0  0  0  0
 11 12  2  0  0  0  0
 11 23  1  0  0  0  0
 12 24  1  0  0  0  0
 13 20  1  0  0  0  0
 13 22  2  0  0  0  0
 14 24  2  0  0  0  0
 14 25  1  0  0  0  0
 15 26  1  0  0  0  0
 16 26  1  0  0  0  0
 16 31  2  0  0  0  0
 16 32  1  0  0  0  0
 17 19  2  0  0  0  0
 17 37  1  0  0  0  0
 18 20  2  0  0  0  0
 18 38  1  0  0  0  0
 19 48  1  0  0  0  0
 20 39  1  0  0  0  0
 21 80  1  0  0  0  0
 22 81  1  0  0  0  0
 23 25  2  0  0  0  0
 23 80  1  0  0  0  0
 24 82  1  0  0  0  0
 25 83  1  0  0  0  0
 26 63  2  0  0  0  0
 27 28  1  0  0  0  0
 27 49  1  0  0  0  0
 27 64  2  0  0  0  0
 28 52  1  0  0  0  0
 28 65  2  0  0  0  0
 29 30  2  0  0  0  0
 29 53  1  0  0  0  0
 29 64  1  0  0  0  0
 30 59  1  0  0  0  0
 30 65  1  0  0  0  0
 31 66  1  0  0  0  0
 31 70  1  0  0  0  0
 32 71  1  0  0  0  0
 32 75  2  0  0  0  0
 33 50  1  0  0  0  0
 33 72  1  0  0  0  0
 33 76  2  0  0  0  0
 34 60  1  0  0  0  0
 34 67  1  0  0  0  0
 34 77  2  0  0  0  0
 35 61  1  0  0  0  0
 35 73  1  0  0  0  0
 35 78  2  0  0  0  0
 36 68  1  0  0  0  0
 36 69  1  0  0  0  0
 36 79  2  0  0  0  0
 37 40  1  0  0  0  0
 38 50  1  0  0  0  0
 39 67  1  0  0  0  0
 40 42  1  0  0  0  0
 41 43  1  0  0  0  0
 41 45  1  0  0  0  0
 42 48  1  0  0  0  0
 43 51  1  0  0  0  0
 44 46  1  0  0  0  0
 44 49  1  0  0  0  0
 45 68  1  0  0  0  0
 46 69  1  0  0  0  0
 47 51  1  0  0  0  0
 47 68  1  0  0  0  0
 48 72  1  0  0  0  0
 49 69  1  0  0  0  0
 50 67  1  0  0  0  0
 51 66  1  0  0  0  0
 54 61  1  0  0  0  0
 55 62  1  0  0  0  0
 56 62  1  0  0  0  0
 57 62  1  0  0  0  0
 58 74  1  0  0  0  0
 59 81  1  0  0  0  0
 60 62  1  0  0  0  0
 60 73  1  0  0  0  0
 61 74  1  0  0  0  0
 63 66  1  0  0  0  0
M  CHG  1  74   1
M  ISO  4  36 100  59 101  69 100  81 101
M  END
> <Batch ID>
0181

> <Smiles>
CNC(C)C(=O)NC(C(=O)N1Cc2cc([101O:1][101CH2:1]c3nc(C)c(C4CC[100N:0]4[100C:0](=O)N4CCCC(n5nc(-c6ccc(Oc7ccc(F)cc7F)cc6)c(C(N)=O)c5N)C4)nc3C)ccc2CC1C(=O)NC1CCCc2ccccc21)C(C)(C)C

> <Shape>
0.264

> <Color>
0.062

> <Negative vol penalty>
0.000

$$$$

  -OEChem-04052323023D

 82 91  0     1  0  0  0  0  0999 V2000
  -15.7699  -27.4368   21.2415 C   0  0  0  0  0  0  0  0  0  0  0  0
  -16.9723  -27.2531   20.5662 C   0  0  0  0  0  0  0  0  0  0  0  0
  -26.5064  -12.6018   20.5437 C   0  0  0  0  0  0  0  0  0  0  0  0
  -24.9867  -14.1380   19.4632 C   0  0  0  0  0  0  0  0  0  0  0  0
  -15.7449  -28.1578   22.4346 C   0  0  0  0  0  0  0  0  0  0  0  0
  -18.1502  -27.7914   21.0831 C   0  0  0  0  0  0  0  0  0  0  0  0
  -22.0146  -24.5226   20.9218 C   0  0  0  0  0  0  0  0  0  0  0  0
  -25.4270  -11.9634   21.1543 C   0  0  0  0  0  0  0  0  0  0  0  0
  -23.9072  -13.4995   20.0737 C   0  0  0  0  0  0  0  0  0  0  0  0
  -22.6452  -24.3425   19.6915 C   0  0  0  0  0  0  0  0  0  0  0  0
  -23.0449   -9.7026   22.7130 C   0  0  0  0  0  0  0  0  0  0  0  0
  -23.0289   -8.3078   22.7077 C   0  0  0  0  0  0  0  0  0  0  0  0
  -24.4138  -25.8281   20.3874 C   0  0  0  0  0  0  0  0  0  0  0  0
  -27.5354  -24.3109   17.6559 C   0  0  0  0  0  0  0  0  0  0  0  0
  -27.1772  -21.9532   17.9681 C   0  0  0  0  0  0  0  0  0  0  0  0
  -23.0373   -8.3170   20.2917 C   0  0  0  0  0  0  0  0  0  0  0  0
  -26.2863  -13.6892   19.6982 C   0  0  0  0  0  0  0  0  0  0  0  0
  -27.9765  -14.0418   17.8203 C   0  0  0  0  0  0  0  0  0  0  0  0
  -16.9246  -28.6970   22.9714 C   0  0  0  0  0  0  0  0  0  0  0  0
  -22.5742  -25.3668   21.8916 C   0  0  0  0  0  0  0  0  0  0  0  0
  -18.1407  -28.5215   22.2838 C   0  0  0  0  0  0  0  0  0  0  0  0
  -23.7896  -26.0152   21.6302 C   0  0  0  0  0  0  0  0  0  0  0  0
  -26.7594  -23.1752   17.4527 C   0  0  0  0  0  0  0  0  0  0  0  0
  -24.1274  -12.4122   20.9193 C   0  0  0  0  0  0  0  0  0  0  0  0
  -23.8435  -24.9975   19.4231 C   0  0  0  0  0  0  0  0  0  0  0  0
  -23.0571  -10.4045   21.5077 C   0  0  0  0  0  0  0  0  0  0  0  0
  -23.0251   -7.6150   21.4970 C   0  0  0  0  0  0  0  0  0  0  0  0
  -23.0533   -9.7117   20.2970 C   0  0  0  0  0  0  0  0  0  0  0  0
  -27.4010  -14.3495   19.0677 C   0  0  0  0  0  0  0  0  0  0  0  0
  -28.7112  -24.1727   18.3757 C   0  0  0  0  0  0  0  0  0  0  0  0
  -28.3692  -21.9205   18.6737 C   0  0  0  0  0  0  0  0  0  0  0  0
  -28.9956  -14.9516   17.6786 C   0  0  0  0  0  0  0  0  0  0  0  0
  -27.6216  -13.0245   16.8743 C   0  0  0  0  0  0  0  0  0  0  0  0
  -21.6455  -28.0352   23.3480 C   0  0  0  0  0  0  0  0  0  0  0  0
  -24.3472  -27.5670   25.0812 C   0  0  0  0  0  0  0  0  0  0  0  0
  -27.4574  -26.1763   25.2797 C   0  0  0  0  0  0  0  0  0  0  0  0
  -29.9414  -20.4053   19.9300 C   0  0  0  0  0  0  0  0  0  0  0  0
  -16.8403  -29.5093   24.2393 C   0  0  0  0  0  0  0  0  0  0  0  0
  -21.8952  -25.5295   23.2239 C   0  0  0  0  0  0  0  0  0  0  0  0
  -24.4421  -26.9163   22.6454 C   0  0  0  0  0  0  0  0  0  0  0  0
  -18.1922  -29.7275   24.9139 C   0  0  0  0  0  0  0  0  0  0  0  0
  -32.0662  -17.5674   20.2600 C   0  0  0  0  0  0  0  0  0  0  0  0
  -19.2376  -30.1546   23.8886 C   0  0  0  0  0  0  0  0  0  0  0  0
  -29.9290  -25.7528   20.0170 C   0  0  0  0  0  0  0  0  0  0  0  0
  -28.9493  -26.5906   19.2564 C   0  0  0  0  0  0  0  0  0  0  0  0
  -31.1651  -16.3927   19.8723 C   0  0  0  0  0  0  0  0  0  0  0  0
  -31.2994  -18.6398   21.0318 C   0  0  0  0  0  0  0  0  0  0  0  0
  -29.1778  -17.9498   19.9869 C   0  0  0  0  0  0  0  0  0  0  0  0
  -19.4434  -29.0689   22.8254 C   0  0  1  0  0  0  0  0  0  0  0  0
  -29.5605  -25.3777   18.6060 C   0  0  0  0  0  0  0  0  0  0  0  0
  -22.2907  -26.8156   23.9430 C   0  0  1  0  0  0  0  0  0  0  0  0
  -29.8907  -16.8741   19.1513 C   0  0  2  0  0  0  0  0  0  0  0  0
  -29.4423  -25.9990   26.8048 C   0  0  0  0  0  0  0  0  0  0  0  0
  -25.1598  -30.4159   24.3509 C   0  0  0  0  0  0  0  0  0  0  0  0
  -27.4933  -29.8597   25.0676 C   0  0  0  0  0  0  0  0  0  0  0  0
  -25.6282  -29.7728   26.7218 C   0  0  0  0  0  0  0  0  0  0  0  0
  -27.2064  -23.2326   25.4543 C   0  0  0  0  0  0  0  0  0  0  0  0
  -25.4692  -23.2684   16.6750 C   0  0  0  0  0  0  0  0  0  0  0  0
  -24.2725  -23.5686   17.5710 C   0  0  0  0  0  0  0  0  0  1  0  0
  -25.7916  -27.9836   24.9431 C   0  0  1  0  0  0  0  0  0  0  0  0
  -28.1299  -25.3643   26.3718 C   0  0  2  0  0  0  0  0  0  0  0  0
  -26.0052  -29.4926   25.2508 C   0  0  0  0  0  0  0  0  0  0  0  0
  -28.0044  -15.3746   19.6752 N   0  0  0  0  0  0  0  0  0  0  0  0
  -29.1497  -23.0026   18.8916 N   0  0  0  0  0  0  0  0  0  0  0  0
  -28.9698  -15.7189   18.8059 N   0  0  0  0  0  0  0  0  0  0  0  0
  -23.7363  -27.0483   23.9307 N   0  0  0  0  0  0  0  0  0  0  0  0
  -30.1075  -19.0502   20.2863 N   0  0  0  0  0  0  0  0  0  0  0  0
  -29.9024  -15.1622   16.7010 N   0  0  0  0  0  0  0  0  0  0  0  0
  -26.5488  -12.1752   17.1775 N   0  0  0  0  0  0  0  0  0  0  0  0
  -28.7867  -20.6707   19.1947 N   0  0  0  0  0  0  0  0  0  0  0  0
  -20.2642  -27.9980   23.3489 N   0  0  0  0  0  0  0  0  0  0  0  0
  -26.5593  -27.0849   25.7983 N   0  0  0  0  0  0  0  0  0  0  0  0
  -28.4125  -23.9825   25.8905 N   0  3  0  0  0  0  0  0  0  0  0  0
  -28.2481  -12.8627   15.7997 O   0  0  0  0  0  0  0  0  0  0  0  0
  -22.3488  -28.9434   22.9212 O   0  0  0  0  0  0  0  0  0  0  0  0
  -23.7839  -27.6903   26.1716 O   0  0  0  0  0  0  0  0  0  0  0  0
  -27.7069  -26.0228   24.0860 O   0  0  0  0  0  0  0  0  0  0  0  0
  -30.7767  -21.2622   20.2298 O   0  0  0  0  0  0  0  0  0  0  0  0
  -23.0738  -11.7892   21.5146 O   0  0  0  0  0  0  0  0  0  0  0  0
  -24.4609  -24.8240   18.2228 O   0  0  0  0  0  0  0  0  0  1  0  0
  -23.0113   -6.2756   21.4921 F   0  0  0  0  0  0  0  0  0  0  0  0
  -23.0662  -10.3806   19.1359 F   0  0  0  0  0  0  0  0  0  0  0  0
  1  2  1  0  0  0  0
  1  5  2  0  0  0  0
  2  6  2  0  0  0  0
  3  8  2  0  0  0  0
  3 17  1  0  0  0  0
  4  9  1  0  0  0  0
  4 17  2  0  0  0  0
  5 19  1  0  0  0  0
  6 21  1  0  0  0  0
  7 10  2  0  0  0  0
  7 20  1  0  0  0  0
  8 24  1  0  0  0  0
  9 24  2  0  0  0  0
 10 25  1  0  0  0  0
 11 12  2  0  0  0  0
 11 26  1  0  0  0  0
 12 27  1  0  0  0  0
 13 22  1  0  0  0  0
 13 25  2  0  0  0  0
 14 23  2  0  0  0  0
 14 30  1  0  0  0  0
 15 23  1  0  0  0  0
 15 31  2  0  0  0  0
 16 27  2  0  0  0  0
 16 28  1  0  0  0  0
 17 29  1  0  0  0  0
 18 29  1  0  0  0  0
 18 32  2  0  0  0  0
 18 33  1  0  0  0  0
 19 21  2  0  0  0  0
 19 38  1  0  0  0  0
 20 22  2  0  0  0  0
 20 39  1  0  0  0  0
 21 49  1  0  0  0  0
 22 40  1  0  0  0  0
 23 58  1  0  0  0  0
 24 79  1  0  0  0  0
 25 80  1  0  0  0  0
 26 28  2  0  0  0  0
 26 79  1  0  0  0  0
 27 81  1  0  0  0  0
 28 82  1  0  0  0  0
 29 63  2  0  0  0  0
 30 50  1  0  0  0  0
 30 64  2  0  0  0  0
 31 64  1  0  0  0  0
 31 70  1  0  0  0  0
 32 65  1  0  0  0  0
 32 68  1  0  0  0  0
 33 69  1  0  0  0  0
 33 74  2  0  0  0  0
 34 51  1  0  0  0  0
 34 71  1  0  0  0  0
 34 75  2  0  0  0  0
 35 60  1  0  0  0  0
 35 66  1  0  0  0  0
 35 76  2  0  0  0  0
 36 61  1  0  0  0  0
 36 72  1  0  0  0  0
 36 77  2  0  0  0  0
 37 67  1  0  0  0  0
 37 70  1  0  0  0  0
 37 78  2  0  0  0  0
 38 41  1  0  0  0  0
 39 51  1  0  0  0  0
 40 66  1  0  0  0  0
 41 43  1  0  0  0  0
 42 46  1  0  0  0  0
 42 47  1  0  0  0  0
 43 49  1  0  0  0  0
 44 45  1  0  0  0  0
 44 50  1  0  0  0  0
 45 50  1  0  0  0  0
 46 52  1  0  0  0  0
 47 67  1  0  0  0  0
 48 52  1  0  0  0  0
 48 67  1  0  0  0  0
 49 71  1  0  0  0  0
 51 66  1  0  0  0  0
 52 65  1  0  0  0  0
 53 61  1  0  0  0  0
 54 62  1  0  0  0  0
 55 62  1  0  0  0  0
 56 62  1  0  0  0  0
 57 73  1  0  0  0  0
 58 59  1  0  0  0  0
 59 80  1  0  0  0  0
 60 62  1  0  0  0  0
 60 72  1  0  0  0  0
 61 73  1  0  0  0  0
 63 65  1  0  0  0  0
M  CHG  1  73   1
M  ISO  4  37 100  59 101  70 100  80 101
M  END
> <Batch ID>
0181

> <Smiles>
CNC(C)C(=O)NC(C(=O)N1Cc2cc([101O:1][101CH2:1]Cc3cc([100NH:0][100C:0](=O)N4CCCC(n5nc(-c6ccc(Oc7ccc(F)cc7F)cc6)c(C(N)=O)c5N)C4)nc(C4CC4)c3)ccc2CC1C(=O)NC1CCCc2ccccc21)C(C)(C)C

> <Shape>
0.241

> <Color>
0.076

> <Negative vol penalty>
0.000

$$$$

  -OEChem-04052323023D

 77 85  0     1  0  0  0  0  0999 V2000
  -22.4898  -13.1095   17.3627 C   0  0  0  0  0  0  0  0  0  0  0  0
  -22.2764  -14.2830   18.0787 C   0  0  0  0  0  0  0  0  0  0  0  0
  -25.8912  -27.9447   22.3323 C   0  0  0  0  0  0  0  0  0  0  0  0
  -25.1343  -28.6930   20.1634 C   0  0  0  0  0  0  0  0  0  0  0  0
  -23.4113  -12.1704   17.8242 C   0  0  0  0  0  0  0  0  0  0  0  0
  -22.9837  -14.5177   19.2573 C   0  0  0  0  0  0  0  0  0  0  0  0
  -24.9625  -19.9227   21.3491 C   0  0  0  0  0  0  0  0  0  0  0  0
  -27.0937  -27.5210   21.7665 C   0  0  0  0  0  0  0  0  0  0  0  0
  -26.3368  -28.2694   19.5976 C   0  0  0  0  0  0  0  0  0  0  0  0
  -24.4473  -20.8082   22.2948 C   0  0  0  0  0  0  0  0  0  0  0  0
  -28.2080  -24.8836   19.9702 C   0  0  0  0  0  0  0  0  0  0  0  0
  -28.6912  -23.6288   20.3409 C   0  0  0  0  0  0  0  0  0  0  0  0
  -25.8809  -19.8383   23.9750 C   0  0  0  0  0  0  0  0  0  0  0  0
  -30.7012  -24.6570   21.2011 C   0  0  0  0  0  0  0  0  0  0  0  0
  -24.9115  -28.5306   21.5307 C   0  0  0  0  0  0  0  0  0  0  0  0
  -23.3824  -30.2371   22.6522 C   0  0  0  0  0  0  0  0  0  0  0  0
  -24.1373  -12.3981   19.0039 C   0  0  0  0  0  0  0  0  0  0  0  0
  -25.9346  -18.9796   21.7124 C   0  0  0  0  0  0  0  0  0  0  0  0
  -23.9148  -13.5802   19.7357 C   0  0  0  0  0  0  0  0  0  0  0  0
  -26.4087  -18.9437   23.0315 C   0  0  0  0  0  0  0  0  0  0  0  0
  -27.3165  -27.6833   20.3992 C   0  0  0  0  0  0  0  0  0  0  0  0
  -24.9044  -20.7641   23.6086 C   0  0  0  0  0  0  0  0  0  0  0  0
  -28.9714  -26.0251   20.2147 C   0  0  0  0  0  0  0  0  0  0  0  0
  -29.9378  -23.5154   20.9564 C   0  0  0  0  0  0  0  0  0  0  0  0
  -30.2180  -25.9118   20.8302 C   0  0  0  0  0  0  0  0  0  0  0  0
  -23.6689  -28.9680   22.1145 C   0  0  0  0  0  0  0  0  0  0  0  0
  -22.0787  -30.1448   23.0744 C   0  0  0  0  0  0  0  0  0  0  0  0
  -24.2199  -31.3958   22.7602 C   0  0  0  0  0  0  0  0  0  0  0  0
  -26.0787  -15.8043   21.7417 C   0  0  0  0  0  0  0  0  0  0  0  0
  -29.1713  -16.3409   22.5603 C   0  0  0  0  0  0  0  0  0  0  0  0
  -31.4825  -18.4457   23.9296 C   0  0  0  0  0  0  0  0  0  0  0  0
  -18.6647  -25.5069   24.6953 C   0  0  0  0  0  0  0  0  0  0  0  0
  -25.0882  -11.3324   19.4882 C   0  0  0  0  0  0  0  0  0  0  0  0
  -26.4996  -18.0492   20.6743 C   0  0  0  0  0  0  0  0  0  0  0  0
  -27.4658  -17.9636   23.4678 C   0  0  0  0  0  0  0  0  0  0  0  0
  -26.0700  -11.8276   20.5471 C   0  0  0  0  0  0  0  0  0  0  0  0
  -17.9854  -27.8770   22.1657 C   0  0  0  0  0  0  0  0  0  0  0  0
  -25.3408  -12.6387   21.6134 C   0  0  0  0  0  0  0  0  0  0  0  0
  -19.3380  -28.5254   21.8840 C   0  0  0  0  0  0  0  0  0  0  0  0
  -20.3420  -23.0951   26.9464 C   0  0  0  0  0  0  0  0  0  0  0  0
  -18.1473  -26.3893   22.4474 C   0  0  0  0  0  0  0  0  0  0  0  0
  -19.1515  -23.9626   26.5683 C   0  0  0  0  0  0  0  0  0  0  0  0
  -20.8450  -24.1657   24.8798 C   0  0  0  0  0  0  0  0  0  0  0  0
  -20.4286  -26.7495   23.3503 C   0  0  0  0  0  0  0  0  0  0  0  0
  -24.6808  -13.8822   21.0054 C   0  0  1  0  0  0  0  0  0  0  0  0
  -27.1137  -16.7877   21.2734 C   0  0  1  0  0  0  0  0  0  0  0  0
  -21.0029  -22.8237   25.5945 C   0  0  1  0  0  0  0  0  0  0  0  0
  -20.3181  -28.2558   23.0363 C   0  0  1  0  0  0  0  0  0  0  0  0
  -33.7427  -19.2920   24.6172 C   0  0  0  0  0  0  0  0  0  0  0  0
  -28.7192  -14.5210   24.9673 C   0  0  0  0  0  0  0  0  0  0  0  0
  -30.8167  -15.4466   25.9732 C   0  0  0  0  0  0  0  0  0  0  0  0
  -30.9153  -14.2000   23.8147 C   0  0  0  0  0  0  0  0  0  0  0  0
  -31.9099  -19.7692   21.3173 C   0  0  0  0  0  0  0  0  0  0  0  0
  -22.4469  -22.3703   25.7137 C   0  0  0  0  0  0  0  0  0  0  0  0
  -23.0578  -22.0639   24.3548 C   0  0  0  0  0  0  0  0  0  1  0  0
  -29.9170  -16.5224   23.8603 C   0  0  1  0  0  0  0  0  0  0  0  0
  -32.8558  -18.8818   23.4519 C   0  0  2  0  0  0  0  0  0  0  0  0
  -30.0707  -15.1898   24.6464 C   0  0  0  0  0  0  0  0  0  0  0  0
  -22.6307  -28.1308   22.1874 N   0  0  0  0  0  0  0  0  0  0  0  0
  -21.6792  -28.8754   22.7759 N   0  0  0  0  0  0  0  0  0  0  0  0
  -27.9826  -17.0706   22.4176 N   0  0  0  0  0  0  0  0  0  0  0  0
  -19.1036  -26.1412   23.5278 N   0  0  0  0  0  0  0  0  0  0  0  0
  -19.5678  -24.6880   25.3720 N   0  0  0  0  0  0  0  0  0  0  0  0
  -21.2466  -31.0265   23.6682 N   0  0  0  0  0  0  0  0  0  0  0  0
  -25.5330  -31.3187   22.2762 N   0  0  0  0  0  0  0  0  0  0  0  0
  -25.6680  -14.9135   20.7684 N   0  0  0  0  0  0  0  0  0  0  0  0
  -31.1820  -17.1642   23.5190 N   0  0  0  0  0  0  0  0  0  0  0  0
  -32.7369  -20.0398   22.5214 N   0  3  0  0  0  0  0  0  0  0  0  0
  -23.8210  -32.4627   23.2857 O   0  0  0  0  0  0  0  0  0  0  0  0
  -25.6831  -15.8494   22.9006 O   0  0  0  0  0  0  0  0  0  0  0  0
  -29.6304  -15.5853   21.7002 O   0  0  0  0  0  0  0  0  0  0  0  0
  -30.7511  -19.1682   24.6031 O   0  0  0  0  0  0  0  0  0  0  0  0
  -17.4994  -25.6321   25.0956 O   0  0  0  0  0  0  0  0  0  0  0  0
  -28.4899  -27.2703   19.8467 O   0  0  0  0  0  0  0  0  0  0  0  0
  -24.3990  -21.6331   24.5407 O   0  0  0  0  0  0  0  0  0  1  0  0
  -30.4011  -22.3105   21.3138 F   0  0  0  0  0  0  0  0  0  0  0  0
  -30.9554  -27.0050   21.0689 F   0  0  0  0  0  0  0  0  0  0  0  0
  1  2  1  0  0  0  0
  1  5  2  0  0  0  0
  2  6  2  0  0  0  0
  3  8  2  0  0  0  0
  3 15  1  0  0  0  0
  4  9  1  0  0  0  0
  4 15  2  0  0  0  0
  5 17  1  0  0  0  0
  6 19  1  0  0  0  0
  7 10  2  0  0  0  0
  7 18  1  0  0  0  0
  8 21  1  0  0  0  0
  9 21  2  0  0  0  0
 10 22  1  0  0  0  0
 11 12  2  0  0  0  0
 11 23  1  0  0  0  0
 12 24  1  0  0  0  0
 13 20  1  0  0  0  0
 13 22  2  0  0  0  0
 14 24  2  0  0  0  0
 14 25  1  0  0  0  0
 15 26  1  0  0  0  0
 16 26  1  0  0  0  0
 16 27  2  0  0  0  0
 16 28  1  0  0  0  0
 17 19  2  0  0  0  0
 17 33  1  0  0  0  0
 18 20  2  0  0  0  0
 18 34  1  0  0  0  0
 19 45  1  0  0  0  0
 20 35  1  0  0  0  0
 21 74  1  0  0  0  0
 22 75  1  0  0  0  0
 23 25  2  0  0  0  0
 23 74  1  0  0  0  0
 24 76  1  0  0  0  0
 25 77  1  0  0  0  0
 26 59  2  0  0  0  0
 27 60  1  0  0  0  0
 27 64  1  0  0  0  0
 28 65  1  0  0  0  0
 28 69  2  0  0  0  0
 29 46  1  0  0  0  0
 29 66  1  0  0  0  0
 29 70  2  0  0  0  0
 30 56  1  0  0  0  0
 30 61  1  0  0  0  0
 30 71  2  0  0  0  0
 31 57  1  0  0  0  0
 31 67  1  0  0  0  0
 31 72  2  0  0  0  0
 32 62  1  0  0  0  0
 32 63  1  0  0  0  0
 32 73  2  0  0  0  0
 33 36  1  0  0  0  0
 34 46  1  0  0  0  0
 35 61  1  0  0  0  0
 36 38  1  0  0  0  0
 37 39  1  0  0  0  0
 37 41  1  0  0  0  0
 38 45  1  0  0  0  0
 39 48  1  0  0  0  0
 40 42  1  0  0  0  0
 40 47  1  0  0  0  0
 41 62  1  0  0  0  0
 42 63  1  0  0  0  0
 43 47  1  0  0  0  0
 43 63  1  0  0  0  0
 44 48  1  0  0  0  0
 44 62  1  0  0  0  0
 45 66  1  0  0  0  0
 46 61  1  0  0  0  0
 47 54  1  0  0  0  0
 48 60  1  0  0  0  0
 49 57  1  0  0  0  0
 50 58  1  0  0  0  0
 51 58  1  0  0  0  0
 52 58  1  0  0  0  0
 53 68  1  0  0  0  0
 54 55  1  0  0  0  0
 55 75  1  0  0  0  0
 56 58  1  0  0  0  0
 56 67  1  0  0  0  0
 57 68  1  0  0  0  0
 59 60  1  0  0  0  0
M  CHG  1  68   1
M  ISO  4  32 100  55 101  63 100  75 101
M  END
> <Batch ID>
0181

> <Smiles>
CNC(C)C(=O)NC(C(=O)N1Cc2cc([101O:1][101CH2:1]CC3CC[100N:0]([100C:0](=O)N4CCCC(n5nc(-c6ccc(Oc7ccc(F)cc7F)cc6)c(C(N)=O)c5N)C4)C3)ccc2CC1C(=O)NC1CCCc2ccccc21)C(C)(C)C

> <Shape>
0.188

> <Color>
0.089

> <Negative vol penalty>
0.000

$$$$

  -OEChem-04052323023D

 82 91  0     1  0  0  0  0  0999 V2000
  -29.7815  -33.7643   24.8691 C   0  0  0  0  0  0  0  0  0  0  0  0
  -29.5619  -32.4567   24.4477 C   0  0  0  0  0  0  0  0  0  0  0  0
  -24.2666  -12.8241   21.1453 C   0  0  0  0  0  0  0  0  0  0  0  0
  -26.5375  -13.0487   20.3521 C   0  0  0  0  0  0  0  0  0  0  0  0
  -28.7006  -34.5763   25.2101 C   0  0  0  0  0  0  0  0  0  0  0  0
  -28.2613  -31.9601   24.3683 C   0  0  0  0  0  0  0  0  0  0  0  0
  -27.4237  -29.3834   20.0899 C   0  0  0  0  0  0  0  0  0  0  0  0
  -24.2006  -11.5445   20.5940 C   0  0  0  0  0  0  0  0  0  0  0  0
  -26.4716  -11.7691   19.8008 C   0  0  0  0  0  0  0  0  0  0  0  0
  -27.9173  -28.0812   20.0239 C   0  0  0  0  0  0  0  0  0  0  0  0
  -25.2616   -8.4332   21.3861 C   0  0  0  0  0  0  0  0  0  0  0  0
  -24.7071   -7.4190   22.1666 C   0  0  0  0  0  0  0  0  0  0  0  0
  -25.7186  -27.2286   20.5318 C   0  0  0  0  0  0  0  0  0  0  0  0
  -23.0034   -7.0611   20.4914 C   0  0  0  0  0  0  0  0  0  0  0  0
  -30.1948  -23.5715   20.6840 C   0  0  0  0  0  0  0  0  0  0  0  0
  -25.4350  -13.5762   21.0243 C   0  0  0  0  0  0  0  0  0  0  0  0
  -25.9232  -15.2445   22.8914 C   0  0  0  0  0  0  0  0  0  0  0  0
  -27.3856  -34.0925   25.1255 C   0  0  0  0  0  0  0  0  0  0  0  0
  -26.0740  -29.6187   20.3886 C   0  0  0  0  0  0  0  0  0  0  0  0
  -27.1620  -32.7660   24.7098 C   0  0  0  0  0  0  0  0  0  0  0  0
  -25.2099  -28.5346   20.5985 C   0  0  0  0  0  0  0  0  0  0  0  0
  -25.3030  -11.0170   19.9218 C   0  0  0  0  0  0  0  0  0  0  0  0
  -27.0654  -27.0036   20.2477 C   0  0  0  0  0  0  0  0  0  0  0  0
  -24.6869   -8.7616   20.1582 C   0  0  0  0  0  0  0  0  0  0  0  0
  -23.5780   -6.7329   21.7193 C   0  0  0  0  0  0  0  0  0  0  0  0
  -23.5579   -8.0755   19.7108 C   0  0  0  0  0  0  0  0  0  0  0  0
  -25.5036  -14.8983   21.5930 C   0  0  0  0  0  0  0  0  0  0  0  0
  -29.8553  -21.5097   19.7550 C   0  0  0  0  0  0  0  0  0  0  0  0
  -29.2568  -24.1103   19.8311 C   0  0  0  0  0  0  0  0  0  0  0  0
  -28.9167  -22.0482   18.9026 C   0  0  0  0  0  0  0  0  0  0  0  0
  -25.8048  -16.6121   22.9374 C   0  0  0  0  0  0  0  0  0  0  0  0
  -26.3791  -14.4048   23.9605 C   0  0  0  0  0  0  0  0  0  0  0  0
  -24.5208  -31.1062   22.7294 C   0  0  0  0  0  0  0  0  0  0  0  0
  -21.9302  -30.4822   20.8796 C   0  0  0  0  0  0  0  0  0  0  0  0
  -20.4956  -28.5500   18.4598 C   0  0  0  0  0  0  0  0  0  0  0  0
  -25.8780  -20.8552   18.7134 C   0  0  0  0  0  0  0  0  0  0  0  0
  -26.2522  -34.9925   25.5500 C   0  0  0  0  0  0  0  0  0  0  0  0
  -25.5513  -31.0285   20.4298 C   0  0  0  0  0  0  0  0  0  0  0  0
  -23.7481  -28.7329   20.9026 C   0  0  0  0  0  0  0  0  0  0  0  0
  -24.8824  -34.5100   25.0799 C   0  0  0  0  0  0  0  0  0  0  0  0
  -23.2793  -20.2170   21.0621 C   0  0  0  0  0  0  0  0  0  0  0  0
  -24.7191  -33.0182   25.3536 C   0  0  0  0  0  0  0  0  0  0  0  0
  -29.3361  -19.0880   20.4898 C   0  0  0  0  0  0  0  0  0  0  0  0
  -30.7302  -19.3887   20.9442 C   0  0  0  0  0  0  0  0  0  0  0  0
  -23.5925  -18.8128   21.5816 C   0  0  0  0  0  0  0  0  0  0  0  0
  -23.6107  -20.3566   19.5779 C   0  0  0  0  0  0  0  0  0  0  0  0
  -25.3004  -18.5691   19.7316 C   0  0  0  0  0  0  0  0  0  0  0  0
  -25.7643  -32.1990   24.5869 C   0  0  1  0  0  0  0  0  0  0  0  0
  -30.1855  -20.0557   19.7087 C   0  0  0  0  0  0  0  0  0  0  0  0
  -24.2718  -31.1677   21.2489 C   0  0  1  0  0  0  0  0  0  0  0  0
  -25.0350  -18.3962   21.2369 C   0  0  2  0  0  0  0  0  0  0  0  0
  -18.3545  -28.2582   17.1839 C   0  0  0  0  0  0  0  0  0  0  0  0
  -20.6515  -29.1840   23.3270 C   0  0  0  0  0  0  0  0  0  0  0  0
  -18.9900  -28.1019   21.7984 C   0  0  0  0  0  0  0  0  0  0  0  0
  -19.0983  -30.5888   21.9600 C   0  0  0  0  0  0  0  0  0  0  0  0
  -21.8326  -29.0674   15.8707 C   0  0  0  0  0  0  0  0  0  0  0  0
  -28.1969  -21.2085   17.9030 C   0  0  0  0  0  0  0  0  0  0  0  0
  -28.9308  -25.5740   19.8842 C   0  0  0  0  0  0  0  0  0  1  0  0
  -20.9465  -29.3427   20.7670 C   0  0  1  0  0  0  0  0  0  0  0  0
  -19.7257  -28.9157   17.2037 C   0  0  2  0  0  0  0  0  0  0  0  0
  -19.9495  -29.3003   21.9593 C   0  0  0  0  0  0  0  0  0  0  0  0
  -30.5109  -22.2616   20.6612 N   0  0  0  0  0  0  0  0  0  0  0  0
  -25.1454  -15.9604   20.8666 N   0  0  0  0  0  0  0  0  0  0  0  0
  -28.6008  -23.3583   18.9251 N   0  0  0  0  0  0  0  0  0  0  0  0
  -25.3394  -16.9873   21.7115 N   0  0  0  0  0  0  0  0  0  0  0  0
  -23.2861  -30.1304   20.9382 N   0  0  0  0  0  0  0  0  0  0  0  0
  -24.9931  -19.9474   19.3185 N   0  0  0  0  0  0  0  0  0  0  0  0
  -26.0544  -17.5182   23.9064 N   0  0  0  0  0  0  0  0  0  0  0  0
  -26.4396  -13.0214   23.7442 N   0  0  0  0  0  0  0  0  0  0  0  0
  -25.3882  -32.0760   23.1948 N   0  0  0  0  0  0  0  0  0  0  0  0
  -20.3107  -29.4798   19.4611 N   0  0  0  0  0  0  0  0  0  0  0  0
  -27.1710  -20.3894   18.5091 N   0  0  0  0  0  0  0  0  0  0  0  0
  -20.4742  -28.4781   15.9915 N   0  3  0  0  0  0  0  0  0  0  0  0
  -26.7072  -14.8661   25.0799 O   0  0  0  0  0  0  0  0  0  0  0  0
  -23.9660  -30.2436   23.4000 O   0  0  0  0  0  0  0  0  0  0  0  0
  -21.5114  -31.6421   20.9072 O   0  0  0  0  0  0  0  0  0  0  0  0
  -21.1886  -27.5386   18.5457 O   0  0  0  0  0  0  0  0  0  0  0  0
  -25.5420  -21.9980   18.3849 O   0  0  0  0  0  0  0  0  0  0  0  0
  -25.2391   -9.7683   19.3840 O   0  0  0  0  0  0  0  0  0  0  0  0
  -27.5447  -25.7316   20.1845 O   0  0  0  0  0  0  0  0  0  1  0  0
  -23.0466   -5.7578   22.4683 F   0  0  0  0  0  0  0  0  0  0  0  0
  -23.0021   -8.3856   18.5315 F   0  0  0  0  0  0  0  0  0  0  0  0
  1  2  1  0  0  0  0
  1  5  2  0  0  0  0
  2  6  2  0  0  0  0
  3  8  2  0  0  0  0
  3 16  1  0  0  0  0
  4  9  1  0  0  0  0
  4 16  2  0  0  0  0
  5 18  1  0  0  0  0
  6 20  1  0  0  0  0
  7 10  2  0  0  0  0
  7 19  1  0  0  0  0
  8 22  1  0  0  0  0
  9 22  2  0  0  0  0
 10 23  1  0  0  0  0
 11 12  2  0  0  0  0
 11 24  1  0  0  0  0
 12 25  1  0  0  0  0
 13 21  1  0  0  0  0
 13 23  2  0  0  0  0
 14 25  2  0  0  0  0
 14 26  1  0  0  0  0
 15 29  1  0  0  0  0
 15 62  2  0  0  0  0
 16 27  1  0  0  0  0
 17 27  1  0  0  0  0
 17 31  2  0  0  0  0
 17 32  1  0  0  0  0
 18 20  2  0  0  0  0
 18 37  1  0  0  0  0
 19 21  2  0  0  0  0
 19 38  1  0  0  0  0
 20 48  1  0  0  0  0
 21 39  1  0  0  0  0
 22 79  1  0  0  0  0
 23 80  1  0  0  0  0
 24 26  2  0  0  0  0
 24 79  1  0  0  0  0
 25 81  1  0  0  0  0
 26 82  1  0  0  0  0
 27 63  2  0  0  0  0
 28 30  2  0  0  0  0
 28 49  1  0  0  0  0
 28 62  1  0  0  0  0
 29 58  1  0  0  0  0
 29 64  2  0  0  0  0
 30 57  1  0  0  0  0
 30 64  1  0  0  0  0
 31 65  1  0  0  0  0
 31 68  1  0  0  0  0
 32 69  1  0  0  0  0
 32 74  2  0  0  0  0
 33 50  1  0  0  0  0
 33 70  1  0  0  0  0
 33 75  2  0  0  0  0
 34 59  1  0  0  0  0
 34 66  1  0  0  0  0
 34 76  2  0  0  0  0
 35 60  1  0  0  0  0
 35 71  1  0  0  0  0
 35 77  2  0  0  0  0
 36 67  1  0  0  0  0
 36 72  1  0  0  0  0
 36 78  2  0  0  0  0
 37 40  1  0  0  0  0
 38 50  1  0  0  0  0
 39 66  1  0  0  0  0
 40 42  1  0  0  0  0
 41 45  1  0  0  0  0
 41 46  1  0  0  0  0
 42 48  1  0  0  0  0
 43 44  1  0  0  0  0
 43 49  1  0  0  0  0
 44 49  1  0  0  0  0
 45 51  1  0  0  0  0
 46 67  1  0  0  0  0
 47 51  1  0  0  0  0
 47 67  1  0  0  0  0
 48 70  1  0  0  0  0
 50 66  1  0  0  0  0
 51 65  1  0  0  0  0
 52 60  1  0  0  0  0
 53 61  1  0  0  0  0
 54 61  1  0  0  0  0
 55 61  1  0  0  0  0
 56 73  1  0  0  0  0
 57 72  1  0  0  0  0
 58 80  1  0  0  0  0
 59 61  1  0  0  0  0
 59 71  1  0  0  0  0
 60 73  1  0  0  0  0
 63 65  1  0  0  0  0
M  CHG  1  73   1
M  ISO  4  36 100  58 101  72 100  80 101
M  END
> <Batch ID>
0181

> <Smiles>
CNC(C)C(=O)NC(C(=O)N1Cc2cc([101O:1][101CH2:1]c3cnc(C4CC4)c(C[100NH:0][100C:0](=O)N4CCCC(n5nc(-c6ccc(Oc7ccc(F)cc7F)cc6)c(C(N)=O)c5N)C4)n3)ccc2CC1C(=O)NC1CCCc2ccccc21)C(C)(C)C

> <Shape>
0.251

> <Color>
0.077

> <Negative vol penalty>
0.000

$$$$

  -OEChem-04052323023D

 83 92  0     1  0  0  0  0  0999 V2000
  -16.6562  -30.3564   24.1528 C   0  0  0  0  0  0  0  0  0  0  0  0
  -17.1674  -29.0626   24.1376 C   0  0  0  0  0  0  0  0  0  0  0  0
  -23.5108   -9.7823   22.1198 C   0  0  0  0  0  0  0  0  0  0  0  0
  -23.9246  -11.2273   24.0113 C   0  0  0  0  0  0  0  0  0  0  0  0
  -17.2889  -31.3633   23.4249 C   0  0  0  0  0  0  0  0  0  0  0  0
  -18.3110  -28.7747   23.3934 C   0  0  0  0  0  0  0  0  0  0  0  0
  -24.1000  -24.5558   23.4608 C   0  0  0  0  0  0  0  0  0  0  0  0
  -22.8601   -8.8746   22.9554 C   0  0  0  0  0  0  0  0  0  0  0  0
  -23.2738  -10.3196   24.8470 C   0  0  0  0  0  0  0  0  0  0  0  0
  -24.7817  -23.6496   22.6498 C   0  0  0  0  0  0  0  0  0  0  0  0
  -19.8291   -8.5707   24.4229 C   0  0  0  0  0  0  0  0  0  0  0  0
  -18.6182   -8.0368   23.9821 C   0  0  0  0  0  0  0  0  0  0  0  0
  -25.8363  -25.4860   21.4945 C   0  0  0  0  0  0  0  0  0  0  0  0
  -19.5595   -5.8143   24.0886 C   0  0  0  0  0  0  0  0  0  0  0  0
  -28.8833  -18.7884   20.1453 C   0  0  0  0  0  0  0  0  0  0  0  0
  -24.0431  -10.9586   22.6477 C   0  0  0  0  0  0  0  0  0  0  0  0
  -24.1393  -12.9746   21.0876 C   0  0  0  0  0  0  0  0  0  0  0  0
  -18.4464  -31.0897   22.6792 C   0  0  0  0  0  0  0  0  0  0  0  0
  -24.2732  -25.9365   23.2872 C   0  0  0  0  0  0  0  0  0  0  0  0
  -18.9589  -29.7786   22.6538 C   0  0  0  0  0  0  0  0  0  0  0  0
  -25.1575  -26.4076   22.3063 C   0  0  0  0  0  0  0  0  0  0  0  0
  -22.7416   -9.1433   24.3190 C   0  0  0  0  0  0  0  0  0  0  0  0
  -25.6478  -24.1146   21.6646 C   0  0  0  0  0  0  0  0  0  0  0  0
  -20.9052   -7.7264   24.6964 C   0  0  0  0  0  0  0  0  0  0  0  0
  -18.4834   -6.6586   23.8149 C   0  0  0  0  0  0  0  0  0  0  0  0
  -20.7704   -6.3482   24.5293 C   0  0  0  0  0  0  0  0  0  0  0  0
  -24.7159  -11.8963   21.7850 C   0  0  0  0  0  0  0  0  0  0  0  0
  -29.2140  -20.0788   19.7848 C   0  0  0  0  0  0  0  0  0  0  0  0
  -29.8811  -17.8490   19.9835 C   0  0  0  0  0  0  0  0  0  0  0  0
  -25.1904  -13.5518   20.4179 C   0  0  0  0  0  0  0  0  0  0  0  0
  -31.3101  -19.4295   19.1917 C   0  0  0  0  0  0  0  0  0  0  0  0
  -22.7755  -13.4153   21.0487 C   0  0  0  0  0  0  0  0  0  0  0  0
  -22.3657  -28.3556   22.5044 C   0  0  0  0  0  0  0  0  0  0  0  0
  -24.9995  -30.1333   23.1565 C   0  0  0  0  0  0  0  0  0  0  0  0
  -28.3989  -30.2888   23.4142 C   0  0  0  0  0  0  0  0  0  0  0  0
  -30.4376  -15.4081   20.2636 C   0  0  0  0  0  0  0  0  0  0  0  0
  -19.0682  -32.2004   21.8704 C   0  0  0  0  0  0  0  0  0  0  0  0
  -23.5508  -26.9005   24.1879 C   0  0  0  0  0  0  0  0  0  0  0  0
  -25.3940  -27.8797   22.0930 C   0  0  0  0  0  0  0  0  0  0  0  0
  -20.4906  -31.8946   21.4082 C   0  0  0  0  0  0  0  0  0  0  0  0
  -29.9315  -11.9284   19.7046 C   0  0  0  0  0  0  0  0  0  0  0  0
  -20.5715  -30.4872   20.8254 C   0  0  0  0  0  0  0  0  0  0  0  0
  -28.4820  -11.6985   20.1386 C   0  0  0  0  0  0  0  0  0  0  0  0
  -28.2630  -21.9045   21.2624 C   0  0  0  0  0  0  0  0  0  0  0  0
  -30.6340  -12.9530   20.5936 C   0  0  0  0  0  0  0  0  0  0  0  0
  -28.4827  -14.0049   21.1719 C   0  0  0  0  0  0  0  0  0  0  0  0
  -28.2838  -23.4773   19.5106 C   0  0  0  0  0  0  0  0  0  0  0  0
  -20.2117  -29.4324   21.8786 C   0  0  1  0  0  0  0  0  0  0  0  0
  -28.1886  -21.1751   19.9236 C   0  0  1  0  0  0  0  0  0  0  0  0
  -23.4107  -28.2937   23.5822 C   0  0  1  0  0  0  0  0  0  0  0  0
  -27.7142  -13.0289   20.2661 C   0  0  2  0  0  0  0  0  0  0  0  0
  -27.7363  -23.2739   20.9080 C   0  0  1  0  0  0  0  0  0  1  0  0
  -32.6587  -19.7858   18.6640 C   0  0  0  0  0  0  0  0  0  0  0  0
  -30.2645  -31.8867   23.9277 C   0  0  0  0  0  0  0  0  0  0  0  0
  -24.6873  -31.3830   20.3905 C   0  0  0  0  0  0  0  0  0  0  0  0
  -27.0390  -32.2209   20.5803 C   0  0  0  0  0  0  0  0  0  0  0  0
  -25.3065  -32.9948   22.1997 C   0  0  0  0  0  0  0  0  0  0  0  0
  -29.2801  -28.6923   25.7453 C   0  0  0  0  0  0  0  0  0  0  0  0
  -26.1805  -30.6276   22.3567 C   0  0  1  0  0  0  0  0  0  0  0  0
  -29.3024  -30.8545   24.4950 C   0  0  2  0  0  0  0  0  0  0  0  0
  -25.7976  -31.7788   21.3843 C   0  0  0  0  0  0  0  0  0  0  0  0
  -26.0313  -11.7922   21.5774 N   0  0  0  0  0  0  0  0  0  0  0  0
  -30.4224  -20.4361   19.3027 N   0  0  0  0  0  0  0  0  0  0  0  0
  -31.1106  -18.1357   19.5075 N   0  0  0  0  0  0  0  0  0  0  0  0
  -26.2899  -12.8126   20.7419 N   0  0  0  0  0  0  0  0  0  0  0  0
  -24.6597  -28.7827   22.9946 N   0  0  0  0  0  0  0  0  0  0  0  0
  -29.8512  -14.1888   20.6638 N   0  0  0  0  0  0  0  0  0  0  0  0
  -25.2722  -14.6143   19.5892 N   0  0  0  0  0  0  0  0  0  0  0  0
  -21.8234  -12.7086   21.7959 N   0  0  0  0  0  0  0  0  0  0  0  0
  -29.5872  -16.5104   20.3432 N   0  0  0  0  0  0  0  0  0  0  0  0
  -21.3230  -29.2193   22.7808 N   0  0  0  0  0  0  0  0  0  0  0  0
  -27.2107  -30.9827   23.3268 N   0  0  0  0  0  0  0  0  0  0  0  0
  -30.1000  -29.7652   25.1260 N   0  3  0  0  0  0  0  0  0  0  0  0
  -22.4091  -14.3965   20.3584 O   0  0  0  0  0  0  0  0  0  0  0  0
  -22.4964  -27.6716   21.4961 O   0  0  0  0  0  0  0  0  0  0  0  0
  -24.4049  -30.9148   23.9031 O   0  0  0  0  0  0  0  0  0  0  0  0
  -28.7172  -29.3297   22.7146 O   0  0  0  0  0  0  0  0  0  0  0  0
  -31.5995  -15.4655   19.8529 O   0  0  0  0  0  0  0  0  0  0  0  0
  -28.3486  -22.1768   18.9002 O   0  0  0  0  0  0  0  0  0  0  0  0
  -22.1065   -8.2580   25.1347 O   0  0  0  0  0  0  0  0  0  0  0  0
  -26.3141  -23.2323   20.8712 O   0  0  0  0  0  0  0  0  0  1  0  0
  -17.3200   -6.1459   23.3931 F   0  0  0  0  0  0  0  0  0  0  0  0
  -21.8003   -5.5320   24.7917 F   0  0  0  0  0  0  0  0  0  0  0  0
  1  2  1  0  0  0  0
  1  5  2  0  0  0  0
  2  6  2  0  0  0  0
  3  8  2  0  0  0  0
  3 16  1  0  0  0  0
  4  9  1  0  0  0  0
  4 16  2  0  0  0  0
  5 18  1  0  0  0  0
  6 20  1  0  0  0  0
  7 10  2  0  0  0  0
  7 19  1  0  0  0  0
  8 22  1  0  0  0  0
  9 22  2  0  0  0  0
 10 23  1  0  0  0  0
 11 12  2  0  0  0  0
 11 24  1  0  0  0  0
 12 25  1  0  0  0  0
 13 21  1  0  0  0  0
 13 23  2  0  0  0  0
 14 25  2  0  0  0  0
 14 26  1  0  0  0  0
 15 28  1  0  0  0  0
 15 29  2  0  0  0  0
 16 27  1  0  0  0  0
 17 27  1  0  0  0  0
 17 30  2  0  0  0  0
 17 32  1  0  0  0  0
 18 20  2  0  0  0  0
 18 37  1  0  0  0  0
 19 21  2  0  0  0  0
 19 38  1  0  0  0  0
 20 48  1  0  0  0  0
 21 39  1  0  0  0  0
 22 80  1  0  0  0  0
 23 81  1  0  0  0  0
 24 26  2  0  0  0  0
 24 80  1  0  0  0  0
 25 82  1  0  0  0  0
 26 83  1  0  0  0  0
 27 62  2  0  0  0  0
 28 49  1  0  0  0  0
 28 63  2  0  0  0  0
 29 64  1  0  0  0  0
 29 70  1  0  0  0  0
 30 65  1  0  0  0  0
 30 68  1  0  0  0  0
 31 53  1  0  0  0  0
 31 63  1  0  0  0  0
 31 64  2  0  0  0  0
 32 69  1  0  0  0  0
 32 74  2  0  0  0  0
 33 50  1  0  0  0  0
 33 71  1  0  0  0  0
 33 75  2  0  0  0  0
 34 59  1  0  0  0  0
 34 66  1  0  0  0  0
 34 76  2  0  0  0  0
 35 60  1  0  0  0  0
 35 72  1  0  0  0  0
 35 77  2  0  0  0  0
 36 67  1  0  0  0  0
 36 70  1  0  0  0  0
 36 78  2  0  0  0  0
 37 40  1  0  0  0  0
 38 50  1  0  0  0  0
 39 66  1  0  0  0  0
 40 42  1  0  0  0  0
 41 43  1  0  0  0  0
 41 45  1  0  0  0  0
 42 48  1  0  0  0  0
 43 51  1  0  0  0  0
 44 49  1  0  0  0  0
 44 52  1  0  0  0  0
 45 67  1  0  0  0  0
 46 51  1  0  0  0  0
 46 67  1  0  0  0  0
 47 52  1  0  0  0  0
 47 79  1  0  0  0  0
 48 71  1  0  0  0  0
 49 79  1  0  0  0  0
 50 66  1  0  0  0  0
 51 65  1  0  0  0  0
 52 81  1  0  0  0  0
 54 60  1  0  0  0  0
 55 61  1  0  0  0  0
 56 61  1  0  0  0  0
 57 61  1  0  0  0  0
 58 73  1  0  0  0  0
 59 61  1  0  0  0  0
 59 72  1  0  0  0  0
 60 73  1  0  0  0  0
 62 65  1  0  0  0  0
M  CHG  1  73   1
M  ISO  4  36 100  52 101  70 100  81 101
M  END
> <Batch ID>
0181

> <Smiles>
CNC(C)C(=O)NC(C(=O)N1Cc2cc([101O:1][101CH:1]3COC(c4cc([100NH:0][100C:0](=O)N5CCCC(n6nc(-c7ccc(Oc8ccc(F)cc8F)cc7)c(C(N)=O)c6N)C5)nc(C)n4)C3)ccc2CC1C(=O)NC1CCCc2ccccc21)C(C)(C)C

> <Shape>
0.275

> <Color>
0.141

> <Negative vol penalty>
0.000

$$$$

  -OEChem-04052323023D

 83 92  0     1  0  0  0  0  0999 V2000
  -16.5832  -28.4057   23.3433 C   0  0  0  0  0  0  0  0  0  0  0  0
  -17.5418  -27.4710   22.9654 C   0  0  0  0  0  0  0  0  0  0  0  0
  -26.9580  -12.4450   22.4741 C   0  0  0  0  0  0  0  0  0  0  0  0
  -27.5767  -10.6873   20.9363 C   0  0  0  0  0  0  0  0  0  0  0  0
  -16.8333  -29.7667   23.1733 C   0  0  0  0  0  0  0  0  0  0  0  0
  -18.7508  -27.8969   22.4163 C   0  0  0  0  0  0  0  0  0  0  0  0
  -24.2474  -25.2991   23.1541 C   0  0  0  0  0  0  0  0  0  0  0  0
  -26.0989  -11.5659   23.1334 C   0  0  0  0  0  0  0  0  0  0  0  0
  -26.7176   -9.8082   21.5956 C   0  0  0  0  0  0  0  0  0  0  0  0
  -24.9862  -24.4249   22.3581 C   0  0  0  0  0  0  0  0  0  0  0  0
  -23.3986   -9.1707   21.6916 C   0  0  0  0  0  0  0  0  0  0  0  0
  -22.5712   -8.3648   20.9098 C   0  0  0  0  0  0  0  0  0  0  0  0
  -26.1965  -26.2968   21.4360 C   0  0  0  0  0  0  0  0  0  0  0  0
  -23.5871   -6.3929   21.8672 C   0  0  0  0  0  0  0  0  0  0  0  0
  -27.6969  -12.0058   21.3755 C   0  0  0  0  0  0  0  0  0  0  0  0
  -29.9438  -13.1455   20.9752 C   0  0  0  0  0  0  0  0  0  0  0  0
  -18.0498  -30.2099   22.6307 C   0  0  0  0  0  0  0  0  0  0  0  0
  -24.4705  -26.6821   23.0890 C   0  0  0  0  0  0  0  0  0  0  0  0
  -19.0168  -29.2651   22.2376 C   0  0  0  0  0  0  0  0  0  0  0  0
  -25.4610  -27.1863   22.2341 C   0  0  0  0  0  0  0  0  0  0  0  0
  -28.4873  -20.7971   21.1307 C   0  0  0  0  0  0  0  0  0  0  0  0
  -25.9787  -10.2475   22.6941 C   0  0  0  0  0  0  0  0  0  0  0  0
  -25.9589  -24.9239   21.4967 C   0  0  0  0  0  0  0  0  0  0  0  0
  -24.3204   -8.5878   22.5612 C   0  0  0  0  0  0  0  0  0  0  0  0
  -22.6654   -6.9758   20.9976 C   0  0  0  0  0  0  0  0  0  0  0  0
  -24.4146   -7.1989   22.6491 C   0  0  0  0  0  0  0  0  0  0  0  0
  -28.5841  -12.9136   20.6937 C   0  0  0  0  0  0  0  0  0  0  0  0
  -28.2550  -19.6834   20.3496 C   0  0  0  0  0  0  0  0  0  0  0  0
  -28.9995  -20.5484   22.3877 C   0  0  0  0  0  0  0  0  0  0  0  0
  -30.3296  -14.0872   20.0528 C   0  0  0  0  0  0  0  0  0  0  0  0
  -28.9990  -18.3086   22.0000 C   0  0  0  0  0  0  0  0  0  0  0  0
  -30.7829  -12.5619   21.9806 C   0  0  0  0  0  0  0  0  0  0  0  0
  -22.7110  -29.2022   22.2786 C   0  0  0  0  0  0  0  0  0  0  0  0
  -25.3068  -30.8548   23.3050 C   0  0  0  0  0  0  0  0  0  0  0  0
  -28.6652  -30.8904   23.9106 C   0  0  0  0  0  0  0  0  0  0  0  0
  -27.3620  -18.2741   17.0650 C   0  0  0  0  0  0  0  0  0  0  0  0
  -18.2556  -31.6894   22.4224 C   0  0  0  0  0  0  0  0  0  0  0  0
  -23.6836  -27.6096   23.9738 C   0  0  0  0  0  0  0  0  0  0  0  0
  -25.7532  -28.6609   22.1417 C   0  0  0  0  0  0  0  0  0  0  0  0
  -19.7130  -32.0734   22.1799 C   0  0  0  0  0  0  0  0  0  0  0  0
  -29.3324  -15.6711   15.6472 C   0  0  0  0  0  0  0  0  0  0  0  0
  -20.3487  -31.1371   21.1571 C   0  0  0  0  0  0  0  0  0  0  0  0
  -29.4783  -14.6748   16.7997 C   0  0  0  0  0  0  0  0  0  0  0  0
  -27.9510  -16.3213   15.6369 C   0  0  0  0  0  0  0  0  0  0  0  0
  -26.2340  -19.7642   18.6970 C   0  0  0  0  0  0  0  0  0  0  0  0
  -27.7074  -15.9589   18.0719 C   0  0  0  0  0  0  0  0  0  0  0  0
  -20.3503  -29.6889   21.6612 C   0  0  1  0  0  0  0  0  0  0  0  0
  -27.6955  -19.8434   18.9606 C   0  0  2  0  0  0  0  0  0  0  0  0
  -23.6393  -29.0414   23.4491 C   0  0  1  0  0  0  0  0  0  0  0  0
  -29.1064  -15.3242   18.1459 C   0  0  1  0  0  0  0  0  0  0  0  0
  -29.2920  -21.6758   23.3228 C   0  0  0  0  0  0  0  0  0  0  0  0
  -29.2838  -16.9268   22.4826 C   0  0  0  0  0  0  0  0  0  0  0  0
  -30.5067  -32.3956   24.7110 C   0  0  0  0  0  0  0  0  0  0  0  0
  -25.3075  -32.2834   20.6089 C   0  0  0  0  0  0  0  0  0  0  0  0
  -27.6471  -33.0359   21.0868 C   0  0  0  0  0  0  0  0  0  0  0  0
  -25.7781  -33.7597   22.5719 C   0  0  0  0  0  0  0  0  0  0  0  0
  -29.2662  -29.1257   26.2092 C   0  0  0  0  0  0  0  0  0  0  0  0
  -28.2004  -22.1972   20.6453 C   0  0  0  0  0  0  0  0  0  0  0  0
  -26.9095  -22.7604   21.2296 C   0  0  0  0  0  0  0  0  0  1  0  0
  -26.5745  -31.3619   22.6611 C   0  0  1  0  0  0  0  0  0  0  0  0
  -29.4674  -31.3599   25.1108 C   0  0  2  0  0  0  0  0  0  0  0  0
  -26.3202  -32.5825   21.7322 C   0  0  0  0  0  0  0  0  0  0  0  0
  -28.1363  -13.6488   19.6724 N   0  0  0  0  0  0  0  0  0  0  0  0
  -28.5003  -18.4198   20.7541 N   0  0  0  0  0  0  0  0  0  0  0  0
  -29.2682  -19.3122   22.8567 N   0  0  0  0  0  0  0  0  0  0  0  0
  -29.2207  -14.3520   19.3042 N   0  0  0  0  0  0  0  0  0  0  0  0
  -24.9529  -29.5279   23.0223 N   0  0  0  0  0  0  0  0  0  0  0  0
  -27.6417  -16.8992   16.9444 N   0  0  0  0  0  0  0  0  0  0  0  0
  -27.0956  -18.6736   18.3734 N   0  0  0  0  0  0  0  0  0  0  0  0
  -31.5059  -14.7063   19.8172 N   0  0  0  0  0  0  0  0  0  0  0  0
  -30.2261  -11.6101   22.8457 N   0  0  0  0  0  0  0  0  0  0  0  0
  -21.4067  -29.4924   22.6307 N   0  0  0  0  0  0  0  0  0  0  0  0
  -27.5089  -31.6243   23.7503 N   0  0  0  0  0  0  0  0  0  0  0  0
  -30.1704  -30.2096   25.7461 N   0  3  0  0  0  0  0  0  0  0  0  0
  -31.9865  -12.8872   22.1186 O   0  0  0  0  0  0  0  0  0  0  0  0
  -23.1462  -29.0741   21.1403 O   0  0  0  0  0  0  0  0  0  0  0  0
  -24.6583  -31.6060   24.0377 O   0  0  0  0  0  0  0  0  0  0  0  0
  -29.0298  -29.9675   23.1854 O   0  0  0  0  0  0  0  0  0  0  0  0
  -27.3602  -19.0527   16.1079 O   0  0  0  0  0  0  0  0  0  0  0  0
  -25.1407   -9.3893   23.3374 O   0  0  0  0  0  0  0  0  0  0  0  0
  -26.6809  -24.0728   20.7182 O   0  0  0  0  0  0  0  0  0  1  0  0
  -21.8696   -6.2020   20.2478 F   0  0  0  0  0  0  0  0  0  0  0  0
  -25.2974   -6.6331   23.4836 F   0  0  0  0  0  0  0  0  0  0  0  0
  1  2  1  0  0  0  0
  1  5  2  0  0  0  0
  2  6  2  0  0  0  0
  3  8  2  0  0  0  0
  3 15  1  0  0  0  0
  4  9  1  0  0  0  0
  4 15  2  0  0  0  0
  5 17  1  0  0  0  0
  6 19  1  0  0  0  0
  7 10  2  0  0  0  0
  7 18  1  0  0  0  0
  8 22  1  0  0  0  0
  9 22  2  0  0  0  0
 10 23  1  0  0  0  0
 11 12  2  0  0  0  0
 11 24  1  0  0  0  0
 12 25  1  0  0  0  0
 13 20  1  0  0  0  0
 13 23  2  0  0  0  0
 14 25  2  0  0  0  0
 14 26  1  0  0  0  0
 15 27  1  0  0  0  0
 16 27  1  0  0  0  0
 16 30  2  0  0  0  0
 16 32  1  0  0  0  0
 17 19  2  0  0  0  0
 17 37  1  0  0  0  0
 18 20  2  0  0  0  0
 18 38  1  0  0  0  0
 19 47  1  0  0  0  0
 20 39  1  0  0  0  0
 21 28  2  0  0  0  0
 21 29  1  0  0  0  0
 21 58  1  0  0  0  0
 22 80  1  0  0  0  0
 23 81  1  0  0  0  0
 24 26  2  0  0  0  0
 24 80  1  0  0  0  0
 25 82  1  0  0  0  0
 26 83  1  0  0  0  0
 27 63  2  0  0  0  0
 28 48  1  0  0  0  0
 28 64  1  0  0  0  0
 29 51  1  0  0  0  0
 29 65  2  0  0  0  0
 30 66  1  0  0  0  0
 30 70  1  0  0  0  0
 31 52  1  0  0  0  0
 31 64  2  0  0  0  0
 31 65  1  0  0  0  0
 32 71  1  0  0  0  0
 32 75  2  0  0  0  0
 33 49  1  0  0  0  0
 33 72  1  0  0  0  0
 33 76  2  0  0  0  0
 34 60  1  0  0  0  0
 34 67  1  0  0  0  0
 34 77  2  0  0  0  0
 35 61  1  0  0  0  0
 35 73  1  0  0  0  0
 35 78  2  0  0  0  0
 36 68  1  0  0  0  0
 36 69  1  0  0  0  0
 36 79  2  0  0  0  0
 37 40  1  0  0  0  0
 38 49  1  0  0  0  0
 39 67  1  0  0  0  0
 40 42  1  0  0  0  0
 41 43  1  0  0  0  0
 41 44  1  0  0  0  0
 42 47  1  0  0  0  0
 43 50  1  0  0  0  0
 44 68  1  0  0  0  0
 45 48  1  0  0  0  0
 45 69  1  0  0  0  0
 46 50  1  0  0  0  0
 46 68  1  0  0  0  0
 47 72  1  0  0  0  0
 48 69  1  0  0  0  0
 49 67  1  0  0  0  0
 50 66  1  0  0  0  0
 53 61  1  0  0  0  0
 54 62  1  0  0  0  0
 55 62  1  0  0  0  0
 56 62  1  0  0  0  0
 57 74  1  0  0  0  0
 58 59  1  0  0  0  0
 59 81  1  0  0  0  0
 60 62  1  0  0  0  0
 60 73  1  0  0  0  0
 61 74  1  0  0  0  0
 63 66  1  0  0  0  0
M  CHG  1  74   1
M  ISO  4  36 100  59 101  69 100  81 101
M  END
> <Batch ID>
0181

> <Smiles>
CNC(C)C(=O)NC(C(=O)N1Cc2cc([101O:1][101CH2:1]Cc3c(C)nc(C)nc3C3C[100N:0]3[100C:0](=O)N3CCCC(n4nc(-c5ccc(Oc6ccc(F)cc6F)cc5)c(C(N)=O)c4N)C3)ccc2CC1C(=O)NC1CCCc2ccccc21)C(C)(C)C

> <Shape>
0.237

> <Color>
0.056

> <Negative vol penalty>
0.000

$$$$

  -OEChem-04052323023D

 79 87  0     1  0  0  0  0  0999 V2000
  -33.4972  -20.4610   23.1118 C   0  0  0  0  0  0  0  0  0  0  0  0
  -32.3478  -21.1714   23.4429 C   0  0  0  0  0  0  0  0  0  0  0  0
  -29.5186  -26.1329   18.7872 C   0  0  0  0  0  0  0  0  0  0  0  0
  -29.1001  -25.3134   21.0211 C   0  0  0  0  0  0  0  0  0  0  0  0
  -33.4968  -19.6135   22.0048 C   0  0  0  0  0  0  0  0  0  0  0  0
  -31.1975  -21.0354   22.6665 C   0  0  0  0  0  0  0  0  0  0  0  0
  -24.0551  -21.0710   23.2151 C   0  0  0  0  0  0  0  0  0  0  0  0
  -30.8428  -25.7042   18.8780 C   0  0  0  0  0  0  0  0  0  0  0  0
  -30.4244  -24.8846   21.1119 C   0  0  0  0  0  0  0  0  0  0  0  0
  -22.9346  -21.6793   22.6512 C   0  0  0  0  0  0  0  0  0  0  0  0
  -34.2377  -24.5016   18.3846 C   0  0  0  0  0  0  0  0  0  0  0  0
  -34.7762  -23.8235   17.2911 C   0  0  0  0  0  0  0  0  0  0  0  0
  -23.0262  -20.1257   20.8081 C   0  0  0  0  0  0  0  0  0  0  0  0
  -33.0826  -22.1153   17.5163 C   0  0  0  0  0  0  0  0  0  0  0  0
  -28.6473  -25.9376   19.8588 C   0  0  0  0  0  0  0  0  0  0  0  0
  -26.1778  -25.6447   19.2897 C   0  0  0  0  0  0  0  0  0  0  0  0
  -32.3430  -19.4596   21.2200 C   0  0  0  0  0  0  0  0  0  0  0  0
  -24.6772  -19.9905   22.5732 C   0  0  0  0  0  0  0  0  0  0  0  0
  -31.1821  -20.1860   21.5471 C   0  0  0  0  0  0  0  0  0  0  0  0
  -24.1530  -19.5037   21.3673 C   0  0  0  0  0  0  0  0  0  0  0  0
  -31.2957  -25.0800   20.0403 C   0  0  0  0  0  0  0  0  0  0  0  0
  -22.4217  -21.2085   21.4460 C   0  0  0  0  0  0  0  0  0  0  0  0
  -33.1217  -23.9865   19.0441 C   0  0  0  0  0  0  0  0  0  0  0  0
  -34.1986  -22.6304   16.8569 C   0  0  0  0  0  0  0  0  0  0  0  0
  -32.5441  -22.7934   18.6099 C   0  0  0  0  0  0  0  0  0  0  0  0
  -27.2794  -26.3807   19.7659 C   0  0  0  0  0  0  0  0  0  0  0  0
  -25.1136  -26.5051   19.4069 C   0  0  0  0  0  0  0  0  0  0  0  0
  -26.1216  -24.3033   18.7866 C   0  0  0  0  0  0  0  0  0  0  0  0
  -27.5628  -19.4698   21.3460 C   0  0  0  0  0  0  0  0  0  0  0  0
  -26.4273  -16.4557   20.9608 C   0  0  0  0  0  0  0  0  0  0  0  0
  -23.7252  -14.3989   20.6218 C   0  0  0  0  0  0  0  0  0  0  0  0
  -22.2050  -30.2814   22.3094 C   0  0  0  0  0  0  0  0  0  0  0  0
  -32.4049  -18.5681   20.0051 C   0  0  0  0  0  0  0  0  0  0  0  0
  -25.8691  -19.3282   23.2081 C   0  0  0  0  0  0  0  0  0  0  0  0
  -24.7718  -18.3338   20.6485 C   0  0  0  0  0  0  0  0  0  0  0  0
  -31.0316  -18.1933   19.4540 C   0  0  0  0  0  0  0  0  0  0  0  0
  -24.9811  -31.4597   20.4171 C   0  0  0  0  0  0  0  0  0  0  0  0
  -30.1391  -19.4268   19.3604 C   0  0  0  0  0  0  0  0  0  0  0  0
  -25.7384  -30.1837   20.0453 C   0  0  0  0  0  0  0  0  0  0  0  0
  -18.1115  -27.3812   22.6814 C   0  0  0  0  0  0  0  0  0  0  0  0
  -24.3751  -31.3691   21.8158 C   0  0  0  0  0  0  0  0  0  0  0  0
  -24.2821  -28.9104   21.6752 C   0  0  0  0  0  0  0  0  0  0  0  0
  -29.9071  -20.0462   20.7439 C   0  0  1  0  0  0  0  0  0  0  0  0
  -26.7307  -18.5632   22.2082 C   0  0  1  0  0  0  0  0  0  0  0  0
  -19.5889  -27.6497   22.7893 C   0  0  1  0  0  0  0  0  0  0  0  0
  -24.8638  -28.9324   20.2514 C   0  0  2  0  0  0  0  0  0  0  0  0
  -19.0257  -27.0261   21.5402 C   0  0  1  0  0  0  0  0  0  0  0  0
  -23.1143  -11.9882   20.2859 C   0  0  0  0  0  0  0  0  0  0  0  0
  -27.2199  -16.6668   18.0219 C   0  0  0  0  0  0  0  0  0  0  0  0
  -25.7616  -14.6853   17.5583 C   0  0  0  0  0  0  0  0  0  0  0  0
  -27.7235  -14.4585   19.0821 C   0  0  0  0  0  0  0  0  0  0  0  0
  -22.2421  -14.2978   23.1809 C   0  0  0  0  0  0  0  0  0  0  0  0
  -20.0987  -29.0491   22.7617 C   0  0  0  0  0  0  0  0  0  0  0  0
  -20.4047  -23.8152   19.9751 C   0  0  0  0  0  0  0  0  0  0  0  0
  -20.1623  -25.3094   20.1261 C   0  0  0  0  0  0  0  0  0  0  0  0
  -21.1413  -23.1913   21.1540 C   0  0  0  0  0  0  0  0  0  1  0  0
  -25.6822  -15.7252   19.8698 C   0  0  1  0  0  0  0  0  0  0  0  0
  -23.3627  -13.0915   21.3027 C   0  0  2  0  0  0  0  0  0  0  0  0
  -26.5860  -15.4073   18.6454 C   0  0  0  0  0  0  0  0  0  0  0  0
  -26.9458  -27.6137   20.1563 N   0  0  0  0  0  0  0  0  0  0  0  0
  -25.6226  -27.6592   19.9256 N   0  0  0  0  0  0  0  0  0  0  0  0
  -25.9393  -17.7239   21.3061 N   0  0  0  0  0  0  0  0  0  0  0  0
  -23.5561  -30.1614   21.9448 N   0  0  0  0  0  0  0  0  0  0  0  0
  -23.8014  -26.3794   19.1158 N   0  0  0  0  0  0  0  0  0  0  0  0
  -27.3080  -23.5589   18.7349 N   0  0  0  0  0  0  0  0  0  0  0  0
  -28.9249  -19.2812   21.4818 N   0  0  0  0  0  0  0  0  0  0  0  0
  -25.0902  -14.5486   20.4971 N   0  0  0  0  0  0  0  0  0  0  0  0
  -21.4989  -29.0882   22.4030 N   0  0  0  0  0  0  0  0  0  0  0  0
  -19.3061  -25.5828   21.3041 N   0  3  0  0  0  0  0  0  0  0  0  0
  -22.1308  -13.2595   22.1243 N   0  3  0  0  0  0  0  0  0  0  0  0
  -25.0540  -23.7860   18.3791 O   0  0  0  0  0  0  0  0  0  0  0  0
  -27.0099  -20.2794   20.6108 O   0  0  0  0  0  0  0  0  0  0  0  0
  -27.4019  -15.9177   21.4921 O   0  0  0  0  0  0  0  0  0  0  0  0
  -22.8816  -15.2050   20.2355 O   0  0  0  0  0  0  0  0  0  0  0  0
  -21.6662  -31.3714   22.5297 O   0  0  0  0  0  0  0  0  0  0  0  0
  -32.5877  -24.6613   20.1291 O   0  0  0  0  0  0  0  0  0  0  0  0
  -21.3284  -21.8009   20.8930 O   0  0  0  0  0  0  0  0  0  1  0  0
  -34.7149  -21.9801   15.8058 F   0  0  0  0  0  0  0  0  0  0  0  0
  -31.4711  -22.2943   19.2386 F   0  0  0  0  0  0  0  0  0  0  0  0
  1  2  1  0  0  0  0
  1  5  2  0  0  0  0
  2  6  2  0  0  0  0
  3  8  2  0  0  0  0
  3 15  1  0  0  0  0
  4  9  1  0  0  0  0
  4 15  2  0  0  0  0
  5 17  1  0  0  0  0
  6 19  1  0  0  0  0
  7 10  2  0  0  0  0
  7 18  1  0  0  0  0
  8 21  1  0  0  0  0
  9 21  2  0  0  0  0
 10 22  1  0  0  0  0
 11 12  2  0  0  0  0
 11 23  1  0  0  0  0
 12 24  1  0  0  0  0
 13 20  1  0  0  0  0
 13 22  2  0  0  0  0
 14 24  2  0  0  0  0
 14 25  1  0  0  0  0
 15 26  1  0  0  0  0
 16 26  1  0  0  0  0
 16 27  2  0  0  0  0
 16 28  1  0  0  0  0
 17 19  2  0  0  0  0
 17 33  1  0  0  0  0
 18 20  2  0  0  0  0
 18 34  1  0  0  0  0
 19 43  1  0  0  0  0
 20 35  1  0  0  0  0
 21 76  1  0  0  0  0
 22 77  1  0  0  0  0
 23 25  2  0  0  0  0
 23 76  1  0  0  0  0
 24 78  1  0  0  0  0
 25 79  1  0  0  0  0
 26 60  2  0  0  0  0
 27 61  1  0  0  0  0
 27 64  1  0  0  0  0
 28 65  1  0  0  0  0
 28 71  2  0  0  0  0
 29 44  1  0  0  0  0
 29 66  1  0  0  0  0
 29 72  2  0  0  0  0
 30 57  1  0  0  0  0
 30 62  1  0  0  0  0
 30 73  2  0  0  0  0
 31 58  1  0  0  0  0
 31 67  1  0  0  0  0
 31 74  2  0  0  0  0
 32 63  1  0  0  0  0
 32 68  1  0  0  0  0
 32 75  2  0  0  0  0
 33 36  1  0  0  0  0
 34 44  1  0  0  0  0
 35 62  1  0  0  0  0
 36 38  1  0  0  0  0
 37 39  1  0  0  0  0
 37 41  1  0  0  0  0
 38 43  1  0  0  0  0
 39 46  1  0  0  0  0
 40 45  1  0  0  0  0
 40 47  1  0  0  0  0
 41 63  1  0  0  0  0
 42 46  1  0  0  0  0
 42 63  1  0  0  0  0
 43 66  1  0  0  0  0
 44 62  1  0  0  0  0
 45 47  1  0  0  0  0
 45 53  1  0  0  0  0
 46 61  1  0  0  0  0
 47 69  1  0  0  0  0
 48 58  1  0  0  0  0
 49 59  1  0  0  0  0
 50 59  1  0  0  0  0
 51 59  1  0  0  0  0
 52 70  1  0  0  0  0
 53 68  1  0  0  0  0
 54 55  1  0  0  0  0
 54 56  1  0  0  0  0
 55 69  1  0  0  0  0
 56 77  1  0  0  0  0
 57 59  1  0  0  0  0
 57 67  1  0  0  0  0
 58 70  1  0  0  0  0
 60 61  1  0  0  0  0
M  CHG  2  69   1  70   1
M  ISO  4  32 100  56 101  68 100  77 101
M  END
> <Batch ID>
0181

> <Smiles>
CNC(C)C(=O)NC(C(=O)N1Cc2cc([101O:1][101CH2:1]CCNC3CC3C[100NH:0][100C:0](=O)N3CCCC(n4nc(-c5ccc(Oc6ccc(F)cc6F)cc5)c(C(N)=O)c4N)C3)ccc2CC1C(=O)NC1CCCc2ccccc21)C(C)(C)C

> <Shape>
0.205

> <Color>
0.077

> <Negative vol penalty>
0.000

$$$$

  -OEChem-04052323023D

 85 94  0     1  0  0  0  0  0999 V2000
  -18.5516  -32.9972   24.5806 C   0  0  0  0  0  0  0  0  0  0  0  0
  -19.8294  -33.1490   24.0518 C   0  0  0  0  0  0  0  0  0  0  0  0
  -25.3960  -15.1828   19.2043 C   0  0  0  0  0  0  0  0  0  0  0  0
  -24.1530  -15.1678   21.2760 C   0  0  0  0  0  0  0  0  0  0  0  0
  -18.1044  -31.7349   24.9684 C   0  0  0  0  0  0  0  0  0  0  0  0
  -20.6612  -32.0387   23.9116 C   0  0  0  0  0  0  0  0  0  0  0  0
  -25.8045  -29.4161   19.6707 C   0  0  0  0  0  0  0  0  0  0  0  0
  -24.7994  -13.9765   18.8376 C   0  0  0  0  0  0  0  0  0  0  0  0
  -23.5564  -13.9615   20.9093 C   0  0  0  0  0  0  0  0  0  0  0  0
  -27.0952  -28.8935   19.7399 C   0  0  0  0  0  0  0  0  0  0  0  0
  -21.9757  -10.6967   20.6810 C   0  0  0  0  0  0  0  0  0  0  0  0
  -21.8964   -9.6928   21.6462 C   0  0  0  0  0  0  0  0  0  0  0  0
  -26.1868  -26.7494   20.3700 C   0  0  0  0  0  0  0  0  0  0  0  0
  -24.3054   -9.6792   21.8300 C   0  0  0  0  0  0  0  0  0  0  0  0
  -25.0729  -15.7785   20.4236 C   0  0  0  0  0  0  0  0  0  0  0  0
  -25.2193  -18.3230   20.5308 C   0  0  0  0  0  0  0  0  0  0  0  0
  -18.9275  -30.6070   24.8238 C   0  0  0  0  0  0  0  0  0  0  0  0
  -24.6940  -28.6108   19.9617 C   0  0  0  0  0  0  0  0  0  0  0  0
  -20.2250  -30.7602   24.2990 C   0  0  0  0  0  0  0  0  0  0  0  0
  -24.8830  -27.2635   20.3012 C   0  0  0  0  0  0  0  0  0  0  0  0
  -23.8795  -13.3659   19.6901 C   0  0  0  0  0  0  0  0  0  0  0  0
  -27.2867  -27.5608   20.0924 C   0  0  0  0  0  0  0  0  0  0  0  0
  -23.2199  -11.1918   20.2902 C   0  0  0  0  0  0  0  0  0  0  0  0
  -23.0612   -9.1841   22.2207 C   0  0  0  0  0  0  0  0  0  0  0  0
  -24.3847  -10.6830   20.8647 C   0  0  0  0  0  0  0  0  0  0  0  0
  -25.6893  -17.0243   20.8032 C   0  0  0  0  0  0  0  0  0  0  0  0
  -30.9223  -25.1140   21.6785 C   0  0  0  0  0  0  0  0  0  0  0  0
  -30.1229  -25.3095   20.5771 C   0  0  0  0  0  0  0  0  0  0  0  0
  -26.1547  -19.1528   21.0990 C   0  0  0  0  0  0  0  0  0  0  0  0
  -32.0455  -24.8217   19.8052 C   0  0  0  0  0  0  0  0  0  0  0  0
  -30.2759  -26.2547   23.7513 C   0  0  0  0  0  0  0  0  0  0  0  0
  -30.7177  -25.1726   23.0660 C   0  0  0  0  0  0  0  0  0  0  0  0
  -24.0424  -18.7419   19.8272 C   0  0  0  0  0  0  0  0  0  0  0  0
  -22.3883  -28.6747   22.1488 C   0  0  0  0  0  0  0  0  0  0  0  0
  -21.2116  -26.1975   20.4164 C   0  0  0  0  0  0  0  0  0  0  0  0
  -21.8159  -23.6365   18.2431 C   0  0  0  0  0  0  0  0  0  0  0  0
  -31.4526  -20.4959   21.7926 C   0  0  0  0  0  0  0  0  0  0  0  0
  -18.4175  -29.2702   25.3010 C   0  0  0  0  0  0  0  0  0  0  0  0
  -23.3067  -29.1825   19.8565 C   0  0  0  0  0  0  0  0  0  0  0  0
  -23.7229  -26.3516   20.6033 C   0  0  0  0  0  0  0  0  0  0  0  0
  -19.2232  -28.0867   24.7714 C   0  0  0  0  0  0  0  0  0  0  0  0
  -29.9699  -18.1704   24.2434 C   0  0  0  0  0  0  0  0  0  0  0  0
  -20.7184  -28.3488   24.9214 C   0  0  0  0  0  0  0  0  0  0  0  0
  -28.7063  -17.7349   23.5074 C   0  0  0  0  0  0  0  0  0  0  0  0
  -34.4132  -22.4621   23.1897 C   0  0  0  0  0  0  0  0  0  0  0  0
  -31.1304  -18.4330   23.2846 C   0  0  0  0  0  0  0  0  0  0  0  0
  -29.5340  -18.9677   21.4653 C   0  0  0  0  0  0  0  0  0  0  0  0
  -21.1476  -29.5760   24.1082 C   0  0  1  0  0  0  0  0  0  0  0  0
  -22.2777  -28.4080   20.6743 C   0  0  1  0  0  0  0  0  0  0  0  0
  -33.2001  -23.2416   22.7673 C   0  0  2  0  0  0  0  0  0  0  0  0
  -28.3424  -18.7460   22.4094 C   0  0  1  0  0  0  0  0  0  0  0  0
  -33.4683  -21.8846   22.1678 C   0  0  2  0  0  0  0  0  0  0  0  0
  -33.1918  -24.5273   18.9209 C   0  0  0  0  0  0  0  0  0  0  0  0
  -20.6623  -21.7618   17.0382 C   0  0  0  0  0  0  0  0  0  0  0  0
  -33.8181  -25.6960   22.7533 C   0  0  0  0  0  0  0  0  0  0  0  0
  -21.1181  -24.5918   23.0093 C   0  0  0  0  0  0  0  0  0  0  0  0
  -20.8853  -22.5138   21.6324 C   0  0  0  0  0  0  0  0  0  0  0  0
  -19.1324  -24.2852   21.5202 C   0  0  0  0  0  0  0  0  0  0  0  0
  -22.5287  -24.7460   15.5936 C   0  0  0  0  0  0  0  0  0  0  0  0
  -28.6684  -25.6749   20.5287 C   0  0  0  0  0  0  0  0  0  1  0  0
  -21.3823  -24.6978   20.4431 C   0  0  1  0  0  0  0  0  0  0  0  0
  -21.1134  -23.2123   16.9660 C   0  0  2  0  0  0  0  0  0  0  0  0
  -33.3538  -24.5032   21.9154 C   0  0  2  0  0  0  0  0  0  0  0  0
  -20.6517  -24.0396   21.6475 C   0  0  0  0  0  0  0  0  0  0  0  0
  -26.8344  -17.0239   21.4908 N   0  0  0  0  0  0  0  0  0  0  0  0
  -30.8280  -25.1258   19.4140 N   0  0  0  0  0  0  0  0  0  0  0  0
  -32.1508  -24.8017   21.1682 N   0  0  0  0  0  0  0  0  0  0  0  0
  -27.0918  -18.3327   21.6552 N   0  0  0  0  0  0  0  0  0  0  0  0
  -22.3864  -26.9590   20.4931 N   0  0  0  0  0  0  0  0  0  0  0  0
  -30.7423  -19.3538   22.2045 N   0  0  0  0  0  0  0  0  0  0  0  0
  -26.2589  -20.4968   21.1721 N   0  0  0  0  0  0  0  0  0  0  0  0
  -23.1893  -17.7588   19.3075 N   0  0  0  0  0  0  0  0  0  0  0  0
  -21.2564  -29.2395   22.7048 N   0  0  0  0  0  0  0  0  0  0  0  0
  -20.9413  -24.2135   19.1395 N   0  0  0  0  0  0  0  0  0  0  0  0
  -32.6322  -20.7565   22.4808 N   0  0  0  0  0  0  0  0  0  0  0  0
  -22.0267  -23.3628   15.7980 N   0  3  0  0  0  0  0  0  0  0  0  0
  -23.7642  -19.9521   19.6501 O   0  0  0  0  0  0  0  0  0  0  0  0
  -23.4234  -28.3878   22.7387 O   0  0  0  0  0  0  0  0  0  0  0  0
  -20.0783  -26.6756   20.3235 O   0  0  0  0  0  0  0  0  0  0  0  0
  -23.0193  -23.4693   18.4285 O   0  0  0  0  0  0  0  0  0  0  0  0
  -31.0684  -21.2287   20.8745 O   0  0  0  0  0  0  0  0  0  0  0  0
  -23.2970  -12.1889   19.3324 O   0  0  0  0  0  0  0  0  0  0  0  0
  -28.5455  -27.0484   20.1613 O   0  0  0  0  0  0  0  0  0  1  0  0
  -22.9848   -8.2212   23.1487 F   0  0  0  0  0  0  0  0  0  0  0  0
  -25.5827  -11.1555   20.4942 F   0  0  0  0  0  0  0  0  0  0  0  0
  1  2  1  0  0  0  0
  1  5  2  0  0  0  0
  2  6  2  0  0  0  0
  3  8  2  0  0  0  0
  3 15  1  0  0  0  0
  4  9  1  0  0  0  0
  4 15  2  0  0  0  0
  5 17  1  0  0  0  0
  6 19  1  0  0  0  0
  7 10  2  0  0  0  0
  7 18  1  0  0  0  0
  8 21  1  0  0  0  0
  9 21  2  0  0  0  0
 10 22  1  0  0  0  0
 11 12  2  0  0  0  0
 11 23  1  0  0  0  0
 12 24  1  0  0  0  0
 13 20  1  0  0  0  0
 13 22  2  0  0  0  0
 14 24  2  0  0  0  0
 14 25  1  0  0  0  0
 15 26  1  0  0  0  0
 16 26  1  0  0  0  0
 16 29  2  0  0  0  0
 16 33  1  0  0  0  0
 17 19  2  0  0  0  0
 17 38  1  0  0  0  0
 18 20  2  0  0  0  0
 18 39  1  0  0  0  0
 19 48  1  0  0  0  0
 20 40  1  0  0  0  0
 21 82  1  0  0  0  0
 22 83  1  0  0  0  0
 23 25  2  0  0  0  0
 23 82  1  0  0  0  0
 24 84  1  0  0  0  0
 25 85  1  0  0  0  0
 26 65  2  0  0  0  0
 27 28  2  0  0  0  0
 27 32  1  0  0  0  0
 27 67  1  0  0  0  0
 28 60  1  0  0  0  0
 28 66  1  0  0  0  0
 29 68  1  0  0  0  0
 29 71  1  0  0  0  0
 30 53  1  0  0  0  0
 30 66  2  0  0  0  0
 30 67  1  0  0  0  0
 31 32  2  0  0  0  0
 33 72  1  0  0  0  0
 33 77  2  0  0  0  0
 34 49  1  0  0  0  0
 34 73  1  0  0  0  0
 34 78  2  0  0  0  0
 35 61  1  0  0  0  0
 35 69  1  0  0  0  0
 35 79  2  0  0  0  0
 36 62  1  0  0  0  0
 36 74  1  0  0  0  0
 36 80  2  0  0  0  0
 37 70  1  0  0  0  0
 37 75  1  0  0  0  0
 37 81  2  0  0  0  0
 38 41  1  0  0  0  0
 39 49  1  0  0  0  0
 40 69  1  0  0  0  0
 41 43  1  0  0  0  0
 42 44  1  0  0  0  0
 42 46  1  0  0  0  0
 43 48  1  0  0  0  0
 44 51  1  0  0  0  0
 45 50  1  0  0  0  0
 45 52  1  0  0  0  0
 46 70  1  0  0  0  0
 47 51  1  0  0  0  0
 47 70  1  0  0  0  0
 48 73  1  0  0  0  0
 49 69  1  0  0  0  0
 50 52  1  0  0  0  0
 50 63  1  0  0  0  0
 51 68  1  0  0  0  0
 52 75  1  0  0  0  0
 54 62  1  0  0  0  0
 55 63  1  0  0  0  0
 56 64  1  0  0  0  0
 57 64  1  0  0  0  0
 58 64  1  0  0  0  0
 59 76  1  0  0  0  0
 60 83  1  0  0  0  0
 61 64  1  0  0  0  0
 61 74  1  0  0  0  0
 62 76  1  0  0  0  0
 63 67  1  0  0  0  0
 65 68  1  0  0  0  0
M  CHG  1  76   1
M  ISO  4  37 100  60 101  75 100  83 101
M  END
> <Batch ID>
0181

> <Smiles>
C=Cc1c([101CH2:1][101O:1]c2ccc3c(c2)CN(C(=O)C(NC(=O)C(C)NC)C(C)(C)C)C(C(=O)NC2CCCc4ccccc42)C3)nc(C)n1C(C)C1CC1[100NH:0][100C:0](=O)N1CCCC(n2nc(-c3ccc(Oc4ccc(F)cc4F)cc3)c(C(N)=O)c2N)C1

> <Shape>
0.183

> <Color>
0.090

> <Negative vol penalty>
0.000

$$$$

  -OEChem-04052323023D

 81 90  0     1  0  0  0  0  0999 V2000
  -29.6763  -34.2348   24.0489 C   0  0  0  0  0  0  0  0  0  0  0  0
  -30.0435  -32.9287   23.7416 C   0  0  0  0  0  0  0  0  0  0  0  0
  -23.8378   -9.7158   21.7189 C   0  0  0  0  0  0  0  0  0  0  0  0
  -24.4943  -10.9586   23.6839 C   0  0  0  0  0  0  0  0  0  0  0  0
  -28.3354  -34.5474   24.2686 C   0  0  0  0  0  0  0  0  0  0  0  0
  -29.0701  -31.9340   23.6549 C   0  0  0  0  0  0  0  0  0  0  0  0
  -29.0336  -27.1412   19.8426 C   0  0  0  0  0  0  0  0  0  0  0  0
  -23.3606   -8.6860   22.5297 C   0  0  0  0  0  0  0  0  0  0  0  0
  -24.0170   -9.9288   24.4947 C   0  0  0  0  0  0  0  0  0  0  0  0
  -29.3986  -25.8062   20.0107 C   0  0  0  0  0  0  0  0  0  0  0  0
  -20.6133   -8.0555   24.3972 C   0  0  0  0  0  0  0  0  0  0  0  0
  -19.3677   -7.5100   24.0864 C   0  0  0  0  0  0  0  0  0  0  0  0
  -27.0964  -25.2389   20.4550 C   0  0  0  0  0  0  0  0  0  0  0  0
  -28.5517  -20.5709   22.2032 C   0  0  0  0  0  0  0  0  0  0  0  0
  -20.3926   -5.3437   23.7805 C   0  0  0  0  0  0  0  0  0  0  0  0
  -24.4047  -10.8521   22.2960 C   0  0  0  0  0  0  0  0  0  0  0  0
  -24.1804  -13.0334   20.9924 C   0  0  0  0  0  0  0  0  0  0  0  0
  -27.3440  -33.5580   24.1750 C   0  0  0  0  0  0  0  0  0  0  0  0
  -27.6966  -27.5375   19.9904 C   0  0  0  0  0  0  0  0  0  0  0  0
  -27.7149  -32.2334   23.8748 C   0  0  0  0  0  0  0  0  0  0  0  0
  -26.7166  -26.5791   20.2857 C   0  0  0  0  0  0  0  0  0  0  0  0
  -28.3313  -21.2617   20.9706 C   0  0  0  0  0  0  0  0  0  0  0  0
  -23.4502   -8.7925   23.9176 C   0  0  0  0  0  0  0  0  0  0  0  0
  -28.4305  -24.8552   20.3198 C   0  0  0  0  0  0  0  0  0  0  0  0
  -21.7486   -7.2450   24.3995 C   0  0  0  0  0  0  0  0  0  0  0  0
  -19.2573   -6.1541   23.7781 C   0  0  0  0  0  0  0  0  0  0  0  0
  -21.6382   -5.8892   24.0912 C   0  0  0  0  0  0  0  0  0  0  0  0
  -24.8984  -11.9160   21.4591 C   0  0  0  0  0  0  0  0  0  0  0  0
  -28.7727  -20.4219   19.9834 C   0  0  0  0  0  0  0  0  0  0  0  0
  -29.1190  -19.3382   21.9188 C   0  0  0  0  0  0  0  0  0  0  0  0
  -25.0908  -13.7382   20.2435 C   0  0  0  0  0  0  0  0  0  0  0  0
  -22.8128  -13.4014   21.2160 C   0  0  0  0  0  0  0  0  0  0  0  0
  -26.1422  -29.5000   21.9492 C   0  0  0  0  0  0  0  0  0  0  0  0
  -23.6353  -28.8273   20.0036 C   0  0  0  0  0  0  0  0  0  0  0  0
  -22.1850  -26.6774   17.7852 C   0  0  0  0  0  0  0  0  0  0  0  0
  -30.2001  -15.8680   19.5335 C   0  0  0  0  0  0  0  0  0  0  0  0
  -25.9130  -33.9343   24.4674 C   0  0  0  0  0  0  0  0  0  0  0  0
  -27.3151  -28.9771   19.7796 C   0  0  0  0  0  0  0  0  0  0  0  0
  -25.2645  -26.9497   20.4351 C   0  0  0  0  0  0  0  0  0  0  0  0
  -28.9163  -20.3518   18.5153 C   0  0  0  0  0  0  0  0  0  0  0  0
  -24.9004  -32.8975   23.9879 C   0  0  0  0  0  0  0  0  0  0  0  0
  -29.1531  -18.8352   18.2932 C   0  0  0  0  0  0  0  0  0  0  0  0
  -29.7078  -12.4627   18.6178 C   0  0  0  0  0  0  0  0  0  0  0  0
  -25.3416  -31.4941   24.3914 C   0  0  0  0  0  0  0  0  0  0  0  0
  -28.3571  -12.1077   19.2419 C   0  0  0  0  0  0  0  0  0  0  0  0
  -30.5092  -13.4103   19.5078 C   0  0  0  0  0  0  0  0  0  0  0  0
  -28.4439  -14.2820   20.5319 C   0  0  0  0  0  0  0  0  0  0  0  0
  -26.6852  -31.1317   23.7473 C   0  0  1  0  0  0  0  0  0  0  0  0
  -26.0026  -29.3533   20.4603 C   0  0  1  0  0  0  0  0  0  0  0  0
  -27.5759  -13.3728   19.6452 C   0  0  2  0  0  0  0  0  0  0  0  0
  -29.7416  -18.3054   19.6217 C   0  0  1  0  0  0  0  0  0  0  0  0
  -29.5547  -18.2514   22.8141 C   0  0  0  0  0  0  0  0  0  0  0  0
  -20.1181  -26.3809   16.3934 C   0  0  0  0  0  0  0  0  0  0  0  0
  -22.0692  -28.0410   22.5014 C   0  0  0  0  0  0  0  0  0  0  0  0
  -20.4171  -26.8854   21.0170 C   0  0  0  0  0  0  0  0  0  0  0  0
  -20.7607  -29.3482   20.8181 C   0  0  0  0  0  0  0  0  0  0  0  0
  -23.7411  -26.6683   15.2677 C   0  0  0  0  0  0  0  0  0  0  0  0
  -27.7409  -22.6306   20.8006 C   0  0  0  0  0  0  0  0  0  1  0  0
  -22.5532  -27.7749   19.9793 C   0  0  1  0  0  0  0  0  0  0  0  0
  -21.5432  -26.9104   16.4294 C   0  0  2  0  0  0  0  0  0  0  0  0
  -21.4776  -28.0054   21.0781 C   0  0  0  0  0  0  0  0  0  0  0  0
  -26.1671  -11.9071   21.0414 N   0  0  0  0  0  0  0  0  0  0  0  0
  -29.2288  -19.2807   20.5760 N   0  0  0  0  0  0  0  0  0  0  0  0
  -26.2534  -13.0276   20.3044 N   0  0  0  0  0  0  0  0  0  0  0  0
  -24.9423  -28.3710   20.2256 N   0  0  0  0  0  0  0  0  0  0  0  0
  -29.7122  -14.5901   19.8526 N   0  0  0  0  0  0  0  0  0  0  0  0
  -25.0023  -14.8902   19.5453 N   0  0  0  0  0  0  0  0  0  0  0  0
  -22.0171  -12.5645   22.0103 N   0  0  0  0  0  0  0  0  0  0  0  0
  -26.4989  -30.7707   22.3583 N   0  0  0  0  0  0  0  0  0  0  0  0
  -22.0253  -27.7636   18.6194 N   0  0  0  0  0  0  0  0  0  0  0  0
  -29.3796  -16.9314   19.8894 N   0  0  0  0  0  0  0  0  0  0  0  0
  -22.3258  -26.2264   15.3614 N   0  3  0  0  0  0  0  0  0  0  0  0
  -22.3069  -14.4329   20.7126 O   0  0  0  0  0  0  0  0  0  0  0  0
  -25.9398  -28.5322   22.6732 O   0  0  0  0  0  0  0  0  0  0  0  0
  -23.3330  -30.0097   19.8249 O   0  0  0  0  0  0  0  0  0  0  0  0
  -22.7665  -25.6345   18.0765 O   0  0  0  0  0  0  0  0  0  0  0  0
  -31.2841  -16.0477   18.9682 O   0  0  0  0  0  0  0  0  0  0  0  0
  -22.9844   -7.7879   24.7090 O   0  0  0  0  0  0  0  0  0  0  0  0
  -28.7841  -23.5516   20.4850 O   0  0  0  0  0  0  0  0  0  1  0  0
  -18.0609   -5.6302   23.4812 F   0  0  0  0  0  0  0  0  0  0  0  0
  -22.7252   -5.1053   24.0931 F   0  0  0  0  0  0  0  0  0  0  0  0
  1  2  1  0  0  0  0
  1  5  2  0  0  0  0
  2  6  2  0  0  0  0
  3  8  2  0  0  0  0
  3 16  1  0  0  0  0
  4  9  1  0  0  0  0
  4 16  2  0  0  0  0
  5 18  1  0  0  0  0
  6 20  1  0  0  0  0
  7 10  2  0  0  0  0
  7 19  1  0  0  0  0
  8 23  1  0  0  0  0
  9 23  2  0  0  0  0
 10 24  1  0  0  0  0
 11 12  2  0  0  0  0
 11 25  1  0  0  0  0
 12 26  1  0  0  0  0
 13 21  1  0  0  0  0
 13 24  2  0  0  0  0
 14 22  1  0  0  0  0
 14 30  2  0  0  0  0
 15 26  2  0  0  0  0
 15 27  1  0  0  0  0
 16 28  1  0  0  0  0
 17 28  1  0  0  0  0
 17 31  2  0  0  0  0
 17 32  1  0  0  0  0
 18 20  2  0  0  0  0
 18 37  1  0  0  0  0
 19 21  2  0  0  0  0
 19 38  1  0  0  0  0
 20 48  1  0  0  0  0
 21 39  1  0  0  0  0
 22 29  2  0  0  0  0
 22 58  1  0  0  0  0
 23 78  1  0  0  0  0
 24 79  1  0  0  0  0
 25 27  2  0  0  0  0
 25 78  1  0  0  0  0
 26 80  1  0  0  0  0
 27 81  1  0  0  0  0
 28 62  2  0  0  0  0
 29 40  1  0  0  0  0
 29 63  1  0  0  0  0
 30 52  1  0  0  0  0
 30 63  1  0  0  0  0
 31 64  1  0  0  0  0
 31 67  1  0  0  0  0
 32 68  1  0  0  0  0
 32 73  2  0  0  0  0
 33 49  1  0  0  0  0
 33 69  1  0  0  0  0
 33 74  2  0  0  0  0
 34 59  1  0  0  0  0
 34 65  1  0  0  0  0
 34 75  2  0  0  0  0
 35 60  1  0  0  0  0
 35 70  1  0  0  0  0
 35 76  2  0  0  0  0
 36 66  1  0  0  0  0
 36 71  1  0  0  0  0
 36 77  2  0  0  0  0
 37 41  1  0  0  0  0
 38 49  1  0  0  0  0
 39 65  1  0  0  0  0
 40 42  1  0  0  0  0
 41 44  1  0  0  0  0
 42 51  1  0  0  0  0
 43 45  1  0  0  0  0
 43 46  1  0  0  0  0
 44 48  1  0  0  0  0
 45 50  1  0  0  0  0
 46 66  1  0  0  0  0
 47 50  1  0  0  0  0
 47 66  1  0  0  0  0
 48 69  1  0  0  0  0
 49 65  1  0  0  0  0
 50 64  1  0  0  0  0
 51 63  1  0  0  0  0
 51 71  1  0  0  0  0
 53 60  1  0  0  0  0
 54 61  1  0  0  0  0
 55 61  1  0  0  0  0
 56 61  1  0  0  0  0
 57 72  1  0  0  0  0
 58 79  1  0  0  0  0
 59 61  1  0  0  0  0
 59 70  1  0  0  0  0
 60 72  1  0  0  0  0
 62 64  1  0  0  0  0
M  CHG  1  72   1
M  ISO  4  36 100  58 101  71 100  79 101
M  END
> <Batch ID>
0181

> <Smiles>
CNC(C)C(=O)NC(C(=O)N1Cc2cc([101O:1][101CH2:1]c3cc(C)n4c3CCC4[100NH:0][100C:0](=O)N3CCCC(n4nc(-c5ccc(Oc6ccc(F)cc6F)cc5)c(C(N)=O)c4N)C3)ccc2CC1C(=O)NC1CCCc2ccccc21)C(C)(C)C

> <Shape>
0.334

> <Color>
0.123

> <Negative vol penalty>
0.000

$$$$

  -OEChem-04052323023D

 85 94  0     1  0  0  0  0  0999 V2000
  -19.8298  -26.0768   25.9151 C   0  0  0  0  0  0  0  0  0  0  0  0
  -21.1619  -26.1586   25.5221 C   0  0  0  0  0  0  0  0  0  0  0  0
  -24.3646  -13.2895   21.4609 C   0  0  0  0  0  0  0  0  0  0  0  0
  -26.1084  -12.9211   19.8297 C   0  0  0  0  0  0  0  0  0  0  0  0
  -18.8230  -26.5195   25.0583 C   0  0  0  0  0  0  0  0  0  0  0  0
  -21.4877  -26.6821   24.2715 C   0  0  0  0  0  0  0  0  0  0  0  0
  -25.3693  -29.9282   24.4757 C   0  0  0  0  0  0  0  0  0  0  0  0
  -23.7648  -12.0856   21.0916 C   0  0  0  0  0  0  0  0  0  0  0  0
  -25.5086  -11.7171   19.4605 C   0  0  0  0  0  0  0  0  0  0  0  0
  -26.6494  -29.3846   24.5737 C   0  0  0  0  0  0  0  0  0  0  0  0
  -24.2330   -8.7879   21.6735 C   0  0  0  0  0  0  0  0  0  0  0  0
  -23.7995   -7.9402   22.6928 C   0  0  0  0  0  0  0  0  0  0  0  0
  -26.9690  -29.7262   22.2072 C   0  0  0  0  0  0  0  0  0  0  0  0
  -21.5395   -8.0836   21.8510 C   0  0  0  0  0  0  0  0  0  0  0  0
  -25.5364  -13.7073   20.8299 C   0  0  0  0  0  0  0  0  0  0  0  0
  -27.1304  -15.1453   22.2079 C   0  0  0  0  0  0  0  0  0  0  0  0
  -19.1373  -27.0577   23.8004 C   0  0  0  0  0  0  0  0  0  0  0  0
  -24.8745  -30.3655   23.2387 C   0  0  0  0  0  0  0  0  0  0  0  0
  -20.4840  -27.1312   23.3965 C   0  0  0  0  0  0  0  0  0  0  0  0
  -25.6832  -30.2773   22.0967 C   0  0  0  0  0  0  0  0  0  0  0  0
  -24.3367  -11.2994   20.0914 C   0  0  0  0  0  0  0  0  0  0  0  0
  -27.4484  -29.2809   23.4388 C   0  0  0  0  0  0  0  0  0  0  0  0
  -23.3198   -9.2836   20.7429 C   0  0  0  0  0  0  0  0  0  0  0  0
  -22.4528   -7.5880   22.7816 C   0  0  0  0  0  0  0  0  0  0  0  0
  -21.9730   -8.9314   20.8316 C   0  0  0  0  0  0  0  0  0  0  0  0
  -26.1561  -14.9512   21.2105 C   0  0  0  0  0  0  0  0  0  0  0  0
  -27.3885  -16.4939   22.1780 C   0  0  0  0  0  0  0  0  0  0  0  0
  -27.7470  -14.1917   23.0832 C   0  0  0  0  0  0  0  0  0  0  0  0
  -22.4325  -29.5376   21.3800 C   0  0  0  0  0  0  0  0  0  0  0  0
  -23.3874  -32.1067   19.6450 C   0  0  0  0  0  0  0  0  0  0  0  0
  -25.9003  -34.2492   18.7839 C   0  0  0  0  0  0  0  0  0  0  0  0
  -28.4761  -21.0677   19.3772 C   0  0  0  0  0  0  0  0  0  0  0  0
  -18.0117  -27.4796   22.8895 C   0  0  0  0  0  0  0  0  0  0  0  0
  -23.5015  -30.9741   23.1546 C   0  0  0  0  0  0  0  0  0  0  0  0
  -25.2065  -30.7511   20.7488 C   0  0  0  0  0  0  0  0  0  0  0  0
  -18.4641  -28.3674   21.7331 C   0  0  0  0  0  0  0  0  0  0  0  0
  -24.9756  -20.2584   19.8119 C   0  0  0  0  0  0  0  0  0  0  0  0
  -19.7087  -27.7864   21.0694 C   0  0  0  0  0  0  0  0  0  0  0  0
  -28.0648  -26.2049   19.9489 C   0  0  0  0  0  0  0  0  0  0  0  0
  -25.0565  -18.8109   20.3004 C   0  0  0  0  0  0  0  0  0  0  0  0
  -29.5613  -26.4478   19.7630 C   0  0  0  0  0  0  0  0  0  0  0  0
  -27.4270  -24.8347   22.0135 C   0  0  0  0  0  0  0  0  0  0  0  0
  -26.0398  -20.5460   18.7569 C   0  0  0  0  0  0  0  0  0  0  0  0
  -27.5171  -18.8025   19.6795 C   0  0  0  0  0  0  0  0  0  0  0  0
  -28.4736  -25.0026   23.1066 C   0  0  0  0  0  0  0  0  0  0  0  0
  -30.6207  -25.6542   21.9489 C   0  0  0  0  0  0  0  0  0  0  0  0
  -20.8790  -27.7159   22.0577 C   0  0  1  0  0  0  0  0  0  0  0  0
  -22.9063  -30.9143   21.7512 C   0  0  1  0  0  0  0  0  0  0  0  0
  -27.9061  -24.8001   20.5557 C   0  0  2  0  0  0  0  0  0  0  0  0
  -29.2724  -24.1179   20.3653 C   0  0  2  0  0  0  0  0  0  0  0  0
  -26.4814  -18.4549   20.7643 C   0  0  2  0  0  0  0  0  0  0  0  0
  -30.2818  -25.2914   20.4794 C   0  0  1  0  0  0  0  0  0  0  0  0
  -32.3473  -23.8837   20.4623 C   0  0  0  0  0  0  0  0  0  0  0  0
  -26.3883  -36.2239   17.3143 C   0  0  0  0  0  0  0  0  0  0  0  0
  -23.4937  -30.2672   17.2129 C   0  0  0  0  0  0  0  0  0  0  0  0
  -24.8614  -32.0079   16.0433 C   0  0  0  0  0  0  0  0  0  0  0  0
  -22.5323  -32.5324   16.7665 C   0  0  0  0  0  0  0  0  0  0  0  0
  -26.5709  -35.9581   21.1053 C   0  0  0  0  0  0  0  0  0  0  0  0
  -29.2965  -23.3817   19.0173 C   0  0  0  0  0  0  0  0  0  0  0  0
  -31.6281  -24.9995   19.7890 C   0  0  0  0  0  0  0  0  0  0  0  0
  -29.9416  -26.7580   24.0647 C   0  0  0  0  0  0  0  0  0  0  0  0
  -28.9136  -27.7656   24.5402 C   0  0  0  0  0  0  0  0  0  1  0  0
  -24.3545  -32.3287   18.5073 C   0  0  1  0  0  0  0  0  0  0  0  0
  -25.9462  -35.7640   18.6948 C   0  0  2  0  0  0  0  0  0  0  0  0
  -23.8190  -31.7733   17.1574 C   0  0  0  0  0  0  0  0  0  0  0  0
  -25.8181  -16.0858   20.5921 N   0  0  0  0  0  0  0  0  0  0  0  0
  -26.5842  -17.0058   21.2027 N   0  0  0  0  0  0  0  0  0  0  0  0
  -23.8545  -31.3329   20.7168 N   0  0  0  0  0  0  0  0  0  0  0  0
  -27.3744  -20.2030   19.2680 N   0  0  0  0  0  0  0  0  0  0  0  0
  -28.2227  -17.2801   22.8911 N   0  0  0  0  0  0  0  0  0  0  0  0
  -27.3661  -12.8468   22.9809 N   0  0  0  0  0  0  0  0  0  0  0  0
  -21.4731  -29.0241   22.2317 N   0  0  0  0  0  0  0  0  0  0  0  0
  -24.6453  -33.7583   18.4919 N   0  0  0  0  0  0  0  0  0  0  0  0
  -28.2597  -22.3753   18.9598 N   0  0  0  0  0  0  0  0  0  0  0  0
  -29.4486  -26.1042   22.7928 N   0  3  2  0  0  0  0  0  0  0  0  0
  -26.8988  -36.3134   19.7006 N   0  3  0  0  0  0  0  0  0  0  0  0
  -28.5983  -14.5249   23.9422 O   0  0  0  0  0  0  0  0  0  0  0  0
  -22.9014  -28.9829   20.3930 O   0  0  0  0  0  0  0  0  0  0  0  0
  -22.2615  -32.6075   19.5881 O   0  0  0  0  0  0  0  0  0  0  0  0
  -26.8806  -33.5693   19.0791 O   0  0  0  0  0  0  0  0  0  0  0  0
  -29.5709  -20.7028   19.8192 O   0  0  0  0  0  0  0  0  0  0  0  0
  -23.7518  -10.1244   19.7310 O   0  0  0  0  0  0  0  0  0  0  0  0
  -28.7070  -28.7463   23.5322 O   0  0  0  0  0  0  0  0  0  1  0  0
  -22.0369   -6.7728   23.7596 F   0  0  0  0  0  0  0  0  0  0  0  0
  -21.0912   -9.4035   19.9398 F   0  0  0  0  0  0  0  0  0  0  0  0
  1  2  1  0  0  0  0
  1  5  2  0  0  0  0
  2  6  2  0  0  0  0
  3  8  2  0  0  0  0
  3 15  1  0  0  0  0
  4  9  1  0  0  0  0
  4 15  2  0  0  0  0
  5 17  1  0  0  0  0
  6 19  1  0  0  0  0
  7 10  2  0  0  0  0
  7 18  1  0  0  0  0
  8 21  1  0  0  0  0
  9 21  2  0  0  0  0
 10 22  1  0  0  0  0
 11 12  2  0  0  0  0
 11 23  1  0  0  0  0
 12 24  1  0  0  0  0
 13 20  1  0  0  0  0
 13 22  2  0  0  0  0
 14 24  2  0  0  0  0
 14 25  1  0  0  0  0
 15 26  1  0  0  0  0
 16 26  1  0  0  0  0
 16 27  2  0  0  0  0
 16 28  1  0  0  0  0
 17 19  2  0  0  0  0
 17 33  1  0  0  0  0
 18 20  2  0  0  0  0
 18 34  1  0  0  0  0
 19 47  1  0  0  0  0
 20 35  1  0  0  0  0
 21 82  1  0  0  0  0
 22 83  1  0  0  0  0
 23 25  2  0  0  0  0
 23 82  1  0  0  0  0
 24 84  1  0  0  0  0
 25 85  1  0  0  0  0
 26 66  2  0  0  0  0
 27 67  1  0  0  0  0
 27 70  1  0  0  0  0
 28 71  1  0  0  0  0
 28 77  2  0  0  0  0
 29 48  1  0  0  0  0
 29 72  1  0  0  0  0
 29 78  2  0  0  0  0
 30 63  1  0  0  0  0
 30 68  1  0  0  0  0
 30 79  2  0  0  0  0
 31 64  1  0  0  0  0
 31 73  1  0  0  0  0
 31 80  2  0  0  0  0
 32 69  1  0  0  0  0
 32 74  1  0  0  0  0
 32 81  2  0  0  0  0
 33 36  1  0  0  0  0
 34 48  1  0  0  0  0
 35 68  1  0  0  0  0
 36 38  1  0  0  0  0
 37 40  1  0  0  0  0
 37 43  1  0  0  0  0
 38 47  1  0  0  0  0
 39 41  1  0  0  0  0
 39 49  1  0  0  0  0
 40 51  1  0  0  0  0
 41 52  1  0  0  0  0
 42 45  1  0  0  0  0
 42 49  1  0  0  0  0
 43 69  1  0  0  0  0
 44 51  1  0  0  0  0
 44 69  1  0  0  0  0
 45 75  1  0  0  0  0
 46 52  1  0  0  0  0
 46 75  1  0  0  0  0
 47 72  1  0  0  0  0
 48 68  1  0  0  0  0
 49 50  1  0  0  0  0
 50 52  1  0  0  0  0
 50 59  1  0  0  0  0
 51 67  1  0  0  0  0
 52 60  1  0  0  0  0
 53 60  1  0  0  0  0
 54 64  1  0  0  0  0
 55 65  1  0  0  0  0
 56 65  1  0  0  0  0
 57 65  1  0  0  0  0
 58 76  1  0  0  0  0
 59 74  1  0  0  0  0
 61 62  1  0  0  0  0
 61 75  1  0  0  0  0
 62 83  1  0  0  0  0
 63 65  1  0  0  0  0
 63 73  1  0  0  0  0
 64 76  1  0  0  0  0
 66 67  1  0  0  0  0
M  CHG  2  75   1  76   1
M  ISO  4  32 100  62 101  74 100  83 101
M  END
> <Batch ID>
0181

> <Smiles>
CCC12CCC(CCN(C[101CH2:1][101O:1]c3ccc4c(c3)CN(C(=O)C(NC(=O)C(C)NC)C(C)(C)C)C(C(=O)NC3CCCc5ccccc53)C4)C1)C2C[100NH:0][100C:0](=O)N1CCCC(n2nc(-c3ccc(Oc4ccc(F)cc4F)cc3)c(C(N)=O)c2N)C1

> <Shape>
0.259

> <Color>
0.084

> <Negative vol penalty>
0.000

$$$$

  -OEChem-04052323023D

 86 95  0     1  0  0  0  0  0999 V2000
  -22.3082  -10.9769   19.9242 C   0  0  0  0  0  0  0  0  0  0  0  0
  -21.8631  -12.2622   20.2161 C   0  0  0  0  0  0  0  0  0  0  0  0
  -25.0989  -28.7226   19.3372 C   0  0  0  0  0  0  0  0  0  0  0  0
  -25.7102  -27.3898   21.2574 C   0  0  0  0  0  0  0  0  0  0  0  0
  -23.6622  -10.6659   20.0412 C   0  0  0  0  0  0  0  0  0  0  0  0
  -22.7718  -13.2371   20.6263 C   0  0  0  0  0  0  0  0  0  0  0  0
  -22.5680  -19.2256   19.3606 C   0  0  0  0  0  0  0  0  0  0  0  0
  -26.3776  -29.2794   19.3166 C   0  0  0  0  0  0  0  0  0  0  0  0
  -26.9889  -27.9466   21.2368 C   0  0  0  0  0  0  0  0  0  0  0  0
  -22.1147  -20.3237   20.0903 C   0  0  0  0  0  0  0  0  0  0  0  0
  -30.5271  -28.7501   21.4691 C   0  0  0  0  0  0  0  0  0  0  0  0
  -31.6129  -27.8886   21.6249 C   0  0  0  0  0  0  0  0  0  0  0  0
  -24.3672  -20.7449   20.8441 C   0  0  0  0  0  0  0  0  0  0  0  0
  -30.9402  -26.6823   19.6426 C   0  0  0  0  0  0  0  0  0  0  0  0
  -24.7651  -27.7778   20.3077 C   0  0  0  0  0  0  0  0  0  0  0  0
  -23.0113  -26.0415   19.6620 C   0  0  0  0  0  0  0  0  0  0  0  0
  -24.5894  -11.6400   20.4438 C   0  0  0  0  0  0  0  0  0  0  0  0
  -23.9248  -18.8719   19.3758 C   0  0  0  0  0  0  0  0  0  0  0  0
  -24.1394  -12.9385   20.7502 C   0  0  0  0  0  0  0  0  0  0  0  0
  -24.8355  -19.6434   20.1116 C   0  0  0  0  0  0  0  0  0  0  0  0
  -18.3207  -21.5381   24.0709 C   0  0  0  0  0  0  0  0  0  0  0  0
  -27.3226  -28.8914   20.2663 C   0  0  0  0  0  0  0  0  0  0  0  0
  -23.0138  -21.0818   20.8346 C   0  0  0  0  0  0  0  0  0  0  0  0
  -29.6477  -28.5777   20.4001 C   0  0  0  0  0  0  0  0  0  0  0  0
  -31.8195  -26.8547   20.7116 C   0  0  0  0  0  0  0  0  0  0  0  0
  -29.8543  -27.5438   19.4869 C   0  0  0  0  0  0  0  0  0  0  0  0
  -23.4442  -27.2027   20.3298 C   0  0  0  0  0  0  0  0  0  0  0  0
  -18.3482  -20.4074   23.2917 C   0  0  0  0  0  0  0  0  0  0  0  0
  -17.3491  -22.3583   23.4667 C   0  0  0  0  0  0  0  0  0  0  0  0
  -21.6860  -25.9233   20.0029 C   0  0  0  0  0  0  0  0  0  0  0  0
  -23.7418  -25.1495   18.8098 C   0  0  0  0  0  0  0  0  0  0  0  0
  -25.5669  -16.3193   20.3201 C   0  0  0  0  0  0  0  0  0  0  0  0
  -28.0599  -17.9162   18.9944 C   0  0  0  0  0  0  0  0  0  0  0  0
  -29.4082  -20.9014   18.0366 C   0  0  0  0  0  0  0  0  0  0  0  0
  -17.6071  -26.0796   23.8085 C   0  0  0  0  0  0  0  0  0  0  0  0
  -26.0361  -11.2441   20.6014 C   0  0  0  0  0  0  0  0  0  0  0  0
  -24.4021  -17.7005   18.5619 C   0  0  0  0  0  0  0  0  0  0  0  0
  -26.3056  -19.3177   20.1449 C   0  0  0  0  0  0  0  0  0  0  0  0
  -26.9883  -12.4346   20.6813 C   0  0  0  0  0  0  0  0  0  0  0  0
  -18.5836  -29.1690   22.3324 C   0  0  0  0  0  0  0  0  0  0  0  0
  -26.4504  -13.4844   21.6485 C   0  0  0  0  0  0  0  0  0  0  0  0
  -18.5704  -17.8142   23.6046 C   0  0  0  0  0  0  0  0  0  0  0  0
  -19.1856  -18.4445   24.8148 C   0  0  0  0  0  0  0  0  0  0  0  0
  -19.9019  -28.8385   21.6305 C   0  0  0  0  0  0  0  0  0  0  0  0
  -18.4384  -28.4077   23.6482 C   0  0  0  0  0  0  0  0  0  0  0  0
  -19.9237  -26.6157   22.8378 C   0  0  0  0  0  0  0  0  0  0  0  0
  -25.0980  -14.0299   21.1743 C   0  0  1  0  0  0  0  0  0  0  0  0
  -19.2284  -19.1751   23.4868 C   0  0  0  0  0  0  0  0  0  0  0  0
  -25.7236  -17.1246   19.0613 C   0  0  1  0  0  0  0  0  0  0  0  0
  -20.0904  -27.3170   21.4789 C   0  0  2  0  0  0  0  0  0  0  0  0
  -31.4765  -21.8924   17.0180 C   0  0  0  0  0  0  0  0  0  0  0  0
  -29.5270  -17.5758   21.6480 C   0  0  0  0  0  0  0  0  0  0  0  0
  -31.1276  -19.3545   20.9115 C   0  0  0  0  0  0  0  0  0  0  0  0
  -30.9470  -17.2286   19.6189 C   0  0  0  0  0  0  0  0  0  0  0  0
  -17.0913  -19.6999   21.2381 C   0  0  0  0  0  0  0  0  0  0  0  0
  -27.9003  -21.9609   15.7209 C   0  0  0  0  0  0  0  0  0  0  0  0
  -19.1422  -21.8332   25.2924 C   0  0  0  0  0  0  0  0  0  0  0  0
  -16.9089  -23.6995   23.8900 C   0  0  0  0  0  0  0  0  0  0  0  0
  -20.2802  -22.8187   25.0469 C   0  0  0  0  0  0  0  0  0  0  0  0
  -22.3636  -23.1739   23.7157 C   0  0  0  0  0  0  0  0  0  0  0  0
  -23.2915  -22.4808   22.7376 C   0  0  0  0  0  0  0  0  0  1  0  0
  -29.0722  -18.9199   19.4911 C   0  0  1  0  0  0  0  0  0  0  0  0
  -30.0880  -21.3330   16.7497 C   0  0  2  0  0  0  0  0  0  0  0  0
  -30.1405  -18.2749   20.4185 C   0  0  0  0  0  0  0  0  0  0  0  0
  -22.4727  -27.7810   21.0411 N   0  0  0  0  0  0  0  0  0  0  0  0
  -16.7992  -21.7965   22.3868 N   0  0  0  0  0  0  0  0  0  0  0  0
  -17.4275  -20.6112   22.3063 N   0  0  0  0  0  0  0  0  0  0  0  0
  -21.4161  -26.9799   20.8220 N   0  0  0  0  0  0  0  0  0  0  0  0
  -26.7224  -18.1591   19.3377 N   0  0  0  0  0  0  0  0  0  0  0  0
  -18.6267  -26.9706   23.4349 N   0  0  0  0  0  0  0  0  0  0  0  0
  -20.7369  -25.0197   19.6788 N   0  0  0  0  0  0  0  0  0  0  0  0
  -25.0953  -25.4182   18.5645 N   0  0  0  0  0  0  0  0  0  0  0  0
  -25.2856  -14.9840   20.1024 N   0  0  0  0  0  0  0  0  0  0  0  0
  -29.6227  -19.5659   18.3044 N   0  0  0  0  0  0  0  0  0  0  0  0
  -17.8639  -24.7358   23.5660 N   0  0  0  0  0  0  0  0  0  0  0  0
  -29.2823  -22.3835   16.0654 N   0  3  0  0  0  0  0  0  0  0  0  0
  -21.2479  -22.2588   24.0652 N   0  3  0  0  0  0  0  0  0  0  0  0
  -23.2059  -24.1530   18.2682 O   0  0  0  0  0  0  0  0  0  0  0  0
  -25.6935  -16.8684   21.4083 O   0  0  0  0  0  0  0  0  0  0  0  0
  -28.4410  -16.9559   18.3203 O   0  0  0  0  0  0  0  0  0  0  0  0
  -28.7556  -21.6727   18.7364 O   0  0  0  0  0  0  0  0  0  0  0  0
  -16.5443  -26.4545   24.3154 O   0  0  0  0  0  0  0  0  0  0  0  0
  -28.5706  -29.4344   20.2464 O   0  0  0  0  0  0  0  0  0  0  0  0
  -22.5740  -22.1537   21.5483 O   0  0  0  0  0  0  0  0  0  1  0  0
  -32.8632  -26.0284   20.8605 F   0  0  0  0  0  0  0  0  0  0  0  0
  -29.0136  -27.3739   18.4572 F   0  0  0  0  0  0  0  0  0  0  0  0
  1  2  1  0  0  0  0
  1  5  2  0  0  0  0
  2  6  2  0  0  0  0
  3  8  2  0  0  0  0
  3 15  1  0  0  0  0
  4  9  1  0  0  0  0
  4 15  2  0  0  0  0
  5 17  1  0  0  0  0
  6 19  1  0  0  0  0
  7 10  2  0  0  0  0
  7 18  1  0  0  0  0
  8 22  1  0  0  0  0
  9 22  2  0  0  0  0
 10 23  1  0  0  0  0
 11 12  2  0  0  0  0
 11 24  1  0  0  0  0
 12 25  1  0  0  0  0
 13 20  1  0  0  0  0
 13 23  2  0  0  0  0
 14 25  2  0  0  0  0
 14 26  1  0  0  0  0
 15 27  1  0  0  0  0
 16 27  1  0  0  0  0
 16 30  2  0  0  0  0
 16 31  1  0  0  0  0
 17 19  2  0  0  0  0
 17 36  1  0  0  0  0
 18 20  2  0  0  0  0
 18 37  1  0  0  0  0
 19 47  1  0  0  0  0
 20 38  1  0  0  0  0
 21 28  2  0  0  0  0
 21 29  1  0  0  0  0
 21 57  1  0  0  0  0
 22 83  1  0  0  0  0
 23 84  1  0  0  0  0
 24 26  2  0  0  0  0
 24 83  1  0  0  0  0
 25 85  1  0  0  0  0
 26 86  1  0  0  0  0
 27 65  2  0  0  0  0
 28 48  1  0  0  0  0
 28 67  1  0  0  0  0
 29 58  1  0  0  0  0
 29 66  2  0  0  0  0
 30 68  1  0  0  0  0
 30 71  1  0  0  0  0
 31 72  1  0  0  0  0
 31 78  2  0  0  0  0
 32 49  1  0  0  0  0
 32 73  1  0  0  0  0
 32 79  2  0  0  0  0
 33 62  1  0  0  0  0
 33 69  1  0  0  0  0
 33 80  2  0  0  0  0
 34 63  1  0  0  0  0
 34 74  1  0  0  0  0
 34 81  2  0  0  0  0
 35 70  1  0  0  0  0
 35 75  1  0  0  0  0
 35 82  2  0  0  0  0
 36 39  1  0  0  0  0
 37 49  1  0  0  0  0
 38 69  1  0  0  0  0
 39 41  1  0  0  0  0
 40 44  1  0  0  0  0
 40 45  1  0  0  0  0
 41 47  1  0  0  0  0
 42 43  1  0  0  0  0
 42 48  1  0  0  0  0
 43 48  1  0  0  0  0
 44 50  1  0  0  0  0
 45 70  1  0  0  0  0
 46 50  1  0  0  0  0
 46 70  1  0  0  0  0
 47 73  1  0  0  0  0
 49 69  1  0  0  0  0
 50 68  1  0  0  0  0
 51 63  1  0  0  0  0
 52 64  1  0  0  0  0
 53 64  1  0  0  0  0
 54 64  1  0  0  0  0
 55 67  1  0  0  0  0
 56 76  1  0  0  0  0
 57 59  1  0  0  0  0
 58 75  1  0  0  0  0
 59 77  1  0  0  0  0
 60 61  1  0  0  0  0
 60 77  1  0  0  0  0
 61 84  1  0  0  0  0
 62 64  1  0  0  0  0
 62 74  1  0  0  0  0
 63 76  1  0  0  0  0
 65 68  1  0  0  0  0
 66 67  1  0  0  0  0
M  CHG  2  76   1  77   1
M  ISO  4  35 100  61 101  75 100  84 101
M  END
> <Batch ID>
0181

> <Smiles>
CNC(C)C(=O)NC(C(=O)N1Cc2cc([101O:1][101CH2:1]CNCCc3c(C[100NH:0][100C:0](=O)N4CCCC(n5nc(-c6ccc(Oc7ccc(F)cc7F)cc6)c(C(N)=O)c5N)C4)nn(C)c3C3CC3)ccc2CC1C(=O)NC1CCCc2ccccc21)C(C)(C)C

> <Shape>
0.201

> <Color>
0.073

> <Negative vol penalty>
0.000

$$$$

  -OEChem-04052323023D

 80 89  0     1  0  0  0  0  0999 V2000
  -28.1482  -14.7019   29.4604 C   0  0  0  0  0  0  0  0  0  0  0  0
  -28.6443  -15.6560   28.5778 C   0  0  0  0  0  0  0  0  0  0  0  0
  -22.7200  -10.1624   20.1168 C   0  0  0  0  0  0  0  0  0  0  0  0
  -24.3863   -9.4118   21.6970 C   0  0  0  0  0  0  0  0  0  0  0  0
  -26.9510  -14.0465   29.1760 C   0  0  0  0  0  0  0  0  0  0  0  0
  -27.9439  -15.9544   27.4095 C   0  0  0  0  0  0  0  0  0  0  0  0
  -27.5177  -21.4127   24.6651 C   0  0  0  0  0  0  0  0  0  0  0  0
  -22.0187   -8.9692   20.2896 C   0  0  0  0  0  0  0  0  0  0  0  0
  -23.6849   -8.2186   21.8699 C   0  0  0  0  0  0  0  0  0  0  0  0
  -28.1942  -21.9737   23.5828 C   0  0  0  0  0  0  0  0  0  0  0  0
  -20.9578   -7.1566   23.5597 C   0  0  0  0  0  0  0  0  0  0  0  0
  -20.7793   -6.6946   24.8636 C   0  0  0  0  0  0  0  0  0  0  0  0
  -26.3985  -21.3009   22.1193 C   0  0  0  0  0  0  0  0  0  0  0  0
  -21.9647   -4.6644   24.3066 C   0  0  0  0  0  0  0  0  0  0  0  0
  -23.9039  -10.3837   20.8205 C   0  0  0  0  0  0  0  0  0  0  0  0
  -24.1641  -12.9203   20.8945 C   0  0  0  0  0  0  0  0  0  0  0  0
  -26.2306  -14.3440   28.0084 C   0  0  0  0  0  0  0  0  0  0  0  0
  -26.2795  -20.7808   24.4805 C   0  0  0  0  0  0  0  0  0  0  0  0
  -26.7365  -15.3014   27.1085 C   0  0  0  0  0  0  0  0  0  0  0  0
  -25.7071  -20.7349   23.2013 C   0  0  0  0  0  0  0  0  0  0  0  0
  -22.5011   -7.9973   21.1661 C   0  0  0  0  0  0  0  0  0  0  0  0
  -27.6360  -21.9154   22.3092 C   0  0  0  0  0  0  0  0  0  0  0  0
  -21.6397   -6.3725   22.6292 C   0  0  0  0  0  0  0  0  0  0  0  0
  -21.2828   -5.4485   25.2371 C   0  0  0  0  0  0  0  0  0  0  0  0
  -22.1432   -5.1264   23.0026 C   0  0  0  0  0  0  0  0  0  0  0  0
  -24.6292  -11.6159   20.6420 C   0  0  0  0  0  0  0  0  0  0  0  0
  -25.2234  -13.7317   20.5688 C   0  0  0  0  0  0  0  0  0  0  0  0
  -22.8885  -13.3594   21.3803 C   0  0  0  0  0  0  0  0  0  0  0  0
  -25.1828  -17.8277   24.9048 C   0  0  0  0  0  0  0  0  0  0  0  0
  -22.3384  -19.1940   24.1531 C   0  0  0  0  0  0  0  0  0  0  0  0
  -20.6625  -21.7303   22.6022 C   0  0  0  0  0  0  0  0  0  0  0  0
  -30.8230  -14.5568   21.1374 C   0  0  0  0  0  0  0  0  0  0  0  0
  -24.9653  -13.5754   27.7205 C   0  0  0  0  0  0  0  0  0  0  0  0
  -25.5500  -20.2040   25.6627 C   0  0  0  0  0  0  0  0  0  0  0  0
  -24.3708  -20.0858   22.9534 C   0  0  0  0  0  0  0  0  0  0  0  0
  -24.0928  -14.2191   26.6459 C   0  0  0  0  0  0  0  0  0  0  0  0
  -29.5524  -12.7247   18.1760 C   0  0  0  0  0  0  0  0  0  0  0  0
  -24.9399  -14.6292   25.4454 C   0  0  0  0  0  0  0  0  0  0  0  0
  -28.1469  -12.3197   18.6166 C   0  0  0  0  0  0  0  0  0  0  0  0
  -31.5773  -17.9128   21.5899 C   0  0  0  0  0  0  0  0  0  0  0  0
  -29.4251  -17.6772   20.2882 C   0  0  0  0  0  0  0  0  0  0  0  0
  -30.0551  -22.1218   19.4955 C   0  0  0  0  0  0  0  0  0  0  0  0
  -30.4982  -12.8715   19.3638 C   0  0  0  0  0  0  0  0  0  0  0  0
  -31.1962  -16.6653   22.3825 C   0  0  0  0  0  0  0  0  0  0  0  0
  -29.0982  -16.4147   21.0912 C   0  0  0  0  0  0  0  0  0  0  0  0
  -28.5962  -13.3992   20.8559 C   0  0  0  0  0  0  0  0  0  0  0  0
  -25.9930  -15.6705   25.8432 C   0  0  1  0  0  0  0  0  0  0  0  0
  -24.5358  -19.1326   25.2743 C   0  0  1  0  0  0  0  0  0  0  0  0
  -27.6082  -13.2864   19.6851 C   0  0  2  0  0  0  0  0  0  0  0  0
  -30.3211  -18.6212   21.0872 C   0  0  0  0  0  0  0  0  0  0  0  0
  -29.6475  -20.7678   20.0023 C   0  0  2  0  0  0  0  0  0  0  0  0
  -29.6089  -21.9570   20.9221 C   0  0  2  0  0  0  0  0  0  1  0  0
  -18.3410  -22.5564   22.1270 C   0  0  0  0  0  0  0  0  0  0  0  0
  -22.0159  -17.0471   22.0091 C   0  0  0  0  0  0  0  0  0  0  0  0
  -20.2181  -18.4491   20.9745 C   0  0  0  0  0  0  0  0  0  0  0  0
  -19.9307  -17.5646   23.2891 C   0  0  0  0  0  0  0  0  0  0  0  0
  -21.1378  -24.2588   24.0651 C   0  0  0  0  0  0  0  0  0  0  0  0
  -21.5752  -19.4396   22.8740 C   0  0  1  0  0  0  0  0  0  0  0  0
  -19.5300  -22.6251   23.0727 C   0  0  2  0  0  0  0  0  0  0  0  0
  -20.9611  -18.1357   22.2907 C   0  0  0  0  0  0  0  0  0  0  0  0
  -25.8861  -11.5950   20.1904 N   0  0  0  0  0  0  0  0  0  0  0  0
  -26.2197  -12.8964   20.1566 N   0  0  0  0  0  0  0  0  0  0  0  0
  -23.6994  -19.5306   24.1402 N   0  0  0  0  0  0  0  0  0  0  0  0
  -29.9439  -13.7575   20.3876 N   0  0  0  0  0  0  0  0  0  0  0  0
  -30.3273  -15.7861   21.5976 N   0  0  0  0  0  0  0  0  0  0  0  0
  -25.3904  -15.0710   20.5975 N   0  0  0  0  0  0  0  0  0  0  0  0
  -22.7087  -13.4877   22.7643 N   0  0  0  0  0  0  0  0  0  0  0  0
  -25.3864  -16.9778   25.9751 N   0  0  0  0  0  0  0  0  0  0  0  0
  -20.5961  -20.4782   23.1758 N   0  0  0  0  0  0  0  0  0  0  0  0
  -30.7202  -19.7609   20.2215 N   0  3  0  0  0  0  0  0  0  0  0  0
  -19.9872  -24.0414   23.1509 N   0  3  0  0  0  0  0  0  0  0  0  0
  -21.9314  -13.6142   20.6106 O   0  0  0  0  0  0  0  0  0  0  0  0
  -25.4742  -17.6077   23.7351 O   0  0  0  0  0  0  0  0  0  0  0  0
  -21.7471  -18.7276   25.1301 O   0  0  0  0  0  0  0  0  0  0  0  0
  -21.5181  -22.1035   21.8028 O   0  0  0  0  0  0  0  0  0  0  0  0
  -31.9811  -14.1935   21.3783 O   0  0  0  0  0  0  0  0  0  0  0  0
  -21.8168   -6.8329   21.3352 O   0  0  0  0  0  0  0  0  0  0  0  0
  -28.3041  -22.4696   21.2356 O   0  0  0  0  0  0  0  0  0  1  0  0
  -21.1126   -5.0057   26.4897 F   0  0  0  0  0  0  0  0  0  0  0  0
  -22.8002   -4.3692   22.1134 F   0  0  0  0  0  0  0  0  0  0  0  0
  1  2  1  0  0  0  0
  1  5  2  0  0  0  0
  2  6  2  0  0  0  0
  3  8  2  0  0  0  0
  3 15  1  0  0  0  0
  4  9  1  0  0  0  0
  4 15  2  0  0  0  0
  5 17  1  0  0  0  0
  6 19  1  0  0  0  0
  7 10  2  0  0  0  0
  7 18  1  0  0  0  0
  8 21  1  0  0  0  0
  9 21  2  0  0  0  0
 10 22  1  0  0  0  0
 11 12  2  0  0  0  0
 11 23  1  0  0  0  0
 12 24  1  0  0  0  0
 13 20  1  0  0  0  0
 13 22  2  0  0  0  0
 14 24  2  0  0  0  0
 14 25  1  0  0  0  0
 15 26  1  0  0  0  0
 16 26  1  0  0  0  0
 16 27  2  0  0  0  0
 16 28  1  0  0  0  0
 17 19  2  0  0  0  0
 17 33  1  0  0  0  0
 18 20  2  0  0  0  0
 18 34  1  0  0  0  0
 19 47  1  0  0  0  0
 20 35  1  0  0  0  0
 21 77  1  0  0  0  0
 22 78  1  0  0  0  0
 23 25  2  0  0  0  0
 23 77  1  0  0  0  0
 24 79  1  0  0  0  0
 25 80  1  0  0  0  0
 26 61  2  0  0  0  0
 27 62  1  0  0  0  0
 27 66  1  0  0  0  0
 28 67  1  0  0  0  0
 28 72  2  0  0  0  0
 29 48  1  0  0  0  0
 29 68  1  0  0  0  0
 29 73  2  0  0  0  0
 30 58  1  0  0  0  0
 30 63  1  0  0  0  0
 30 74  2  0  0  0  0
 31 59  1  0  0  0  0
 31 69  1  0  0  0  0
 31 75  2  0  0  0  0
 32 64  1  0  0  0  0
 32 65  1  0  0  0  0
 32 76  2  0  0  0  0
 33 36  1  0  0  0  0
 34 48  1  0  0  0  0
 35 63  1  0  0  0  0
 36 38  1  0  0  0  0
 37 39  1  0  0  0  0
 37 43  1  0  0  0  0
 38 47  1  0  0  0  0
 39 49  1  0  0  0  0
 40 44  1  0  0  0  0
 40 50  1  0  0  0  0
 41 45  1  0  0  0  0
 41 50  1  0  0  0  0
 42 51  1  0  0  0  0
 42 52  1  0  0  0  0
 43 64  1  0  0  0  0
 44 65  1  0  0  0  0
 45 65  1  0  0  0  0
 46 49  1  0  0  0  0
 46 64  1  0  0  0  0
 47 68  1  0  0  0  0
 48 63  1  0  0  0  0
 49 62  1  0  0  0  0
 50 70  1  0  0  0  0
 51 52  1  0  0  0  0
 51 70  1  0  0  0  0
 52 78  1  0  0  0  0
 53 59  1  0  0  0  0
 54 60  1  0  0  0  0
 55 60  1  0  0  0  0
 56 60  1  0  0  0  0
 57 71  1  0  0  0  0
 58 60  1  0  0  0  0
 58 69  1  0  0  0  0
 59 71  1  0  0  0  0
 61 62  1  0  0  0  0
M  CHG  2  70   1  71   1
M  ISO  4  32 100  52 101  65 100  78 101
M  END
> <Batch ID>
0181

> <Smiles>
CNC(C)C(=O)NC(C(=O)N1Cc2cc([101O:1][101CH:1]3CC3NC3CC[100N:0]([100C:0](=O)N4CCCC(n5nc(-c6ccc(Oc7ccc(F)cc7F)cc6)c(C(N)=O)c5N)C4)CC3)ccc2CC1C(=O)NC1CCCc2ccccc21)C(C)(C)C

> <Shape>
0.229

> <Color>
0.164

> <Negative vol penalty>
0.000

$$$$

  -OEChem-04052323023D

 82 91  0     1  0  0  0  0  0999 V2000
  -25.7905  -30.8314   29.0063 C   0  0  0  0  0  0  0  0  0  0  0  0
  -26.5400  -30.6524   27.8480 C   0  0  0  0  0  0  0  0  0  0  0  0
  -28.1119  -11.9389   21.6554 C   0  0  0  0  0  0  0  0  0  0  0  0
  -26.2199  -13.0232   20.6153 C   0  0  0  0  0  0  0  0  0  0  0  0
  -24.5298  -30.2463   29.1167 C   0  0  0  0  0  0  0  0  0  0  0  0
  -26.0297  -29.8874   26.7999 C   0  0  0  0  0  0  0  0  0  0  0  0
  -26.8882  -30.8143   20.8074 C   0  0  0  0  0  0  0  0  0  0  0  0
  -27.2499  -11.0483   22.2950 C   0  0  0  0  0  0  0  0  0  0  0  0
  -25.3579  -12.1325   21.2549 C   0  0  0  0  0  0  0  0  0  0  0  0
  -27.7633  -30.2414   19.8856 C   0  0  0  0  0  0  0  0  0  0  0  0
  -24.3235   -8.9414   20.8453 C   0  0  0  0  0  0  0  0  0  0  0  0
  -23.3005   -8.3737   20.0859 C   0  0  0  0  0  0  0  0  0  0  0  0
  -26.0355  -28.6976   19.2141 C   0  0  0  0  0  0  0  0  0  0  0  0
  -29.8541  -26.9667   17.7213 C   0  0  0  0  0  0  0  0  0  0  0  0
  -21.6598   -9.3476   21.5680 C   0  0  0  0  0  0  0  0  0  0  0  0
  -29.5872  -26.1470   20.3101 C   0  0  0  0  0  0  0  0  0  0  0  0
  -27.5969  -12.9265   20.8155 C   0  0  0  0  0  0  0  0  0  0  0  0
  -29.0899  -13.6892   18.8928 C   0  0  0  0  0  0  0  0  0  0  0  0
  -23.9997  -29.4817   28.0656 C   0  0  0  0  0  0  0  0  0  0  0  0
  -25.5815  -30.3253   20.9474 C   0  0  0  0  0  0  0  0  0  0  0  0
  -24.7612  -29.2904   26.8969 C   0  0  0  0  0  0  0  0  0  0  0  0
  -25.1451  -29.2678   20.1367 C   0  0  0  0  0  0  0  0  0  0  0  0
  -30.6261  -25.9070   18.1842 C   0  0  0  0  0  0  0  0  0  0  0  0
  -30.4966  -25.4835   19.5023 C   0  0  0  0  0  0  0  0  0  0  0  0
  -25.8729  -11.1450   22.0947 C   0  0  0  0  0  0  0  0  0  0  0  0
  -27.3379  -29.1810   19.0908 C   0  0  0  0  0  0  0  0  0  0  0  0
  -24.0147   -9.7122   21.9661 C   0  0  0  0  0  0  0  0  0  0  0  0
  -21.9687   -8.5768   20.4472 C   0  0  0  0  0  0  0  0  0  0  0  0
  -22.6828   -9.9153   22.3274 C   0  0  0  0  0  0  0  0  0  0  0  0
  -28.4869  -13.8472   20.1550 C   0  0  0  0  0  0  0  0  0  0  0  0
  -28.9742  -27.5646   18.6091 C   0  0  0  0  0  0  0  0  0  1  0  0
  -29.8357  -14.8300   18.7233 C   0  0  0  0  0  0  0  0  0  0  0  0
  -28.9851  -12.6078   17.9571 C   0  0  0  0  0  0  0  0  0  0  0  0
  -23.9282  -28.9875   23.3098 C   0  0  0  0  0  0  0  0  0  0  0  0
  -21.4725  -29.2260   21.2039 C   0  0  0  0  0  0  0  0  0  0  0  0
  -20.4546  -29.4640   17.9552 C   0  0  0  0  0  0  0  0  0  0  0  0
  -29.1802  -20.2600   21.1295 C   0  0  0  0  0  0  0  0  0  0  0  0
  -22.6522  -28.8298   28.2499 C   0  0  0  0  0  0  0  0  0  0  0  0
  -24.6414  -30.9717   21.9277 C   0  0  0  0  0  0  0  0  0  0  0  0
  -23.7458  -28.7192   20.2339 C   0  0  0  0  0  0  0  0  0  0  0  0
  -22.0267  -28.3444   26.9447 C   0  0  0  0  0  0  0  0  0  0  0  0
  -32.1921  -18.1704   21.2073 C   0  0  0  0  0  0  0  0  0  0  0  0
  -23.0533  -27.5842   26.1111 C   0  0  0  0  0  0  0  0  0  0  0  0
  -31.6205  -16.7988   20.8448 C   0  0  0  0  0  0  0  0  0  0  0  0
  -31.1944  -18.9770   22.0297 C   0  0  0  0  0  0  0  0  0  0  0  0
  -29.3465  -22.7754   20.7264 C   0  0  0  0  0  0  0  0  0  0  0  0
  -31.2316  -21.7981   20.6000 C   0  0  0  0  0  0  0  0  0  0  0  0
  -29.2885  -17.7943   21.0150 C   0  0  0  0  0  0  0  0  0  0  0  0
  -24.2315  -28.4879   25.7283 C   0  0  1  0  0  0  0  0  0  0  0  0
  -23.4948  -30.0573   22.3479 C   0  0  1  0  0  0  0  0  0  0  0  0
  -30.6080  -23.0071   19.8771 C   0  0  0  0  0  0  0  0  0  0  0  0
  -30.2424  -16.9293   20.1705 C   0  0  2  0  0  0  0  0  0  0  0  0
  -31.5835  -25.2404   17.2530 C   0  0  0  0  0  0  0  0  0  0  0  0
  -18.3836  -29.6043   16.5450 C   0  0  0  0  0  0  0  0  0  0  0  0
  -20.9875  -26.2430   21.6235 C   0  0  0  0  0  0  0  0  0  0  0  0
  -19.5909  -26.2487   19.5457 C   0  0  0  0  0  0  0  0  0  0  0  0
  -18.9106  -27.6313   21.5074 C   0  0  0  0  0  0  0  0  0  0  0  0
  -21.2286  -32.1088   16.8759 C   0  0  0  0  0  0  0  0  0  0  0  0
  -31.3078  -24.3392   20.0565 C   0  0  0  0  0  0  0  0  0  0  0  0
  -20.9025  -28.3413   20.1216 C   0  0  1  0  0  0  0  0  0  0  0  0
  -19.4614  -30.3896   17.2760 C   0  0  2  0  0  0  0  0  0  0  0  0
  -20.1249  -27.1249   20.6988 C   0  0  0  0  0  0  0  0  0  0  0  0
  -28.8201  -27.1804   19.8961 N   0  0  0  0  0  0  0  0  0  0  0  0
  -28.8209  -14.9977   20.7456 N   0  0  0  0  0  0  0  0  0  0  0  0
  -29.6420  -15.5729   19.8505 N   0  0  0  0  0  0  0  0  0  0  0  0
  -22.8660  -29.3806   21.2117 N   0  0  0  0  0  0  0  0  0  0  0  0
  -29.9086  -19.0848   21.3331 N   0  0  0  0  0  0  0  0  0  0  0  0
  -29.8741  -21.4376   20.9805 N   0  0  0  0  0  0  0  0  0  0  0  0
  -30.6320  -15.2600   17.7215 N   0  0  0  0  0  0  0  0  0  0  0  0
  -28.1759  -11.5128   18.2894 N   0  0  0  0  0  0  0  0  0  0  0  0
  -23.8625  -29.3646   24.6376 N   0  0  0  0  0  0  0  0  0  0  0  0
  -20.1029  -29.2092   19.2638 N   0  0  0  0  0  0  0  0  0  0  0  0
  -20.1580  -31.2624   16.2891 N   0  3  0  0  0  0  0  0  0  0  0  0
  -29.6042  -12.6051   16.8661 O   0  0  0  0  0  0  0  0  0  0  0  0
  -24.2936  -27.8999   22.8793 O   0  0  0  0  0  0  0  0  0  0  0  0
  -20.7088  -29.7659   22.0082 O   0  0  0  0  0  0  0  0  0  0  0  0
  -21.4415  -29.0092   17.3810 O   0  0  0  0  0  0  0  0  0  0  0  0
  -27.9445  -20.2562   21.0506 O   0  0  0  0  0  0  0  0  0  0  0  0
  -25.0315  -10.2758   22.7185 O   0  0  0  0  0  0  0  0  0  0  0  0
  -28.2025  -28.6114   18.1776 O   0  0  0  0  0  0  0  0  0  1  0  0
  -20.9863   -8.0328   19.7169 F   0  0  0  0  0  0  0  0  0  0  0  0
  -22.3799  -10.6559   23.4024 F   0  0  0  0  0  0  0  0  0  0  0  0
  1  2  1  0  0  0  0
  1  5  2  0  0  0  0
  2  6  2  0  0  0  0
  3  8  2  0  0  0  0
  3 17  1  0  0  0  0
  4  9  1  0  0  0  0
  4 17  2  0  0  0  0
  5 19  1  0  0  0  0
  6 21  1  0  0  0  0
  7 10  2  0  0  0  0
  7 20  1  0  0  0  0
  8 25  1  0  0  0  0
  9 25  2  0  0  0  0
 10 26  1  0  0  0  0
 11 12  2  0  0  0  0
 11 27  1  0  0  0  0
 12 28  1  0  0  0  0
 13 22  1  0  0  0  0
 13 26  2  0  0  0  0
 14 23  2  0  0  0  0
 14 31  1  0  0  0  0
 15 28  2  0  0  0  0
 15 29  1  0  0  0  0
 16 24  2  0  0  0  0
 16 63  1  0  0  0  0
 17 30  1  0  0  0  0
 18 30  1  0  0  0  0
 18 32  2  0  0  0  0
 18 33  1  0  0  0  0
 19 21  2  0  0  0  0
 19 38  1  0  0  0  0
 20 22  2  0  0  0  0
 20 39  1  0  0  0  0
 21 49  1  0  0  0  0
 22 40  1  0  0  0  0
 23 24  1  0  0  0  0
 23 53  1  0  0  0  0
 24 59  1  0  0  0  0
 25 79  1  0  0  0  0
 26 80  1  0  0  0  0
 27 29  2  0  0  0  0
 27 79  1  0  0  0  0
 28 81  1  0  0  0  0
 29 82  1  0  0  0  0
 30 64  2  0  0  0  0
 31 63  2  0  0  0  0
 31 80  1  0  0  0  0
 32 65  1  0  0  0  0
 32 69  1  0  0  0  0
 33 70  1  0  0  0  0
 33 74  2  0  0  0  0
 34 50  1  0  0  0  0
 34 71  1  0  0  0  0
 34 75  2  0  0  0  0
 35 60  1  0  0  0  0
 35 66  1  0  0  0  0
 35 76  2  0  0  0  0
 36 61  1  0  0  0  0
 36 72  1  0  0  0  0
 36 77  2  0  0  0  0
 37 67  1  0  0  0  0
 37 68  1  0  0  0  0
 37 78  2  0  0  0  0
 38 41  1  0  0  0  0
 39 50  1  0  0  0  0
 40 66  1  0  0  0  0
 41 43  1  0  0  0  0
 42 44  1  0  0  0  0
 42 45  1  0  0  0  0
 43 49  1  0  0  0  0
 44 52  1  0  0  0  0
 45 67  1  0  0  0  0
 46 51  1  0  0  0  0
 46 68  1  0  0  0  0
 47 51  1  0  0  0  0
 47 68  1  0  0  0  0
 48 52  1  0  0  0  0
 48 67  1  0  0  0  0
 49 71  1  0  0  0  0
 50 66  1  0  0  0  0
 51 59  1  0  0  0  0
 52 65  1  0  0  0  0
 54 61  1  0  0  0  0
 55 62  1  0  0  0  0
 56 62  1  0  0  0  0
 57 62  1  0  0  0  0
 58 73  1  0  0  0  0
 60 62  1  0  0  0  0
 60 72  1  0  0  0  0
 61 73  1  0  0  0  0
 64 65  1  0  0  0  0
M  CHG  1  73   1
M  ISO  4  31 101  37 100  68 100  80 101
M  END
> <Batch ID>
0181

> <Smiles>
CNC(C)C(=O)NC(C(=O)N1Cc2cc([101O:1][101c:1]3cc(C)c(CC4C[100N:0]([100C:0](=O)N5CCCC(n6nc(-c7ccc(Oc8ccc(F)cc8F)cc7)c(C(N)=O)c6N)C5)C4)cn3)ccc2CC1C(=O)NC1CCCc2ccccc21)C(C)(C)C

> <Shape>
0.283

> <Color>
0.052

> <Negative vol penalty>
0.000

$$$$

  -OEChem-04052323023D

 81 89  0     1  0  0  0  0  0999 V2000
  -20.7747  -26.3393   21.7994 C   0  0  0  0  0  0  0  0  0  0  0  0
  -21.0443  -25.3022   20.9122 C   0  0  0  0  0  0  0  0  0  0  0  0
  -27.3726  -23.4182   20.3337 C   0  0  0  0  0  0  0  0  0  0  0  0
  -29.2235  -23.5620   18.7875 C   0  0  0  0  0  0  0  0  0  0  0  0
  -21.3736  -26.3514   23.0584 C   0  0  0  0  0  0  0  0  0  0  0  0
  -21.9138  -24.2771   21.2831 C   0  0  0  0  0  0  0  0  0  0  0  0
  -23.0034  -17.2616   20.3285 C   0  0  0  0  0  0  0  0  0  0  0  0
  -27.4312  -24.7976   20.5322 C   0  0  0  0  0  0  0  0  0  0  0  0
  -29.2820  -24.9415   18.9859 C   0  0  0  0  0  0  0  0  0  0  0  0
  -24.0045  -16.3691   19.9477 C   0  0  0  0  0  0  0  0  0  0  0  0
  -26.4409  -27.5923   18.9068 C   0  0  0  0  0  0  0  0  0  0  0  0
  -25.2391  -28.3002   18.8964 C   0  0  0  0  0  0  0  0  0  0  0  0
  -24.9195  -16.4531   22.1782 C   0  0  0  0  0  0  0  0  0  0  0  0
  -25.6554  -29.0400   21.1584 C   0  0  0  0  0  0  0  0  0  0  0  0
  -27.1325  -12.5154   19.6985 C   0  0  0  0  0  0  0  0  0  0  0  0
  -28.2688  -22.8004   19.4614 C   0  0  0  0  0  0  0  0  0  0  0  0
  -27.4542  -20.6867   18.2882 C   0  0  0  0  0  0  0  0  0  0  0  0
  -22.2434  -25.3210   23.4486 C   0  0  0  0  0  0  0  0  0  0  0  0
  -22.9592  -17.7658   21.6363 C   0  0  0  0  0  0  0  0  0  0  0  0
  -22.5259  -24.2762   22.5480 C   0  0  0  0  0  0  0  0  0  0  0  0
  -23.9153  -17.3498   22.5738 C   0  0  0  0  0  0  0  0  0  0  0  0
  -28.3858  -25.5592   19.8583 C   0  0  0  0  0  0  0  0  0  0  0  0
  -24.9645  -15.9670   20.8717 C   0  0  0  0  0  0  0  0  0  0  0  0
  -27.2499  -27.6081   20.0430 C   0  0  0  0  0  0  0  0  0  0  0  0
  -24.8464  -29.0242   20.0222 C   0  0  0  0  0  0  0  0  0  0  0  0
  -26.8572  -28.3320   21.1688 C   0  0  0  0  0  0  0  0  0  0  0  0
  -28.2092  -21.3754   19.2564 C   0  0  0  0  0  0  0  0  0  0  0  0
  -27.0572  -13.6698   18.9507 C   0  0  0  0  0  0  0  0  0  0  0  0
  -29.0601  -11.9374   18.6123 C   0  0  0  0  0  0  0  0  0  0  0  0
  -28.9845  -13.0914   17.8639 C   0  0  0  0  0  0  0  0  0  0  0  0
  -27.7415  -19.3616   18.5075 C   0  0  0  0  0  0  0  0  0  0  0  0
  -26.5720  -21.1989   17.2807 C   0  0  0  0  0  0  0  0  0  0  0  0
  -23.1775  -20.6596   22.9332 C   0  0  0  0  0  0  0  0  0  0  0  0
  -22.4503  -19.0647   25.6627 C   0  0  0  0  0  0  0  0  0  0  0  0
  -22.4399  -16.1154   27.3797 C   0  0  0  0  0  0  0  0  0  0  0  0
  -31.4083  -15.2827   19.5381 C   0  0  0  0  0  0  0  0  0  0  0  0
  -22.9038  -25.4020   24.8021 C   0  0  0  0  0  0  0  0  0  0  0  0
  -21.8571  -18.7071   22.0387 C   0  0  0  0  0  0  0  0  0  0  0  0
  -23.9000  -17.8461   23.9957 C   0  0  0  0  0  0  0  0  0  0  0  0
  -23.5211  -24.0826   25.2585 C   0  0  0  0  0  0  0  0  0  0  0  0
  -30.1668  -17.1078   22.3317 C   0  0  0  0  0  0  0  0  0  0  0  0
  -24.3334  -23.4547   24.1304 C   0  0  0  0  0  0  0  0  0  0  0  0
  -29.4904  -18.3264   21.7012 C   0  0  0  0  0  0  0  0  0  0  0  0
  -31.4255  -16.7027   21.5678 C   0  0  0  0  0  0  0  0  0  0  0  0
  -30.5533  -17.7041   19.4917 C   0  0  0  0  0  0  0  0  0  0  0  0
  -23.4443  -23.1334   22.9230 C   0  0  1  0  0  0  0  0  0  0  0  0
  -22.2108  -19.5555   23.2562 C   0  0  1  0  0  0  0  0  0  0  0  0
  -29.2484  -18.1163   20.1944 C   0  0  2  0  0  0  0  0  0  0  0  0
  -30.1746  -10.9644   18.4300 C   0  0  0  0  0  0  0  0  0  0  0  0
  -21.8179  -15.1328   29.6035 C   0  0  0  0  0  0  0  0  0  0  0  0
  -24.9378  -20.3171   26.9091 C   0  0  0  0  0  0  0  0  0  0  0  0
  -24.7984  -18.6087   28.7340 C   0  0  0  0  0  0  0  0  0  0  0  0
  -22.9415  -20.2433   28.4136 C   0  0  0  0  0  0  0  0  0  0  0  0
  -20.4823  -14.2695   26.1470 C   0  0  0  0  0  0  0  0  0  0  0  0
  -30.0137  -13.4206   16.8372 C   0  0  0  0  0  0  0  0  0  0  0  0
  -25.9263  -14.6350   19.1522 C   0  0  0  0  0  0  0  0  0  1  0  0
  -31.3137  -13.9813   17.4271 C   0  0  0  0  0  0  0  0  0  0  0  0
  -23.2480  -18.3723   26.7412 C   0  0  1  0  0  0  0  0  0  0  0  0
  -21.3551  -15.4218   28.1839 C   0  0  2  0  0  0  0  0  0  0  0  0
  -23.9831  -19.3773   27.6722 C   0  0  0  0  0  0  0  0  0  0  0  0
  -28.1354  -11.6285   19.5428 N   0  0  0  0  0  0  0  0  0  0  0  0
  -28.9225  -20.5556   20.0330 N   0  0  0  0  0  0  0  0  0  0  0  0
  -27.9819  -13.9785   18.0199 N   0  0  0  0  0  0  0  0  0  0  0  0
  -28.6168  -19.3381   19.5532 N   0  0  0  0  0  0  0  0  0  0  0  0
  -22.8062  -18.7698   24.3390 N   0  0  0  0  0  0  0  0  0  0  0  0
  -31.1274  -16.5177   20.1456 N   0  0  0  0  0  0  0  0  0  0  0  0
  -27.3282  -18.2259   17.9060 N   0  0  0  0  0  0  0  0  0  0  0  0
  -26.3907  -22.5860   17.1938 N   0  0  0  0  0  0  0  0  0  0  0  0
  -22.6805  -21.9280   23.1645 N   0  0  0  0  0  0  0  0  0  0  0  0
  -22.3170  -17.4877   27.4333 N   0  0  0  0  0  0  0  0  0  0  0  0
  -31.0893  -15.1896   18.1889 N   0  0  0  0  0  0  0  0  0  0  0  0
  -20.9782  -14.1315   27.5406 N   0  3  0  0  0  0  0  0  0  0  0  0
  -25.9500  -20.4479   16.4917 O   0  0  0  0  0  0  0  0  0  0  0  0
  -24.2923  -20.3812   22.5073 O   0  0  0  0  0  0  0  0  0  0  0  0
  -21.5401  -19.8332   25.9829 O   0  0  0  0  0  0  0  0  0  0  0  0
  -23.3115  -15.5012   26.7684 O   0  0  0  0  0  0  0  0  0  0  0  0
  -31.9017  -14.3317   20.1539 O   0  0  0  0  0  0  0  0  0  0  0  0
  -28.4431  -26.9053   20.0515 O   0  0  0  0  0  0  0  0  0  0  0  0
  -25.9431  -15.0964   20.5024 O   0  0  0  0  0  0  0  0  0  1  0  0
  -23.6931  -29.7053   20.0115 F   0  0  0  0  0  0  0  0  0  0  0  0
  -27.6308  -28.3519   22.2629 F   0  0  0  0  0  0  0  0  0  0  0  0
  1  2  1  0  0  0  0
  1  5  2  0  0  0  0
  2  6  2  0  0  0  0
  3  8  2  0  0  0  0
  3 16  1  0  0  0  0
  4  9  1  0  0  0  0
  4 16  2  0  0  0  0
  5 18  1  0  0  0  0
  6 20  1  0  0  0  0
  7 10  2  0  0  0  0
  7 19  1  0  0  0  0
  8 22  1  0  0  0  0
  9 22  2  0  0  0  0
 10 23  1  0  0  0  0
 11 12  2  0  0  0  0
 11 24  1  0  0  0  0
 12 25  1  0  0  0  0
 13 21  1  0  0  0  0
 13 23  2  0  0  0  0
 14 25  2  0  0  0  0
 14 26  1  0  0  0  0
 15 28  1  0  0  0  0
 15 61  2  0  0  0  0
 16 27  1  0  0  0  0
 17 27  1  0  0  0  0
 17 31  2  0  0  0  0
 17 32  1  0  0  0  0
 18 20  2  0  0  0  0
 18 37  1  0  0  0  0
 19 21  2  0  0  0  0
 19 38  1  0  0  0  0
 20 46  1  0  0  0  0
 21 39  1  0  0  0  0
 22 78  1  0  0  0  0
 23 79  1  0  0  0  0
 24 26  2  0  0  0  0
 24 78  1  0  0  0  0
 25 80  1  0  0  0  0
 26 81  1  0  0  0  0
 27 62  2  0  0  0  0
 28 56  1  0  0  0  0
 28 63  2  0  0  0  0
 29 30  2  0  0  0  0
 29 49  1  0  0  0  0
 29 61  1  0  0  0  0
 30 55  1  0  0  0  0
 30 63  1  0  0  0  0
 31 64  1  0  0  0  0
 31 67  1  0  0  0  0
 32 68  1  0  0  0  0
 32 73  2  0  0  0  0
 33 47  1  0  0  0  0
 33 69  1  0  0  0  0
 33 74  2  0  0  0  0
 34 58  1  0  0  0  0
 34 65  1  0  0  0  0
 34 75  2  0  0  0  0
 35 59  1  0  0  0  0
 35 70  1  0  0  0  0
 35 76  2  0  0  0  0
 36 66  1  0  0  0  0
 36 71  1  0  0  0  0
 36 77  2  0  0  0  0
 37 40  1  0  0  0  0
 38 47  1  0  0  0  0
 39 65  1  0  0  0  0
 40 42  1  0  0  0  0
 41 43  1  0  0  0  0
 41 44  1  0  0  0  0
 42 46  1  0  0  0  0
 43 48  1  0  0  0  0
 44 66  1  0  0  0  0
 45 48  1  0  0  0  0
 45 66  1  0  0  0  0
 46 69  1  0  0  0  0
 47 65  1  0  0  0  0
 48 64  1  0  0  0  0
 50 59  1  0  0  0  0
 51 60  1  0  0  0  0
 52 60  1  0  0  0  0
 53 60  1  0  0  0  0
 54 72  1  0  0  0  0
 55 57  1  0  0  0  0
 56 79  1  0  0  0  0
 57 71  1  0  0  0  0
 58 60  1  0  0  0  0
 58 70  1  0  0  0  0
 59 72  1  0  0  0  0
 62 64  1  0  0  0  0
M  CHG  1  72   1
M  ISO  4  36 100  56 101  71 100  79 101
M  END
> <Batch ID>
0181

> <Smiles>
CNC(C)C(=O)NC(C(=O)N1Cc2cc([101O:1][101CH2:1]c3cnc(C)c(CC[100NH:0][100C:0](=O)N4CCCC(n5nc(-c6ccc(Oc7ccc(F)cc7F)cc6)c(C(N)=O)c5N)C4)n3)ccc2CC1C(=O)NC1CCCc2ccccc21)C(C)(C)C

> <Shape>
0.198

> <Color>
0.089

> <Negative vol penalty>
0.000

$$$$

  -OEChem-04052323023D

 85 94  0     1  0  0  0  0  0999 V2000
  -16.9871  -30.0449   23.4010 C   0  0  0  0  0  0  0  0  0  0  0  0
  -18.2514  -30.6002   23.2318 C   0  0  0  0  0  0  0  0  0  0  0  0
  -23.4726  -14.2110   23.0719 C   0  0  0  0  0  0  0  0  0  0  0  0
  -25.1597  -13.0710   21.7715 C   0  0  0  0  0  0  0  0  0  0  0  0
  -16.8341  -28.6595   23.4339 C   0  0  0  0  0  0  0  0  0  0  0  0
  -19.3637  -29.7702   23.0966 C   0  0  0  0  0  0  0  0  0  0  0  0
  -25.7230  -29.4480   19.8145 C   0  0  0  0  0  0  0  0  0  0  0  0
  -22.5047  -13.3311   22.5876 C   0  0  0  0  0  0  0  0  0  0  0  0
  -24.1917  -12.1911   21.2871 C   0  0  0  0  0  0  0  0  0  0  0  0
  -27.0704  -29.2271   20.0961 C   0  0  0  0  0  0  0  0  0  0  0  0
  -22.5472   -9.4503   22.3842 C   0  0  0  0  0  0  0  0  0  0  0  0
  -22.8620   -8.0916   22.3612 C   0  0  0  0  0  0  0  0  0  0  0  0
  -26.6756  -26.8474   20.0891 C   0  0  0  0  0  0  0  0  0  0  0  0
  -22.5459   -8.0589   19.9662 C   0  0  0  0  0  0  0  0  0  0  0  0
  -31.3402  -27.1012   17.4846 C   0  0  0  0  0  0  0  0  0  0  0  0
  -24.8001  -14.0809   22.6638 C   0  0  0  0  0  0  0  0  0  0  0  0
  -26.5877  -14.8353   24.3201 C   0  0  0  0  0  0  0  0  0  0  0  0
  -17.9438  -27.8120   23.2894 C   0  0  0  0  0  0  0  0  0  0  0  0
  -24.8380  -28.3688   19.6786 C   0  0  0  0  0  0  0  0  0  0  0  0
  -19.2256  -28.3721   23.1290 C   0  0  0  0  0  0  0  0  0  0  0  0
  -25.3179  -27.0571   19.8031 C   0  0  0  0  0  0  0  0  0  0  0  0
  -22.8642  -12.3212   21.6952 C   0  0  0  0  0  0  0  0  0  0  0  0
  -27.5464  -27.9268   20.2363 C   0  0  0  0  0  0  0  0  0  0  0  0
  -22.2316  -10.1132   21.1982 C   0  0  0  0  0  0  0  0  0  0  0  0
  -22.8614   -7.3959   21.1522 C   0  0  0  0  0  0  0  0  0  0  0  0
  -22.2311   -9.4176   19.9892 C   0  0  0  0  0  0  0  0  0  0  0  0
  -25.8003  -14.9899   23.1634 C   0  0  0  0  0  0  0  0  0  0  0  0
  -31.1133  -26.8453   18.8189 C   0  0  0  0  0  0  0  0  0  0  0  0
  -30.9896  -24.8937   17.0015 C   0  0  0  0  0  0  0  0  0  0  0  0
  -30.7635  -24.6375   18.3359 C   0  0  0  0  0  0  0  0  0  0  0  0
  -27.3745  -15.9606   24.3528 C   0  0  0  0  0  0  0  0  0  0  0  0
  -26.6063  -13.7697   25.2791 C   0  0  0  0  0  0  0  0  0  0  0  0
  -22.2349  -27.3945   21.2207 C   0  0  0  0  0  0  0  0  0  0  0  0
  -22.1180  -25.1987   18.8360 C   0  0  0  0  0  0  0  0  0  0  0  0
  -23.7880  -23.4274   16.4442 C   0  0  0  0  0  0  0  0  0  0  0  0
  -29.4256  -19.5404   20.3024 C   0  0  0  0  0  0  0  0  0  0  0  0
  -17.7352  -26.3210   23.3789 C   0  0  0  0  0  0  0  0  0  0  0  0
  -23.3928  -28.6230   19.3482 C   0  0  0  0  0  0  0  0  0  0  0  0
  -24.4129  -25.8634   19.6465 C   0  0  0  0  0  0  0  0  0  0  0  0
  -18.9154  -25.5082   22.8530 C   0  0  0  0  0  0  0  0  0  0  0  0
  -27.4230  -20.5457   23.0076 C   0  0  0  0  0  0  0  0  0  0  0  0
  -20.2284  -26.0559   23.4034 C   0  0  0  0  0  0  0  0  0  0  0  0
  -26.8483  -19.2084   23.4736 C   0  0  0  0  0  0  0  0  0  0  0  0
  -27.4752  -20.6467   21.4823 C   0  0  0  0  0  0  0  0  0  0  0  0
  -31.3460  -22.6548   19.6989 C   0  0  0  0  0  0  0  0  0  0  0  0
  -29.0526  -22.9227   18.7426 C   0  0  0  0  0  0  0  0  0  0  0  0
  -31.1785  -21.1394   19.6283 C   0  0  0  0  0  0  0  0  0  0  0  0
  -28.9309  -21.4044   18.6772 C   0  0  0  0  0  0  0  0  0  0  0  0
  -27.6063  -18.1838   21.2958 C   0  0  0  0  0  0  0  0  0  0  0  0
  -20.4533  -27.5047   22.9541 C   0  0  1  0  0  0  0  0  0  0  0  0
  -22.4780  -27.4665   19.7397 C   0  0  1  0  0  0  0  0  0  0  0  0
  -27.5956  -18.0298   22.8246 C   0  0  2  0  0  0  0  0  0  0  0  0
  -30.9251  -23.8165   15.9716 C   0  0  0  0  0  0  0  0  0  0  0  0
  -23.4313  -21.6814   14.6774 C   0  0  0  0  0  0  0  0  0  0  0  0
  -21.9804  -23.0462   20.9942 C   0  0  0  0  0  0  0  0  0  0  0  0
  -22.5803  -21.3553   19.2481 C   0  0  0  0  0  0  0  0  0  0  0  0
  -20.4663  -22.6633   19.0409 C   0  0  0  0  0  0  0  0  0  0  0  0
  -24.6556  -25.2630   14.2909 C   0  0  0  0  0  0  0  0  0  0  0  0
  -31.1858  -27.9441   19.8213 C   0  0  0  0  0  0  0  0  0  0  0  0
  -29.8408  -28.6451   20.0417 C   0  0  0  0  0  0  0  0  0  1  0  0
  -22.6803  -23.8128   18.6303 C   0  0  1  0  0  0  0  0  0  0  0  0
  -23.4781  -23.1709   14.9804 C   0  0  2  0  0  0  0  0  0  0  0  0
  -21.9437  -22.7418   19.4833 C   0  0  0  0  0  0  0  0  0  0  0  0
  -31.2823  -26.1300   16.5518 N   0  0  0  0  0  0  0  0  0  0  0  0
  -26.0628  -16.1241   22.5087 N   0  0  0  0  0  0  0  0  0  0  0  0
  -30.8209  -25.6088   19.2686 N   0  0  0  0  0  0  0  0  0  0  0  0
  -27.0239  -16.6925   23.2566 N   0  0  0  0  0  0  0  0  0  0  0  0
  -30.4643  -23.3303   18.7407 N   0  0  0  0  0  0  0  0  0  0  0  0
  -23.0069  -26.1639   19.3300 N   0  0  0  0  0  0  0  0  0  0  0  0
  -28.1608  -19.4820   20.9065 N   0  0  0  0  0  0  0  0  0  0  0  0
  -29.7750  -20.7479   19.6777 N   0  0  0  0  0  0  0  0  0  0  0  0
  -28.3250  -16.3856   25.2120 N   0  0  0  0  0  0  0  0  0  0  0  0
  -25.7329  -12.6892   25.0945 N   0  0  0  0  0  0  0  0  0  0  0  0
  -20.9092  -27.5430   21.5811 N   0  0  0  0  0  0  0  0  0  0  0  0
  -22.6385  -23.5645   17.1933 N   0  0  0  0  0  0  0  0  0  0  0  0
  -24.5179  -23.7945   14.1138 N   0  3  0  0  0  0  0  0  0  0  0  0
  -27.3632  -13.7833   26.2794 O   0  0  0  0  0  0  0  0  0  0  0  0
  -23.1799  -27.2159   21.9802 O   0  0  0  0  0  0  0  0  0  0  0  0
  -20.9357  -25.4184   18.5615 O   0  0  0  0  0  0  0  0  0  0  0  0
  -24.9351  -23.4953   16.8802 O   0  0  0  0  0  0  0  0  0  0  0  0
  -30.1987  -18.5746   20.3214 O   0  0  0  0  0  0  0  0  0  0  0  0
  -21.9201  -11.4623   21.2225 O   0  0  0  0  0  0  0  0  0  0  0  0
  -28.8868  -27.7041   20.5173 O   0  0  0  0  0  0  0  0  0  1  0  0
  -23.1653   -6.0916   21.1301 F   0  0  0  0  0  0  0  0  0  0  0  0
  -21.9299  -10.0493   18.8464 F   0  0  0  0  0  0  0  0  0  0  0  0
  1  2  1  0  0  0  0
  1  5  2  0  0  0  0
  2  6  2  0  0  0  0
  3  8  2  0  0  0  0
  3 16  1  0  0  0  0
  4  9  1  0  0  0  0
  4 16  2  0  0  0  0
  5 18  1  0  0  0  0
  6 20  1  0  0  0  0
  7 10  2  0  0  0  0
  7 19  1  0  0  0  0
  8 22  1  0  0  0  0
  9 22  2  0  0  0  0
 10 23  1  0  0  0  0
 11 12  2  0  0  0  0
 11 24  1  0  0  0  0
 12 25  1  0  0  0  0
 13 21  1  0  0  0  0
 13 23  2  0  0  0  0
 14 25  2  0  0  0  0
 14 26  1  0  0  0  0
 15 28  1  0  0  0  0
 15 64  2  0  0  0  0
 16 27  1  0  0  0  0
 17 27  1  0  0  0  0
 17 31  2  0  0  0  0
 17 32  1  0  0  0  0
 18 20  2  0  0  0  0
 18 37  1  0  0  0  0
 19 21  2  0  0  0  0
 19 38  1  0  0  0  0
 20 50  1  0  0  0  0
 21 39  1  0  0  0  0
 22 82  1  0  0  0  0
 23 83  1  0  0  0  0
 24 26  2  0  0  0  0
 24 82  1  0  0  0  0
 25 84  1  0  0  0  0
 26 85  1  0  0  0  0
 27 65  2  0  0  0  0
 28 59  1  0  0  0  0
 28 66  2  0  0  0  0
 29 30  2  0  0  0  0
 29 53  1  0  0  0  0
 29 64  1  0  0  0  0
 30 66  1  0  0  0  0
 30 68  1  0  0  0  0
 31 67  1  0  0  0  0
 31 72  1  0  0  0  0
 32 73  1  0  0  0  0
 32 77  2  0  0  0  0
 33 51  1  0  0  0  0
 33 74  1  0  0  0  0
 33 78  2  0  0  0  0
 34 61  1  0  0  0  0
 34 69  1  0  0  0  0
 34 79  2  0  0  0  0
 35 62  1  0  0  0  0
 35 75  1  0  0  0  0
 35 80  2  0  0  0  0
 36 70  1  0  0  0  0
 36 71  1  0  0  0  0
 36 81  2  0  0  0  0
 37 40  1  0  0  0  0
 38 51  1  0  0  0  0
 39 69  1  0  0  0  0
 40 42  1  0  0  0  0
 41 43  1  0  0  0  0
 41 44  1  0  0  0  0
 42 50  1  0  0  0  0
 43 52  1  0  0  0  0
 44 70  1  0  0  0  0
 45 47  1  0  0  0  0
 45 68  1  0  0  0  0
 46 48  1  0  0  0  0
 46 68  1  0  0  0  0
 47 71  1  0  0  0  0
 48 71  1  0  0  0  0
 49 52  1  0  0  0  0
 49 70  1  0  0  0  0
 50 74  1  0  0  0  0
 51 69  1  0  0  0  0
 52 67  1  0  0  0  0
 54 62  1  0  0  0  0
 55 63  1  0  0  0  0
 56 63  1  0  0  0  0
 57 63  1  0  0  0  0
 58 76  1  0  0  0  0
 59 60  1  0  0  0  0
 60 83  1  0  0  0  0
 61 63  1  0  0  0  0
 61 75  1  0  0  0  0
 62 76  1  0  0  0  0
 65 67  1  0  0  0  0
M  CHG  1  76   1
M  ISO  4  36 100  60 101  71 100  83 101
M  END
> <Batch ID>
0181

> <Smiles>
CNC(C)C(=O)NC(C(=O)N1Cc2cc([101O:1][101CH2:1]Cc3cnc(C)c(N4CC[100N:0]([100C:0](=O)N5CCCC(n6nc(-c7ccc(Oc8ccc(F)cc8F)cc7)c(C(N)=O)c6N)C5)CC4)n3)ccc2CC1C(=O)NC1CCCc2ccccc21)C(C)(C)C

> <Shape>
0.247

> <Color>
0.084

> <Negative vol penalty>
0.000

$$$$

  -OEChem-04052323023D

 79 88  0     1  0  0  0  0  0999 V2000
  -30.3940  -30.6983   26.2626 C   0  0  0  0  0  0  0  0  0  0  0  0
  -30.6685  -29.5619   25.5085 C   0  0  0  0  0  0  0  0  0  0  0  0
  -23.3439   -9.8634   19.8188 C   0  0  0  0  0  0  0  0  0  0  0  0
  -23.7910   -9.8777   22.1930 C   0  0  0  0  0  0  0  0  0  0  0  0
  -29.0820  -31.1548   26.3810 C   0  0  0  0  0  0  0  0  0  0  0  0
  -29.6308  -28.8807   24.8732 C   0  0  0  0  0  0  0  0  0  0  0  0
  -29.8823  -25.9936   19.4781 C   0  0  0  0  0  0  0  0  0  0  0  0
  -22.6498   -8.6614   19.9567 C   0  0  0  0  0  0  0  0  0  0  0  0
  -23.0968   -8.6757   22.3310 C   0  0  0  0  0  0  0  0  0  0  0  0
  -30.0477  -24.6513   19.1394 C   0  0  0  0  0  0  0  0  0  0  0  0
  -19.8758   -7.6656   22.4901 C   0  0  0  0  0  0  0  0  0  0  0  0
  -18.9745   -7.5574   23.5491 C   0  0  0  0  0  0  0  0  0  0  0  0
  -27.6548  -24.4103   18.9512 C   0  0  0  0  0  0  0  0  0  0  0  0
  -20.2302   -5.6893   24.4269 C   0  0  0  0  0  0  0  0  0  0  0  0
  -28.7511  -19.7913   16.9092 C   0  0  0  0  0  0  0  0  0  0  0  0
  -23.9146  -10.4715   20.9370 C   0  0  0  0  0  0  0  0  0  0  0  0
  -24.1050  -13.0149   20.8867 C   0  0  0  0  0  0  0  0  0  0  0  0
  -28.0289  -30.4845   25.7388 C   0  0  0  0  0  0  0  0  0  0  0  0
  -28.5993  -26.5524   19.5667 C   0  0  0  0  0  0  0  0  0  0  0  0
  -28.3033  -29.3280   24.9841 C   0  0  0  0  0  0  0  0  0  0  0  0
  -27.4760  -25.7605   19.2887 C   0  0  0  0  0  0  0  0  0  0  0  0
  -22.5262   -8.0676   21.2128 C   0  0  0  0  0  0  0  0  0  0  0  0
  -28.9337  -23.8587   18.8787 C   0  0  0  0  0  0  0  0  0  0  0  0
  -20.9543   -6.7856   22.3994 C   0  0  0  0  0  0  0  0  0  0  0  0
  -19.1517   -6.5692   24.5175 C   0  0  0  0  0  0  0  0  0  0  0  0
  -21.1315   -5.7975   23.3678 C   0  0  0  0  0  0  0  0  0  0  0  0
  -24.6323  -11.7129   20.7950 C   0  0  0  0  0  0  0  0  0  0  0  0
  -28.2166  -20.3947   18.0242 C   0  0  0  0  0  0  0  0  0  0  0  0
  -25.1848  -13.8380   20.6793 C   0  0  0  0  0  0  0  0  0  0  0  0
  -28.3747  -18.2469   18.4428 C   0  0  0  0  0  0  0  0  0  0  0  0
  -22.7595  -13.4422   21.1370 C   0  0  0  0  0  0  0  0  0  0  0  0
  -26.8884  -27.8844   21.8910 C   0  0  0  0  0  0  0  0  0  0  0  0
  -24.8066  -28.4930   19.4790 C   0  0  0  0  0  0  0  0  0  0  0  0
  -23.6406  -27.6653   16.3803 C   0  0  0  0  0  0  0  0  0  0  0  0
  -29.7330  -15.0046   17.5769 C   0  0  0  0  0  0  0  0  0  0  0  0
  -26.6210  -30.9884   25.9347 C   0  0  0  0  0  0  0  0  0  0  0  0
  -28.4392  -28.0088   19.9072 C   0  0  0  0  0  0  0  0  0  0  0  0
  -26.0781  -26.3176   19.3504 C   0  0  0  0  0  0  0  0  0  0  0  0
  -28.4211  -16.8272   18.8404 C   0  0  0  0  0  0  0  0  0  0  0  0
  -25.6262  -30.4254   24.9229 C   0  0  0  0  0  0  0  0  0  0  0  0
  -30.1353  -12.8090   20.4759 C   0  0  0  0  0  0  0  0  0  0  0  0
  -25.8062  -28.9175   24.7796 C   0  0  0  0  0  0  0  0  0  0  0  0
  -28.6945  -12.4070   20.7984 C   0  0  0  0  0  0  0  0  0  0  0  0
  -30.3379  -13.0669   18.9841 C   0  0  0  0  0  0  0  0  0  0  0  0
  -27.9515  -13.6107   18.7119 C   0  0  0  0  0  0  0  0  0  0  0  0
  -29.2813  -17.2525   16.5855 C   0  0  0  0  0  0  0  0  0  0  0  0
  -27.2079  -28.5761   24.2597 C   0  0  1  0  0  0  0  0  0  0  0  0
  -27.0613  -28.3427   20.4706 C   0  0  1  0  0  0  0  0  0  0  0  0
  -27.6880  -13.4153   20.2111 C   0  0  1  0  0  0  0  0  0  0  0  0
  -21.9072  -28.3203   14.6881 C   0  0  0  0  0  0  0  0  0  0  0  0
  -22.6542  -27.1344   21.1616 C   0  0  0  0  0  0  0  0  0  0  0  0
  -21.2454  -26.9673   19.0986 C   0  0  0  0  0  0  0  0  0  0  0  0
  -21.9019  -29.2065   19.9806 C   0  0  0  0  0  0  0  0  0  0  0  0
  -25.6971  -28.3132   14.3530 C   0  0  0  0  0  0  0  0  0  0  0  0
  -27.8963  -21.7997   18.2951 C   0  0  0  0  0  0  0  0  0  1  0  0
  -23.6434  -27.7567   18.8594 C   0  0  1  0  0  0  0  0  0  0  0  0
  -23.3409  -28.5131   15.1572 C   0  0  2  0  0  0  0  0  0  0  0  0
  -22.3873  -27.7549   19.7757 C   0  0  0  0  0  0  0  0  0  0  0  0
  -25.9449  -11.7043   20.5484 N   0  0  0  0  0  0  0  0  0  0  0  0
  -28.8301  -18.4659   17.2134 N   0  0  0  0  0  0  0  0  0  0  0  0
  -26.2516  -13.0111   20.4833 N   0  0  0  0  0  0  0  0  0  0  0  0
  -27.9916  -19.4049   18.9676 N   0  3  0  0  0  0  0  0  0  0  0  0
  -25.9732  -27.7454   19.6938 N   0  0  0  0  0  0  0  0  0  0  0  0
  -29.0699  -16.2296   17.6414 N   0  0  0  0  0  0  0  0  0  0  0  0
  -29.3421  -14.0130   18.4818 N   0  0  0  0  0  0  0  0  0  0  0  0
  -25.3163  -15.1812   20.6471 N   0  0  0  0  0  0  0  0  0  0  0  0
  -21.7728  -12.4653   21.3279 N   0  0  0  0  0  0  0  0  0  0  0  0
  -27.2893  -28.8115   22.8340 N   0  0  0  0  0  0  0  0  0  0  0  0
  -23.4272  -28.3631   17.5502 N   0  0  0  0  0  0  0  0  0  0  0  0
  -24.2547  -28.1488   14.0378 N   0  3  0  0  0  0  0  0  0  0  0  0
  -22.4384  -14.6543   21.1736 O   0  0  0  0  0  0  0  0  0  0  0  0
  -26.4242  -26.7726   22.1150 O   0  0  0  0  0  0  0  0  0  0  0  0
  -24.6870  -29.6892   19.7554 O   0  0  0  0  0  0  0  0  0  0  0  0
  -24.0220  -26.4993   16.3053 O   0  0  0  0  0  0  0  0  0  0  0  0
  -30.6663  -14.8222   16.7845 O   0  0  0  0  0  0  0  0  0  0  0  0
  -21.8487   -6.8949   21.3478 O   0  0  0  0  0  0  0  0  0  0  0  0
  -29.0929  -22.5427   18.5472 O   0  0  0  0  0  0  0  0  0  1  0  0
  -18.2870   -6.4664   25.5353 F   0  0  0  0  0  0  0  0  0  0  0  0
  -22.1664   -4.9500   23.2866 F   0  0  0  0  0  0  0  0  0  0  0  0
  1  2  1  0  0  0  0
  1  5  2  0  0  0  0
  2  6  2  0  0  0  0
  3  8  2  0  0  0  0
  3 16  1  0  0  0  0
  4  9  1  0  0  0  0
  4 16  2  0  0  0  0
  5 18  1  0  0  0  0
  6 20  1  0  0  0  0
  7 10  2  0  0  0  0
  7 19  1  0  0  0  0
  8 22  1  0  0  0  0
  9 22  2  0  0  0  0
 10 23  1  0  0  0  0
 11 12  2  0  0  0  0
 11 24  1  0  0  0  0
 12 25  1  0  0  0  0
 13 21  1  0  0  0  0
 13 23  2  0  0  0  0
 14 25  2  0  0  0  0
 14 26  1  0  0  0  0
 15 28  2  0  0  0  0
 15 60  1  0  0  0  0
 16 27  1  0  0  0  0
 17 27  1  0  0  0  0
 17 29  2  0  0  0  0
 17 31  1  0  0  0  0
 18 20  2  0  0  0  0
 18 36  1  0  0  0  0
 19 21  2  0  0  0  0
 19 37  1  0  0  0  0
 20 47  1  0  0  0  0
 21 38  1  0  0  0  0
 22 76  1  0  0  0  0
 23 77  1  0  0  0  0
 24 26  2  0  0  0  0
 24 76  1  0  0  0  0
 25 78  1  0  0  0  0
 26 79  1  0  0  0  0
 27 59  2  0  0  0  0
 28 55  1  0  0  0  0
 28 62  1  0  0  0  0
 29 61  1  0  0  0  0
 29 66  1  0  0  0  0
 30 39  1  0  0  0  0
 30 60  1  0  0  0  0
 30 62  2  0  0  0  0
 31 67  1  0  0  0  0
 31 71  2  0  0  0  0
 32 48  1  0  0  0  0
 32 68  1  0  0  0  0
 32 72  2  0  0  0  0
 33 56  1  0  0  0  0
 33 63  1  0  0  0  0
 33 73  2  0  0  0  0
 34 57  1  0  0  0  0
 34 69  1  0  0  0  0
 34 74  2  0  0  0  0
 35 64  1  0  0  0  0
 35 65  1  0  0  0  0
 35 75  2  0  0  0  0
 36 40  1  0  0  0  0
 37 48  1  0  0  0  0
 38 63  1  0  0  0  0
 39 64  1  0  0  0  0
 40 42  1  0  0  0  0
 41 43  1  0  0  0  0
 41 44  1  0  0  0  0
 42 47  1  0  0  0  0
 43 49  1  0  0  0  0
 44 65  1  0  0  0  0
 45 49  1  0  0  0  0
 45 65  1  0  0  0  0
 46 60  1  0  0  0  0
 46 64  1  0  0  0  0
 47 68  1  0  0  0  0
 48 63  1  0  0  0  0
 49 61  1  0  0  0  0
 50 57  1  0  0  0  0
 51 58  1  0  0  0  0
 52 58  1  0  0  0  0
 53 58  1  0  0  0  0
 54 70  1  0  0  0  0
 55 77  1  0  0  0  0
 56 58  1  0  0  0  0
 56 69  1  0  0  0  0
 57 70  1  0  0  0  0
 59 61  1  0  0  0  0
M  CHG  2  62   1  70   1
M  ISO  4  35 100  55 101  64 100  77 101
M  END
> <Batch ID>
0181

> <Smiles>
CNC(C)C(=O)NC(C(=O)N1Cc2cc([101O:1][101CH2:1]c3cn4c(n3)C[100N:0]([100C:0](=O)N3CCCC(n5nc(-c6ccc(Oc7ccc(F)cc7F)cc6)c(C(N)=O)c5N)C3)C4)ccc2CC1C(=O)NC1CCCc2ccccc21)C(C)(C)C

> <Shape>
0.288

> <Color>
0.184

> <Negative vol penalty>
0.000

$$$$

  -OEChem-04052323023D

 82 91  0     1  0  0  0  0  0999 V2000
  -29.3422  -32.5498   24.3499 C   0  0  0  0  0  0  0  0  0  0  0  0
  -29.7627  -31.2282   24.4595 C   0  0  0  0  0  0  0  0  0  0  0  0
  -23.2572   -9.7315   20.2962 C   0  0  0  0  0  0  0  0  0  0  0  0
  -23.9333  -10.1211   22.5827 C   0  0  0  0  0  0  0  0  0  0  0  0
  -28.4505  -32.9151   23.3423 C   0  0  0  0  0  0  0  0  0  0  0  0
  -29.2908  -30.2709   23.5621 C   0  0  0  0  0  0  0  0  0  0  0  0
  -32.3670  -25.4538   21.3625 C   0  0  0  0  0  0  0  0  0  0  0  0
  -22.5793   -8.5788   20.6930 C   0  0  0  0  0  0  0  0  0  0  0  0
  -23.2554   -8.9685   22.9796 C   0  0  0  0  0  0  0  0  0  0  0  0
  -32.3834  -24.1071   21.7230 C   0  0  0  0  0  0  0  0  0  0  0  0
  -19.6377   -7.8024   22.1685 C   0  0  0  0  0  0  0  0  0  0  0  0
  -18.3544   -7.5981   21.6616 C   0  0  0  0  0  0  0  0  0  0  0  0
  -30.7659  -23.6318   19.9976 C   0  0  0  0  0  0  0  0  0  0  0  0
  -19.0825   -5.5268   20.6532 C   0  0  0  0  0  0  0  0  0  0  0  0
  -32.0004  -18.8595   20.9327 C   0  0  0  0  0  0  0  0  0  0  0  0
  -23.9342  -10.5026   21.2411 C   0  0  0  0  0  0  0  0  0  0  0  0
  -24.1197  -13.0012   20.7614 C   0  0  0  0  0  0  0  0  0  0  0  0
  -27.9750  -31.9637   22.4261 C   0  0  0  0  0  0  0  0  0  0  0  0
  -31.5405  -25.9022   20.3223 C   0  0  0  0  0  0  0  0  0  0  0  0
  -28.3908  -30.6236   22.5421 C   0  0  0  0  0  0  0  0  0  0  0  0
  -30.7429  -24.9843   19.6241 C   0  0  0  0  0  0  0  0  0  0  0  0
  -22.5784   -8.1973   22.0347 C   0  0  0  0  0  0  0  0  0  0  0  0
  -31.5806  -23.1964   21.0424 C   0  0  0  0  0  0  0  0  0  0  0  0
  -20.6435   -6.8689   21.9177 C   0  0  0  0  0  0  0  0  0  0  0  0
  -18.0768   -6.4603   20.9039 C   0  0  0  0  0  0  0  0  0  0  0  0
  -20.3658   -5.7311   21.1601 C   0  0  0  0  0  0  0  0  0  0  0  0
  -24.6351  -11.6931   20.8317 C   0  0  0  0  0  0  0  0  0  0  0  0
  -30.0221  -17.8951   22.4439 C   0  0  0  0  0  0  0  0  0  0  0  0
  -30.8805  -19.6144   21.2041 C   0  0  0  0  0  0  0  0  0  0  0  0
  -31.1417  -17.1401   22.1719 C   0  0  0  0  0  0  0  0  0  0  0  0
  -25.1745  -13.7626   20.3206 C   0  0  0  0  0  0  0  0  0  0  0  0
  -22.8051  -13.4849   21.0672 C   0  0  0  0  0  0  0  0  0  0  0  0
  -29.1084  -27.9377   20.1082 C   0  0  0  0  0  0  0  0  0  0  0  0
  -29.4006  -27.3465   16.9322 C   0  0  0  0  0  0  0  0  0  0  0  0
  -30.4468  -25.2367   14.4621 C   0  0  0  0  0  0  0  0  0  0  0  0
  -30.9263  -14.1597   20.8437 C   0  0  0  0  0  0  0  0  0  0  0  0
  -26.9755  -32.3967   21.3829 C   0  0  0  0  0  0  0  0  0  0  0  0
  -31.5543  -27.3536   19.9279 C   0  0  0  0  0  0  0  0  0  0  0  0
  -29.8529  -25.4114   18.4865 C   0  0  0  0  0  0  0  0  0  0  0  0
  -26.8138  -31.3958   20.2418 C   0  0  0  0  0  0  0  0  0  0  0  0
  -29.3939  -12.8155   17.9244 C   0  0  0  0  0  0  0  0  0  0  0  0
  -26.6698  -29.9797   20.7902 C   0  0  0  0  0  0  0  0  0  0  0  0
  -27.8488  -16.5128   22.6435 C   0  0  0  0  0  0  0  0  0  0  0  0
  -27.5265  -17.8962   23.1152 C   0  0  0  0  0  0  0  0  0  0  0  0
  -27.9627  -12.5107   18.3700 C   0  0  0  0  0  0  0  0  0  0  0  0
  -30.4017  -12.5453   19.0395 C   0  0  0  0  0  0  0  0  0  0  0  0
  -28.6787  -12.9194   20.7614 C   0  0  0  0  0  0  0  0  0  0  0  0
  -27.9205  -29.5612   21.5725 C   0  0  1  0  0  0  0  0  0  0  0  0
  -28.9199  -17.3517   23.2894 C   0  0  0  0  0  0  0  0  0  0  0  0
  -30.2895  -27.7850   19.1920 C   0  0  1  0  0  0  0  0  0  0  0  0
  -27.6207  -13.2298   19.6888 C   0  0  2  0  0  0  0  0  0  0  0  0
  -30.5150  -25.0089   11.9639 C   0  0  0  0  0  0  0  0  0  0  0  0
  -26.4323  -26.6400   16.9179 C   0  0  0  0  0  0  0  0  0  0  0  0
  -26.7768  -25.5371   14.6968 C   0  0  0  0  0  0  0  0  0  0  0  0
  -27.1944  -27.9833   14.9509 C   0  0  0  0  0  0  0  0  0  0  0  0
  -33.4049  -25.1487   14.4348 C   0  0  0  0  0  0  0  0  0  0  0  0
  -31.2991  -15.7572   22.7060 C   0  0  0  0  0  0  0  0  0  0  0  0
  -30.7467  -21.0035   20.6529 C   0  0  0  0  0  0  0  0  0  1  0  0
  -28.8164  -26.3362   15.9746 C   0  0  1  0  0  0  0  0  0  0  0  0
  -31.2580  -25.4837   13.2030 C   0  0  2  0  0  0  0  0  0  0  0  0
  -27.3202  -26.6161   15.6577 C   0  0  0  0  0  0  0  0  0  0  0  0
  -32.1510  -17.6088   21.4117 N   0  0  0  0  0  0  0  0  0  0  0  0
  -25.9175  -11.6238   20.4648 N   0  0  0  0  0  0  0  0  0  0  0  0
  -29.8713  -19.1457   21.9646 N   0  0  0  0  0  0  0  0  0  0  0  0
  -26.2168  -12.8979   20.1597 N   0  0  0  0  0  0  0  0  0  0  0  0
  -29.8968  -26.8422   18.1427 N   0  0  0  0  0  0  0  0  0  0  0  0
  -30.0206  -13.2575   20.2616 N   0  0  0  0  0  0  0  0  0  0  0  0
  -25.3027  -15.0807   20.0588 N   0  0  0  0  0  0  0  0  0  0  0  0
  -21.8414  -12.5676   21.5077 N   0  0  0  0  0  0  0  0  0  0  0  0
  -28.9865  -29.1970   20.6639 N   0  0  0  0  0  0  0  0  0  0  0  0
  -29.6853  -26.3346   14.8026 N   0  0  0  0  0  0  0  0  0  0  0  0
  -30.4835  -14.7970   21.9963 N   0  0  0  0  0  0  0  0  0  0  0  0
  -32.5599  -24.7621   13.2757 N   0  3  0  0  0  0  0  0  0  0  0  0
  -22.4896  -14.6920   20.9375 O   0  0  0  0  0  0  0  0  0  0  0  0
  -28.3621  -26.9840   20.2959 O   0  0  0  0  0  0  0  0  0  0  0  0
  -29.4225  -28.5383   16.6147 O   0  0  0  0  0  0  0  0  0  0  0  0
  -30.4820  -24.1746   15.0795 O   0  0  0  0  0  0  0  0  0  0  0  0
  -32.0443  -14.3850   20.3682 O   0  0  0  0  0  0  0  0  0  0  0  0
  -21.9168   -7.0727   22.4223 O   0  0  0  0  0  0  0  0  0  0  0  0
  -31.5942  -21.8815   21.3927 O   0  0  0  0  0  0  0  0  0  1  0  0
  -16.8440   -6.2636   20.4185 F   0  0  0  0  0  0  0  0  0  0  0  0
  -21.3276   -4.8303   20.9168 F   0  0  0  0  0  0  0  0  0  0  0  0
  1  2  1  0  0  0  0
  1  5  2  0  0  0  0
  2  6  2  0  0  0  0
  3  8  2  0  0  0  0
  3 16  1  0  0  0  0
  4  9  1  0  0  0  0
  4 16  2  0  0  0  0
  5 18  1  0  0  0  0
  6 20  1  0  0  0  0
  7 10  2  0  0  0  0
  7 19  1  0  0  0  0
  8 22  1  0  0  0  0
  9 22  2  0  0  0  0
 10 23  1  0  0  0  0
 11 12  2  0  0  0  0
 11 24  1  0  0  0  0
 12 25  1  0  0  0  0
 13 21  1  0  0  0  0
 13 23  2  0  0  0  0
 14 25  2  0  0  0  0
 14 26  1  0  0  0  0
 15 29  1  0  0  0  0
 15 62  2  0  0  0  0
 16 27  1  0  0  0  0
 17 27  1  0  0  0  0
 17 31  2  0  0  0  0
 17 32  1  0  0  0  0
 18 20  2  0  0  0  0
 18 37  1  0  0  0  0
 19 21  2  0  0  0  0
 19 38  1  0  0  0  0
 20 48  1  0  0  0  0
 21 39  1  0  0  0  0
 22 79  1  0  0  0  0
 23 80  1  0  0  0  0
 24 26  2  0  0  0  0
 24 79  1  0  0  0  0
 25 81  1  0  0  0  0
 26 82  1  0  0  0  0
 27 63  2  0  0  0  0
 28 30  2  0  0  0  0
 28 49  1  0  0  0  0
 28 64  1  0  0  0  0
 29 58  1  0  0  0  0
 29 64  2  0  0  0  0
 30 57  1  0  0  0  0
 30 62  1  0  0  0  0
 31 65  1  0  0  0  0
 31 68  1  0  0  0  0
 32 69  1  0  0  0  0
 32 74  2  0  0  0  0
 33 50  1  0  0  0  0
 33 70  1  0  0  0  0
 33 75  2  0  0  0  0
 34 59  1  0  0  0  0
 34 66  1  0  0  0  0
 34 76  2  0  0  0  0
 35 60  1  0  0  0  0
 35 71  1  0  0  0  0
 35 77  2  0  0  0  0
 36 67  1  0  0  0  0
 36 72  1  0  0  0  0
 36 78  2  0  0  0  0
 37 40  1  0  0  0  0
 38 50  1  0  0  0  0
 39 66  1  0  0  0  0
 40 42  1  0  0  0  0
 41 45  1  0  0  0  0
 41 46  1  0  0  0  0
 42 48  1  0  0  0  0
 43 44  1  0  0  0  0
 43 49  1  0  0  0  0
 44 49  1  0  0  0  0
 45 51  1  0  0  0  0
 46 67  1  0  0  0  0
 47 51  1  0  0  0  0
 47 67  1  0  0  0  0
 48 70  1  0  0  0  0
 50 66  1  0  0  0  0
 51 65  1  0  0  0  0
 52 60  1  0  0  0  0
 53 61  1  0  0  0  0
 54 61  1  0  0  0  0
 55 61  1  0  0  0  0
 56 73  1  0  0  0  0
 57 72  1  0  0  0  0
 58 80  1  0  0  0  0
 59 61  1  0  0  0  0
 59 71  1  0  0  0  0
 60 73  1  0  0  0  0
 63 65  1  0  0  0  0
M  CHG  1  73   1
M  ISO  4  36 100  58 101  72 100  80 101
M  END
> <Batch ID>
0181

> <Smiles>
CNC(C)C(=O)NC(C(=O)N1Cc2cc([101O:1][101CH2:1]c3cnc(C[100NH:0][100C:0](=O)N4CCCC(n5nc(-c6ccc(Oc7ccc(F)cc7F)cc6)c(C(N)=O)c5N)C4)c(C4CC4)n3)ccc2CC1C(=O)NC1CCCc2ccccc21)C(C)(C)C

> <Shape>
0.257

> <Color>
0.192

> <Negative vol penalty>
0.000

$$$$

  -OEChem-04052323023D

 83 92  0     1  0  0  0  0  0999 V2000
  -22.2864   -8.7260   21.9066 C   0  0  0  0  0  0  0  0  0  0  0  0
  -23.5818   -9.1777   22.1376 C   0  0  0  0  0  0  0  0  0  0  0  0
  -22.3077  -27.9192   20.9159 C   0  0  0  0  0  0  0  0  0  0  0  0
  -23.3706  -26.7990   22.7741 C   0  0  0  0  0  0  0  0  0  0  0  0
  -21.4409   -9.4407   21.0591 C   0  0  0  0  0  0  0  0  0  0  0  0
  -24.0328  -10.3439   21.5204 C   0  0  0  0  0  0  0  0  0  0  0  0
  -28.3865  -15.9232   22.6308 C   0  0  0  0  0  0  0  0  0  0  0  0
  -21.0658  -27.7609   21.5309 C   0  0  0  0  0  0  0  0  0  0  0  0
  -22.1286  -26.6408   23.3890 C   0  0  0  0  0  0  0  0  0  0  0  0
  -29.4411  -16.6040   22.0240 C   0  0  0  0  0  0  0  0  0  0  0  0
  -19.3077  -29.2408   24.0112 C   0  0  0  0  0  0  0  0  0  0  0  0
  -18.4495  -30.3402   24.0312 C   0  0  0  0  0  0  0  0  0  0  0  0
  -27.8662  -17.7995   20.6421 C   0  0  0  0  0  0  0  0  0  0  0  0
  -16.7992  -29.0744   22.8017 C   0  0  0  0  0  0  0  0  0  0  0  0
  -23.4601  -27.4382   21.5375 C   0  0  0  0  0  0  0  0  0  0  0  0
  -25.6321  -28.6830   21.0468 C   0  0  0  0  0  0  0  0  0  0  0  0
  -21.8786  -10.6215   20.4388 C   0  0  0  0  0  0  0  0  0  0  0  0
  -27.0624  -16.1680   22.2396 C   0  0  0  0  0  0  0  0  0  0  0  0
  -23.1928  -11.0744   20.6628 C   0  0  0  0  0  0  0  0  0  0  0  0
  -26.7964  -17.1224   21.2473 C   0  0  0  0  0  0  0  0  0  0  0  0
  -20.9762  -27.1217   22.7674 C   0  0  0  0  0  0  0  0  0  0  0  0
  -29.1812  -17.5402   21.0275 C   0  0  0  0  0  0  0  0  0  0  0  0
  -18.9117  -28.0582   23.3863 C   0  0  0  0  0  0  0  0  0  0  0  0
  -17.1953  -30.2570   23.4266 C   0  0  0  0  0  0  0  0  0  0  0  0
  -17.6575  -27.9750   22.7816 C   0  0  0  0  0  0  0  0  0  0  0  0
  -24.7433  -27.6008   20.9025 C   0  0  0  0  0  0  0  0  0  0  0  0
  -32.9000  -20.5612   18.7948 C   0  0  0  0  0  0  0  0  0  0  0  0
  -34.2469  -20.2730   18.7952 C   0  0  0  0  0  0  0  0  0  0  0  0
  -33.8580  -18.4575   20.1303 C   0  0  0  0  0  0  0  0  0  0  0  0
  -32.5110  -18.7463   20.1305 C   0  0  0  0  0  0  0  0  0  0  0  0
  -26.6986  -28.3608   20.2436 C   0  0  0  0  0  0  0  0  0  0  0  0
  -25.5050  -29.8730   21.8363 C   0  0  0  0  0  0  0  0  0  0  0  0
  -24.7431  -14.4158   20.9533 C   0  0  0  0  0  0  0  0  0  0  0  0
  -22.9774  -17.0908   21.4527 C   0  0  0  0  0  0  0  0  0  0  0  0
  -22.9039  -20.4759   21.8797 C   0  0  0  0  0  0  0  0  0  0  0  0
  -30.4255  -24.6436   18.6443 C   0  0  0  0  0  0  0  0  0  0  0  0
  -20.9441  -11.3344   19.4937 C   0  0  0  0  0  0  0  0  0  0  0  0
  -25.9342  -15.4447   22.9227 C   0  0  0  0  0  0  0  0  0  0  0  0
  -25.3913  -17.4365   20.8054 C   0  0  0  0  0  0  0  0  0  0  0  0
  -21.3752  -12.7633   19.1733 C   0  0  0  0  0  0  0  0  0  0  0  0
  -27.2629  -24.7592   16.7736 C   0  0  0  0  0  0  0  0  0  0  0  0
  -22.8628  -12.8100   18.8395 C   0  0  0  0  0  0  0  0  0  0  0  0
  -26.3799  -25.5405   17.7402 C   0  0  0  0  0  0  0  0  0  0  0  0
  -28.2887  -23.8855   17.4960 C   0  0  0  0  0  0  0  0  0  0  0  0
  -30.7397  -22.0919   18.2714 C   0  0  0  0  0  0  0  0  0  0  0  0
  -32.5239  -23.2183   18.5198 C   0  0  0  0  0  0  0  0  0  0  0  0
  -28.2233  -25.4209   19.4507 C   0  0  0  0  0  0  0  0  0  0  0  0
  -23.7104  -12.3484   20.0311 C   0  0  1  0  0  0  0  0  0  0  0  0
  -32.2363  -21.7833   18.0323 C   0  0  0  0  0  0  0  0  0  0  0  0
  -24.6595  -15.3999   22.0857 C   0  0  1  0  0  0  0  0  0  0  0  0
  -27.2432  -26.3484   18.7198 C   0  0  2  0  0  0  0  0  0  0  0  0
  -35.2148  -21.1251   18.0498 C   0  0  0  0  0  0  0  0  0  0  0  0
  -34.4019  -17.2870   20.8761 C   0  0  0  0  0  0  0  0  0  0  0  0
  -21.3108  -22.3833   22.2278 C   0  0  0  0  0  0  0  0  0  0  0  0
  -22.2035  -16.9794   18.5033 C   0  0  0  0  0  0  0  0  0  0  0  0
  -21.4314  -19.3538   18.6881 C   0  0  0  0  0  0  0  0  0  0  0  0
  -20.3322  -17.5771   20.0510 C   0  0  0  0  0  0  0  0  0  0  0  0
  -24.1135  -21.1615   24.4923 C   0  0  0  0  0  0  0  0  0  0  0  0
  -31.5281  -17.8952   20.8793 C   0  0  0  0  0  0  0  0  0  1  0  0
  -22.6687  -18.3329   20.6522 C   0  0  1  0  0  0  0  0  0  0  0  0
  -22.1965  -21.3471   22.9020 C   0  0  2  0  0  0  0  0  0  0  0  0
  -21.6856  -18.0537   19.4804 C   0  0  0  0  0  0  0  0  0  0  0  0
  -25.2050  -26.6615   20.0728 N   0  0  0  0  0  0  0  0  0  0  0  0
  -32.0078  -19.8031   19.4624 N   0  0  0  0  0  0  0  0  0  0  0  0
  -34.7501  -19.2159   19.4630 N   0  0  0  0  0  0  0  0  0  0  0  0
  -26.3955  -27.1524   19.6884 N   0  0  0  0  0  0  0  0  0  0  0  0
  -24.3227  -16.6985   21.4989 N   0  0  0  0  0  0  0  0  0  0  0  0
  -29.0325  -24.6317   18.5161 N   0  0  0  0  0  0  0  0  0  0  0  0
  -31.1114  -23.5016   18.2822 N   0  0  0  0  0  0  0  0  0  0  0  0
  -27.8567  -28.9960   19.9650 N   0  0  0  0  0  0  0  0  0  0  0  0
  -24.3445  -30.0454   22.6030 N   0  0  0  0  0  0  0  0  0  0  0  0
  -23.8078  -13.4008   21.0198 N   0  0  0  0  0  0  0  0  0  0  0  0
  -22.1921  -19.3266   21.6081 N   0  0  0  0  0  0  0  0  0  0  0  0
  -23.1914  -22.0605   23.7517 N   0  3  0  0  0  0  0  0  0  0  0  0
  -26.3869  -30.7650   21.8484 O   0  0  0  0  0  0  0  0  0  0  0  0
  -25.5922  -14.5672   20.0827 O   0  0  0  0  0  0  0  0  0  0  0  0
  -22.0597  -16.4947   22.0220 O   0  0  0  0  0  0  0  0  0  0  0  0
  -23.9785  -20.7858   21.3701 O   0  0  0  0  0  0  0  0  0  0  0  0
  -31.0353  -25.6213   19.0959 O   0  0  0  0  0  0  0  0  0  0  0  0
  -19.7645  -26.9673   23.3679 O   0  0  0  0  0  0  0  0  0  0  0  0
  -30.2087  -18.2056   20.4330 O   0  0  0  0  0  0  0  0  0  1  0  0
  -16.3706  -31.3123   23.4473 F   0  0  0  0  0  0  0  0  0  0  0  0
  -17.2710  -26.8412   22.1808 F   0  0  0  0  0  0  0  0  0  0  0  0
  1  2  1  0  0  0  0
  1  5  2  0  0  0  0
  2  6  2  0  0  0  0
  3  8  2  0  0  0  0
  3 15  1  0  0  0  0
  4  9  1  0  0  0  0
  4 15  2  0  0  0  0
  5 17  1  0  0  0  0
  6 19  1  0  0  0  0
  7 10  2  0  0  0  0
  7 18  1  0  0  0  0
  8 21  1  0  0  0  0
  9 21  2  0  0  0  0
 10 22  1  0  0  0  0
 11 12  2  0  0  0  0
 11 23  1  0  0  0  0
 12 24  1  0  0  0  0
 13 20  1  0  0  0  0
 13 22  2  0  0  0  0
 14 24  2  0  0  0  0
 14 25  1  0  0  0  0
 15 26  1  0  0  0  0
 16 26  1  0  0  0  0
 16 31  2  0  0  0  0
 16 32  1  0  0  0  0
 17 19  2  0  0  0  0
 17 37  1  0  0  0  0
 18 20  2  0  0  0  0
 18 38  1  0  0  0  0
 19 48  1  0  0  0  0
 20 39  1  0  0  0  0
 21 80  1  0  0  0  0
 22 81  1  0  0  0  0
 23 25  2  0  0  0  0
 23 80  1  0  0  0  0
 24 82  1  0  0  0  0
 25 83  1  0  0  0  0
 26 63  2  0  0  0  0
 27 28  1  0  0  0  0
 27 49  1  0  0  0  0
 27 64  2  0  0  0  0
 28 52  1  0  0  0  0
 28 65  2  0  0  0  0
 29 30  2  0  0  0  0
 29 53  1  0  0  0  0
 29 65  1  0  0  0  0
 30 59  1  0  0  0  0
 30 64  1  0  0  0  0
 31 66  1  0  0  0  0
 31 70  1  0  0  0  0
 32 71  1  0  0  0  0
 32 75  2  0  0  0  0
 33 50  1  0  0  0  0
 33 72  1  0  0  0  0
 33 76  2  0  0  0  0
 34 60  1  0  0  0  0
 34 67  1  0  0  0  0
 34 77  2  0  0  0  0
 35 61  1  0  0  0  0
 35 73  1  0  0  0  0
 35 78  2  0  0  0  0
 36 68  1  0  0  0  0
 36 69  1  0  0  0  0
 36 79  2  0  0  0  0
 37 40  1  0  0  0  0
 38 50  1  0  0  0  0
 39 67  1  0  0  0  0
 40 42  1  0  0  0  0
 41 43  1  0  0  0  0
 41 44  1  0  0  0  0
 42 48  1  0  0  0  0
 43 51  1  0  0  0  0
 44 68  1  0  0  0  0
 45 49  1  0  0  0  0
 45 69  1  0  0  0  0
 46 49  1  0  0  0  0
 46 69  1  0  0  0  0
 47 51  1  0  0  0  0
 47 68  1  0  0  0  0
 48 72  1  0  0  0  0
 50 67  1  0  0  0  0
 51 66  1  0  0  0  0
 54 61  1  0  0  0  0
 55 62  1  0  0  0  0
 56 62  1  0  0  0  0
 57 62  1  0  0  0  0
 58 74  1  0  0  0  0
 59 81  1  0  0  0  0
 60 62  1  0  0  0  0
 60 73  1  0  0  0  0
 61 74  1  0  0  0  0
 63 66  1  0  0  0  0
M  CHG  1  74   1
M  ISO  4  36 100  59 101  69 100  81 101
M  END
> <Batch ID>
0181

> <Smiles>
CNC(C)C(=O)NC(C(=O)N1Cc2cc([101O:1][101CH2:1]c3nc(C4C[100N:0]([100C:0](=O)N5CCCC(n6nc(-c7ccc(Oc8ccc(F)cc8F)cc7)c(C(N)=O)c6N)C5)C4)c(C)nc3C)ccc2CC1C(=O)NC1CCCc2ccccc21)C(C)(C)C

> <Shape>
0.237

> <Color>
0.077

> <Negative vol penalty>
0.000

$$$$

  -OEChem-04052323023D

 82 90  0     1  0  0  0  0  0999 V2000
  -23.9683  -29.2648   23.0102 C   0  0  0  0  0  0  0  0  0  0  0  0
  -24.2437  -27.9157   23.2030 C   0  0  0  0  0  0  0  0  0  0  0  0
  -21.3238  -23.6783   19.4857 C   0  0  0  0  0  0  0  0  0  0  0  0
  -23.2459  -23.0373   20.8016 C   0  0  0  0  0  0  0  0  0  0  0  0
  -24.3525  -29.8882   21.8249 C   0  0  0  0  0  0  0  0  0  0  0  0
  -24.9137  -27.1925   22.2156 C   0  0  0  0  0  0  0  0  0  0  0  0
  -26.3011  -21.2678   21.8990 C   0  0  0  0  0  0  0  0  0  0  0  0
  -21.2763  -24.9029   20.1516 C   0  0  0  0  0  0  0  0  0  0  0  0
  -23.1984  -24.2620   21.4676 C   0  0  0  0  0  0  0  0  0  0  0  0
  -25.7287  -20.1026   21.3905 C   0  0  0  0  0  0  0  0  0  0  0  0
  -20.1909  -26.0782   23.1291 C   0  0  0  0  0  0  0  0  0  0  0  0
  -18.9455  -26.5298   23.5655 C   0  0  0  0  0  0  0  0  0  0  0  0
  -27.0517  -20.3345   19.3867 C   0  0  0  0  0  0  0  0  0  0  0  0
  -19.1812  -28.5050   22.1943 C   0  0  0  0  0  0  0  0  0  0  0  0
  -22.3086  -22.7454   19.8107 C   0  0  0  0  0  0  0  0  0  0  0  0
  -23.0656  -21.1799   17.9442 C   0  0  0  0  0  0  0  0  0  0  0  0
  -25.0165  -29.1685   20.8178 C   0  0  0  0  0  0  0  0  0  0  0  0
  -27.2466  -21.9822   21.1493 C   0  0  0  0  0  0  0  0  0  0  0  0
  -25.3309  -27.8096   21.0224 C   0  0  0  0  0  0  0  0  0  0  0  0
  -27.6364  -21.5070   19.8890 C   0  0  0  0  0  0  0  0  0  0  0  0
  -25.6118  -14.2839   20.4436 C   0  0  0  0  0  0  0  0  0  0  0  0
  -22.2135  -25.1948   21.1425 C   0  0  0  0  0  0  0  0  0  0  0  0
  -26.1019  -19.6374   20.1329 C   0  0  0  0  0  0  0  0  0  0  0  0
  -20.9316  -26.8400   22.2253 C   0  0  0  0  0  0  0  0  0  0  0  0
  -18.4406  -27.7431   23.0981 C   0  0  0  0  0  0  0  0  0  0  0  0
  -20.4268  -28.0534   21.7579 C   0  0  0  0  0  0  0  0  0  0  0  0
  -22.3579  -21.4799   19.1236 C   0  0  0  0  0  0  0  0  0  0  0  0
  -26.4888  -13.2209   20.5153 C   0  0  0  0  0  0  0  0  0  0  0  0
  -24.2728  -13.9596   20.5228 C   0  0  0  0  0  0  0  0  0  0  0  0
  -22.7889  -19.8560   17.7050 C   0  0  0  0  0  0  0  0  0  0  0  0
  -24.7680  -11.7498   20.7196 C   0  0  0  0  0  0  0  0  0  0  0  0
  -23.8987  -22.0227   17.1371 C   0  0  0  0  0  0  0  0  0  0  0  0
  -27.3830  -24.9075   19.9133 C   0  0  0  0  0  0  0  0  0  0  0  0
  -30.4187  -24.0330   19.1770 C   0  0  0  0  0  0  0  0  0  0  0  0
  -32.0784  -21.0878   17.9168 C   0  0  0  0  0  0  0  0  0  0  0  0
  -21.9296  -14.8845   20.5167 C   0  0  0  0  0  0  0  0  0  0  0  0
  -25.4165  -29.8948   19.5578 C   0  0  0  0  0  0  0  0  0  0  0  0
  -27.8744  -23.2227   21.7232 C   0  0  0  0  0  0  0  0  0  0  0  0
  -28.6622  -22.2262   19.0528 C   0  0  0  0  0  0  0  0  0  0  0  0
  -25.7197  -28.9513   18.3984 C   0  0  0  0  0  0  0  0  0  0  0  0
  -19.2239  -16.7300   19.1201 C   0  0  0  0  0  0  0  0  0  0  0  0
  -26.6730  -27.8569   18.8546 C   0  0  0  0  0  0  0  0  0  0  0  0
  -19.8239  -18.1142   18.8626 C   0  0  0  0  0  0  0  0  0  0  0  0
  -19.7684  -16.1058   20.4036 C   0  0  0  0  0  0  0  0  0  0  0  0
  -21.8330  -17.4398   20.2394 C   0  0  0  0  0  0  0  0  0  0  0  0
  -26.0315  -26.9954   19.9497 C   0  0  1  0  0  0  0  0  0  0  0  0
  -28.4472  -24.1508   20.6565 C   0  0  1  0  0  0  0  0  0  0  0  0
  -21.3636  -18.0812   18.9234 C   0  0  2  0  0  0  0  0  0  0  0  0
  -27.9628  -13.4489   20.4405 C   0  0  0  0  0  0  0  0  0  0  0  0
  -24.2994  -10.3426   20.8730 C   0  0  0  0  0  0  0  0  0  0  0  0
  -34.4381  -20.2893   18.2197 C   0  0  0  0  0  0  0  0  0  0  0  0
  -30.9411  -25.4857   16.5452 C   0  0  0  0  0  0  0  0  0  0  0  0
  -32.4761  -23.6166   15.8986 C   0  0  0  0  0  0  0  0  0  0  0  0
  -32.9891  -25.0136   17.9005 C   0  0  0  0  0  0  0  0  0  0  0  0
  -31.1809  -18.4695   18.9648 C   0  0  0  0  0  0  0  0  0  0  0  0
  -26.0954  -15.7037   20.2887 C   0  0  0  0  0  0  0  0  0  0  0  0
  -25.9320  -16.2589   18.8721 C   0  0  0  0  0  0  0  0  0  0  0  0
  -26.3437  -17.7210   18.7455 C   0  0  0  0  0  0  0  0  0  1  0  0
  -31.0812  -23.3578   18.0005 C   0  0  1  0  0  0  0  0  0  0  0  0
  -32.9981  -20.1613   18.6916 C   0  0  2  0  0  0  0  0  0  0  0  0
  -31.8447  -24.3632   17.0930 C   0  0  0  0  0  0  0  0  0  0  0  0
  -21.6823  -20.4310   19.6004 N   0  0  0  0  0  0  0  0  0  0  0  0
  -26.1000  -11.9364   20.6538 N   0  0  0  0  0  0  0  0  0  0  0  0
  -23.8139  -12.6984   20.6614 N   0  0  0  0  0  0  0  0  0  0  0  0
  -21.9641  -19.4590   18.7161 N   0  0  0  0  0  0  0  0  0  0  0  0
  -29.2426  -23.4378   19.6549 N   0  0  0  0  0  0  0  0  0  0  0  0
  -21.2328  -16.1047   20.3886 N   0  0  0  0  0  0  0  0  0  0  0  0
  -23.1730  -19.0045   16.7305 N   0  0  0  0  0  0  0  0  0  0  0  0
  -24.0761  -23.3572   17.5267 N   0  0  0  0  0  0  0  0  0  0  0  0
  -23.3176  -15.0040   20.4556 N   0  0  0  0  0  0  0  0  0  0  0  0
  -27.0329  -26.1087   20.5000 N   0  0  0  0  0  0  0  0  0  0  0  0
  -31.9178  -22.2992   18.5555 N   0  0  0  0  0  0  0  0  0  0  0  0
  -32.5711  -18.7440   18.5186 N   0  3  0  0  0  0  0  0  0  0  0  0
  -24.4557  -21.6090   16.0920 O   0  0  0  0  0  0  0  0  0  0  0  0
  -26.9151  -24.4372   18.8829 O   0  0  0  0  0  0  0  0  0  0  0  0
  -30.9298  -25.0470   19.6588 O   0  0  0  0  0  0  0  0  0  0  0  0
  -31.5578  -20.7701   16.8498 O   0  0  0  0  0  0  0  0  0  0  0  0
  -21.3377  -13.8094   20.6421 O   0  0  0  0  0  0  0  0  0  0  0  0
  -22.1676  -26.3899   21.7924 O   0  0  0  0  0  0  0  0  0  0  0  0
  -25.5443  -18.5007   19.6340 O   0  0  0  0  0  0  0  0  0  1  0  0
  -17.2439  -28.1760   23.5161 F   0  0  0  0  0  0  0  0  0  0  0  0
  -21.1332  -28.7890   20.8887 F   0  0  0  0  0  0  0  0  0  0  0  0
  1  2  1  0  0  0  0
  1  5  2  0  0  0  0
  2  6  2  0  0  0  0
  3  8  2  0  0  0  0
  3 15  1  0  0  0  0
  4  9  1  0  0  0  0
  4 15  2  0  0  0  0
  5 17  1  0  0  0  0
  6 19  1  0  0  0  0
  7 10  2  0  0  0  0
  7 18  1  0  0  0  0
  8 22  1  0  0  0  0
  9 22  2  0  0  0  0
 10 23  1  0  0  0  0
 11 12  2  0  0  0  0
 11 24  1  0  0  0  0
 12 25  1  0  0  0  0
 13 20  1  0  0  0  0
 13 23  2  0  0  0  0
 14 25  2  0  0  0  0
 14 26  1  0  0  0  0
 15 27  1  0  0  0  0
 16 27  1  0  0  0  0
 16 30  2  0  0  0  0
 16 32  1  0  0  0  0
 17 19  2  0  0  0  0
 17 37  1  0  0  0  0
 18 20  2  0  0  0  0
 18 38  1  0  0  0  0
 19 46  1  0  0  0  0
 20 39  1  0  0  0  0
 21 28  1  0  0  0  0
 21 29  2  0  0  0  0
 21 56  1  0  0  0  0
 22 79  1  0  0  0  0
 23 80  1  0  0  0  0
 24 26  2  0  0  0  0
 24 79  1  0  0  0  0
 25 81  1  0  0  0  0
 26 82  1  0  0  0  0
 27 62  2  0  0  0  0
 28 49  1  0  0  0  0
 28 63  2  0  0  0  0
 29 64  1  0  0  0  0
 29 70  1  0  0  0  0
 30 65  1  0  0  0  0
 30 68  1  0  0  0  0
 31 50  1  0  0  0  0
 31 63  1  0  0  0  0
 31 64  2  0  0  0  0
 32 69  1  0  0  0  0
 32 74  2  0  0  0  0
 33 47  1  0  0  0  0
 33 71  1  0  0  0  0
 33 75  2  0  0  0  0
 34 59  1  0  0  0  0
 34 66  1  0  0  0  0
 34 76  2  0  0  0  0
 35 60  1  0  0  0  0
 35 72  1  0  0  0  0
 35 77  2  0  0  0  0
 36 67  1  0  0  0  0
 36 70  1  0  0  0  0
 36 78  2  0  0  0  0
 37 40  1  0  0  0  0
 38 47  1  0  0  0  0
 39 66  1  0  0  0  0
 40 42  1  0  0  0  0
 41 43  1  0  0  0  0
 41 44  1  0  0  0  0
 42 46  1  0  0  0  0
 43 48  1  0  0  0  0
 44 67  1  0  0  0  0
 45 48  1  0  0  0  0
 45 67  1  0  0  0  0
 46 71  1  0  0  0  0
 47 66  1  0  0  0  0
 48 65  1  0  0  0  0
 51 60  1  0  0  0  0
 52 61  1  0  0  0  0
 53 61  1  0  0  0  0
 54 61  1  0  0  0  0
 55 73  1  0  0  0  0
 56 57  1  0  0  0  0
 57 58  1  0  0  0  0
 58 80  1  0  0  0  0
 59 61  1  0  0  0  0
 59 72  1  0  0  0  0
 60 73  1  0  0  0  0
 62 65  1  0  0  0  0
M  CHG  1  73   1
M  ISO  4  36 100  58 101  70 100  80 101
M  END
> <Batch ID>
0181

> <Smiles>
CNC(C)C(=O)NC(C(=O)N1Cc2cc([101O:1][101CH2:1]CCc3c(C)nc(C)nc3[100NH:0][100C:0](=O)N3CCCC(n4nc(-c5ccc(Oc6ccc(F)cc6F)cc5)c(C(N)=O)c4N)C3)ccc2CC1C(=O)NC1CCCc2ccccc21)C(C)(C)C

> <Shape>
0.197

> <Color>
0.086

> <Negative vol penalty>
0.000

$$$$

  -OEChem-04052323023D

 85 94  0     1  0  0  0  0  0999 V2000
  -17.4893  -30.1078   23.6421 C   0  0  0  0  0  0  0  0  0  0  0  0
  -18.8693  -30.2693   23.7123 C   0  0  0  0  0  0  0  0  0  0  0  0
  -23.6117  -10.3937   22.1713 C   0  0  0  0  0  0  0  0  0  0  0  0
  -22.5802  -11.1153   20.1092 C   0  0  0  0  0  0  0  0  0  0  0  0
  -16.9517  -28.9077   23.1788 C   0  0  0  0  0  0  0  0  0  0  0  0
  -19.7126  -29.2302   23.3202 C   0  0  0  0  0  0  0  0  0  0  0  0
  -25.1669  -29.7488   20.5839 C   0  0  0  0  0  0  0  0  0  0  0  0
  -22.5757   -9.4811   22.3701 C   0  0  0  0  0  0  0  0  0  0  0  0
  -21.5443  -10.2026   20.3079 C   0  0  0  0  0  0  0  0  0  0  0  0
  -26.4709  -29.7000   21.0746 C   0  0  0  0  0  0  0  0  0  0  0  0
  -21.0425   -6.8833   19.9196 C   0  0  0  0  0  0  0  0  0  0  0  0
  -20.6407   -6.1135   18.8280 C   0  0  0  0  0  0  0  0  0  0  0  0
  -26.5996  -27.3648   20.4832 C   0  0  0  0  0  0  0  0  0  0  0  0
  -18.4150   -7.0383   18.9950 C   0  0  0  0  0  0  0  0  0  0  0  0
  -23.6139  -11.2109   21.0408 C   0  0  0  0  0  0  0  0  0  0  0  0
  -25.8937  -11.9315   20.1516 C   0  0  0  0  0  0  0  0  0  0  0  0
  -17.7889  -27.8569   22.7716 C   0  0  0  0  0  0  0  0  0  0  0  0
  -24.5645  -28.6014   20.0481 C   0  0  0  0  0  0  0  0  0  0  0  0
  -19.1857  -28.0145   22.8522 C   0  0  0  0  0  0  0  0  0  0  0  0
  -25.2887  -27.4024   19.9839 C   0  0  0  0  0  0  0  0  0  0  0  0
  -21.5421   -9.3855   21.4384 C   0  0  0  0  0  0  0  0  0  0  0  0
  -27.1865  -28.5072   21.0270 C   0  0  0  0  0  0  0  0  0  0  0  0
  -20.1305   -7.7306   20.5489 C   0  0  0  0  0  0  0  0  0  0  0  0
  -19.3270   -6.1910   18.3657 C   0  0  0  0  0  0  0  0  0  0  0  0
  -18.8168   -7.8081   20.0866 C   0  0  0  0  0  0  0  0  0  0  0  0
  -24.6834  -12.1543   20.8352 C   0  0  0  0  0  0  0  0  0  0  0  0
  -26.5611  -13.1290   20.2359 C   0  0  0  0  0  0  0  0  0  0  0  0
  -30.7470  -26.1395   19.1270 C   0  0  0  0  0  0  0  0  0  0  0  0
  -29.5249  -26.3394   20.9986 C   0  0  0  0  0  0  0  0  0  0  0  0
  -29.9548  -24.3063   20.1511 C   0  0  0  0  0  0  0  0  0  0  0  0
  -26.3719  -10.7479   19.4988 C   0  0  0  0  0  0  0  0  0  0  0  0
  -22.0248  -26.8432   20.7979 C   0  0  0  0  0  0  0  0  0  0  0  0
  -22.7469  -25.3201   18.0264 C   0  0  0  0  0  0  0  0  0  0  0  0
  -25.1033  -24.5107   15.6942 C   0  0  0  0  0  0  0  0  0  0  0  0
  -26.4375  -18.6366   19.7142 C   0  0  0  0  0  0  0  0  0  0  0  0
  -17.1613  -26.5612   22.3224 C   0  0  0  0  0  0  0  0  0  0  0  0
  -23.1665  -28.6773   19.4984 C   0  0  0  0  0  0  0  0  0  0  0  0
  -24.6947  -26.1475   19.4000 C   0  0  0  0  0  0  0  0  0  0  0  0
  -18.1253  -25.6452   21.5728 C   0  0  0  0  0  0  0  0  0  0  0  0
  -25.6027  -17.2500   23.0043 C   0  0  0  0  0  0  0  0  0  0  0  0
  -19.4548  -25.5479   22.3143 C   0  0  0  0  0  0  0  0  0  0  0  0
  -25.3711  -15.7770   22.6641 C   0  0  0  0  0  0  0  0  0  0  0  0
  -25.1483  -18.1515   21.8627 C   0  0  0  0  0  0  0  0  0  0  0  0
  -27.8187  -20.7740   19.5105 C   0  0  0  0  0  0  0  0  0  0  0  0
  -27.5891  -20.1347   21.5263 C   0  0  0  0  0  0  0  0  0  0  0  0
  -25.5570  -16.3803   20.2024 C   0  0  0  0  0  0  0  0  0  0  0  0
  -20.1333  -26.9196   22.4126 C   0  0  1  0  0  0  0  0  0  0  0  0
  -22.4711  -27.3205   19.4449 C   0  0  1  0  0  0  0  0  0  0  0  0
  -28.7203  -20.8409   20.7552 C   0  0  0  0  0  0  0  0  0  0  0  0
  -26.0072  -15.4105   21.3105 C   0  0  2  0  0  0  0  0  0  0  0  0
  -31.5194  -26.7657   18.0165 C   0  0  0  0  0  0  0  0  0  0  0  0
  -29.8229  -27.4834   23.2225 C   0  0  0  0  0  0  0  0  0  0  0  0
  -25.4031  -23.2223   13.5617 C   0  0  0  0  0  0  0  0  0  0  0  0
  -22.7432  -22.7096   19.6059 C   0  0  0  0  0  0  0  0  0  0  0  0
  -23.9510  -21.6329   17.6954 C   0  0  0  0  0  0  0  0  0  0  0  0
  -21.6637  -22.5681   17.3545 C   0  0  0  0  0  0  0  0  0  0  0  0
  -25.8782  -26.9434   14.1974 C   0  0  0  0  0  0  0  0  0  0  0  0
  -29.1070  -22.2251   21.2355 C   0  0  0  0  0  0  0  0  0  0  0  0
  -28.8914  -27.1957   22.0415 C   0  0  1  0  0  0  0  0  0  1  0  0
  -23.6171  -24.1463   17.6469 C   0  0  1  0  0  0  0  0  0  0  0  0
  -25.0835  -24.5755   14.1777 C   0  0  2  0  0  0  0  0  0  0  0  0
  -23.0046  -22.7872   18.0885 C   0  0  0  0  0  0  0  0  0  0  0  0
  -24.5850  -13.3956   21.3182 N   0  0  0  0  0  0  0  0  0  0  0  0
  -30.2046  -26.9730   20.0294 N   0  0  0  0  0  0  0  0  0  0  0  0
  -30.6643  -24.7992   19.1232 N   0  0  0  0  0  0  0  0  0  0  0  0
  -29.3576  -25.0131   21.1242 N   0  0  0  0  0  0  0  0  0  0  0  0
  -25.7420  -13.9636   20.9377 N   0  0  0  0  0  0  0  0  0  0  0  0
  -23.3225  -26.2708   18.8812 N   0  0  0  0  0  0  0  0  0  0  0  0
  -25.7979  -17.7700   20.6047 N   0  0  0  0  0  0  0  0  0  0  0  0
  -27.0629  -19.7492   20.2256 N   0  0  0  0  0  0  0  0  0  0  0  0
  -27.7628  -13.5389   19.7774 N   0  0  0  0  0  0  0  0  0  0  0  0
  -25.5594   -9.6060   19.5065 N   0  0  0  0  0  0  0  0  0  0  0  0
  -29.8248  -22.9193   20.2145 N   0  0  0  0  0  0  0  0  0  0  0  0
  -20.7583  -27.2657   21.1540 N   0  0  0  0  0  0  0  0  0  0  0  0
  -23.8501  -24.2583   16.2111 N   0  0  0  0  0  0  0  0  0  0  0  0
  -26.0863  -25.5633   13.6883 N   0  3  0  0  0  0  0  0  0  0  0  0
  -27.4938  -10.6993   18.9397 O   0  0  0  0  0  0  0  0  0  0  0  0
  -22.7735  -26.1422   21.4685 O   0  0  0  0  0  0  0  0  0  0  0  0
  -21.6013  -25.3945   17.5751 O   0  0  0  0  0  0  0  0  0  0  0  0
  -26.1287  -24.6645   16.3542 O   0  0  0  0  0  0  0  0  0  0  0  0
  -26.4780  -18.4088   18.4978 O   0  0  0  0  0  0  0  0  0  0  0  0
  -20.5312   -8.4949   21.6320 O   0  0  0  0  0  0  0  0  0  0  0  0
  -28.4628  -28.4564   21.5072 O   0  0  0  0  0  0  0  0  0  1  0  0
  -18.9417   -5.4528   17.3165 F   0  0  0  0  0  0  0  0  0  0  0  0
  -17.9365   -8.6212   20.6864 F   0  0  0  0  0  0  0  0  0  0  0  0
  1  2  1  0  0  0  0
  1  5  2  0  0  0  0
  2  6  2  0  0  0  0
  3  8  2  0  0  0  0
  3 15  1  0  0  0  0
  4  9  1  0  0  0  0
  4 15  2  0  0  0  0
  5 17  1  0  0  0  0
  6 19  1  0  0  0  0
  7 10  2  0  0  0  0
  7 18  1  0  0  0  0
  8 21  1  0  0  0  0
  9 21  2  0  0  0  0
 10 22  1  0  0  0  0
 11 12  2  0  0  0  0
 11 23  1  0  0  0  0
 12 24  1  0  0  0  0
 13 20  1  0  0  0  0
 13 22  2  0  0  0  0
 14 24  2  0  0  0  0
 14 25  1  0  0  0  0
 15 26  1  0  0  0  0
 16 26  1  0  0  0  0
 16 27  2  0  0  0  0
 16 31  1  0  0  0  0
 17 19  2  0  0  0  0
 17 36  1  0  0  0  0
 18 20  2  0  0  0  0
 18 37  1  0  0  0  0
 19 47  1  0  0  0  0
 20 38  1  0  0  0  0
 21 82  1  0  0  0  0
 22 83  1  0  0  0  0
 23 25  2  0  0  0  0
 23 82  1  0  0  0  0
 24 84  1  0  0  0  0
 25 85  1  0  0  0  0
 26 63  2  0  0  0  0
 27 67  1  0  0  0  0
 27 71  1  0  0  0  0
 28 51  1  0  0  0  0
 28 64  2  0  0  0  0
 28 65  1  0  0  0  0
 29 59  1  0  0  0  0
 29 64  1  0  0  0  0
 29 66  2  0  0  0  0
 30 65  2  0  0  0  0
 30 66  1  0  0  0  0
 30 73  1  0  0  0  0
 31 72  1  0  0  0  0
 31 77  2  0  0  0  0
 32 48  1  0  0  0  0
 32 74  1  0  0  0  0
 32 78  2  0  0  0  0
 33 60  1  0  0  0  0
 33 68  1  0  0  0  0
 33 79  2  0  0  0  0
 34 61  1  0  0  0  0
 34 75  1  0  0  0  0
 34 80  2  0  0  0  0
 35 69  1  0  0  0  0
 35 70  1  0  0  0  0
 35 81  2  0  0  0  0
 36 39  1  0  0  0  0
 37 48  1  0  0  0  0
 38 68  1  0  0  0  0
 39 41  1  0  0  0  0
 40 42  1  0  0  0  0
 40 43  1  0  0  0  0
 41 47  1  0  0  0  0
 42 50  1  0  0  0  0
 43 69  1  0  0  0  0
 44 49  1  0  0  0  0
 44 70  1  0  0  0  0
 45 49  1  0  0  0  0
 45 70  1  0  0  0  0
 46 50  1  0  0  0  0
 46 69  1  0  0  0  0
 47 74  1  0  0  0  0
 48 68  1  0  0  0  0
 49 58  1  0  0  0  0
 50 67  1  0  0  0  0
 52 59  1  0  0  0  0
 53 61  1  0  0  0  0
 54 62  1  0  0  0  0
 55 62  1  0  0  0  0
 56 62  1  0  0  0  0
 57 76  1  0  0  0  0
 58 73  1  0  0  0  0
 59 83  1  0  0  0  0
 60 62  1  0  0  0  0
 60 75  1  0  0  0  0
 61 76  1  0  0  0  0
 63 67  1  0  0  0  0
M  CHG  1  76   1
M  ISO  4  35 100  59 101  70 100  83 101
M  END
> <Batch ID>
0181

> <Smiles>
CNC(C)C(=O)NC(C(=O)N1Cc2cc([101O:1][101CH:1](C)c3nc(C)nc(NCC4C[100N:0]([100C:0](=O)N5CCCC(n6nc(-c7ccc(Oc8ccc(F)cc8F)cc7)c(C(N)=O)c6N)C5)C4)n3)ccc2CC1C(=O)NC1CCCc2ccccc21)C(C)(C)C

> <Shape>
0.271

> <Color>
0.067

> <Negative vol penalty>
0.000

$$$$

  -OEChem-04052323023D

 85 94  0     1  0  0  0  0  0999 V2000
  -28.9655  -15.3665   36.1921 C   0  0  0  0  0  0  0  0  0  0  0  0
  -28.6771  -15.8861   34.9342 C   0  0  0  0  0  0  0  0  0  0  0  0
  -23.2009   -9.8514   19.9529 C   0  0  0  0  0  0  0  0  0  0  0  0
  -23.9125   -9.9304   22.2604 C   0  0  0  0  0  0  0  0  0  0  0  0
  -28.7607  -14.0115   36.4490 C   0  0  0  0  0  0  0  0  0  0  0  0
  -28.1847  -15.0507   33.9321 C   0  0  0  0  0  0  0  0  0  0  0  0
  -24.3038  -17.1132   31.4162 C   0  0  0  0  0  0  0  0  0  0  0  0
  -22.5093   -8.6669   20.2067 C   0  0  0  0  0  0  0  0  0  0  0  0
  -23.2210   -8.7459   22.5142 C   0  0  0  0  0  0  0  0  0  0  0  0
  -24.6080  -18.0757   30.4545 C   0  0  0  0  0  0  0  0  0  0  0  0
  -20.0241   -7.7993   23.0659 C   0  0  0  0  0  0  0  0  0  0  0  0
  -19.2463   -7.7398   24.2222 C   0  0  0  0  0  0  0  0  0  0  0  0
  -24.3661  -16.4133   28.7232 C   0  0  0  0  0  0  0  0  0  0  0  0
  -20.5657   -5.8771   25.0139 C   0  0  0  0  0  0  0  0  0  0  0  0
  -30.6699  -16.3727   25.1841 C   0  0  0  0  0  0  0  0  0  0  0  0
  -23.9025  -10.4831   20.9797 C   0  0  0  0  0  0  0  0  0  0  0  0
  -24.1228  -13.0199   20.8259 C   0  0  0  0  0  0  0  0  0  0  0  0
  -28.2565  -13.1610   35.4524 C   0  0  0  0  0  0  0  0  0  0  0  0
  -24.0388  -15.7889   31.0389 C   0  0  0  0  0  0  0  0  0  0  0  0
  -27.9743  -13.6828   34.1755 C   0  0  0  0  0  0  0  0  0  0  0  0
  -24.0564  -15.4366   29.6819 C   0  0  0  0  0  0  0  0  0  0  0  0
  -29.1368  -18.1897   25.2121 C   0  0  0  0  0  0  0  0  0  0  0  0
  -22.5194   -8.1142   21.4873 C   0  0  0  0  0  0  0  0  0  0  0  0
  -24.6420  -17.7252   29.1080 C   0  0  0  0  0  0  0  0  0  0  0  0
  -21.0727   -6.8976   22.8835 C   0  0  0  0  0  0  0  0  0  0  0  0
  -19.5171   -6.7787   25.1962 C   0  0  0  0  0  0  0  0  0  0  0  0
  -21.3435   -5.9366   23.8575 C   0  0  0  0  0  0  0  0  0  0  0  0
  -29.9327  -17.3045   25.9113 C   0  0  0  0  0  0  0  0  0  0  0  0
  -24.6175  -11.7064   20.7181 C   0  0  0  0  0  0  0  0  0  0  0  0
  -29.1187  -18.1254   23.8212 C   0  0  0  0  0  0  0  0  0  0  0  0
  -30.5796  -16.3866   23.7921 C   0  0  0  0  0  0  0  0  0  0  0  0
  -25.1841  -13.8167   20.4722 C   0  0  0  0  0  0  0  0  0  0  0  0
  -22.8203  -13.4788   21.2115 C   0  0  0  0  0  0  0  0  0  0  0  0
  -25.3968  -12.9752   31.6243 C   0  0  0  0  0  0  0  0  0  0  0  0
  -22.8152  -11.8351   30.0249 C   0  0  0  0  0  0  0  0  0  0  0  0
  -20.3252  -12.4052   27.7618 C   0  0  0  0  0  0  0  0  0  0  0  0
  -30.9479  -14.0585   20.9569 C   0  0  0  0  0  0  0  0  0  0  0  0
  -28.0963  -11.6939   35.7630 C   0  0  0  0  0  0  0  0  0  0  0  0
  -23.6861  -14.7686   32.0863 C   0  0  0  0  0  0  0  0  0  0  0  0
  -23.7594  -14.0331   29.2230 C   0  0  0  0  0  0  0  0  0  0  0  0
  -28.2377  -19.2013   23.2494 C   0  0  0  0  0  0  0  0  0  0  0  0
  -27.2180  -10.9512   34.7593 C   0  0  0  0  0  0  0  0  0  0  0  0
  -27.3799  -19.5542   24.4755 C   0  0  0  0  0  0  0  0  0  0  0  0
  -29.3564  -13.1280   17.9109 C   0  0  0  0  0  0  0  0  0  0  0  0
  -27.6132  -11.3157   33.3318 C   0  0  0  0  0  0  0  0  0  0  0  0
  -27.9262  -12.7886   18.3343 C   0  0  0  0  0  0  0  0  0  0  0  0
  -30.3739  -12.7003   18.9663 C   0  0  0  0  0  0  0  0  0  0  0  0
  -28.6795  -12.8723   20.7476 C   0  0  0  0  0  0  0  0  0  0  0  0
  -27.4154  -12.8136   33.0700 C   0  0  1  0  0  0  0  0  0  0  0  0
  -28.2773  -19.3073   25.7022 C   0  0  1  0  0  0  0  0  0  0  0  0
  -23.9377  -13.3342   31.6318 C   0  0  1  0  0  0  0  0  0  0  0  0
  -27.6130  -13.3350   19.7402 C   0  0  2  0  0  0  0  0  0  0  0  0
  -18.3925  -11.2712   26.6320 C   0  0  0  0  0  0  0  0  0  0  0  0
  -24.7578  -10.3392   28.2086 C   0  0  0  0  0  0  0  0  0  0  0  0
  -22.8824  -10.0220   26.5806 C   0  0  0  0  0  0  0  0  0  0  0  0
  -22.7284   -9.0338   28.8659 C   0  0  0  0  0  0  0  0  0  0  0  0
  -18.3821  -14.3234   28.9037 C   0  0  0  0  0  0  0  0  0  0  0  0
  -31.3707  -15.3944   23.0052 C   0  0  0  0  0  0  0  0  0  0  0  0
  -26.6426  -20.1636   27.3750 C   0  0  0  0  0  0  0  0  0  0  0  0
  -25.8058  -19.7257   28.5608 C   0  0  0  0  0  0  0  0  0  1  0  0
  -22.4999  -11.5353   28.5793 C   0  0  1  0  0  0  0  0  0  0  0  0
  -18.8345  -12.1229   27.8119 C   0  0  2  0  0  0  0  0  0  0  0  0
  -23.2247  -10.2587   28.0671 C   0  0  0  0  0  0  0  0  0  0  0  0
  -25.8938  -11.6667   20.3263 N   0  0  0  0  0  0  0  0  0  0  0  0
  -29.8192  -17.2517   23.0794 N   0  0  0  0  0  0  0  0  0  0  0  0
  -26.2100  -12.9652   20.1848 N   0  0  0  0  0  0  0  0  0  0  0  0
  -23.4261  -13.0699   30.2855 N   0  0  0  0  0  0  0  0  0  0  0  0
  -30.0202  -13.2529   20.2761 N   0  0  0  0  0  0  0  0  0  0  0  0
  -25.3306  -15.1557   20.3820 N   0  0  0  0  0  0  0  0  0  0  0  0
  -21.8474  -12.5261   21.5434 N   0  0  0  0  0  0  0  0  0  0  0  0
  -26.0152  -13.1081   32.8529 N   0  0  0  0  0  0  0  0  0  0  0  0
  -21.0454  -11.4762   28.4825 N   0  0  0  0  0  0  0  0  0  0  0  0
  -30.5305  -14.5467   22.1890 N   0  0  0  0  0  0  0  0  0  0  0  0
  -27.4370  -19.0098   26.8830 N   0  3  0  0  0  0  0  0  0  0  0  0
  -18.0645  -13.3986   27.7852 N   0  3  0  0  0  0  0  0  0  0  0  0
  -22.5230  -14.6970   21.2444 O   0  0  0  0  0  0  0  0  0  0  0  0
  -25.9222  -12.6036   30.5815 O   0  0  0  0  0  0  0  0  0  0  0  0
  -22.5236  -11.0074   30.8917 O   0  0  0  0  0  0  0  0  0  0  0  0
  -20.8032  -13.3527   27.1420 O   0  0  0  0  0  0  0  0  0  0  0  0
  -32.0633  -14.3273   20.4981 O   0  0  0  0  0  0  0  0  0  0  0  0
  -21.8445   -6.9585   21.7354 O   0  0  0  0  0  0  0  0  0  0  0  0
  -24.9392  -18.6625   28.1672 O   0  0  0  0  0  0  0  0  0  1  0  0
  -18.7710   -6.7227   26.3072 F   0  0  0  0  0  0  0  0  0  0  0  0
  -22.3503   -5.0685   23.6885 F   0  0  0  0  0  0  0  0  0  0  0  0
  -30.0703  -17.3377   27.6240 Cl  0  0  0  0  0  0  0  0  0  0  0  0
  1  2  1  0  0  0  0
  1  5  2  0  0  0  0
  2  6  2  0  0  0  0
  3  8  2  0  0  0  0
  3 16  1  0  0  0  0
  4  9  1  0  0  0  0
  4 16  2  0  0  0  0
  5 18  1  0  0  0  0
  6 20  1  0  0  0  0
  7 10  2  0  0  0  0
  7 19  1  0  0  0  0
  8 23  1  0  0  0  0
  9 23  2  0  0  0  0
 10 24  1  0  0  0  0
 11 12  2  0  0  0  0
 11 25  1  0  0  0  0
 12 26  1  0  0  0  0
 13 21  1  0  0  0  0
 13 24  2  0  0  0  0
 14 26  2  0  0  0  0
 14 27  1  0  0  0  0
 15 28  2  0  0  0  0
 15 31  1  0  0  0  0
 16 29  1  0  0  0  0
 17 29  1  0  0  0  0
 17 32  2  0  0  0  0
 17 33  1  0  0  0  0
 18 20  2  0  0  0  0
 18 38  1  0  0  0  0
 19 21  2  0  0  0  0
 19 39  1  0  0  0  0
 20 49  1  0  0  0  0
 21 40  1  0  0  0  0
 22 28  1  0  0  0  0
 22 30  2  0  0  0  0
 22 50  1  0  0  0  0
 23 81  1  0  0  0  0
 24 82  1  0  0  0  0
 25 27  2  0  0  0  0
 25 81  1  0  0  0  0
 26 83  1  0  0  0  0
 27 84  1  0  0  0  0
 28 85  1  0  0  0  0
 29 64  2  0  0  0  0
 30 41  1  0  0  0  0
 30 65  1  0  0  0  0
 31 58  1  0  0  0  0
 31 65  2  0  0  0  0
 32 66  1  0  0  0  0
 32 69  1  0  0  0  0
 33 70  1  0  0  0  0
 33 76  2  0  0  0  0
 34 51  1  0  0  0  0
 34 71  1  0  0  0  0
 34 77  2  0  0  0  0
 35 61  1  0  0  0  0
 35 67  1  0  0  0  0
 35 78  2  0  0  0  0
 36 62  1  0  0  0  0
 36 72  1  0  0  0  0
 36 79  2  0  0  0  0
 37 68  1  0  0  0  0
 37 73  1  0  0  0  0
 37 80  2  0  0  0  0
 38 42  1  0  0  0  0
 39 51  1  0  0  0  0
 40 67  1  0  0  0  0
 41 43  1  0  0  0  0
 42 45  1  0  0  0  0
 43 50  1  0  0  0  0
 44 46  1  0  0  0  0
 44 47  1  0  0  0  0
 45 49  1  0  0  0  0
 46 52  1  0  0  0  0
 47 68  1  0  0  0  0
 48 52  1  0  0  0  0
 48 68  1  0  0  0  0
 49 71  1  0  0  0  0
 50 74  1  0  0  0  0
 51 67  1  0  0  0  0
 52 66  1  0  0  0  0
 53 62  1  0  0  0  0
 54 63  1  0  0  0  0
 55 63  1  0  0  0  0
 56 63  1  0  0  0  0
 57 75  1  0  0  0  0
 58 73  1  0  0  0  0
 59 60  1  0  0  0  0
 59 74  1  0  0  0  0
 60 82  1  0  0  0  0
 61 63  1  0  0  0  0
 61 72  1  0  0  0  0
 62 75  1  0  0  0  0
 64 66  1  0  0  0  0
M  CHG  2  74   1  75   1
M  ISO  4  37 100  60 101  73 100  82 101
M  END
> <Batch ID>
0181

> <Smiles>
CNC(C)C(=O)NC(C(=O)N1Cc2cc([101O:1][101CH2:1]CNC3CCc4nc(C[100NH:0][100C:0](=O)N5CCCC(n6nc(-c7ccc(Oc8ccc(F)cc8F)cc7)c(C(N)=O)c6N)C5)cc(Cl)c43)ccc2CC1C(=O)NC1CCCc2ccccc21)C(C)(C)C

> <Shape>
0.159

> <Color>
0.177

> <Negative vol penalty>
0.000

$$$$

  -OEChem-04052323023D

 79 88  0     1  0  0  0  0  0999 V2000
  -19.2435  -24.9498   22.9336 C   0  0  0  0  0  0  0  0  0  0  0  0
  -20.2119  -25.1513   21.9554 C   0  0  0  0  0  0  0  0  0  0  0  0
  -31.1583  -12.2751   18.0433 C   0  0  0  0  0  0  0  0  0  0  0  0
  -32.7293  -11.8605   19.8314 C   0  0  0  0  0  0  0  0  0  0  0  0
  -18.5903  -26.0427   23.5018 C   0  0  0  0  0  0  0  0  0  0  0  0
  -20.5270  -26.4458   21.5439 C   0  0  0  0  0  0  0  0  0  0  0  0
  -25.5199  -27.2041   21.1683 C   0  0  0  0  0  0  0  0  0  0  0  0
  -31.6152  -11.1374   17.3781 C   0  0  0  0  0  0  0  0  0  0  0  0
  -33.1862  -10.7228   19.1662 C   0  0  0  0  0  0  0  0  0  0  0  0
  -26.1575  -26.6971   20.0369 C   0  0  0  0  0  0  0  0  0  0  0  0
  -31.1854   -7.7899   17.5850 C   0  0  0  0  0  0  0  0  0  0  0  0
  -30.2312   -6.9274   17.0455 C   0  0  0  0  0  0  0  0  0  0  0  0
  -26.1227  -28.8936   19.0403 C   0  0  0  0  0  0  0  0  0  0  0  0
  -31.1615   -7.2757   14.8432 C   0  0  0  0  0  0  0  0  0  0  0  0
  -31.7154  -12.6367   19.2700 C   0  0  0  0  0  0  0  0  0  0  0  0
  -30.1969  -13.8861   20.8950 C   0  0  0  0  0  0  0  0  0  0  0  0
  -18.9043  -27.3518   23.1040 C   0  0  0  0  0  0  0  0  0  0  0  0
  -25.1684  -28.5597   21.2398 C   0  0  0  0  0  0  0  0  0  0  0  0
  -19.8764  -27.5572   22.1063 C   0  0  0  0  0  0  0  0  0  0  0  0
  -25.4829  -29.4159   20.1748 C   0  0  0  0  0  0  0  0  0  0  0  0
  -32.6291  -10.3612   17.9396 C   0  0  0  0  0  0  0  0  0  0  0  0
  -26.4565  -27.5412   18.9715 C   0  0  0  0  0  0  0  0  0  0  0  0
  -32.1277   -8.3954   16.7536 C   0  0  0  0  0  0  0  0  0  0  0  0
  -30.2192   -6.6703   15.6746 C   0  0  0  0  0  0  0  0  0  0  0  0
  -32.1158   -8.1382   15.3827 C   0  0  0  0  0  0  0  0  0  0  0  0
  -31.2443  -13.8122   19.9573 C   0  0  0  0  0  0  0  0  0  0  0  0
  -30.1457  -15.2123   21.2486 C   0  0  0  0  0  0  0  0  0  0  0  0
  -29.3464  -12.8487   21.4012 C   0  0  0  0  0  0  0  0  0  0  0  0
  -22.4333  -30.1568   21.5087 C   0  0  0  0  0  0  0  0  0  0  0  0
  -24.4062  -32.7176   21.7772 C   0  0  0  0  0  0  0  0  0  0  0  0
  -27.4591  -34.1026   21.1379 C   0  0  0  0  0  0  0  0  0  0  0  0
  -30.1487  -20.4622   20.1224 C   0  0  0  0  0  0  0  0  0  0  0  0
  -18.1378  -28.4992   23.7129 C   0  0  0  0  0  0  0  0  0  0  0  0
  -24.5049  -29.0966   22.4784 C   0  0  0  0  0  0  0  0  0  0  0  0
  -25.1450  -30.8832   20.2105 C   0  0  0  0  0  0  0  0  0  0  0  0
  -18.7963  -29.8582   23.4897 C   0  0  0  0  0  0  0  0  0  0  0  0
  -33.3411  -19.0090   20.3038 C   0  0  0  0  0  0  0  0  0  0  0  0
  -19.2264  -30.0104   22.0342 C   0  0  0  0  0  0  0  0  0  0  0  0
  -32.9972  -17.5199   20.3055 C   0  0  0  0  0  0  0  0  0  0  0  0
  -29.1048  -26.0227   16.8322 C   0  0  0  0  0  0  0  0  0  0  0  0
  -32.4634  -19.7988   19.3314 C   0  0  0  0  0  0  0  0  0  0  0  0
  -31.0675  -22.3040   18.6431 C   0  0  0  0  0  0  0  0  0  0  0  0
  -29.7289  -22.8458   20.6456 C   0  0  0  0  0  0  0  0  0  0  0  0
  -30.6670  -18.1113   19.5394 C   0  0  0  0  0  0  0  0  0  0  0  0
  -30.0907  -23.0823   17.7672 C   0  0  0  0  0  0  0  0  0  0  0  0
  -28.7216  -23.6095   19.8013 C   0  0  0  0  0  0  0  0  0  0  0  0
  -20.2634  -28.9476   21.6513 C   0  0  1  0  0  0  0  0  0  0  0  0
  -23.7311  -30.3877   22.2298 C   0  0  1  0  0  0  0  0  0  0  0  0
  -31.4936  -17.3003   20.5492 C   0  0  1  0  0  0  0  0  0  0  0  0
  -28.4921  -24.9954   17.7409 C   0  0  2  0  0  0  0  0  0  0  0  0
  -28.3727  -26.4576   18.0717 C   0  0  2  0  0  0  0  0  0  1  0  0
  -28.7631  -36.2244   21.4458 C   0  0  0  0  0  0  0  0  0  0  0  0
  -22.8262  -34.0145   19.5119 C   0  0  0  0  0  0  0  0  0  0  0  0
  -24.7042  -35.6459   19.2294 C   0  0  0  0  0  0  0  0  0  0  0  0
  -23.4382  -35.5639   21.3772 C   0  0  0  0  0  0  0  0  0  0  0  0
  -29.5165  -32.7380   22.7702 C   0  0  0  0  0  0  0  0  0  0  0  0
  -25.0355  -33.6887   20.8076 C   0  0  1  0  0  0  0  0  0  0  0  0
  -28.4279  -34.8600   22.0279 C   0  0  2  0  0  0  0  0  0  0  0  0
  -24.0058  -34.7003   20.2297 C   0  0  0  0  0  0  0  0  0  0  0  0
  -31.8171  -14.9971   19.7295 N   0  0  0  0  0  0  0  0  0  0  0  0
  -31.1270  -15.8282   20.5290 N   0  0  0  0  0  0  0  0  0  0  0  0
  -24.4911  -31.3592   21.4407 N   0  0  0  0  0  0  0  0  0  0  0  0
  -31.0403  -19.5268   19.5765 N   0  0  0  0  0  0  0  0  0  0  0  0
  -30.4067  -21.8159   19.8603 N   0  0  0  0  0  0  0  0  0  0  0  0
  -29.3573  -15.9000   22.1018 N   0  0  0  0  0  0  0  0  0  0  0  0
  -29.5349  -11.5417   20.9316 N   0  0  0  0  0  0  0  0  0  0  0  0
  -21.5674  -29.3049   22.1674 N   0  0  0  0  0  0  0  0  0  0  0  0
  -26.1494  -34.3092   21.5165 N   0  0  0  0  0  0  0  0  0  0  0  0
  -29.4259  -24.1599   18.5857 N   0  3  0  0  0  0  0  0  0  0  0  0
  -29.6953  -34.0920   22.1855 N   0  3  0  0  0  0  0  0  0  0  0  0
  -28.4353  -13.0770   22.2326 O   0  0  0  0  0  0  0  0  0  0  0  0
  -22.2318  -30.7117   20.4348 O   0  0  0  0  0  0  0  0  0  0  0  0
  -23.8657  -33.1480   22.7990 O   0  0  0  0  0  0  0  0  0  0  0  0
  -27.8271  -33.4009   20.1983 O   0  0  0  0  0  0  0  0  0  0  0  0
  -29.1783  -20.1085   20.8039 O   0  0  0  0  0  0  0  0  0  0  0  0
  -33.0749   -9.2508   17.2909 O   0  0  0  0  0  0  0  0  0  0  0  0
  -27.0796  -27.0477   17.8633 O   0  0  0  0  0  0  0  0  0  1  0  0
  -29.3037   -5.8408   15.1569 F   0  0  0  0  0  0  0  0  0  0  0  0
  -33.0192   -8.7160   14.5791 F   0  0  0  0  0  0  0  0  0  0  0  0
  1  2  1  0  0  0  0
  1  5  2  0  0  0  0
  2  6  2  0  0  0  0
  3  8  2  0  0  0  0
  3 15  1  0  0  0  0
  4  9  1  0  0  0  0
  4 15  2  0  0  0  0
  5 17  1  0  0  0  0
  6 19  1  0  0  0  0
  7 10  2  0  0  0  0
  7 18  1  0  0  0  0
  8 21  1  0  0  0  0
  9 21  2  0  0  0  0
 10 22  1  0  0  0  0
 11 12  2  0  0  0  0
 11 23  1  0  0  0  0
 12 24  1  0  0  0  0
 13 20  1  0  0  0  0
 13 22  2  0  0  0  0
 14 24  2  0  0  0  0
 14 25  1  0  0  0  0
 15 26  1  0  0  0  0
 16 26  1  0  0  0  0
 16 27  2  0  0  0  0
 16 28  1  0  0  0  0
 17 19  2  0  0  0  0
 17 33  1  0  0  0  0
 18 20  2  0  0  0  0
 18 34  1  0  0  0  0
 19 47  1  0  0  0  0
 20 35  1  0  0  0  0
 21 76  1  0  0  0  0
 22 77  1  0  0  0  0
 23 25  2  0  0  0  0
 23 76  1  0  0  0  0
 24 78  1  0  0  0  0
 25 79  1  0  0  0  0
 26 60  2  0  0  0  0
 27 61  1  0  0  0  0
 27 65  1  0  0  0  0
 28 66  1  0  0  0  0
 28 71  2  0  0  0  0
 29 48  1  0  0  0  0
 29 67  1  0  0  0  0
 29 72  2  0  0  0  0
 30 57  1  0  0  0  0
 30 62  1  0  0  0  0
 30 73  2  0  0  0  0
 31 58  1  0  0  0  0
 31 68  1  0  0  0  0
 31 74  2  0  0  0  0
 32 63  1  0  0  0  0
 32 64  1  0  0  0  0
 32 75  2  0  0  0  0
 33 36  1  0  0  0  0
 34 48  1  0  0  0  0
 35 62  1  0  0  0  0
 36 38  1  0  0  0  0
 37 39  1  0  0  0  0
 37 41  1  0  0  0  0
 38 47  1  0  0  0  0
 39 49  1  0  0  0  0
 40 50  1  0  0  0  0
 40 51  1  0  0  0  0
 41 63  1  0  0  0  0
 42 45  1  0  0  0  0
 42 64  1  0  0  0  0
 43 46  1  0  0  0  0
 43 64  1  0  0  0  0
 44 49  1  0  0  0  0
 44 63  1  0  0  0  0
 45 69  1  0  0  0  0
 46 69  1  0  0  0  0
 47 67  1  0  0  0  0
 48 62  1  0  0  0  0
 49 61  1  0  0  0  0
 50 51  1  0  0  0  0
 50 69  1  0  0  0  0
 51 77  1  0  0  0  0
 52 58  1  0  0  0  0
 53 59  1  0  0  0  0
 54 59  1  0  0  0  0
 55 59  1  0  0  0  0
 56 70  1  0  0  0  0
 57 59  1  0  0  0  0
 57 68  1  0  0  0  0
 58 70  1  0  0  0  0
 60 61  1  0  0  0  0
M  CHG  2  69   1  70   1
M  ISO  4  32 100  51 101  64 100  77 101
M  END
> <Batch ID>
0181

> <Smiles>
CNC(C)C(=O)NC(C(=O)N1Cc2cc([101O:1][101CH:1]3CC3N3CC[100N:0]([100C:0](=O)N4CCCC(n5nc(-c6ccc(Oc7ccc(F)cc7F)cc6)c(C(N)=O)c5N)C4)CC3)ccc2CC1C(=O)NC1CCCc2ccccc21)C(C)(C)C

> <Shape>
0.232

> <Color>
0.091

> <Negative vol penalty>
0.000

$$$$

  -OEChem-04052323023D

 87 96  0     1  0  0  0  0  0999 V2000
  -23.2833  -33.6931   24.1135 C   0  0  0  0  0  0  0  0  0  0  0  0
  -24.1617  -32.6573   23.8117 C   0  0  0  0  0  0  0  0  0  0  0  0
  -26.2742  -19.0365   19.9335 C   0  0  0  0  0  0  0  0  0  0  0  0
  -27.8887  -18.0749   21.4519 C   0  0  0  0  0  0  0  0  0  0  0  0
  -21.9281  -33.4240   24.3006 C   0  0  0  0  0  0  0  0  0  0  0  0
  -23.6855  -31.3517   23.6978 C   0  0  0  0  0  0  0  0  0  0  0  0
  -25.5572  -28.9470   19.6532 C   0  0  0  0  0  0  0  0  0  0  0  0
  -25.6735  -17.7869   19.7809 C   0  0  0  0  0  0  0  0  0  0  0  0
  -27.2880  -16.8253   21.2994 C   0  0  0  0  0  0  0  0  0  0  0  0
  -26.8586  -28.4563   19.7500 C   0  0  0  0  0  0  0  0  0  0  0  0
  -26.4015  -13.3108   21.0309 C   0  0  0  0  0  0  0  0  0  0  0  0
  -27.2357  -12.2095   20.8383 C   0  0  0  0  0  0  0  0  0  0  0  0
  -25.9876  -26.2514   20.1964 C   0  0  0  0  0  0  0  0  0  0  0  0
  -28.1118  -13.2247   18.8286 C   0  0  0  0  0  0  0  0  0  0  0  0
  -27.3819  -19.1805   20.7690 C   0  0  0  0  0  0  0  0  0  0  0  0
  -27.6892  -21.4544   21.8836 C   0  0  0  0  0  0  0  0  0  0  0  0
  -21.4335  -32.1158   24.1794 C   0  0  0  0  0  0  0  0  0  0  0  0
  -24.4594  -28.0944   19.8384 C   0  0  0  0  0  0  0  0  0  0  0  0
  -22.3226  -31.0647   23.8848 C   0  0  0  0  0  0  0  0  0  0  0  0
  -24.6733  -26.7333   20.0989 C   0  0  0  0  0  0  0  0  0  0  0  0
  -33.9020  -25.8550   23.7799 C   0  0  0  0  0  0  0  0  0  0  0  0
  -33.5853  -25.8548   22.4260 C   0  0  0  0  0  0  0  0  0  0  0  0
  -33.4489  -27.0619   21.7494 C   0  0  0  0  0  0  0  0  0  0  0  0
  -26.1803  -16.6813   20.4638 C   0  0  0  0  0  0  0  0  0  0  0  0
  -27.0740  -27.1089   20.0245 C   0  0  0  0  0  0  0  0  0  0  0  0
  -26.4224  -14.3690   20.1223 C   0  0  0  0  0  0  0  0  0  0  0  0
  -28.0908  -12.1665   19.7372 C   0  0  0  0  0  0  0  0  0  0  0  0
  -27.2776  -14.3259   19.0212 C   0  0  0  0  0  0  0  0  0  0  0  0
  -28.0032  -20.4709   20.9265 C   0  0  0  0  0  0  0  0  0  0  0  0
  -34.0707  -27.0794   24.4063 C   0  0  0  0  0  0  0  0  0  0  0  0
  -33.6377  -28.2322   22.4667 C   0  0  0  0  0  0  0  0  0  0  0  0
  -28.5569  -22.4846   21.6146 C   0  0  0  0  0  0  0  0  0  0  0  0
  -26.7016  -21.4382   22.9228 C   0  0  0  0  0  0  0  0  0  0  0  0
  -22.0551  -27.9515   21.9126 C   0  0  0  0  0  0  0  0  0  0  0  0
  -21.0344  -25.5626   19.9700 C   0  0  0  0  0  0  0  0  0  0  0  0
  -21.8147  -23.1677   17.6673 C   0  0  0  0  0  0  0  0  0  0  0  0
  -33.6524  -24.3680   20.3934 C   0  0  0  0  0  0  0  0  0  0  0  0
  -19.9684  -31.8669   24.4371 C   0  0  0  0  0  0  0  0  0  0  0  0
  -23.0618  -28.6339   19.7043 C   0  0  0  0  0  0  0  0  0  0  0  0
  -23.5287  -25.7723   20.2859 C   0  0  0  0  0  0  0  0  0  0  0  0
  -19.4824  -30.5117   23.9296 C   0  0  0  0  0  0  0  0  0  0  0  0
  -31.6428  -23.2488   17.6757 C   0  0  0  0  0  0  0  0  0  0  0  0
  -35.3384  -24.3230   25.2844 C   0  0  0  0  0  0  0  0  0  0  0  0
  -35.0331  -23.5463   24.0419 C   0  0  0  0  0  0  0  0  0  0  0  0
  -20.4528  -29.4087   24.3398 C   0  0  0  0  0  0  0  0  0  0  0  0
  -30.4910  -22.5072   18.3579 C   0  0  0  0  0  0  0  0  0  0  0  0
  -32.9662  -23.0385   18.4094 C   0  0  0  0  0  0  0  0  0  0  0  0
  -31.7842  -22.6052   20.5270 C   0  0  0  0  0  0  0  0  0  0  0  0
  -34.0561  -24.5775   24.5389 C   0  0  0  0  0  0  0  0  0  0  0  0
  -21.8402  -29.6389   23.7285 C   0  0  1  0  0  0  0  0  0  0  0  0
  -22.0203  -27.7796   20.4204 C   0  0  1  0  0  0  0  0  0  0  0  0
  -30.4184  -22.8397   19.8612 C   0  0  2  0  0  0  0  0  0  0  0  0
  -34.4119  -27.1454   25.8593 C   0  0  0  0  0  0  0  0  0  0  0  0
  -33.5052  -29.5618   21.7974 C   0  0  0  0  0  0  0  0  0  0  0  0
  -20.7747  -21.3457   16.2904 C   0  0  0  0  0  0  0  0  0  0  0  0
  -32.1793  -28.0635   18.4017 C   0  0  0  0  0  0  0  0  0  0  0  0
  -20.8708  -23.7878   22.4465 C   0  0  0  0  0  0  0  0  0  0  0  0
  -20.7642  -21.7994   20.9289 C   0  0  0  0  0  0  0  0  0  0  0  0
  -18.9656  -23.5260   20.8477 C   0  0  0  0  0  0  0  0  0  0  0  0
  -22.6143  -24.4681   15.1319 C   0  0  0  0  0  0  0  0  0  0  0  0
  -30.7352  -26.8174   20.0470 C   0  0  0  0  0  0  0  0  0  0  0  0
  -29.4073  -27.5586   19.9280 C   0  0  0  0  0  0  0  0  0  1  0  0
  -21.2489  -24.0696   19.9080 C   0  0  1  0  0  0  0  0  0  0  0  0
  -21.1846  -22.8095   16.3335 C   0  0  2  0  0  0  0  0  0  0  0  0
  -31.9482  -27.7367   19.8738 C   0  0  1  0  0  0  0  0  0  0  0  0
  -20.4842  -23.3139   21.0312 C   0  0  0  0  0  0  0  0  0  0  0  0
  -28.9930  -20.8429   20.1105 N   0  0  0  0  0  0  0  0  0  0  0  0
  -33.9463  -28.2722   23.7824 N   0  0  0  0  0  0  0  0  0  0  0  0
  -29.3084  -22.0717   20.5540 N   0  0  0  0  0  0  0  0  0  0  0  0
  -22.1808  -26.3491   20.1515 N   0  0  0  0  0  0  0  0  0  0  0  0
  -32.8226  -23.3775   19.8269 N   0  0  0  0  0  0  0  0  0  0  0  0
  -28.7427  -23.6943   22.1843 N   0  0  0  0  0  0  0  0  0  0  0  0
  -25.8943  -20.3007   23.0596 N   0  0  0  0  0  0  0  0  0  0  0  0
  -33.4025  -24.6283   21.7404 N   0  0  0  0  0  0  0  0  0  0  0  0
  -33.1346  -27.0967   20.4027 N   0  0  0  0  0  0  0  0  0  0  0  0
  -21.8487  -29.2512   22.3342 N   0  0  0  0  0  0  0  0  0  0  0  0
  -20.8830  -23.6604   18.5564 N   0  0  0  0  0  0  0  0  0  0  0  0
  -22.1455  -23.0614   15.2225 N   0  3  0  0  0  0  0  0  0  0  0  0
  -26.5287  -22.4104   23.6963 O   0  0  0  0  0  0  0  0  0  0  0  0
  -22.2530  -26.9769   22.6286 O   0  0  0  0  0  0  0  0  0  0  0  0
  -19.8926  -26.0148   19.8541 O   0  0  0  0  0  0  0  0  0  0  0  0
  -23.0128  -23.0213   17.8987 O   0  0  0  0  0  0  0  0  0  0  0  0
  -34.5025  -24.9623   19.7254 O   0  0  0  0  0  0  0  0  0  0  0  0
  -25.5942  -15.4619   20.3154 O   0  0  0  0  0  0  0  0  0  0  0  0
  -28.3432  -26.6274   20.1202 O   0  0  0  0  0  0  0  0  0  1  0  0
  -28.8929  -11.1097   19.5532 F   0  0  0  0  0  0  0  0  0  0  0  0
  -27.3030  -15.3401   18.1456 F   0  0  0  0  0  0  0  0  0  0  0  0
  1  2  1  0  0  0  0
  1  5  2  0  0  0  0
  2  6  2  0  0  0  0
  3  8  2  0  0  0  0
  3 15  1  0  0  0  0
  4  9  1  0  0  0  0
  4 15  2  0  0  0  0
  5 17  1  0  0  0  0
  6 19  1  0  0  0  0
  7 10  2  0  0  0  0
  7 18  1  0  0  0  0
  8 24  1  0  0  0  0
  9 24  2  0  0  0  0
 10 25  1  0  0  0  0
 11 12  2  0  0  0  0
 11 26  1  0  0  0  0
 12 27  1  0  0  0  0
 13 20  1  0  0  0  0
 13 25  2  0  0  0  0
 14 27  2  0  0  0  0
 14 28  1  0  0  0  0
 15 29  1  0  0  0  0
 16 29  1  0  0  0  0
 16 32  2  0  0  0  0
 16 33  1  0  0  0  0
 17 19  2  0  0  0  0
 17 38  1  0  0  0  0
 18 20  2  0  0  0  0
 18 39  1  0  0  0  0
 19 50  1  0  0  0  0
 20 40  1  0  0  0  0
 21 22  1  0  0  0  0
 21 30  2  0  0  0  0
 21 49  1  0  0  0  0
 22 23  2  0  0  0  0
 22 74  1  0  0  0  0
 23 31  1  0  0  0  0
 23 75  1  0  0  0  0
 24 84  1  0  0  0  0
 25 85  1  0  0  0  0
 26 28  2  0  0  0  0
 26 84  1  0  0  0  0
 27 86  1  0  0  0  0
 28 87  1  0  0  0  0
 29 67  2  0  0  0  0
 30 53  1  0  0  0  0
 30 68  1  0  0  0  0
 31 54  1  0  0  0  0
 31 68  2  0  0  0  0
 32 69  1  0  0  0  0
 32 72  1  0  0  0  0
 33 73  1  0  0  0  0
 33 79  2  0  0  0  0
 34 51  1  0  0  0  0
 34 76  1  0  0  0  0
 34 80  2  0  0  0  0
 35 63  1  0  0  0  0
 35 70  1  0  0  0  0
 35 81  2  0  0  0  0
 36 64  1  0  0  0  0
 36 77  1  0  0  0  0
 36 82  2  0  0  0  0
 37 71  1  0  0  0  0
 37 74  1  0  0  0  0
 37 83  2  0  0  0  0
 38 41  1  0  0  0  0
 39 51  1  0  0  0  0
 40 70  1  0  0  0  0
 41 45  1  0  0  0  0
 42 46  1  0  0  0  0
 42 47  1  0  0  0  0
 43 44  1  0  0  0  0
 43 49  1  0  0  0  0
 44 49  1  0  0  0  0
 45 50  1  0  0  0  0
 46 52  1  0  0  0  0
 47 71  1  0  0  0  0
 48 52  1  0  0  0  0
 48 71  1  0  0  0  0
 50 76  1  0  0  0  0
 51 70  1  0  0  0  0
 52 69  1  0  0  0  0
 55 64  1  0  0  0  0
 56 65  1  0  0  0  0
 57 66  1  0  0  0  0
 58 66  1  0  0  0  0
 59 66  1  0  0  0  0
 60 78  1  0  0  0  0
 61 62  1  0  0  0  0
 61 65  1  0  0  0  0
 62 85  1  0  0  0  0
 63 66  1  0  0  0  0
 63 77  1  0  0  0  0
 64 78  1  0  0  0  0
 65 75  1  0  0  0  0
 67 69  1  0  0  0  0
M  CHG  1  78   1
M  ISO  4  37 100  62 101  74 100  85 101
M  END
> <Batch ID>
0181

> <Smiles>
CNC(C)C(=O)NC(C(=O)N1Cc2cc([101O:1][101CH2:1]CC(C)Nc3c(C)nc(C)c(C4CC4)c3[100NH:0][100C:0](=O)N3CCCC(n4nc(-c5ccc(Oc6ccc(F)cc6F)cc5)c(C(N)=O)c4N)C3)ccc2CC1C(=O)NC1CCCc2ccccc21)C(C)(C)C

> <Shape>
0.197

> <Color>
0.077

> <Negative vol penalty>
0.000

$$$$

  -OEChem-04052323023D

 85 94  0     1  0  0  0  0  0999 V2000
  -25.3571  -15.5735   33.4836 C   0  0  0  0  0  0  0  0  0  0  0  0
  -25.4502  -16.1965   32.2431 C   0  0  0  0  0  0  0  0  0  0  0  0
  -22.6669  -10.1982   20.1656 C   0  0  0  0  0  0  0  0  0  0  0  0
  -24.3246   -9.4106   21.7368 C   0  0  0  0  0  0  0  0  0  0  0  0
  -24.5475  -16.1205   34.4781 C   0  0  0  0  0  0  0  0  0  0  0  0
  -24.7327  -17.3663   31.9962 C   0  0  0  0  0  0  0  0  0  0  0  0
  -27.5140  -20.8944   29.6591 C   0  0  0  0  0  0  0  0  0  0  0  0
  -21.9328   -9.0271   20.3531 C   0  0  0  0  0  0  0  0  0  0  0  0
  -23.5905   -8.2395   21.9243 C   0  0  0  0  0  0  0  0  0  0  0  0
  -27.7187  -20.7393   28.2888 C   0  0  0  0  0  0  0  0  0  0  0  0
  -20.8488   -7.2690   23.6453 C   0  0  0  0  0  0  0  0  0  0  0  0
  -20.6685   -6.8215   24.9540 C   0  0  0  0  0  0  0  0  0  0  0  0
  -25.9780  -22.3513   27.8524 C   0  0  0  0  0  0  0  0  0  0  0  0
  -21.7895   -4.7539   24.4015 C   0  0  0  0  0  0  0  0  0  0  0  0
  -23.8629  -10.3899   20.8574 C   0  0  0  0  0  0  0  0  0  0  0  0
  -24.1971  -12.9184   20.9109 C   0  0  0  0  0  0  0  0  0  0  0  0
  -23.8272  -17.3030   34.2464 C   0  0  0  0  0  0  0  0  0  0  0  0
  -26.5307  -21.7726   30.1370 C   0  0  0  0  0  0  0  0  0  0  0  0
  -23.9116  -17.9290   32.9881 C   0  0  0  0  0  0  0  0  0  0  0  0
  -25.7646  -22.5177   29.2293 C   0  0  0  0  0  0  0  0  0  0  0  0
  -28.2794  -19.7381   24.6494 C   0  0  0  0  0  0  0  0  0  0  0  0
  -22.3945   -8.0477   21.2325 C   0  0  0  0  0  0  0  0  0  0  0  0
  -26.9487  -21.4656   27.3851 C   0  0  0  0  0  0  0  0  0  0  0  0
  -21.4994   -6.4589   22.7146 C   0  0  0  0  0  0  0  0  0  0  0  0
  -21.1389   -5.5640   25.3321 C   0  0  0  0  0  0  0  0  0  0  0  0
  -21.9698   -5.2014   23.0927 C   0  0  0  0  0  0  0  0  0  0  0  0
  -24.6220  -11.5992   20.6638 C   0  0  0  0  0  0  0  0  0  0  0  0
  -28.3333  -18.4283   24.2183 C   0  0  0  0  0  0  0  0  0  0  0  0
  -27.2805  -20.0275   25.5564 C   0  0  0  0  0  0  0  0  0  1  0  0
  -25.2766  -13.6963   20.5702 C   0  0  0  0  0  0  0  0  0  0  0  0
  -26.5537  -17.8740   25.5193 C   0  0  0  0  0  0  0  0  0  0  0  0
  -30.3473  -17.1287   23.4310 C   0  0  0  0  0  0  0  0  0  0  0  0
  -30.9276  -16.6382   24.5367 C   0  0  0  0  0  0  0  0  0  0  0  0
  -22.9392  -13.3977   21.4045 C   0  0  0  0  0  0  0  0  0  0  0  0
  -23.8816  -21.4486   31.8636 C   0  0  0  0  0  0  0  0  0  0  0  0
  -23.8748  -24.6903   31.7467 C   0  0  0  0  0  0  0  0  0  0  0  0
  -24.8591  -27.5333   30.1357 C   0  0  0  0  0  0  0  0  0  0  0  0
  -30.7620  -14.7193   20.6661 C   0  0  0  0  0  0  0  0  0  0  0  0
  -22.9282  -17.8307   35.3363 C   0  0  0  0  0  0  0  0  0  0  0  0
  -26.3405  -21.9485   31.6186 C   0  0  0  0  0  0  0  0  0  0  0  0
  -24.7100  -23.4886   29.6914 C   0  0  0  0  0  0  0  0  0  0  0  0
  -22.4932  -19.2778   35.1197 C   0  0  0  0  0  0  0  0  0  0  0  0
  -29.5558  -12.5101   18.1479 C   0  0  0  0  0  0  0  0  0  0  0  0
  -22.0302  -19.4864   33.6813 C   0  0  0  0  0  0  0  0  0  0  0  0
  -28.1327  -12.1804   18.6016 C   0  0  0  0  0  0  0  0  0  0  0  0
  -30.4750  -18.0068   21.2361 C   0  0  0  0  0  0  0  0  0  0  0  0
  -30.5088  -12.6466   19.3334 C   0  0  0  0  0  0  0  0  0  0  0  0
  -29.2072  -18.5465   21.9072 C   0  0  0  0  0  0  0  0  0  0  0  0
  -28.6490  -13.2680   20.8263 C   0  0  0  0  0  0  0  0  0  0  0  0
  -23.1680  -19.2129   32.6903 C   0  0  1  0  0  0  0  0  0  0  0  0
  -30.8622  -16.7746   22.0535 C   0  0  2  0  0  0  0  0  0  0  0  0
  -24.9608  -22.4872   31.9841 C   0  0  1  0  0  0  0  0  0  0  0  0
  -27.6397  -13.1758   19.6691 C   0  0  2  0  0  0  0  0  0  0  0  0
  -29.2291  -20.7820   24.1761 C   0  0  0  0  0  0  0  0  0  0  0  0
  -25.5955  -16.8389   26.0025 C   0  0  0  0  0  0  0  0  0  0  0  0
  -24.6682  -30.0326   30.2567 C   0  0  0  0  0  0  0  0  0  0  0  0
  -21.0196  -24.5212   30.6841 C   0  0  0  0  0  0  0  0  0  0  0  0
  -21.2288  -26.9032   29.9421 C   0  0  0  0  0  0  0  0  0  0  0  0
  -21.4017  -26.3335   32.3645 C   0  0  0  0  0  0  0  0  0  0  0  0
  -27.7868  -27.8592   30.4216 C   0  0  0  0  0  0  0  0  0  0  0  0
  -23.3001  -25.7250   30.8096 C   0  0  1  0  0  0  0  0  0  0  0  0
  -25.4903  -28.8149   30.6492 C   0  0  2  0  0  0  0  0  0  0  0  0
  -21.7560  -25.8511   30.9410 C   0  0  0  0  0  0  0  0  0  0  0  0
  -25.8737  -11.5387   20.2016 N   0  0  0  0  0  0  0  0  0  0  0  0
  -27.4832  -17.4666   24.6342 N   0  0  0  0  0  0  0  0  0  0  0  0
  -26.3971  -19.1165   26.0146 N   0  0  0  0  0  0  0  0  0  0  0  0
  -26.2446  -12.8296   20.1555 N   0  0  0  0  0  0  0  0  0  0  0  0
  -29.3321  -18.0711   23.2910 N   0  0  0  0  0  0  0  0  0  0  0  0
  -24.5574  -23.6209   31.1498 N   0  0  0  0  0  0  0  0  0  0  0  0
  -29.9839  -13.6060   20.3080 N   0  0  0  0  0  0  0  0  0  0  0  0
  -25.4827  -15.0303   20.5878 N   0  0  0  0  0  0  0  0  0  0  0  0
  -22.7754  -13.5408   22.7890 N   0  0  0  0  0  0  0  0  0  0  0  0
  -24.0848  -20.3321   32.6521 N   0  0  0  0  0  0  0  0  0  0  0  0
  -24.0254  -26.9630   31.0743 N   0  0  0  0  0  0  0  0  0  0  0  0
  -30.1874  -15.5823   21.5912 N   0  0  0  0  0  0  0  0  0  0  0  0
  -26.8633  -28.9753   30.0923 N   0  3  0  0  0  0  0  0  0  0  0  0
  -21.9830  -13.6749   20.6413 O   0  0  0  0  0  0  0  0  0  0  0  0
  -22.9341  -21.6463   31.1122 O   0  0  0  0  0  0  0  0  0  0  0  0
  -23.7298  -24.8296   32.9637 O   0  0  0  0  0  0  0  0  0  0  0  0
  -25.0804  -27.0852   29.0129 O   0  0  0  0  0  0  0  0  0  0  0  0
  -31.8833  -14.9314   20.1923 O   0  0  0  0  0  0  0  0  0  0  0  0
  -21.6783   -6.9050   21.4158 O   0  0  0  0  0  0  0  0  0  0  0  0
  -27.1460  -21.3156   26.0471 O   0  0  0  0  0  0  0  0  0  1  0  0
  -20.9670   -5.1350   26.5894 F   0  0  0  0  0  0  0  0  0  0  0  0
  -22.5966   -4.4192   22.2033 F   0  0  0  0  0  0  0  0  0  0  0  0
  1  2  1  0  0  0  0
  1  5  2  0  0  0  0
  2  6  2  0  0  0  0
  3  8  2  0  0  0  0
  3 15  1  0  0  0  0
  4  9  1  0  0  0  0
  4 15  2  0  0  0  0
  5 17  1  0  0  0  0
  6 19  1  0  0  0  0
  7 10  2  0  0  0  0
  7 18  1  0  0  0  0
  8 22  1  0  0  0  0
  9 22  2  0  0  0  0
 10 23  1  0  0  0  0
 11 12  2  0  0  0  0
 11 24  1  0  0  0  0
 12 25  1  0  0  0  0
 13 20  1  0  0  0  0
 13 23  2  0  0  0  0
 14 25  2  0  0  0  0
 14 26  1  0  0  0  0
 15 27  1  0  0  0  0
 16 27  1  0  0  0  0
 16 30  2  0  0  0  0
 16 34  1  0  0  0  0
 17 19  2  0  0  0  0
 17 39  1  0  0  0  0
 18 20  2  0  0  0  0
 18 40  1  0  0  0  0
 19 50  1  0  0  0  0
 20 41  1  0  0  0  0
 21 28  2  0  0  0  0
 21 29  1  0  0  0  0
 21 54  1  0  0  0  0
 22 82  1  0  0  0  0
 23 83  1  0  0  0  0
 24 26  2  0  0  0  0
 24 82  1  0  0  0  0
 25 84  1  0  0  0  0
 26 85  1  0  0  0  0
 27 64  2  0  0  0  0
 28 65  1  0  0  0  0
 28 68  1  0  0  0  0
 29 66  2  0  0  0  0
 29 83  1  0  0  0  0
 30 67  1  0  0  0  0
 30 71  1  0  0  0  0
 31 55  1  0  0  0  0
 31 65  2  0  0  0  0
 31 66  1  0  0  0  0
 32 33  2  0  0  0  0
 32 51  1  0  0  0  0
 32 68  1  0  0  0  0
 34 72  1  0  0  0  0
 34 77  2  0  0  0  0
 35 52  1  0  0  0  0
 35 73  1  0  0  0  0
 35 78  2  0  0  0  0
 36 61  1  0  0  0  0
 36 69  1  0  0  0  0
 36 79  2  0  0  0  0
 37 62  1  0  0  0  0
 37 74  1  0  0  0  0
 37 80  2  0  0  0  0
 38 70  1  0  0  0  0
 38 75  1  0  0  0  0
 38 81  2  0  0  0  0
 39 42  1  0  0  0  0
 40 52  1  0  0  0  0
 41 69  1  0  0  0  0
 42 44  1  0  0  0  0
 43 45  1  0  0  0  0
 43 47  1  0  0  0  0
 44 50  1  0  0  0  0
 45 53  1  0  0  0  0
 46 48  1  0  0  0  0
 46 51  1  0  0  0  0
 47 70  1  0  0  0  0
 48 68  1  0  0  0  0
 49 53  1  0  0  0  0
 49 70  1  0  0  0  0
 50 73  1  0  0  0  0
 51 75  1  0  0  0  0
 52 69  1  0  0  0  0
 53 67  1  0  0  0  0
 56 62  1  0  0  0  0
 57 63  1  0  0  0  0
 58 63  1  0  0  0  0
 59 63  1  0  0  0  0
 60 76  1  0  0  0  0
 61 63  1  0  0  0  0
 61 74  1  0  0  0  0
 62 76  1  0  0  0  0
 64 67  1  0  0  0  0
M  CHG  1  76   1
M  ISO  4  29 101  38 100  75 100  83 101
M  END
> <Batch ID>
0181

> <Smiles>
C=C1C([100NH:0][100C:0](=O)N2CCCC(n3nc(-c4ccc(Oc5ccc(F)cc5F)cc4)c(C(N)=O)c3N)C2)CCN1c1nc(C)n[101c:1]([101O:1]c2ccc3c(c2)CN(C(=O)C(NC(=O)C(C)NC)C(C)(C)C)C(C(=O)NC2CCCc4ccccc42)C3)c1C

> <Shape>
0.191

> <Color>
0.175

> <Negative vol penalty>
0.000

$$$$

  -OEChem-04052323023D

 82 91  0     1  0  0  0  0  0999 V2000
  -18.8784  -31.0763   23.8013 C   0  0  0  0  0  0  0  0  0  0  0  0
  -20.2606  -30.9841   23.6723 C   0  0  0  0  0  0  0  0  0  0  0  0
  -24.6366  -12.7753   21.7736 C   0  0  0  0  0  0  0  0  0  0  0  0
  -25.9900  -13.1436   19.8065 C   0  0  0  0  0  0  0  0  0  0  0  0
  -18.0741  -29.9878   23.4663 C   0  0  0  0  0  0  0  0  0  0  0  0
  -20.8393  -29.8030   23.2093 C   0  0  0  0  0  0  0  0  0  0  0  0
  -25.8464  -29.2771   19.7224 C   0  0  0  0  0  0  0  0  0  0  0  0
  -24.0189  -11.6936   21.1462 C   0  0  0  0  0  0  0  0  0  0  0  0
  -25.3723  -12.0618   19.1790 C   0  0  0  0  0  0  0  0  0  0  0  0
  -27.1776  -28.9982   20.0287 C   0  0  0  0  0  0  0  0  0  0  0  0
  -24.7364   -8.4564   20.4835 C   0  0  0  0  0  0  0  0  0  0  0  0
  -24.5734   -7.2849   21.2228 C   0  0  0  0  0  0  0  0  0  0  0  0
  -26.8007  -26.6704   19.5204 C   0  0  0  0  0  0  0  0  0  0  0  0
  -22.1793   -7.4372   20.9363 C   0  0  0  0  0  0  0  0  0  0  0  0
  -25.6221  -13.5004   21.1038 C   0  0  0  0  0  0  0  0  0  0  0  0
  -27.4222  -14.5909   22.5454 C   0  0  0  0  0  0  0  0  0  0  0  0
  -18.6427  -28.7960   22.9897 C   0  0  0  0  0  0  0  0  0  0  0  0
  -24.9781  -28.2511   19.3226 C   0  0  0  0  0  0  0  0  0  0  0  0
  -20.0420  -28.6971   22.8689 C   0  0  0  0  0  0  0  0  0  0  0  0
  -25.4596  -26.9393   19.2071 C   0  0  0  0  0  0  0  0  0  0  0  0
  -24.3867  -11.3367   19.8489 C   0  0  0  0  0  0  0  0  0  0  0  0
  -27.6543  -27.6943   19.9305 C   0  0  0  0  0  0  0  0  0  0  0  0
  -23.6208   -9.1185   19.9707 C   0  0  0  0  0  0  0  0  0  0  0  0
  -23.2949   -6.7753   21.4492 C   0  0  0  0  0  0  0  0  0  0  0  0
  -22.3423   -8.6088   20.1971 C   0  0  0  0  0  0  0  0  0  0  0  0
  -26.2601  -14.6184   21.7512 C   0  0  0  0  0  0  0  0  0  0  0  0
  -27.6129  -15.8984   22.9203 C   0  0  0  0  0  0  0  0  0  0  0  0
  -29.9146  -23.7910   19.8654 C   0  0  0  0  0  0  0  0  0  0  0  0
  -30.8783  -21.8311   19.3489 C   0  0  0  0  0  0  0  0  0  0  0  0
  -28.6845  -22.1333   18.9846 C   0  0  0  0  0  0  0  0  0  0  0  0
  -28.2549  -13.4826   22.9113 C   0  0  0  0  0  0  0  0  0  0  0  0
  -22.3002  -26.9972   20.4890 C   0  0  0  0  0  0  0  0  0  0  0  0
  -22.3317  -25.3274   17.7082 C   0  0  0  0  0  0  0  0  0  0  0  0
  -24.1447  -24.0672   15.1059 C   0  0  0  0  0  0  0  0  0  0  0  0
  -25.9662  -21.1180   20.4923 C   0  0  0  0  0  0  0  0  0  0  0  0
  -17.7357  -27.6301   22.6851 C   0  0  0  0  0  0  0  0  0  0  0  0
  -23.5517  -28.5728   18.9700 C   0  0  0  0  0  0  0  0  0  0  0  0
  -24.5732  -25.8054   18.7629 C   0  0  0  0  0  0  0  0  0  0  0  0
  -18.4025  -26.5426   21.8465 C   0  0  0  0  0  0  0  0  0  0  0  0
  -25.1986  -19.9419   23.7640 C   0  0  0  0  0  0  0  0  0  0  0  0
  -19.7859  -26.2152   22.3993 C   0  0  0  0  0  0  0  0  0  0  0  0
  -25.4885  -18.4417   23.6908 C   0  0  0  0  0  0  0  0  0  0  0  0
  -31.0237  -26.1236   19.7942 C   0  0  0  0  0  0  0  0  0  0  0  0
  -24.6065  -20.4667   22.4579 C   0  0  0  0  0  0  0  0  0  0  0  0
  -25.6873  -18.6587   21.1784 C   0  0  0  0  0  0  0  0  0  0  0  0
  -20.7055  -27.4413   22.3466 C   0  0  1  0  0  0  0  0  0  0  0  0
  -30.0173  -25.1711   20.3965 C   0  0  1  0  0  0  0  0  0  0  0  0
  -22.6248  -27.3651   19.0688 C   0  0  1  0  0  0  0  0  0  0  0  0
  -26.3375  -18.0944   22.4532 C   0  0  2  0  0  0  0  0  0  0  0  0
  -29.5623  -26.3303   19.5371 C   0  0  1  0  0  0  0  0  0  1  0  0
  -32.0884  -20.9622   19.2923 C   0  0  0  0  0  0  0  0  0  0  0  0
  -23.8992  -22.7146   13.0065 C   0  0  0  0  0  0  0  0  0  0  0  0
  -22.0895  -22.7848   19.3776 C   0  0  0  0  0  0  0  0  0  0  0  0
  -22.7977  -21.4779   17.3630 C   0  0  0  0  0  0  0  0  0  0  0  0
  -20.6892  -22.8097   17.3057 C   0  0  0  0  0  0  0  0  0  0  0  0
  -25.1175  -26.2954   13.4183 C   0  0  0  0  0  0  0  0  0  0  0  0
  -27.3712  -21.6135   18.5074 C   0  0  0  0  0  0  0  0  0  0  0  0
  -22.9144  -24.0090   17.2594 C   0  0  1  0  0  0  0  0  0  0  0  0
  -23.9184  -24.1123   13.6055 C   0  0  2  0  0  0  0  0  0  0  0  0
  -22.1392  -22.7912   17.8367 C   0  0  0  0  0  0  0  0  0  0  0  0
  -25.7485  -15.8460   21.6284 N   0  0  0  0  0  0  0  0  0  0  0  0
  -31.0461  -23.0681   19.8434 N   0  0  0  0  0  0  0  0  0  0  0  0
  -28.7005  -23.3913   19.4537 N   0  0  0  0  0  0  0  0  0  0  0  0
  -29.7309  -21.2959   18.9018 N   0  0  0  0  0  0  0  0  0  0  0  0
  -26.5929  -16.6021   22.3504 N   0  0  0  0  0  0  0  0  0  0  0  0
  -23.1848  -26.1695   18.4354 N   0  0  0  0  0  0  0  0  0  0  0  0
  -25.4603  -20.1052   21.3237 N   0  0  0  0  0  0  0  0  0  0  0  0
  -28.5517  -16.5033   23.6786 N   0  0  0  0  0  0  0  0  0  0  0  0
  -27.9151  -12.2072   22.4397 N   0  0  0  0  0  0  0  0  0  0  0  0
  -21.1942  -27.6490   21.0003 N   0  0  0  0  0  0  0  0  0  0  0  0
  -22.9543  -24.0555   15.8017 N   0  0  0  0  0  0  0  0  0  0  0  0
  -26.7719  -20.6895   19.4444 N   0  0  0  0  0  0  0  0  0  0  0  0
  -25.0003  -24.8932   12.9417 N   0  3  0  0  0  0  0  0  0  0  0  0
  -29.2609  -13.6166   23.6486 O   0  0  0  0  0  0  0  0  0  0  0  0
  -23.0004  -26.1813   21.0769 O   0  0  0  0  0  0  0  0  0  0  0  0
  -21.1649  -25.6029   17.4179 O   0  0  0  0  0  0  0  0  0  0  0  0
  -25.2652  -24.0410   15.6100 O   0  0  0  0  0  0  0  0  0  0  0  0
  -25.7225  -22.3157   20.6737 O   0  0  0  0  0  0  0  0  0  0  0  0
  -23.7844  -10.2810   19.2363 O   0  0  0  0  0  0  0  0  0  0  0  0
  -28.9530  -27.4193   20.2294 O   0  0  0  0  0  0  0  0  0  1  0  0
  -23.1386   -5.6494   22.1578 F   0  0  0  0  0  0  0  0  0  0  0  0
  -21.2669   -9.2398   19.7060 F   0  0  0  0  0  0  0  0  0  0  0  0
  1  2  1  0  0  0  0
  1  5  2  0  0  0  0
  2  6  2  0  0  0  0
  3  8  2  0  0  0  0
  3 15  1  0  0  0  0
  4  9  1  0  0  0  0
  4 15  2  0  0  0  0
  5 17  1  0  0  0  0
  6 19  1  0  0  0  0
  7 10  2  0  0  0  0
  7 18  1  0  0  0  0
  8 21  1  0  0  0  0
  9 21  2  0  0  0  0
 10 22  1  0  0  0  0
 11 12  2  0  0  0  0
 11 23  1  0  0  0  0
 12 24  1  0  0  0  0
 13 20  1  0  0  0  0
 13 22  2  0  0  0  0
 14 24  2  0  0  0  0
 14 25  1  0  0  0  0
 15 26  1  0  0  0  0
 16 26  1  0  0  0  0
 16 27  2  0  0  0  0
 16 31  1  0  0  0  0
 17 19  2  0  0  0  0
 17 36  1  0  0  0  0
 18 20  2  0  0  0  0
 18 37  1  0  0  0  0
 19 46  1  0  0  0  0
 20 38  1  0  0  0  0
 21 79  1  0  0  0  0
 22 80  1  0  0  0  0
 23 25  2  0  0  0  0
 23 79  1  0  0  0  0
 24 81  1  0  0  0  0
 25 82  1  0  0  0  0
 26 61  2  0  0  0  0
 27 65  1  0  0  0  0
 27 68  1  0  0  0  0
 28 47  1  0  0  0  0
 28 62  1  0  0  0  0
 28 63  2  0  0  0  0
 29 51  1  0  0  0  0
 29 62  2  0  0  0  0
 29 64  1  0  0  0  0
 30 57  1  0  0  0  0
 30 63  1  0  0  0  0
 30 64  2  0  0  0  0
 31 69  1  0  0  0  0
 31 74  2  0  0  0  0
 32 48  1  0  0  0  0
 32 70  1  0  0  0  0
 32 75  2  0  0  0  0
 33 58  1  0  0  0  0
 33 66  1  0  0  0  0
 33 76  2  0  0  0  0
 34 59  1  0  0  0  0
 34 71  1  0  0  0  0
 34 77  2  0  0  0  0
 35 67  1  0  0  0  0
 35 72  1  0  0  0  0
 35 78  2  0  0  0  0
 36 39  1  0  0  0  0
 37 48  1  0  0  0  0
 38 66  1  0  0  0  0
 39 41  1  0  0  0  0
 40 42  1  0  0  0  0
 40 44  1  0  0  0  0
 41 46  1  0  0  0  0
 42 49  1  0  0  0  0
 43 47  1  0  0  0  0
 43 50  1  0  0  0  0
 44 67  1  0  0  0  0
 45 49  1  0  0  0  0
 45 67  1  0  0  0  0
 46 70  1  0  0  0  0
 47 50  1  0  0  0  0
 48 66  1  0  0  0  0
 49 65  1  0  0  0  0
 50 80  1  0  0  0  0
 52 59  1  0  0  0  0
 53 60  1  0  0  0  0
 54 60  1  0  0  0  0
 55 60  1  0  0  0  0
 56 73  1  0  0  0  0
 57 72  1  0  0  0  0
 58 60  1  0  0  0  0
 58 71  1  0  0  0  0
 59 73  1  0  0  0  0
 61 65  1  0  0  0  0
M  CHG  1  73   1
M  ISO  4  35 100  50 101  72 100  80 101
M  END
> <Batch ID>
0181

> <Smiles>
CNC(C)C(=O)NC(C(=O)N1Cc2cc([101O:1][101CH:1]3CC3c3nc(C)nc(C[100NH:0][100C:0](=O)N4CCCC(n5nc(-c6ccc(Oc7ccc(F)cc7F)cc6)c(C(N)=O)c5N)C4)n3)ccc2CC1C(=O)NC1CCCc2ccccc21)C(C)(C)C

> <Shape>
0.226

> <Color>
0.076

> <Negative vol penalty>
0.000

$$$$

  -OEChem-04052323023D

 83 92  0     1  0  0  0  0  0999 V2000
  -28.1828  -25.1036   16.1423 C   0  0  0  0  0  0  0  0  0  0  0  0
  -27.0256  -25.1792   16.9108 C   0  0  0  0  0  0  0  0  0  0  0  0
  -27.4241  -17.5986   20.5707 C   0  0  0  0  0  0  0  0  0  0  0  0
  -26.9159  -17.5156   22.9312 C   0  0  0  0  0  0  0  0  0  0  0  0
  -29.3703  -25.6597   16.6160 C   0  0  0  0  0  0  0  0  0  0  0  0
  -27.0555  -25.8101   18.1539 C   0  0  0  0  0  0  0  0  0  0  0  0
  -23.1005  -28.8921   18.8641 C   0  0  0  0  0  0  0  0  0  0  0  0
  -28.7178  -18.0295   20.8643 C   0  0  0  0  0  0  0  0  0  0  0  0
  -28.2096  -17.9465   23.2248 C   0  0  0  0  0  0  0  0  0  0  0  0
  -21.8844  -28.2998   19.2020 C   0  0  0  0  0  0  0  0  0  0  0  0
  -31.3049  -16.5999   23.3877 C   0  0  0  0  0  0  0  0  0  0  0  0
  -31.9912  -15.9383   24.4060 C   0  0  0  0  0  0  0  0  0  0  0  0
  -22.2632  -28.8576   21.5181 C   0  0  0  0  0  0  0  0  0  0  0  0
  -32.1778  -18.0138   25.6285 C   0  0  0  0  0  0  0  0  0  0  0  0
  -18.2491  -25.4010   21.0480 C   0  0  0  0  0  0  0  0  0  0  0  0
  -26.5231  -17.3417   21.6041 C   0  0  0  0  0  0  0  0  0  0  0  0
  -24.7441  -15.5682   21.1596 C   0  0  0  0  0  0  0  0  0  0  0  0
  -29.4125  -26.3062   17.8613 C   0  0  0  0  0  0  0  0  0  0  0  0
  -23.9135  -29.4628   19.8538 C   0  0  0  0  0  0  0  0  0  0  0  0
  -28.2450  -26.3742   18.6453 C   0  0  0  0  0  0  0  0  0  0  0  0
  -23.4879  -29.4587   21.1899 C   0  0  0  0  0  0  0  0  0  0  0  0
  -29.1106  -18.2034   22.1914 C   0  0  0  0  0  0  0  0  0  0  0  0
  -21.4669  -28.2800   20.5295 C   0  0  0  0  0  0  0  0  0  0  0  0
  -31.0551  -17.9684   23.4897 C   0  0  0  0  0  0  0  0  0  0  0  0
  -32.4276  -16.6452   25.5264 C   0  0  0  0  0  0  0  0  0  0  0  0
  -31.4916  -18.6753   24.6102 C   0  0  0  0  0  0  0  0  0  0  0  0
  -25.1864  -16.8971   21.3014 C   0  0  0  0  0  0  0  0  0  0  0  0
  -18.2359  -26.5867   20.3421 C   0  0  0  0  0  0  0  0  0  0  0  0
  -17.0234  -24.9683   21.5112 C   0  0  0  0  0  0  0  0  0  0  0  0
  -23.4049  -15.6804   20.8761 C   0  0  0  0  0  0  0  0  0  0  0  0
  -15.9860  -26.7762   20.6044 C   0  0  0  0  0  0  0  0  0  0  0  0
  -25.4782  -14.3419   21.2741 C   0  0  0  0  0  0  0  0  0  0  0  0
  -26.8431  -28.8988   20.9506 C   0  0  0  0  0  0  0  0  0  0  0  0
  -26.2944  -31.5906   22.6755 C   0  0  0  0  0  0  0  0  0  0  0  0
  -24.0269  -33.7227   24.0754 C   0  0  0  0  0  0  0  0  0  0  0  0
  -19.5220  -19.9529   22.2077 C   0  0  0  0  0  0  0  0  0  0  0  0
  -30.7305  -26.8508   18.3522 C   0  0  0  0  0  0  0  0  0  0  0  0
  -25.2100  -30.1214   19.4694 C   0  0  0  0  0  0  0  0  0  0  0  0
  -24.3145  -30.0758   22.2873 C   0  0  0  0  0  0  0  0  0  0  0  0
  -30.5899  -27.8308   19.5142 C   0  0  0  0  0  0  0  0  0  0  0  0
  -20.2211  -18.6038   18.8723 C   0  0  0  0  0  0  0  0  0  0  0  0
  -29.6365  -27.2761   20.5679 C   0  0  0  0  0  0  0  0  0  0  0  0
  -21.5737  -17.9383   19.1037 C   0  0  0  0  0  0  0  0  0  0  0  0
  -20.0449  -19.8701   19.7113 C   0  0  0  0  0  0  0  0  0  0  0  0
  -21.6448  -18.9916   21.3905 C   0  0  0  0  0  0  0  0  0  0  0  0
  -17.7723  -21.5957   23.0827 C   0  0  0  0  0  0  0  0  0  0  0  0
  -18.6836  -22.2532   21.2760 C   0  0  0  0  0  0  0  0  0  0  0  0
  -28.2316  -27.0722   19.9880 C   0  0  1  0  0  0  0  0  0  0  0  0
  -26.1982  -30.2169   20.6278 C   0  0  1  0  0  0  0  0  0  0  0  0
  -21.7991  -17.6838   20.6015 C   0  0  2  0  0  0  0  0  0  0  0  0
  -18.1345  -22.9727   22.5153 C   0  0  0  0  0  0  0  0  0  0  0  0
  -14.7292  -27.5398   20.3579 C   0  0  0  0  0  0  0  0  0  0  0  0
  -23.8800  -35.8129   25.4561 C   0  0  0  0  0  0  0  0  0  0  0  0
  -27.0274  -29.9921   25.1689 C   0  0  0  0  0  0  0  0  0  0  0  0
  -25.9671  -31.7917   26.5494 C   0  0  0  0  0  0  0  0  0  0  0  0
  -27.9396  -32.3201   25.1167 C   0  0  0  0  0  0  0  0  0  0  0  0
  -22.5944  -35.1765   21.9322 C   0  0  0  0  0  0  0  0  0  0  0  0
  -19.5138  -27.1349   19.8015 C   0  0  0  0  0  0  0  0  0  1  0  0
  -25.6980  -31.8896   24.0296 C   0  0  1  0  0  0  0  0  0  0  0  0
  -23.9183  -35.2366   24.0493 C   0  0  2  0  0  0  0  0  0  0  0  0
  -26.6431  -31.4850   25.1960 C   0  0  0  0  0  0  0  0  0  0  0  0
  -24.2075  -17.7882   21.1225 N   0  0  0  0  0  0  0  0  0  0  0  0
  -17.1184  -27.3030   20.1007 N   0  0  0  0  0  0  0  0  0  0  0  0
  -15.8674  -25.6335   21.3071 N   0  0  0  0  0  0  0  0  0  0  0  0
  -23.1369  -17.0176   20.8653 N   0  0  0  0  0  0  0  0  0  0  0  0
  -25.5772  -30.7021   21.8619 N   0  0  0  0  0  0  0  0  0  0  0  0
  -20.3527  -19.6362   21.1274 N   0  0  0  0  0  0  0  0  0  0  0  0
  -18.6966  -21.0474   22.0929 N   0  0  0  0  0  0  0  0  0  0  0  0
  -22.4422  -14.7646   20.6374 N   0  0  0  0  0  0  0  0  0  0  0  0
  -26.8466  -14.4076   21.5702 N   0  0  0  0  0  0  0  0  0  0  0  0
  -16.9938  -23.7697   22.2319 N   0  0  0  0  0  0  0  0  0  0  0  0
  -27.5349  -28.3372   19.8944 N   0  0  0  0  0  0  0  0  0  0  0  0
  -25.3392  -33.3037   24.0145 N   0  0  0  0  0  0  0  0  0  0  0  0
  -22.6784  -35.6548   23.3362 N   0  3  0  0  0  0  0  0  0  0  0  0
  -24.9403  -13.2218   21.1022 O   0  0  0  0  0  0  0  0  0  0  0  0
  -26.7234  -28.4269   22.0752 O   0  0  0  0  0  0  0  0  0  0  0  0
  -27.3539  -32.1313   22.3486 O   0  0  0  0  0  0  0  0  0  0  0  0
  -23.0460  -32.9856   24.1466 O   0  0  0  0  0  0  0  0  0  0  0  0
  -19.5375  -19.2975   23.2580 O   0  0  0  0  0  0  0  0  0  0  0  0
  -30.3730  -18.6236   22.4783 O   0  0  0  0  0  0  0  0  0  0  0  0
  -20.2724  -27.6980   20.8645 O   0  0  0  0  0  0  0  0  0  1  0  0
  -33.0853  -16.0095   26.5049 F   0  0  0  0  0  0  0  0  0  0  0  0
  -31.2535  -19.9900   24.7144 F   0  0  0  0  0  0  0  0  0  0  0  0
  1  2  1  0  0  0  0
  1  5  2  0  0  0  0
  2  6  2  0  0  0  0
  3  8  2  0  0  0  0
  3 16  1  0  0  0  0
  4  9  1  0  0  0  0
  4 16  2  0  0  0  0
  5 18  1  0  0  0  0
  6 20  1  0  0  0  0
  7 10  2  0  0  0  0
  7 19  1  0  0  0  0
  8 22  1  0  0  0  0
  9 22  2  0  0  0  0
 10 23  1  0  0  0  0
 11 12  2  0  0  0  0
 11 24  1  0  0  0  0
 12 25  1  0  0  0  0
 13 21  1  0  0  0  0
 13 23  2  0  0  0  0
 14 25  2  0  0  0  0
 14 26  1  0  0  0  0
 15 28  1  0  0  0  0
 15 29  2  0  0  0  0
 16 27  1  0  0  0  0
 17 27  1  0  0  0  0
 17 30  2  0  0  0  0
 17 32  1  0  0  0  0
 18 20  2  0  0  0  0
 18 37  1  0  0  0  0
 19 21  2  0  0  0  0
 19 38  1  0  0  0  0
 20 48  1  0  0  0  0
 21 39  1  0  0  0  0
 22 80  1  0  0  0  0
 23 81  1  0  0  0  0
 24 26  2  0  0  0  0
 24 80  1  0  0  0  0
 25 82  1  0  0  0  0
 26 83  1  0  0  0  0
 27 62  2  0  0  0  0
 28 58  1  0  0  0  0
 28 63  2  0  0  0  0
 29 64  1  0  0  0  0
 29 71  1  0  0  0  0
 30 65  1  0  0  0  0
 30 69  1  0  0  0  0
 31 52  1  0  0  0  0
 31 63  1  0  0  0  0
 31 64  2  0  0  0  0
 32 70  1  0  0  0  0
 32 75  2  0  0  0  0
 33 49  1  0  0  0  0
 33 72  1  0  0  0  0
 33 76  2  0  0  0  0
 34 59  1  0  0  0  0
 34 66  1  0  0  0  0
 34 77  2  0  0  0  0
 35 60  1  0  0  0  0
 35 73  1  0  0  0  0
 35 78  2  0  0  0  0
 36 67  1  0  0  0  0
 36 68  1  0  0  0  0
 36 79  2  0  0  0  0
 37 40  1  0  0  0  0
 38 49  1  0  0  0  0
 39 66  1  0  0  0  0
 40 42  1  0  0  0  0
 41 43  1  0  0  0  0
 41 44  1  0  0  0  0
 42 48  1  0  0  0  0
 43 50  1  0  0  0  0
 44 67  1  0  0  0  0
 45 50  1  0  0  0  0
 45 67  1  0  0  0  0
 46 51  1  0  0  0  0
 46 68  1  0  0  0  0
 47 51  1  0  0  0  0
 47 68  1  0  0  0  0
 48 72  1  0  0  0  0
 49 66  1  0  0  0  0
 50 65  1  0  0  0  0
 51 71  1  0  0  0  0
 53 60  1  0  0  0  0
 54 61  1  0  0  0  0
 55 61  1  0  0  0  0
 56 61  1  0  0  0  0
 57 74  1  0  0  0  0
 58 81  1  0  0  0  0
 59 61  1  0  0  0  0
 59 73  1  0  0  0  0
 60 74  1  0  0  0  0
 62 65  1  0  0  0  0
M  CHG  1  74   1
M  ISO  4  36 100  58 101  68 100  81 101
M  END
> <Batch ID>
0181

> <Smiles>
CNC(C)C(=O)NC(C(=O)N1Cc2cc([101O:1][101CH2:1]c3cc(NC4C[100N:0]([100C:0](=O)N5CCCC(n6nc(-c7ccc(Oc8ccc(F)cc8F)cc7)c(C(N)=O)c6N)C5)C4)nc(C)n3)ccc2CC1C(=O)NC1CCCc2ccccc21)C(C)(C)C

> <Shape>
0.221

> <Color>
0.073

> <Negative vol penalty>
0.000

$$$$

  -OEChem-04052323023D

 88 97  0     1  0  0  0  0  0999 V2000
  -25.6372  -10.6135   21.2167 C   0  0  0  0  0  0  0  0  0  0  0  0
  -25.9303  -11.7767   21.9213 C   0  0  0  0  0  0  0  0  0  0  0  0
  -29.0016  -17.1395   19.2402 C   0  0  0  0  0  0  0  0  0  0  0  0
  -30.4880  -18.1626   20.8467 C   0  0  0  0  0  0  0  0  0  0  0  0
  -24.8273  -10.6717   20.0834 C   0  0  0  0  0  0  0  0  0  0  0  0
  -25.4145  -12.9991   21.4921 C   0  0  0  0  0  0  0  0  0  0  0  0
  -23.0904  -19.2798   24.0353 C   0  0  0  0  0  0  0  0  0  0  0  0
  -29.7803  -15.9824   19.2565 C   0  0  0  0  0  0  0  0  0  0  0  0
  -31.2667  -17.0055   20.8631 C   0  0  0  0  0  0  0  0  0  0  0  0
  -23.2887  -20.6496   23.8675 C   0  0  0  0  0  0  0  0  0  0  0  0
  -30.1986  -13.2895   21.2581 C   0  0  0  0  0  0  0  0  0  0  0  0
  -29.5372  -12.0642   21.3393 C   0  0  0  0  0  0  0  0  0  0  0  0
  -21.8363  -20.6179   21.9418 C   0  0  0  0  0  0  0  0  0  0  0  0
  -30.5111  -11.3988   19.2308 C   0  0  0  0  0  0  0  0  0  0  0  0
  -29.3554  -18.2297   20.0352 C   0  0  0  0  0  0  0  0  0  0  0  0
  -27.1911  -19.5401   20.3607 C   0  0  0  0  0  0  0  0  0  0  0  0
  -24.2934  -11.8940   19.6457 C   0  0  0  0  0  0  0  0  0  0  0  0
  -22.2708  -18.5655   23.1496 C   0  0  0  0  0  0  0  0  0  0  0  0
  -24.5978  -13.0739   20.3510 C   0  0  0  0  0  0  0  0  0  0  0  0
  -21.6271  -19.2396   22.1020 C   0  0  0  0  0  0  0  0  0  0  0  0
  -22.7269  -26.9160   22.9720 C   0  0  0  0  0  0  0  0  0  0  0  0
  -24.0023  -27.4567   22.7156 C   0  0  0  0  0  0  0  0  0  0  0  0
  -22.6276  -25.5491   23.2776 C   0  0  0  0  0  0  0  0  0  0  0  0
  -30.9128  -15.9153   20.0680 C   0  0  0  0  0  0  0  0  0  0  0  0
  -22.6639  -21.3183   22.8190 C   0  0  0  0  0  0  0  0  0  0  0  0
  -31.0162  -13.5696   20.1632 C   0  0  0  0  0  0  0  0  0  0  0  0
  -29.6935  -11.1188   20.3257 C   0  0  0  0  0  0  0  0  0  0  0  0
  -31.1725  -12.6242   19.1496 C   0  0  0  0  0  0  0  0  0  0  0  0
  -28.5517  -19.4254   20.0183 C   0  0  0  0  0  0  0  0  0  0  0  0
  -25.0788  -26.5641   22.7120 C   0  0  0  0  0  0  0  0  0  0  0  0
  -23.7724  -24.7703   23.2714 C   0  0  0  0  0  0  0  0  0  0  0  0
  -26.9024  -20.8707   20.1797 C   0  0  0  0  0  0  0  0  0  0  0  0
  -26.2704  -18.5339   20.8030 C   0  0  0  0  0  0  0  0  0  0  0  0
  -22.7228  -16.1646   21.1162 C   0  0  0  0  0  0  0  0  0  0  0  0
  -19.4995  -16.3411   20.7981 C   0  0  0  0  0  0  0  0  0  0  0  0
  -16.6617  -18.2197   21.0522 C   0  0  0  0  0  0  0  0  0  0  0  0
  -28.2131  -26.2613   20.7867 C   0  0  0  0  0  0  0  0  0  0  0  0
  -23.4616  -11.9139   18.3878 C   0  0  0  0  0  0  0  0  0  0  0  0
  -22.0458  -17.0933   23.3601 C   0  0  0  0  0  0  0  0  0  0  0  0
  -20.7213  -18.5225   21.1357 C   0  0  0  0  0  0  0  0  0  0  0  0
  -22.6487  -13.1945   18.2153 C   0  0  0  0  0  0  0  0  0  0  0  0
  -29.5855  -24.5521   17.9810 C   0  0  0  0  0  0  0  0  0  0  0  0
  -23.5167  -14.4187   18.4886 C   0  0  0  0  0  0  0  0  0  0  0  0
  -29.3323  -23.0760   18.2922 C   0  0  0  0  0  0  0  0  0  0  0  0
  -29.9197  -25.3455   19.2423 C   0  0  0  0  0  0  0  0  0  0  0  0
  -28.6831  -23.7403   20.6451 C   0  0  0  0  0  0  0  0  0  0  0  0
  -23.0037  -29.8021   22.7043 C   0  0  0  0  0  0  0  0  0  0  0  0
  -24.2128  -28.9202   22.3742 C   0  0  1  0  0  0  0  0  0  0  0  0
  -24.0368  -14.4152   19.9312 C   0  0  1  0  0  0  0  0  0  0  0  0
  -21.5998  -16.3699   22.0931 C   0  0  1  0  0  0  0  0  0  0  0  0
  -28.2873  -22.9103   19.4120 C   0  0  2  0  0  0  0  0  0  0  0  0
  -21.4793  -27.7975   22.9592 C   0  0  0  0  0  0  0  0  0  0  0  0
  -21.3421  -24.8547   23.5939 C   0  0  0  0  0  0  0  0  0  0  0  0
  -25.4408  -29.5351   23.0638 C   0  0  0  0  0  0  0  0  0  0  0  0
  -20.2644  -27.1178   22.2856 C   0  0  0  0  0  0  0  0  0  0  0  0
  -21.0734  -28.1165   24.4185 C   0  0  0  0  0  0  0  0  0  0  0  0
  -14.1817  -18.1014   20.6873 C   0  0  0  0  0  0  0  0  0  0  0  0
  -19.9344  -16.5647   17.7863 C   0  0  0  0  0  0  0  0  0  0  0  0
  -17.5779  -17.3841   17.5771 C   0  0  0  0  0  0  0  0  0  0  0  0
  -18.0266  -15.0940   18.4584 C   0  0  0  0  0  0  0  0  0  0  0  0
  -21.6309  -29.1268   20.7290 C   0  0  0  0  0  0  0  0  0  0  0  0
  -16.0988  -18.7653   23.9060 C   0  0  0  0  0  0  0  0  0  0  0  0
  -26.4631  -27.0251   22.3721 C   0  0  0  0  0  0  0  0  0  0  0  0
  -23.7099  -23.3112   23.5873 C   0  0  0  0  0  0  0  0  0  1  0  0
  -18.5539  -17.1024   19.9008 C   0  0  1  0  0  0  0  0  0  0  0  0
  -15.3142  -17.9281   21.6874 C   0  0  2  0  0  0  0  0  0  0  0  0
  -18.5418  -16.5498   18.4475 C   0  0  0  0  0  0  0  0  0  0  0  0
  -29.0901  -20.5902   19.6476 N   0  0  0  0  0  0  0  0  0  0  0  0
  -24.9984  -25.2427   22.9856 N   0  0  0  0  0  0  0  0  0  0  0  0
  -28.0624  -21.4495   19.7560 N   0  0  0  0  0  0  0  0  0  0  0  0
  -20.5380  -17.0822   21.3795 N   0  0  0  0  0  0  0  0  0  0  0  0
  -28.8890  -25.1464   20.2640 N   0  0  0  0  0  0  0  0  0  0  0  0
  -25.7720  -21.5903   20.3432 N   0  0  0  0  0  0  0  0  0  0  0  0
  -26.1549  -18.2922   22.1787 N   0  0  0  0  0  0  0  0  0  0  0  0
  -22.9967  -14.8377   20.8445 N   0  0  0  0  0  0  0  0  0  0  0  0
  -17.2534  -17.0751   20.5613 N   0  0  0  0  0  0  0  0  0  0  0  0
  -27.2469  -25.9837   21.7460 N   0  0  0  0  0  0  0  0  0  0  0  0
  -21.7213  -29.1542   22.2409 N   0  3  2  0  0  0  0  0  0  0  0  0
  -15.0726  -18.8477   22.8350 N   0  3  0  0  0  0  0  0  0  0  0  0
  -25.5829  -17.8574   20.0010 O   0  0  0  0  0  0  0  0  0  0  0  0
  -23.2973  -17.1380   20.6427 O   0  0  0  0  0  0  0  0  0  0  0  0
  -19.3190  -15.1348   20.9821 O   0  0  0  0  0  0  0  0  0  0  0  0
  -17.1398  -19.3504   20.9937 O   0  0  0  0  0  0  0  0  0  0  0  0
  -28.4491  -27.4179   20.4214 O   0  0  0  0  0  0  0  0  0  0  0  0
  -31.6728  -14.7863   20.0844 O   0  0  0  0  0  0  0  0  0  0  0  0
  -22.8577  -22.6648   22.6513 O   0  0  0  0  0  0  0  0  0  1  0  0
  -29.0595   -9.9415   20.4046 F   0  0  0  0  0  0  0  0  0  0  0  0
  -31.9575  -12.8871   18.0958 F   0  0  0  0  0  0  0  0  0  0  0  0
  1  2  1  0  0  0  0
  1  5  2  0  0  0  0
  2  6  2  0  0  0  0
  3  8  2  0  0  0  0
  3 15  1  0  0  0  0
  4  9  1  0  0  0  0
  4 15  2  0  0  0  0
  5 17  1  0  0  0  0
  6 19  1  0  0  0  0
  7 10  2  0  0  0  0
  7 18  1  0  0  0  0
  8 24  1  0  0  0  0
  9 24  2  0  0  0  0
 10 25  1  0  0  0  0
 11 12  2  0  0  0  0
 11 26  1  0  0  0  0
 12 27  1  0  0  0  0
 13 20  1  0  0  0  0
 13 25  2  0  0  0  0
 14 27  2  0  0  0  0
 14 28  1  0  0  0  0
 15 29  1  0  0  0  0
 16 29  1  0  0  0  0
 16 32  2  0  0  0  0
 16 33  1  0  0  0  0
 17 19  2  0  0  0  0
 17 38  1  0  0  0  0
 18 20  2  0  0  0  0
 18 39  1  0  0  0  0
 19 49  1  0  0  0  0
 20 40  1  0  0  0  0
 21 22  2  0  0  0  0
 21 23  1  0  0  0  0
 21 52  1  0  0  0  0
 22 30  1  0  0  0  0
 22 48  1  0  0  0  0
 23 31  2  0  0  0  0
 23 53  1  0  0  0  0
 24 85  1  0  0  0  0
 25 86  1  0  0  0  0
 26 28  2  0  0  0  0
 26 85  1  0  0  0  0
 27 87  1  0  0  0  0
 28 88  1  0  0  0  0
 29 68  2  0  0  0  0
 30 63  1  0  0  0  0
 30 69  2  0  0  0  0
 31 64  1  0  0  0  0
 31 69  1  0  0  0  0
 32 70  1  0  0  0  0
 32 73  1  0  0  0  0
 33 74  1  0  0  0  0
 33 80  2  0  0  0  0
 34 50  1  0  0  0  0
 34 75  1  0  0  0  0
 34 81  2  0  0  0  0
 35 65  1  0  0  0  0
 35 71  1  0  0  0  0
 35 82  2  0  0  0  0
 36 66  1  0  0  0  0
 36 76  1  0  0  0  0
 36 83  2  0  0  0  0
 37 72  1  0  0  0  0
 37 77  1  0  0  0  0
 37 84  2  0  0  0  0
 38 41  1  0  0  0  0
 39 50  1  0  0  0  0
 40 71  1  0  0  0  0
 41 43  1  0  0  0  0
 42 44  1  0  0  0  0
 42 45  1  0  0  0  0
 43 49  1  0  0  0  0
 44 51  1  0  0  0  0
 45 72  1  0  0  0  0
 46 51  1  0  0  0  0
 46 72  1  0  0  0  0
 47 48  1  0  0  0  0
 47 78  1  0  0  0  0
 48 54  1  0  0  0  0
 49 75  1  0  0  0  0
 50 71  1  0  0  0  0
 51 70  1  0  0  0  0
 52 55  1  0  0  0  0
 52 56  1  0  0  0  0
 52 78  1  0  0  0  0
 57 66  1  0  0  0  0
 58 67  1  0  0  0  0
 59 67  1  0  0  0  0
 60 67  1  0  0  0  0
 61 78  1  0  0  0  0
 62 79  1  0  0  0  0
 63 77  1  0  0  0  0
 64 86  1  0  0  0  0
 65 67  1  0  0  0  0
 65 76  1  0  0  0  0
 66 79  1  0  0  0  0
 68 70  1  0  0  0  0
M  CHG  2  78   1  79   1
M  ISO  4  37 100  64 101  77 100  86 101
M  END
> <Batch ID>
0181

> <Smiles>
CNC(C)C(=O)NC(C(=O)N1Cc2cc([101O:1][101CH2:1]c3nc(C[100NH:0][100C:0](=O)N4CCCC(n5nc(-c6ccc(Oc7ccc(F)cc7F)cc6)c(C(N)=O)c5N)C4)c4c(c3C)C(C)(C)N(C)CC4C)ccc2CC1C(=O)NC1CCCc2ccccc21)C(C)(C)C

> <Shape>
0.204

> <Color>
0.069

> <Negative vol penalty>
0.000

$$$$

  -OEChem-04052323023D

 82 91  0     1  0  0  0  0  0999 V2000
  -16.2897  -28.0798   21.9366 C   0  0  0  0  0  0  0  0  0  0  0  0
  -17.4311  -27.5942   21.3065 C   0  0  0  0  0  0  0  0  0  0  0  0
  -25.1513  -14.3025   21.4170 C   0  0  0  0  0  0  0  0  0  0  0  0
  -26.6395  -12.4033   21.2932 C   0  0  0  0  0  0  0  0  0  0  0  0
  -16.4086  -28.9763   22.9978 C   0  0  0  0  0  0  0  0  0  0  0  0
  -18.6921  -28.0058   21.7366 C   0  0  0  0  0  0  0  0  0  0  0  0
  -23.8220  -24.6622   21.8319 C   0  0  0  0  0  0  0  0  0  0  0  0
  -24.1516  -13.5601   20.7885 C   0  0  0  0  0  0  0  0  0  0  0  0
  -25.6398  -11.6609   20.6647 C   0  0  0  0  0  0  0  0  0  0  0  0
  -24.9058  -24.5820   20.9585 C   0  0  0  0  0  0  0  0  0  0  0  0
  -22.8483   -9.9818   21.5640 C   0  0  0  0  0  0  0  0  0  0  0  0
  -22.6369   -8.6763   22.0074 C   0  0  0  0  0  0  0  0  0  0  0  0
  -26.1197  -26.1517   22.3303 C   0  0  0  0  0  0  0  0  0  0  0  0
  -23.1494   -7.8430   19.7984 C   0  0  0  0  0  0  0  0  0  0  0  0
  -28.5343  -25.5171   17.6457 C   0  0  0  0  0  0  0  0  0  0  0  0
  -26.3953  -13.7241   21.6693 C   0  0  0  0  0  0  0  0  0  0  0  0
  -27.6715  -14.5906   23.7011 C   0  0  0  0  0  0  0  0  0  0  0  0
  -17.6720  -29.3916   23.4473 C   0  0  0  0  0  0  0  0  0  0  0  0
  -23.8749  -25.4974   22.9570 C   0  0  0  0  0  0  0  0  0  0  0  0
  -18.8279  -28.9098   22.8039 C   0  0  0  0  0  0  0  0  0  0  0  0
  -25.0362  -26.2387   23.2178 C   0  0  0  0  0  0  0  0  0  0  0  0
  -24.3958  -12.2393   20.4123 C   0  0  0  0  0  0  0  0  0  0  0  0
  -26.0537  -25.3290   21.2060 C   0  0  0  0  0  0  0  0  0  0  0  0
  -23.2102  -10.2179   20.2377 C   0  0  0  0  0  0  0  0  0  0  0  0
  -22.7875   -7.6069   21.1246 C   0  0  0  0  0  0  0  0  0  0  0  0
  -23.3608   -9.1485   19.3549 C   0  0  0  0  0  0  0  0  0  0  0  0
  -27.4286  -14.4906   22.3181 C   0  0  0  0  0  0  0  0  0  0  0  0
  -29.7249  -25.4623   16.9501 C   0  0  0  0  0  0  0  0  0  0  0  0
  -28.2518  -24.4197   18.4332 C   0  0  0  0  0  0  0  0  0  0  0  0
  -28.7535  -15.4310   23.7998 C   0  0  0  0  0  0  0  0  0  0  0  0
  -30.1932  -23.4125   17.8138 C   0  0  0  0  0  0  0  0  0  0  0  0
  -26.9810  -13.9786   24.7985 C   0  0  0  0  0  0  0  0  0  0  0  0
  -22.2270  -28.0267   23.9525 C   0  0  0  0  0  0  0  0  0  0  0  0
  -24.0342  -27.6656   26.6219 C   0  0  0  0  0  0  0  0  0  0  0  0
  -26.9047  -26.4832   28.0393 C   0  0  0  0  0  0  0  0  0  0  0  0
  -30.6754  -19.6743   20.0850 C   0  0  0  0  0  0  0  0  0  0  0  0
  -17.7490  -30.3987   24.5674 C   0  0  0  0  0  0  0  0  0  0  0  0
  -22.7076  -25.5523   23.9040 C   0  0  0  0  0  0  0  0  0  0  0  0
  -25.1511  -27.1350   24.4228 C   0  0  0  0  0  0  0  0  0  0  0  0
  -19.1323  -30.4953   25.2056 C   0  0  0  0  0  0  0  0  0  0  0  0
  -32.6353  -16.8490   21.4226 C   0  0  0  0  0  0  0  0  0  0  0  0
  -20.2118  -30.5741   24.1308 C   0  0  0  0  0  0  0  0  0  0  0  0
  -31.5226  -15.9111   21.8813 C   0  0  0  0  0  0  0  0  0  0  0  0
  -32.5504  -22.4725   18.2964 C   0  0  0  0  0  0  0  0  0  0  0  0
  -32.2400  -17.6424   20.1779 C   0  0  0  0  0  0  0  0  0  0  0  0
  -29.8459  -17.4525   20.7914 C   0  0  0  0  0  0  0  0  0  0  0  0
  -20.2140  -29.3135   23.2576 C   0  0  1  0  0  0  0  0  0  0  0  0
  -31.1150  -22.2432   17.9075 C   0  0  1  0  0  0  0  0  0  0  0  0
  -22.6756  -26.8282   24.7398 C   0  0  1  0  0  0  0  0  0  0  0  0
  -30.2071  -16.6819   22.0705 C   0  0  1  0  0  0  0  0  0  0  0  0
  -31.6152  -21.8144   19.2673 C   0  0  1  0  0  0  0  0  0  0  0  0
  -30.1165  -26.6035   16.0727 C   0  0  0  0  0  0  0  0  0  0  0  0
  -28.1179  -26.3726   30.2332 C   0  0  0  0  0  0  0  0  0  0  0  0
  -24.8379  -30.5938   26.3225 C   0  0  0  0  0  0  0  0  0  0  0  0
  -26.7242  -30.1663   27.9122 C   0  0  0  0  0  0  0  0  0  0  0  0
  -24.3657  -29.8766   28.6713 C   0  0  0  0  0  0  0  0  0  0  0  0
  -26.8441  -23.5244   28.0558 C   0  0  0  0  0  0  0  0  0  0  0  0
  -26.9794  -24.3881   19.2277 C   0  0  0  0  0  0  0  0  0  1  0  0
  -25.3737  -28.1859   27.0846 C   0  0  1  0  0  0  0  0  0  0  0  0
  -27.1457  -25.6700   29.2983 C   0  0  2  0  0  0  0  0  0  0  0  0
  -25.3228  -29.6903   27.4738 C   0  0  0  0  0  0  0  0  0  0  0  0
  -28.2870  -15.2101   21.5904 N   0  0  0  0  0  0  0  0  0  0  0  0
  -30.5814  -24.4216   17.0111 N   0  0  0  0  0  0  0  0  0  0  0  0
  -29.0616  -23.3460   18.5410 N   0  0  0  0  0  0  0  0  0  0  0  0
  -29.0799  -15.7703   22.5197 N   0  0  0  0  0  0  0  0  0  0  0  0
  -23.9806  -27.1595   25.3155 N   0  0  0  0  0  0  0  0  0  0  0  0
  -30.9468  -18.3211   20.3569 N   0  0  0  0  0  0  0  0  0  0  0  0
  -29.4479  -15.9054   24.8558 N   0  0  0  0  0  0  0  0  0  0  0  0
  -25.8907  -13.1433   24.5194 N   0  0  0  0  0  0  0  0  0  0  0  0
  -20.8587  -28.2192   23.9515 N   0  0  0  0  0  0  0  0  0  0  0  0
  -25.8035  -27.3036   28.1641 N   0  0  0  0  0  0  0  0  0  0  0  0
  -31.7425  -20.4199   19.5966 N   0  0  0  0  0  0  0  0  0  0  0  0
  -27.7086  -24.3342   28.9523 N   0  3  0  0  0  0  0  0  0  0  0  0
  -27.3105  -14.1798   25.9919 O   0  0  0  0  0  0  0  0  0  0  0  0
  -23.0608  -28.7260   23.3889 O   0  0  0  0  0  0  0  0  0  0  0  0
  -23.0726  -27.7002   27.3938 O   0  0  0  0  0  0  0  0  0  0  0  0
  -27.6238  -26.4018   27.0459 O   0  0  0  0  0  0  0  0  0  0  0  0
  -29.5621  -20.1821   20.2586 O   0  0  0  0  0  0  0  0  0  0  0  0
  -23.4205  -11.5145   19.7992 O   0  0  0  0  0  0  0  0  0  0  0  0
  -27.1127  -25.2531   20.3548 O   0  0  0  0  0  0  0  0  0  1  0  0
  -22.5859   -6.3532   21.5510 F   0  0  0  0  0  0  0  0  0  0  0  0
  -23.7094   -9.3690   18.0799 F   0  0  0  0  0  0  0  0  0  0  0  0
  1  2  1  0  0  0  0
  1  5  2  0  0  0  0
  2  6  2  0  0  0  0
  3  8  2  0  0  0  0
  3 16  1  0  0  0  0
  4  9  1  0  0  0  0
  4 16  2  0  0  0  0
  5 18  1  0  0  0  0
  6 20  1  0  0  0  0
  7 10  2  0  0  0  0
  7 19  1  0  0  0  0
  8 22  1  0  0  0  0
  9 22  2  0  0  0  0
 10 23  1  0  0  0  0
 11 12  2  0  0  0  0
 11 24  1  0  0  0  0
 12 25  1  0  0  0  0
 13 21  1  0  0  0  0
 13 23  2  0  0  0  0
 14 25  2  0  0  0  0
 14 26  1  0  0  0  0
 15 28  2  0  0  0  0
 15 29  1  0  0  0  0
 16 27  1  0  0  0  0
 17 27  1  0  0  0  0
 17 30  2  0  0  0  0
 17 32  1  0  0  0  0
 18 20  2  0  0  0  0
 18 37  1  0  0  0  0
 19 21  2  0  0  0  0
 19 38  1  0  0  0  0
 20 47  1  0  0  0  0
 21 39  1  0  0  0  0
 22 79  1  0  0  0  0
 23 80  1  0  0  0  0
 24 26  2  0  0  0  0
 24 79  1  0  0  0  0
 25 81  1  0  0  0  0
 26 82  1  0  0  0  0
 27 62  2  0  0  0  0
 28 52  1  0  0  0  0
 28 63  1  0  0  0  0
 29 58  1  0  0  0  0
 29 64  2  0  0  0  0
 30 65  1  0  0  0  0
 30 68  1  0  0  0  0
 31 48  1  0  0  0  0
 31 63  2  0  0  0  0
 31 64  1  0  0  0  0
 32 69  1  0  0  0  0
 32 74  2  0  0  0  0
 33 49  1  0  0  0  0
 33 70  1  0  0  0  0
 33 75  2  0  0  0  0
 34 59  1  0  0  0  0
 34 66  1  0  0  0  0
 34 76  2  0  0  0  0
 35 60  1  0  0  0  0
 35 71  1  0  0  0  0
 35 77  2  0  0  0  0
 36 67  1  0  0  0  0
 36 72  1  0  0  0  0
 36 78  2  0  0  0  0
 37 40  1  0  0  0  0
 38 49  1  0  0  0  0
 39 66  1  0  0  0  0
 40 42  1  0  0  0  0
 41 43  1  0  0  0  0
 41 45  1  0  0  0  0
 42 47  1  0  0  0  0
 43 50  1  0  0  0  0
 44 48  1  0  0  0  0
 44 51  1  0  0  0  0
 45 67  1  0  0  0  0
 46 50  1  0  0  0  0
 46 67  1  0  0  0  0
 47 70  1  0  0  0  0
 48 51  1  0  0  0  0
 49 66  1  0  0  0  0
 50 65  1  0  0  0  0
 51 72  1  0  0  0  0
 53 60  1  0  0  0  0
 54 61  1  0  0  0  0
 55 61  1  0  0  0  0
 56 61  1  0  0  0  0
 57 73  1  0  0  0  0
 58 80  1  0  0  0  0
 59 61  1  0  0  0  0
 59 71  1  0  0  0  0
 60 73  1  0  0  0  0
 62 65  1  0  0  0  0
M  CHG  1  73   1
M  ISO  4  36 100  58 101  72 100  80 101
M  END
> <Batch ID>
0181

> <Smiles>
CNC(C)C(=O)NC(C(=O)N1Cc2cc([101O:1][101CH2:1]c3cc(C)nc(C4CC4[100NH:0][100C:0](=O)N4CCCC(n5nc(-c6ccc(Oc7ccc(F)cc7F)cc6)c(C(N)=O)c5N)C4)n3)ccc2CC1C(=O)NC1CCCc2ccccc21)C(C)(C)C

> <Shape>
0.205

> <Color>
0.083

> <Negative vol penalty>
0.000

$$$$

  -OEChem-04052323023D

 84 93  0     1  0  0  0  0  0999 V2000
  -27.1234  -37.1820   26.2554 C   0  0  0  0  0  0  0  0  0  0  0  0
  -27.8609  -36.4835   25.3048 C   0  0  0  0  0  0  0  0  0  0  0  0
  -25.1354  -10.2131   19.8241 C   0  0  0  0  0  0  0  0  0  0  0  0
  -25.2188  -10.3721   22.2334 C   0  0  0  0  0  0  0  0  0  0  0  0
  -26.1683  -36.5160   27.0223 C   0  0  0  0  0  0  0  0  0  0  0  0
  -27.6444  -35.1183   25.1213 C   0  0  0  0  0  0  0  0  0  0  0  0
  -27.7184  -30.0902   20.0195 C   0  0  0  0  0  0  0  0  0  0  0  0
  -24.9393   -8.8356   19.9217 C   0  0  0  0  0  0  0  0  0  0  0  0
  -25.0226   -8.9946   22.3311 C   0  0  0  0  0  0  0  0  0  0  0  0
  -28.2641  -28.8355   19.7517 C   0  0  0  0  0  0  0  0  0  0  0  0
  -24.1833   -5.5718   23.2243 C   0  0  0  0  0  0  0  0  0  0  0  0
  -23.2592   -5.1125   24.1628 C   0  0  0  0  0  0  0  0  0  0  0  0
  -26.5323  -27.8059   21.0785 C   0  0  0  0  0  0  0  0  0  0  0  0
  -21.5139   -6.3651   23.0573 C   0  0  0  0  0  0  0  0  0  0  0  0
  -28.9274  -24.1157   18.3832 C   0  0  0  0  0  0  0  0  0  0  0  0
  -25.2753  -10.9814   20.9799 C   0  0  0  0  0  0  0  0  0  0  0  0
  -24.4882  -13.4044   20.8481 C   0  0  0  0  0  0  0  0  0  0  0  0
  -25.9332  -35.1439   26.8414 C   0  0  0  0  0  0  0  0  0  0  0  0
  -26.5801  -30.2133   20.8291 C   0  0  0  0  0  0  0  0  0  0  0  0
  -26.6862  -34.4330   25.8875 C   0  0  0  0  0  0  0  0  0  0  0  0
  -25.9727  -29.0632   21.3529 C   0  0  0  0  0  0  0  0  0  0  0  0
  -24.8828   -8.2263   21.1752 C   0  0  0  0  0  0  0  0  0  0  0  0
  -27.6727  -27.6933   20.2836 C   0  0  0  0  0  0  0  0  0  0  0  0
  -23.7727   -6.4278   22.2024 C   0  0  0  0  0  0  0  0  0  0  0  0
  -21.9245   -5.5091   24.0793 C   0  0  0  0  0  0  0  0  0  0  0  0
  -22.4380   -6.8244   22.1188 C   0  0  0  0  0  0  0  0  0  0  0  0
  -25.4785  -12.4043   20.8796 C   0  0  0  0  0  0  0  0  0  0  0  0
  -30.5039  -22.4721   18.5900 C   0  0  0  0  0  0  0  0  0  0  0  0
  -29.7831  -25.0122   18.9847 C   0  0  0  0  0  0  0  0  0  0  0  0
  -31.3599  -23.3687   19.1908 C   0  0  0  0  0  0  0  0  0  0  0  0
  -25.1907  -14.5802   20.7470 C   0  0  0  0  0  0  0  0  0  0  0  0
  -23.0608  -13.2814   20.9052 C   0  0  0  0  0  0  0  0  0  0  0  0
  -25.9448  -31.6220   23.6068 C   0  0  0  0  0  0  0  0  0  0  0  0
  -22.9046  -30.7198   22.9247 C   0  0  0  0  0  0  0  0  0  0  0  0
  -20.8177  -28.6014   21.2501 C   0  0  0  0  0  0  0  0  0  0  0  0
  -29.3122  -17.2636   18.0254 C   0  0  0  0  0  0  0  0  0  0  0  0
  -24.9236  -34.4574   27.7269 C   0  0  0  0  0  0  0  0  0  0  0  0
  -25.9882  -31.5719   21.0866 C   0  0  0  0  0  0  0  0  0  0  0  0
  -24.7376  -29.1397   22.2114 C   0  0  0  0  0  0  0  0  0  0  0  0
  -24.4919  -33.0875   27.2100 C   0  0  0  0  0  0  0  0  0  0  0  0
  -30.1205  -15.5433   21.2501 C   0  0  0  0  0  0  0  0  0  0  0  0
  -25.7075  -32.2695   26.7859 C   0  0  0  0  0  0  0  0  0  0  0  0
  -28.9226  -14.6050   21.3867 C   0  0  0  0  0  0  0  0  0  0  0  0
  -30.5834  -20.1403   19.5780 C   0  0  0  0  0  0  0  0  0  0  0  0
  -30.2709  -20.4462   17.0844 C   0  0  0  0  0  0  0  0  0  0  0  0
  -30.4269  -15.8404   19.7869 C   0  0  0  0  0  0  0  0  0  0  0  0
  -30.9608  -18.6774   19.3286 C   0  0  0  0  0  0  0  0  0  0  0  0
  -30.6800  -18.9886   16.8926 C   0  0  0  0  0  0  0  0  0  0  0  0
  -28.0633  -15.4603   19.1595 C   0  0  0  0  0  0  0  0  0  0  0  0
  -26.4629  -32.9566   25.6418 C   0  0  1  0  0  0  0  0  0  0  0  0
  -30.9049  -21.0269   18.3614 C   0  0  0  0  0  0  0  0  0  0  0  0
  -25.1281  -31.6200   22.3456 C   0  0  1  0  0  0  0  0  0  0  0  0
  -27.7054  -15.1533   20.6228 C   0  0  1  0  0  0  0  0  0  0  0  0
  -32.7199  -22.9604   19.6441 C   0  0  0  0  0  0  0  0  0  0  0  0
  -18.3840  -28.0857   20.9207 C   0  0  0  0  0  0  0  0  0  0  0  0
  -22.8195  -29.3822   25.6658 C   0  0  0  0  0  0  0  0  0  0  0  0
  -20.7979  -28.1150   24.9075 C   0  0  0  0  0  0  0  0  0  0  0  0
  -20.7308  -30.6053   25.0366 C   0  0  0  0  0  0  0  0  0  0  0  0
  -20.9723  -29.1628   18.3484 C   0  0  0  0  0  0  0  0  0  0  0  0
  -29.3676  -26.4254   19.1993 C   0  0  0  0  0  0  0  0  0  1  0  0
  -22.0659  -29.4949   23.1990 C   0  0  1  0  0  0  0  0  0  0  0  0
  -19.5849  -28.8623   20.4035 C   0  0  2  0  0  0  0  0  0  0  0  0
  -21.6279  -29.3977   24.6877 C   0  0  0  0  0  0  0  0  0  0  0  0
  -29.2724  -22.8296   18.1752 N   0  0  0  0  0  0  0  0  0  0  0  0
  -26.7159  -12.9015   20.8045 N   0  0  0  0  0  0  0  0  0  0  0  0
  -31.0147  -24.6547   19.3992 N   0  0  0  0  0  0  0  0  0  0  0  0
  -26.5078  -14.2268   20.7247 N   0  0  0  0  0  0  0  0  0  0  0  0
  -24.2001  -30.4912   22.4397 N   0  0  0  0  0  0  0  0  0  0  0  0
  -29.2400  -16.3276   19.0707 N   0  0  0  0  0  0  0  0  0  0  0  0
  -30.3620  -18.1928   18.0780 N   0  0  0  0  0  0  0  0  0  0  0  0
  -24.8042  -15.8717   20.6759 N   0  0  0  0  0  0  0  0  0  0  0  0
  -22.5043  -11.9992   21.0083 N   0  0  0  0  0  0  0  0  0  0  0  0
  -25.7742  -32.7505   24.3858 N   0  0  0  0  0  0  0  0  0  0  0  0
  -20.9573  -29.5388   22.2516 N   0  0  0  0  0  0  0  0  0  0  0  0
  -19.8322  -28.4591   18.9903 N   0  3  0  0  0  0  0  0  0  0  0  0
  -22.3009  -14.2778   20.8493 O   0  0  0  0  0  0  0  0  0  0  0  0
  -26.6747  -30.6695   23.8555 O   0  0  0  0  0  0  0  0  0  0  0  0
  -22.4254  -31.8384   23.1264 O   0  0  0  0  0  0  0  0  0  0  0  0
  -21.5786  -27.6581   21.0457 O   0  0  0  0  0  0  0  0  0  0  0  0
  -28.4862  -17.2697   17.1042 O   0  0  0  0  0  0  0  0  0  0  0  0
  -24.6912   -6.8822   21.2709 O   0  0  0  0  0  0  0  0  0  0  0  0
  -28.2071  -26.4594   20.0226 O   0  0  0  0  0  0  0  0  0  1  0  0
  -21.0369   -5.0668   24.9797 F   0  0  0  0  0  0  0  0  0  0  0  0
  -22.0374   -7.6456   21.1385 F   0  0  0  0  0  0  0  0  0  0  0  0
  1  2  1  0  0  0  0
  1  5  2  0  0  0  0
  2  6  2  0  0  0  0
  3  8  2  0  0  0  0
  3 16  1  0  0  0  0
  4  9  1  0  0  0  0
  4 16  2  0  0  0  0
  5 18  1  0  0  0  0
  6 20  1  0  0  0  0
  7 10  2  0  0  0  0
  7 19  1  0  0  0  0
  8 22  1  0  0  0  0
  9 22  2  0  0  0  0
 10 23  1  0  0  0  0
 11 12  2  0  0  0  0
 11 24  1  0  0  0  0
 12 25  1  0  0  0  0
 13 21  1  0  0  0  0
 13 23  2  0  0  0  0
 14 25  2  0  0  0  0
 14 26  1  0  0  0  0
 15 29  1  0  0  0  0
 15 64  2  0  0  0  0
 16 27  1  0  0  0  0
 17 27  1  0  0  0  0
 17 31  2  0  0  0  0
 17 32  1  0  0  0  0
 18 20  2  0  0  0  0
 18 37  1  0  0  0  0
 19 21  2  0  0  0  0
 19 38  1  0  0  0  0
 20 50  1  0  0  0  0
 21 39  1  0  0  0  0
 22 81  1  0  0  0  0
 23 82  1  0  0  0  0
 24 26  2  0  0  0  0
 24 81  1  0  0  0  0
 25 83  1  0  0  0  0
 26 84  1  0  0  0  0
 27 65  2  0  0  0  0
 28 30  2  0  0  0  0
 28 51  1  0  0  0  0
 28 64  1  0  0  0  0
 29 60  1  0  0  0  0
 29 66  2  0  0  0  0
 30 54  1  0  0  0  0
 30 66  1  0  0  0  0
 31 67  1  0  0  0  0
 31 71  1  0  0  0  0
 32 72  1  0  0  0  0
 32 76  2  0  0  0  0
 33 52  1  0  0  0  0
 33 73  1  0  0  0  0
 33 77  2  0  0  0  0
 34 61  1  0  0  0  0
 34 68  1  0  0  0  0
 34 78  2  0  0  0  0
 35 62  1  0  0  0  0
 35 74  1  0  0  0  0
 35 79  2  0  0  0  0
 36 69  1  0  0  0  0
 36 70  1  0  0  0  0
 36 80  2  0  0  0  0
 37 40  1  0  0  0  0
 38 52  1  0  0  0  0
 39 68  1  0  0  0  0
 40 42  1  0  0  0  0
 41 43  1  0  0  0  0
 41 46  1  0  0  0  0
 42 50  1  0  0  0  0
 43 53  1  0  0  0  0
 44 47  1  0  0  0  0
 44 51  1  0  0  0  0
 45 48  1  0  0  0  0
 45 51  1  0  0  0  0
 46 69  1  0  0  0  0
 47 70  1  0  0  0  0
 48 70  1  0  0  0  0
 49 53  1  0  0  0  0
 49 69  1  0  0  0  0
 50 73  1  0  0  0  0
 52 68  1  0  0  0  0
 53 67  1  0  0  0  0
 55 62  1  0  0  0  0
 56 63  1  0  0  0  0
 57 63  1  0  0  0  0
 58 63  1  0  0  0  0
 59 75  1  0  0  0  0
 60 82  1  0  0  0  0
 61 63  1  0  0  0  0
 61 74  1  0  0  0  0
 62 75  1  0  0  0  0
 65 67  1  0  0  0  0
M  CHG  1  75   1
M  ISO  4  36 100  60 101  70 100  82 101
M  END
> <Batch ID>
0181

> <Smiles>
CNC(C)C(=O)NC(C(=O)N1Cc2cc([101O:1][101CH2:1]c3cnc(C4CC[100N:0]([100C:0](=O)N5CCCC(n6nc(-c7ccc(Oc8ccc(F)cc8F)cc7)c(C(N)=O)c6N)C5)CC4)c(C)n3)ccc2CC1C(=O)NC1CCCc2ccccc21)C(C)(C)C

> <Shape>
0.333

> <Color>
0.126

> <Negative vol penalty>
0.000

$$$$

  -OEChem-04052323023D

 78 86  0     1  0  0  0  0  0999 V2000
  -16.7595  -28.8287   24.0986 C   0  0  0  0  0  0  0  0  0  0  0  0
  -17.3833  -27.9752   23.1944 C   0  0  0  0  0  0  0  0  0  0  0  0
  -24.6223  -14.4552   21.6551 C   0  0  0  0  0  0  0  0  0  0  0  0
  -26.2950  -12.9427   20.7883 C   0  0  0  0  0  0  0  0  0  0  0  0
  -17.2649  -30.1113   24.3074 C   0  0  0  0  0  0  0  0  0  0  0  0
  -18.5124  -28.4041   22.4976 C   0  0  0  0  0  0  0  0  0  0  0  0
  -23.3976  -24.9661   20.8510 C   0  0  0  0  0  0  0  0  0  0  0  0
  -23.6205  -13.5541   21.2942 C   0  0  0  0  0  0  0  0  0  0  0  0
  -25.2933  -12.0416   20.4275 C   0  0  0  0  0  0  0  0  0  0  0  0
  -23.7686  -24.3373   19.6632 C   0  0  0  0  0  0  0  0  0  0  0  0
  -23.2022   -9.1836   19.6046 C   0  0  0  0  0  0  0  0  0  0  0  0
  -23.4018   -7.8363   19.9053 C   0  0  0  0  0  0  0  0  0  0  0  0
  -25.0848  -26.2665   19.0601 C   0  0  0  0  0  0  0  0  0  0  0  0
  -23.5526   -8.3828   22.2539 C   0  0  0  0  0  0  0  0  0  0  0  0
  -25.9595  -14.1495   21.4020 C   0  0  0  0  0  0  0  0  0  0  0  0
  -27.6840  -15.1395   23.0001 C   0  0  0  0  0  0  0  0  0  0  0  0
  -18.4064  -30.5527   23.6199 C   0  0  0  0  0  0  0  0  0  0  0  0
  -23.8596  -26.2564   21.1483 C   0  0  0  0  0  0  0  0  0  0  0  0
  -19.0328  -29.6942   22.6963 C   0  0  0  0  0  0  0  0  0  0  0  0
  -24.7220  -26.9074   20.2544 C   0  0  0  0  0  0  0  0  0  0  0  0
  -23.9560  -12.3473   20.6805 C   0  0  0  0  0  0  0  0  0  0  0  0
  -24.6105  -24.9884   18.7666 C   0  0  0  0  0  0  0  0  0  0  0  0
  -23.1779  -10.1306   20.6285 C   0  0  0  0  0  0  0  0  0  0  0  0
  -23.5770   -7.4358   21.2299 C   0  0  0  0  0  0  0  0  0  0  0  0
  -23.3531   -9.7301   21.9532 C   0  0  0  0  0  0  0  0  0  0  0  0
  -26.9947  -15.0801   21.7740 C   0  0  0  0  0  0  0  0  0  0  0  0
  -28.5576  -16.1890   22.8523 C   0  0  0  0  0  0  0  0  0  0  0  0
  -28.5019  -22.5580   17.6570 C   0  0  0  0  0  0  0  0  0  0  0  0
  -27.5469  -14.3193   24.1680 C   0  0  0  0  0  0  0  0  0  0  0  0
  -22.5428  -29.1225   21.6934 C   0  0  0  0  0  0  0  0  0  0  0  0
  -25.7145  -29.8770   22.3449 C   0  0  0  0  0  0  0  0  0  0  0  0
  -24.6766  -32.8106   23.7437 C   0  0  0  0  0  0  0  0  0  0  0  0
  -28.3278  -21.0061   19.3357 C   0  0  0  0  0  0  0  0  0  0  0  0
  -18.8880  -31.9644   23.8437 C   0  0  0  0  0  0  0  0  0  0  0  0
  -23.4717  -26.9051   22.4495 C   0  0  0  0  0  0  0  0  0  0  0  0
  -25.2478  -28.2904   20.5291 C   0  0  0  0  0  0  0  0  0  0  0  0
  -29.1917  -23.5977   16.8232 C   0  0  0  0  0  0  0  0  0  0  0  0
  -20.3091  -32.2097   23.3431 C   0  0  0  0  0  0  0  0  0  0  0  0
  -28.1843  -23.8100   15.6996 C   0  0  0  0  0  0  0  0  0  0  0  0
  -31.0335  -18.5762   19.5378 C   0  0  0  0  0  0  0  0  0  0  0  0
  -20.4888  -31.6327   21.9425 C   0  0  0  0  0  0  0  0  0  0  0  0
  -30.3450  -17.3936   20.2185 C   0  0  0  0  0  0  0  0  0  0  0  0
  -30.0797  -19.3225   18.6092 C   0  0  0  0  0  0  0  0  0  0  0  0
  -28.1321  -18.5985   19.9638 C   0  0  0  0  0  0  0  0  0  0  0  0
  -20.2742  -30.1143   21.9397 C   0  0  1  0  0  0  0  0  0  0  0  0
  -27.0668  -22.3161   17.2614 C   0  0  1  0  0  0  0  0  0  0  0  0
  -23.6380  -28.4233   22.4479 C   0  0  1  0  0  0  0  0  0  0  0  0
  -26.8103  -23.5042   16.3139 C   0  0  1  0  0  0  0  0  0  0  0  0
  -29.0565  -17.8406   20.9313 C   0  0  1  0  0  0  0  0  0  0  0  0
  -26.9413  -20.9691   16.5609 C   0  0  0  0  0  0  0  0  0  0  0  0
  -25.5175  -34.7632   25.0771 C   0  0  0  0  0  0  0  0  0  0  0  0
  -25.7380  -28.1470   24.8572 C   0  0  0  0  0  0  0  0  0  0  0  0
  -25.6321  -30.2458   26.2181 C   0  0  0  0  0  0  0  0  0  0  0  0
  -27.5881  -29.8248   24.7283 C   0  0  0  0  0  0  0  0  0  0  0  0
  -23.9737  -34.7259   21.5998 C   0  0  0  0  0  0  0  0  0  0  0  0
  -26.2524  -24.7137   17.0681 C   0  0  0  0  0  0  0  0  0  1  0  0
  -25.3560  -30.4250   23.7036 C   0  0  1  0  0  0  0  0  0  0  0  0
  -25.2517  -34.2142   23.6839 C   0  0  2  0  0  0  0  0  0  0  0  0
  -26.0586  -29.6550   24.8573 C   0  0  0  0  0  0  0  0  0  0  0  0
  -27.3958  -16.0174   20.9111 N   0  0  0  0  0  0  0  0  0  0  0  0
  -29.0700  -21.9365   18.6326 N   0  0  0  0  0  0  0  0  0  0  0  0
  -28.3465  -16.6757   21.5959 N   0  0  0  0  0  0  0  0  0  0  0  0
  -24.9098  -28.8444   21.8466 N   0  0  0  0  0  0  0  0  0  0  0  0
  -28.8477  -19.6986   19.3116 N   0  0  0  0  0  0  0  0  0  0  0  0
  -29.4781  -16.7339   23.6760 N   0  0  0  0  0  0  0  0  0  0  0  0
  -26.6015  -13.2848   24.1507 N   0  0  0  0  0  0  0  0  0  0  0  0
  -21.4408  -29.4380   22.4651 N   0  0  0  0  0  0  0  0  0  0  0  0
  -25.6631  -31.8506   23.6628 N   0  0  0  0  0  0  0  0  0  0  0  0
  -24.3054  -35.1326   22.9896 N   0  3  0  0  0  0  0  0  0  0  0  0
  -28.2307  -14.5088   25.2024 O   0  0  0  0  0  0  0  0  0  0  0  0
  -22.6874  -29.3595   20.4999 O   0  0  0  0  0  0  0  0  0  0  0  0
  -26.6853  -30.3447   21.7431 O   0  0  0  0  0  0  0  0  0  0  0  0
  -23.4730  -32.5881   23.8551 O   0  0  0  0  0  0  0  0  0  0  0  0
  -27.2869  -21.2736   19.9411 O   0  0  0  0  0  0  0  0  0  0  0  0
  -22.9788  -11.4677   20.3284 O   0  0  0  0  0  0  0  0  0  0  0  0
  -24.9747  -24.3767   17.6068 O   0  0  0  0  0  0  0  0  0  1  0  0
  -23.7671   -6.1418   21.5187 F   0  0  0  0  0  0  0  0  0  0  0  0
  -23.3295  -10.6351   22.9412 F   0  0  0  0  0  0  0  0  0  0  0  0
  1  2  1  0  0  0  0
  1  5  2  0  0  0  0
  2  6  2  0  0  0  0
  3  8  2  0  0  0  0
  3 15  1  0  0  0  0
  4  9  1  0  0  0  0
  4 15  2  0  0  0  0
  5 17  1  0  0  0  0
  6 19  1  0  0  0  0
  7 10  2  0  0  0  0
  7 18  1  0  0  0  0
  8 21  1  0  0  0  0
  9 21  2  0  0  0  0
 10 22  1  0  0  0  0
 11 12  2  0  0  0  0
 11 23  1  0  0  0  0
 12 24  1  0  0  0  0
 13 20  1  0  0  0  0
 13 22  2  0  0  0  0
 14 24  2  0  0  0  0
 14 25  1  0  0  0  0
 15 26  1  0  0  0  0
 16 26  1  0  0  0  0
 16 27  2  0  0  0  0
 16 29  1  0  0  0  0
 17 19  2  0  0  0  0
 17 34  1  0  0  0  0
 18 20  2  0  0  0  0
 18 35  1  0  0  0  0
 19 45  1  0  0  0  0
 20 36  1  0  0  0  0
 21 75  1  0  0  0  0
 22 76  1  0  0  0  0
 23 25  2  0  0  0  0
 23 75  1  0  0  0  0
 24 77  1  0  0  0  0
 25 78  1  0  0  0  0
 26 60  2  0  0  0  0
 27 62  1  0  0  0  0
 27 65  1  0  0  0  0
 28 37  1  0  0  0  0
 28 46  1  0  0  0  0
 28 61  2  0  0  0  0
 29 66  1  0  0  0  0
 29 70  2  0  0  0  0
 30 47  1  0  0  0  0
 30 67  1  0  0  0  0
 30 71  2  0  0  0  0
 31 57  1  0  0  0  0
 31 63  1  0  0  0  0
 31 72  2  0  0  0  0
 32 58  1  0  0  0  0
 32 68  1  0  0  0  0
 32 73  2  0  0  0  0
 33 61  1  0  0  0  0
 33 64  1  0  0  0  0
 33 74  2  0  0  0  0
 34 38  1  0  0  0  0
 35 47  1  0  0  0  0
 36 63  1  0  0  0  0
 37 39  1  0  0  0  0
 38 41  1  0  0  0  0
 39 48  1  0  0  0  0
 40 42  1  0  0  0  0
 40 43  1  0  0  0  0
 41 45  1  0  0  0  0
 42 49  1  0  0  0  0
 43 64  1  0  0  0  0
 44 49  1  0  0  0  0
 44 64  1  0  0  0  0
 45 67  1  0  0  0  0
 46 48  1  0  0  0  0
 46 50  1  0  0  0  0
 47 63  1  0  0  0  0
 48 56  1  0  0  0  0
 49 62  1  0  0  0  0
 51 58  1  0  0  0  0
 52 59  1  0  0  0  0
 53 59  1  0  0  0  0
 54 59  1  0  0  0  0
 55 69  1  0  0  0  0
 56 76  1  0  0  0  0
 57 59  1  0  0  0  0
 57 68  1  0  0  0  0
 58 69  1  0  0  0  0
 60 62  1  0  0  0  0
M  CHG  1  69   1
M  ISO  4  33 100  56 101  61 100  76 101
M  END
> <Batch ID>
0181

> <Smiles>
CNC(C)C(=O)NC(C(=O)N1Cc2cc([101O:1][101CH2:1]C3CCC([100NH:0][100C:0](=O)N4CCCC(n5nc(-c6ccc(Oc7ccc(F)cc7F)cc6)c(C(N)=O)c5N)C4)=C3C)ccc2CC1C(=O)NC1CCCc2ccccc21)C(C)(C)C

> <Shape>
0.282

> <Color>
0.088

> <Negative vol penalty>
0.000

$$$$

  -OEChem-04052323023D

 89 98  0     1  0  0  0  0  0999 V2000
  -28.0689  -37.5969   21.2906 C   0  0  0  0  0  0  0  0  0  0  0  0
  -28.5036  -36.3456   20.8653 C   0  0  0  0  0  0  0  0  0  0  0  0
  -24.7213   -8.3561   20.8503 C   0  0  0  0  0  0  0  0  0  0  0  0
  -23.4945  -10.3824   21.3259 C   0  0  0  0  0  0  0  0  0  0  0  0
  -27.1669  -37.6976   22.3489 C   0  0  0  0  0  0  0  0  0  0  0  0
  -28.0373  -35.1943   21.4990 C   0  0  0  0  0  0  0  0  0  0  0  0
  -26.9226  -29.7595   18.9056 C   0  0  0  0  0  0  0  0  0  0  0  0
  -23.5797   -7.6015   21.1203 C   0  0  0  0  0  0  0  0  0  0  0  0
  -22.3528   -9.6278   21.5959 C   0  0  0  0  0  0  0  0  0  0  0  0
  -27.6693  -28.5845   18.8320 C   0  0  0  0  0  0  0  0  0  0  0  0
  -21.9172   -6.4880   23.8444 C   0  0  0  0  0  0  0  0  0  0  0  0
  -22.0657   -5.3508   24.6383 C   0  0  0  0  0  0  0  0  0  0  0  0
  -26.4771  -27.7144   20.7401 C   0  0  0  0  0  0  0  0  0  0  0  0
  -21.2347   -3.9803   22.8305 C   0  0  0  0  0  0  0  0  0  0  0  0
  -24.6787   -9.7465   20.9531 C   0  0  0  0  0  0  0  0  0  0  0  0
  -26.2522  -11.0573   19.4321 C   0  0  0  0  0  0  0  0  0  0  0  0
  -26.6819  -36.5465   22.9896 C   0  0  0  0  0  0  0  0  0  0  0  0
  -25.9534  -29.9255   19.9054 C   0  0  0  0  0  0  0  0  0  0  0  0
  -27.1290  -35.2798   22.5678 C   0  0  0  0  0  0  0  0  0  0  0  0
  -25.7176  -28.8915   20.8226 C   0  0  0  0  0  0  0  0  0  0  0  0
  -30.4640  -22.1632   20.0269 C   0  0  0  0  0  0  0  0  0  0  0  0
  -22.3954   -8.2373   21.4931 C   0  0  0  0  0  0  0  0  0  0  0  0
  -27.4487  -27.5629   19.7511 C   0  0  0  0  0  0  0  0  0  0  0  0
  -21.4273   -6.3714   22.5436 C   0  0  0  0  0  0  0  0  0  0  0  0
  -21.7245   -4.0969   24.1313 C   0  0  0  0  0  0  0  0  0  0  0  0
  -21.0862   -5.1176   22.0366 C   0  0  0  0  0  0  0  0  0  0  0  0
  -25.8578  -10.5265   20.6749 C   0  0  0  0  0  0  0  0  0  0  0  0
  -29.3788  -22.4111   19.2112 C   0  0  0  0  0  0  0  0  0  0  0  0
  -30.6472  -23.0546   21.0642 C   0  0  0  0  0  0  0  0  0  0  0  0
  -27.4314  -11.7102   19.6963 C   0  0  0  0  0  0  0  0  0  0  0  0
  -28.8163  -24.2443   20.4319 C   0  0  0  0  0  0  0  0  0  0  0  0
  -25.6101  -10.9681   18.1533 C   0  0  0  0  0  0  0  0  0  0  0  0
  -25.5483  -31.9490   22.3230 C   0  0  0  0  0  0  0  0  0  0  0  0
  -22.7049  -30.4161   22.6191 C   0  0  0  0  0  0  0  0  0  0  0  0
  -20.8576  -27.6027   22.0544 C   0  0  0  0  0  0  0  0  0  0  0  0
  -30.5093  -15.0973   22.8899 C   0  0  0  0  0  0  0  0  0  0  0  0
  -25.7444  -36.7076   24.1600 C   0  0  0  0  0  0  0  0  0  0  0  0
  -25.1377  -31.1882   19.9548 C   0  0  0  0  0  0  0  0  0  0  0  0
  -24.6747  -29.0119   21.9026 C   0  0  0  0  0  0  0  0  0  0  0  0
  -25.0099  -35.4226   24.5334 C   0  0  0  0  0  0  0  0  0  0  0  0
  -30.3714  -11.6612   23.8122 C   0  0  0  0  0  0  0  0  0  0  0  0
  -25.9814  -34.2477   24.5837 C   0  0  0  0  0  0  0  0  0  0  0  0
  -29.2139  -11.1054   22.9807 C   0  0  0  0  0  0  0  0  0  0  0  0
  -30.2230  -18.2689   22.1307 C   0  0  0  0  0  0  0  0  0  0  0  0
  -30.0961  -13.0887   24.2796 C   0  0  0  0  0  0  0  0  0  0  0  0
  -30.8903  -19.5668   21.6659 C   0  0  0  0  0  0  0  0  0  0  0  0
  -28.5831  -13.4787   22.3736 C   0  0  0  0  0  0  0  0  0  0  0  0
  -31.3976  -18.6142   19.4914 C   0  0  0  0  0  0  0  0  0  0  0  0
  -26.6269  -34.0067   23.2137 C   0  0  1  0  0  0  0  0  0  0  0  0
  -24.5341  -31.4562   21.3300 C   0  0  1  0  0  0  0  0  0  0  0  0
  -28.8386  -12.0616   21.8325 C   0  0  2  0  0  0  0  0  0  0  0  0
  -30.8045  -17.0583   21.3978 C   0  0  2  0  0  0  0  0  0  0  0  0
  -30.7331  -17.2924   19.8861 C   0  0  2  0  0  0  0  0  0  0  0  0
  -29.0779  -21.5133   18.0562 C   0  0  0  0  0  0  0  0  0  0  0  0
  -18.5763  -26.6328   22.4447 C   0  0  0  0  0  0  0  0  0  0  0  0
  -23.4181  -29.9221   25.5444 C   0  0  0  0  0  0  0  0  0  0  0  0
  -21.6164  -28.1852   25.6179 C   0  0  0  0  0  0  0  0  0  0  0  0
  -21.0341  -30.5644   25.1460 C   0  0  0  0  0  0  0  0  0  0  0  0
  -31.4127  -16.3002   17.6970 C   0  0  0  0  0  0  0  0  0  0  0  0
  -20.3504  -27.3285   19.1516 C   0  0  0  0  0  0  0  0  0  0  0  0
  -31.3702  -21.0057   19.7942 C   0  0  0  0  0  0  0  0  0  0  0  0
  -27.8983  -25.4098   20.6556 C   0  0  0  0  0  0  0  0  0  1  0  0
  -22.2178  -29.2032   23.3745 C   0  0  1  0  0  0  0  0  0  0  0  0
  -19.4635  -27.4105   21.4851 C   0  0  2  0  0  0  0  0  0  0  0  0
  -22.0927  -29.4669   24.9017 C   0  0  0  0  0  0  0  0  0  0  0  0
  -26.7167  -10.8170   21.6556 N   0  0  0  0  0  0  0  0  0  0  0  0
  -28.5312  -23.4462   19.3854 N   0  0  0  0  0  0  0  0  0  0  0  0
  -29.8398  -24.1102   21.2969 N   0  0  0  0  0  0  0  0  0  0  0  0
  -27.6627  -11.5373   21.0292 N   0  0  0  0  0  0  0  0  0  0  0  0
  -23.9074  -30.2683   21.9134 N   0  0  0  0  0  0  0  0  0  0  0  0
  -29.7477  -13.9444   23.1428 N   0  0  0  0  0  0  0  0  0  0  0  0
  -30.7823  -19.7545   20.2046 N   0  0  2  0  0  0  0  0  0  0  0  0
  -28.2826  -12.4095   18.9160 N   0  0  0  0  0  0  0  0  0  0  0  0
  -24.4046  -10.2595   18.0589 N   0  0  0  0  0  0  0  0  0  0  0  0
  -25.7043  -33.3219   22.3337 N   0  0  0  0  0  0  0  0  0  0  0  0
  -20.9715  -28.7969   22.7342 N   0  0  0  0  0  0  0  0  0  0  0  0
  -30.1157  -15.8488   21.7895 N   0  0  0  0  0  0  0  0  0  0  0  0
  -31.4255  -16.1806   19.1783 N   0  3  0  0  0  0  0  0  0  0  0  0
  -19.5286  -26.6651   20.1963 N   0  3  0  0  0  0  0  0  0  0  0  0
  -26.0996  -11.4872   17.1215 O   0  0  0  0  0  0  0  0  0  0  0  0
  -26.1442  -31.1433   23.0284 O   0  0  0  0  0  0  0  0  0  0  0  0
  -22.0392  -31.4542   22.6482 O   0  0  0  0  0  0  0  0  0  0  0  0
  -21.7547  -26.7745   21.9136 O   0  0  0  0  0  0  0  0  0  0  0  0
  -31.4721  -15.4292   23.5897 O   0  0  0  0  0  0  0  0  0  0  0  0
  -21.2812   -7.5013   21.7564 O   0  0  0  0  0  0  0  0  0  0  0  0
  -28.1767  -26.4152   19.6819 O   0  0  0  0  0  0  0  0  0  1  0  0
  -21.8687   -3.0048   24.8933 F   0  0  0  0  0  0  0  0  0  0  0  0
  -20.6162   -4.9991   20.7873 F   0  0  0  0  0  0  0  0  0  0  0  0
  -31.9393  -22.9086   22.1897 Cl  0  0  0  0  0  0  0  0  0  0  0  0
  1  2  1  0  0  0  0
  1  5  2  0  0  0  0
  2  6  2  0  0  0  0
  3  8  2  0  0  0  0
  3 15  1  0  0  0  0
  4  9  1  0  0  0  0
  4 15  2  0  0  0  0
  5 17  1  0  0  0  0
  6 19  1  0  0  0  0
  7 10  2  0  0  0  0
  7 18  1  0  0  0  0
  8 22  1  0  0  0  0
  9 22  2  0  0  0  0
 10 23  1  0  0  0  0
 11 12  2  0  0  0  0
 11 24  1  0  0  0  0
 12 25  1  0  0  0  0
 13 20  1  0  0  0  0
 13 23  2  0  0  0  0
 14 25  2  0  0  0  0
 14 26  1  0  0  0  0
 15 27  1  0  0  0  0
 16 27  1  0  0  0  0
 16 30  2  0  0  0  0
 16 32  1  0  0  0  0
 17 19  2  0  0  0  0
 17 37  1  0  0  0  0
 18 20  2  0  0  0  0
 18 38  1  0  0  0  0
 19 49  1  0  0  0  0
 20 39  1  0  0  0  0
 21 28  1  0  0  0  0
 21 29  2  0  0  0  0
 21 61  1  0  0  0  0
 22 85  1  0  0  0  0
 23 86  1  0  0  0  0
 24 26  2  0  0  0  0
 24 85  1  0  0  0  0
 25 87  1  0  0  0  0
 26 88  1  0  0  0  0
 27 66  2  0  0  0  0
 28 54  1  0  0  0  0
 28 67  2  0  0  0  0
 29 68  1  0  0  0  0
 29 89  1  0  0  0  0
 30 69  1  0  0  0  0
 30 73  1  0  0  0  0
 31 62  1  0  0  0  0
 31 67  1  0  0  0  0
 31 68  2  0  0  0  0
 32 74  1  0  0  0  0
 32 80  2  0  0  0  0
 33 50  1  0  0  0  0
 33 75  1  0  0  0  0
 33 81  2  0  0  0  0
 34 63  1  0  0  0  0
 34 70  1  0  0  0  0
 34 82  2  0  0  0  0
 35 64  1  0  0  0  0
 35 76  1  0  0  0  0
 35 83  2  0  0  0  0
 36 71  1  0  0  0  0
 36 77  1  0  0  0  0
 36 84  2  0  0  0  0
 37 40  1  0  0  0  0
 38 50  1  0  0  0  0
 39 70  1  0  0  0  0
 40 42  1  0  0  0  0
 41 43  1  0  0  0  0
 41 45  1  0  0  0  0
 42 49  1  0  0  0  0
 43 51  1  0  0  0  0
 44 46  1  0  0  0  0
 44 52  1  0  0  0  0
 45 71  1  0  0  0  0
 46 72  1  0  0  0  0
 47 51  1  0  0  0  0
 47 71  1  0  0  0  0
 48 53  1  0  0  0  0
 48 72  1  0  0  0  0
 49 75  1  0  0  0  0
 50 70  1  0  0  0  0
 51 69  1  0  0  0  0
 52 53  1  0  0  0  0
 52 77  1  0  0  0  0
 53 78  1  0  0  0  0
 55 64  1  0  0  0  0
 56 65  1  0  0  0  0
 57 65  1  0  0  0  0
 58 65  1  0  0  0  0
 59 78  1  0  0  0  0
 60 79  1  0  0  0  0
 61 72  1  0  0  0  0
 62 86  1  0  0  0  0
 63 65  1  0  0  0  0
 63 76  1  0  0  0  0
 64 79  1  0  0  0  0
 66 69  1  0  0  0  0
M  CHG  2  78   1  79   1
M  ISO  4  36 100  62 101  77 100  86 101
M  END
> <Batch ID>
0181

> <Smiles>
CNC(C)C(=O)NC(C(=O)N1Cc2cc([101O:1][101CH2:1]c3nc(C)c(CN4CCC([100NH:0][100C:0](=O)N5CCCC(n6nc(-c7ccc(Oc8ccc(F)cc8F)cc7)c(C(N)=O)c6N)C5)C(NC)C4)c(Cl)n3)ccc2CC1C(=O)NC1CCCc2ccccc21)C(C)(C)C

> <Shape>
0.336

> <Color>
0.104

> <Negative vol penalty>
0.000

$$$$

  -OEChem-04052323023D

 83 92  0     1  0  0  0  0  0999 V2000
  -26.8554  -26.1697   11.6915 C   0  0  0  0  0  0  0  0  0  0  0  0
  -25.9745  -26.9181   12.4656 C   0  0  0  0  0  0  0  0  0  0  0  0
  -24.9135  -15.8489   21.3797 C   0  0  0  0  0  0  0  0  0  0  0  0
  -26.4374  -15.7835   19.5061 C   0  0  0  0  0  0  0  0  0  0  0  0
  -27.5812  -25.1303   12.2717 C   0  0  0  0  0  0  0  0  0  0  0  0
  -25.8181  -26.6268   13.8203 C   0  0  0  0  0  0  0  0  0  0  0  0
  -24.4849  -29.8101   20.0977 C   0  0  0  0  0  0  0  0  0  0  0  0
  -24.9561  -14.4572   21.4630 C   0  0  0  0  0  0  0  0  0  0  0  0
  -26.4801  -14.3918   19.5894 C   0  0  0  0  0  0  0  0  0  0  0  0
  -23.6262  -29.7162   21.1920 C   0  0  0  0  0  0  0  0  0  0  0  0
  -23.5762  -11.8227   19.8568 C   0  0  0  0  0  0  0  0  0  0  0  0
  -22.3675  -11.1468   20.0228 C   0  0  0  0  0  0  0  0  0  0  0  0
  -24.9914  -27.9489   22.1040 C   0  0  0  0  0  0  0  0  0  0  0  0
  -23.1707  -10.2221   22.1054 C   0  0  0  0  0  0  0  0  0  0  0  0
  -18.3973  -27.6601   21.7957 C   0  0  0  0  0  0  0  0  0  0  0  0
  -25.6541  -16.5121   20.4012 C   0  0  0  0  0  0  0  0  0  0  0  0
  -26.4539  -18.8671   20.9684 C   0  0  0  0  0  0  0  0  0  0  0  0
  -27.4409  -24.8323   13.6363 C   0  0  0  0  0  0  0  0  0  0  0  0
  -25.5991  -28.9652   19.9927 C   0  0  0  0  0  0  0  0  0  0  0  0
  -26.5418  -25.5815   14.4190 C   0  0  0  0  0  0  0  0  0  0  0  0
  -25.8641  -28.0358   21.0087 C   0  0  0  0  0  0  0  0  0  0  0  0
  -25.7395  -13.7286   20.5679 C   0  0  0  0  0  0  0  0  0  0  0  0
  -23.8777  -28.7836   22.1940 C   0  0  0  0  0  0  0  0  0  0  0  0
  -24.5823  -11.6983   20.8150 C   0  0  0  0  0  0  0  0  0  0  0  0
  -22.1646  -10.3466   21.1471 C   0  0  0  0  0  0  0  0  0  0  0  0
  -24.3795  -10.8980   21.9393 C   0  0  0  0  0  0  0  0  0  0  0  0
  -25.6100  -17.9496   20.3143 C   0  0  0  0  0  0  0  0  0  0  0  0
  -19.3767  -26.6968   21.6652 C   0  0  0  0  0  0  0  0  0  0  0  0
  -18.5213  -28.4933   22.8887 C   0  0  0  0  0  0  0  0  0  0  0  0
  -26.0048  -20.0989   20.5590 C   0  0  0  0  0  0  0  0  0  0  0  0
  -20.4129  -27.4225   23.5537 C   0  0  0  0  0  0  0  0  0  0  0  0
  -27.5461  -18.6274   21.8657 C   0  0  0  0  0  0  0  0  0  0  0  0
  -26.5395  -26.7389   17.9280 C   0  0  0  0  0  0  0  0  0  0  0  0
  -29.2359  -26.7599   19.7312 C   0  0  0  0  0  0  0  0  0  0  0  0
  -30.7047  -27.4252   22.7391 C   0  0  0  0  0  0  0  0  0  0  0  0
  -21.7770  -23.5395   19.7586 C   0  0  0  0  0  0  0  0  0  0  0  0
  -28.2115  -23.6688   14.2083 C   0  0  0  0  0  0  0  0  0  0  0  0
  -26.5307  -29.0973   18.8192 C   0  0  0  0  0  0  0  0  0  0  0  0
  -27.0582  -27.1194   20.9534 C   0  0  0  0  0  0  0  0  0  0  0  0
  -28.2673  -23.6662   15.7338 C   0  0  0  0  0  0  0  0  0  0  0  0
  -22.7628  -21.3944   16.9232 C   0  0  0  0  0  0  0  0  0  0  0  0
  -26.8841  -23.9328   16.3190 C   0  0  0  0  0  0  0  0  0  0  0  0
  -23.6215  -20.3499   17.6302 C   0  0  0  0  0  0  0  0  0  0  0  0
  -19.2399  -26.3131   19.1143 C   0  0  0  0  0  0  0  0  0  0  0  0
  -21.6144  -21.8845   17.8042 C   0  0  0  0  0  0  0  0  0  0  0  0
  -22.9197  -21.3461   19.8416 C   0  0  0  0  0  0  0  0  0  0  0  0
  -26.3631  -25.3120   15.8974 C   0  0  1  0  0  0  0  0  0  0  0  0
  -19.3151  -25.7552   20.5099 C   0  0  1  0  0  0  0  0  0  0  0  0
  -27.3486  -27.8357   18.5607 C   0  0  1  0  0  0  0  0  0  0  0  0
  -24.1084  -20.8772   18.9886 C   0  0  1  0  0  0  0  0  0  0  0  0
  -20.5046  -25.6566   19.5833 C   0  0  1  0  0  0  0  0  0  0  0  0
  -17.5094  -29.5661   23.1142 C   0  0  0  0  0  0  0  0  0  0  0  0
  -32.9148  -27.3049   23.9215 C   0  0  0  0  0  0  0  0  0  0  0  0
  -28.9067  -23.7417   20.0344 C   0  0  0  0  0  0  0  0  0  0  0  0
  -30.5254  -23.8270   21.9425 C   0  0  0  0  0  0  0  0  0  0  0  0
  -31.2590  -24.5017   19.6558 C   0  0  0  0  0  0  0  0  0  0  0  0
  -30.7606  -30.3516   23.1775 C   0  0  0  0  0  0  0  0  0  0  0  0
  -21.5459  -27.2889   24.5420 C   0  0  0  0  0  0  0  0  0  0  0  0
  -22.9128  -27.4075   23.8766 C   0  0  0  0  0  0  0  0  0  1  0  0
  -29.7081  -26.0160   20.9571 C   0  0  1  0  0  0  0  0  0  0  0  0
  -31.9775  -28.1718   23.0953 C   0  0  2  0  0  0  0  0  0  0  0  0
  -30.0761  -24.5374   20.6478 C   0  0  0  0  0  0  0  0  0  0  0  0
  -24.6940  -18.5474   19.5477 N   0  0  0  0  0  0  0  0  0  0  0  0
  -20.4026  -26.5490   22.5288 N   0  0  0  0  0  0  0  0  0  0  0  0
  -19.5201  -28.4023   23.7912 N   0  0  0  0  0  0  0  0  0  0  0  0
  -24.9596  -19.8538   19.7176 N   0  0  0  0  0  0  0  0  0  0  0  0
  -27.9359  -27.2826   19.7827 N   0  0  0  0  0  0  0  0  0  0  0  0
  -22.0945  -22.3253   19.1234 N   0  0  0  0  0  0  0  0  0  0  0  0
  -26.4058  -21.3568   20.8403 N   0  0  0  0  0  0  0  0  0  0  0  0
  -27.8741  -17.3014   22.1798 N   0  0  0  0  0  0  0  0  0  0  0  0
  -26.9938  -26.3520   16.6817 N   0  0  0  0  0  0  0  0  0  0  0  0
  -30.8047  -26.8009   21.5137 N   0  0  0  0  0  0  0  0  0  0  0  0
  -20.9232  -24.3843   19.0584 N   0  0  0  0  0  0  0  0  0  0  0  0
  -31.6567  -29.3974   23.8801 N   0  3  0  0  0  0  0  0  0  0  0  0
  -28.2010  -19.5618   22.3868 O   0  0  0  0  0  0  0  0  0  0  0  0
  -25.5755  -26.2769   18.5270 O   0  0  0  0  0  0  0  0  0  0  0  0
  -29.9952  -26.8793   18.7665 O   0  0  0  0  0  0  0  0  0  0  0  0
  -29.7215  -27.3954   23.4759 O   0  0  0  0  0  0  0  0  0  0  0  0
  -22.2168  -23.8481   20.8717 O   0  0  0  0  0  0  0  0  0  0  0  0
  -25.7815  -12.3706   20.6490 O   0  0  0  0  0  0  0  0  0  0  0  0
  -23.0408  -28.6894   23.2629 O   0  0  0  0  0  0  0  0  0  1  0  0
  -21.0032   -9.6988   21.3073 F   0  0  0  0  0  0  0  0  0  0  0  0
  -25.3418  -10.7755   22.8638 F   0  0  0  0  0  0  0  0  0  0  0  0
  1  2  1  0  0  0  0
  1  5  2  0  0  0  0
  2  6  2  0  0  0  0
  3  8  2  0  0  0  0
  3 16  1  0  0  0  0
  4  9  1  0  0  0  0
  4 16  2  0  0  0  0
  5 18  1  0  0  0  0
  6 20  1  0  0  0  0
  7 10  2  0  0  0  0
  7 19  1  0  0  0  0
  8 22  1  0  0  0  0
  9 22  2  0  0  0  0
 10 23  1  0  0  0  0
 11 12  2  0  0  0  0
 11 24  1  0  0  0  0
 12 25  1  0  0  0  0
 13 21  1  0  0  0  0
 13 23  2  0  0  0  0
 14 25  2  0  0  0  0
 14 26  1  0  0  0  0
 15 28  2  0  0  0  0
 15 29  1  0  0  0  0
 16 27  1  0  0  0  0
 17 27  1  0  0  0  0
 17 30  2  0  0  0  0
 17 32  1  0  0  0  0
 18 20  2  0  0  0  0
 18 37  1  0  0  0  0
 19 21  2  0  0  0  0
 19 38  1  0  0  0  0
 20 47  1  0  0  0  0
 21 39  1  0  0  0  0
 22 80  1  0  0  0  0
 23 81  1  0  0  0  0
 24 26  2  0  0  0  0
 24 80  1  0  0  0  0
 25 82  1  0  0  0  0
 26 83  1  0  0  0  0
 27 63  2  0  0  0  0
 28 48  1  0  0  0  0
 28 64  1  0  0  0  0
 29 52  1  0  0  0  0
 29 65  2  0  0  0  0
 30 66  1  0  0  0  0
 30 69  1  0  0  0  0
 31 58  1  0  0  0  0
 31 64  2  0  0  0  0
 31 65  1  0  0  0  0
 32 70  1  0  0  0  0
 32 75  2  0  0  0  0
 33 49  1  0  0  0  0
 33 71  1  0  0  0  0
 33 76  2  0  0  0  0
 34 60  1  0  0  0  0
 34 67  1  0  0  0  0
 34 77  2  0  0  0  0
 35 61  1  0  0  0  0
 35 72  1  0  0  0  0
 35 78  2  0  0  0  0
 36 68  1  0  0  0  0
 36 73  1  0  0  0  0
 36 79  2  0  0  0  0
 37 40  1  0  0  0  0
 38 49  1  0  0  0  0
 39 67  1  0  0  0  0
 40 42  1  0  0  0  0
 41 43  1  0  0  0  0
 41 45  1  0  0  0  0
 42 47  1  0  0  0  0
 43 50  1  0  0  0  0
 44 48  1  0  0  0  0
 44 51  1  0  0  0  0
 45 68  1  0  0  0  0
 46 50  1  0  0  0  0
 46 68  1  0  0  0  0
 47 71  1  0  0  0  0
 48 51  1  0  0  0  0
 49 67  1  0  0  0  0
 50 66  1  0  0  0  0
 51 73  1  0  0  0  0
 53 61  1  0  0  0  0
 54 62  1  0  0  0  0
 55 62  1  0  0  0  0
 56 62  1  0  0  0  0
 57 74  1  0  0  0  0
 58 59  1  0  0  0  0
 59 81  1  0  0  0  0
 60 62  1  0  0  0  0
 60 72  1  0  0  0  0
 61 74  1  0  0  0  0
 63 66  1  0  0  0  0
M  CHG  1  74   1
M  ISO  4  36 100  59 101  73 100  81 101
M  END
> <Batch ID>
0181

> <Smiles>
CNC(C)C(=O)NC(C(=O)N1Cc2cc([101O:1][101CH2:1]Cc3nc(C)cc(C4CC4[100NH:0][100C:0](=O)N4CCCC(n5nc(-c6ccc(Oc7ccc(F)cc7F)cc6)c(C(N)=O)c5N)C4)n3)ccc2CC1C(=O)NC1CCCc2ccccc21)C(C)(C)C

> <Shape>
0.204

> <Color>
0.063

> <Negative vol penalty>
0.000

$$$$

  -OEChem-04052323023D

 82 91  0     1  0  0  0  0  0999 V2000
  -19.9143  -34.2301   22.8678 C   0  0  0  0  0  0  0  0  0  0  0  0
  -21.1637  -33.8547   22.3848 C   0  0  0  0  0  0  0  0  0  0  0  0
  -26.0546  -15.0362   19.2738 C   0  0  0  0  0  0  0  0  0  0  0  0
  -27.2532  -14.9445   21.3695 C   0  0  0  0  0  0  0  0  0  0  0  0
  -19.1857  -33.3527   23.6697 C   0  0  0  0  0  0  0  0  0  0  0  0
  -21.6859  -32.6018   22.7044 C   0  0  0  0  0  0  0  0  0  0  0  0
  -25.1788  -29.0509   19.1412 C   0  0  0  0  0  0  0  0  0  0  0  0
  -25.7119  -13.6910   19.4109 C   0  0  0  0  0  0  0  0  0  0  0  0
  -26.9105  -13.5993   21.5066 C   0  0  0  0  0  0  0  0  0  0  0  0
  -26.5566  -28.8459   19.0840 C   0  0  0  0  0  0  0  0  0  0  0  0
  -23.4551  -11.8589   21.1379 C   0  0  0  0  0  0  0  0  0  0  0  0
  -22.1348  -11.4959   20.8721 C   0  0  0  0  0  0  0  0  0  0  0  0
  -26.3183  -26.8952   20.4831 C   0  0  0  0  0  0  0  0  0  0  0  0
  -22.8947  -10.0135   19.1222 C   0  0  0  0  0  0  0  0  0  0  0  0
  -26.8252  -15.6629   20.2531 C   0  0  0  0  0  0  0  0  0  0  0  0
  -26.4548  -18.1662   20.5755 C   0  0  0  0  0  0  0  0  0  0  0  0
  -19.6949  -32.0847   23.9914 C   0  0  0  0  0  0  0  0  0  0  0  0
  -24.3603  -28.1844   19.8800 C   0  0  0  0  0  0  0  0  0  0  0  0
  -20.9640  -31.7071   23.5126 C   0  0  0  0  0  0  0  0  0  0  0  0
  -24.9301  -27.0899   20.5460 C   0  0  0  0  0  0  0  0  0  0  0  0
  -26.1399  -12.9726   20.5273 C   0  0  0  0  0  0  0  0  0  0  0  0
  -27.1270  -27.7696   19.7574 C   0  0  0  0  0  0  0  0  0  0  0  0
  -24.4952  -11.2992   20.3958 C   0  0  0  0  0  0  0  0  0  0  0  0
  -21.8546  -10.5732   19.8643 C   0  0  0  0  0  0  0  0  0  0  0  0
  -24.2150  -10.3765   19.3880 C   0  0  0  0  0  0  0  0  0  0  0  0
  -27.1800  -17.0522   20.1118 C   0  0  0  0  0  0  0  0  0  0  0  0
  -31.4360  -27.3687   20.6278 C   0  0  0  0  0  0  0  0  0  0  0  0
  -30.4806  -26.4107   20.2608 C   0  0  0  0  0  0  0  0  0  0  0  0
  -27.2077  -19.2494   20.1932 C   0  0  0  0  0  0  0  0  0  0  0  0
  -25.2117  -18.2172   21.2882 C   0  0  0  0  0  0  0  0  0  0  0  0
  -22.4387  -28.5102   22.3909 C   0  0  0  0  0  0  0  0  0  0  0  0
  -21.7020  -25.4196   21.7366 C   0  0  0  0  0  0  0  0  0  0  0  0
  -22.6306  -22.4576   20.3186 C   0  0  0  0  0  0  0  0  0  0  0  0
  -32.1463  -21.6962   19.9752 C   0  0  0  0  0  0  0  0  0  0  0  0
  -18.8914  -31.1889   24.9006 C   0  0  0  0  0  0  0  0  0  0  0  0
  -22.8725  -28.4038   19.9097 C   0  0  0  0  0  0  0  0  0  0  0  0
  -24.0928  -26.1189   21.3363 C   0  0  0  0  0  0  0  0  0  0  0  0
  -19.3520  -29.7337   24.8844 C   0  0  0  0  0  0  0  0  0  0  0  0
  -31.1639  -19.5976   17.0926 C   0  0  0  0  0  0  0  0  0  0  0  0
  -20.8707  -29.6531   25.0020 C   0  0  0  0  0  0  0  0  0  0  0  0
  -30.0126  -18.7977   17.6936 C   0  0  0  0  0  0  0  0  0  0  0  0
  -35.0051  -25.2218   19.4503 C   0  0  0  0  0  0  0  0  0  0  0  0
  -35.3408  -23.7205   19.5248 C   0  0  0  0  0  0  0  0  0  0  0  0
  -32.2420  -19.9205   18.1267 C   0  0  0  0  0  0  0  0  0  0  0  0
  -30.5576  -19.8011   19.9442 C   0  0  0  0  0  0  0  0  0  0  0  0
  -21.5534  -30.3469   23.8170 C   0  0  1  0  0  0  0  0  0  0  0  0
  -22.1969  -27.7557   21.1142 C   0  0  1  0  0  0  0  0  0  0  0  0
  -29.4429  -19.5139   18.9272 C   0  0  2  0  0  0  0  0  0  0  0  0
  -33.5231  -24.8106   19.1948 C   0  0  1  0  0  0  0  0  0  0  0  0
  -33.8759  -23.4919   19.9562 C   0  0  1  0  0  0  0  0  0  0  0  0
  -31.2457  -28.6748   21.2740 C   0  0  0  0  0  0  0  0  0  0  0  0
  -22.4154  -20.0852   19.5293 C   0  0  0  0  0  0  0  0  0  0  0  0
  -22.3781  -24.7743   24.6412 C   0  0  0  0  0  0  0  0  0  0  0  0
  -22.4927  -22.3558   24.0042 C   0  0  0  0  0  0  0  0  0  0  0  0
  -20.3494  -23.6083   23.7585 C   0  0  0  0  0  0  0  0  0  0  0  0
  -21.5457  -23.3053   17.6988 C   0  0  0  0  0  0  0  0  0  0  0  0
  -28.9888  -26.4452   20.4173 C   0  0  0  0  0  0  0  0  0  1  0  0
  -22.2498  -24.0776   22.1584 C   0  0  1  0  0  0  0  0  0  0  0  0
  -21.8895  -21.5060   19.3967 C   0  0  2  0  0  0  0  0  0  0  0  0
  -21.8838  -23.7232   23.6273 C   0  0  0  0  0  0  0  0  0  0  0  0
  -28.3070  -17.3961   19.4828 N   0  0  0  0  0  0  0  0  0  0  0  0
  -32.6583  -26.9365   20.3049 N   0  0  0  0  0  0  0  0  0  0  0  0
  -31.0853  -25.3599   19.6995 N   0  0  0  0  0  0  0  0  0  0  0  0
  -28.2956  -18.7384   19.5486 N   0  0  0  0  0  0  0  0  0  0  0  0
  -32.3707  -25.7431   19.7608 N   0  0  0  0  0  0  0  0  0  0  0  0
  -22.6438  -26.3797   21.3403 N   0  0  0  0  0  0  0  0  0  0  0  0
  -31.6712  -20.5381   19.3343 N   0  0  0  0  0  0  0  0  0  0  0  0
  -27.0387  -20.5797   20.3489 N   0  0  0  0  0  0  0  0  0  0  0  0
  -24.5709  -17.0106   21.6010 N   0  0  0  0  0  0  0  0  0  0  0  0
  -21.5098  -29.5017   22.6430 N   0  0  0  0  0  0  0  0  0  0  0  0
  -21.7707  -23.1134   21.1739 N   0  0  0  0  0  0  0  0  0  0  0  0
  -33.2650  -22.2925   19.4014 N   0  0  0  0  0  0  0  0  0  0  0  0
  -22.0443  -21.9340   17.9776 N   0  3  0  0  0  0  0  0  0  0  0  0
  -24.6766  -19.3012   21.6228 O   0  0  0  0  0  0  0  0  0  0  0  0
  -23.3961  -28.2137   23.0960 O   0  0  0  0  0  0  0  0  0  0  0  0
  -20.4828  -25.6068   21.7512 O   0  0  0  0  0  0  0  0  0  0  0  0
  -23.8507  -22.6017   20.2859 O   0  0  0  0  0  0  0  0  0  0  0  0
  -31.6209  -22.1664   20.9901 O   0  0  0  0  0  0  0  0  0  0  0  0
  -25.8055  -11.6601   20.6615 O   0  0  0  0  0  0  0  0  0  0  0  0
  -28.4717  -27.5676   19.7038 O   0  0  0  0  0  0  0  0  0  1  0  0
  -20.5868  -10.2236   19.6102 F   0  0  0  0  0  0  0  0  0  0  0  0
  -25.2101   -9.8346   18.6725 F   0  0  0  0  0  0  0  0  0  0  0  0
  1  2  1  0  0  0  0
  1  5  2  0  0  0  0
  2  6  2  0  0  0  0
  3  8  2  0  0  0  0
  3 15  1  0  0  0  0
  4  9  1  0  0  0  0
  4 15  2  0  0  0  0
  5 17  1  0  0  0  0
  6 19  1  0  0  0  0
  7 10  2  0  0  0  0
  7 18  1  0  0  0  0
  8 21  1  0  0  0  0
  9 21  2  0  0  0  0
 10 22  1  0  0  0  0
 11 12  2  0  0  0  0
 11 23  1  0  0  0  0
 12 24  1  0  0  0  0
 13 20  1  0  0  0  0
 13 22  2  0  0  0  0
 14 24  2  0  0  0  0
 14 25  1  0  0  0  0
 15 26  1  0  0  0  0
 16 26  1  0  0  0  0
 16 29  2  0  0  0  0
 16 30  1  0  0  0  0
 17 19  2  0  0  0  0
 17 35  1  0  0  0  0
 18 20  2  0  0  0  0
 18 36  1  0  0  0  0
 19 46  1  0  0  0  0
 20 37  1  0  0  0  0
 21 79  1  0  0  0  0
 22 80  1  0  0  0  0
 23 25  2  0  0  0  0
 23 79  1  0  0  0  0
 24 81  1  0  0  0  0
 25 82  1  0  0  0  0
 26 61  2  0  0  0  0
 27 28  1  0  0  0  0
 27 51  1  0  0  0  0
 27 62  2  0  0  0  0
 28 57  1  0  0  0  0
 28 63  2  0  0  0  0
 29 64  1  0  0  0  0
 29 68  1  0  0  0  0
 30 69  1  0  0  0  0
 30 74  2  0  0  0  0
 31 47  1  0  0  0  0
 31 70  1  0  0  0  0
 31 75  2  0  0  0  0
 32 58  1  0  0  0  0
 32 66  1  0  0  0  0
 32 76  2  0  0  0  0
 33 59  1  0  0  0  0
 33 71  1  0  0  0  0
 33 77  2  0  0  0  0
 34 67  1  0  0  0  0
 34 72  1  0  0  0  0
 34 78  2  0  0  0  0
 35 38  1  0  0  0  0
 36 47  1  0  0  0  0
 37 66  1  0  0  0  0
 38 40  1  0  0  0  0
 39 41  1  0  0  0  0
 39 44  1  0  0  0  0
 40 46  1  0  0  0  0
 41 48  1  0  0  0  0
 42 43  1  0  0  0  0
 42 49  1  0  0  0  0
 43 50  1  0  0  0  0
 44 67  1  0  0  0  0
 45 48  1  0  0  0  0
 45 67  1  0  0  0  0
 46 70  1  0  0  0  0
 47 66  1  0  0  0  0
 48 64  1  0  0  0  0
 49 50  1  0  0  0  0
 49 65  1  0  0  0  0
 50 72  1  0  0  0  0
 52 59  1  0  0  0  0
 53 60  1  0  0  0  0
 54 60  1  0  0  0  0
 55 60  1  0  0  0  0
 56 73  1  0  0  0  0
 57 80  1  0  0  0  0
 58 60  1  0  0  0  0
 58 71  1  0  0  0  0
 59 73  1  0  0  0  0
 61 64  1  0  0  0  0
 62 65  1  0  0  0  0
 63 65  1  0  0  0  0
M  CHG  1  73   1
M  ISO  4  34 100  57 101  72 100  80 101
M  END
> <Batch ID>
0181

> <Smiles>
CNC(C)C(=O)NC(C(=O)N1Cc2cc([101O:1][101CH2:1]c3nn(C4CCC4[100NH:0][100C:0](=O)N4CCCC(n5nc(-c6ccc(Oc7ccc(F)cc7F)cc6)c(C(N)=O)c5N)C4)nc3C)ccc2CC1C(=O)NC1CCCc2ccccc21)C(C)(C)C

> <Shape>
0.189

> <Color>
0.089

> <Negative vol penalty>
0.000

$$$$

  -OEChem-04052323023D

 83 92  0     1  0  0  0  0  0999 V2000
  -16.6309  -28.8201   24.0060 C   0  0  0  0  0  0  0  0  0  0  0  0
  -17.5640  -27.7966   23.8752 C   0  0  0  0  0  0  0  0  0  0  0  0
  -23.9567   -9.6955   21.5688 C   0  0  0  0  0  0  0  0  0  0  0  0
  -24.4445  -10.8556   23.6311 C   0  0  0  0  0  0  0  0  0  0  0  0
  -16.8836  -30.0688   23.4396 C   0  0  0  0  0  0  0  0  0  0  0  0
  -18.7500  -28.0209   23.1770 C   0  0  0  0  0  0  0  0  0  0  0  0
  -24.2541  -25.6337   24.4069 C   0  0  0  0  0  0  0  0  0  0  0  0
  -23.4727   -8.6076   22.2952 C   0  0  0  0  0  0  0  0  0  0  0  0
  -23.9605   -9.7677   24.3576 C   0  0  0  0  0  0  0  0  0  0  0  0
  -24.9490  -24.5519   23.8678 C   0  0  0  0  0  0  0  0  0  0  0  0
  -20.6453   -7.7797   23.9545 C   0  0  0  0  0  0  0  0  0  0  0  0
  -19.4432   -7.2066   23.5399 C   0  0  0  0  0  0  0  0  0  0  0  0
  -26.1307  -26.0529   22.3947 C   0  0  0  0  0  0  0  0  0  0  0  0
  -28.5118  -21.5119   22.2675 C   0  0  0  0  0  0  0  0  0  0  0  0
  -20.5694   -5.0982   23.1888 C   0  0  0  0  0  0  0  0  0  0  0  0
  -24.4427  -10.8195   22.2367 C   0  0  0  0  0  0  0  0  0  0  0  0
  -24.2110  -13.0572   21.0339 C   0  0  0  0  0  0  0  0  0  0  0  0
  -18.0776  -30.3114   22.7423 C   0  0  0  0  0  0  0  0  0  0  0  0
  -24.4848  -26.9341   23.9355 C   0  0  0  0  0  0  0  0  0  0  0  0
  -19.0184  -29.2736   22.5996 C   0  0  0  0  0  0  0  0  0  0  0  0
  -25.4393  -27.1498   22.9313 C   0  0  0  0  0  0  0  0  0  0  0  0
  -29.2518  -20.5361   21.6302 C   0  0  0  0  0  0  0  0  0  0  0  0
  -28.6257  -19.5072   20.9230 C   0  0  0  0  0  0  0  0  0  0  0  0
  -23.4746   -8.6436   23.6896 C   0  0  0  0  0  0  0  0  0  0  0  0
  -25.8854  -24.7611   22.8596 C   0  0  0  0  0  0  0  0  0  0  0  0
  -21.8096   -7.0121   23.9862 C   0  0  0  0  0  0  0  0  0  0  0  0
  -19.4051   -5.8658   23.1571 C   0  0  0  0  0  0  0  0  0  0  0  0
  -21.7716   -5.6713   23.6034 C   0  0  0  0  0  0  0  0  0  0  0  0
  -24.9433  -11.9435   21.4869 C   0  0  0  0  0  0  0  0  0  0  0  0
  -27.1330  -21.3969   22.1721 C   0  0  0  0  0  0  0  0  0  0  0  0
  -27.2489  -19.4845   20.8757 C   0  0  0  0  0  0  0  0  0  0  0  0
  -25.1362  -13.8333   20.3795 C   0  0  0  0  0  0  0  0  0  0  0  0
  -22.8190  -13.3629   21.1906 C   0  0  0  0  0  0  0  0  0  0  0  0
  -22.7100  -29.1491   22.5046 C   0  0  0  0  0  0  0  0  0  0  0  0
  -25.3626  -30.9736   22.9013 C   0  0  0  0  0  0  0  0  0  0  0  0
  -28.7452  -31.1131   23.3316 C   0  0  0  0  0  0  0  0  0  0  0  0
  -30.1908  -16.1819   20.0962 C   0  0  0  0  0  0  0  0  0  0  0  0
  -18.2853  -31.6633   22.1068 C   0  0  0  0  0  0  0  0  0  0  0  0
  -23.7462  -28.0935   24.5461 C   0  0  0  0  0  0  0  0  0  0  0  0
  -30.7397  -20.4303   21.5268 C   0  0  0  0  0  0  0  0  0  0  0  0
  -25.7385  -28.5287   22.4046 C   0  0  0  0  0  0  0  0  0  0  0  0
  -19.7331  -31.9309   21.7038 C   0  0  0  0  0  0  0  0  0  0  0  0
  -30.9006  -18.9641   21.0911 C   0  0  0  0  0  0  0  0  0  0  0  0
  -29.8892  -12.8142   18.9805 C   0  0  0  0  0  0  0  0  0  0  0  0
  -20.3143  -30.7265   20.9701 C   0  0  0  0  0  0  0  0  0  0  0  0
  -28.5186  -12.3779   19.5010 C   0  0  0  0  0  0  0  0  0  0  0  0
  -30.5976  -13.7418   19.9653 C   0  0  0  0  0  0  0  0  0  0  0  0
  -28.4419  -14.4825   20.9022 C   0  0  0  0  0  0  0  0  0  0  0  0
  -20.3276  -29.4855   21.8708 C   0  0  1  0  0  0  0  0  0  0  0  0
  -23.6893  -29.3137   23.6322 C   0  0  1  0  0  0  0  0  0  0  0  0
  -27.6652  -13.5906   19.9185 C   0  0  2  0  0  0  0  0  0  0  0  0
  -29.6319  -18.5929   20.2792 C   0  0  2  0  0  0  0  0  0  0  0  0
  -26.5019  -18.4069   20.1697 C   0  0  0  0  0  0  0  0  0  0  0  0
  -29.7963  -18.9139   18.7920 C   0  0  0  0  0  0  0  0  0  0  0  0
  -30.6329  -32.7469   23.5860 C   0  0  0  0  0  0  0  0  0  0  0  0
  -25.2520  -31.5634   19.9097 C   0  0  0  0  0  0  0  0  0  0  0  0
  -27.6166  -32.3733   20.0527 C   0  0  0  0  0  0  0  0  0  0  0  0
  -25.8228  -33.5332   21.3409 C   0  0  0  0  0  0  0  0  0  0  0  0
  -29.4363  -30.0745   26.0154 C   0  0  0  0  0  0  0  0  0  0  0  0
  -26.2681  -22.4138   22.8569 C   0  0  0  0  0  0  0  0  0  1  0  0
  -26.6037  -31.2471   22.0865 C   0  0  1  0  0  0  0  0  0  0  0  0
  -29.6048  -31.8922   24.3107 C   0  0  2  0  0  0  0  0  0  0  0  0
  -26.3170  -32.1529   20.8558 C   0  0  0  0  0  0  0  0  0  0  0  0
  -26.2341  -12.0029   21.1488 N   0  0  0  0  0  0  0  0  0  0  0  0
  -26.4834  -20.4121   21.4958 N   0  0  0  0  0  0  0  0  0  0  0  0
  -26.3202  -13.1632   20.4762 N   0  0  0  0  0  0  0  0  0  0  0  0
  -24.9858  -29.6291   23.0292 N   0  0  0  0  0  0  0  0  0  0  0  0
  -29.7355  -14.8720   20.3194 N   0  0  0  0  0  0  0  0  0  0  0  0
  -25.0443  -15.0167   19.7364 N   0  0  0  0  0  0  0  0  0  0  0  0
  -22.0107  -12.4568   21.8906 N   0  0  0  0  0  0  0  0  0  0  0  0
  -21.4253  -29.5553   22.8113 N   0  0  0  0  0  0  0  0  0  0  0  0
  -27.5887  -31.7933   23.0139 N   0  0  0  0  0  0  0  0  0  0  0  0
  -29.3090  -17.1944   20.4540 N   0  0  0  0  0  0  0  0  0  0  0  0
  -30.3269  -30.9599   25.2218 N   0  3  0  0  0  0  0  0  0  0  0  0
  -22.3039  -14.4006   20.7097 O   0  0  0  0  0  0  0  0  0  0  0  0
  -23.0920  -28.6891   21.4349 O   0  0  0  0  0  0  0  0  0  0  0  0
  -24.7540  -31.9174   23.4116 O   0  0  0  0  0  0  0  0  0  0  0  0
  -29.0693  -30.0129   22.8899 O   0  0  0  0  0  0  0  0  0  0  0  0
  -31.2989  -16.4305   19.6090 O   0  0  0  0  0  0  0  0  0  0  0  0
  -23.0022   -7.5823   24.3988 O   0  0  0  0  0  0  0  0  0  0  0  0
  -26.5647  -23.7069   22.3312 O   0  0  0  0  0  0  0  0  0  1  0  0
  -18.2503   -5.3152   22.7605 F   0  0  0  0  0  0  0  0  0  0  0  0
  -22.8866   -4.9285   23.6329 F   0  0  0  0  0  0  0  0  0  0  0  0
  1  2  1  0  0  0  0
  1  5  2  0  0  0  0
  2  6  2  0  0  0  0
  3  8  2  0  0  0  0
  3 16  1  0  0  0  0
  4  9  1  0  0  0  0
  4 16  2  0  0  0  0
  5 18  1  0  0  0  0
  6 20  1  0  0  0  0
  7 10  2  0  0  0  0
  7 19  1  0  0  0  0
  8 24  1  0  0  0  0
  9 24  2  0  0  0  0
 10 25  1  0  0  0  0
 11 12  2  0  0  0  0
 11 26  1  0  0  0  0
 12 27  1  0  0  0  0
 13 21  1  0  0  0  0
 13 25  2  0  0  0  0
 14 22  2  0  0  0  0
 14 30  1  0  0  0  0
 15 27  2  0  0  0  0
 15 28  1  0  0  0  0
 16 29  1  0  0  0  0
 17 29  1  0  0  0  0
 17 32  2  0  0  0  0
 17 33  1  0  0  0  0
 18 20  2  0  0  0  0
 18 38  1  0  0  0  0
 19 21  2  0  0  0  0
 19 39  1  0  0  0  0
 20 49  1  0  0  0  0
 21 41  1  0  0  0  0
 22 23  1  0  0  0  0
 22 40  1  0  0  0  0
 23 31  2  0  0  0  0
 23 52  1  0  0  0  0
 24 80  1  0  0  0  0
 25 81  1  0  0  0  0
 26 28  2  0  0  0  0
 26 80  1  0  0  0  0
 27 82  1  0  0  0  0
 28 83  1  0  0  0  0
 29 64  2  0  0  0  0
 30 60  1  0  0  0  0
 30 65  2  0  0  0  0
 31 53  1  0  0  0  0
 31 65  1  0  0  0  0
 32 66  1  0  0  0  0
 32 69  1  0  0  0  0
 33 70  1  0  0  0  0
 33 75  2  0  0  0  0
 34 50  1  0  0  0  0
 34 71  1  0  0  0  0
 34 76  2  0  0  0  0
 35 61  1  0  0  0  0
 35 67  1  0  0  0  0
 35 77  2  0  0  0  0
 36 62  1  0  0  0  0
 36 72  1  0  0  0  0
 36 78  2  0  0  0  0
 37 68  1  0  0  0  0
 37 73  1  0  0  0  0
 37 79  2  0  0  0  0
 38 42  1  0  0  0  0
 39 50  1  0  0  0  0
 40 43  1  0  0  0  0
 41 67  1  0  0  0  0
 42 45  1  0  0  0  0
 43 52  1  0  0  0  0
 44 46  1  0  0  0  0
 44 47  1  0  0  0  0
 45 49  1  0  0  0  0
 46 51  1  0  0  0  0
 47 68  1  0  0  0  0
 48 51  1  0  0  0  0
 48 68  1  0  0  0  0
 49 71  1  0  0  0  0
 50 67  1  0  0  0  0
 51 66  1  0  0  0  0
 52 54  1  0  0  0  0
 52 73  1  0  0  0  0
 55 62  1  0  0  0  0
 56 63  1  0  0  0  0
 57 63  1  0  0  0  0
 58 63  1  0  0  0  0
 59 74  1  0  0  0  0
 60 81  1  0  0  0  0
 61 63  1  0  0  0  0
 61 72  1  0  0  0  0
 62 74  1  0  0  0  0
 64 66  1  0  0  0  0
M  CHG  1  74   1
M  ISO  4  37 100  60 101  73 100  81 101
M  END
> <Batch ID>
0181

> <Smiles>
CNC(C)C(=O)NC(C(=O)N1Cc2cc([101O:1][101CH2:1]c3cc4c(c(C)n3)C(C)([100NH:0][100C:0](=O)N3CCCC(n5nc(-c6ccc(Oc7ccc(F)cc7F)cc6)c(C(N)=O)c5N)C3)CC4)ccc2CC1C(=O)NC1CCCc2ccccc21)C(C)(C)C

> <Shape>
0.282

> <Color>
0.141

> <Negative vol penalty>
0.000

$$$$

  -OEChem-04052323023D

 85 93  0     1  0  0  0  0  0999 V2000
  -16.8839  -30.2998   23.4753 C   0  0  0  0  0  0  0  0  0  0  0  0
  -18.1648  -30.8264   23.3440 C   0  0  0  0  0  0  0  0  0  0  0  0
  -23.0165  -17.8017   20.7556 C   0  0  0  0  0  0  0  0  0  0  0  0
  -24.1944  -18.0075   18.6563 C   0  0  0  0  0  0  0  0  0  0  0  0
  -16.6915  -28.9195   23.4363 C   0  0  0  0  0  0  0  0  0  0  0  0
  -19.2544  -29.9729   23.1747 C   0  0  0  0  0  0  0  0  0  0  0  0
  -25.6305  -29.6358   19.9269 C   0  0  0  0  0  0  0  0  0  0  0  0
  -21.8308  -17.5492   20.0657 C   0  0  0  0  0  0  0  0  0  0  0  0
  -23.0087  -17.7550   17.9663 C   0  0  0  0  0  0  0  0  0  0  0  0
  -26.9687  -29.3623   20.2068 C   0  0  0  0  0  0  0  0  0  0  0  0
  -21.1228  -15.0698   17.1578 C   0  0  0  0  0  0  0  0  0  0  0  0
  -21.1734  -14.1702   16.0930 C   0  0  0  0  0  0  0  0  0  0  0  0
  -26.5068  -26.9983   20.0752 C   0  0  0  0  0  0  0  0  0  0  0  0
  -20.4170  -15.9052   14.5913 C   0  0  0  0  0  0  0  0  0  0  0  0
  -29.5278  -24.3120   17.5610 C   0  0  0  0  0  0  0  0  0  0  0  0
  -24.1983  -18.0309   20.0509 C   0  0  0  0  0  0  0  0  0  0  0  0
  -26.3701  -17.3473   21.2014 C   0  0  0  0  0  0  0  0  0  0  0  0
  -17.7781  -28.0490   23.2567 C   0  0  0  0  0  0  0  0  0  0  0  0
  -24.7166  -28.5907   19.7296 C   0  0  0  0  0  0  0  0  0  0  0  0
  -19.0766  -28.5795   23.1346 C   0  0  0  0  0  0  0  0  0  0  0  0
  -25.1581  -27.2612   19.7905 C   0  0  0  0  0  0  0  0  0  0  0  0
  -31.4659  -25.6535   17.0828 C   0  0  0  0  0  0  0  0  0  0  0  0
  -21.8269  -17.5258   18.6710 C   0  0  0  0  0  0  0  0  0  0  0  0
  -27.4064  -28.0434   20.2838 C   0  0  0  0  0  0  0  0  0  0  0  0
  -20.7192  -16.3871   16.9394 C   0  0  0  0  0  0  0  0  0  0  0  0
  -20.8206  -14.5879   14.8098 C   0  0  0  0  0  0  0  0  0  0  0  0
  -20.3664  -16.8047   15.6562 C   0  0  0  0  0  0  0  0  0  0  0  0
  -30.3584  -24.9394   16.6391 C   0  0  0  0  0  0  0  0  0  0  0  0
  -25.4232  -18.2924   20.7631 C   0  0  0  0  0  0  0  0  0  0  0  0
  -31.6972  -25.7094   18.4478 C   0  0  0  0  0  0  0  0  0  0  0  0
  -29.8460  -24.4279   18.9045 C   0  0  0  0  0  0  0  0  0  0  0  0
  -27.3419  -18.0960   21.8191 C   0  0  0  0  0  0  0  0  0  0  0  0
  -26.3710  -15.9203   21.0626 C   0  0  0  0  0  0  0  0  0  0  0  0
  -22.0736  -27.6143   21.2009 C   0  0  0  0  0  0  0  0  0  0  0  0
  -21.9156  -25.5469   18.7063 C   0  0  0  0  0  0  0  0  0  0  0  0
  -23.5557  -23.8524   16.2394 C   0  0  0  0  0  0  0  0  0  0  0  0
  -29.1177  -23.7703   21.2248 C   0  0  0  0  0  0  0  0  0  0  0  0
  -17.5266  -26.5619   23.2685 C   0  0  0  0  0  0  0  0  0  0  0  0
  -23.2821  -28.9027   19.4021 C   0  0  0  0  0  0  0  0  0  0  0  0
  -24.2212  -26.1035   19.5664 C   0  0  0  0  0  0  0  0  0  0  0  0
  -18.6879  -25.7433   22.7103 C   0  0  0  0  0  0  0  0  0  0  0  0
  -27.9545  -22.2040   24.2031 C   0  0  0  0  0  0  0  0  0  0  0  0
  -20.0110  -26.2245   23.2976 C   0  0  0  0  0  0  0  0  0  0  0  0
  -27.2648  -20.9340   23.6993 C   0  0  0  0  0  0  0  0  0  0  0  0
  -27.7377  -23.3815   23.2544 C   0  0  0  0  0  0  0  0  0  0  0  0
  -27.4062  -21.8545   21.3499 C   0  0  0  0  0  0  0  0  0  0  0  0
  -20.2807  -27.6872   22.9245 C   0  0  1  0  0  0  0  0  0  0  0  0
  -22.3316  -27.7546   19.7273 C   0  0  1  0  0  0  0  0  0  0  0  0
  -27.6505  -20.6246   22.2395 C   0  0  2  0  0  0  0  0  0  0  0  0
  -32.3597  -26.3318   16.1029 C   0  0  0  0  0  0  0  0  0  0  0  0
  -23.1653  -22.2095   14.3831 C   0  0  0  0  0  0  0  0  0  0  0  0
  -21.6982  -23.2923   20.7506 C   0  0  0  0  0  0  0  0  0  0  0  0
  -22.2654  -21.6759   18.9248 C   0  0  0  0  0  0  0  0  0  0  0  0
  -20.1911  -23.0528   18.7693 C   0  0  0  0  0  0  0  0  0  0  0  0
  -24.4936  -25.7696   14.1891 C   0  0  0  0  0  0  0  0  0  0  0  0
  -32.0191  -29.4083   19.7791 C   0  0  0  0  0  0  0  0  0  0  0  0
  -32.8779  -26.4661   18.9839 C   0  0  0  0  0  0  0  0  0  0  0  0
  -32.6471  -27.0711   20.3651 C   0  0  0  0  0  0  0  0  0  0  0  0
  -30.8253  -28.2208   21.6139 C   0  0  0  0  0  0  0  0  0  0  0  0
  -29.4139  -28.7160   21.3671 C   0  0  0  0  0  0  0  0  0  1  0  0
  -22.4403  -24.1578   18.4341 C   0  0  1  0  0  0  0  0  0  0  0  0
  -23.2515  -23.6798   14.7622 C   0  0  2  0  0  0  0  0  0  0  0  0
  -21.6663  -23.0662   19.2259 C   0  0  0  0  0  0  0  0  0  0  0  0
  -25.7628  -19.5457   21.0759 N   0  0  0  0  0  0  0  0  0  0  0  0
  -30.9130  -25.1129   19.3734 N   0  0  0  0  0  0  0  0  0  0  0  0
  -26.9338  -19.3934   21.7175 N   0  0  0  0  0  0  0  0  0  0  0  0
  -22.8270  -26.4599   19.2554 N   0  0  0  0  0  0  0  0  0  0  0  0
  -28.1286  -23.0163   21.8911 N   0  0  0  0  0  0  0  0  0  0  0  0
  -28.4971  -17.7644   22.4340 N   0  0  0  0  0  0  0  0  0  0  0  0
  -25.2955  -15.3127   20.4004 N   0  0  0  0  0  0  0  0  0  0  0  0
  -28.9921  -23.7870   19.8361 N   0  0  0  0  0  0  0  0  0  0  0  0
  -20.7495  -27.7823   21.5586 N   0  0  0  0  0  0  0  0  0  0  0  0
  -22.4040  -23.9842   16.9860 N   0  0  0  0  0  0  0  0  0  0  0  0
  -24.3161  -24.3165   13.9362 N   0  3  0  0  0  0  0  0  0  0  0  0
  -31.5311  -28.0851   20.3148 N   0  3  1  0  0  0  0  0  0  0  0  0
  -27.2901  -15.2038   21.5268 O   0  0  0  0  0  0  0  0  0  0  0  0
  -23.0065  -27.3702   21.9571 O   0  0  0  0  0  0  0  0  0  0  0  0
  -20.7424  -25.8141   18.4347 O   0  0  0  0  0  0  0  0  0  0  0  0
  -24.7004  -23.8651   16.6866 O   0  0  0  0  0  0  0  0  0  0  0  0
  -30.0263  -24.3355   21.8389 O   0  0  0  0  0  0  0  0  0  0  0  0
  -20.6702  -17.2792   17.9974 O   0  0  0  0  0  0  0  0  0  0  0  0
  -28.7119  -27.7737   20.5574 O   0  0  0  0  0  0  0  0  0  1  0  0
  -20.8707  -13.7243   13.7871 F   0  0  0  0  0  0  0  0  0  0  0  0
  -19.9790  -18.0693   15.4400 F   0  0  0  0  0  0  0  0  0  0  0  0
  -30.0836  -24.8515   15.3303 F   0  0  0  0  0  0  0  0  0  0  0  0
  1  2  1  0  0  0  0
  1  5  2  0  0  0  0
  2  6  2  0  0  0  0
  3  8  2  0  0  0  0
  3 16  1  0  0  0  0
  4  9  1  0  0  0  0
  4 16  2  0  0  0  0
  5 18  1  0  0  0  0
  6 20  1  0  0  0  0
  7 10  2  0  0  0  0
  7 19  1  0  0  0  0
  8 23  1  0  0  0  0
  9 23  2  0  0  0  0
 10 24  1  0  0  0  0
 11 12  2  0  0  0  0
 11 25  1  0  0  0  0
 12 26  1  0  0  0  0
 13 21  1  0  0  0  0
 13 24  2  0  0  0  0
 14 26  2  0  0  0  0
 14 27  1  0  0  0  0
 15 28  2  0  0  0  0
 15 31  1  0  0  0  0
 16 29  1  0  0  0  0
 17 29  1  0  0  0  0
 17 32  2  0  0  0  0
 17 33  1  0  0  0  0
 18 20  2  0  0  0  0
 18 38  1  0  0  0  0
 19 21  2  0  0  0  0
 19 39  1  0  0  0  0
 20 47  1  0  0  0  0
 21 40  1  0  0  0  0
 22 28  1  0  0  0  0
 22 30  2  0  0  0  0
 22 50  1  0  0  0  0
 23 81  1  0  0  0  0
 24 82  1  0  0  0  0
 25 27  2  0  0  0  0
 25 81  1  0  0  0  0
 26 83  1  0  0  0  0
 27 84  1  0  0  0  0
 28 85  1  0  0  0  0
 29 64  2  0  0  0  0
 30 57  1  0  0  0  0
 30 65  1  0  0  0  0
 31 65  2  0  0  0  0
 31 71  1  0  0  0  0
 32 66  1  0  0  0  0
 32 69  1  0  0  0  0
 33 70  1  0  0  0  0
 33 76  2  0  0  0  0
 34 48  1  0  0  0  0
 34 72  1  0  0  0  0
 34 77  2  0  0  0  0
 35 61  1  0  0  0  0
 35 67  1  0  0  0  0
 35 78  2  0  0  0  0
 36 62  1  0  0  0  0
 36 73  1  0  0  0  0
 36 79  2  0  0  0  0
 37 68  1  0  0  0  0
 37 71  1  0  0  0  0
 37 80  2  0  0  0  0
 38 41  1  0  0  0  0
 39 48  1  0  0  0  0
 40 67  1  0  0  0  0
 41 43  1  0  0  0  0
 42 44  1  0  0  0  0
 42 45  1  0  0  0  0
 43 47  1  0  0  0  0
 44 49  1  0  0  0  0
 45 68  1  0  0  0  0
 46 49  1  0  0  0  0
 46 68  1  0  0  0  0
 47 72  1  0  0  0  0
 48 67  1  0  0  0  0
 49 66  1  0  0  0  0
 51 62  1  0  0  0  0
 52 63  1  0  0  0  0
 53 63  1  0  0  0  0
 54 63  1  0  0  0  0
 55 74  1  0  0  0  0
 56 75  1  0  0  0  0
 57 58  1  0  0  0  0
 58 75  1  0  0  0  0
 59 60  1  0  0  0  0
 59 75  1  0  0  0  0
 60 82  1  0  0  0  0
 61 63  1  0  0  0  0
 61 73  1  0  0  0  0
 62 74  1  0  0  0  0
 64 66  1  0  0  0  0
M  CHG  2  74   1  75   1
M  ISO  4  37 100  60 101  71 100  82 101
M  END
> <Batch ID>
0181

> <Smiles>
CNC(C)C(=O)NC(C(=O)N1Cc2cc([101O:1][101CH2:1]CN(C)CCc3nc([100NH:0][100C:0](=O)N4CCCC(n5nc(-c6ccc(Oc7ccc(F)cc7F)cc6)c(C(N)=O)c5N)C4)cc(F)c3C)ccc2CC1C(=O)NC1CCCc2ccccc21)C(C)(C)C

> <Shape>
0.181

> <Color>
0.088

> <Negative vol penalty>
0.000

$$$$

  -OEChem-04052323023D

 87 96  0     1  0  0  0  0  0999 V2000
  -17.4235  -15.3304   24.5998 C   0  0  0  0  0  0  0  0  0  0  0  0
  -18.6908  -15.2878   24.0276 C   0  0  0  0  0  0  0  0  0  0  0  0
  -23.1894   -9.8194   19.9317 C   0  0  0  0  0  0  0  0  0  0  0  0
  -23.5681   -9.9997   22.3111 C   0  0  0  0  0  0  0  0  0  0  0  0
  -17.1038  -16.3380   25.5088 C   0  0  0  0  0  0  0  0  0  0  0  0
  -19.6389  -16.2537   24.3633 C   0  0  0  0  0  0  0  0  0  0  0  0
  -25.6904  -15.4555   24.8611 C   0  0  0  0  0  0  0  0  0  0  0  0
  -22.4230   -8.6729   20.1406 C   0  0  0  0  0  0  0  0  0  0  0  0
  -22.8017   -8.8532   22.5199 C   0  0  0  0  0  0  0  0  0  0  0  0
  -26.7458  -15.7149   23.9877 C   0  0  0  0  0  0  0  0  0  0  0  0
  -21.2439   -5.7696   23.6490 C   0  0  0  0  0  0  0  0  0  0  0  0
  -21.7402   -4.8097   24.5309 C   0  0  0  0  0  0  0  0  0  0  0  0
  -27.1189  -17.8342   25.0779 C   0  0  0  0  0  0  0  0  0  0  0  0
  -29.5557  -14.8043   27.2492 C   0  0  0  0  0  0  0  0  0  0  0  0
  -23.6986   -4.5454   23.1409 C   0  0  0  0  0  0  0  0  0  0  0  0
  -23.7621  -10.4828   21.0170 C   0  0  0  0  0  0  0  0  0  0  0  0
  -24.1012  -12.9994   20.7732 C   0  0  0  0  0  0  0  0  0  0  0  0
  -18.0515  -17.3111   25.8631 C   0  0  0  0  0  0  0  0  0  0  0  0
  -25.3339  -16.3898   25.8440 C   0  0  0  0  0  0  0  0  0  0  0  0
  -19.3312  -17.2761   25.2769 C   0  0  0  0  0  0  0  0  0  0  0  0
  -26.0603  -17.5831   25.9641 C   0  0  0  0  0  0  0  0  0  0  0  0
  -30.3636  -15.5968   26.4414 C   0  0  0  0  0  0  0  0  0  0  0  0
  -31.0275  -15.0279   25.3602 C   0  0  0  0  0  0  0  0  0  0  0  0
  -22.2291   -8.1898   21.4347 C   0  0  0  0  0  0  0  0  0  0  0  0
  -27.4583  -16.9057   24.0942 C   0  0  0  0  0  0  0  0  0  0  0  0
  -21.9748   -6.1174   22.5130 C   0  0  0  0  0  0  0  0  0  0  0  0
  -22.9676   -4.1976   24.2769 C   0  0  0  0  0  0  0  0  0  0  0  0
  -23.2022   -5.5053   22.2590 C   0  0  0  0  0  0  0  0  0  0  0  0
  -24.5544  -11.6669   20.8018 C   0  0  0  0  0  0  0  0  0  0  0  0
  -29.4456  -13.4591   26.9358 C   0  0  0  0  0  0  0  0  0  0  0  0
  -30.8517  -13.6727   25.1314 C   0  0  0  0  0  0  0  0  0  0  0  0
  -25.2324  -13.7419   20.5377 C   0  0  0  0  0  0  0  0  0  0  0  0
  -22.7761  -13.5195   20.9443 C   0  0  0  0  0  0  0  0  0  0  0  0
  -22.7284  -18.0976   26.4756 C   0  0  0  0  0  0  0  0  0  0  0  0
  -24.3939  -18.9340   29.1306 C   0  0  0  0  0  0  0  0  0  0  0  0
  -27.4265  -19.3034   30.6516 C   0  0  0  0  0  0  0  0  0  0  0  0
  -31.0472  -12.7509   21.5659 C   0  0  0  0  0  0  0  0  0  0  0  0
  -17.6445  -18.4085   26.8143 C   0  0  0  0  0  0  0  0  0  0  0  0
  -24.2101  -16.0831   26.7956 C   0  0  0  0  0  0  0  0  0  0  0  0
  -25.7305  -18.6100   27.0154 C   0  0  0  0  0  0  0  0  0  0  0  0
  -18.8267  -19.1753   27.4013 C   0  0  0  0  0  0  0  0  0  0  0  0
  -29.5194  -13.4686   18.4311 C   0  0  0  0  0  0  0  0  0  0  0  0
  -31.8765  -17.6254   26.9610 C   0  0  0  0  0  0  0  0  0  0  0  0
  -30.9577  -17.4598   28.1309 C   0  0  0  0  0  0  0  0  0  0  0  0
  -19.8204  -19.5454   26.3048 C   0  0  0  0  0  0  0  0  0  0  0  0
  -28.0328  -13.2085   18.6806 C   0  0  0  0  0  0  0  0  0  0  0  0
  -30.4007  -12.4790   19.1901 C   0  0  0  0  0  0  0  0  0  0  0  0
  -28.6474  -12.1365   20.8879 C   0  0  0  0  0  0  0  0  0  0  0  0
  -30.5007  -17.0501   26.7565 C   0  0  0  0  0  0  0  0  0  0  0  0
  -20.3947  -18.2915   25.6346 C   0  0  1  0  0  0  0  0  0  0  0  0
  -23.6041  -17.3326   27.4272 C   0  0  1  0  0  0  0  0  0  0  0  0
  -27.7200  -13.1445   20.1877 C   0  0  2  0  0  0  0  0  0  0  0  0
  -28.5871  -12.5786   27.7811 C   0  0  0  0  0  0  0  0  0  0  0  0
  -28.4704  -20.0417   32.8109 C   0  0  0  0  0  0  0  0  0  0  0  0
  -32.5499  -17.8310   23.4504 C   0  0  0  0  0  0  0  0  0  0  0  0
  -23.8993  -21.8474   28.3706 C   0  0  0  0  0  0  0  0  0  0  0  0
  -25.7143  -22.4993   29.9672 C   0  0  0  0  0  0  0  0  0  0  0  0
  -23.6663  -21.3518   30.8108 C   0  0  0  0  0  0  0  0  0  0  0  0
  -28.6197  -16.6361   31.1212 C   0  0  0  0  0  0  0  0  0  0  0  0
  -31.5378  -13.0020   23.9857 C   0  0  0  0  0  0  0  0  0  0  0  0
  -30.6618  -16.4569   22.5059 C   0  0  0  0  0  0  0  0  0  0  0  0
  -29.2145  -16.0385   22.7452 C   0  0  0  0  0  0  0  0  0  1  0  0
  -25.3657  -20.0351   29.4803 C   0  0  1  0  0  0  0  0  0  0  0  0
  -27.9298  -18.8641   32.0147 C   0  0  2  0  0  0  0  0  0  0  0  0
  -31.3635  -16.9314   23.7823 C   0  0  1  0  0  0  0  0  0  0  0  0
  -24.6666  -21.4151   29.6361 C   0  0  0  0  0  0  0  0  0  0  0  0
  -25.8709  -11.5656   20.6005 N   0  0  0  0  0  0  0  0  0  0  0  0
  -30.0750  -12.8708   25.8940 N   0  0  0  0  0  0  0  0  0  0  0  0
  -26.2546  -12.8439   20.4430 N   0  0  0  0  0  0  0  0  0  0  0  0
  -24.6192  -18.2668   27.9182 N   0  0  0  0  0  0  0  0  0  0  0  0
  -30.0544  -12.4680   20.6134 N   0  0  0  0  0  0  0  0  0  0  0  0
  -25.4426  -15.0687   20.4045 N   0  0  0  0  0  0  0  0  0  0  0  0
  -21.7293  -12.6175   21.1785 N   0  0  0  0  0  0  0  0  0  0  0  0
  -31.8379  -15.7920   24.5398 N   0  0  0  0  0  0  0  0  0  0  0  0
  -21.4083  -17.6891   26.4738 N   0  0  0  0  0  0  0  0  0  0  0  0
  -26.0774  -19.5878   30.6726 N   0  0  0  0  0  0  0  0  0  0  0  0
  -30.6332  -12.7256   22.8921 N   0  0  0  0  0  0  0  0  0  0  0  0
  -29.0192  -17.8583   31.8652 N   0  3  0  0  0  0  0  0  0  0  0  0
  -22.5250  -14.7466   20.8747 O   0  0  0  0  0  0  0  0  0  0  0  0
  -23.2140  -18.9931   25.7945 O   0  0  0  0  0  0  0  0  0  0  0  0
  -23.4730  -18.6707   29.9080 O   0  0  0  0  0  0  0  0  0  0  0  0
  -28.1577  -19.3894   29.6675 O   0  0  0  0  0  0  0  0  0  0  0  0
  -32.2148  -13.0123   21.2571 O   0  0  0  0  0  0  0  0  0  0  0  0
  -21.4810   -7.0712   21.6389 O   0  0  0  0  0  0  0  0  0  0  0  0
  -28.4884  -17.1618   23.2426 O   0  0  0  0  0  0  0  0  0  1  0  0
  -23.4449   -3.2769   25.1247 F   0  0  0  0  0  0  0  0  0  0  0  0
  -23.9095   -5.8361   21.1699 F   0  0  0  0  0  0  0  0  0  0  0  0
  1  2  1  0  0  0  0
  1  5  2  0  0  0  0
  2  6  2  0  0  0  0
  3  8  2  0  0  0  0
  3 16  1  0  0  0  0
  4  9  1  0  0  0  0
  4 16  2  0  0  0  0
  5 18  1  0  0  0  0
  6 20  1  0  0  0  0
  7 10  2  0  0  0  0
  7 19  1  0  0  0  0
  8 24  1  0  0  0  0
  9 24  2  0  0  0  0
 10 25  1  0  0  0  0
 11 12  2  0  0  0  0
 11 26  1  0  0  0  0
 12 27  1  0  0  0  0
 13 21  1  0  0  0  0
 13 25  2  0  0  0  0
 14 22  2  0  0  0  0
 14 30  1  0  0  0  0
 15 27  2  0  0  0  0
 15 28  1  0  0  0  0
 16 29  1  0  0  0  0
 17 29  1  0  0  0  0
 17 32  2  0  0  0  0
 17 33  1  0  0  0  0
 18 20  2  0  0  0  0
 18 38  1  0  0  0  0
 19 21  2  0  0  0  0
 19 39  1  0  0  0  0
 20 50  1  0  0  0  0
 21 40  1  0  0  0  0
 22 23  1  0  0  0  0
 22 49  1  0  0  0  0
 23 31  2  0  0  0  0
 23 74  1  0  0  0  0
 24 84  1  0  0  0  0
 25 85  1  0  0  0  0
 26 28  2  0  0  0  0
 26 84  1  0  0  0  0
 27 86  1  0  0  0  0
 28 87  1  0  0  0  0
 29 67  2  0  0  0  0
 30 53  1  0  0  0  0
 30 68  2  0  0  0  0
 31 60  1  0  0  0  0
 31 68  1  0  0  0  0
 32 69  1  0  0  0  0
 32 72  1  0  0  0  0
 33 73  1  0  0  0  0
 33 79  2  0  0  0  0
 34 51  1  0  0  0  0
 34 75  1  0  0  0  0
 34 80  2  0  0  0  0
 35 63  1  0  0  0  0
 35 70  1  0  0  0  0
 35 81  2  0  0  0  0
 36 64  1  0  0  0  0
 36 76  1  0  0  0  0
 36 82  2  0  0  0  0
 37 71  1  0  0  0  0
 37 77  1  0  0  0  0
 37 83  2  0  0  0  0
 38 41  1  0  0  0  0
 39 51  1  0  0  0  0
 40 70  1  0  0  0  0
 41 45  1  0  0  0  0
 42 46  1  0  0  0  0
 42 47  1  0  0  0  0
 43 44  1  0  0  0  0
 43 49  1  0  0  0  0
 44 49  1  0  0  0  0
 45 50  1  0  0  0  0
 46 52  1  0  0  0  0
 47 71  1  0  0  0  0
 48 52  1  0  0  0  0
 48 71  1  0  0  0  0
 50 75  1  0  0  0  0
 51 70  1  0  0  0  0
 52 69  1  0  0  0  0
 54 64  1  0  0  0  0
 55 65  1  0  0  0  0
 56 66  1  0  0  0  0
 57 66  1  0  0  0  0
 58 66  1  0  0  0  0
 59 78  1  0  0  0  0
 60 77  1  0  0  0  0
 61 62  1  0  0  0  0
 61 65  1  0  0  0  0
 62 85  1  0  0  0  0
 63 66  1  0  0  0  0
 63 76  1  0  0  0  0
 64 78  1  0  0  0  0
 65 74  1  0  0  0  0
 67 69  1  0  0  0  0
M  CHG  1  78   1
M  ISO  4  37 100  62 101  77 100  85 101
M  END
> <Batch ID>
0181

> <Smiles>
CNC(C)C(=O)NC(C(=O)N1Cc2cc([101O:1][101CH2:1]CC(C)Nc3c(C4CC4)cc(C)nc3C[100NH:0][100C:0](=O)N3CCCC(n4nc(-c5ccc(Oc6ccc(F)cc6F)cc5)c(C(N)=O)c4N)C3)ccc2CC1C(=O)NC1CCCc2ccccc21)C(C)(C)C

> <Shape>
0.150

> <Color>
0.182

> <Negative vol penalty>
0.000

$$$$

  -OEChem-04052323023D

 82 91  0     1  0  0  0  0  0999 V2000
  -15.8459  -29.1409   23.9291 C   0  0  0  0  0  0  0  0  0  0  0  0
  -16.9174  -28.5863   24.6218 C   0  0  0  0  0  0  0  0  0  0  0  0
  -26.2973  -13.2125   21.8453 C   0  0  0  0  0  0  0  0  0  0  0  0
  -26.0985  -13.9275   19.5461 C   0  0  0  0  0  0  0  0  0  0  0  0
  -16.0616  -29.7773   22.7074 C   0  0  0  0  0  0  0  0  0  0  0  0
  -18.2050  -28.6668   24.0927 C   0  0  0  0  0  0  0  0  0  0  0  0
  -25.0493  -29.2516   26.1249 C   0  0  0  0  0  0  0  0  0  0  0  0
  -25.1302  -12.4604   21.7124 C   0  0  0  0  0  0  0  0  0  0  0  0
  -24.9314  -13.1753   19.4131 C   0  0  0  0  0  0  0  0  0  0  0  0
  -26.2859  -28.6368   25.9336 C   0  0  0  0  0  0  0  0  0  0  0  0
  -24.2228   -9.4819   20.3939 C   0  0  0  0  0  0  0  0  0  0  0  0
  -24.2258   -8.1846   20.9063 C   0  0  0  0  0  0  0  0  0  0  0  0
  -26.5502  -29.8295   23.8535 C   0  0  0  0  0  0  0  0  0  0  0  0
  -22.4042   -8.7642   22.3838 C   0  0  0  0  0  0  0  0  0  0  0  0
  -26.7815  -13.9461   20.7621 C   0  0  0  0  0  0  0  0  0  0  0  0
  -29.3057  -14.2979   20.6523 C   0  0  0  0  0  0  0  0  0  0  0  0
  -17.3539  -29.8741   22.1678 C   0  0  0  0  0  0  0  0  0  0  0  0
  -24.5480  -30.1531   25.1750 C   0  0  0  0  0  0  0  0  0  0  0  0
  -18.4379  -29.3039   22.8621 C   0  0  0  0  0  0  0  0  0  0  0  0
  -25.3081  -30.4563   24.0363 C   0  0  0  0  0  0  0  0  0  0  0  0
  -24.4472  -12.4417   20.4963 C   0  0  0  0  0  0  0  0  0  0  0  0
  -27.0353  -28.9235   24.7964 C   0  0  0  0  0  0  0  0  0  0  0  0
  -23.3106  -10.4204   20.8765 C   0  0  0  0  0  0  0  0  0  0  0  0
  -23.3165   -7.8257   21.9013 C   0  0  0  0  0  0  0  0  0  0  0  0
  -22.4013  -10.0615   21.8714 C   0  0  0  0  0  0  0  0  0  0  0  0
  -27.9868  -14.7237   20.8990 C   0  0  0  0  0  0  0  0  0  0  0  0
  -30.0791  -15.3993   20.9270 C   0  0  0  0  0  0  0  0  0  0  0  0
  -29.7887  -13.0211   20.2140 C   0  0  0  0  0  0  0  0  0  0  0  0
  -21.9872  -30.2363   23.2939 C   0  0  0  0  0  0  0  0  0  0  0  0
  -23.0790  -33.2098   22.5950 C   0  0  0  0  0  0  0  0  0  0  0  0
  -25.7199  -35.3665   22.4495 C   0  0  0  0  0  0  0  0  0  0  0  0
  -28.9383  -21.1422   20.7489 C   0  0  0  0  0  0  0  0  0  0  0  0
  -17.5310  -30.5301   20.8213 C   0  0  0  0  0  0  0  0  0  0  0  0
  -23.2245  -30.8282   25.4092 C   0  0  0  0  0  0  0  0  0  0  0  0
  -24.8240  -31.4324   22.9965 C   0  0  0  0  0  0  0  0  0  0  0  0
  -18.9787  -30.9010   20.5102 C   0  0  0  0  0  0  0  0  0  0  0  0
  -30.1864  -19.3415   23.6057 C   0  0  0  0  0  0  0  0  0  0  0  0
  -19.9103  -29.7391   20.8400 C   0  0  0  0  0  0  0  0  0  0  0  0
  -29.8460  -17.9040   23.2230 C   0  0  0  0  0  0  0  0  0  0  0  0
  -29.1165  -20.3357   23.1495 C   0  0  0  0  0  0  0  0  0  0  0  0
  -27.9303  -22.9885   22.2164 C   0  0  0  0  0  0  0  0  0  0  0  0
  -29.1581  -23.5529   20.2244 C   0  0  0  0  0  0  0  0  0  0  0  0
  -28.4463  -18.7909   21.3282 C   0  0  0  0  0  0  0  0  0  0  0  0
  -27.4111  -25.4221   22.8583 C   0  0  0  0  0  0  0  0  0  0  0  0
  -19.8529  -29.3926   22.3327 C   0  0  1  0  0  0  0  0  0  0  0  0
  -22.5789  -31.3394   24.1250 C   0  0  1  0  0  0  0  0  0  0  0  0
  -27.5133  -24.3858   21.7539 C   0  0  1  0  0  0  0  0  0  0  0  0
  -28.6833  -24.8376   20.8860 C   0  0  1  0  0  0  0  0  0  0  0  0
  -29.5514  -17.7997   21.7184 C   0  0  2  0  0  0  0  0  0  0  0  0
  -29.6723  -25.4323   21.8878 C   0  0  1  0  0  0  0  0  0  0  0  0
  -31.5550  -25.8015   20.2853 C   0  0  0  0  0  0  0  0  0  0  0  0
  -26.3094  -37.7181   21.8015 C   0  0  0  0  0  0  0  0  0  0  0  0
  -22.9592  -32.4254   19.6488 C   0  0  0  0  0  0  0  0  0  0  0  0
  -24.4173  -34.3952   19.1369 C   0  0  0  0  0  0  0  0  0  0  0  0
  -22.1620  -34.7434   20.1444 C   0  0  0  0  0  0  0  0  0  0  0  0
  -26.5999  -36.0264   25.1971 C   0  0  0  0  0  0  0  0  0  0  0  0
  -30.6210  -26.4423   21.2629 C   0  0  0  0  0  0  0  0  0  0  0  0
  -29.3449  -26.2091   24.2767 C   0  0  0  0  0  0  0  0  0  0  0  0
  -28.4151  -27.0205   25.1573 C   0  0  0  0  0  0  0  0  0  1  0  0
  -24.0211  -33.7886   21.5671 C   0  0  1  0  0  0  0  0  0  0  0  0
  -25.8802  -36.7966   22.9327 C   0  0  2  0  0  0  0  0  0  0  0  0
  -23.3984  -33.8182   20.1427 C   0  0  0  0  0  0  0  0  0  0  0  0
  -27.9222  -15.9962   21.2997 N   0  0  0  0  0  0  0  0  0  0  0  0
  -29.2102  -16.3795   21.3070 N   0  0  0  0  0  0  0  0  0  0  0  0
  -23.5209  -32.0617   23.2676 N   0  0  0  0  0  0  0  0  0  0  0  0
  -28.7838  -20.1588   21.7319 N   0  0  0  0  0  0  0  0  0  0  0  0
  -28.7639  -22.4734   21.1271 N   0  0  0  0  0  0  0  0  0  0  0  0
  -31.4108  -15.6151   20.8782 N   0  0  0  0  0  0  0  0  0  0  0  0
  -28.8581  -12.0000   19.9778 N   0  0  0  0  0  0  0  0  0  0  0  0
  -20.6230  -30.3457   23.1028 N   0  0  0  0  0  0  0  0  0  0  0  0
  -24.4213  -35.0977   22.0716 N   0  0  0  0  0  0  0  0  0  0  0  0
  -28.7652  -26.1168   22.8982 N   0  3  2  0  0  0  0  0  0  0  0  0
  -26.9063  -36.8671   24.0112 N   0  3  0  0  0  0  0  0  0  0  0  0
  -31.0106  -12.7875   20.0529 O   0  0  0  0  0  0  0  0  0  0  0  0
  -22.7147  -29.3522   22.8570 O   0  0  0  0  0  0  0  0  0  0  0  0
  -21.9941  -33.7604   22.7989 O   0  0  0  0  0  0  0  0  0  0  0  0
  -26.6539  -34.5688   22.4078 O   0  0  0  0  0  0  0  0  0  0  0  0
  -29.1781  -20.8418   19.5717 O   0  0  0  0  0  0  0  0  0  0  0  0
  -23.3085  -11.7077   20.3661 O   0  0  0  0  0  0  0  0  0  0  0  0
  -28.2510  -28.3201   24.6055 O   0  0  0  0  0  0  0  0  0  1  0  0
  -23.3184   -6.5795   22.3922 F   0  0  0  0  0  0  0  0  0  0  0  0
  -21.5218  -10.9584   22.3381 F   0  0  0  0  0  0  0  0  0  0  0  0
  1  2  1  0  0  0  0
  1  5  2  0  0  0  0
  2  6  2  0  0  0  0
  3  8  2  0  0  0  0
  3 15  1  0  0  0  0
  4  9  1  0  0  0  0
  4 15  2  0  0  0  0
  5 17  1  0  0  0  0
  6 19  1  0  0  0  0
  7 10  2  0  0  0  0
  7 18  1  0  0  0  0
  8 21  1  0  0  0  0
  9 21  2  0  0  0  0
 10 22  1  0  0  0  0
 11 12  2  0  0  0  0
 11 23  1  0  0  0  0
 12 24  1  0  0  0  0
 13 20  1  0  0  0  0
 13 22  2  0  0  0  0
 14 24  2  0  0  0  0
 14 25  1  0  0  0  0
 15 26  1  0  0  0  0
 16 26  1  0  0  0  0
 16 27  2  0  0  0  0
 16 28  1  0  0  0  0
 17 19  2  0  0  0  0
 17 33  1  0  0  0  0
 18 20  2  0  0  0  0
 18 34  1  0  0  0  0
 19 45  1  0  0  0  0
 20 35  1  0  0  0  0
 21 79  1  0  0  0  0
 22 80  1  0  0  0  0
 23 25  2  0  0  0  0
 23 79  1  0  0  0  0
 24 81  1  0  0  0  0
 25 82  1  0  0  0  0
 26 63  2  0  0  0  0
 27 64  1  0  0  0  0
 27 68  1  0  0  0  0
 28 69  1  0  0  0  0
 28 74  2  0  0  0  0
 29 46  1  0  0  0  0
 29 70  1  0  0  0  0
 29 75  2  0  0  0  0
 30 60  1  0  0  0  0
 30 65  1  0  0  0  0
 30 76  2  0  0  0  0
 31 61  1  0  0  0  0
 31 71  1  0  0  0  0
 31 77  2  0  0  0  0
 32 66  1  0  0  0  0
 32 67  1  0  0  0  0
 32 78  2  0  0  0  0
 33 36  1  0  0  0  0
 34 46  1  0  0  0  0
 35 65  1  0  0  0  0
 36 38  1  0  0  0  0
 37 39  1  0  0  0  0
 37 40  1  0  0  0  0
 38 45  1  0  0  0  0
 39 49  1  0  0  0  0
 40 66  1  0  0  0  0
 41 47  1  0  0  0  0
 41 67  1  0  0  0  0
 42 48  1  0  0  0  0
 42 67  1  0  0  0  0
 43 49  1  0  0  0  0
 43 66  1  0  0  0  0
 44 47  1  0  0  0  0
 44 72  1  0  0  0  0
 45 70  1  0  0  0  0
 46 65  1  0  0  0  0
 47 48  1  0  0  0  0
 48 50  1  0  0  0  0
 49 64  1  0  0  0  0
 50 57  1  0  0  0  0
 50 72  1  0  0  0  0
 51 57  1  0  0  0  0
 52 61  1  0  0  0  0
 53 62  1  0  0  0  0
 54 62  1  0  0  0  0
 55 62  1  0  0  0  0
 56 73  1  0  0  0  0
 58 59  1  0  0  0  0
 58 72  1  0  0  0  0
 59 80  1  0  0  0  0
 60 62  1  0  0  0  0
 60 71  1  0  0  0  0
 61 73  1  0  0  0  0
 63 64  1  0  0  0  0
M  CHG  2  72   1  73   1
M  ISO  4  32 100  59 101  67 100  80 101
M  END
> <Batch ID>
0181

> <Smiles>
CCC1C2C[100N:0]([100C:0](=O)N3CCCC(n4nc(-c5ccc(Oc6ccc(F)cc6F)cc5)c(C(N)=O)c4N)C3)CC2CN1C[101CH2:1][101O:1]c1ccc2c(c1)CN(C(=O)C(NC(=O)C(C)NC)C(C)(C)C)C(C(=O)NC1CCCc3ccccc31)C2

> <Shape>
0.290

> <Color>
0.113

> <Negative vol penalty>
0.000

$$$$

  -OEChem-04052323023D

 82 91  0     1  0  0  0  0  0999 V2000
  -21.5556  -28.9605   19.9945 C   0  0  0  0  0  0  0  0  0  0  0  0
  -22.4770  -27.9936   19.6054 C   0  0  0  0  0  0  0  0  0  0  0  0
  -23.1816   -9.9115   19.8612 C   0  0  0  0  0  0  0  0  0  0  0  0
  -23.8070   -9.8017   22.1923 C   0  0  0  0  0  0  0  0  0  0  0  0
  -21.9994  -30.1997   20.4544 C   0  0  0  0  0  0  0  0  0  0  0  0
  -23.8429  -28.2658   19.6748 C   0  0  0  0  0  0  0  0  0  0  0  0
  -26.4867  -24.4397   21.6789 C   0  0  0  0  0  0  0  0  0  0  0  0
  -22.4239   -8.7499   20.0098 C   0  0  0  0  0  0  0  0  0  0  0  0
  -23.0492   -8.6401   22.3409 C   0  0  0  0  0  0  0  0  0  0  0  0
  -26.7534  -23.3486   20.8529 C   0  0  0  0  0  0  0  0  0  0  0  0
  -19.7911   -7.8243   22.7146 C   0  0  0  0  0  0  0  0  0  0  0  0
  -18.9674   -7.7287   23.8362 C   0  0  0  0  0  0  0  0  0  0  0  0
  -28.9786  -24.1948   20.4638 C   0  0  0  0  0  0  0  0  0  0  0  0
  -20.1630   -5.7528   24.5458 C   0  0  0  0  0  0  0  0  0  0  0  0
  -28.2204  -19.3671   16.2765 C   0  0  0  0  0  0  0  0  0  0  0  0
  -23.8732  -10.4374   20.9525 C   0  0  0  0  0  0  0  0  0  0  0  0
  -24.2227  -12.9643   20.9786 C   0  0  0  0  0  0  0  0  0  0  0  0
  -23.3716  -30.4837   20.5386 C   0  0  0  0  0  0  0  0  0  0  0  0
  -27.4619  -25.4238   21.8952 C   0  0  0  0  0  0  0  0  0  0  0  0
  -24.3054  -29.5104   20.1349 C   0  0  0  0  0  0  0  0  0  0  0  0
  -28.7227  -25.2960   21.2950 C   0  0  0  0  0  0  0  0  0  0  0  0
  -28.5419  -18.1352   16.7872 C   0  0  0  0  0  0  0  0  0  0  0  0
  -22.3576   -8.1142   21.2496 C   0  0  0  0  0  0  0  0  0  0  0  0
  -27.9985  -23.2275   20.2429 C   0  0  0  0  0  0  0  0  0  0  0  0
  -20.8007   -6.8841   22.5086 C   0  0  0  0  0  0  0  0  0  0  0  0
  -19.1533   -6.6930   24.7518 C   0  0  0  0  0  0  0  0  0  0  0  0
  -20.9866   -5.8484   23.4242 C   0  0  0  0  0  0  0  0  0  0  0  0
  -24.6566  -11.6370   20.7995 C   0  0  0  0  0  0  0  0  0  0  0  0
  -28.4002  -17.9802   18.1534 C   0  0  0  0  0  0  0  0  0  0  0  0
  -25.3345  -13.7272   20.7171 C   0  0  0  0  0  0  0  0  0  0  0  0
  -27.6923  -20.0998   18.3816 C   0  0  0  0  0  0  0  0  0  0  0  0
  -22.9303  -13.4629   21.3484 C   0  0  0  0  0  0  0  0  0  0  0  0
  -27.6728  -28.5404   21.3066 C   0  0  0  0  0  0  0  0  0  0  0  0
  -30.4430  -28.2716   22.9728 C   0  0  0  0  0  0  0  0  0  0  0  0
  -32.9949  -26.2774   24.0487 C   0  0  0  0  0  0  0  0  0  0  0  0
  -29.6437  -14.6272   17.1806 C   0  0  0  0  0  0  0  0  0  0  0  0
  -23.8024  -31.8543   20.9974 C   0  0  0  0  0  0  0  0  0  0  0  0
  -27.1676  -26.5808   22.8102 C   0  0  0  0  0  0  0  0  0  0  0  0
  -29.8108  -26.3147   21.5111 C   0  0  0  0  0  0  0  0  0  0  0  0
  -28.7540  -16.5852   18.5606 C   0  0  0  0  0  0  0  0  0  0  0  0
  -25.2745  -31.9289   21.3943 C   0  0  0  0  0  0  0  0  0  0  0  0
  -30.1793  -12.4110   20.0955 C   0  0  0  0  0  0  0  0  0  0  0  0
  -26.1458  -31.2467   20.3444 C   0  0  0  0  0  0  0  0  0  0  0  0
  -28.7442  -12.0800   20.5104 C   0  0  0  0  0  0  0  0  0  0  0  0
  -30.2863  -12.7167   18.6038 C   0  0  0  0  0  0  0  0  0  0  0  0
  -27.9235  -13.4120   18.5335 C   0  0  0  0  0  0  0  0  0  0  0  0
  -25.7958  -29.7590   20.2191 C   0  0  1  0  0  0  0  0  0  0  0  0
  -28.0599  -27.7905   22.5498 C   0  0  1  0  0  0  0  0  0  0  0  0
  -27.7626  -13.1707   20.0402 C   0  0  1  0  0  0  0  0  0  0  0  0
  -29.0517  -16.8779   16.1365 C   0  0  0  0  0  0  0  0  0  0  0  0
  -30.4388  -17.1542   15.5350 C   0  0  0  0  0  0  0  0  0  0  0  0
  -28.0739  -16.3804   15.0663 C   0  0  0  0  0  0  0  0  0  0  0  0
  -35.1329  -26.3499   25.3607 C   0  0  0  0  0  0  0  0  0  0  0  0
  -31.8488  -29.5850   20.6046 C   0  0  0  0  0  0  0  0  0  0  0  0
  -34.0267  -28.7776   21.5391 C   0  0  0  0  0  0  0  0  0  0  0  0
  -32.6255  -30.3738   22.8472 C   0  0  0  0  0  0  0  0  0  0  0  0
  -31.9640  -24.3622   26.0557 C   0  0  0  0  0  0  0  0  0  0  0  0
  -27.2162  -21.2094   19.2575 C   0  0  0  0  0  0  0  0  0  1  0  0
  -31.8788  -27.9692   22.6181 C   0  0  1  0  0  0  0  0  0  0  0  0
  -33.6326  -26.1071   25.4157 C   0  0  2  0  0  0  0  0  0  0  0  0
  -32.5740  -29.1580   21.8964 C   0  0  0  0  0  0  0  0  0  0  0  0
  -27.7874  -20.3797   17.0591 N   0  0  0  0  0  0  0  0  0  0  0  0
  -25.9436  -11.5578   20.4510 N   0  0  0  0  0  0  0  0  0  0  0  0
  -27.9774  -18.9331   18.9956 N   0  0  0  0  0  0  0  0  0  0  0  0
  -26.3279  -12.8449   20.4090 N   0  0  0  0  0  0  0  0  0  0  0  0
  -29.4724  -27.4311   22.4093 N   0  0  0  0  0  0  0  0  0  0  0  0
  -29.1103  -15.9206   17.2883 N   0  0  0  0  0  0  0  0  0  0  0  0
  -29.3158  -13.7348   18.2094 N   0  0  0  0  0  0  0  0  0  0  0  0
  -25.5495  -15.0599   20.7230 N   0  0  0  0  0  0  0  0  0  0  0  0
  -21.9001  -12.5415   21.5806 N   0  0  0  0  0  0  0  0  0  0  0  0
  -26.3732  -29.0100   21.3146 N   0  0  0  0  0  0  0  0  0  0  0  0
  -32.5286  -27.5610   23.8589 N   0  0  0  0  0  0  0  0  0  0  0  0
  -33.3983  -24.7275   25.9284 N   0  3  0  0  0  0  0  0  0  0  0  0
  -22.6918  -14.6899   21.4533 O   0  0  0  0  0  0  0  0  0  0  0  0
  -28.4929  -28.6836   20.4074 O   0  0  0  0  0  0  0  0  0  0  0  0
  -30.1922  -29.2142   23.7279 O   0  0  0  0  0  0  0  0  0  0  0  0
  -32.9214  -25.3640   23.2295 O   0  0  0  0  0  0  0  0  0  0  0  0
  -30.4039  -14.2911   16.2665 O   0  0  0  0  0  0  0  0  0  0  0  0
  -21.6182   -6.9808   21.3950 O   0  0  0  0  0  0  0  0  0  0  0  0
  -28.2630  -22.1565   19.4302 O   0  0  0  0  0  0  0  0  0  1  0  0
  -18.3633   -6.6022   25.8296 F   0  0  0  0  0  0  0  0  0  0  0  0
  -21.9556   -4.9429   23.2322 F   0  0  0  0  0  0  0  0  0  0  0  0
  1  2  1  0  0  0  0
  1  5  2  0  0  0  0
  2  6  2  0  0  0  0
  3  8  2  0  0  0  0
  3 16  1  0  0  0  0
  4  9  1  0  0  0  0
  4 16  2  0  0  0  0
  5 18  1  0  0  0  0
  6 20  1  0  0  0  0
  7 10  2  0  0  0  0
  7 19  1  0  0  0  0
  8 23  1  0  0  0  0
  9 23  2  0  0  0  0
 10 24  1  0  0  0  0
 11 12  2  0  0  0  0
 11 25  1  0  0  0  0
 12 26  1  0  0  0  0
 13 21  1  0  0  0  0
 13 24  2  0  0  0  0
 14 26  2  0  0  0  0
 14 27  1  0  0  0  0
 15 22  1  0  0  0  0
 15 62  2  0  0  0  0
 16 28  1  0  0  0  0
 17 28  1  0  0  0  0
 17 30  2  0  0  0  0
 17 32  1  0  0  0  0
 18 20  2  0  0  0  0
 18 37  1  0  0  0  0
 19 21  2  0  0  0  0
 19 38  1  0  0  0  0
 20 47  1  0  0  0  0
 21 39  1  0  0  0  0
 22 29  2  0  0  0  0
 22 50  1  0  0  0  0
 23 79  1  0  0  0  0
 24 80  1  0  0  0  0
 25 27  2  0  0  0  0
 25 79  1  0  0  0  0
 26 81  1  0  0  0  0
 27 82  1  0  0  0  0
 28 63  2  0  0  0  0
 29 40  1  0  0  0  0
 29 64  1  0  0  0  0
 30 65  1  0  0  0  0
 30 69  1  0  0  0  0
 31 58  1  0  0  0  0
 31 62  1  0  0  0  0
 31 64  2  0  0  0  0
 32 70  1  0  0  0  0
 32 74  2  0  0  0  0
 33 48  1  0  0  0  0
 33 71  1  0  0  0  0
 33 75  2  0  0  0  0
 34 59  1  0  0  0  0
 34 66  1  0  0  0  0
 34 76  2  0  0  0  0
 35 60  1  0  0  0  0
 35 72  1  0  0  0  0
 35 77  2  0  0  0  0
 36 67  1  0  0  0  0
 36 68  1  0  0  0  0
 36 78  2  0  0  0  0
 37 41  1  0  0  0  0
 38 48  1  0  0  0  0
 39 66  1  0  0  0  0
 40 67  1  0  0  0  0
 41 43  1  0  0  0  0
 42 44  1  0  0  0  0
 42 45  1  0  0  0  0
 43 47  1  0  0  0  0
 44 49  1  0  0  0  0
 45 68  1  0  0  0  0
 46 49  1  0  0  0  0
 46 68  1  0  0  0  0
 47 71  1  0  0  0  0
 48 66  1  0  0  0  0
 49 65  1  0  0  0  0
 50 51  1  0  0  0  0
 50 52  1  0  0  0  0
 50 67  1  0  0  0  0
 53 60  1  0  0  0  0
 54 61  1  0  0  0  0
 55 61  1  0  0  0  0
 56 61  1  0  0  0  0
 57 73  1  0  0  0  0
 58 80  1  0  0  0  0
 59 61  1  0  0  0  0
 59 72  1  0  0  0  0
 60 73  1  0  0  0  0
 63 65  1  0  0  0  0
M  CHG  1  73   1
M  ISO  4  36 100  58 101  67 100  80 101
M  END
> <Batch ID>
0181

> <Smiles>
CNC(C)C(=O)NC(C(=O)N1Cc2cc([101O:1][101CH2:1]c3ncc4c(n3)C[100N:0]([100C:0](=O)N3CCCC(n5nc(-c6ccc(Oc7ccc(F)cc7F)cc6)c(C(N)=O)c5N)C3)C4(C)C)ccc2CC1C(=O)NC1CCCc2ccccc21)C(C)(C)C

> <Shape>
0.256

> <Color>
0.178

> <Negative vol penalty>
0.000

$$$$

  -OEChem-04052323023D

 80 88  0     1  0  0  0  0  0999 V2000
  -19.3453  -24.1397   22.2265 C   0  0  0  0  0  0  0  0  0  0  0  0
  -20.5485  -24.4497   21.6008 C   0  0  0  0  0  0  0  0  0  0  0  0
  -25.7639  -13.3715   20.5132 C   0  0  0  0  0  0  0  0  0  0  0  0
  -23.8166  -14.7667   20.8268 C   0  0  0  0  0  0  0  0  0  0  0  0
  -18.5067  -25.1623   22.6679 C   0  0  0  0  0  0  0  0  0  0  0  0
  -20.9133  -25.7827   21.4151 C   0  0  0  0  0  0  0  0  0  0  0  0
  -25.7579  -26.6548   22.6042 C   0  0  0  0  0  0  0  0  0  0  0  0
  -25.1129  -12.3184   21.1556 C   0  0  0  0  0  0  0  0  0  0  0  0
  -23.1655  -13.7135   21.4692 C   0  0  0  0  0  0  0  0  0  0  0  0
  -26.7214  -26.2690   21.6733 C   0  0  0  0  0  0  0  0  0  0  0  0
  -23.8311   -9.1495   22.3927 C   0  0  0  0  0  0  0  0  0  0  0  0
  -23.9158   -7.8841   21.8121 C   0  0  0  0  0  0  0  0  0  0  0  0
  -26.8844  -28.5501   20.9056 C   0  0  0  0  0  0  0  0  0  0  0  0
  -22.8594   -8.7315   19.8113 C   0  0  0  0  0  0  0  0  0  0  0  0
  -26.4268  -23.3672   16.8365 C   0  0  0  0  0  0  0  0  0  0  0  0
  -25.1158  -14.5957   20.3488 C   0  0  0  0  0  0  0  0  0  0  0  0
  -25.7765  -15.9779   18.3091 C   0  0  0  0  0  0  0  0  0  0  0  0
  -18.8659  -26.5085   22.4962 C   0  0  0  0  0  0  0  0  0  0  0  0
  -25.3418  -27.9915   22.6855 C   0  0  0  0  0  0  0  0  0  0  0  0
  -20.0781  -26.8244   21.8534 C   0  0  0  0  0  0  0  0  0  0  0  0
  -25.9173  -28.9507   21.8401 C   0  0  0  0  0  0  0  0  0  0  0  0
  -23.8137  -12.4893   21.6335 C   0  0  0  0  0  0  0  0  0  0  0  0
  -27.2827  -27.2161   20.8218 C   0  0  0  0  0  0  0  0  0  0  0  0
  -23.2606  -10.2059   21.6827 C   0  0  0  0  0  0  0  0  0  0  0  0
  -23.4300   -7.6751   20.5214 C   0  0  0  0  0  0  0  0  0  0  0  0
  -22.7748   -9.9969   20.3920 C   0  0  0  0  0  0  0  0  0  0  0  0
  -25.7880  -15.6841   19.6858 C   0  0  0  0  0  0  0  0  0  0  0  0
  -26.4140  -24.4790   16.0190 C   0  0  0  0  0  0  0  0  0  0  0  0
  -27.2864  -23.4285   17.9142 C   0  0  0  0  0  0  0  0  0  0  0  0
  -26.5602  -17.0997   18.1909 C   0  0  0  0  0  0  0  0  0  0  0  0
  -27.9735  -25.5100   17.3121 C   0  0  0  0  0  0  0  0  0  0  0  0
  -25.1165  -15.2977   17.2333 C   0  0  0  0  0  0  0  0  0  0  0  0
  -22.5810  -29.5106   22.2686 C   0  0  0  0  0  0  0  0  0  0  0  0
  -24.2735  -32.0658   23.3310 C   0  0  0  0  0  0  0  0  0  0  0  0
  -27.3156  -33.5552   23.7484 C   0  0  0  0  0  0  0  0  0  0  0  0
  -28.1195  -22.1566   19.9228 C   0  0  0  0  0  0  0  0  0  0  0  0
  -17.9047  -27.5795   22.9475 C   0  0  0  0  0  0  0  0  0  0  0  0
  -24.3209  -28.3963   23.7133 C   0  0  0  0  0  0  0  0  0  0  0  0
  -25.5198  -30.4022   21.9011 C   0  0  0  0  0  0  0  0  0  0  0  0
  -18.5393  -28.9642   23.0484 C   0  0  0  0  0  0  0  0  0  0  0  0
  -29.6075  -19.3572   21.5435 C   0  0  0  0  0  0  0  0  0  0  0  0
  -19.3708  -29.2622   21.8047 C   0  0  0  0  0  0  0  0  0  0  0  0
  -28.7455  -18.1762   21.0914 C   0  0  0  0  0  0  0  0  0  0  0  0
  -28.7728  -20.6179   21.7615 C   0  0  0  0  0  0  0  0  0  0  0  0
  -27.0637  -19.8247   20.1743 C   0  0  0  0  0  0  0  0  0  0  0  0
  -20.5202  -28.2581   21.6560 C   0  0  1  0  0  0  0  0  0  0  0  0
  -23.5983  -29.6924   23.3594 C   0  0  1  0  0  0  0  0  0  0  0  0
  -27.8697  -18.5492   19.8792 C   0  0  2  0  0  0  0  0  0  0  0  0
  -25.5176  -24.5049   14.8266 C   0  0  0  0  0  0  0  0  0  0  0  0
  -28.3771  -35.6587   24.6119 C   0  0  0  0  0  0  0  0  0  0  0  0
  -23.3732  -33.5478   20.8205 C   0  0  0  0  0  0  0  0  0  0  0  0
  -25.1778  -35.2291   21.2501 C   0  0  0  0  0  0  0  0  0  0  0  0
  -23.3416  -34.9211   22.9103 C   0  0  0  0  0  0  0  0  0  0  0  0
  -28.8606  -32.0743   25.7926 C   0  0  0  0  0  0  0  0  0  0  0  0
  -28.8415  -26.7153   17.5809 C   0  0  0  0  0  0  0  0  0  0  0  0
  -28.2871  -27.5913   18.6990 C   0  0  0  0  0  0  0  0  0  1  0  0
  -25.1165  -33.1354   22.6797 C   0  0  1  0  0  0  0  0  0  0  0  0
  -27.9460  -34.2396   24.9479 C   0  0  2  0  0  0  0  0  0  0  0  0
  -24.2586  -34.1807   21.9124 C   0  0  0  0  0  0  0  0  0  0  0  0
  -26.5209  -16.5493   20.3917 N   0  0  0  0  0  0  0  0  0  0  0  0
  -27.1771  -25.5718   16.2280 N   0  0  0  0  0  0  0  0  0  0  0  0
  -28.0772  -24.4881   18.1831 N   0  0  0  0  0  0  0  0  0  0  0  0
  -26.9774  -17.3978   19.4548 N   0  0  0  0  0  0  0  0  0  0  0  0
  -24.5131  -30.7474   22.9184 N   0  0  0  0  0  0  0  0  0  0  0  0
  -27.9727  -20.9118   20.5706 N   0  0  0  0  0  0  0  0  0  0  0  0
  -26.9262  -17.8503   17.1303 N   0  0  0  0  0  0  0  0  0  0  0  0
  -24.3514  -14.1617   17.5306 N   0  0  0  0  0  0  0  0  0  0  0  0
  -27.3313  -22.3099   18.7828 N   0  0  0  0  0  0  0  0  0  0  0  0
  -21.5981  -28.5855   22.5645 N   0  0  0  0  0  0  0  0  0  0  0  0
  -25.9448  -33.7032   23.7380 N   0  0  0  0  0  0  0  0  0  0  0  0
  -29.1436  -33.4808   25.4070 N   0  3  0  0  0  0  0  0  0  0  0  0
  -25.2160  -15.6762   16.0416 O   0  0  0  0  0  0  0  0  0  0  0  0
  -22.6796  -30.1625   21.2356 O   0  0  0  0  0  0  0  0  0  0  0  0
  -23.4384  -32.3874   24.1799 O   0  0  0  0  0  0  0  0  0  0  0  0
  -27.9738  -32.9529   22.9031 O   0  0  0  0  0  0  0  0  0  0  0  0
  -28.9081  -23.0123   20.3326 O   0  0  0  0  0  0  0  0  0  0  0  0
  -23.1780  -11.4618   22.2602 O   0  0  0  0  0  0  0  0  0  0  0  0
  -28.2229  -26.8421   19.9118 O   0  0  0  0  0  0  0  0  0  1  0  0
  -23.5127   -6.4602   19.9634 F   0  0  0  0  0  0  0  0  0  0  0  0
  -22.2267  -11.0082   19.7045 F   0  0  0  0  0  0  0  0  0  0  0  0
  1  2  1  0  0  0  0
  1  5  2  0  0  0  0
  2  6  2  0  0  0  0
  3  8  2  0  0  0  0
  3 16  1  0  0  0  0
  4  9  1  0  0  0  0
  4 16  2  0  0  0  0
  5 18  1  0  0  0  0
  6 20  1  0  0  0  0
  7 10  2  0  0  0  0
  7 19  1  0  0  0  0
  8 22  1  0  0  0  0
  9 22  2  0  0  0  0
 10 23  1  0  0  0  0
 11 12  2  0  0  0  0
 11 24  1  0  0  0  0
 12 25  1  0  0  0  0
 13 21  1  0  0  0  0
 13 23  2  0  0  0  0
 14 25  2  0  0  0  0
 14 26  1  0  0  0  0
 15 28  1  0  0  0  0
 15 29  2  0  0  0  0
 16 27  1  0  0  0  0
 17 27  1  0  0  0  0
 17 30  2  0  0  0  0
 17 32  1  0  0  0  0
 18 20  2  0  0  0  0
 18 37  1  0  0  0  0
 19 21  2  0  0  0  0
 19 38  1  0  0  0  0
 20 46  1  0  0  0  0
 21 39  1  0  0  0  0
 22 77  1  0  0  0  0
 23 78  1  0  0  0  0
 24 26  2  0  0  0  0
 24 77  1  0  0  0  0
 25 79  1  0  0  0  0
 26 80  1  0  0  0  0
 27 60  2  0  0  0  0
 28 49  1  0  0  0  0
 28 61  2  0  0  0  0
 29 62  1  0  0  0  0
 29 68  1  0  0  0  0
 30 63  1  0  0  0  0
 30 66  1  0  0  0  0
 31 55  1  0  0  0  0
 31 61  1  0  0  0  0
 31 62  2  0  0  0  0
 32 67  1  0  0  0  0
 32 72  2  0  0  0  0
 33 47  1  0  0  0  0
 33 69  1  0  0  0  0
 33 73  2  0  0  0  0
 34 57  1  0  0  0  0
 34 64  1  0  0  0  0
 34 74  2  0  0  0  0
 35 58  1  0  0  0  0
 35 70  1  0  0  0  0
 35 75  2  0  0  0  0
 36 65  1  0  0  0  0
 36 68  1  0  0  0  0
 36 76  2  0  0  0  0
 37 40  1  0  0  0  0
 38 47  1  0  0  0  0
 39 64  1  0  0  0  0
 40 42  1  0  0  0  0
 41 43  1  0  0  0  0
 41 44  1  0  0  0  0
 42 46  1  0  0  0  0
 43 48  1  0  0  0  0
 44 65  1  0  0  0  0
 45 48  1  0  0  0  0
 45 65  1  0  0  0  0
 46 69  1  0  0  0  0
 47 64  1  0  0  0  0
 48 63  1  0  0  0  0
 50 58  1  0  0  0  0
 51 59  1  0  0  0  0
 52 59  1  0  0  0  0
 53 59  1  0  0  0  0
 54 71  1  0  0  0  0
 55 56  1  0  0  0  0
 56 78  1  0  0  0  0
 57 59  1  0  0  0  0
 57 70  1  0  0  0  0
 58 71  1  0  0  0  0
 60 63  1  0  0  0  0
M  CHG  1  71   1
M  ISO  4  36 100  56 101  68 100  78 101
M  END
> <Batch ID>
0181

> <Smiles>
CNC(C)C(=O)NC(C(=O)N1Cc2cc([101O:1][101CH2:1]Cc3nc(C)cc([100NH:0][100C:0](=O)N4CCCC(n5nc(-c6ccc(Oc7ccc(F)cc7F)cc6)c(C(N)=O)c5N)C4)n3)ccc2CC1C(=O)NC1CCCc2ccccc21)C(C)(C)C

> <Shape>
0.284

> <Color>
0.101

> <Negative vol penalty>
0.000

$$$$

  -OEChem-04052323023D

 81 90  0     1  0  0  0  0  0999 V2000
  -27.7715  -23.8805   12.2163 C   0  0  0  0  0  0  0  0  0  0  0  0
  -28.1023  -22.7808   13.0016 C   0  0  0  0  0  0  0  0  0  0  0  0
  -23.1701   -9.7701   19.9759 C   0  0  0  0  0  0  0  0  0  0  0  0
  -23.5690  -10.0156   22.3460 C   0  0  0  0  0  0  0  0  0  0  0  0
  -27.8055  -25.1622   12.7639 C   0  0  0  0  0  0  0  0  0  0  0  0
  -28.4684  -22.9624   14.3348 C   0  0  0  0  0  0  0  0  0  0  0  0
  -27.2786  -19.2066   19.0235 C   0  0  0  0  0  0  0  0  0  0  0  0
  -22.4047   -8.6304   20.2227 C   0  0  0  0  0  0  0  0  0  0  0  0
  -22.8036   -8.8759   22.5929 C   0  0  0  0  0  0  0  0  0  0  0  0
  -28.0450  -18.2340   19.6641 C   0  0  0  0  0  0  0  0  0  0  0  0
  -23.1997   -5.5228   22.4177 C   0  0  0  0  0  0  0  0  0  0  0  0
  -23.7048   -4.5856   23.3188 C   0  0  0  0  0  0  0  0  0  0  0  0
  -28.6693  -19.8439   21.3486 C   0  0  0  0  0  0  0  0  0  0  0  0
  -21.7606   -4.8859   24.7212 C   0  0  0  0  0  0  0  0  0  0  0  0
  -27.0047  -16.3239   23.6094 C   0  0  0  0  0  0  0  0  0  0  0  0
  -23.7523  -10.4627   21.0375 C   0  0  0  0  0  0  0  0  0  0  0  0
  -24.0909  -12.9713   20.7215 C   0  0  0  0  0  0  0  0  0  0  0  0
  -28.1629  -25.3587   14.1072 C   0  0  0  0  0  0  0  0  0  0  0  0
  -27.2104  -20.5103   19.5356 C   0  0  0  0  0  0  0  0  0  0  0  0
  -28.5085  -24.2481   14.9005 C   0  0  0  0  0  0  0  0  0  0  0  0
  -27.8992  -20.8305   20.7141 C   0  0  0  0  0  0  0  0  0  0  0  0
  -27.6768  -15.3378   24.3024 C   0  0  0  0  0  0  0  0  0  0  0  0
  -22.2214   -8.1833   21.5312 C   0  0  0  0  0  0  0  0  0  0  0  0
  -28.7429  -18.5533   20.8252 C   0  0  0  0  0  0  0  0  0  0  0  0
  -21.9750   -6.1417   22.6684 C   0  0  0  0  0  0  0  0  0  0  0  0
  -22.9853   -4.2671   24.4705 C   0  0  0  0  0  0  0  0  0  0  0  0
  -21.2554   -5.8232   23.8202 C   0  0  0  0  0  0  0  0  0  0  0  0
  -24.5435  -11.6397   20.7831 C   0  0  0  0  0  0  0  0  0  0  0  0
  -29.0046  -15.1708   23.9658 C   0  0  0  0  0  0  0  0  0  0  0  0
  -25.2206  -13.7060   20.4561 C   0  0  0  0  0  0  0  0  0  0  0  0
  -28.8746  -16.8341   22.4219 C   0  0  0  0  0  0  0  0  0  1  0  0
  -22.7677  -13.4971   20.8894 C   0  0  0  0  0  0  0  0  0  0  0  0
  -28.0301  -23.3876   18.4620 C   0  0  0  0  0  0  0  0  0  0  0  0
  -26.5766  -24.3884   21.1837 C   0  0  0  0  0  0  0  0  0  0  0  0
  -25.5720  -23.6685   24.3648 C   0  0  0  0  0  0  0  0  0  0  0  0
  -31.0355  -12.6449   21.4907 C   0  0  0  0  0  0  0  0  0  0  0  0
  -28.2310  -26.7674   14.6417 C   0  0  0  0  0  0  0  0  0  0  0  0
  -26.3577  -21.5409   18.8476 C   0  0  0  0  0  0  0  0  0  0  0  0
  -27.8426  -22.2101   21.3158 C   0  0  0  0  0  0  0  0  0  0  0  0
  -28.2670  -26.8394   16.1661 C   0  0  0  0  0  0  0  0  0  0  0  0
  -29.4922  -13.3922   18.3358 C   0  0  0  0  0  0  0  0  0  0  0  0
  -29.2750  -25.8396   16.7241 C   0  0  0  0  0  0  0  0  0  0  0  0
  -28.0097  -13.1216   18.5931 C   0  0  0  0  0  0  0  0  0  0  0  0
  -30.3804  -12.4163   19.1017 C   0  0  0  0  0  0  0  0  0  0  0  0
  -28.6324  -12.1099   20.8309 C   0  0  0  0  0  0  0  0  0  0  0  0
  -31.3830  -12.2034   23.9089 C   0  0  0  0  0  0  0  0  0  0  0  0
  -28.8868  -24.4020   16.3577 C   0  0  1  0  0  0  0  0  0  0  0  0
  -26.7726  -22.9727   19.1720 C   0  0  1  0  0  0  0  0  0  0  0  0
  -27.7046  -13.0970   20.1017 C   0  0  2  0  0  0  0  0  0  0  0  0
  -30.9068  -13.5988   23.7723 C   0  0  2  0  0  0  0  0  0  0  0  0
  -26.9919  -14.5222   25.3377 C   0  0  0  0  0  0  0  0  0  0  0  0
  -24.4438  -24.6995   26.3552 C   0  0  0  0  0  0  0  0  0  0  0  0
  -29.1357  -25.9146   21.8407 C   0  0  0  0  0  0  0  0  0  0  0  0
  -28.3246  -26.1200   24.2004 C   0  0  0  0  0  0  0  0  0  0  0  0
  -27.0231  -27.1558   22.3415 C   0  0  0  0  0  0  0  0  0  0  0  0
  -23.3600  -21.7044   24.2742 C   0  0  0  0  0  0  0  0  0  0  0  0
  -29.8312  -14.1326   24.6500 C   0  0  0  0  0  0  0  0  0  0  0  0
  -27.0232  -24.6412   22.6034 C   0  0  1  0  0  0  0  0  0  0  0  0
  -24.2519  -23.8940   25.0796 C   0  0  2  0  0  0  0  0  0  0  0  0
  -27.8795  -25.9323   22.7344 C   0  0  0  0  0  0  0  0  0  0  0  0
  -27.5747  -17.0938   22.6593 N   0  0  0  0  0  0  0  0  0  0  0  0
  -25.8582  -11.5317   20.5735 N   0  0  0  0  0  0  0  0  0  0  0  0
  -29.6379  -15.9041   23.0269 N   0  0  0  0  0  0  0  0  0  0  0  0
  -26.2414  -12.8048   20.3776 N   0  0  0  0  0  0  0  0  0  0  0  0
  -27.0004  -23.1847   20.6029 N   0  0  0  0  0  0  0  0  0  0  0  0
  -30.0399  -12.4036   20.5243 N   0  0  0  0  0  0  0  0  0  0  0  0
  -30.5624  -12.6051   22.8013 N   0  0  0  0  0  0  0  0  0  0  0  0
  -25.4305  -15.0284   20.2845 N   0  0  0  0  0  0  0  0  0  0  0  0
  -21.7223  -12.6027   21.1572 N   0  0  0  0  0  0  0  0  0  0  0  0
  -27.8156  -23.9346   17.2113 N   0  0  0  0  0  0  0  0  0  0  0  0
  -25.8129  -24.6416   23.4181 N   0  0  0  0  0  0  0  0  0  0  0  0
  -23.6270  -22.5892   25.4373 N   0  3  0  0  0  0  0  0  0  0  0  0
  -22.5169  -14.7220   20.7881 O   0  0  0  0  0  0  0  0  0  0  0  0
  -29.1146  -23.2250   19.0089 O   0  0  0  0  0  0  0  0  0  0  0  0
  -25.8714  -25.2247   20.6136 O   0  0  0  0  0  0  0  0  0  0  0  0
  -26.3168  -22.7257   24.6232 O   0  0  0  0  0  0  0  0  0  0  0  0
  -32.2144  -12.8737   21.2067 O   0  0  0  0  0  0  0  0  0  0  0  0
  -21.4744   -7.0714   21.7725 O   0  0  0  0  0  0  0  0  0  0  0  0
  -29.4922  -17.6060   21.4520 O   0  0  0  0  0  0  0  0  0  1  0  0
  -23.4698   -3.3659   25.3350 F   0  0  0  0  0  0  0  0  0  0  0  0
  -20.0778   -6.4136   24.0658 F   0  0  0  0  0  0  0  0  0  0  0  0
  1  2  1  0  0  0  0
  1  5  2  0  0  0  0
  2  6  2  0  0  0  0
  3  8  2  0  0  0  0
  3 16  1  0  0  0  0
  4  9  1  0  0  0  0
  4 16  2  0  0  0  0
  5 18  1  0  0  0  0
  6 20  1  0  0  0  0
  7 10  2  0  0  0  0
  7 19  1  0  0  0  0
  8 23  1  0  0  0  0
  9 23  2  0  0  0  0
 10 24  1  0  0  0  0
 11 12  2  0  0  0  0
 11 25  1  0  0  0  0
 12 26  1  0  0  0  0
 13 21  1  0  0  0  0
 13 24  2  0  0  0  0
 14 26  2  0  0  0  0
 14 27  1  0  0  0  0
 15 22  1  0  0  0  0
 15 61  2  0  0  0  0
 16 28  1  0  0  0  0
 17 28  1  0  0  0  0
 17 30  2  0  0  0  0
 17 32  1  0  0  0  0
 18 20  2  0  0  0  0
 18 37  1  0  0  0  0
 19 21  2  0  0  0  0
 19 38  1  0  0  0  0
 20 47  1  0  0  0  0
 21 39  1  0  0  0  0
 22 29  2  0  0  0  0
 22 51  1  0  0  0  0
 23 78  1  0  0  0  0
 24 79  1  0  0  0  0
 25 27  2  0  0  0  0
 25 78  1  0  0  0  0
 26 80  1  0  0  0  0
 27 81  1  0  0  0  0
 28 62  2  0  0  0  0
 29 57  1  0  0  0  0
 29 63  1  0  0  0  0
 30 64  1  0  0  0  0
 30 68  1  0  0  0  0
 31 61  1  0  0  0  0
 31 63  2  0  0  0  0
 31 79  1  0  0  0  0
 32 69  1  0  0  0  0
 32 73  2  0  0  0  0
 33 48  1  0  0  0  0
 33 70  1  0  0  0  0
 33 74  2  0  0  0  0
 34 58  1  0  0  0  0
 34 65  1  0  0  0  0
 34 75  2  0  0  0  0
 35 59  1  0  0  0  0
 35 71  1  0  0  0  0
 35 76  2  0  0  0  0
 36 66  1  0  0  0  0
 36 67  1  0  0  0  0
 36 77  2  0  0  0  0
 37 40  1  0  0  0  0
 38 48  1  0  0  0  0
 39 65  1  0  0  0  0
 40 42  1  0  0  0  0
 41 43  1  0  0  0  0
 41 44  1  0  0  0  0
 42 47  1  0  0  0  0
 43 49  1  0  0  0  0
 44 66  1  0  0  0  0
 45 49  1  0  0  0  0
 45 66  1  0  0  0  0
 46 50  1  0  0  0  0
 46 67  1  0  0  0  0
 47 70  1  0  0  0  0
 48 65  1  0  0  0  0
 49 64  1  0  0  0  0
 50 57  1  0  0  0  0
 50 67  1  0  0  0  0
 52 59  1  0  0  0  0
 53 60  1  0  0  0  0
 54 60  1  0  0  0  0
 55 60  1  0  0  0  0
 56 72  1  0  0  0  0
 58 60  1  0  0  0  0
 58 71  1  0  0  0  0
 59 72  1  0  0  0  0
 62 64  1  0  0  0  0
M  CHG  1  72   1
M  ISO  4  31 101  36 100  67 100  79 101
M  END
> <Batch ID>
0181

> <Smiles>
CNC(C)C(=O)NC(C(=O)N1Cc2cc([101O:1][101c:1]3ncc(C)c(CC4C[100N:0]4[100C:0](=O)N4CCCC(n5nc(-c6ccc(Oc7ccc(F)cc7F)cc6)c(C(N)=O)c5N)C4)n3)ccc2CC1C(=O)NC1CCCc2ccccc21)C(C)(C)C

> <Shape>
0.220

> <Color>
0.208

> <Negative vol penalty>
0.000

$$$$

  -OEChem-04052323023D

 84 93  0     1  0  0  0  0  0999 V2000
  -28.3653  -33.6679   22.0181 C   0  0  0  0  0  0  0  0  0  0  0  0
  -28.4168  -32.2818   22.1253 C   0  0  0  0  0  0  0  0  0  0  0  0
  -23.0431  -15.9584   21.5397 C   0  0  0  0  0  0  0  0  0  0  0  0
  -22.3568  -14.9939   19.4336 C   0  0  0  0  0  0  0  0  0  0  0  0
  -27.1817  -34.3450   22.3091 C   0  0  0  0  0  0  0  0  0  0  0  0
  -27.2849  -31.5720   22.5246 C   0  0  0  0  0  0  0  0  0  0  0  0
  -26.4696  -27.4585   19.6857 C   0  0  0  0  0  0  0  0  0  0  0  0
  -28.5365  -21.9389   23.2163 C   0  0  0  0  0  0  0  0  0  0  0  0
  -21.9962  -16.8767   21.4603 C   0  0  0  0  0  0  0  0  0  0  0  0
  -21.3099  -15.9122   19.3542 C   0  0  0  0  0  0  0  0  0  0  0  0
  -27.2562  -26.3377   19.9481 C   0  0  0  0  0  0  0  0  0  0  0  0
  -19.2871  -19.2423   21.9896 C   0  0  0  0  0  0  0  0  0  0  0  0
  -18.5284  -19.4617   23.1393 C   0  0  0  0  0  0  0  0  0  0  0  0
  -29.4576  -20.9162   23.4138 C   0  0  0  0  0  0  0  0  0  0  0  0
  -25.4446  -25.3700   21.2134 C   0  0  0  0  0  0  0  0  0  0  0  0
  -17.9025  -17.1284   23.1717 C   0  0  0  0  0  0  0  0  0  0  0  0
  -23.2234  -15.0170   20.5263 C   0  0  0  0  0  0  0  0  0  0  0  0
  -24.2740  -12.7926   21.2016 C   0  0  0  0  0  0  0  0  0  0  0  0
  -26.0320  -33.6423   22.7029 C   0  0  0  0  0  0  0  0  0  0  0  0
  -25.1663  -27.5484   20.1952 C   0  0  0  0  0  0  0  0  0  0  0  0
  -26.0852  -32.2404   22.8225 C   0  0  0  0  0  0  0  0  0  0  0  0
  -24.6427  -26.4918   20.9539 C   0  0  0  0  0  0  0  0  0  0  0  0
  -27.9111  -22.0748   21.9819 C   0  0  0  0  0  0  0  0  0  0  0  0
  -21.1296  -16.8536   20.3676 C   0  0  0  0  0  0  0  0  0  0  0  0
  -26.7448  -25.2945   20.7144 C   0  0  0  0  0  0  0  0  0  0  0  0
  -19.3535  -17.9659   21.4309 C   0  0  0  0  0  0  0  0  0  0  0  0
  -17.8361  -18.4049   23.7303 C   0  0  0  0  0  0  0  0  0  0  0  0
  -18.6612  -16.9090   22.0219 C   0  0  0  0  0  0  0  0  0  0  0  0
  -24.3050  -14.0685   20.6075 C   0  0  0  0  0  0  0  0  0  0  0  0
  -28.2389  -21.1695   20.9856 C   0  0  0  0  0  0  0  0  0  0  0  0
  -29.7160  -20.0626   22.3535 C   0  0  0  0  0  0  0  0  0  0  0  0
  -25.5410  -12.2961   21.0152 C   0  0  0  0  0  0  0  0  0  0  0  0
  -23.1962  -12.1166   21.8629 C   0  0  0  0  0  0  0  0  0  0  0  0
  -23.6697  -29.5159   22.1935 C   0  0  0  0  0  0  0  0  0  0  0  0
  -21.0643  -27.7906   21.3233 C   0  0  0  0  0  0  0  0  0  0  0  0
  -19.8029  -24.8639   20.1026 C   0  0  0  0  0  0  0  0  0  0  0  0
  -30.8313  -15.1091   20.0861 C   0  0  0  0  0  0  0  0  0  0  0  0
  -24.7891  -34.4217   23.0527 C   0  0  0  0  0  0  0  0  0  0  0  0
  -24.3212  -28.7523   19.8808 C   0  0  0  0  0  0  0  0  0  0  0  0
  -23.2423  -26.5305   21.5070 C   0  0  0  0  0  0  0  0  0  0  0  0
  -23.5275  -33.5639   23.1073 C   0  0  0  0  0  0  0  0  0  0  0  0
  -29.2854  -12.5540   18.0828 C   0  0  0  0  0  0  0  0  0  0  0  0
  -23.7855  -32.2847   23.8971 C   0  0  0  0  0  0  0  0  0  0  0  0
  -27.8217  -12.5733   18.5109 C   0  0  0  0  0  0  0  0  0  0  0  0
  -29.8821  -13.9545   18.1229 C   0  0  0  0  0  0  0  0  0  0  0  0
  -28.3296  -14.6177   19.9411 C   0  0  0  0  0  0  0  0  0  0  0  0
  -31.6778  -16.9451   21.6405 C   0  0  0  0  0  0  0  0  0  0  0  0
  -29.6779  -17.2752   20.9935 C   0  0  0  0  0  0  0  0  0  0  0  0
  -24.8714  -31.4331   23.2286 C   0  0  1  0  0  0  0  0  0  0  0  0
  -23.1889  -28.9652   20.8808 C   0  0  1  0  0  0  0  0  0  0  0  0
  -27.6757  -13.2222   19.8948 C   0  0  1  0  0  0  0  0  0  0  0  0
  -30.8383  -18.2034   21.3841 C   0  0  0  0  0  0  0  0  0  0  0  0
  -27.8367  -20.0204   18.7937 C   0  0  0  0  0  0  0  0  0  0  0  0
  -17.6325  -23.7375   19.5387 C   0  0  0  0  0  0  0  0  0  0  0  0
  -20.5413  -27.3175   24.2919 C   0  0  0  0  0  0  0  0  0  0  0  0
  -18.9879  -25.4616   23.6511 C   0  0  0  0  0  0  0  0  0  0  0  0
  -18.4959  -27.8003   22.9363 C   0  0  0  0  0  0  0  0  0  0  0  0
  -20.5545  -24.5845   17.2537 C   0  0  0  0  0  0  0  0  0  0  0  0
  -26.9231  -23.1681   21.7646 C   0  0  0  0  0  0  0  0  0  1  0  0
  -27.5981  -21.2673   19.6398 C   0  0  0  0  0  0  0  0  0  0  0  0
  -20.3906  -26.5401   21.8345 C   0  0  1  0  0  0  0  0  0  0  0  0
  -18.7826  -24.5831   19.0142 C   0  0  2  0  0  0  0  0  0  0  0  0
  -19.6310  -26.7797   23.1698 C   0  0  0  0  0  0  0  0  0  0  0  0
  -25.4972  -14.3642   20.0830 N   0  0  0  0  0  0  0  0  0  0  0  0
  -29.1284  -20.1633   21.1401 N   0  0  0  0  0  0  0  0  0  0  0  0
  -26.2272  -13.2671   20.3470 N   0  0  0  0  0  0  0  0  0  0  0  0
  -22.4575  -27.7318   21.1774 N   0  0  0  0  0  0  0  0  0  0  0  0
  -29.7078  -14.5914   19.4319 N   0  0  0  0  0  0  0  0  0  0  0  0
  -30.6644  -16.2130   20.8904 N   0  0  0  0  0  0  0  0  0  0  0  0
  -26.1238  -11.1281   21.3593 N   0  0  0  0  0  0  0  0  0  0  0  0
  -21.9610  -12.7705   21.9668 N   0  0  0  0  0  0  0  0  0  0  0  0
  -24.3286  -30.7260   22.0885 N   0  0  0  0  0  0  0  0  0  0  0  0
  -19.5479  -26.0564   20.7462 N   0  0  0  0  0  0  0  0  0  0  0  0
  -19.4213  -23.8565   17.8805 N   0  3  0  0  0  0  0  0  0  0  0  0
  -23.3296  -10.9734   22.3617 O   0  0  0  0  0  0  0  0  0  0  0  0
  -23.4573  -28.8901   23.2254 O   0  0  0  0  0  0  0  0  0  0  0  0
  -20.3787  -28.7808   21.0563 O   0  0  0  0  0  0  0  0  0  0  0  0
  -20.7309  -24.1000   20.3589 O   0  0  0  0  0  0  0  0  0  0  0  0
  -31.9589  -14.6207   19.9334 O   0  0  0  0  0  0  0  0  0  0  0  0
  -20.1078  -17.7494   20.2899 O   0  0  0  0  0  0  0  0  0  0  0  0
  -27.5158  -24.1923   20.9743 O   0  0  0  0  0  0  0  0  0  1  0  0
  -30.6160  -19.0528   22.5228 O   0  0  0  0  0  0  0  0  0  0  0  0
  -17.1088  -18.6155   24.8353 F   0  0  0  0  0  0  0  0  0  0  0  0
  -18.7220  -15.6803   21.4904 F   0  0  0  0  0  0  0  0  0  0  0  0
  1  2  1  0  0  0  0
  1  5  2  0  0  0  0
  2  6  2  0  0  0  0
  3  9  2  0  0  0  0
  3 17  1  0  0  0  0
  4 10  1  0  0  0  0
  4 17  2  0  0  0  0
  5 19  1  0  0  0  0
  6 21  1  0  0  0  0
  7 11  2  0  0  0  0
  7 20  1  0  0  0  0
  8 14  2  0  0  0  0
  8 23  1  0  0  0  0
  9 24  1  0  0  0  0
 10 24  2  0  0  0  0
 11 25  1  0  0  0  0
 12 13  2  0  0  0  0
 12 26  1  0  0  0  0
 13 27  1  0  0  0  0
 14 31  1  0  0  0  0
 15 22  1  0  0  0  0
 15 25  2  0  0  0  0
 16 27  2  0  0  0  0
 16 28  1  0  0  0  0
 17 29  1  0  0  0  0
 18 29  1  0  0  0  0
 18 32  2  0  0  0  0
 18 33  1  0  0  0  0
 19 21  2  0  0  0  0
 19 38  1  0  0  0  0
 20 22  2  0  0  0  0
 20 39  1  0  0  0  0
 21 49  1  0  0  0  0
 22 40  1  0  0  0  0
 23 30  2  0  0  0  0
 23 59  1  0  0  0  0
 24 80  1  0  0  0  0
 25 81  1  0  0  0  0
 26 28  2  0  0  0  0
 26 80  1  0  0  0  0
 27 83  1  0  0  0  0
 28 84  1  0  0  0  0
 29 64  2  0  0  0  0
 30 60  1  0  0  0  0
 30 65  1  0  0  0  0
 31 65  2  0  0  0  0
 31 82  1  0  0  0  0
 32 66  1  0  0  0  0
 32 70  1  0  0  0  0
 33 71  1  0  0  0  0
 33 75  2  0  0  0  0
 34 50  1  0  0  0  0
 34 72  1  0  0  0  0
 34 76  2  0  0  0  0
 35 61  1  0  0  0  0
 35 67  1  0  0  0  0
 35 77  2  0  0  0  0
 36 62  1  0  0  0  0
 36 73  1  0  0  0  0
 36 78  2  0  0  0  0
 37 68  1  0  0  0  0
 37 69  1  0  0  0  0
 37 79  2  0  0  0  0
 38 41  1  0  0  0  0
 39 50  1  0  0  0  0
 40 67  1  0  0  0  0
 41 43  1  0  0  0  0
 42 44  1  0  0  0  0
 42 45  1  0  0  0  0
 43 49  1  0  0  0  0
 44 51  1  0  0  0  0
 45 68  1  0  0  0  0
 46 51  1  0  0  0  0
 46 68  1  0  0  0  0
 47 52  1  0  0  0  0
 47 69  1  0  0  0  0
 48 52  1  0  0  0  0
 48 69  1  0  0  0  0
 49 72  1  0  0  0  0
 50 67  1  0  0  0  0
 51 66  1  0  0  0  0
 52 82  1  0  0  0  0
 53 60  1  0  0  0  0
 54 62  1  0  0  0  0
 55 63  1  0  0  0  0
 56 63  1  0  0  0  0
 57 63  1  0  0  0  0
 58 74  1  0  0  0  0
 59 81  1  0  0  0  0
 61 63  1  0  0  0  0
 61 73  1  0  0  0  0
 62 74  1  0  0  0  0
 64 66  1  0  0  0  0
M  CHG  1  74   1
M  ISO  4  37 100  59 101  69 100  81 101
M  END
> <Batch ID>
0181

> <Smiles>
CCc1nc(OC2C[100N:0]([100C:0](=O)N3CCCC(n4nc(-c5ccc(Oc6ccc(F)cc6F)cc5)c(C(N)=O)c4N)C3)C2)ccc1[101CH2:1][101O:1]c1ccc2c(c1)CN(C(=O)C(NC(=O)C(C)NC)C(C)(C)C)C(C(=O)NC1CCCc3ccccc31)C2

> <Shape>
0.274

> <Color>
0.095

> <Negative vol penalty>
0.000

$$$$

  -OEChem-04052323023D

 86 96  0     1  0  0  0  0  0999 V2000
  -34.0814  -30.8293   18.6664 C   0  0  0  0  0  0  0  0  0  0  0  0
  -33.4708  -29.6886   18.1552 C   0  0  0  0  0  0  0  0  0  0  0  0
  -22.9501  -10.0853   20.0123 C   0  0  0  0  0  0  0  0  0  0  0  0
  -23.9607   -9.9157   22.2002 C   0  0  0  0  0  0  0  0  0  0  0  0
  -33.8391  -31.2176   19.9834 C   0  0  0  0  0  0  0  0  0  0  0  0
  -32.6184  -28.9347   18.9612 C   0  0  0  0  0  0  0  0  0  0  0  0
  -26.7281  -24.8745   18.5928 C   0  0  0  0  0  0  0  0  0  0  0  0
  -22.2048   -8.9342   20.2674 C   0  0  0  0  0  0  0  0  0  0  0  0
  -23.2154   -8.7646   22.4553 C   0  0  0  0  0  0  0  0  0  0  0  0
  -26.2650  -23.6126   18.9626 C   0  0  0  0  0  0  0  0  0  0  0  0
  -20.0522   -7.9981   23.3649 C   0  0  0  0  0  0  0  0  0  0  0  0
  -19.4297   -7.8933   24.6087 C   0  0  0  0  0  0  0  0  0  0  0  0
  -25.8585  -24.4233   21.1979 C   0  0  0  0  0  0  0  0  0  0  0  0
  -26.6604  -17.6334   23.3114 C   0  0  0  0  0  0  0  0  0  0  0  0
  -20.6873   -5.8824   25.0689 C   0  0  0  0  0  0  0  0  0  0  0  0
  -23.8281  -10.5760   20.9787 C   0  0  0  0  0  0  0  0  0  0  0  0
  -24.2293  -13.0953   20.9896 C   0  0  0  0  0  0  0  0  0  0  0  0
  -32.9757  -30.4735   20.8029 C   0  0  0  0  0  0  0  0  0  0  0  0
  -26.7702  -25.9192   19.5273 C   0  0  0  0  0  0  0  0  0  0  0  0
  -32.3654  -29.3127   20.2908 C   0  0  0  0  0  0  0  0  0  0  0  0
  -26.3202  -25.6983   20.8368 C   0  0  0  0  0  0  0  0  0  0  0  0
  -25.5673  -18.4869   23.2092 C   0  0  0  0  0  0  0  0  0  0  0  0
  -22.3374   -8.2739   21.4889 C   0  0  0  0  0  0  0  0  0  0  0  0
  -25.8328  -23.3860   20.2660 C   0  0  0  0  0  0  0  0  0  0  0  0
  -20.9923   -7.0449   22.9730 C   0  0  0  0  0  0  0  0  0  0  0  0
  -19.7472   -6.8356   25.4607 C   0  0  0  0  0  0  0  0  0  0  0  0
  -21.3099   -5.9872   23.8250 C   0  0  0  0  0  0  0  0  0  0  0  0
  -24.5987  -11.7648   20.7156 C   0  0  0  0  0  0  0  0  0  0  0  0
  -27.7732  -17.9013   22.5430 C   0  0  0  0  0  0  0  0  0  0  0  0
  -25.6678  -19.5848   22.3555 C   0  0  0  0  0  0  0  0  0  0  0  0
  -25.2960  -13.8440   20.5558 C   0  0  0  0  0  0  0  0  0  0  0  0
  -23.0294  -13.6085   21.5831 C   0  0  0  0  0  0  0  0  0  0  0  0
  -29.0745  -27.7082   20.7896 C   0  0  0  0  0  0  0  0  0  0  0  0
  -26.5783  -29.2891   22.1282 C   0  0  0  0  0  0  0  0  0  0  0  0
  -23.3253  -29.2254   23.1581 C   0  0  0  0  0  0  0  0  0  0  0  0
  -30.8692  -14.5297   20.5099 C   0  0  0  0  0  0  0  0  0  0  0  0
  -32.7816  -30.9061   22.2347 C   0  0  0  0  0  0  0  0  0  0  0  0
  -27.2474  -27.2819   19.1055 C   0  0  0  0  0  0  0  0  0  0  0  0
  -26.3260  -26.7919   21.8724 C   0  0  0  0  0  0  0  0  0  0  0  0
  -24.3420  -18.2461   24.0378 C   0  0  0  0  0  0  0  0  0  0  0  0
  -31.5719  -30.2620   22.9069 C   0  0  0  0  0  0  0  0  0  0  0  0
  -29.3466  -12.5662   17.8040 C   0  0  0  0  0  0  0  0  0  0  0  0
  -31.5420  -28.7625   22.6286 C   0  0  0  0  0  0  0  0  0  0  0  0
  -27.9588  -12.2519   18.3687 C   0  0  0  0  0  0  0  0  0  0  0  0
  -30.3478  -17.6389   22.3180 C   0  0  0  0  0  0  0  0  0  0  0  0
  -30.3954  -12.7118   18.9050 C   0  0  0  0  0  0  0  0  0  0  0  0
  -31.2453  -16.4418   22.0482 C   0  0  0  0  0  0  0  0  0  0  0  0
  -28.9670  -15.8214   21.6309 C   0  0  0  0  0  0  0  0  0  0  0  0
  -28.6563  -13.3272   20.5373 C   0  0  0  0  0  0  0  0  0  0  0  0
  -23.4989  -20.4712   23.3248 C   0  0  0  0  0  0  0  0  0  0  0  0
  -31.4150  -28.4827   21.1262 C   0  0  1  0  0  0  0  0  0  0  0  0
  -28.9855  -16.9990   22.6198 C   0  0  2  0  0  0  0  0  0  0  0  0
  -24.4985  -20.5327   22.1637 C   0  0  1  0  0  0  0  0  0  0  0  0
  -27.7288  -28.1349   20.2752 C   0  0  1  0  0  0  0  0  0  0  0  0
  -27.5610  -13.2596   19.4650 C   0  0  2  0  0  0  0  0  0  0  0  0
  -21.5757  -30.6564   24.2483 C   0  0  0  0  0  0  0  0  0  0  0  0
  -27.9283  -28.8748   24.8330 C   0  0  0  0  0  0  0  0  0  0  0  0
  -25.7514  -29.4479   25.9290 C   0  0  0  0  0  0  0  0  0  0  0  0
  -26.9139  -31.1377   24.5091 C   0  0  0  0  0  0  0  0  0  0  0  0
  -21.5513  -29.0596   20.7949 C   0  0  0  0  0  0  0  0  0  0  0  0
  -24.9530  -21.9828   21.9727 C   0  0  0  0  0  0  0  0  0  1  0  0
  -25.7923  -29.1562   23.4102 C   0  0  1  0  0  0  0  0  0  0  0  0
  -22.1776  -30.1927   22.9309 C   0  0  2  0  0  0  0  0  0  0  0  0
  -26.5980  -29.6328   24.6515 C   0  0  0  0  0  0  0  0  0  0  0  0
  -25.8057  -11.6705   20.1513 N   0  0  0  0  0  0  0  0  0  0  0  0
  -27.8424  -18.9514   21.7040 N   0  0  0  0  0  0  0  0  0  0  0  0
  -26.7760  -19.7953   21.6056 N   0  0  0  0  0  0  0  0  0  0  0  0
  -26.2039  -12.9513   20.0671 N   0  0  0  0  0  0  0  0  0  0  0  0
  -26.8076  -28.1051   21.4131 N   0  0  0  0  0  0  0  0  0  0  0  0
  -29.9465  -13.6568   19.9255 N   0  0  0  0  0  0  0  0  0  0  0  0
  -30.3712  -15.4516   21.4341 N   0  0  0  0  0  0  0  0  0  0  0  0
  -25.5364  -15.1724   20.5484 N   0  0  0  0  0  0  0  0  0  0  0  0
  -22.0348  -12.7006   21.9714 N   0  0  0  0  0  0  0  0  0  0  0  0
  -30.0499  -28.6818   20.6887 N   0  0  0  0  0  0  0  0  0  0  0  0
  -24.5407  -29.8752   23.1981 N   0  0  0  0  0  0  0  0  0  0  0  0
  -23.1568  -19.0435   23.5916 N   0  3  0  0  0  0  0  0  0  0  0  0
  -21.1042  -29.5433   22.1265 N   0  3  0  0  0  0  0  0  0  0  0  0
  -22.8376  -14.8370   21.7488 O   0  0  0  0  0  0  0  0  0  0  0  0
  -29.2170  -26.5798   21.2457 O   0  0  0  0  0  0  0  0  0  0  0  0
  -26.9681  -30.4035   21.7706 O   0  0  0  0  0  0  0  0  0  0  0  0
  -23.1597  -28.0148   23.2908 O   0  0  0  0  0  0  0  0  0  0  0  0
  -32.0618  -14.5189   20.1802 O   0  0  0  0  0  0  0  0  0  0  0  0
  -21.6101   -7.1507   21.7382 O   0  0  0  0  0  0  0  0  0  0  0  0
  -25.3765  -22.1431   20.6333 O   0  0  0  0  0  0  0  0  0  1  0  0
  -19.1504   -6.7360   26.6557 F   0  0  0  0  0  0  0  0  0  0  0  0
  -22.2131   -5.0691   23.4546 F   0  0  0  0  0  0  0  0  0  0  0  0
  1  2  1  0  0  0  0
  1  5  2  0  0  0  0
  2  6  2  0  0  0  0
  3  8  2  0  0  0  0
  3 16  1  0  0  0  0
  4  9  1  0  0  0  0
  4 16  2  0  0  0  0
  5 18  1  0  0  0  0
  6 20  1  0  0  0  0
  7 10  2  0  0  0  0
  7 19  1  0  0  0  0
  8 23  1  0  0  0  0
  9 23  2  0  0  0  0
 10 24  1  0  0  0  0
 11 12  2  0  0  0  0
 11 25  1  0  0  0  0
 12 26  1  0  0  0  0
 13 21  1  0  0  0  0
 13 24  2  0  0  0  0
 14 22  1  0  0  0  0
 14 29  2  0  0  0  0
 15 26  2  0  0  0  0
 15 27  1  0  0  0  0
 16 28  1  0  0  0  0
 17 28  1  0  0  0  0
 17 31  2  0  0  0  0
 17 32  1  0  0  0  0
 18 20  2  0  0  0  0
 18 37  1  0  0  0  0
 19 21  2  0  0  0  0
 19 38  1  0  0  0  0
 20 51  1  0  0  0  0
 21 39  1  0  0  0  0
 22 30  2  0  0  0  0
 22 40  1  0  0  0  0
 23 83  1  0  0  0  0
 24 84  1  0  0  0  0
 25 27  2  0  0  0  0
 25 83  1  0  0  0  0
 26 85  1  0  0  0  0
 27 86  1  0  0  0  0
 28 65  2  0  0  0  0
 29 52  1  0  0  0  0
 29 66  1  0  0  0  0
 30 53  1  0  0  0  0
 30 67  1  0  0  0  0
 31 68  1  0  0  0  0
 31 72  1  0  0  0  0
 32 73  1  0  0  0  0
 32 78  2  0  0  0  0
 33 54  1  0  0  0  0
 33 74  1  0  0  0  0
 33 79  2  0  0  0  0
 34 62  1  0  0  0  0
 34 69  1  0  0  0  0
 34 80  2  0  0  0  0
 35 63  1  0  0  0  0
 35 75  1  0  0  0  0
 35 81  2  0  0  0  0
 36 70  1  0  0  0  0
 36 71  1  0  0  0  0
 36 82  2  0  0  0  0
 37 41  1  0  0  0  0
 38 54  1  0  0  0  0
 39 69  1  0  0  0  0
 40 76  1  0  0  0  0
 41 43  1  0  0  0  0
 42 44  1  0  0  0  0
 42 46  1  0  0  0  0
 43 51  1  0  0  0  0
 44 55  1  0  0  0  0
 45 47  1  0  0  0  0
 45 52  1  0  0  0  0
 46 70  1  0  0  0  0
 47 71  1  0  0  0  0
 48 52  1  0  0  0  0
 48 71  1  0  0  0  0
 49 55  1  0  0  0  0
 49 70  1  0  0  0  0
 50 53  1  0  0  0  0
 50 76  1  0  0  0  0
 51 74  1  0  0  0  0
 53 61  1  0  0  0  0
 54 69  1  0  0  0  0
 55 68  1  0  0  0  0
 56 63  1  0  0  0  0
 57 64  1  0  0  0  0
 58 64  1  0  0  0  0
 59 64  1  0  0  0  0
 60 77  1  0  0  0  0
 61 84  1  0  0  0  0
 62 64  1  0  0  0  0
 62 75  1  0  0  0  0
 63 77  1  0  0  0  0
 65 68  1  0  0  0  0
 66 67  2  0  0  0  0
M  CHG  2  76   1  77   1
M  ISO  4  36 100  61 101  71 100  84 101
M  END
> <Batch ID>
0181

> <Smiles>
CNC(C)C(=O)NC(C(=O)N1Cc2cc([101O:1][101CH2:1]C3CNCc4cc(C5CC[100N:0]([100C:0](=O)N6CCCC(n7nc(-c8ccc(Oc9ccc(F)cc9F)cc8)c(C(N)=O)c7N)C6)C5)nnc43)ccc2CC1C(=O)NC1CCCc2ccccc21)C(C)(C)C

> <Shape>
0.293

> <Color>
0.203

> <Negative vol penalty>
0.000

$$$$

  -OEChem-04052323023D

 84 92  0     1  0  0  0  0  0999 V2000
  -18.2975  -27.4299   22.5835 C   0  0  0  0  0  0  0  0  0  0  0  0
  -19.1259  -26.3134   22.6337 C   0  0  0  0  0  0  0  0  0  0  0  0
  -22.2356  -10.2916   20.3544 C   0  0  0  0  0  0  0  0  0  0  0  0
  -24.3173   -9.4068   21.2032 C   0  0  0  0  0  0  0  0  0  0  0  0
  -18.8375  -28.6854   22.3077 C   0  0  0  0  0  0  0  0  0  0  0  0
  -20.4948  -26.4516   22.4070 C   0  0  0  0  0  0  0  0  0  0  0  0
  -25.0057  -23.2737   25.0639 C   0  0  0  0  0  0  0  0  0  0  0  0
  -21.6231   -9.0571   20.5697 C   0  0  0  0  0  0  0  0  0  0  0  0
  -23.7048   -8.1723   21.4185 C   0  0  0  0  0  0  0  0  0  0  0  0
  -25.7477  -22.1699   24.6458 C   0  0  0  0  0  0  0  0  0  0  0  0
  -21.6573   -6.7765   23.7164 C   0  0  0  0  0  0  0  0  0  0  0  0
  -21.9034   -6.1357   24.9307 C   0  0  0  0  0  0  0  0  0  0  0  0
  -27.4910  -23.6442   23.8671 C   0  0  0  0  0  0  0  0  0  0  0  0
  -22.8437   -4.2517   23.7459 C   0  0  0  0  0  0  0  0  0  0  0  0
  -23.5828  -10.4665   20.6711 C   0  0  0  0  0  0  0  0  0  0  0  0
  -24.3045  -12.8163   21.3531 C   0  0  0  0  0  0  0  0  0  0  0  0
  -20.2151  -28.8406   22.0871 C   0  0  0  0  0  0  0  0  0  0  0  0
  -25.4967  -24.5738   24.8765 C   0  0  0  0  0  0  0  0  0  0  0  0
  -21.0536  -27.7102   22.1267 C   0  0  0  0  0  0  0  0  0  0  0  0
  -26.7544  -24.7628   24.2860 C   0  0  0  0  0  0  0  0  0  0  0  0
  -28.9898  -20.5902   18.9037 C   0  0  0  0  0  0  0  0  0  0  0  0
  -22.3576   -7.9974   21.1018 C   0  0  0  0  0  0  0  0  0  0  0  0
  -26.9892  -22.3551   24.0447 C   0  0  0  0  0  0  0  0  0  0  0  0
  -22.0044   -6.1549   22.5169 C   0  0  0  0  0  0  0  0  0  0  0  0
  -22.4965   -4.8733   24.9454 C   0  0  0  0  0  0  0  0  0  0  0  0
  -22.5976   -4.8925   22.5316 C   0  0  0  0  0  0  0  0  0  0  0  0
  -24.2162  -11.7413   20.4484 C   0  0  0  0  0  0  0  0  0  0  0  0
  -29.7313  -20.1005   17.8479 C   0  0  0  0  0  0  0  0  0  0  0  0
  -28.8056  -19.7196   19.9585 C   0  0  0  0  0  0  0  0  0  0  0  0
  -24.9964  -13.7853   20.6685 C   0  0  0  0  0  0  0  0  0  0  0  0
  -30.0080  -18.1056   18.9019 C   0  0  0  0  0  0  0  0  0  0  0  0
  -23.8056  -12.9288   22.6926 C   0  0  0  0  0  0  0  0  0  0  0  0
  -24.5250  -27.1258   23.2497 C   0  0  0  0  0  0  0  0  0  0  0  0
  -27.0243  -28.5497   24.7492 C   0  0  0  0  0  0  0  0  0  0  0  0
  -30.0481  -28.2142   26.2953 C   0  0  0  0  0  0  0  0  0  0  0  0
  -29.2159  -15.3328   17.3599 C   0  0  0  0  0  0  0  0  0  0  0  0
  -20.7459  -30.2104   21.7458 C   0  0  0  0  0  0  0  0  0  0  0  0
  -24.6960  -25.7528   25.3572 C   0  0  0  0  0  0  0  0  0  0  0  0
  -27.3354  -26.1370   24.0803 C   0  0  0  0  0  0  0  0  0  0  0  0
  -22.2612  -30.3292   21.8876 C   0  0  0  0  0  0  0  0  0  0  0  0
  -26.2762  -14.0870   15.7840 C   0  0  0  0  0  0  0  0  0  0  0  0
  -22.9536  -29.1377   21.2335 C   0  0  0  0  0  0  0  0  0  0  0  0
  -25.4891  -13.4493   16.9302 C   0  0  0  0  0  0  0  0  0  0  0  0
  -27.7807  -13.8856   15.9520 C   0  0  0  0  0  0  0  0  0  0  0  0
  -27.5363  -13.6893   18.3965 C   0  0  0  0  0  0  0  0  0  0  0  0
  -22.5472  -27.8234   21.9108 C   0  0  1  0  0  0  0  0  0  0  0  0
  -25.0644  -27.0535   24.6502 C   0  0  1  0  0  0  0  0  0  0  0  0
  -26.0176  -13.9144   18.3004 C   0  0  2  0  0  0  0  0  0  0  0  0
  -29.9967  -20.9516   16.6498 C   0  0  0  0  0  0  0  0  0  0  0  0
  -26.9328  -21.9891   18.5903 C   0  0  0  0  0  0  0  0  0  0  0  0
  -31.8654  -29.5613   27.3815 C   0  0  0  0  0  0  0  0  0  0  0  0
  -28.0061  -29.4375   22.0000 C   0  0  0  0  0  0  0  0  0  0  0  0
  -30.2362  -29.9215   23.0298 C   0  0  0  0  0  0  0  0  0  0  0  0
  -28.2153  -31.1695   23.7918 C   0  0  0  0  0  0  0  0  0  0  0  0
  -29.6761  -26.8394   28.8896 C   0  0  0  0  0  0  0  0  0  0  0  0
  -28.4293  -21.9695   18.8956 C   0  0  0  0  0  0  0  0  0  0  0  0
  -30.5735  -16.7260   18.9010 C   0  0  0  0  0  0  0  0  0  0  0  0
  -27.8054  -19.3407   22.2127 C   0  0  0  0  0  0  0  0  0  0  0  0
  -26.9874  -20.1217   23.2276 C   0  0  0  0  0  0  0  0  0  1  0  0
  -28.4892  -28.7408   24.4387 C   0  0  1  0  0  0  0  0  0  0  0  0
  -30.5803  -28.7782   27.6003 C   0  0  2  0  0  0  0  0  0  0  0  0
  -28.7252  -29.7914   23.3171 C   0  0  0  0  0  0  0  0  0  0  0  0
  -24.8049  -12.0025   19.2783 N   0  0  0  0  0  0  0  0  0  0  0  0
  -30.2574  -18.8586   17.8136 N   0  0  0  0  0  0  0  0  0  0  0  0
  -29.3023  -18.4656   19.9909 N   0  0  0  0  0  0  0  0  0  0  0  0
  -25.2696  -13.2527   19.4430 N   0  0  0  0  0  0  0  0  0  0  0  0
  -26.5116  -27.2583   24.5615 N   0  0  0  0  0  0  0  0  0  0  0  0
  -28.2179  -14.3483   17.2713 N   0  0  0  0  0  0  0  0  0  0  0  0
  -25.3917  -15.0325   21.0012 N   0  0  0  0  0  0  0  0  0  0  0  0
  -23.1172  -11.8391   23.2429 N   0  0  0  0  0  0  0  0  0  0  0  0
  -28.0693  -20.1543   21.0480 N   0  0  0  0  0  0  0  0  0  0  0  0
  -23.2538  -27.6607   23.1633 N   0  0  0  0  0  0  0  0  0  0  0  0
  -29.1362  -29.0639   25.7057 N   0  0  0  0  0  0  0  0  0  0  0  0
  -29.5671  -15.7192   18.6475 N   0  0  0  0  0  0  0  0  0  0  0  0
  -30.8593  -27.6771   28.5650 N   0  3  0  0  0  0  0  0  0  0  0  0
  -23.9513  -13.9711   23.3752 O   0  0  0  0  0  0  0  0  0  0  0  0
  -25.2118  -26.7273   22.3164 O   0  0  0  0  0  0  0  0  0  0  0  0
  -26.3609  -29.5092   25.1504 O   0  0  0  0  0  0  0  0  0  0  0  0
  -30.4083  -27.1300   25.8421 O   0  0  0  0  0  0  0  0  0  0  0  0
  -29.7502  -15.8344   16.3650 O   0  0  0  0  0  0  0  0  0  0  0  0
  -21.7602   -6.7927   21.3122 O   0  0  0  0  0  0  0  0  0  0  0  0
  -27.7153  -21.2795   23.6352 O   0  0  0  0  0  0  0  0  0  1  0  0
  -22.7341   -4.2587   26.1116 F   0  0  0  0  0  0  0  0  0  0  0  0
  -22.9343   -4.2909   21.3825 F   0  0  0  0  0  0  0  0  0  0  0  0
  1  2  1  0  0  0  0
  1  5  2  0  0  0  0
  2  6  2  0  0  0  0
  3  8  2  0  0  0  0
  3 15  1  0  0  0  0
  4  9  1  0  0  0  0
  4 15  2  0  0  0  0
  5 17  1  0  0  0  0
  6 19  1  0  0  0  0
  7 10  2  0  0  0  0
  7 18  1  0  0  0  0
  8 22  1  0  0  0  0
  9 22  2  0  0  0  0
 10 23  1  0  0  0  0
 11 12  2  0  0  0  0
 11 24  1  0  0  0  0
 12 25  1  0  0  0  0
 13 20  1  0  0  0  0
 13 23  2  0  0  0  0
 14 25  2  0  0  0  0
 14 26  1  0  0  0  0
 15 27  1  0  0  0  0
 16 27  1  0  0  0  0
 16 30  2  0  0  0  0
 16 32  1  0  0  0  0
 17 19  2  0  0  0  0
 17 37  1  0  0  0  0
 18 20  2  0  0  0  0
 18 38  1  0  0  0  0
 19 46  1  0  0  0  0
 20 39  1  0  0  0  0
 21 28  1  0  0  0  0
 21 29  2  0  0  0  0
 21 56  1  0  0  0  0
 22 81  1  0  0  0  0
 23 82  1  0  0  0  0
 24 26  2  0  0  0  0
 24 81  1  0  0  0  0
 25 83  1  0  0  0  0
 26 84  1  0  0  0  0
 27 63  2  0  0  0  0
 28 49  1  0  0  0  0
 28 64  2  0  0  0  0
 29 65  1  0  0  0  0
 29 71  1  0  0  0  0
 30 66  1  0  0  0  0
 30 69  1  0  0  0  0
 31 57  1  0  0  0  0
 31 64  1  0  0  0  0
 31 65  2  0  0  0  0
 32 70  1  0  0  0  0
 32 76  2  0  0  0  0
 33 47  1  0  0  0  0
 33 72  1  0  0  0  0
 33 77  2  0  0  0  0
 34 60  1  0  0  0  0
 34 67  1  0  0  0  0
 34 78  2  0  0  0  0
 35 61  1  0  0  0  0
 35 73  1  0  0  0  0
 35 79  2  0  0  0  0
 36 68  1  0  0  0  0
 36 74  1  0  0  0  0
 36 80  2  0  0  0  0
 37 40  1  0  0  0  0
 38 47  1  0  0  0  0
 39 67  1  0  0  0  0
 40 42  1  0  0  0  0
 41 43  1  0  0  0  0
 41 44  1  0  0  0  0
 42 46  1  0  0  0  0
 43 48  1  0  0  0  0
 44 68  1  0  0  0  0
 45 48  1  0  0  0  0
 45 68  1  0  0  0  0
 46 72  1  0  0  0  0
 47 67  1  0  0  0  0
 48 66  1  0  0  0  0
 50 56  1  0  0  0  0
 51 61  1  0  0  0  0
 52 62  1  0  0  0  0
 53 62  1  0  0  0  0
 54 62  1  0  0  0  0
 55 75  1  0  0  0  0
 57 74  1  0  0  0  0
 58 59  1  0  0  0  0
 58 71  1  0  0  0  0
 59 82  1  0  0  0  0
 60 62  1  0  0  0  0
 60 73  1  0  0  0  0
 61 75  1  0  0  0  0
 63 66  1  0  0  0  0
M  CHG  1  75   1
M  ISO  4  36 100  59 101  74 100  82 101
M  END
> <Batch ID>
0181

> <Smiles>
CCc1c(C)nc(C[100NH:0][100C:0](=O)N2CCCC(n3nc(-c4ccc(Oc5ccc(F)cc5F)cc4)c(C(N)=O)c3N)C2)nc1NC[101CH2:1][101O:1]c1ccc2c(c1)CN(C(=O)C(NC(=O)C(C)NC)C(C)(C)C)C(C(=O)NC1CCCc3ccccc31)C2

> <Shape>
0.232

> <Color>
0.107

> <Negative vol penalty>
0.000

$$$$

  -OEChem-04052323023D

 82 91  0     1  0  0  0  0  0999 V2000
  -20.1627  -23.7195   21.4276 C   0  0  0  0  0  0  0  0  0  0  0  0
  -21.5301  -23.9655   21.3554 C   0  0  0  0  0  0  0  0  0  0  0  0
  -24.0491  -13.0545   20.9455 C   0  0  0  0  0  0  0  0  0  0  0  0
  -26.4594  -12.9102   20.8633 C   0  0  0  0  0  0  0  0  0  0  0  0
  -19.2584  -24.7733   21.3025 C   0  0  0  0  0  0  0  0  0  0  0  0
  -21.9939  -25.2655   21.1568 C   0  0  0  0  0  0  0  0  0  0  0  0
  -25.8613  -26.4357   24.2095 C   0  0  0  0  0  0  0  0  0  0  0  0
  -23.9640  -11.6633   20.8923 C   0  0  0  0  0  0  0  0  0  0  0  0
  -26.3743  -11.5189   20.8101 C   0  0  0  0  0  0  0  0  0  0  0  0
  -27.1182  -25.9420   23.8627 C   0  0  0  0  0  0  0  0  0  0  0  0
  -24.3299   -9.0619   23.0211 C   0  0  0  0  0  0  0  0  0  0  0  0
  -23.4483   -8.4323   23.8997 C   0  0  0  0  0  0  0  0  0  0  0  0
  -30.0291  -23.4684   21.4729 C   0  0  0  0  0  0  0  0  0  0  0  0
  -27.6944  -28.0871   22.9215 C   0  0  0  0  0  0  0  0  0  0  0  0
  -22.2415   -7.5043   22.0237 C   0  0  0  0  0  0  0  0  0  0  0  0
  -29.4859  -24.5000   19.3999 C   0  0  0  0  0  0  0  0  0  0  0  0
  -25.2968  -13.6780   20.9310 C   0  0  0  0  0  0  0  0  0  0  0  0
  -25.4730  -15.9183   22.1382 C   0  0  0  0  0  0  0  0  0  0  0  0
  -19.7116  -26.0882   21.1119 C   0  0  0  0  0  0  0  0  0  0  0  0
  -25.5070  -27.7578   23.9047 C   0  0  0  0  0  0  0  0  0  0  0  0
  -21.0948  -26.3377   21.0277 C   0  0  0  0  0  0  0  0  0  0  0  0
  -30.0848  -24.5852   20.6464 C   0  0  0  0  0  0  0  0  0  0  0  0
  -26.4334  -28.5959   23.2678 C   0  0  0  0  0  0  0  0  0  0  0  0
  -29.3855  -22.3168   21.0337 C   0  0  0  0  0  0  0  0  0  0  0  0
  -25.1265  -10.8955   20.8246 C   0  0  0  0  0  0  0  0  0  0  0  0
  -28.0339  -26.7668   23.2160 C   0  0  0  0  0  0  0  0  0  0  0  0
  -24.1673   -8.9128   21.6438 C   0  0  0  0  0  0  0  0  0  0  0  0
  -22.4041   -7.6535   23.4010 C   0  0  0  0  0  0  0  0  0  0  0  0
  -23.1231   -8.1339   21.1451 C   0  0  0  0  0  0  0  0  0  0  0  0
  -25.3854  -15.1151   20.9854 C   0  0  0  0  0  0  0  0  0  0  0  0
  -28.8177  -22.3332   19.7699 C   0  0  0  0  0  0  0  0  0  0  0  0
  -25.5344  -17.2034   21.6574 C   0  0  0  0  0  0  0  0  0  0  0  0
  -25.4969  -15.5369   23.5201 C   0  0  0  0  0  0  0  0  0  0  0  0
  -23.2720  -29.1226   22.1030 C   0  0  0  0  0  0  0  0  0  0  0  0
  -24.4328  -31.8523   23.4159 C   0  0  0  0  0  0  0  0  0  0  0  0
  -27.0442  -33.4691   24.9038 C   0  0  0  0  0  0  0  0  0  0  0  0
  -27.5309  -20.9762   18.0820 C   0  0  0  0  0  0  0  0  0  0  0  0
  -18.6949  -27.1880   20.9348 C   0  0  0  0  0  0  0  0  0  0  0  0
  -24.1570  -28.2832   24.3094 C   0  0  0  0  0  0  0  0  0  0  0  0
  -26.1094  -30.0289   22.9364 C   0  0  0  0  0  0  0  0  0  0  0  0
  -19.2779  -28.5890   21.1012 C   0  0  0  0  0  0  0  0  0  0  0  0
  -24.7647  -19.0160   16.9943 C   0  0  0  0  0  0  0  0  0  0  0  0
  -20.5812  -28.7211   20.3197 C   0  0  0  0  0  0  0  0  0  0  0  0
  -24.6868  -17.8924   18.0306 C   0  0  0  0  0  0  0  0  0  0  0  0
  -31.9377  -26.3338   20.2576 C   0  0  0  0  0  0  0  0  0  0  0  0
  -32.1930  -25.7208   21.5988 C   0  0  0  0  0  0  0  0  0  0  0  0
  -26.2098  -19.4025   16.6844 C   0  0  0  0  0  0  0  0  0  0  0  0
  -26.9526  -18.6051   18.8939 C   0  0  0  0  0  0  0  0  0  0  0  0
  -21.6374  -27.7376   20.8380 C   0  0  1  0  0  0  0  0  0  0  0  0
  -23.7161  -29.4922   23.4901 C   0  0  1  0  0  0  0  0  0  0  0  0
  -25.5154  -18.2259   19.2867 C   0  0  2  0  0  0  0  0  0  0  0  0
  -30.7684  -25.8338   21.0866 C   0  0  0  0  0  0  0  0  0  0  0  0
  -29.3273  -21.1216   21.9228 C   0  0  0  0  0  0  0  0  0  0  0  0
  -27.7066  -35.7057   25.8292 C   0  0  0  0  0  0  0  0  0  0  0  0
  -24.7836  -32.9195   20.5790 C   0  0  0  0  0  0  0  0  0  0  0  0
  -26.2859  -34.6944   21.5071 C   0  0  0  0  0  0  0  0  0  0  0  0
  -23.8974  -34.5870   22.2188 C   0  0  0  0  0  0  0  0  0  0  0  0
  -27.4766  -32.3512   27.6097 C   0  0  0  0  0  0  0  0  0  0  0  0
  -29.8804  -26.8492   21.7194 C   0  0  0  0  0  0  0  0  0  1  0  0
  -25.5191  -32.8356   23.0525 C   0  0  1  0  0  0  0  0  0  0  0  0
  -27.1138  -34.3411   26.1444 C   0  0  2  0  0  0  0  0  0  0  0  0
  -25.1272  -33.7316   21.8437 C   0  0  0  0  0  0  0  0  0  0  0  0
  -28.8516  -23.3989   18.9386 N   0  0  0  0  0  0  0  0  0  0  0  0
  -25.3902  -15.8300   19.8572 N   0  0  0  0  0  0  0  0  0  0  0  0
  -25.4815  -17.0960   20.2988 N   0  0  0  0  0  0  0  0  0  0  0  0
  -24.7742  -30.4942   23.3469 N   0  0  0  0  0  0  0  0  0  0  0  0
  -26.9319  -19.7088   17.9212 N   0  0  0  0  0  0  0  0  0  0  0  0
  -25.6278  -18.4036   22.2684 N   0  0  0  0  0  0  0  0  0  0  0  0
  -25.4254  -14.1739   23.8384 N   0  0  0  0  0  0  0  0  0  0  0  0
  -28.1614  -21.1641   19.3116 N   0  0  0  0  0  0  0  0  0  0  0  0
  -22.2216  -28.2255   22.0689 N   0  0  0  0  0  0  0  0  0  0  0  0
  -25.8234  -33.5768   24.2717 N   0  0  0  0  0  0  0  0  0  0  0  0
  -27.9575  -33.6918   27.1873 N   0  3  0  0  0  0  0  0  0  0  0  0
  -25.5626  -16.3808   24.4459 O   0  0  0  0  0  0  0  0  0  0  0  0
  -23.8395  -29.6161   21.1354 O   0  0  0  0  0  0  0  0  0  0  0  0
  -23.3245  -32.2739   23.7557 O   0  0  0  0  0  0  0  0  0  0  0  0
  -27.9804  -32.7659   24.5305 O   0  0  0  0  0  0  0  0  0  0  0  0
  -27.4643  -21.8414   17.2051 O   0  0  0  0  0  0  0  0  0  0  0  0
  -25.0438   -9.5379   20.7728 O   0  0  0  0  0  0  0  0  0  0  0  0
  -29.2612  -26.2872   22.8758 O   0  0  0  0  0  0  0  0  0  1  0  0
  -21.5585   -7.0476   24.2449 F   0  0  0  0  0  0  0  0  0  0  0  0
  -22.9625   -7.9860   19.8229 F   0  0  0  0  0  0  0  0  0  0  0  0
  1  2  1  0  0  0  0
  1  5  2  0  0  0  0
  2  6  2  0  0  0  0
  3  8  2  0  0  0  0
  3 17  1  0  0  0  0
  4  9  1  0  0  0  0
  4 17  2  0  0  0  0
  5 19  1  0  0  0  0
  6 21  1  0  0  0  0
  7 10  2  0  0  0  0
  7 20  1  0  0  0  0
  8 25  1  0  0  0  0
  9 25  2  0  0  0  0
 10 26  1  0  0  0  0
 11 12  2  0  0  0  0
 11 27  1  0  0  0  0
 12 28  1  0  0  0  0
 13 22  2  0  0  0  0
 13 24  1  0  0  0  0
 14 23  1  0  0  0  0
 14 26  2  0  0  0  0
 15 28  2  0  0  0  0
 15 29  1  0  0  0  0
 16 22  1  0  0  0  0
 16 63  2  0  0  0  0
 17 30  1  0  0  0  0
 18 30  1  0  0  0  0
 18 32  2  0  0  0  0
 18 33  1  0  0  0  0
 19 21  2  0  0  0  0
 19 38  1  0  0  0  0
 20 23  2  0  0  0  0
 20 39  1  0  0  0  0
 21 49  1  0  0  0  0
 22 52  1  0  0  0  0
 23 40  1  0  0  0  0
 24 31  2  0  0  0  0
 24 53  1  0  0  0  0
 25 79  1  0  0  0  0
 26 80  1  0  0  0  0
 27 29  2  0  0  0  0
 27 79  1  0  0  0  0
 28 81  1  0  0  0  0
 29 82  1  0  0  0  0
 30 64  2  0  0  0  0
 31 63  1  0  0  0  0
 31 70  1  0  0  0  0
 32 65  1  0  0  0  0
 32 68  1  0  0  0  0
 33 69  1  0  0  0  0
 33 74  2  0  0  0  0
 34 50  1  0  0  0  0
 34 71  1  0  0  0  0
 34 75  2  0  0  0  0
 35 60  1  0  0  0  0
 35 66  1  0  0  0  0
 35 76  2  0  0  0  0
 36 61  1  0  0  0  0
 36 72  1  0  0  0  0
 36 77  2  0  0  0  0
 37 67  1  0  0  0  0
 37 70  1  0  0  0  0
 37 78  2  0  0  0  0
 38 41  1  0  0  0  0
 39 50  1  0  0  0  0
 40 66  1  0  0  0  0
 41 43  1  0  0  0  0
 42 44  1  0  0  0  0
 42 47  1  0  0  0  0
 43 49  1  0  0  0  0
 44 51  1  0  0  0  0
 45 46  1  0  0  0  0
 45 52  1  0  0  0  0
 46 52  1  0  0  0  0
 47 67  1  0  0  0  0
 48 51  1  0  0  0  0
 48 67  1  0  0  0  0
 49 71  1  0  0  0  0
 50 66  1  0  0  0  0
 51 65  1  0  0  0  0
 52 59  1  0  0  0  0
 54 61  1  0  0  0  0
 55 62  1  0  0  0  0
 56 62  1  0  0  0  0
 57 62  1  0  0  0  0
 58 73  1  0  0  0  0
 59 80  1  0  0  0  0
 60 62  1  0  0  0  0
 60 72  1  0  0  0  0
 61 73  1  0  0  0  0
 64 65  1  0  0  0  0
M  CHG  1  73   1
M  ISO  4  37 100  59 101  70 100  80 101
M  END
> <Batch ID>
0181

> <Smiles>
CNC(C)C(=O)NC(C(=O)N1Cc2cc([101O:1][101CH2:1]C3(c4cnc([100NH:0][100C:0](=O)N5CCCC(n6nc(-c7ccc(Oc8ccc(F)cc8F)cc7)c(C(N)=O)c6N)C5)c(C)c4)CC3)ccc2CC1C(=O)NC1CCCc2ccccc21)C(C)(C)C

> <Shape>
0.253

> <Color>
0.082

> <Negative vol penalty>
0.000

$$$$

  -OEChem-04052323023D

 79 87  0     1  0  0  0  0  0999 V2000
  -32.3291  -23.4298   10.0205 C   0  0  0  0  0  0  0  0  0  0  0  0
  -31.6741  -22.5448   10.8710 C   0  0  0  0  0  0  0  0  0  0  0  0
  -23.0943   -9.8061   19.9865 C   0  0  0  0  0  0  0  0  0  0  0  0
  -23.8197   -9.9037   22.2889 C   0  0  0  0  0  0  0  0  0  0  0  0
  -33.1019  -24.4619   10.5511 C   0  0  0  0  0  0  0  0  0  0  0  0
  -31.7925  -22.6908   12.2527 C   0  0  0  0  0  0  0  0  0  0  0  0
  -28.0788  -21.7451   18.3050 C   0  0  0  0  0  0  0  0  0  0  0  0
  -22.3540   -8.6580   20.2683 C   0  0  0  0  0  0  0  0  0  0  0  0
  -23.0794   -8.7556   22.5708 C   0  0  0  0  0  0  0  0  0  0  0  0
  -28.1882  -21.1286   19.5506 C   0  0  0  0  0  0  0  0  0  0  0  0
  -19.8477   -7.9587   23.1551 C   0  0  0  0  0  0  0  0  0  0  0  0
  -19.0735   -7.9572   24.3154 C   0  0  0  0  0  0  0  0  0  0  0  0
  -29.4860  -22.9965   20.3544 C   0  0  0  0  0  0  0  0  0  0  0  0
  -20.3160   -6.0571   25.1419 C   0  0  0  0  0  0  0  0  0  0  0  0
  -31.7811  -17.5808   21.5585 C   0  0  0  0  0  0  0  0  0  0  0  0
  -23.8272  -10.4289   20.9968 C   0  0  0  0  0  0  0  0  0  0  0  0
  -24.1548  -12.9502   20.7875 C   0  0  0  0  0  0  0  0  0  0  0  0
  -33.2220  -24.6264   11.9400 C   0  0  0  0  0  0  0  0  0  0  0  0
  -28.6824  -22.9891   18.0710 C   0  0  0  0  0  0  0  0  0  0  0  0
  -32.5687  -23.7252   12.8024 C   0  0  0  0  0  0  0  0  0  0  0  0
  -29.3805  -23.6279   19.1057 C   0  0  0  0  0  0  0  0  0  0  0  0
  -30.5281  -16.9949   21.8199 C   0  0  0  0  0  0  0  0  0  0  0  0
  -22.3466   -8.1327   21.5605 C   0  0  0  0  0  0  0  0  0  0  0  0
  -28.8944  -21.7529   20.5747 C   0  0  0  0  0  0  0  0  0  0  0  0
  -20.8559   -7.0093   22.9881 C   0  0  0  0  0  0  0  0  0  0  0  0
  -19.3077   -7.0064   25.3088 C   0  0  0  0  0  0  0  0  0  0  0  0
  -21.0901   -6.0585   23.9816 C   0  0  0  0  0  0  0  0  0  0  0  0
  -24.5925  -11.6146   20.7061 C   0  0  0  0  0  0  0  0  0  0  0  0
  -29.8654  -17.9266   22.5810 C   0  0  0  0  0  0  0  0  0  0  0  0
  -25.2475  -13.6931   20.4127 C   0  0  0  0  0  0  0  0  0  0  0  0
  -22.8750  -13.4725   21.1681 C   0  0  0  0  0  0  0  0  0  0  0  0
  -30.9419  -24.0514   16.1039 C   0  0  0  0  0  0  0  0  0  0  0  0
  -30.1060  -26.9363   17.3291 C   0  0  0  0  0  0  0  0  0  0  0  0
  -28.7251  -28.7006   19.9034 C   0  0  0  0  0  0  0  0  0  0  0  0
  -30.7037  -14.7821   20.6286 C   0  0  0  0  0  0  0  0  0  0  0  0
  -34.1067  -25.7284   12.4667 C   0  0  0  0  0  0  0  0  0  0  0  0
  -28.5324  -23.6533   16.7298 C   0  0  0  0  0  0  0  0  0  0  0  0
  -30.0297  -24.9731   18.9119 C   0  0  0  0  0  0  0  0  0  0  0  0
  -33.8774  -26.0405   13.9433 C   0  0  0  0  0  0  0  0  0  0  0  0
  -29.6403  -12.2739   18.3362 C   0  0  0  0  0  0  0  0  0  0  0  0
  -33.8195  -24.7525   14.7584 C   0  0  0  0  0  0  0  0  0  0  0  0
  -28.1962  -11.9887   18.7551 C   0  0  0  0  0  0  0  0  0  0  0  0
  -30.5358  -12.5537   19.5418 C   0  0  0  0  0  0  0  0  0  0  0  0
  -28.6038  -13.3161   20.8667 C   0  0  0  0  0  0  0  0  0  0  0  0
  -32.6527  -23.8658   14.3068 C   0  0  1  0  0  0  0  0  0  0  0  0
  -29.6224  -24.6827   16.4477 C   0  0  1  0  0  0  0  0  0  0  0  0
  -27.6498  -13.0923   19.6820 C   0  0  2  0  0  0  0  0  0  0  0  0
  -28.5152  -17.9191   23.1767 C   0  0  0  0  0  0  0  0  0  0  0  0
  -28.2158  -31.0467   20.6338 C   0  0  0  0  0  0  0  0  0  0  0  0
  -33.0512  -27.3635   18.0025 C   0  0  0  0  0  0  0  0  0  0  0  0
  -32.3597  -29.2183   19.5354 C   0  0  0  0  0  0  0  0  0  0  0  0
  -31.8861  -29.3803   17.0915 C   0  0  0  0  0  0  0  0  0  0  0  0
  -25.8180  -28.1579   20.0163 C   0  0  0  0  0  0  0  0  0  0  0  0
  -30.4815  -20.2572   23.4778 C   0  0  0  0  0  0  0  0  0  0  0  0
  -30.1816  -21.4277   22.5478 C   0  0  0  0  0  0  0  0  0  1  0  0
  -30.5517  -27.7667   18.5084 C   0  0  1  0  0  0  0  0  0  0  0  0
  -27.6891  -29.8099   19.9228 C   0  0  2  0  0  0  0  0  0  0  0  0
  -31.9517  -28.4060   18.2878 C   0  0  0  0  0  0  0  0  0  0  0  0
  -31.9092  -18.7911   22.1088 N   0  0  0  0  0  0  0  0  0  0  0  0
  -25.8640  -11.5120   20.3103 N   0  0  0  0  0  0  0  0  0  0  0  0
  -30.7281  -18.9733   22.7234 N   0  0  0  0  0  0  0  0  0  0  0  0
  -26.2347  -12.7924   20.1397 N   0  0  0  0  0  0  0  0  0  0  0  0
  -29.8603  -25.5791   17.5809 N   0  0  0  0  0  0  0  0  0  0  0  0
  -29.9572  -13.6127   20.3716 N   0  0  0  0  0  0  0  0  0  0  0  0
  -25.4506  -15.0223   20.2931 N   0  0  0  0  0  0  0  0  0  0  0  0
  -21.8639  -12.5696   21.5242 N   0  0  0  0  0  0  0  0  0  0  0  0
  -30.0383  -15.7326   21.4022 N   0  0  0  0  0  0  0  0  0  0  0  0
  -31.4030  -24.3648   14.8395 N   0  0  0  0  0  0  0  0  0  0  0  0
  -29.4859  -28.7322   18.7539 N   0  0  0  0  0  0  0  0  0  0  0  0
  -26.4555  -29.3543   20.6240 N   0  3  0  0  0  0  0  0  0  0  0  0
  -22.6301  -14.7027   21.1760 O   0  0  0  0  0  0  0  0  0  0  0  0
  -31.5010  -23.3344   16.9255 O   0  0  0  0  0  0  0  0  0  0  0  0
  -29.9736  -27.4737   16.2266 O   0  0  0  0  0  0  0  0  0  0  0  0
  -28.8498  -27.8895   20.8184 O   0  0  0  0  0  0  0  0  0  0  0  0
  -31.8386  -14.9410   20.1717 O   0  0  0  0  0  0  0  0  0  0  0  0
  -21.6241   -7.0126   21.8360 O   0  0  0  0  0  0  0  0  0  0  0  0
  -29.0033  -21.1530   21.7913 O   0  0  0  0  0  0  0  0  0  1  0  0
  -18.5652   -7.0061   26.4237 F   0  0  0  0  0  0  0  0  0  0  0  0
  -22.0581   -5.1447   23.8274 F   0  0  0  0  0  0  0  0  0  0  0  0
  1  2  1  0  0  0  0
  1  5  2  0  0  0  0
  2  6  2  0  0  0  0
  3  8  2  0  0  0  0
  3 16  1  0  0  0  0
  4  9  1  0  0  0  0
  4 16  2  0  0  0  0
  5 18  1  0  0  0  0
  6 20  1  0  0  0  0
  7 10  2  0  0  0  0
  7 19  1  0  0  0  0
  8 23  1  0  0  0  0
  9 23  2  0  0  0  0
 10 24  1  0  0  0  0
 11 12  2  0  0  0  0
 11 25  1  0  0  0  0
 12 26  1  0  0  0  0
 13 21  1  0  0  0  0
 13 24  2  0  0  0  0
 14 26  2  0  0  0  0
 14 27  1  0  0  0  0
 15 22  1  0  0  0  0
 15 59  2  0  0  0  0
 16 28  1  0  0  0  0
 17 28  1  0  0  0  0
 17 30  2  0  0  0  0
 17 31  1  0  0  0  0
 18 20  2  0  0  0  0
 18 36  1  0  0  0  0
 19 21  2  0  0  0  0
 19 37  1  0  0  0  0
 20 45  1  0  0  0  0
 21 38  1  0  0  0  0
 22 29  2  0  0  0  0
 22 67  1  0  0  0  0
 23 76  1  0  0  0  0
 24 77  1  0  0  0  0
 25 27  2  0  0  0  0
 25 76  1  0  0  0  0
 26 78  1  0  0  0  0
 27 79  1  0  0  0  0
 28 60  2  0  0  0  0
 29 48  1  0  0  0  0
 29 61  1  0  0  0  0
 30 62  1  0  0  0  0
 30 65  1  0  0  0  0
 31 66  1  0  0  0  0
 31 71  2  0  0  0  0
 32 46  1  0  0  0  0
 32 68  1  0  0  0  0
 32 72  2  0  0  0  0
 33 56  1  0  0  0  0
 33 63  1  0  0  0  0
 33 73  2  0  0  0  0
 34 57  1  0  0  0  0
 34 69  1  0  0  0  0
 34 74  2  0  0  0  0
 35 64  1  0  0  0  0
 35 67  1  0  0  0  0
 35 75  2  0  0  0  0
 36 39  1  0  0  0  0
 37 46  1  0  0  0  0
 38 63  1  0  0  0  0
 39 41  1  0  0  0  0
 40 42  1  0  0  0  0
 40 43  1  0  0  0  0
 41 45  1  0  0  0  0
 42 47  1  0  0  0  0
 43 64  1  0  0  0  0
 44 47  1  0  0  0  0
 44 64  1  0  0  0  0
 45 68  1  0  0  0  0
 46 63  1  0  0  0  0
 47 62  1  0  0  0  0
 49 57  1  0  0  0  0
 50 58  1  0  0  0  0
 51 58  1  0  0  0  0
 52 58  1  0  0  0  0
 53 70  1  0  0  0  0
 54 55  1  0  0  0  0
 54 61  1  0  0  0  0
 55 77  1  0  0  0  0
 56 58  1  0  0  0  0
 56 69  1  0  0  0  0
 57 70  1  0  0  0  0
 59 61  1  0  0  0  0
 60 62  1  0  0  0  0
M  CHG  1  70   1
M  ISO  4  35 100  55 101  67 100  77 101
M  END
> <Batch ID>
0181

> <Smiles>
CNC(C)C(=O)NC(C(=O)N1Cc2cc([101O:1][101CH2:1]Cn3ncc([100NH:0][100C:0](=O)N4CCCC(n5nc(-c6ccc(Oc7ccc(F)cc7F)cc6)c(C(N)=O)c5N)C4)c3C)ccc2CC1C(=O)NC1CCCc2ccccc21)C(C)(C)C

> <Shape>
0.285

> <Color>
0.198

> <Negative vol penalty>
0.000

$$$$

  -OEChem-04052323023D

 84 93  0     1  0  0  0  0  0999 V2000
  -18.4131  -24.6834   20.9763 C   0  0  0  0  0  0  0  0  0  0  0  0
  -19.7831  -24.5561   20.7712 C   0  0  0  0  0  0  0  0  0  0  0  0
  -25.8002  -13.4313   19.4191 C   0  0  0  0  0  0  0  0  0  0  0  0
  -25.2542  -13.2707   21.7671 C   0  0  0  0  0  0  0  0  0  0  0  0
  -17.9069  -25.8157   21.6131 C   0  0  0  0  0  0  0  0  0  0  0  0
  -20.6479  -25.5617   21.2017 C   0  0  0  0  0  0  0  0  0  0  0  0
  -24.7392  -23.7292   23.5570 C   0  0  0  0  0  0  0  0  0  0  0  0
  -24.9678  -12.3447   19.1511 C   0  0  0  0  0  0  0  0  0  0  0  0
  -24.4217  -12.1840   21.4992 C   0  0  0  0  0  0  0  0  0  0  0  0
  -25.7550  -23.2085   22.7565 C   0  0  0  0  0  0  0  0  0  0  0  0
  -24.7616   -8.8755   20.8917 C   0  0  0  0  0  0  0  0  0  0  0  0
  -24.8511   -7.7674   21.7340 C   0  0  0  0  0  0  0  0  0  0  0  0
  -26.9923  -25.2651   22.9993 C   0  0  0  0  0  0  0  0  0  0  0  0
  -30.2082  -21.8610   18.4189 C   0  0  0  0  0  0  0  0  0  0  0  0
  -22.5240   -8.0307   22.3276 C   0  0  0  0  0  0  0  0  0  0  0  0
  -25.9435  -13.8943   20.7271 C   0  0  0  0  0  0  0  0  0  0  0  0
  -26.4477  -16.3783   21.0152 C   0  0  0  0  0  0  0  0  0  0  0  0
  -18.7667  -26.8313   22.0603 C   0  0  0  0  0  0  0  0  0  0  0  0
  -24.8376  -25.0279   24.0767 C   0  0  0  0  0  0  0  0  0  0  0  0
  -20.1526  -26.7094   21.8439 C   0  0  0  0  0  0  0  0  0  0  0  0
  -25.9776  -25.7989   23.8083 C   0  0  0  0  0  0  0  0  0  0  0  0
  -31.1143  -20.9692   18.9974 C   0  0  0  0  0  0  0  0  0  0  0  0
  -24.2785  -11.7210   20.1911 C   0  0  0  0  0  0  0  0  0  0  0  0
  -26.8804  -23.9775   22.4751 C   0  0  0  0  0  0  0  0  0  0  0  0
  -23.5534   -9.5613   20.7673 C   0  0  0  0  0  0  0  0  0  0  0  0
  -29.0808  -22.2638   19.1245 C   0  0  0  0  0  0  0  0  0  0  0  0
  -23.7323   -7.3449   22.4520 C   0  0  0  0  0  0  0  0  0  0  0  0
  -22.4345   -9.1389   21.4852 C   0  0  0  0  0  0  0  0  0  0  0  0
  -26.8037  -15.0164   21.0046 C   0  0  0  0  0  0  0  0  0  0  0  0
  -30.8303  -20.4967   20.2827 C   0  0  0  0  0  0  0  0  0  0  0  0
  -28.8942  -21.7493   20.3949 C   0  0  0  0  0  0  0  0  0  0  0  0
  -27.6117  -17.0351   21.3317 C   0  0  0  0  0  0  0  0  0  0  0  0
  -25.1782  -16.9947   20.7618 C   0  0  0  0  0  0  0  0  0  0  0  0
  -23.1489  -27.7027   23.7645 C   0  0  0  0  0  0  0  0  0  0  0  0
  -25.1722  -28.7863   26.0567 C   0  0  0  0  0  0  0  0  0  0  0  0
  -28.1983  -28.5192   27.6118 C   0  0  0  0  0  0  0  0  0  0  0  0
  -33.1291  -17.5552   20.2164 C   0  0  0  0  0  0  0  0  0  0  0  0
  -18.1689  -28.0587   22.7012 C   0  0  0  0  0  0  0  0  0  0  0  0
  -23.7455  -25.5651   24.9605 C   0  0  0  0  0  0  0  0  0  0  0  0
  -32.3104  -20.4856   18.2206 C   0  0  0  0  0  0  0  0  0  0  0  0
  -26.1408  -27.1914   24.3587 C   0  0  0  0  0  0  0  0  0  0  0  0
  -31.7800  -19.5574   20.9731 C   0  0  0  0  0  0  0  0  0  0  0  0
  -19.1860  -28.9054   23.4620 C   0  0  0  0  0  0  0  0  0  0  0  0
  -32.0701  -15.3169   22.9747 C   0  0  0  0  0  0  0  0  0  0  0  0
  -20.4451  -29.1074   22.6248 C   0  0  0  0  0  0  0  0  0  0  0  0
  -30.5920  -15.0868   22.6598 C   0  0  0  0  0  0  0  0  0  0  0  0
  -33.3373  -19.7495   19.0822 C   0  0  0  0  0  0  0  0  0  0  0  0
  -32.8825  -15.6051   21.7150 C   0  0  0  0  0  0  0  0  0  0  0  0
  -30.8702  -16.4921   20.5831 C   0  0  0  0  0  0  0  0  0  0  0  0
  -21.1249  -27.7674   22.3187 C   0  0  1  0  0  0  0  0  0  0  0  0
  -23.7154  -27.0894   25.0137 C   0  0  1  0  0  0  0  0  0  0  0  0
  -30.0200  -16.2560   21.8391 C   0  0  1  0  0  0  0  0  0  0  0  0
  -27.5799  -25.4324   18.2954 C   0  0  0  0  0  0  0  0  0  0  0  0
  -29.5810  -29.5682   29.4243 C   0  0  0  0  0  0  0  0  0  0  0  0
  -25.8052  -31.1330   24.2122 C   0  0  0  0  0  0  0  0  0  0  0  0
  -27.8273  -31.5984   25.6132 C   0  0  0  0  0  0  0  0  0  0  0  0
  -25.5516  -31.7412   26.6247 C   0  0  0  0  0  0  0  0  0  0  0  0
  -28.2848  -26.0006   29.1635 C   0  0  0  0  0  0  0  0  0  0  0  0
  -27.6975  -22.1477   21.1945 C   0  0  0  0  0  0  0  0  0  1  0  0
  -28.7011  -24.4201   18.1957 C   0  0  0  0  0  0  0  0  0  0  0  0
  -26.5161  -29.4739   26.0583 C   0  0  1  0  0  0  0  0  0  0  0  0
  -28.5754  -28.4800   29.0817 C   0  0  2  0  0  0  0  0  0  0  0  0
  -26.4214  -30.9612   25.6150 C   0  0  0  0  0  0  0  0  0  0  0  0
  -28.0931  -14.8183   21.2914 N   0  0  0  0  0  0  0  0  0  0  0  0
  -29.7398  -20.8807   20.9911 N   0  0  0  0  0  0  0  0  0  0  0  0
  -28.5575  -16.0645   21.4852 N   0  0  0  0  0  0  0  0  0  0  0  0
  -25.0430  -27.6744   25.2124 N   0  0  0  0  0  0  0  0  0  0  0  0
  -32.6641  -18.8644   20.0292 N   0  0  0  0  0  0  0  0  0  0  0  0
  -32.2868  -16.6842   20.9276 N   0  0  0  0  0  0  0  0  0  0  0  0
  -27.9083  -18.3424   21.4909 N   0  0  0  0  0  0  0  0  0  0  0  0
  -24.0865  -16.1725   20.4509 N   0  0  0  0  0  0  0  0  0  0  0  0
  -21.8600  -27.2981   23.4736 N   0  0  0  0  0  0  0  0  0  0  0  0
  -27.0709  -29.2827   27.3940 N   0  0  0  0  0  0  0  0  0  0  0  0
  -29.1750  -27.1602   29.4276 N   0  3  0  0  0  0  0  0  0  0  0  0
  -25.0205  -18.2387   20.7934 O   0  0  0  0  0  0  0  0  0  0  0  0
  -23.8301  -28.4862   23.1135 O   0  0  0  0  0  0  0  0  0  0  0  0
  -24.2725  -29.2155   26.7833 O   0  0  0  0  0  0  0  0  0  0  0  0
  -28.8417  -27.9344   26.7432 O   0  0  0  0  0  0  0  0  0  0  0  0
  -34.2230  -17.1841   19.7742 O   0  0  0  0  0  0  0  0  0  0  0  0
  -23.4659  -10.6608   19.9300 O   0  0  0  0  0  0  0  0  0  0  0  0
  -27.8801  -23.4684   21.6879 O   0  0  0  0  0  0  0  0  0  1  0  0
  -28.2013  -23.1342   18.5662 O   0  0  0  0  0  0  0  0  0  0  0  0
  -23.8179   -6.2798   23.2597 F   0  0  0  0  0  0  0  0  0  0  0  0
  -21.2707   -9.7930   21.3690 F   0  0  0  0  0  0  0  0  0  0  0  0
  1  2  1  0  0  0  0
  1  5  2  0  0  0  0
  2  6  2  0  0  0  0
  3  8  2  0  0  0  0
  3 16  1  0  0  0  0
  4  9  1  0  0  0  0
  4 16  2  0  0  0  0
  5 18  1  0  0  0  0
  6 20  1  0  0  0  0
  7 10  2  0  0  0  0
  7 19  1  0  0  0  0
  8 23  1  0  0  0  0
  9 23  2  0  0  0  0
 10 24  1  0  0  0  0
 11 12  2  0  0  0  0
 11 25  1  0  0  0  0
 12 27  1  0  0  0  0
 13 21  1  0  0  0  0
 13 24  2  0  0  0  0
 14 22  2  0  0  0  0
 14 26  1  0  0  0  0
 15 27  2  0  0  0  0
 15 28  1  0  0  0  0
 16 29  1  0  0  0  0
 17 29  1  0  0  0  0
 17 32  2  0  0  0  0
 17 33  1  0  0  0  0
 18 20  2  0  0  0  0
 18 38  1  0  0  0  0
 19 21  2  0  0  0  0
 19 39  1  0  0  0  0
 20 50  1  0  0  0  0
 21 41  1  0  0  0  0
 22 30  1  0  0  0  0
 22 40  1  0  0  0  0
 23 80  1  0  0  0  0
 24 81  1  0  0  0  0
 25 28  2  0  0  0  0
 25 80  1  0  0  0  0
 26 31  2  0  0  0  0
 26 82  1  0  0  0  0
 27 83  1  0  0  0  0
 28 84  1  0  0  0  0
 29 64  2  0  0  0  0
 30 42  1  0  0  0  0
 30 65  2  0  0  0  0
 31 59  1  0  0  0  0
 31 65  1  0  0  0  0
 32 66  1  0  0  0  0
 32 70  1  0  0  0  0
 33 71  1  0  0  0  0
 33 75  2  0  0  0  0
 34 51  1  0  0  0  0
 34 72  1  0  0  0  0
 34 76  2  0  0  0  0
 35 61  1  0  0  0  0
 35 67  1  0  0  0  0
 35 77  2  0  0  0  0
 36 62  1  0  0  0  0
 36 73  1  0  0  0  0
 36 78  2  0  0  0  0
 37 68  1  0  0  0  0
 37 69  1  0  0  0  0
 37 79  2  0  0  0  0
 38 43  1  0  0  0  0
 39 51  1  0  0  0  0
 40 47  1  0  0  0  0
 41 67  1  0  0  0  0
 42 68  1  0  0  0  0
 43 45  1  0  0  0  0
 44 46  1  0  0  0  0
 44 48  1  0  0  0  0
 45 50  1  0  0  0  0
 46 52  1  0  0  0  0
 47 68  1  0  0  0  0
 48 69  1  0  0  0  0
 49 52  1  0  0  0  0
 49 69  1  0  0  0  0
 50 72  1  0  0  0  0
 51 67  1  0  0  0  0
 52 66  1  0  0  0  0
 53 60  1  0  0  0  0
 54 62  1  0  0  0  0
 55 63  1  0  0  0  0
 56 63  1  0  0  0  0
 57 63  1  0  0  0  0
 58 74  1  0  0  0  0
 59 81  1  0  0  0  0
 60 82  1  0  0  0  0
 61 63  1  0  0  0  0
 61 73  1  0  0  0  0
 62 74  1  0  0  0  0
 64 66  1  0  0  0  0
M  CHG  1  74   1
M  ISO  4  37 100  59 101  68 100  81 101
M  END
> <Batch ID>
0181

> <Smiles>
CCOc1cc2c(nc1[101CH2:1][101O:1]c1ccc3c(c1)CN(C(=O)C(NC(=O)C(C)NC)C(C)(C)C)C(C(=O)NC1CCCc4ccccc41)C3)C[100N:0]([100C:0](=O)N1CCCC(n3nc(-c4ccc(Oc5ccc(F)cc5F)cc4)c(C(N)=O)c3N)C1)CC2

> <Shape>
0.237

> <Color>
0.090

> <Negative vol penalty>
0.000

$$$$

  -OEChem-04052323023D

 81 90  0     1  0  0  0  0  0999 V2000
  -26.8775  -24.7410   16.0419 C   0  0  0  0  0  0  0  0  0  0  0  0
  -25.8877  -25.6246   16.4572 C   0  0  0  0  0  0  0  0  0  0  0  0
  -25.1570  -18.8483   21.3467 C   0  0  0  0  0  0  0  0  0  0  0  0
  -23.9213  -17.8654   19.5181 C   0  0  0  0  0  0  0  0  0  0  0  0
  -27.9694  -24.4851   16.8686 C   0  0  0  0  0  0  0  0  0  0  0  0
  -25.9954  -26.2617   17.6939 C   0  0  0  0  0  0  0  0  0  0  0  0
  -22.6592  -29.7286   18.7203 C   0  0  0  0  0  0  0  0  0  0  0  0
  -25.8892  -17.6693   21.4857 C   0  0  0  0  0  0  0  0  0  0  0  0
  -24.6535  -16.6863   19.6570 C   0  0  0  0  0  0  0  0  0  0  0  0
  -21.3287  -29.4314   19.0122 C   0  0  0  0  0  0  0  0  0  0  0  0
  -24.6651  -13.9860   21.6915 C   0  0  0  0  0  0  0  0  0  0  0  0
  -23.9642  -12.7805   21.6609 C   0  0  0  0  0  0  0  0  0  0  0  0
  -21.7627  -29.8169   21.3536 C   0  0  0  0  0  0  0  0  0  0  0  0
  -25.2461  -12.0841   19.7350 C   0  0  0  0  0  0  0  0  0  0  0  0
  -24.1730  -18.9464   20.3629 C   0  0  0  0  0  0  0  0  0  0  0  0
  -23.9170  -21.4476   19.9315 C   0  0  0  0  0  0  0  0  0  0  0  0
  -28.0835  -25.1102   18.1213 C   0  0  0  0  0  0  0  0  0  0  0  0
  -23.5556  -30.0622   19.7458 C   0  0  0  0  0  0  0  0  0  0  0  0
  -27.1019  -26.0348   18.5322 C   0  0  0  0  0  0  0  0  0  0  0  0
  -23.1034  -30.1205   21.0718 C   0  0  0  0  0  0  0  0  0  0  0  0
  -25.6375  -16.5883   20.6409 C   0  0  0  0  0  0  0  0  0  0  0  0
  -20.8810  -29.4727   20.3294 C   0  0  0  0  0  0  0  0  0  0  0  0
  -25.6565  -14.2407   20.7438 C   0  0  0  0  0  0  0  0  0  0  0  0
  -24.2547  -11.8295   20.6827 C   0  0  0  0  0  0  0  0  0  0  0  0
  -25.9470  -13.2897   19.7656 C   0  0  0  0  0  0  0  0  0  0  0  0
  -23.4159  -20.1638   20.2192 C   0  0  0  0  0  0  0  0  0  0  0  0
  -22.8039  -22.2517   19.9007 C   0  0  0  0  0  0  0  0  0  0  0  0
  -16.1583  -26.9010   22.9496 C   0  0  0  0  0  0  0  0  0  0  0  0
  -25.2678  -21.8749   19.7117 C   0  0  0  0  0  0  0  0  0  0  0  0
  -26.2374  -28.7898   20.8828 C   0  0  0  0  0  0  0  0  0  0  0  0
  -26.2902  -31.4844   22.6880 C   0  0  0  0  0  0  0  0  0  0  0  0
  -24.5507  -34.0511   24.1137 C   0  0  0  0  0  0  0  0  0  0  0  0
  -17.9844  -23.6461   22.5834 C   0  0  0  0  0  0  0  0  0  0  0  0
  -29.2903  -24.8027   18.9724 C   0  0  0  0  0  0  0  0  0  0  0  0
  -24.9811  -30.4062   19.4113 C   0  0  0  0  0  0  0  0  0  0  0  0
  -24.0208  -30.4927   22.2068 C   0  0  0  0  0  0  0  0  0  0  0  0
  -29.0952  -25.1776   20.4379 C   0  0  0  0  0  0  0  0  0  0  0  0
  -17.8883  -21.1044   19.8825 C   0  0  0  0  0  0  0  0  0  0  0  0
  -28.5632  -26.5989   20.5445 C   0  0  0  0  0  0  0  0  0  0  0  0
  -19.3545  -20.6901   19.7700 C   0  0  0  0  0  0  0  0  0  0  0  0
  -18.3406  -26.5818   20.7135 C   0  0  0  0  0  0  0  0  0  0  0  0
  -17.5444  -21.5944   21.2855 C   0  0  0  0  0  0  0  0  0  0  0  0
  -19.1940  -25.4386   21.2582 C   0  0  0  0  0  0  0  0  0  0  0  0
  -18.4254  -25.8785   23.5628 C   0  0  0  0  0  0  0  0  0  0  0  0
  -19.8924  -22.2802   21.6579 C   0  0  0  0  0  0  0  0  0  0  0  0
  -16.8349  -28.5059   21.3545 C   0  0  0  0  0  0  0  0  0  0  0  0
  -27.1825  -26.7160   19.8864 C   0  0  1  0  0  0  0  0  0  0  0  0
  -17.6530  -27.1158   23.1228 C   0  0  1  0  0  0  0  0  0  0  0  0
  -25.9308  -30.2318   20.5924 C   0  0  1  0  0  0  0  0  0  0  0  0
  -20.2811  -21.8229   20.2438 C   0  0  1  0  0  0  0  0  0  0  0  0
  -18.0774  -27.6983   21.7532 C   0  0  1  0  0  0  0  0  0  0  0  0
  -24.1679  -36.1964   25.3581 C   0  0  0  0  0  0  0  0  0  0  0  0
  -26.5549  -29.6869   25.1393 C   0  0  0  0  0  0  0  0  0  0  0  0
  -25.9101  -31.6457   26.5590 C   0  0  0  0  0  0  0  0  0  0  0  0
  -27.9913  -31.7335   25.1865 C   0  0  0  0  0  0  0  0  0  0  0  0
  -24.7901  -35.6624   21.6427 C   0  0  0  0  0  0  0  0  0  0  0  0
  -19.3039  -28.6074   21.8850 C   0  0  0  0  0  0  0  0  0  1  0  0
  -25.7430  -31.8769   24.0391 C   0  0  1  0  0  0  0  0  0  0  0  0
  -24.8028  -35.5479   24.1378 C   0  0  2  0  0  0  0  0  0  0  0  0
  -26.5328  -31.2268   25.2100 C   0  0  0  0  0  0  0  0  0  0  0  0
  -22.0879  -20.1486   20.3612 N   0  0  0  0  0  0  0  0  0  0  0  0
  -21.7451  -21.4327   20.1620 N   0  0  0  0  0  0  0  0  0  0  0  0
  -15.7466  -27.7607   21.9339 N   0  0  0  0  0  0  0  0  0  0  0  0
  -25.4070  -30.8144   21.8296 N   0  0  0  0  0  0  0  0  0  0  0  0
  -18.4674  -22.6373   21.7333 N   0  0  0  0  0  0  0  0  0  0  0  0
  -18.5971  -24.9049   22.4869 N   0  0  0  0  0  0  0  0  0  0  0  0
  -22.6374  -23.5723   19.6759 N   0  0  0  0  0  0  0  0  0  0  0  0
  -26.0236  -22.2949   20.8148 N   0  0  0  0  0  0  0  0  0  0  0  0
  -26.8069  -28.1112   19.8223 N   0  0  0  0  0  0  0  0  0  0  0  0
  -25.7283  -33.3355   24.0655 N   0  0  0  0  0  0  0  0  0  0  0  0
  -24.2366  -36.1883   22.9171 N   0  3  0  0  0  0  0  0  0  0  0  0
  -15.4539  -26.1563   23.6130 O   0  0  0  0  0  0  0  0  0  0  0  0
  -25.7839  -21.8996   18.5687 O   0  0  0  0  0  0  0  0  0  0  0  0
  -25.9780  -28.3276   21.9876 O   0  0  0  0  0  0  0  0  0  0  0  0
  -27.4561  -31.7682   22.4021 O   0  0  0  0  0  0  0  0  0  0  0  0
  -23.4220  -33.5653   24.1391 O   0  0  0  0  0  0  0  0  0  0  0  0
  -17.0601  -23.4314   23.3774 O   0  0  0  0  0  0  0  0  0  0  0  0
  -26.3520  -15.4377   20.7760 O   0  0  0  0  0  0  0  0  0  0  0  0
  -19.5703  -29.1796   20.6200 O   0  0  0  0  0  0  0  0  0  1  0  0
  -23.5826  -10.6712   20.6543 F   0  0  0  0  0  0  0  0  0  0  0  0
  -26.8991  -13.5282   18.8533 F   0  0  0  0  0  0  0  0  0  0  0  0
  1  2  1  0  0  0  0
  1  5  2  0  0  0  0
  2  6  2  0  0  0  0
  3  8  2  0  0  0  0
  3 15  1  0  0  0  0
  4  9  1  0  0  0  0
  4 15  2  0  0  0  0
  5 17  1  0  0  0  0
  6 19  1  0  0  0  0
  7 10  2  0  0  0  0
  7 18  1  0  0  0  0
  8 21  1  0  0  0  0
  9 21  2  0  0  0  0
 10 22  1  0  0  0  0
 11 12  2  0  0  0  0
 11 23  1  0  0  0  0
 12 24  1  0  0  0  0
 13 20  1  0  0  0  0
 13 22  2  0  0  0  0
 14 24  2  0  0  0  0
 14 25  1  0  0  0  0
 15 26  1  0  0  0  0
 16 26  1  0  0  0  0
 16 27  2  0  0  0  0
 16 29  1  0  0  0  0
 17 19  2  0  0  0  0
 17 34  1  0  0  0  0
 18 20  2  0  0  0  0
 18 35  1  0  0  0  0
 19 47  1  0  0  0  0
 20 36  1  0  0  0  0
 21 78  1  0  0  0  0
 22 79  1  0  0  0  0
 23 25  2  0  0  0  0
 23 78  1  0  0  0  0
 24 80  1  0  0  0  0
 25 81  1  0  0  0  0
 26 61  2  0  0  0  0
 27 62  1  0  0  0  0
 27 67  1  0  0  0  0
 28 48  1  0  0  0  0
 28 63  1  0  0  0  0
 28 72  2  0  0  0  0
 29 68  1  0  0  0  0
 29 73  2  0  0  0  0
 30 49  1  0  0  0  0
 30 69  1  0  0  0  0
 30 74  2  0  0  0  0
 31 58  1  0  0  0  0
 31 64  1  0  0  0  0
 31 75  2  0  0  0  0
 32 59  1  0  0  0  0
 32 70  1  0  0  0  0
 32 76  2  0  0  0  0
 33 65  1  0  0  0  0
 33 66  1  0  0  0  0
 33 77  2  0  0  0  0
 34 37  1  0  0  0  0
 35 49  1  0  0  0  0
 36 64  1  0  0  0  0
 37 39  1  0  0  0  0
 38 40  1  0  0  0  0
 38 42  1  0  0  0  0
 39 47  1  0  0  0  0
 40 50  1  0  0  0  0
 41 43  1  0  0  0  0
 41 51  1  0  0  0  0
 42 65  1  0  0  0  0
 43 66  1  0  0  0  0
 44 48  1  0  0  0  0
 44 66  1  0  0  0  0
 45 50  1  0  0  0  0
 45 65  1  0  0  0  0
 46 51  1  0  0  0  0
 46 63  1  0  0  0  0
 47 69  1  0  0  0  0
 48 51  1  0  0  0  0
 49 64  1  0  0  0  0
 50 62  1  0  0  0  0
 51 57  1  0  0  0  0
 52 59  1  0  0  0  0
 53 60  1  0  0  0  0
 54 60  1  0  0  0  0
 55 60  1  0  0  0  0
 56 71  1  0  0  0  0
 57 79  1  0  0  0  0
 58 60  1  0  0  0  0
 58 70  1  0  0  0  0
 59 71  1  0  0  0  0
 61 62  1  0  0  0  0
M  CHG  1  71   1
M  ISO  4  33 100  57 101  66 100  79 101
M  END
> <Batch ID>
0181

> <Smiles>
CNC(C)C(=O)NC(C(=O)N1Cc2cc([101O:1][101CH2:1]C34CC[100N:0]([100C:0](=O)N5CCCC(n6nc(-c7ccc(Oc8ccc(F)cc8F)cc7)c(C(N)=O)c6N)C5)CC3C(=O)NC4)ccc2CC1C(=O)NC1CCCc2ccccc21)C(C)(C)C

> <Shape>
0.257

> <Color>
0.071

> <Negative vol penalty>
0.000

$$$$

  -OEChem-04052323023D

 89 99  0     1  0  0  0  0  0999 V2000
  -12.9635  -26.7704   14.6174 C   0  0  0  0  0  0  0  0  0  0  0  0
  -14.0053  -25.8494   14.5759 C   0  0  0  0  0  0  0  0  0  0  0  0
  -23.1960   -9.8140   19.9276 C   0  0  0  0  0  0  0  0  0  0  0  0
  -23.5372  -10.0057   22.3117 C   0  0  0  0  0  0  0  0  0  0  0  0
  -13.0095  -27.8331   15.5188 C   0  0  0  0  0  0  0  0  0  0  0  0
  -15.0944  -25.9912   15.4351 C   0  0  0  0  0  0  0  0  0  0  0  0
  -18.3453  -21.4969   18.0310 C   0  0  0  0  0  0  0  0  0  0  0  0
  -22.4236   -8.6704   20.1301 C   0  0  0  0  0  0  0  0  0  0  0  0
  -22.7647   -8.8620   22.5142 C   0  0  0  0  0  0  0  0  0  0  0  0
  -19.5644  -20.9081   17.6978 C   0  0  0  0  0  0  0  0  0  0  0  0
  -21.1818   -5.7879   23.6341 C   0  0  0  0  0  0  0  0  0  0  0  0
  -21.6618   -4.8314   24.5287 C   0  0  0  0  0  0  0  0  0  0  0  0
  -20.6888  -22.3718   19.2510 C   0  0  0  0  0  0  0  0  0  0  0  0
  -23.6414   -4.5554   23.1715 C   0  0  0  0  0  0  0  0  0  0  0  0
  -24.7640  -17.5082   17.2535 C   0  0  0  0  0  0  0  0  0  0  0  0
  -23.7528  -10.4817   21.0184 C   0  0  0  0  0  0  0  0  0  0  0  0
  -24.1018  -12.9962   20.7672 C   0  0  0  0  0  0  0  0  0  0  0  0
  -14.0951  -27.9826   16.3961 C   0  0  0  0  0  0  0  0  0  0  0  0
  -18.2901  -22.5367   18.9702 C   0  0  0  0  0  0  0  0  0  0  0  0
  -15.1556  -27.0577   16.3481 C   0  0  0  0  0  0  0  0  0  0  0  0
  -19.4675  -22.9704   19.5962 C   0  0  0  0  0  0  0  0  0  0  0  0
  -25.7825  -18.1462   16.5615 C   0  0  0  0  0  0  0  0  0  0  0  0
  -25.5319  -19.3941   15.9699 C   0  0  0  0  0  0  0  0  0  0  0  0
  -24.2355  -19.9271   16.0836 C   0  0  0  0  0  0  0  0  0  0  0  0
  -22.2079   -8.1944   21.4234 C   0  0  0  0  0  0  0  0  0  0  0  0
  -20.7367  -21.3475   18.3057 C   0  0  0  0  0  0  0  0  0  0  0  0
  -21.9316   -6.1282   22.5081 C   0  0  0  0  0  0  0  0  0  0  0  0
  -22.8916   -4.2152   24.2974 C   0  0  0  0  0  0  0  0  0  0  0  0
  -23.1614   -5.5119   22.2769 C   0  0  0  0  0  0  0  0  0  0  0  0
  -24.5513  -11.6628   20.8099 C   0  0  0  0  0  0  0  0  0  0  0  0
  -23.2915  -19.2026   16.8130 C   0  0  0  0  0  0  0  0  0  0  0  0
  -25.2384  -13.7348   20.5460 C   0  0  0  0  0  0  0  0  0  0  0  0
  -22.7754  -13.5203   20.9145 C   0  0  0  0  0  0  0  0  0  0  0  0
  -17.3968  -25.5862   18.8907 C   0  0  0  0  0  0  0  0  0  0  0  0
  -17.9055  -25.4139   22.0898 C   0  0  0  0  0  0  0  0  0  0  0  0
  -19.4885  -23.8762   24.6930 C   0  0  0  0  0  0  0  0  0  0  0  0
  -30.0213  -14.6620   18.0604 C   0  0  0  0  0  0  0  0  0  0  0  0
  -14.1229  -29.1741   17.3203 C   0  0  0  0  0  0  0  0  0  0  0  0
  -16.9638  -23.1432   19.3383 C   0  0  0  0  0  0  0  0  0  0  0  0
  -23.8448  -21.2571   15.5029 C   0  0  0  0  0  0  0  0  0  0  0  0
  -19.4596  -24.0695   20.6259 C   0  0  0  0  0  0  0  0  0  0  0  0
  -15.1350  -29.0411   18.4553 C   0  0  0  0  0  0  0  0  0  0  0  0
  -24.7974  -21.7319   14.4142 C   0  0  0  0  0  0  0  0  0  0  0  0
  -30.1149  -12.4256   20.6950 C   0  0  0  0  0  0  0  0  0  0  0  0
  -16.4766  -28.5514   17.9196 C   0  0  0  0  0  0  0  0  0  0  0  0
  -28.6408  -12.1271   20.9685 C   0  0  0  0  0  0  0  0  0  0  0  0
  -26.2373  -21.5946   14.8903 C   0  0  0  0  0  0  0  0  0  0  0  0
  -28.0548  -17.7653   17.6152 C   0  0  0  0  0  0  0  0  0  0  0  0
  -26.8814  -15.8680   16.4218 C   0  0  0  0  0  0  0  0  0  0  0  0
  -30.3902  -12.4924   19.1970 C   0  0  0  0  0  0  0  0  0  0  0  0
  -29.3617  -16.9804   17.5292 C   0  0  0  0  0  0  0  0  0  0  0  0
  -28.2141  -15.1272   16.3612 C   0  0  0  0  0  0  0  0  0  0  0  0
  -28.0658  -13.1983   18.7355 C   0  0  0  0  0  0  0  0  0  0  0  0
  -27.0955  -17.3911   16.4722 C   0  0  0  0  0  0  0  0  0  0  0  0
  -16.3424  -27.1636   17.2812 C   0  0  1  0  0  0  0  0  0  0  0  0
  -17.0907  -24.5440   19.9290 C   0  0  1  0  0  0  0  0  0  0  0  0
  -27.7299  -13.1300   20.2387 C   0  0  1  0  0  0  0  0  0  0  0  0
  -26.6275  -20.1212   15.1828 C   0  0  0  0  0  0  0  0  0  0  0  0
  -26.8619  -19.3723   13.8529 C   0  0  0  0  0  0  0  0  0  0  0  0
  -27.9605  -20.1573   15.9641 C   0  0  0  0  0  0  0  0  0  0  0  0
  -19.7355  -23.9824   27.1880 C   0  0  0  0  0  0  0  0  0  0  0  0
  -19.7349  -27.8390   21.8031 C   0  0  0  0  0  0  0  0  0  0  0  0
  -20.6671  -27.3161   24.0671 C   0  0  0  0  0  0  0  0  0  0  0  0
  -18.2510  -27.8837   23.8157 C   0  0  0  0  0  0  0  0  0  0  0  0
  -18.3929  -21.1482   25.0338 C   0  0  0  0  0  0  0  0  0  0  0  0
  -21.9062  -19.7301   17.0126 C   0  0  0  0  0  0  0  0  0  1  0  0
  -19.0895  -25.6431   22.9979 C   0  0  1  0  0  0  0  0  0  0  0  0
  -18.9720  -23.3659   26.0261 C   0  0  2  0  0  0  0  0  0  0  0  0
  -19.4364  -27.1511   23.1501 C   0  0  0  0  0  0  0  0  0  0  0  0
  -23.5223  -18.0086   17.3991 N   0  0  0  0  0  0  0  0  0  0  0  0
  -25.8706  -11.5575   20.6301 N   0  0  0  0  0  0  0  0  0  0  0  0
  -26.2598  -12.8340   20.4722 N   0  0  0  0  0  0  0  0  0  0  0  0
  -18.1389  -24.6352   20.9474 N   0  0  0  0  0  0  0  0  0  0  0  0
  -29.5012  -13.4503   18.5400 N   0  0  0  0  0  0  0  0  0  0  0  0
  -29.1152  -15.5414   17.4452 N   0  0  0  0  0  0  0  0  0  0  0  0
  -25.4538  -15.0605   20.4093 N   0  0  0  0  0  0  0  0  0  0  0  0
  -21.7228  -12.6218   21.1366 N   0  0  0  0  0  0  0  0  0  0  0  0
  -16.2759  -26.1413   18.3034 N   0  0  0  0  0  0  0  0  0  0  0  0
  -18.7757  -24.9723   24.2548 N   0  0  0  0  0  0  0  0  0  0  0  0
  -19.1139  -21.8845   26.1038 N   0  3  0  0  0  0  0  0  0  0  0  0
  -22.5284  -14.7475   20.8346 O   0  0  0  0  0  0  0  0  0  0  0  0
  -18.5634  -25.8670   18.6421 O   0  0  0  0  0  0  0  0  0  0  0  0
  -16.8121  -25.9016   22.3869 O   0  0  0  0  0  0  0  0  0  0  0  0
  -20.4323  -23.3570   24.1014 O   0  0  0  0  0  0  0  0  0  0  0  0
  -31.2198  -14.9459   18.1782 O   0  0  0  0  0  0  0  0  0  0  0  0
  -21.4541   -7.0785   21.6213 O   0  0  0  0  0  0  0  0  0  0  0  0
  -21.9368  -20.7708   17.9795 O   0  0  0  0  0  0  0  0  0  1  0  0
  -23.3531   -3.2978   25.1574 F   0  0  0  0  0  0  0  0  0  0  0  0
  -23.8868   -5.8355   21.1975 F   0  0  0  0  0  0  0  0  0  0  0  0
  1  2  1  0  0  0  0
  1  5  2  0  0  0  0
  2  6  2  0  0  0  0
  3  8  2  0  0  0  0
  3 16  1  0  0  0  0
  4  9  1  0  0  0  0
  4 16  2  0  0  0  0
  5 18  1  0  0  0  0
  6 20  1  0  0  0  0
  7 10  2  0  0  0  0
  7 19  1  0  0  0  0
  8 25  1  0  0  0  0
  9 25  2  0  0  0  0
 10 26  1  0  0  0  0
 11 12  2  0  0  0  0
 11 27  1  0  0  0  0
 12 28  1  0  0  0  0
 13 21  1  0  0  0  0
 13 26  2  0  0  0  0
 14 28  2  0  0  0  0
 14 29  1  0  0  0  0
 15 22  1  0  0  0  0
 15 70  2  0  0  0  0
 16 30  1  0  0  0  0
 17 30  1  0  0  0  0
 17 32  2  0  0  0  0
 17 33  1  0  0  0  0
 18 20  2  0  0  0  0
 18 38  1  0  0  0  0
 19 21  2  0  0  0  0
 19 39  1  0  0  0  0
 20 55  1  0  0  0  0
 21 41  1  0  0  0  0
 22 23  2  0  0  0  0
 22 54  1  0  0  0  0
 23 24  1  0  0  0  0
 23 58  1  0  0  0  0
 24 31  2  0  0  0  0
 24 40  1  0  0  0  0
 25 86  1  0  0  0  0
 26 87  1  0  0  0  0
 27 29  2  0  0  0  0
 27 86  1  0  0  0  0
 28 88  1  0  0  0  0
 29 89  1  0  0  0  0
 30 71  2  0  0  0  0
 31 66  1  0  0  0  0
 31 70  1  0  0  0  0
 32 72  1  0  0  0  0
 32 76  1  0  0  0  0
 33 77  1  0  0  0  0
 33 81  2  0  0  0  0
 34 56  1  0  0  0  0
 34 78  1  0  0  0  0
 34 82  2  0  0  0  0
 35 67  1  0  0  0  0
 35 73  1  0  0  0  0
 35 83  2  0  0  0  0
 36 68  1  0  0  0  0
 36 79  1  0  0  0  0
 36 84  2  0  0  0  0
 37 74  1  0  0  0  0
 37 75  1  0  0  0  0
 37 85  2  0  0  0  0
 38 42  1  0  0  0  0
 39 56  1  0  0  0  0
 40 43  1  0  0  0  0
 41 73  1  0  0  0  0
 42 45  1  0  0  0  0
 43 47  1  0  0  0  0
 44 46  1  0  0  0  0
 44 50  1  0  0  0  0
 45 55  1  0  0  0  0
 46 57  1  0  0  0  0
 47 58  1  0  0  0  0
 48 51  1  0  0  0  0
 48 54  1  0  0  0  0
 49 52  1  0  0  0  0
 49 54  1  0  0  0  0
 50 74  1  0  0  0  0
 51 75  1  0  0  0  0
 52 75  1  0  0  0  0
 53 57  1  0  0  0  0
 53 74  1  0  0  0  0
 55 78  1  0  0  0  0
 56 73  1  0  0  0  0
 57 72  1  0  0  0  0
 58 59  1  0  0  0  0
 58 60  1  0  0  0  0
 61 68  1  0  0  0  0
 62 69  1  0  0  0  0
 63 69  1  0  0  0  0
 64 69  1  0  0  0  0
 65 80  1  0  0  0  0
 66 87  1  0  0  0  0
 67 69  1  0  0  0  0
 67 79  1  0  0  0  0
 68 80  1  0  0  0  0
 71 72  1  0  0  0  0
M  CHG  1  80   1
M  ISO  4  37 100  66 101  75 100  87 101
M  END
> <Batch ID>
0181

> <Smiles>
CNC(C)C(=O)NC(C(=O)N1Cc2cc([101O:1][101CH2:1]c3ncc(C4CC[100N:0]([100C:0](=O)N5CCCC(n6nc(-c7ccc(Oc8ccc(F)cc8F)cc7)c(C(N)=O)c6N)C5)CC4)c4c3CCCC4(C)C)ccc2CC1C(=O)NC1CCCc2ccccc21)C(C)(C)C

> <Shape>
0.176

> <Color>
0.178

> <Negative vol penalty>
0.000

$$$$

  -OEChem-04052323023D

 87 96  0     1  0  0  0  0  0999 V2000
  -28.6323  -37.4547   20.8749 C   0  0  0  0  0  0  0  0  0  0  0  0
  -28.9737  -36.1377   20.5842 C   0  0  0  0  0  0  0  0  0  0  0  0
  -24.5126  -10.1359   23.2201 C   0  0  0  0  0  0  0  0  0  0  0  0
  -24.4546   -8.6293   21.3323 C   0  0  0  0  0  0  0  0  0  0  0  0
  -27.6880  -37.7268   21.8639 C   0  0  0  0  0  0  0  0  0  0  0  0
  -28.3717  -35.0921   21.2832 C   0  0  0  0  0  0  0  0  0  0  0  0
  -26.9080  -29.5626   19.0950 C   0  0  0  0  0  0  0  0  0  0  0  0
  -23.3625   -9.5366   23.7337 C   0  0  0  0  0  0  0  0  0  0  0  0
  -23.3045   -8.0300   21.8459 C   0  0  0  0  0  0  0  0  0  0  0  0
  -27.5478  -28.3260   19.1667 C   0  0  0  0  0  0  0  0  0  0  0  0
  -22.5303   -5.7743   24.2402 C   0  0  0  0  0  0  0  0  0  0  0  0
  -22.4707   -4.3807   24.2366 C   0  0  0  0  0  0  0  0  0  0  0  0
  -26.1814  -27.7358   21.0651 C   0  0  0  0  0  0  0  0  0  0  0  0
  -20.5014   -4.4686   22.8397 C   0  0  0  0  0  0  0  0  0  0  0  0
  -25.0586   -9.6823   22.0193 C   0  0  0  0  0  0  0  0  0  0  0  0
  -27.5817   -9.9340   21.7399 C   0  0  0  0  0  0  0  0  0  0  0  0
  -27.0670  -36.6836   22.5687 C   0  0  0  0  0  0  0  0  0  0  0  0
  -25.9059  -29.8999   20.0161 C   0  0  0  0  0  0  0  0  0  0  0  0
  -27.4191  -35.3505   22.2835 C   0  0  0  0  0  0  0  0  0  0  0  0
  -25.5286  -28.9763   21.0014 C   0  0  0  0  0  0  0  0  0  0  0  0
  -22.7585   -8.4837   23.0466 C   0  0  0  0  0  0  0  0  0  0  0  0
  -27.1866  -27.4135   20.1536 C   0  0  0  0  0  0  0  0  0  0  0  0
  -21.5754   -6.5150   23.5437 C   0  0  0  0  0  0  0  0  0  0  0  0
  -21.4563   -3.7279   23.5363 C   0  0  0  0  0  0  0  0  0  0  0  0
  -20.5610   -5.8622   22.8434 C   0  0  0  0  0  0  0  0  0  0  0  0
  -26.2463  -10.3013   21.4880 C   0  0  0  0  0  0  0  0  0  0  0  0
  -30.2180  -24.2611   20.4858 C   0  0  0  0  0  0  0  0  0  0  0  0
  -29.3646  -24.5674   19.4571 C   0  0  0  0  0  0  0  0  0  0  0  0
  -28.3270  -10.8240   21.0056 C   0  0  0  0  0  0  0  0  0  0  0  0
  -30.2823  -22.1256   19.7541 C   0  0  0  0  0  0  0  0  0  0  0  0
  -28.1021   -8.8823   22.5637 C   0  0  0  0  0  0  0  0  0  0  0  0
  -25.5579  -32.1591   22.2249 C   0  0  0  0  0  0  0  0  0  0  0  0
  -22.5753  -30.9086   22.4753 C   0  0  0  0  0  0  0  0  0  0  0  0
  -20.5129  -28.2248   22.0385 C   0  0  0  0  0  0  0  0  0  0  0  0
  -29.5156  -15.7537   19.2475 C   0  0  0  0  0  0  0  0  0  0  0  0
  -26.0869  -37.0287   23.6618 C   0  0  0  0  0  0  0  0  0  0  0  0
  -25.2068  -31.2274   19.9088 C   0  0  0  0  0  0  0  0  0  0  0  0
  -24.4449  -29.2820   22.0016 C   0  0  0  0  0  0  0  0  0  0  0  0
  -25.2199  -35.8501   24.0969 C   0  0  0  0  0  0  0  0  0  0  0  0
  -26.9520  -14.1511   17.4618 C   0  0  0  0  0  0  0  0  0  0  0  0
  -26.0767  -34.6054   24.3055 C   0  0  0  0  0  0  0  0  0  0  0  0
  -26.6410  -12.9659   18.3754 C   0  0  0  0  0  0  0  0  0  0  0  0
  -28.9960  -19.2332   19.3520 C   0  0  0  0  0  0  0  0  0  0  0  0
  -31.4321  -18.6352   19.0780 C   0  0  0  0  0  0  0  0  0  0  0  0
  -27.2058  -15.4346   18.2545 C   0  0  0  0  0  0  0  0  0  0  0  0
  -28.6188  -18.0083   18.5136 C   0  0  0  0  0  0  0  0  0  0  0  0
  -31.0095  -17.4427   18.2245 C   0  0  0  0  0  0  0  0  0  0  0  0
  -27.9324  -14.1127   20.2149 C   0  0  0  0  0  0  0  0  0  0  0  0
  -26.7698  -34.1881   23.0028 C   0  0  1  0  0  0  0  0  0  0  0  0
  -24.5575  -31.6682   21.2170 C   0  0  1  0  0  0  0  0  0  0  0  0
  -27.7301  -12.7958   19.4496 C   0  0  1  0  0  0  0  0  0  0  0  0
  -30.3898  -19.7532   18.9926 C   0  0  0  0  0  0  0  0  0  0  0  0
  -18.1354  -27.4930   22.3693 C   0  0  0  0  0  0  0  0  0  0  0  0
  -23.0836  -30.6191   25.4699 C   0  0  0  0  0  0  0  0  0  0  0  0
  -21.1303  -29.0568   25.5797 C   0  0  0  0  0  0  0  0  0  0  0  0
  -20.7925  -31.4254   24.8738 C   0  0  0  0  0  0  0  0  0  0  0  0
  -32.2454  -25.8723   23.3042 C   0  0  0  0  0  0  0  0  0  0  0  0
  -20.1385  -27.7363   19.1437 C   0  0  0  0  0  0  0  0  0  0  0  0
  -30.6545  -25.2939   21.4675 C   0  0  0  0  0  0  0  0  0  0  0  0
  -28.8253  -25.9405   19.2588 C   0  0  0  0  0  0  0  0  0  1  0  0
  -21.9405  -29.8145   23.2993 C   0  0  1  0  0  0  0  0  0  0  0  0
  -19.1395  -28.1027   21.4034 C   0  0  2  0  0  0  0  0  0  0  0  0
  -21.7585  -30.2236   24.7882 C   0  0  0  0  0  0  0  0  0  0  0  0
  -26.1458  -11.3435   20.6587 N   0  0  0  0  0  0  0  0  0  0  0  0
  -30.7014  -23.0218   20.6599 N   0  0  0  0  0  0  0  0  0  0  0  0
  -28.9783  -23.6252   18.5779 N   0  0  0  0  0  0  0  0  0  0  0  0
  -29.4465  -22.3684   18.7253 N   0  0  0  0  0  0  0  0  0  0  0  0
  -27.4276  -11.6388   20.3832 N   0  0  0  0  0  0  0  0  0  0  0  0
  -23.7953  -30.5955   21.8593 N   0  0  0  0  0  0  0  0  0  0  0  0
  -28.2220  -15.2127   19.2926 N   0  0  0  0  0  0  0  0  0  0  0  0
  -29.6690  -16.9826   18.5886 N   0  0  0  0  0  0  0  0  0  0  0  0
  -29.6572  -10.9813   20.8383 N   0  0  0  0  0  0  0  0  0  0  0  0
  -27.1969   -8.0601   23.2486 N   0  0  0  0  0  0  0  0  0  0  0  0
  -30.7510  -20.8307   19.8873 N   0  0  0  0  0  0  0  0  0  0  0  0
  -25.8371  -33.5090   22.1291 N   0  0  0  0  0  0  0  0  0  0  0  0
  -20.6983  -29.4609   22.6207 N   0  0  0  0  0  0  0  0  0  0  0  0
  -31.8312  -24.8780   22.2805 N   0  3  0  0  0  0  0  0  0  0  0  0
  -19.2053  -27.2420   20.1886 N   0  3  0  0  0  0  0  0  0  0  0  0
  -29.3336   -8.6880   22.7018 O   0  0  0  0  0  0  0  0  0  0  0  0
  -26.0396  -31.3717   23.0309 O   0  0  0  0  0  0  0  0  0  0  0  0
  -22.0060  -31.9984   22.3758 O   0  0  0  0  0  0  0  0  0  0  0  0
  -21.3373  -27.3134   22.0232 O   0  0  0  0  0  0  0  0  0  0  0  0
  -30.4775  -15.1728   19.7657 O   0  0  0  0  0  0  0  0  0  0  0  0
  -21.6364   -7.8985   23.5476 O   0  0  0  0  0  0  0  0  0  0  0  0
  -27.8141  -26.1981   20.2267 O   0  0  0  0  0  0  0  0  0  1  0  0
  -21.4001   -2.3896   23.5316 F   0  0  0  0  0  0  0  0  0  0  0  0
  -19.6415   -6.5684   22.1715 F   0  0  0  0  0  0  0  0  0  0  0  0
  1  2  1  0  0  0  0
  1  5  2  0  0  0  0
  2  6  2  0  0  0  0
  3  8  2  0  0  0  0
  3 15  1  0  0  0  0
  4  9  1  0  0  0  0
  4 15  2  0  0  0  0
  5 17  1  0  0  0  0
  6 19  1  0  0  0  0
  7 10  2  0  0  0  0
  7 18  1  0  0  0  0
  8 21  1  0  0  0  0
  9 21  2  0  0  0  0
 10 22  1  0  0  0  0
 11 12  2  0  0  0  0
 11 23  1  0  0  0  0
 12 24  1  0  0  0  0
 13 20  1  0  0  0  0
 13 22  2  0  0  0  0
 14 24  2  0  0  0  0
 14 25  1  0  0  0  0
 15 26  1  0  0  0  0
 16 26  1  0  0  0  0
 16 29  2  0  0  0  0
 16 31  1  0  0  0  0
 17 19  2  0  0  0  0
 17 36  1  0  0  0  0
 18 20  2  0  0  0  0
 18 37  1  0  0  0  0
 19 49  1  0  0  0  0
 20 38  1  0  0  0  0
 21 84  1  0  0  0  0
 22 85  1  0  0  0  0
 23 25  2  0  0  0  0
 23 84  1  0  0  0  0
 24 86  1  0  0  0  0
 25 87  1  0  0  0  0
 26 64  2  0  0  0  0
 27 28  2  0  0  0  0
 27 59  1  0  0  0  0
 27 65  1  0  0  0  0
 28 60  1  0  0  0  0
 28 66  1  0  0  0  0
 29 68  1  0  0  0  0
 29 72  1  0  0  0  0
 30 65  2  0  0  0  0
 30 67  1  0  0  0  0
 30 74  1  0  0  0  0
 31 73  1  0  0  0  0
 31 79  2  0  0  0  0
 32 50  1  0  0  0  0
 32 75  1  0  0  0  0
 32 80  2  0  0  0  0
 33 61  1  0  0  0  0
 33 69  1  0  0  0  0
 33 81  2  0  0  0  0
 34 62  1  0  0  0  0
 34 76  1  0  0  0  0
 34 82  2  0  0  0  0
 35 70  1  0  0  0  0
 35 71  1  0  0  0  0
 35 83  2  0  0  0  0
 36 39  1  0  0  0  0
 37 50  1  0  0  0  0
 38 69  1  0  0  0  0
 39 41  1  0  0  0  0
 40 42  1  0  0  0  0
 40 45  1  0  0  0  0
 41 49  1  0  0  0  0
 42 51  1  0  0  0  0
 43 46  1  0  0  0  0
 43 52  1  0  0  0  0
 44 47  1  0  0  0  0
 44 52  1  0  0  0  0
 45 70  1  0  0  0  0
 46 71  1  0  0  0  0
 47 71  1  0  0  0  0
 48 51  1  0  0  0  0
 48 70  1  0  0  0  0
 49 75  1  0  0  0  0
 50 69  1  0  0  0  0
 51 68  1  0  0  0  0
 52 74  1  0  0  0  0
 53 62  1  0  0  0  0
 54 63  1  0  0  0  0
 55 63  1  0  0  0  0
 56 63  1  0  0  0  0
 57 77  1  0  0  0  0
 58 78  1  0  0  0  0
 59 77  1  0  0  0  0
 60 85  1  0  0  0  0
 61 63  1  0  0  0  0
 61 76  1  0  0  0  0
 62 78  1  0  0  0  0
 64 68  1  0  0  0  0
 66 67  2  0  0  0  0
M  CHG  2  77   1  78   1
M  ISO  4  35 100  60 101  71 100  85 101
M  END
> <Batch ID>
0181

> <Smiles>
CNCc1nc(NC2CC[100N:0]([100C:0](=O)N3CCCC(n4nc(-c5ccc(Oc6ccc(F)cc6F)cc5)c(C(N)=O)c4N)C3)CC2)nnc1[101CH2:1][101O:1]c1ccc2c(c1)CN(C(=O)C(NC(=O)C(C)NC)C(C)(C)C)C(C(=O)NC1CCCc3ccccc31)C2

> <Shape>
0.315

> <Color>
0.109

> <Negative vol penalty>
0.000

$$$$

  -OEChem-04052323023D

 78 86  0     1  0  0  0  0  0999 V2000
  -27.8982  -37.7337   24.1018 C   0  0  0  0  0  0  0  0  0  0  0  0
  -28.4405  -36.6390   23.4363 C   0  0  0  0  0  0  0  0  0  0  0  0
  -24.8696  -14.4150   21.9673 C   0  0  0  0  0  0  0  0  0  0  0  0
  -26.4005  -12.7738   21.0730 C   0  0  0  0  0  0  0  0  0  0  0  0
  -26.8662  -37.5482   25.0207 C   0  0  0  0  0  0  0  0  0  0  0  0
  -27.9518  -35.3579   23.6902 C   0  0  0  0  0  0  0  0  0  0  0  0
  -27.4259  -30.7570   19.6826 C   0  0  0  0  0  0  0  0  0  0  0  0
  -23.7906  -13.6305   21.5601 C   0  0  0  0  0  0  0  0  0  0  0  0
  -25.3214  -11.9892   20.6658 C   0  0  0  0  0  0  0  0  0  0  0  0
  -28.2296  -29.6496   19.4151 C   0  0  0  0  0  0  0  0  0  0  0  0
  -23.1357   -9.8353   22.0813 C   0  0  0  0  0  0  0  0  0  0  0  0
  -23.1975   -8.4662   22.3407 C   0  0  0  0  0  0  0  0  0  0  0  0
  -26.8477  -28.3043   20.8642 C   0  0  0  0  0  0  0  0  0  0  0  0
  -23.0368   -8.0105   19.9735 C   0  0  0  0  0  0  0  0  0  0  0  0
  -26.1746  -13.9867   21.7237 C   0  0  0  0  0  0  0  0  0  0  0  0
  -27.9588  -14.7465   23.3811 C   0  0  0  0  0  0  0  0  0  0  0  0
  -26.3580  -36.2653   25.2789 C   0  0  0  0  0  0  0  0  0  0  0  0
  -26.3317  -30.6487   20.5529 C   0  0  0  0  0  0  0  0  0  0  0  0
  -26.9129  -35.1549   24.6145 C   0  0  0  0  0  0  0  0  0  0  0  0
  -26.0302  -29.4111   21.1390 C   0  0  0  0  0  0  0  0  0  0  0  0
  -24.0165  -12.4176   20.9094 C   0  0  0  0  0  0  0  0  0  0  0  0
  -27.9423  -28.4237   20.0082 C   0  0  0  0  0  0  0  0  0  0  0  0
  -23.0243  -10.2921   20.7681 C   0  0  0  0  0  0  0  0  0  0  0  0
  -23.1481   -7.5538   21.2868 C   0  0  0  0  0  0  0  0  0  0  0  0
  -22.9749   -9.3797   19.7141 C   0  0  0  0  0  0  0  0  0  0  0  0
  -27.2896  -14.7970   22.1436 C   0  0  0  0  0  0  0  0  0  0  0  0
  -28.9343  -15.7084   23.2834 C   0  0  0  0  0  0  0  0  0  0  0  0
  -27.7200  -13.9053   24.5173 C   0  0  0  0  0  0  0  0  0  0  0  0
  -25.5316  -31.9790   23.3267 C   0  0  0  0  0  0  0  0  0  0  0  0
  -22.7476  -30.3861   22.8427 C   0  0  0  0  0  0  0  0  0  0  0  0
  -21.1185  -27.7890   21.3434 C   0  0  0  0  0  0  0  0  0  0  0  0
  -29.1011  -20.5692   19.6973 C   0  0  0  0  0  0  0  0  0  0  0  0
  -25.2739  -36.1090   26.3157 C   0  0  0  0  0  0  0  0  0  0  0  0
  -25.4587  -31.8463   20.8102 C   0  0  0  0  0  0  0  0  0  0  0  0
  -24.8549  -29.2374   22.0648 C   0  0  0  0  0  0  0  0  0  0  0  0
  -24.5584  -34.7621   26.2505 C   0  0  0  0  0  0  0  0  0  0  0  0
  -31.6915  -17.9424   20.0781 C   0  0  0  0  0  0  0  0  0  0  0  0
  -25.5692  -33.6259   26.1318 C   0  0  0  0  0  0  0  0  0  0  0  0
  -30.8845  -16.8170   20.7271 C   0  0  0  0  0  0  0  0  0  0  0  0
  -31.6736  -23.1868   19.9033 C   0  0  0  0  0  0  0  0  0  0  0  0
  -30.8128  -18.7850   19.1628 C   0  0  0  0  0  0  0  0  0  0  0  0
  -31.4056  -21.6907   19.7727 C   0  0  0  0  0  0  0  0  0  0  0  0
  -28.7992  -18.2476   20.4794 C   0  0  0  0  0  0  0  0  0  0  0  0
  -29.4899  -22.9127   18.9880 C   0  0  0  0  0  0  0  0  0  0  0  0
  -26.3928  -33.7525   24.8445 C   0  0  1  0  0  0  0  0  0  0  0  0
  -24.6747  -31.7449   22.1149 C   0  0  1  0  0  0  0  0  0  0  0  0
  -29.6289  -17.3656   21.4292 C   0  0  1  0  0  0  0  0  0  0  0  0
  -30.7401  -23.7618   18.8485 C   0  0  1  0  0  0  0  0  0  0  0  0
  -18.8535  -26.7230   21.1670 C   0  0  0  0  0  0  0  0  0  0  0  0
  -23.1081  -29.1670   25.6164 C   0  0  0  0  0  0  0  0  0  0  0  0
  -21.3939  -27.4470   25.0069 C   0  0  0  0  0  0  0  0  0  0  0  0
  -20.7663  -29.8603   25.0779 C   0  0  0  0  0  0  0  0  0  0  0  0
  -20.9948  -28.2625   18.4246 C   0  0  0  0  0  0  0  0  0  0  0  0
  -29.5918  -25.8411   18.0763 C   0  0  0  0  0  0  0  0  0  0  0  0
  -29.3566  -27.2855   18.4719 C   0  0  0  0  0  0  0  0  0  1  0  0
  -22.2257  -29.0140   23.1948 C   0  0  1  0  0  0  0  0  0  0  0  0
  -19.8178  -27.7319   20.5628 C   0  0  2  0  0  0  0  0  0  0  0  0
  -21.8969  -28.8755   24.7081 C   0  0  0  0  0  0  0  0  0  0  0  0
  -27.7970  -15.7181   21.3202 N   0  0  0  0  0  0  0  0  0  0  0  0
  -28.7954  -16.2555   22.0418 N   0  0  0  0  0  0  0  0  0  0  0  0
  -24.0350  -30.4394   22.2900 N   0  0  0  0  0  0  0  0  0  0  0  0
  -29.6345  -19.2876   19.8747 N   0  0  0  0  0  0  0  0  0  0  0  0
  -29.9893  -21.6025   19.4022 N   0  0  0  0  0  0  0  0  0  0  0  0
  -29.8888  -16.1313   24.1393 N   0  0  0  0  0  0  0  0  0  0  0  0
  -26.6775  -12.9710   24.4496 N   0  0  0  0  0  0  0  0  0  0  0  0
  -25.6213  -33.3050   23.7048 N   0  0  0  0  0  0  0  0  0  0  0  0
  -21.0903  -28.7701   22.3118 N   0  0  0  0  0  0  0  0  0  0  0  0
  -30.4574  -25.1843   19.1005 N   0  3  0  0  0  0  0  0  0  0  0  0
  -20.0794  -27.3430   19.1481 N   0  3  0  0  0  0  0  0  0  0  0  0
  -28.4000  -13.9913   25.5679 O   0  0  0  0  0  0  0  0  0  0  0  0
  -26.0703  -31.0268   23.8788 O   0  0  0  0  0  0  0  0  0  0  0  0
  -22.0362  -31.3736   23.0437 O   0  0  0  0  0  0  0  0  0  0  0  0
  -22.0635  -27.0359   21.1192 O   0  0  0  0  0  0  0  0  0  0  0  0
  -27.8917  -20.7900   19.8441 O   0  0  0  0  0  0  0  0  0  0  0  0
  -22.9638  -11.6517   20.5122 O   0  0  0  0  0  0  0  0  0  0  0  0
  -28.7311  -27.3336   19.7474 O   0  0  0  0  0  0  0  0  0  1  0  0
  -23.2090   -6.2391   21.5359 F   0  0  0  0  0  0  0  0  0  0  0  0
  -22.8692   -9.8125   18.4503 F   0  0  0  0  0  0  0  0  0  0  0  0
  1  2  1  0  0  0  0
  1  5  2  0  0  0  0
  2  6  2  0  0  0  0
  3  8  2  0  0  0  0
  3 15  1  0  0  0  0
  4  9  1  0  0  0  0
  4 15  2  0  0  0  0
  5 17  1  0  0  0  0
  6 19  1  0  0  0  0
  7 10  2  0  0  0  0
  7 18  1  0  0  0  0
  8 21  1  0  0  0  0
  9 21  2  0  0  0  0
 10 22  1  0  0  0  0
 11 12  2  0  0  0  0
 11 23  1  0  0  0  0
 12 24  1  0  0  0  0
 13 20  1  0  0  0  0
 13 22  2  0  0  0  0
 14 24  2  0  0  0  0
 14 25  1  0  0  0  0
 15 26  1  0  0  0  0
 16 26  1  0  0  0  0
 16 27  2  0  0  0  0
 16 28  1  0  0  0  0
 17 19  2  0  0  0  0
 17 33  1  0  0  0  0
 18 20  2  0  0  0  0
 18 34  1  0  0  0  0
 19 45  1  0  0  0  0
 20 35  1  0  0  0  0
 21 75  1  0  0  0  0
 22 76  1  0  0  0  0
 23 25  2  0  0  0  0
 23 75  1  0  0  0  0
 24 77  1  0  0  0  0
 25 78  1  0  0  0  0
 26 59  2  0  0  0  0
 27 60  1  0  0  0  0
 27 64  1  0  0  0  0
 28 65  1  0  0  0  0
 28 70  2  0  0  0  0
 29 46  1  0  0  0  0
 29 66  1  0  0  0  0
 29 71  2  0  0  0  0
 30 56  1  0  0  0  0
 30 61  1  0  0  0  0
 30 72  2  0  0  0  0
 31 57  1  0  0  0  0
 31 67  1  0  0  0  0
 31 73  2  0  0  0  0
 32 62  1  0  0  0  0
 32 63  1  0  0  0  0
 32 74  2  0  0  0  0
 33 36  1  0  0  0  0
 34 46  1  0  0  0  0
 35 61  1  0  0  0  0
 36 38  1  0  0  0  0
 37 39  1  0  0  0  0
 37 41  1  0  0  0  0
 38 45  1  0  0  0  0
 39 47  1  0  0  0  0
 40 42  1  0  0  0  0
 40 48  1  0  0  0  0
 41 62  1  0  0  0  0
 42 63  1  0  0  0  0
 43 47  1  0  0  0  0
 43 62  1  0  0  0  0
 44 48  1  0  0  0  0
 44 63  1  0  0  0  0
 45 66  1  0  0  0  0
 46 61  1  0  0  0  0
 47 60  1  0  0  0  0
 48 68  1  0  0  0  0
 49 57  1  0  0  0  0
 50 58  1  0  0  0  0
 51 58  1  0  0  0  0
 52 58  1  0  0  0  0
 53 69  1  0  0  0  0
 54 55  1  0  0  0  0
 54 68  1  0  0  0  0
 55 76  1  0  0  0  0
 56 58  1  0  0  0  0
 56 67  1  0  0  0  0
 57 69  1  0  0  0  0
 59 60  1  0  0  0  0
M  CHG  2  68   1  69   1
M  ISO  4  32 100  55 101  63 100  76 101
M  END
> <Batch ID>
0181

> <Smiles>
CNC(C)C(=O)NC(C(=O)N1Cc2cc([101O:1][101CH2:1]CNC3CC[100N:0]([100C:0](=O)N4CCCC(n5nc(-c6ccc(Oc7ccc(F)cc7F)cc6)c(C(N)=O)c5N)C4)C3)ccc2CC1C(=O)NC1CCCc2ccccc21)C(C)(C)C

> <Shape>
0.327

> <Color>
0.075

> <Negative vol penalty>
0.000

$$$$

  -OEChem-04052323023D

 85 94  0     1  0  0  0  0  0999 V2000
  -22.9954  -18.0514   25.8133 C   0  0  0  0  0  0  0  0  0  0  0  0
  -23.4336  -19.3716   25.7948 C   0  0  0  0  0  0  0  0  0  0  0  0
  -25.6470  -15.6639   21.7281 C   0  0  0  0  0  0  0  0  0  0  0  0
  -25.3590  -16.1721   19.3838 C   0  0  0  0  0  0  0  0  0  0  0  0
  -22.1917  -17.5702   24.7806 C   0  0  0  0  0  0  0  0  0  0  0  0
  -23.0691  -20.2113   24.7428 C   0  0  0  0  0  0  0  0  0  0  0  0
  -21.9154  -26.2176   25.0567 C   0  0  0  0  0  0  0  0  0  0  0  0
  -24.3949  -15.0497   21.7488 C   0  0  0  0  0  0  0  0  0  0  0  0
  -24.1069  -15.5578   19.4045 C   0  0  0  0  0  0  0  0  0  0  0  0
  -22.6937  -27.3384   24.7710 C   0  0  0  0  0  0  0  0  0  0  0  0
  -23.0566  -12.0899   20.8100 C   0  0  0  0  0  0  0  0  0  0  0  0
  -22.9497  -10.8575   21.4545 C   0  0  0  0  0  0  0  0  0  0  0  0
  -21.7142  -27.4500   22.5693 C   0  0  0  0  0  0  0  0  0  0  0  0
  -26.9108  -28.3758   21.5241 C   0  0  0  0  0  0  0  0  0  0  0  0
  -24.9878  -29.4995   20.6166 C   0  0  0  0  0  0  0  0  0  0  0  0
  -21.3225  -11.7938   22.9752 C   0  0  0  0  0  0  0  0  0  0  0  0
  -26.1291  -16.2252   20.5456 C   0  0  0  0  0  0  0  0  0  0  0  0
  -28.6616  -16.2559   20.2402 C   0  0  0  0  0  0  0  0  0  0  0  0
  -21.8092  -18.4071   23.7204 C   0  0  0  0  0  0  0  0  0  0  0  0
  -21.0371  -25.6971   24.0953 C   0  0  0  0  0  0  0  0  0  0  0  0
  -22.2606  -19.7405   23.6943 C   0  0  0  0  0  0  0  0  0  0  0  0
  -20.9239  -26.3240   22.8462 C   0  0  0  0  0  0  0  0  0  0  0  0
  -25.8306  -29.2352   21.6905 C   0  0  0  0  0  0  0  0  0  0  0  0
  -23.6249  -14.9965   20.5870 C   0  0  0  0  0  0  0  0  0  0  0  0
  -22.5954  -27.9531   23.5262 C   0  0  0  0  0  0  0  0  0  0  0  0
  -22.2965  -13.1743   21.2482 C   0  0  0  0  0  0  0  0  0  0  0  0
  -22.0827  -10.7094   22.5370 C   0  0  0  0  0  0  0  0  0  0  0  0
  -21.4294  -13.0263   22.3307 C   0  0  0  0  0  0  0  0  0  0  0  0
  -27.4222  -16.8604   20.5237 C   0  0  0  0  0  0  0  0  0  0  0  0
  -27.1033  -27.8106   20.2738 C   0  0  0  0  0  0  0  0  0  0  0  0
  -25.2665  -28.8842   19.4069 C   0  0  0  0  0  0  0  0  0  0  0  0
  -29.5742  -17.2766   20.3485 C   0  0  0  0  0  0  0  0  0  0  0  0
  -28.9611  -14.8936   19.9086 C   0  0  0  0  0  0  0  0  0  0  0  0
  -20.7843  -22.9295   22.5526 C   0  0  0  0  0  0  0  0  0  0  0  0
  -18.0369  -24.2468   21.4395 C   0  0  0  0  0  0  0  0  0  0  0  0
  -16.2473  -27.0711   20.7561 C   0  0  0  0  0  0  0  0  0  0  0  0
  -29.0395  -23.1182   19.6811 C   0  0  0  0  0  0  0  0  0  0  0  0
  -20.9784  -17.8288   22.6025 C   0  0  0  0  0  0  0  0  0  0  0  0
  -20.1847  -24.5034   24.4285 C   0  0  0  0  0  0  0  0  0  0  0  0
  -19.9813  -25.8166   21.7867 C   0  0  0  0  0  0  0  0  0  0  0  0
  -20.3278  -18.8880   21.7164 C   0  0  0  0  0  0  0  0  0  0  0  0
  -30.2999  -21.4258   22.6213 C   0  0  0  0  0  0  0  0  0  0  0  0
  -21.3413  -19.9635   21.3383 C   0  0  0  0  0  0  0  0  0  0  0  0
  -29.8149  -19.9951   22.3800 C   0  0  0  0  0  0  0  0  0  0  0  0
  -25.5893  -31.3889   23.0855 C   0  0  0  0  0  0  0  0  0  0  0  0
  -26.7254  -30.6136   23.6756 C   0  0  0  0  0  0  0  0  0  0  0  0
  -29.2686  -22.4462   22.1486 C   0  0  0  0  0  0  0  0  0  0  0  0
  -28.3772  -20.8673   20.4795 C   0  0  0  0  0  0  0  0  0  0  0  0
  -21.8661  -20.6891   22.5831 C   0  0  1  0  0  0  0  0  0  0  0  0
  -19.7012  -23.7509   23.1928 C   0  0  1  0  0  0  0  0  0  0  0  0
  -29.3853  -19.7886   20.9155 C   0  0  2  0  0  0  0  0  0  0  0  0
  -25.5778  -29.8725   23.0134 C   0  0  0  0  0  0  0  0  0  0  0  0
  -14.0478  -27.8303   19.8163 C   0  0  0  0  0  0  0  0  0  0  0  0
  -19.0337  -23.6372   18.6209 C   0  0  0  0  0  0  0  0  0  0  0  0
  -17.3098  -25.2262   17.7427 C   0  0  0  0  0  0  0  0  0  0  0  0
  -16.6018  -23.1841   18.9881 C   0  0  0  0  0  0  0  0  0  0  0  0
  -15.4850  -28.3877   23.2948 C   0  0  0  0  0  0  0  0  0  0  0  0
  -24.6221  -29.1421   23.8928 C   0  0  0  0  0  0  0  0  0  1  0  0
  -28.5134  -26.2916   18.8846 C   0  0  0  0  0  0  0  0  0  0  0  0
  -29.7424  -25.4072   19.0305 C   0  0  0  0  0  0  0  0  0  0  0  0
  -17.6652  -25.0993   20.2504 C   0  0  1  0  0  0  0  0  0  0  0  0
  -14.8145  -27.4577   21.0757 C   0  0  2  0  0  0  0  0  0  0  0  0
  -17.6719  -24.2953   18.9196 C   0  0  0  0  0  0  0  0  0  0  0  0
  -27.5338  -18.1641   20.7921 N   0  0  0  0  0  0  0  0  0  0  0  0
  -26.3062  -28.0435   19.2071 N   0  0  0  0  0  0  0  0  0  0  0  0
  -28.8541  -18.3871   20.6777 N   0  0  0  0  0  0  0  0  0  0  0  0
  -19.1738  -24.6429   22.1581 N   0  0  0  0  0  0  0  0  0  0  0  0
  -28.9167  -22.2057   20.7421 N   0  0  0  0  0  0  0  0  0  0  0  0
  -30.9144  -17.3236   20.1933 N   0  0  0  0  0  0  0  0  0  0  0  0
  -27.9048  -13.9749   19.8400 N   0  0  0  0  0  0  0  0  0  0  0  0
  -28.2075  -26.9362   20.1201 N   0  0  0  0  0  0  0  0  0  0  0  0
  -20.8914  -21.6478   23.0578 N   0  0  0  0  0  0  0  0  0  0  0  0
  -16.3805  -25.7111   20.5724 N   0  0  0  0  0  0  0  0  0  0  0  0
  -29.5522  -24.3657   20.0154 N   0  0  0  0  0  0  0  0  0  0  0  0
  -14.7872  -28.6228   22.0045 N   0  3  0  0  0  0  0  0  0  0  0  0
  -30.1327  -14.4990   19.6959 O   0  0  0  0  0  0  0  0  0  0  0  0
  -21.4710  -23.4217   21.6649 O   0  0  0  0  0  0  0  0  0  0  0  0
  -17.3400  -23.2697   21.7246 O   0  0  0  0  0  0  0  0  0  0  0  0
  -17.1566  -27.8939   20.6738 O   0  0  0  0  0  0  0  0  0  0  0  0
  -28.7207  -22.8401   18.5201 O   0  0  0  0  0  0  0  0  0  0  0  0
  -22.4031  -14.3970   20.6068 O   0  0  0  0  0  0  0  0  0  0  0  0
  -23.3545  -29.0469   23.2445 O   0  0  0  0  0  0  0  0  0  1  0  0
  -21.9790   -9.5255   23.1548 F   0  0  0  0  0  0  0  0  0  0  0  0
  -20.6957  -14.0641   22.7555 F   0  0  0  0  0  0  0  0  0  0  0  0
  -24.4607  -29.1305   18.3624 F   0  0  0  0  0  0  0  0  0  0  0  0
  1  2  1  0  0  0  0
  1  5  2  0  0  0  0
  2  6  2  0  0  0  0
  3  8  2  0  0  0  0
  3 17  1  0  0  0  0
  4  9  1  0  0  0  0
  4 17  2  0  0  0  0
  5 19  1  0  0  0  0
  6 21  1  0  0  0  0
  7 10  2  0  0  0  0
  7 20  1  0  0  0  0
  8 24  1  0  0  0  0
  9 24  2  0  0  0  0
 10 25  1  0  0  0  0
 11 12  2  0  0  0  0
 11 26  1  0  0  0  0
 12 27  1  0  0  0  0
 13 22  1  0  0  0  0
 13 25  2  0  0  0  0
 14 23  2  0  0  0  0
 14 30  1  0  0  0  0
 15 23  1  0  0  0  0
 15 31  2  0  0  0  0
 16 27  2  0  0  0  0
 16 28  1  0  0  0  0
 17 29  1  0  0  0  0
 18 29  1  0  0  0  0
 18 32  2  0  0  0  0
 18 33  1  0  0  0  0
 19 21  2  0  0  0  0
 19 38  1  0  0  0  0
 20 22  2  0  0  0  0
 20 39  1  0  0  0  0
 21 49  1  0  0  0  0
 22 40  1  0  0  0  0
 23 52  1  0  0  0  0
 24 81  1  0  0  0  0
 25 82  1  0  0  0  0
 26 28  2  0  0  0  0
 26 81  1  0  0  0  0
 27 83  1  0  0  0  0
 28 84  1  0  0  0  0
 29 64  2  0  0  0  0
 30 65  2  0  0  0  0
 30 71  1  0  0  0  0
 31 65  1  0  0  0  0
 31 85  1  0  0  0  0
 32 66  1  0  0  0  0
 32 69  1  0  0  0  0
 33 70  1  0  0  0  0
 33 76  2  0  0  0  0
 34 50  1  0  0  0  0
 34 72  1  0  0  0  0
 34 77  2  0  0  0  0
 35 61  1  0  0  0  0
 35 67  1  0  0  0  0
 35 78  2  0  0  0  0
 36 62  1  0  0  0  0
 36 73  1  0  0  0  0
 36 79  2  0  0  0  0
 37 68  1  0  0  0  0
 37 74  1  0  0  0  0
 37 80  2  0  0  0  0
 38 41  1  0  0  0  0
 39 50  1  0  0  0  0
 40 67  1  0  0  0  0
 41 43  1  0  0  0  0
 42 44  1  0  0  0  0
 42 47  1  0  0  0  0
 43 49  1  0  0  0  0
 44 51  1  0  0  0  0
 45 46  1  0  0  0  0
 45 52  1  0  0  0  0
 46 52  1  0  0  0  0
 47 68  1  0  0  0  0
 48 51  1  0  0  0  0
 48 68  1  0  0  0  0
 49 72  1  0  0  0  0
 50 67  1  0  0  0  0
 51 66  1  0  0  0  0
 52 58  1  0  0  0  0
 53 62  1  0  0  0  0
 54 63  1  0  0  0  0
 55 63  1  0  0  0  0
 56 63  1  0  0  0  0
 57 75  1  0  0  0  0
 58 82  1  0  0  0  0
 59 60  1  0  0  0  0
 59 71  1  0  0  0  0
 60 74  1  0  0  0  0
 61 63  1  0  0  0  0
 61 73  1  0  0  0  0
 62 75  1  0  0  0  0
 64 66  1  0  0  0  0
M  CHG  1  75   1
M  ISO  4  37 100  58 101  74 100  82 101
M  END
> <Batch ID>
0181

> <Smiles>
CNC(C)C(=O)NC(C(=O)N1Cc2cc([101O:1][101CH2:1]C3(c4cc(F)nc(NCC[100NH:0][100C:0](=O)N5CCCC(n6nc(-c7ccc(Oc8ccc(F)cc8F)cc7)c(C(N)=O)c6N)C5)c4)CC3)ccc2CC1C(=O)NC1CCCc2ccccc21)C(C)(C)C

> <Shape>
0.232

> <Color>
0.080

> <Negative vol penalty>
0.000

$$$$

  -OEChem-04052323023D

 79 88  0     1  0  0  0  0  0999 V2000
  -29.9682  -35.8634   22.3524 C   0  0  0  0  0  0  0  0  0  0  0  0
  -29.9661  -34.4818   22.1896 C   0  0  0  0  0  0  0  0  0  0  0  0
  -26.3670  -14.6385   20.5937 C   0  0  0  0  0  0  0  0  0  0  0  0
  -28.1349  -13.4540   19.4498 C   0  0  0  0  0  0  0  0  0  0  0  0
  -28.9441  -36.4813   23.0689 C   0  0  0  0  0  0  0  0  0  0  0  0
  -28.9404  -33.7171   22.7441 C   0  0  0  0  0  0  0  0  0  0  0  0
  -27.1708  -30.2216   19.5355 C   0  0  0  0  0  0  0  0  0  0  0  0
  -25.7550  -13.4244   20.9050 C   0  0  0  0  0  0  0  0  0  0  0  0
  -27.5228  -12.2399   19.7611 C   0  0  0  0  0  0  0  0  0  0  0  0
  -27.9328  -29.0659   19.3693 C   0  0  0  0  0  0  0  0  0  0  0  0
  -23.5377  -10.6515   21.6913 C   0  0  0  0  0  0  0  0  0  0  0  0
  -22.1587  -10.5527   21.5070 C   0  0  0  0  0  0  0  0  0  0  0  0
  -26.4656  -27.8887   20.8794 C   0  0  0  0  0  0  0  0  0  0  0  0
  -22.4379  -11.0372   19.1566 C   0  0  0  0  0  0  0  0  0  0  0  0
  -31.3920  -25.1536   19.1615 C   0  0  0  0  0  0  0  0  0  0  0  0
  -27.5570  -14.6533   19.8660 C   0  0  0  0  0  0  0  0  0  0  0  0
  -29.1479  -16.5975   20.3095 C   0  0  0  0  0  0  0  0  0  0  0  0
  -27.9001  -35.7247   23.6242 C   0  0  0  0  0  0  0  0  0  0  0  0
  -26.0550  -30.2225   20.3848 C   0  0  0  0  0  0  0  0  0  0  0  0
  -27.9020  -34.3252   23.4698 C   0  0  0  0  0  0  0  0  0  0  0  0
  -25.6896  -29.0450   21.0527 C   0  0  0  0  0  0  0  0  0  0  0  0
  -26.3328  -12.2251   20.4888 C   0  0  0  0  0  0  0  0  0  0  0  0
  -27.5819  -27.9000   20.0436 C   0  0  0  0  0  0  0  0  0  0  0  0
  -24.3669  -10.9432   20.6082 C   0  0  0  0  0  0  0  0  0  0  0  0
  -21.6087  -10.7455   20.2397 C   0  0  0  0  0  0  0  0  0  0  0  0
  -23.8170  -11.1360   19.3409 C   0  0  0  0  0  0  0  0  0  0  0  0
  -28.1894  -15.9072   19.5436 C   0  0  0  0  0  0  0  0  0  0  0  0
  -30.1100  -25.5605   18.8717 C   0  0  0  0  0  0  0  0  0  0  0  0
  -29.4282  -17.7236   19.5748 C   0  0  0  0  0  0  0  0  0  0  0  0
  -30.3054  -23.4167   18.3767 C   0  0  0  0  0  0  0  0  0  0  0  0
  -29.7326  -16.2517   21.5721 C   0  0  0  0  0  0  0  0  0  0  0  0
  -25.2534  -31.7861   23.0336 C   0  0  0  0  0  0  0  0  0  0  0  0
  -22.4157  -30.2751   22.6008 C   0  0  0  0  0  0  0  0  0  0  0  0
  -20.7110  -27.6416   21.2574 C   0  0  0  0  0  0  0  0  0  0  0  0
  -27.4322  -22.0812   16.6252 C   0  0  0  0  0  0  0  0  0  0  0  0
  -26.8402  -36.4324   24.4307 C   0  0  0  0  0  0  0  0  0  0  0  0
  -25.2278  -31.4700   20.5325 C   0  0  0  0  0  0  0  0  0  0  0  0
  -24.4889  -28.9879   21.9602 C   0  0  0  0  0  0  0  0  0  0  0  0
  -29.6839  -22.1770   17.8740 C   0  0  0  0  0  0  0  0  0  0  0  0
  -25.5902  -35.5886   24.6674 C   0  0  0  0  0  0  0  0  0  0  0  0
  -28.1719  -18.9767   14.8357 C   0  0  0  0  0  0  0  0  0  0  0  0
  -25.9729  -34.1812   25.1140 C   0  0  0  0  0  0  0  0  0  0  0  0
  -28.2830  -17.9524   15.9670 C   0  0  0  0  0  0  0  0  0  0  0  0
  -27.1910  -20.0981   15.1726 C   0  0  0  0  0  0  0  0  0  0  0  0
  -27.5471  -19.7415   17.5831 C   0  0  0  0  0  0  0  0  0  0  0  0
  -28.1755  -24.1083   17.8815 C   0  0  0  0  0  0  0  0  0  0  0  0
  -26.7935  -33.4641   24.0352 C   0  0  1  0  0  0  0  0  0  0  0  0
  -24.4130  -31.4974   21.8219 C   0  0  1  0  0  0  0  0  0  0  0  0
  -28.5793  -18.6380   17.3149 C   0  0  1  0  0  0  0  0  0  0  0  0
  -18.4076  -26.6575   21.1053 C   0  0  0  0  0  0  0  0  0  0  0  0
  -22.6665  -29.2518   25.4644 C   0  0  0  0  0  0  0  0  0  0  0  0
  -20.8948  -27.5618   24.9416 C   0  0  0  0  0  0  0  0  0  0  0  0
  -20.3677  -29.9969   24.8204 C   0  0  0  0  0  0  0  0  0  0  0  0
  -20.6686  -27.9016   18.3096 C   0  0  0  0  0  0  0  0  0  0  0  0
  -29.4525  -26.8629   19.0037 C   0  0  0  0  0  0  0  0  0  1  0  0
  -21.8295  -28.9551   23.0400 C   0  0  1  0  0  0  0  0  0  0  0  0
  -19.4258  -27.5791   20.4520 C   0  0  2  0  0  0  0  0  0  0  0  0
  -21.4634  -28.9427   24.5511 C   0  0  0  0  0  0  0  0  0  0  0  0
  -27.8814  -16.5417   18.4094 N   0  0  0  0  0  0  0  0  0  0  0  0
  -29.4759  -24.4551   18.3902 N   0  0  0  0  0  0  0  0  0  0  0  0
  -28.6506  -17.6427   18.4573 N   0  0  0  0  0  0  0  0  0  0  0  0
  -31.4859  -23.8085   18.8415 N   0  3  0  0  0  0  0  0  0  0  0  0
  -23.7156  -30.2353   22.0768 N   0  0  0  0  0  0  0  0  0  0  0  0
  -28.3320  -22.6798   17.5063 N   0  0  0  0  0  0  0  0  0  0  0  0
  -27.5104  -20.6938   16.4695 N   0  0  0  0  0  0  0  0  0  0  0  0
  -30.2614  -18.7654   19.7823 N   0  0  0  0  0  0  0  0  0  0  0  0
  -29.3321  -15.0591   22.1897 N   0  0  0  0  0  0  0  0  0  0  0  0
  -25.9299  -32.9896   22.9752 N   0  0  0  0  0  0  0  0  0  0  0  0
  -20.7037  -28.6923   22.1502 N   0  0  0  0  0  0  0  0  0  0  0  0
  -19.7004  -27.0760   19.0763 N   0  3  0  0  0  0  0  0  0  0  0  0
  -30.5729  -16.9870   22.1438 O   0  0  0  0  0  0  0  0  0  0  0  0
  -25.2844  -30.9776   23.9539 O   0  0  0  0  0  0  0  0  0  0  0  0
  -21.7424  -31.3027   22.7118 O   0  0  0  0  0  0  0  0  0  0  0  0
  -21.6281  -26.8364   21.1118 O   0  0  0  0  0  0  0  0  0  0  0  0
  -26.6318  -22.7592   15.9681 O   0  0  0  0  0  0  0  0  0  0  0  0
  -25.7360  -11.0402   20.7926 O   0  0  0  0  0  0  0  0  0  0  0  0
  -28.3272  -26.7664   19.8830 O   0  0  0  0  0  0  0  0  0  1  0  0
  -20.2845  -10.6491   20.0627 F   0  0  0  0  0  0  0  0  0  0  0  0
  -24.6087  -11.4154   18.2964 F   0  0  0  0  0  0  0  0  0  0  0  0
  1  2  1  0  0  0  0
  1  5  2  0  0  0  0
  2  6  2  0  0  0  0
  3  8  2  0  0  0  0
  3 16  1  0  0  0  0
  4  9  1  0  0  0  0
  4 16  2  0  0  0  0
  5 18  1  0  0  0  0
  6 20  1  0  0  0  0
  7 10  2  0  0  0  0
  7 19  1  0  0  0  0
  8 22  1  0  0  0  0
  9 22  2  0  0  0  0
 10 23  1  0  0  0  0
 11 12  2  0  0  0  0
 11 24  1  0  0  0  0
 12 25  1  0  0  0  0
 13 21  1  0  0  0  0
 13 23  2  0  0  0  0
 14 25  2  0  0  0  0
 14 26  1  0  0  0  0
 15 28  2  0  0  0  0
 15 62  1  0  0  0  0
 16 27  1  0  0  0  0
 17 27  1  0  0  0  0
 17 29  2  0  0  0  0
 17 31  1  0  0  0  0
 18 20  2  0  0  0  0
 18 36  1  0  0  0  0
 19 21  2  0  0  0  0
 19 37  1  0  0  0  0
 20 47  1  0  0  0  0
 21 38  1  0  0  0  0
 22 76  1  0  0  0  0
 23 77  1  0  0  0  0
 24 26  2  0  0  0  0
 24 76  1  0  0  0  0
 25 78  1  0  0  0  0
 26 79  1  0  0  0  0
 27 59  2  0  0  0  0
 28 55  1  0  0  0  0
 28 60  1  0  0  0  0
 29 61  1  0  0  0  0
 29 66  1  0  0  0  0
 30 39  1  0  0  0  0
 30 60  1  0  0  0  0
 30 62  2  0  0  0  0
 31 67  1  0  0  0  0
 31 71  2  0  0  0  0
 32 48  1  0  0  0  0
 32 68  1  0  0  0  0
 32 72  2  0  0  0  0
 33 56  1  0  0  0  0
 33 63  1  0  0  0  0
 33 73  2  0  0  0  0
 34 57  1  0  0  0  0
 34 69  1  0  0  0  0
 34 74  2  0  0  0  0
 35 64  1  0  0  0  0
 35 65  1  0  0  0  0
 35 75  2  0  0  0  0
 36 40  1  0  0  0  0
 37 48  1  0  0  0  0
 38 63  1  0  0  0  0
 39 64  1  0  0  0  0
 40 42  1  0  0  0  0
 41 43  1  0  0  0  0
 41 44  1  0  0  0  0
 42 47  1  0  0  0  0
 43 49  1  0  0  0  0
 44 65  1  0  0  0  0
 45 49  1  0  0  0  0
 45 65  1  0  0  0  0
 46 60  1  0  0  0  0
 46 64  1  0  0  0  0
 47 68  1  0  0  0  0
 48 63  1  0  0  0  0
 49 61  1  0  0  0  0
 50 57  1  0  0  0  0
 51 58  1  0  0  0  0
 52 58  1  0  0  0  0
 53 58  1  0  0  0  0
 54 70  1  0  0  0  0
 55 77  1  0  0  0  0
 56 58  1  0  0  0  0
 56 69  1  0  0  0  0
 57 70  1  0  0  0  0
 59 61  1  0  0  0  0
M  CHG  2  62   1  70   1
M  ISO  4  35 100  55 101  64 100  77 101
M  END
> <Batch ID>
0181

> <Smiles>
CNC(C)C(=O)NC(C(=O)N1Cc2cc([101O:1][101CH2:1]c3cnc4n3C[100N:0]([100C:0](=O)N3CCCC(n5nc(-c6ccc(Oc7ccc(F)cc7F)cc6)c(C(N)=O)c5N)C3)C4)ccc2CC1C(=O)NC1CCCc2ccccc21)C(C)(C)C

> <Shape>
0.315

> <Color>
0.069

> <Negative vol penalty>
0.000

$$$$

  -OEChem-04052323023D

 85 94  0     1  0  0  0  0  0999 V2000
  -30.2619  -35.3303   25.4895 C   0  0  0  0  0  0  0  0  0  0  0  0
  -30.4807  -34.3671   24.5098 C   0  0  0  0  0  0  0  0  0  0  0  0
  -24.5873   -8.7868   21.0609 C   0  0  0  0  0  0  0  0  0  0  0  0
  -22.7210  -10.2094   20.4863 C   0  0  0  0  0  0  0  0  0  0  0  0
  -29.1783  -35.2060   26.3580 C   0  0  0  0  0  0  0  0  0  0  0  0
  -29.6166  -33.2783   24.3988 C   0  0  0  0  0  0  0  0  0  0  0  0
  -26.7903  -28.8700   19.5106 C   0  0  0  0  0  0  0  0  0  0  0  0
  -23.7067   -7.7373   21.3227 C   0  0  0  0  0  0  0  0  0  0  0  0
  -21.8403   -9.1598   20.7481 C   0  0  0  0  0  0  0  0  0  0  0  0
  -26.6356  -27.5094   19.2486 C   0  0  0  0  0  0  0  0  0  0  0  0
  -21.6362   -6.7878   23.8199 C   0  0  0  0  0  0  0  0  0  0  0  0
  -21.8420   -6.0448   24.9823 C   0  0  0  0  0  0  0  0  0  0  0  0
  -24.7510  -27.4401   20.7529 C   0  0  0  0  0  0  0  0  0  0  0  0
  -22.1307   -4.0472   23.6543 C   0  0  0  0  0  0  0  0  0  0  0  0
  -26.2167  -22.3405   19.3990 C   0  0  0  0  0  0  0  0  0  0  0  0
  -24.0944  -10.0229   20.6427 C   0  0  0  0  0  0  0  0  0  0  0  0
  -25.6171  -11.4167   19.1439 C   0  0  0  0  0  0  0  0  0  0  0  0
  -28.2949  -34.1202   26.2513 C   0  0  0  0  0  0  0  0  0  0  0  0
  -25.9318  -29.5246   20.4055 C   0  0  0  0  0  0  0  0  0  0  0  0
  -28.5209  -33.1387   25.2675 C   0  0  0  0  0  0  0  0  0  0  0  0
  -24.8953  -28.8096   21.0225 C   0  0  0  0  0  0  0  0  0  0  0  0
  -22.3333   -7.9237   21.1663 C   0  0  0  0  0  0  0  0  0  0  0  0
  -25.6177  -26.7936   19.8720 C   0  0  0  0  0  0  0  0  0  0  0  0
  -21.6775   -6.1605   22.5747 C   0  0  0  0  0  0  0  0  0  0  0  0
  -22.0893   -4.6745   24.8995 C   0  0  0  0  0  0  0  0  0  0  0  0
  -21.9248   -4.7902   22.4919 C   0  0  0  0  0  0  0  0  0  0  0  0
  -25.0035  -11.1077   20.3726 C   0  0  0  0  0  0  0  0  0  0  0  0
  -25.7006  -21.2458   18.7496 C   0  0  0  0  0  0  0  0  0  0  0  0
  -26.0078  -23.4095   18.5072 C   0  0  0  0  0  0  0  0  0  0  0  0
  -26.3802  -12.5271   19.4108 C   0  0  0  0  0  0  0  0  0  0  0  0
  -25.5070  -10.7589   17.8747 C   0  0  0  0  0  0  0  0  0  0  0  0
  -26.3110  -31.0501   23.1682 C   0  0  0  0  0  0  0  0  0  0  0  0
  -23.1651  -31.7364   22.7744 C   0  0  0  0  0  0  0  0  0  0  0  0
  -20.1726  -30.9021   21.3618 C   0  0  0  0  0  0  0  0  0  0  0  0
  -26.9687  -17.5361   21.7902 C   0  0  0  0  0  0  0  0  0  0  0  0
  -27.1647  -34.0038   27.2431 C   0  0  0  0  0  0  0  0  0  0  0  0
  -26.0952  -30.9985   20.6569 C   0  0  0  0  0  0  0  0  0  0  0  0
  -23.9344  -29.4701   21.9759 C   0  0  0  0  0  0  0  0  0  0  0  0
  -26.0804  -33.0169   26.8179 C   0  0  0  0  0  0  0  0  0  0  0  0
  -27.6499  -14.6967   23.7792 C   0  0  0  0  0  0  0  0  0  0  0  0
  -26.7060  -31.7149   26.3280 C   0  0  0  0  0  0  0  0  0  0  0  0
  -27.0471  -13.5344   22.9950 C   0  0  0  0  0  0  0  0  0  0  0  0
  -24.3705  -19.3774   19.9700 C   0  0  0  0  0  0  0  0  0  0  0  0
  -26.7759  -15.9383   23.6637 C   0  0  0  0  0  0  0  0  0  0  0  0
  -24.7780  -18.0331   20.5579 C   0  0  0  0  0  0  0  0  0  0  0  0
  -26.7411  -19.3272   20.0955 C   0  0  0  0  0  0  0  0  0  0  0  0
  -25.9634  -15.2289   21.4306 C   0  0  0  0  0  0  0  0  0  0  0  0
  -27.5915  -31.9563   25.0995 C   0  0  1  0  0  0  0  0  0  0  0  0
  -25.6124  -19.7940   19.1654 C   0  0  2  0  0  0  0  0  0  0  0  0
  -25.4837  -31.4505   21.9795 C   0  0  1  0  0  0  0  0  0  0  0  0
  -26.8010  -13.9374   21.5328 C   0  0  2  0  0  0  0  0  0  0  0  0
  -17.7737  -31.6310   21.2541 C   0  0  0  0  0  0  0  0  0  0  0  0
  -24.8960  -19.8039   14.2802 C   0  0  0  0  0  0  0  0  0  0  0  0
  -22.6950  -30.5928   25.5639 C   0  0  0  0  0  0  0  0  0  0  0  0
  -20.2533  -30.4669   25.0248 C   0  0  0  0  0  0  0  0  0  0  0  0
  -21.4085  -32.6776   25.0606 C   0  0  0  0  0  0  0  0  0  0  0  0
  -20.3140  -31.3337   18.4373 C   0  0  0  0  0  0  0  0  0  0  0  0
  -26.3702  -24.8236   18.7010 C   0  0  0  0  0  0  0  0  0  1  0  0
  -24.5968  -20.9336   16.5139 C   0  0  0  0  0  0  0  0  0  0  0  0
  -21.8684  -31.0693   23.1648 C   0  0  1  0  0  0  0  0  0  0  0  0
  -19.1475  -31.7317   20.6098 C   0  0  2  0  0  0  0  0  0  0  0  0
  -25.5527  -20.6484   15.3575 C   0  0  1  0  0  0  0  0  0  0  0  0
  -21.5754  -31.1885   24.6871 C   0  0  0  0  0  0  0  0  0  0  0  0
  -25.3472  -11.9533   21.3477 N   0  0  0  0  0  0  0  0  0  0  0  0
  -25.4061  -23.0284   17.3773 N   0  0  0  0  0  0  0  0  0  0  0  0
  -25.2326  -21.7076   17.5547 N   0  0  0  0  0  0  0  0  0  0  0  0
  -26.1852  -12.8046   20.7318 N   0  0  0  0  0  0  0  0  0  0  0  0
  -24.1392  -30.9116   22.1940 N   0  0  0  0  0  0  0  0  0  0  0  0
  -26.5239  -16.2981   22.2671 N   0  0  0  0  0  0  0  0  0  0  0  0
  -26.2134  -18.1631   20.7999 N   0  0  0  0  0  0  0  0  0  0  0  0
  -27.1923  -13.2833   18.6420 N   0  0  0  0  0  0  0  0  0  0  0  0
  -24.6795   -9.6321   17.7757 N   0  0  0  0  0  0  0  0  0  0  0  0
  -26.7778  -32.1160   23.9135 N   0  0  0  0  0  0  0  0  0  0  0  0
  -20.8376  -31.6494   22.3107 N   0  0  0  0  0  0  0  0  0  0  0  0
  -19.0398  -31.2667   19.1980 N   0  3  0  0  0  0  0  0  0  0  0  0
  -26.1370  -11.1488   16.8624 O   0  0  0  0  0  0  0  0  0  0  0  0
  -26.5097  -29.8621   23.3935 O   0  0  0  0  0  0  0  0  0  0  0  0
  -23.3059  -32.9461   22.9704 O   0  0  0  0  0  0  0  0  0  0  0  0
  -20.3616  -29.7094   21.1331 O   0  0  0  0  0  0  0  0  0  0  0  0
  -27.9776  -18.0806   22.2586 O   0  0  0  0  0  0  0  0  0  0  0  0
  -21.4737   -6.8997   21.4215 O   0  0  0  0  0  0  0  0  0  0  0  0
  -25.4624  -25.4423   19.6142 O   0  0  0  0  0  0  0  0  0  1  0  0
  -22.2885   -3.9614   26.0157 F   0  0  0  0  0  0  0  0  0  0  0  0
  -21.9669   -4.1823   21.2984 F   0  0  0  0  0  0  0  0  0  0  0  0
  -26.6212  -19.9499   15.8371 F   0  0  0  0  0  0  0  0  0  0  0  0
  1  2  1  0  0  0  0
  1  5  2  0  0  0  0
  2  6  2  0  0  0  0
  3  8  2  0  0  0  0
  3 16  1  0  0  0  0
  4  9  1  0  0  0  0
  4 16  2  0  0  0  0
  5 18  1  0  0  0  0
  6 20  1  0  0  0  0
  7 10  2  0  0  0  0
  7 19  1  0  0  0  0
  8 22  1  0  0  0  0
  9 22  2  0  0  0  0
 10 23  1  0  0  0  0
 11 12  2  0  0  0  0
 11 24  1  0  0  0  0
 12 25  1  0  0  0  0
 13 21  1  0  0  0  0
 13 23  2  0  0  0  0
 14 25  2  0  0  0  0
 14 26  1  0  0  0  0
 15 28  2  0  0  0  0
 15 29  1  0  0  0  0
 16 27  1  0  0  0  0
 17 27  1  0  0  0  0
 17 30  2  0  0  0  0
 17 31  1  0  0  0  0
 18 20  2  0  0  0  0
 18 36  1  0  0  0  0
 19 21  2  0  0  0  0
 19 37  1  0  0  0  0
 20 48  1  0  0  0  0
 21 38  1  0  0  0  0
 22 81  1  0  0  0  0
 23 82  1  0  0  0  0
 24 26  2  0  0  0  0
 24 81  1  0  0  0  0
 25 83  1  0  0  0  0
 26 84  1  0  0  0  0
 27 64  2  0  0  0  0
 28 49  1  0  0  0  0
 28 66  1  0  0  0  0
 29 58  1  0  0  0  0
 29 65  2  0  0  0  0
 30 67  1  0  0  0  0
 30 71  1  0  0  0  0
 31 72  1  0  0  0  0
 31 76  2  0  0  0  0
 32 50  1  0  0  0  0
 32 73  1  0  0  0  0
 32 77  2  0  0  0  0
 33 60  1  0  0  0  0
 33 68  1  0  0  0  0
 33 78  2  0  0  0  0
 34 61  1  0  0  0  0
 34 74  1  0  0  0  0
 34 79  2  0  0  0  0
 35 69  1  0  0  0  0
 35 70  1  0  0  0  0
 35 80  2  0  0  0  0
 36 39  1  0  0  0  0
 37 50  1  0  0  0  0
 38 68  1  0  0  0  0
 39 41  1  0  0  0  0
 40 42  1  0  0  0  0
 40 44  1  0  0  0  0
 41 48  1  0  0  0  0
 42 51  1  0  0  0  0
 43 45  1  0  0  0  0
 43 49  1  0  0  0  0
 44 69  1  0  0  0  0
 45 70  1  0  0  0  0
 46 49  1  0  0  0  0
 46 70  1  0  0  0  0
 47 51  1  0  0  0  0
 47 69  1  0  0  0  0
 48 73  1  0  0  0  0
 50 68  1  0  0  0  0
 51 67  1  0  0  0  0
 52 61  1  0  0  0  0
 53 62  1  0  0  0  0
 54 63  1  0  0  0  0
 55 63  1  0  0  0  0
 56 63  1  0  0  0  0
 57 75  1  0  0  0  0
 58 82  1  0  0  0  0
 59 62  1  0  0  0  0
 59 66  1  0  0  0  0
 60 63  1  0  0  0  0
 60 74  1  0  0  0  0
 61 75  1  0  0  0  0
 62 85  1  0  0  0  0
 64 67  1  0  0  0  0
 65 66  1  0  0  0  0
M  CHG  1  75   1
M  ISO  4  35 100  58 101  70 100  82 101
M  END
> <Batch ID>
0181

> <Smiles>
CNC(C)C(=O)NC(C(=O)N1Cc2cc([101O:1][101CH2:1]c3cc(C4CC[100N:0]([100C:0](=O)N5CCCC(n6nc(-c7ccc(Oc8ccc(F)cc8F)cc7)c(C(N)=O)c6N)C5)C4)n(CC(C)F)n3)ccc2CC1C(=O)NC1CCCc2ccccc21)C(C)(C)C

> <Shape>
0.237

> <Color>
0.110

> <Negative vol penalty>
0.000

$$$$

  -OEChem-04052323023D

 85 95  0     1  0  0  0  0  0999 V2000
  -17.1872  -23.0055   23.2153 C   0  0  0  0  0  0  0  0  0  0  0  0
  -18.2609  -22.5914   22.4337 C   0  0  0  0  0  0  0  0  0  0  0  0
  -23.0998   -9.8438   20.0815 C   0  0  0  0  0  0  0  0  0  0  0  0
  -23.7673  -10.0662   22.3928 C   0  0  0  0  0  0  0  0  0  0  0  0
  -17.0190  -24.3587   23.5061 C   0  0  0  0  0  0  0  0  0  0  0  0
  -19.1666  -23.5305   21.9414 C   0  0  0  0  0  0  0  0  0  0  0  0
  -26.1779  -23.1137   23.5412 C   0  0  0  0  0  0  0  0  0  0  0  0
  -30.0781  -19.2333   22.7275 C   0  0  0  0  0  0  0  0  0  0  0  0
  -22.3516   -8.7123   20.4065 C   0  0  0  0  0  0  0  0  0  0  0  0
  -23.0191   -8.9348   22.7178 C   0  0  0  0  0  0  0  0  0  0  0  0
  -27.5639  -22.9817   23.6292 C   0  0  0  0  0  0  0  0  0  0  0  0
  -19.3512   -8.0279   21.8071 C   0  0  0  0  0  0  0  0  0  0  0  0
  -18.0650   -7.9271   21.2770 C   0  0  0  0  0  0  0  0  0  0  0  0
  -29.6259  -17.9616   22.3934 C   0  0  0  0  0  0  0  0  0  0  0  0
  -27.8493  -25.0403   22.3928 C   0  0  0  0  0  0  0  0  0  0  0  0
  -18.6857   -5.8759   20.1613 C   0  0  0  0  0  0  0  0  0  0  0  0
  -32.1325  -18.7320   21.6393 C   0  0  0  0  0  0  0  0  0  0  0  0
  -23.8077  -10.5207   21.0747 C   0  0  0  0  0  0  0  0  0  0  0  0
  -24.1430  -13.0270   20.7376 C   0  0  0  0  0  0  0  0  0  0  0  0
  -31.3541  -19.6336   22.3470 C   0  0  0  0  0  0  0  0  0  0  0  0
  -17.9285  -25.3138   23.0251 C   0  0  0  0  0  0  0  0  0  0  0  0
  -25.6216  -24.2189   22.8912 C   0  0  0  0  0  0  0  0  0  0  0  0
  -19.0097  -24.8979   22.2249 C   0  0  0  0  0  0  0  0  0  0  0  0
  -26.4616  -25.1844   22.3124 C   0  0  0  0  0  0  0  0  0  0  0  0
  -22.3112   -8.2578   21.7246 C   0  0  0  0  0  0  0  0  0  0  0  0
  -28.3975  -23.9425   23.0562 C   0  0  0  0  0  0  0  0  0  0  0  0
  -20.3047   -7.0528   21.5143 C   0  0  0  0  0  0  0  0  0  0  0  0
  -17.7322   -6.8511   20.4541 C   0  0  0  0  0  0  0  0  0  0  0  0
  -19.9719   -5.9768   20.6914 C   0  0  0  0  0  0  0  0  0  0  0  0
  -24.5813  -11.6892   20.7396 C   0  0  0  0  0  0  0  0  0  0  0  0
  -30.4816  -17.1349   21.6834 C   0  0  0  0  0  0  0  0  0  0  0  0
  -25.2455  -13.7489   20.3506 C   0  0  0  0  0  0  0  0  0  0  0  0
  -22.8545  -13.5687   21.0571 C   0  0  0  0  0  0  0  0  0  0  0  0
  -22.5066  -26.0287   21.8436 C   0  0  0  0  0  0  0  0  0  0  0  0
  -24.5035  -28.1607   22.7804 C   0  0  0  0  0  0  0  0  0  0  0  0
  -26.8274  -30.1523   24.2871 C   0  0  0  0  0  0  0  0  0  0  0  0
  -30.6957  -14.8500   20.6443 C   0  0  0  0  0  0  0  0  0  0  0  0
  -17.6787  -26.7703   23.3263 C   0  0  0  0  0  0  0  0  0  0  0  0
  -24.1346  -24.3703   22.7189 C   0  0  0  0  0  0  0  0  0  0  0  0
  -25.8190  -26.3387   21.5929 C   0  0  0  0  0  0  0  0  0  0  0  0
  -18.8935  -27.6607   23.0781 C   0  0  0  0  0  0  0  0  0  0  0  0
  -29.6876  -12.2211   18.4649 C   0  0  0  0  0  0  0  0  0  0  0  0
  -19.5288  -27.3334   21.7305 C   0  0  0  0  0  0  0  0  0  0  0  0
  -28.2332  -11.9585   18.8622 C   0  0  0  0  0  0  0  0  0  0  0  0
  -33.1349  -21.0450   23.5565 C   0  0  0  0  0  0  0  0  0  0  0  0
  -31.8166  -21.3873   24.1739 C   0  0  0  0  0  0  0  0  0  0  0  0
  -30.5528  -12.5660   19.6757 C   0  0  0  0  0  0  0  0  0  0  0  0
  -28.5890  -13.3983   20.9085 C   0  0  0  0  0  0  0  0  0  0  0  0
  -32.5419  -23.6270   20.6073 C   0  0  0  0  0  0  0  0  0  0  0  0
  -20.0273  -25.8837   21.6931 C   0  0  1  0  0  0  0  0  0  0  0  0
  -23.6666  -25.8356   22.7755 C   0  0  1  0  0  0  0  0  0  0  0  0
  -31.8028  -23.5430   21.9557 C   0  0  2  0  0  0  0  0  0  0  0  0
  -27.6648  -13.1104   19.7141 C   0  0  2  0  0  0  0  0  0  0  0  0
  -31.6424  -22.0393   21.6290 C   0  0  2  0  0  0  0  0  0  0  0  0
  -31.8704  -20.9993   22.6928 C   0  0  0  0  0  0  0  0  0  0  0  0
  -27.2727  -32.5454   24.8968 C   0  0  0  0  0  0  0  0  0  0  0  0
  -25.1834  -28.7718   19.8704 C   0  0  0  0  0  0  0  0  0  0  0  0
  -26.4783  -30.7618   20.6649 C   0  0  0  0  0  0  0  0  0  0  0  0
  -24.0228  -30.6260   21.0824 C   0  0  0  0  0  0  0  0  0  0  0  0
  -26.9411  -29.5165   27.1753 C   0  0  0  0  0  0  0  0  0  0  0  0
  -30.5298  -24.3534   22.0857 C   0  0  0  0  0  0  0  0  0  1  0  0
  -25.5873  -29.1352   22.3944 C   0  0  1  0  0  0  0  0  0  0  0  0
  -26.6976  -31.2166   25.3617 C   0  0  2  0  0  0  0  0  0  0  0  0
  -25.3241  -29.7976   21.0126 C   0  0  0  0  0  0  0  0  0  0  0  0
  -31.7278  -17.4885   21.2965 N   0  0  0  0  0  0  0  0  0  0  0  0
  -25.8623  -11.5657   20.3820 N   0  0  0  0  0  0  0  0  0  0  0  0
  -26.2384  -12.8352   20.1517 N   0  0  0  0  0  0  0  0  0  0  0  0
  -24.6685  -26.8339   22.3648 N   0  0  0  0  0  0  0  0  0  0  0  0
  -29.9547  -13.6681   20.4323 N   0  0  0  0  0  0  0  0  0  0  0  0
  -25.4528  -15.0698   20.1644 N   0  0  0  0  0  0  0  0  0  0  0  0
  -21.8339  -12.6860   21.4360 N   0  0  0  0  0  0  0  0  0  0  0  0
  -30.0120  -15.8406   21.3484 N   0  0  0  0  0  0  0  0  0  0  0  0
  -21.2766  -25.7600   22.4131 N   0  0  0  0  0  0  0  0  0  0  0  0
  -25.6980  -30.0814   23.4993 N   0  0  0  0  0  0  0  0  0  0  0  0
  -32.7999  -22.1802   20.7121 N   0  3  0  0  0  0  0  0  0  0  0  0
  -27.4205  -30.7976   26.5957 N   0  3  0  0  0  0  0  0  0  0  0  0
  -22.6108  -14.7975   20.9922 O   0  0  0  0  0  0  0  0  0  0  0  0
  -22.7110  -26.3960   20.6925 O   0  0  0  0  0  0  0  0  0  0  0  0
  -23.5329  -28.5635   23.4278 O   0  0  0  0  0  0  0  0  0  0  0  0
  -27.8319  -29.4561   24.1569 O   0  0  0  0  0  0  0  0  0  0  0  0
  -31.8419  -14.9844   20.2081 O   0  0  0  0  0  0  0  0  0  0  0  0
  -21.5810   -7.1539   22.0420 O   0  0  0  0  0  0  0  0  0  0  0  0
  -29.7496  -23.8097   23.1497 O   0  0  0  0  0  0  0  0  0  1  0  0
  -16.4966   -6.7535   19.9463 F   0  0  0  0  0  0  0  0  0  0  0  0
  -20.8834   -5.0363   20.4075 F   0  0  0  0  0  0  0  0  0  0  0  0
  1  2  1  0  0  0  0
  1  5  2  0  0  0  0
  2  6  2  0  0  0  0
  3  9  2  0  0  0  0
  3 18  1  0  0  0  0
  4 10  1  0  0  0  0
  4 18  2  0  0  0  0
  5 21  1  0  0  0  0
  6 23  1  0  0  0  0
  7 11  2  0  0  0  0
  7 22  1  0  0  0  0
  8 14  2  0  0  0  0
  8 20  1  0  0  0  0
  9 25  1  0  0  0  0
 10 25  2  0  0  0  0
 11 26  1  0  0  0  0
 12 13  2  0  0  0  0
 12 27  1  0  0  0  0
 13 28  1  0  0  0  0
 14 31  1  0  0  0  0
 15 24  1  0  0  0  0
 15 26  2  0  0  0  0
 16 28  2  0  0  0  0
 16 29  1  0  0  0  0
 17 20  2  0  0  0  0
 17 65  1  0  0  0  0
 18 30  1  0  0  0  0
 19 30  1  0  0  0  0
 19 32  2  0  0  0  0
 19 33  1  0  0  0  0
 20 55  1  0  0  0  0
 21 23  2  0  0  0  0
 21 38  1  0  0  0  0
 22 24  2  0  0  0  0
 22 39  1  0  0  0  0
 23 50  1  0  0  0  0
 24 40  1  0  0  0  0
 25 82  1  0  0  0  0
 26 83  1  0  0  0  0
 27 29  2  0  0  0  0
 27 82  1  0  0  0  0
 28 84  1  0  0  0  0
 29 85  1  0  0  0  0
 30 66  2  0  0  0  0
 31 65  2  0  0  0  0
 31 72  1  0  0  0  0
 32 67  1  0  0  0  0
 32 70  1  0  0  0  0
 33 71  1  0  0  0  0
 33 77  2  0  0  0  0
 34 51  1  0  0  0  0
 34 73  1  0  0  0  0
 34 78  2  0  0  0  0
 35 62  1  0  0  0  0
 35 68  1  0  0  0  0
 35 79  2  0  0  0  0
 36 63  1  0  0  0  0
 36 74  1  0  0  0  0
 36 80  2  0  0  0  0
 37 69  1  0  0  0  0
 37 72  1  0  0  0  0
 37 81  2  0  0  0  0
 38 41  1  0  0  0  0
 39 51  1  0  0  0  0
 40 68  1  0  0  0  0
 41 43  1  0  0  0  0
 42 44  1  0  0  0  0
 42 47  1  0  0  0  0
 43 50  1  0  0  0  0
 44 53  1  0  0  0  0
 45 46  1  0  0  0  0
 45 55  1  0  0  0  0
 46 55  1  0  0  0  0
 47 69  1  0  0  0  0
 48 53  1  0  0  0  0
 48 69  1  0  0  0  0
 49 52  1  0  0  0  0
 49 75  1  0  0  0  0
 50 73  1  0  0  0  0
 51 68  1  0  0  0  0
 52 54  1  0  0  0  0
 52 61  1  0  0  0  0
 53 67  1  0  0  0  0
 54 55  1  0  0  0  0
 54 75  1  0  0  0  0
 56 63  1  0  0  0  0
 57 64  1  0  0  0  0
 58 64  1  0  0  0  0
 59 64  1  0  0  0  0
 60 76  1  0  0  0  0
 61 83  1  0  0  0  0
 62 64  1  0  0  0  0
 62 74  1  0  0  0  0
 63 76  1  0  0  0  0
 66 67  1  0  0  0  0
M  CHG  2  75   1  76   1
M  ISO  4  37 100  61 101  72 100  83 101
M  END
> <Batch ID>
0181

> <Smiles>
CNC(C)C(=O)NC(C(=O)N1Cc2cc([101O:1][101CH2:1]C3CNC3C3(c4ccc([100NH:0][100C:0](=O)N5CCCC(n6nc(-c7ccc(Oc8ccc(F)cc8F)cc7)c(C(N)=O)c6N)C5)nc4)CC3)ccc2CC1C(=O)NC1CCCc2ccccc21)C(C)(C)C

> <Shape>
0.276

> <Color>
0.202

> <Negative vol penalty>
0.000

$$$$

  -OEChem-04052323023D

 82 91  0     1  0  0  0  0  0999 V2000
  -21.9846  -12.4679   19.3654 C   0  0  0  0  0  0  0  0  0  0  0  0
  -21.8555  -13.8374   19.5733 C   0  0  0  0  0  0  0  0  0  0  0  0
  -28.9817  -28.7221   19.6239 C   0  0  0  0  0  0  0  0  0  0  0  0
  -28.9403  -27.2866   21.5668 C   0  0  0  0  0  0  0  0  0  0  0  0
  -23.1607  -11.8159   19.7337 C   0  0  0  0  0  0  0  0  0  0  0  0
  -22.9021  -14.5555   20.1506 C   0  0  0  0  0  0  0  0  0  0  0  0
  -23.8224  -18.9176   17.7484 C   0  0  0  0  0  0  0  0  0  0  0  0
  -30.3234  -29.0144   19.8684 C   0  0  0  0  0  0  0  0  0  0  0  0
  -30.2822  -27.5788   21.8112 C   0  0  0  0  0  0  0  0  0  0  0  0
  -22.9592  -19.9814   18.0072 C   0  0  0  0  0  0  0  0  0  0  0  0
  -33.8588  -29.8553   19.7737 C   0  0  0  0  0  0  0  0  0  0  0  0
  -34.7354  -29.8335   18.6889 C   0  0  0  0  0  0  0  0  0  0  0  0
  -24.5745  -20.9116   19.5384 C   0  0  0  0  0  0  0  0  0  0  0  0
  -34.2013  -27.5088   18.3043 C   0  0  0  0  0  0  0  0  0  0  0  0
  -28.2901  -27.8583   20.4732 C   0  0  0  0  0  0  0  0  0  0  0  0
  -26.3914  -26.5070   19.4355 C   0  0  0  0  0  0  0  0  0  0  0  0
  -24.2260  -12.5281   20.3069 C   0  0  0  0  0  0  0  0  0  0  0  0
  -25.0656  -18.8369   18.3920 C   0  0  0  0  0  0  0  0  0  0  0  0
  -24.0930  -13.9122   20.5281 C   0  0  0  0  0  0  0  0  0  0  0  0
  -25.4527  -19.8471   19.2841 C   0  0  0  0  0  0  0  0  0  0  0  0
  -30.9737  -28.4427   20.9620 C   0  0  0  0  0  0  0  0  0  0  0  0
  -23.3340  -20.9771   18.9045 C   0  0  0  0  0  0  0  0  0  0  0  0
  -33.1536  -28.7039   20.1239 C   0  0  0  0  0  0  0  0  0  0  0  0
  -34.9066  -28.6602   17.9542 C   0  0  0  0  0  0  0  0  0  0  0  0
  -33.3248  -27.5307   19.3891 C   0  0  0  0  0  0  0  0  0  0  0  0
  -26.9038  -27.5564   20.2215 C   0  0  0  0  0  0  0  0  0  0  0  0
  -19.5964  -25.2710   18.6721 C   0  0  0  0  0  0  0  0  0  0  0  0
  -19.2901  -24.7381   19.8922 C   0  0  0  0  0  0  0  0  0  0  0  0
  -25.0280  -26.6525   19.5150 C   0  0  0  0  0  0  0  0  0  0  0  0
  -20.4768  -23.2534   18.8620 C   0  0  0  0  0  0  0  0  0  0  0  0
  -27.0858  -25.4914   18.6993 C   0  0  0  0  0  0  0  0  0  0  0  0
  -26.4292  -16.7715   20.3866 C   0  0  0  0  0  0  0  0  0  0  0  0
  -29.0280  -18.6629   19.9499 C   0  0  0  0  0  0  0  0  0  0  0  0
  -30.2727  -21.7272   19.1086 C   0  0  0  0  0  0  0  0  0  0  0  0
  -20.3998  -27.5987   22.4866 C   0  0  0  0  0  0  0  0  0  0  0  0
  -25.4596  -11.7717   20.7321 C   0  0  0  0  0  0  0  0  0  0  0  0
  -25.9965  -17.6969   18.0817 C   0  0  0  0  0  0  0  0  0  0  0  0
  -26.7851  -19.8176   19.9858 C   0  0  0  0  0  0  0  0  0  0  0  0
  -19.4175  -26.4526   17.8144 C   0  0  0  0  0  0  0  0  0  0  0  0
  -26.6652  -12.6706   20.9939 C   0  0  0  0  0  0  0  0  0  0  0  0
  -19.8633  -25.9028   16.4318 C   0  0  0  0  0  0  0  0  0  0  0  0
  -22.2229  -30.4392   21.3532 C   0  0  0  0  0  0  0  0  0  0  0  0
  -26.2622  -13.8694   21.8467 C   0  0  0  0  0  0  0  0  0  0  0  0
  -23.5625  -29.8567   20.8991 C   0  0  0  0  0  0  0  0  0  0  0  0
  -20.7687  -24.6888   16.7221 C   0  0  0  0  0  0  0  0  0  0  0  0
  -21.6815  -29.7162   22.5846 C   0  0  0  0  0  0  0  0  0  0  0  0
  -22.9194  -27.6687   21.9937 C   0  0  0  0  0  0  0  0  0  0  0  0
  -25.2156  -14.7302   21.1289 C   0  0  1  0  0  0  0  0  0  0  0  0
  -27.0226  -17.4468   19.1826 C   0  0  1  0  0  0  0  0  0  0  0  0
  -23.4782  -28.3288   20.7215 C   0  0  2  0  0  0  0  0  0  0  0  0
  -31.9915  -23.4741   18.5687 C   0  0  0  0  0  0  0  0  0  0  0  0
  -29.2028  -18.9101   22.9861 C   0  0  0  0  0  0  0  0  0  0  0  0
  -30.7259  -20.8717   22.6690 C   0  0  0  0  0  0  0  0  0  0  0  0
  -31.4039  -18.6208   21.8345 C   0  0  0  0  0  0  0  0  0  0  0  0
  -30.2777  -21.0016   16.2394 C   0  0  0  0  0  0  0  0  0  0  0  0
  -18.5024  -25.3178   20.9883 C   0  0  0  0  0  0  0  0  0  0  0  0
  -21.2424  -22.0232   18.4724 C   0  0  0  0  0  0  0  0  0  1  0  0
  -19.2513  -25.4039   22.3341 C   0  0  0  0  0  0  0  0  0  0  0  0
  -29.5816  -19.8925   20.6286 C   0  0  1  0  0  0  0  0  0  0  0  0
  -31.3903  -22.1364   18.1663 C   0  0  2  0  0  0  0  0  0  0  0  0
  -30.2025  -19.5736   22.0180 C   0  0  0  0  0  0  0  0  0  0  0  0
  -25.9441  -28.3129   20.7607 N   0  0  0  0  0  0  0  0  0  0  0  0
  -19.8461  -23.4717   20.0042 N   0  0  0  0  0  0  0  0  0  0  0  0
  -20.3449  -24.3183   18.0542 N   0  0  0  0  0  0  0  0  0  0  0  0
  -24.8149  -27.7382   20.3126 N   0  0  0  0  0  0  0  0  0  0  0  0
  -27.6576  -18.6792   19.6540 N   0  0  0  0  0  0  0  0  0  0  0  0
  -21.6253  -28.2713   22.3500 N   0  0  0  0  0  0  0  0  0  0  0  0
  -24.0026  -25.9565   18.9798 N   0  0  0  0  0  0  0  0  0  0  0  0
  -28.4871  -25.4874   18.7252 N   0  0  0  0  0  0  0  0  0  0  0  0
  -25.8443  -15.5494   20.1150 N   0  0  0  0  0  0  0  0  0  0  0  0
  -30.5132  -20.4967   19.6823 N   0  0  0  0  0  0  0  0  0  0  0  0
  -20.4332  -26.2316   22.2402 N   0  0  0  0  0  0  0  0  0  0  0  0
  -30.8761  -22.2525   16.7723 N   0  3  0  0  0  0  0  0  0  0  0  0
  -26.4819  -24.6232   18.0247 O   0  0  0  0  0  0  0  0  0  0  0  0
  -26.4982  -17.3180   21.4812 O   0  0  0  0  0  0  0  0  0  0  0  0
  -29.7851  -17.7257   19.6853 O   0  0  0  0  0  0  0  0  0  0  0  0
  -29.2868  -22.4307   19.3179 O   0  0  0  0  0  0  0  0  0  0  0  0
  -19.3523  -28.1747   22.7994 O   0  0  0  0  0  0  0  0  0  0  0  0
  -32.2831  -28.7275   21.2007 O   0  0  0  0  0  0  0  0  0  0  0  0
  -22.4931  -22.0162   19.1594 O   0  0  0  0  0  0  0  0  0  1  0  0
  -35.7472  -28.6398   16.9115 F   0  0  0  0  0  0  0  0  0  0  0  0
  -32.6491  -26.4217   19.7200 F   0  0  0  0  0  0  0  0  0  0  0  0
  1  2  1  0  0  0  0
  1  5  2  0  0  0  0
  2  6  2  0  0  0  0
  3  8  2  0  0  0  0
  3 15  1  0  0  0  0
  4  9  1  0  0  0  0
  4 15  2  0  0  0  0
  5 17  1  0  0  0  0
  6 19  1  0  0  0  0
  7 10  2  0  0  0  0
  7 18  1  0  0  0  0
  8 21  1  0  0  0  0
  9 21  2  0  0  0  0
 10 22  1  0  0  0  0
 11 12  2  0  0  0  0
 11 23  1  0  0  0  0
 12 24  1  0  0  0  0
 13 20  1  0  0  0  0
 13 22  2  0  0  0  0
 14 24  2  0  0  0  0
 14 25  1  0  0  0  0
 15 26  1  0  0  0  0
 16 26  1  0  0  0  0
 16 29  2  0  0  0  0
 16 31  1  0  0  0  0
 17 19  2  0  0  0  0
 17 36  1  0  0  0  0
 18 20  2  0  0  0  0
 18 37  1  0  0  0  0
 19 48  1  0  0  0  0
 20 38  1  0  0  0  0
 21 79  1  0  0  0  0
 22 80  1  0  0  0  0
 23 25  2  0  0  0  0
 23 79  1  0  0  0  0
 24 81  1  0  0  0  0
 25 82  1  0  0  0  0
 26 62  2  0  0  0  0
 27 28  2  0  0  0  0
 27 39  1  0  0  0  0
 27 64  1  0  0  0  0
 28 56  1  0  0  0  0
 28 63  1  0  0  0  0
 29 65  1  0  0  0  0
 29 68  1  0  0  0  0
 30 57  1  0  0  0  0
 30 63  2  0  0  0  0
 30 64  1  0  0  0  0
 31 69  1  0  0  0  0
 31 74  2  0  0  0  0
 32 49  1  0  0  0  0
 32 70  1  0  0  0  0
 32 75  2  0  0  0  0
 33 59  1  0  0  0  0
 33 66  1  0  0  0  0
 33 76  2  0  0  0  0
 34 60  1  0  0  0  0
 34 71  1  0  0  0  0
 34 77  2  0  0  0  0
 35 67  1  0  0  0  0
 35 72  1  0  0  0  0
 35 78  2  0  0  0  0
 36 40  1  0  0  0  0
 37 49  1  0  0  0  0
 38 66  1  0  0  0  0
 39 41  1  0  0  0  0
 40 43  1  0  0  0  0
 41 45  1  0  0  0  0
 42 44  1  0  0  0  0
 42 46  1  0  0  0  0
 43 48  1  0  0  0  0
 44 50  1  0  0  0  0
 45 64  1  0  0  0  0
 46 67  1  0  0  0  0
 47 50  1  0  0  0  0
 47 67  1  0  0  0  0
 48 70  1  0  0  0  0
 49 66  1  0  0  0  0
 50 65  1  0  0  0  0
 51 60  1  0  0  0  0
 52 61  1  0  0  0  0
 53 61  1  0  0  0  0
 54 61  1  0  0  0  0
 55 73  1  0  0  0  0
 56 58  1  0  0  0  0
 57 80  1  0  0  0  0
 58 72  1  0  0  0  0
 59 61  1  0  0  0  0
 59 71  1  0  0  0  0
 60 73  1  0  0  0  0
 62 65  1  0  0  0  0
M  CHG  1  73   1
M  ISO  4  35 100  57 101  72 100  80 101
M  END
> <Batch ID>
0181

> <Smiles>
CNC(C)C(=O)NC(C(=O)N1Cc2cc([101O:1][101CH2:1]c3nc(CC[100NH:0][100C:0](=O)N4CCCC(n5nc(-c6ccc(Oc7ccc(F)cc7F)cc6)c(C(N)=O)c5N)C4)c4n3CCC4)ccc2CC1C(=O)NC1CCCc2ccccc21)C(C)(C)C

> <Shape>
0.215

> <Color>
0.055

> <Negative vol penalty>
0.000

$$$$

  -OEChem-04052323023D

 84 93  0     1  0  0  0  0  0999 V2000
  -26.2089  -37.0386   16.5896 C   0  0  0  0  0  0  0  0  0  0  0  0
  -26.5703  -35.6970   16.5201 C   0  0  0  0  0  0  0  0  0  0  0  0
  -23.0689   -9.6787   21.6014 C   0  0  0  0  0  0  0  0  0  0  0  0
  -24.8155   -8.0362   21.8993 C   0  0  0  0  0  0  0  0  0  0  0  0
  -26.1240  -37.6732   17.8281 C   0  0  0  0  0  0  0  0  0  0  0  0
  -26.8482  -34.9895   17.6891 C   0  0  0  0  0  0  0  0  0  0  0  0
  -25.6604  -29.0829   18.7880 C   0  0  0  0  0  0  0  0  0  0  0  0
  -22.1703   -8.6637   21.2730 C   0  0  0  0  0  0  0  0  0  0  0  0
  -23.9168   -7.0211   21.5710 C   0  0  0  0  0  0  0  0  0  0  0  0
  -26.4552  -27.9391   18.7262 C   0  0  0  0  0  0  0  0  0  0  0  0
  -21.4311   -5.3093   23.0913 C   0  0  0  0  0  0  0  0  0  0  0  0
  -21.4274   -4.1658   23.8899 C   0  0  0  0  0  0  0  0  0  0  0  0
  -30.1980  -24.6226   18.8449 C   0  0  0  0  0  0  0  0  0  0  0  0
  -26.8723  -28.1083   21.0962 C   0  0  0  0  0  0  0  0  0  0  0  0
  -21.9888   -2.8191   21.9642 C   0  0  0  0  0  0  0  0  0  0  0  0
  -30.9016  -23.4410   18.9599 C   0  0  0  0  0  0  0  0  0  0  0  0
  -24.3915   -9.3650   21.9145 C   0  0  0  0  0  0  0  0  0  0  0  0
  -25.5883  -10.9301   23.5350 C   0  0  0  0  0  0  0  0  0  0  0  0
  -26.3916  -36.9706   19.0136 C   0  0  0  0  0  0  0  0  0  0  0  0
  -25.4742  -29.7554   20.0043 C   0  0  0  0  0  0  0  0  0  0  0  0
  -26.7682  -35.6157   18.9446 C   0  0  0  0  0  0  0  0  0  0  0  0
  -26.0727  -29.2590   21.1712 C   0  0  0  0  0  0  0  0  0  0  0  0
  -22.5943   -7.3349   21.2578 C   0  0  0  0  0  0  0  0  0  0  0  0
  -27.0636  -27.4533   19.8799 C   0  0  0  0  0  0  0  0  0  0  0  0
  -21.7136   -5.2078   21.7291 C   0  0  0  0  0  0  0  0  0  0  0  0
  -21.7063   -2.9206   23.3264 C   0  0  0  0  0  0  0  0  0  0  0  0
  -21.9925   -3.9627   21.1655 C   0  0  0  0  0  0  0  0  0  0  0  0
  -25.3204  -10.4131   22.2533 C   0  0  0  0  0  0  0  0  0  0  0  0
  -28.8340  -24.4918   18.6814 C   0  0  0  0  0  0  0  0  0  0  0  0
  -26.5376  -11.8997   23.3226 C   0  0  0  0  0  0  0  0  0  0  0  0
  -28.9916  -22.2254   18.7565 C   0  0  0  0  0  0  0  0  0  0  0  0
  -25.0291  -10.5663   24.8041 C   0  0  0  0  0  0  0  0  0  0  0  0
  -26.1524  -32.6670   21.0844 C   0  0  0  0  0  0  0  0  0  0  0  0
  -24.4841  -31.6685   23.6810 C   0  0  0  0  0  0  0  0  0  0  0  0
  -23.3558  -29.0621   25.5732 C   0  0  0  0  0  0  0  0  0  0  0  0
  -28.5584  -16.1122   20.6812 C   0  0  0  0  0  0  0  0  0  0  0  0
  -26.3327  -37.7117   20.3258 C   0  0  0  0  0  0  0  0  0  0  0  0
  -24.5923  -30.9727   20.0592 C   0  0  0  0  0  0  0  0  0  0  0  0
  -25.8878  -29.9326   22.5055 C   0  0  0  0  0  0  0  0  0  0  0  0
  -26.2787  -36.7920   21.5429 C   0  0  0  0  0  0  0  0  0  0  0  0
  -29.2776  -12.9998   19.2236 C   0  0  0  0  0  0  0  0  0  0  0  0
  -27.3204  -35.6843   21.4217 C   0  0  0  0  0  0  0  0  0  0  0  0
  -28.3268  -12.0796   19.9887 C   0  0  0  0  0  0  0  0  0  0  0  0
  -28.2300  -18.6107   18.2239 C   0  0  0  0  0  0  0  0  0  0  0  0
  -29.3985  -19.4516   20.2964 C   0  0  0  0  0  0  0  0  0  0  0  0
  -28.6226  -14.3372   18.8734 C   0  0  0  0  0  0  0  0  0  0  0  0
  -28.8808  -17.2403   18.4339 C   0  0  0  0  0  0  0  0  0  0  0  0
  -30.0460  -18.0780   20.4488 C   0  0  0  0  0  0  0  0  0  0  0  0
  -27.0886  -14.1222   20.8019 C   0  0  0  0  0  0  0  0  0  0  0  0
  -27.0532  -34.8078   20.1921 C   0  0  1  0  0  0  0  0  0  0  0  0
  -24.8889  -31.8720   21.2552 C   0  0  1  0  0  0  0  0  0  0  0  0
  -27.7377  -12.7933   21.2185 C   0  0  1  0  0  0  0  0  0  0  0  0
  -29.0772  -19.7338   18.8264 C   0  0  0  0  0  0  0  0  0  0  0  0
  -22.0502  -28.5606   27.6567 C   0  0  0  0  0  0  0  0  0  0  0  0
  -26.8915  -32.4646   25.3782 C   0  0  0  0  0  0  0  0  0  0  0  0
  -25.9380  -31.0980   27.2468 C   0  0  0  0  0  0  0  0  0  0  0  0
  -24.6738  -33.0610   26.3686 C   0  0  0  0  0  0  0  0  0  0  0  0
  -21.2928  -27.5731   24.0613 C   0  0  0  0  0  0  0  0  0  0  0  0
  -27.9893  -25.7141   18.5479 C   0  0  0  0  0  0  0  0  0  1  0  0
  -24.8324  -30.9617   24.9686 C   0  0  1  0  0  0  0  0  0  0  0  0
  -21.9855  -28.7550   26.1498 C   0  0  2  0  0  0  0  0  0  0  0  0
  -25.5892  -31.8845   25.9652 C   0  0  0  0  0  0  0  0  0  0  0  0
  -30.3283  -22.2204   18.9199 N   0  0  0  0  0  0  0  0  0  0  0  0
  -26.0411  -11.0054   21.2974 N   0  0  0  0  0  0  0  0  0  0  0  0
  -28.1954  -23.3043   18.6324 N   0  0  0  0  0  0  0  0  0  0  0  0
  -26.7712  -11.9046   21.9788 N   0  0  0  0  0  0  0  0  0  0  0  0
  -25.0215  -31.1230   22.5065 N   0  0  0  0  0  0  0  0  0  0  0  0
  -28.0404  -14.9606   20.0700 N   0  0  0  0  0  0  0  0  0  0  0  0
  -29.2136  -17.0337   19.8507 N   0  0  0  0  0  0  0  0  0  0  0  0
  -27.1868  -12.7402   24.1560 N   0  0  0  0  0  0  0  0  0  0  0  0
  -24.0652   -9.5495   24.8428 N   0  0  0  0  0  0  0  0  0  0  0  0
  -28.3699  -20.9901   18.7109 N   0  0  0  0  0  0  0  0  0  0  0  0
  -25.9708  -33.8840   20.4556 N   0  0  0  0  0  0  0  0  0  0  0  0
  -23.5815  -30.4197   25.4881 N   0  0  0  0  0  0  0  0  0  0  0  0
  -21.4330  -27.5130   25.5390 N   0  3  0  0  0  0  0  0  0  0  0  0
  -25.3619  -11.1376   25.8701 O   0  0  0  0  0  0  0  0  0  0  0  0
  -27.2134  -32.2107   21.4943 O   0  0  0  0  0  0  0  0  0  0  0  0
  -23.7559  -32.6636   23.7152 O   0  0  0  0  0  0  0  0  0  0  0  0
  -24.1482  -28.1854   25.2357 O   0  0  0  0  0  0  0  0  0  0  0  0
  -28.4423  -16.3062   21.8978 O   0  0  0  0  0  0  0  0  0  0  0  0
  -21.7176   -6.3442   20.9377 O   0  0  0  0  0  0  0  0  0  0  0  0
  -27.8457  -26.3296   19.8219 O   0  0  0  0  0  0  0  0  0  1  0  0
  -21.7043   -1.8228   24.0937 F   0  0  0  0  0  0  0  0  0  0  0  0
  -22.2658   -3.8590   19.8577 F   0  0  0  0  0  0  0  0  0  0  0  0
  1  2  1  0  0  0  0
  1  5  2  0  0  0  0
  2  6  2  0  0  0  0
  3  8  2  0  0  0  0
  3 17  1  0  0  0  0
  4  9  1  0  0  0  0
  4 17  2  0  0  0  0
  5 19  1  0  0  0  0
  6 21  1  0  0  0  0
  7 10  2  0  0  0  0
  7 20  1  0  0  0  0
  8 23  1  0  0  0  0
  9 23  2  0  0  0  0
 10 24  1  0  0  0  0
 11 12  2  0  0  0  0
 11 25  1  0  0  0  0
 12 26  1  0  0  0  0
 13 16  2  0  0  0  0
 13 29  1  0  0  0  0
 14 22  1  0  0  0  0
 14 24  2  0  0  0  0
 15 26  2  0  0  0  0
 15 27  1  0  0  0  0
 16 63  1  0  0  0  0
 17 28  1  0  0  0  0
 18 28  1  0  0  0  0
 18 30  2  0  0  0  0
 18 32  1  0  0  0  0
 19 21  2  0  0  0  0
 19 37  1  0  0  0  0
 20 22  2  0  0  0  0
 20 38  1  0  0  0  0
 21 50  1  0  0  0  0
 22 39  1  0  0  0  0
 23 81  1  0  0  0  0
 24 82  1  0  0  0  0
 25 27  2  0  0  0  0
 25 81  1  0  0  0  0
 26 83  1  0  0  0  0
 27 84  1  0  0  0  0
 28 64  2  0  0  0  0
 29 59  1  0  0  0  0
 29 65  2  0  0  0  0
 30 66  1  0  0  0  0
 30 70  1  0  0  0  0
 31 63  2  0  0  0  0
 31 65  1  0  0  0  0
 31 72  1  0  0  0  0
 32 71  1  0  0  0  0
 32 76  2  0  0  0  0
 33 51  1  0  0  0  0
 33 73  1  0  0  0  0
 33 77  2  0  0  0  0
 34 60  1  0  0  0  0
 34 67  1  0  0  0  0
 34 78  2  0  0  0  0
 35 61  1  0  0  0  0
 35 74  1  0  0  0  0
 35 79  2  0  0  0  0
 36 68  1  0  0  0  0
 36 69  1  0  0  0  0
 36 80  2  0  0  0  0
 37 40  1  0  0  0  0
 38 51  1  0  0  0  0
 39 67  1  0  0  0  0
 40 42  1  0  0  0  0
 41 43  1  0  0  0  0
 41 46  1  0  0  0  0
 42 50  1  0  0  0  0
 43 52  1  0  0  0  0
 44 47  1  0  0  0  0
 44 53  1  0  0  0  0
 45 48  1  0  0  0  0
 45 53  1  0  0  0  0
 46 68  1  0  0  0  0
 47 69  1  0  0  0  0
 48 69  1  0  0  0  0
 49 52  1  0  0  0  0
 49 68  1  0  0  0  0
 50 73  1  0  0  0  0
 51 67  1  0  0  0  0
 52 66  1  0  0  0  0
 53 72  1  0  0  0  0
 54 61  1  0  0  0  0
 55 62  1  0  0  0  0
 56 62  1  0  0  0  0
 57 62  1  0  0  0  0
 58 75  1  0  0  0  0
 59 82  1  0  0  0  0
 60 62  1  0  0  0  0
 60 74  1  0  0  0  0
 61 75  1  0  0  0  0
 64 66  1  0  0  0  0
M  CHG  1  75   1
M  ISO  4  36 100  59 101  69 100  82 101
M  END
> <Batch ID>
0181

> <Smiles>
CNC(C)C(=O)NC(C(=O)N1Cc2cc([101O:1][101CH2:1]c3ccnc(NC4CC[100N:0]([100C:0](=O)N5CCCC(n6nc(-c7ccc(Oc8ccc(F)cc8F)cc7)c(C(N)=O)c6N)C5)CC4)n3)ccc2CC1C(=O)NC1CCCc2ccccc21)C(C)(C)C

> <Shape>
0.290

> <Color>
0.097

> <Negative vol penalty>
0.000

$$$$

  -OEChem-04052323023D

 84 93  0     1  0  0  0  0  0999 V2000
  -28.7008  -11.2555   21.1418 C   0  0  0  0  0  0  0  0  0  0  0  0
  -29.1809  -12.5295   20.8559 C   0  0  0  0  0  0  0  0  0  0  0  0
  -19.3921  -29.1009   23.2080 C   0  0  0  0  0  0  0  0  0  0  0  0
  -19.9654  -26.8469   22.5540 C   0  0  0  0  0  0  0  0  0  0  0  0
  -27.3516  -10.9610   20.9501 C   0  0  0  0  0  0  0  0  0  0  0  0
  -28.3122  -13.5096   20.3771 C   0  0  0  0  0  0  0  0  0  0  0  0
  -28.5286  -19.5154   21.5558 C   0  0  0  0  0  0  0  0  0  0  0  0
  -18.0549  -28.8500   22.9006 C   0  0  0  0  0  0  0  0  0  0  0  0
  -18.6281  -26.5959   22.2466 C   0  0  0  0  0  0  0  0  0  0  0  0
  -29.0399  -20.5946   20.8364 C   0  0  0  0  0  0  0  0  0  0  0  0
  -15.7843  -25.8650   23.9197 C   0  0  0  0  0  0  0  0  0  0  0  0
  -15.2345  -24.6612   24.3605 C   0  0  0  0  0  0  0  0  0  0  0  0
  -26.8419  -21.0336   19.9445 C   0  0  0  0  0  0  0  0  0  0  0  0
  -14.7584  -24.0416   22.0743 C   0  0  0  0  0  0  0  0  0  0  0  0
  -20.3474  -28.0994   23.0346 C   0  0  0  0  0  0  0  0  0  0  0  0
  -22.3684  -28.1612   24.5900 C   0  0  0  0  0  0  0  0  0  0  0  0
  -26.4639  -11.9407   20.4779 C   0  0  0  0  0  0  0  0  0  0  0  0
  -27.1700  -19.1799   21.4663 C   0  0  0  0  0  0  0  0  0  0  0  0
  -26.9500  -13.2275   20.1777 C   0  0  0  0  0  0  0  0  0  0  0  0
  -26.3154  -19.9512   20.6658 C   0  0  0  0  0  0  0  0  0  0  0  0
  -17.6729  -27.5975   22.4200 C   0  0  0  0  0  0  0  0  0  0  0  0
  -28.1971  -21.3521   20.0283 C   0  0  0  0  0  0  0  0  0  0  0  0
  -15.8211  -26.1571   22.5562 C   0  0  0  0  0  0  0  0  0  0  0  0
  -14.7216  -23.7495   23.4378 C   0  0  0  0  0  0  0  0  0  0  0  0
  -15.3082  -25.2454   21.6335 C   0  0  0  0  0  0  0  0  0  0  0  0
  -21.7290  -28.3581   23.3514 C   0  0  0  0  0  0  0  0  0  0  0  0
  -30.5740  -24.0021   17.2475 C   0  0  0  0  0  0  0  0  0  0  0  0
  -30.4332  -23.8844   18.6373 C   0  0  0  0  0  0  0  0  0  0  0  0
  -23.6666  -28.5536   24.3724 C   0  0  0  0  0  0  0  0  0  0  0  0
  -21.8365  -27.6676   25.8266 C   0  0  0  0  0  0  0  0  0  0  0  0
  -25.5491  -16.6343   20.4682 C   0  0  0  0  0  0  0  0  0  0  0  0
  -23.0061  -18.2871   21.6188 C   0  0  0  0  0  0  0  0  0  0  0  0
  -21.1142  -21.3113   22.1592 C   0  0  0  0  0  0  0  0  0  0  0  0
  -26.9527  -28.7322   19.4709 C   0  0  0  0  0  0  0  0  0  0  0  0
  -25.0233  -11.5618   20.2418 C   0  0  0  0  0  0  0  0  0  0  0  0
  -26.6287  -18.0291   22.2695 C   0  0  0  0  0  0  0  0  0  0  0  0
  -24.8451  -19.6449   20.5512 C   0  0  0  0  0  0  0  0  0  0  0  0
  -24.0950  -12.7636   20.0867 C   0  0  0  0  0  0  0  0  0  0  0  0
  -26.2796  -31.5217   21.6762 C   0  0  0  0  0  0  0  0  0  0  0  0
  -24.7039  -13.7894   19.1361 C   0  0  0  0  0  0  0  0  0  0  0  0
  -25.0868  -30.9957   22.4765 C   0  0  0  0  0  0  0  0  0  0  0  0
  -32.4821  -27.5708   19.1626 C   0  0  0  0  0  0  0  0  0  0  0  0
  -26.2091  -31.0730   20.2195 C   0  0  0  0  0  0  0  0  0  0  0  0
  -24.9097  -29.0706   20.8326 C   0  0  0  0  0  0  0  0  0  0  0  0
  -32.3867  -29.0592   19.4373 C   0  0  0  0  0  0  0  0  0  0  0  0
  -26.0340  -14.3245   19.6802 C   0  0  1  0  0  0  0  0  0  0  0  0
  -25.3306  -17.4629   21.7025 C   0  0  1  0  0  0  0  0  0  0  0  0
  -24.9346  -29.4712   22.3189 C   0  0  2  0  0  0  0  0  0  0  0  0
  -31.2482  -27.2968   18.3019 C   0  0  2  0  0  0  0  0  0  0  0  0
  -30.1650  -28.1200   19.0093 C   0  0  2  0  0  0  0  0  0  0  0  0
  -30.4235  -22.9777   16.2048 C   0  0  0  0  0  0  0  0  0  0  0  0
  -18.9698  -21.6935   23.4053 C   0  0  0  0  0  0  0  0  0  0  0  0
  -21.6926  -17.9217   18.8891 C   0  0  0  0  0  0  0  0  0  0  0  0
  -20.0776  -19.7342   19.5012 C   0  0  0  0  0  0  0  0  0  0  0  0
  -20.1509  -17.6284   20.8364 C   0  0  0  0  0  0  0  0  0  0  0  0
  -22.3416  -23.3951   23.8651 C   0  0  0  0  0  0  0  0  0  0  0  0
  -30.0877  -22.6786   19.4608 C   0  0  0  0  0  0  0  0  0  1  0  0
  -29.0195  -28.5499   18.1100 C   0  0  0  0  0  0  0  0  0  0  0  0
  -22.0395  -19.2960   21.0471 C   0  0  1  0  0  0  0  0  0  0  0  0
  -20.4875  -21.7704   23.4634 C   0  0  2  0  0  0  0  0  0  0  0  0
  -21.0182  -18.6499   20.0689 C   0  0  0  0  0  0  0  0  0  0  0  0
  -22.5529  -28.8385   22.4163 N   0  0  0  0  0  0  0  0  0  0  0  0
  -30.8895  -25.2606   16.9291 N   0  0  0  0  0  0  0  0  0  0  0  0
  -30.6591  -25.0665   19.2172 N   0  0  0  0  0  0  0  0  0  0  0  0
  -23.7234  -28.9467   23.0676 N   0  0  0  0  0  0  0  0  0  0  0  0
  -30.9221  -25.8302   18.1446 N   0  0  0  0  0  0  0  0  0  0  0  0
  -24.3649  -18.5060   21.3510 N   0  0  0  0  0  0  0  0  0  0  0  0
  -26.0837  -29.6109   20.1389 N   0  0  0  0  0  0  0  0  0  0  0  0
  -24.7535  -28.5973   25.1718 N   0  0  0  0  0  0  0  0  0  0  0  0
  -20.4824  -27.3097   25.8759 N   0  0  0  0  0  0  0  0  0  0  0  0
  -25.7976  -15.2992   20.7236 N   0  0  0  0  0  0  0  0  0  0  0  0
  -21.4297  -19.9694   22.1887 N   0  0  0  0  0  0  0  0  0  0  0  0
  -28.0360  -29.3246   18.8335 N   0  0  0  0  0  0  0  0  0  0  0  0
  -30.9119  -29.3385   19.4980 N   0  3  0  0  0  0  0  0  0  0  0  0
  -20.8758  -23.1789   23.7571 N   0  3  0  0  0  0  0  0  0  0  0  0
  -22.5373  -27.5630   26.8617 O   0  0  0  0  0  0  0  0  0  0  0  0
  -25.4946  -17.1665   19.3657 O   0  0  0  0  0  0  0  0  0  0  0  0
  -22.5722  -17.3437   22.2846 O   0  0  0  0  0  0  0  0  0  0  0  0
  -21.3014  -22.0667   21.2079 O   0  0  0  0  0  0  0  0  0  0  0  0
  -26.7791  -27.5089   19.4486 O   0  0  0  0  0  0  0  0  0  0  0  0
  -16.3681  -27.3523   22.1202 O   0  0  0  0  0  0  0  0  0  0  0  0
  -28.6937  -22.4057   19.3245 O   0  0  0  0  0  0  0  0  0  1  0  0
  -14.1950  -22.5929   23.8611 F   0  0  0  0  0  0  0  0  0  0  0  0
  -15.3419  -25.5200   20.3223 F   0  0  0  0  0  0  0  0  0  0  0  0
  1  2  1  0  0  0  0
  1  5  2  0  0  0  0
  2  6  2  0  0  0  0
  3  8  2  0  0  0  0
  3 15  1  0  0  0  0
  4  9  1  0  0  0  0
  4 15  2  0  0  0  0
  5 17  1  0  0  0  0
  6 19  1  0  0  0  0
  7 10  2  0  0  0  0
  7 18  1  0  0  0  0
  8 21  1  0  0  0  0
  9 21  2  0  0  0  0
 10 22  1  0  0  0  0
 11 12  2  0  0  0  0
 11 23  1  0  0  0  0
 12 24  1  0  0  0  0
 13 20  1  0  0  0  0
 13 22  2  0  0  0  0
 14 24  2  0  0  0  0
 14 25  1  0  0  0  0
 15 26  1  0  0  0  0
 16 26  1  0  0  0  0
 16 29  2  0  0  0  0
 16 30  1  0  0  0  0
 17 19  2  0  0  0  0
 17 35  1  0  0  0  0
 18 20  2  0  0  0  0
 18 36  1  0  0  0  0
 19 46  1  0  0  0  0
 20 37  1  0  0  0  0
 21 81  1  0  0  0  0
 22 82  1  0  0  0  0
 23 25  2  0  0  0  0
 23 81  1  0  0  0  0
 24 83  1  0  0  0  0
 25 84  1  0  0  0  0
 26 62  2  0  0  0  0
 27 28  1  0  0  0  0
 27 51  1  0  0  0  0
 27 63  2  0  0  0  0
 28 57  1  0  0  0  0
 28 64  2  0  0  0  0
 29 65  1  0  0  0  0
 29 69  1  0  0  0  0
 30 70  1  0  0  0  0
 30 76  2  0  0  0  0
 31 47  1  0  0  0  0
 31 71  1  0  0  0  0
 31 77  2  0  0  0  0
 32 59  1  0  0  0  0
 32 67  1  0  0  0  0
 32 78  2  0  0  0  0
 33 60  1  0  0  0  0
 33 72  1  0  0  0  0
 33 79  2  0  0  0  0
 34 68  1  0  0  0  0
 34 73  1  0  0  0  0
 34 80  2  0  0  0  0
 35 38  1  0  0  0  0
 36 47  1  0  0  0  0
 37 67  1  0  0  0  0
 38 40  1  0  0  0  0
 39 41  1  0  0  0  0
 39 43  1  0  0  0  0
 40 46  1  0  0  0  0
 41 48  1  0  0  0  0
 42 45  1  0  0  0  0
 42 49  1  0  0  0  0
 43 68  1  0  0  0  0
 44 48  1  0  0  0  0
 44 68  1  0  0  0  0
 45 74  1  0  0  0  0
 46 71  1  0  0  0  0
 47 67  1  0  0  0  0
 48 65  1  0  0  0  0
 49 50  1  0  0  0  0
 49 66  1  0  0  0  0
 50 58  1  0  0  0  0
 50 74  1  0  0  0  0
 52 60  1  0  0  0  0
 53 61  1  0  0  0  0
 54 61  1  0  0  0  0
 55 61  1  0  0  0  0
 56 75  1  0  0  0  0
 57 82  1  0  0  0  0
 58 73  1  0  0  0  0
 59 61  1  0  0  0  0
 59 72  1  0  0  0  0
 60 75  1  0  0  0  0
 62 65  1  0  0  0  0
 63 66  1  0  0  0  0
 64 66  1  0  0  0  0
M  CHG  2  74   1  75   1
M  ISO  4  34 100  57 101  73 100  82 101
M  END
> <Batch ID>
0181

> <Smiles>
CNC(C)C(=O)NC(C(=O)N1Cc2cc([101O:1][101CH2:1]c3nn(C4CCNC4C[100NH:0][100C:0](=O)N4CCCC(n5nc(-c6ccc(Oc7ccc(F)cc7F)cc6)c(C(N)=O)c5N)C4)nc3C)ccc2CC1C(=O)NC1CCCc2ccccc21)C(C)(C)C

> <Shape>
0.234

> <Color>
0.078

> <Negative vol penalty>
0.000

$$$$

  -OEChem-04052323023D

 85 94  0     1  0  0  0  0  0999 V2000
  -20.6298  -33.9323   24.1549 C   0  0  0  0  0  0  0  0  0  0  0  0
  -21.8913  -33.3674   23.9969 C   0  0  0  0  0  0  0  0  0  0  0  0
  -22.9942  -10.0023   19.9080 C   0  0  0  0  0  0  0  0  0  0  0  0
  -23.9172   -9.7502   22.1264 C   0  0  0  0  0  0  0  0  0  0  0  0
  -19.4968  -33.1198   24.1414 C   0  0  0  0  0  0  0  0  0  0  0  0
  -22.0206  -31.9894   23.8265 C   0  0  0  0  0  0  0  0  0  0  0  0
  -26.1013  -27.1346   20.4956 C   0  0  0  0  0  0  0  0  0  0  0  0
  -22.2462   -8.8387   20.0870 C   0  0  0  0  0  0  0  0  0  0  0  0
  -23.1692   -8.5866   22.3055 C   0  0  0  0  0  0  0  0  0  0  0  0
  -26.8318  -25.9772   20.7611 C   0  0  0  0  0  0  0  0  0  0  0  0
  -19.9767   -7.7705   23.0557 C   0  0  0  0  0  0  0  0  0  0  0  0
  -19.3054   -7.6136   24.2682 C   0  0  0  0  0  0  0  0  0  0  0  0
  -24.7987  -24.6817   20.6752 C   0  0  0  0  0  0  0  0  0  0  0  0
  -29.3323  -20.5275   22.9675 C   0  0  0  0  0  0  0  0  0  0  0  0
  -20.5556   -5.5915   24.6987 C   0  0  0  0  0  0  0  0  0  0  0  0
  -23.8298  -10.4581   20.9277 C   0  0  0  0  0  0  0  0  0  0  0  0
  -24.2151  -12.9766   21.0545 C   0  0  0  0  0  0  0  0  0  0  0  0
  -19.6115  -31.7324   23.9611 C   0  0  0  0  0  0  0  0  0  0  0  0
  -24.7103  -27.0758   20.3284 C   0  0  0  0  0  0  0  0  0  0  0  0
  -20.8881  -31.1575   23.8119 C   0  0  0  0  0  0  0  0  0  0  0  0
  -24.0532  -25.8395   20.4051 C   0  0  0  0  0  0  0  0  0  0  0  0
  -28.9033  -22.4106   21.5277 C   0  0  0  0  0  0  0  0  0  0  0  0
  -28.7642  -21.7809   22.7608 C   0  0  0  0  0  0  0  0  0  0  0  0
  -22.3336   -8.1309   21.2857 C   0  0  0  0  0  0  0  0  0  0  0  0
  -26.1801  -24.7509   20.8538 C   0  0  0  0  0  0  0  0  0  0  0  0
  -20.9375   -6.8379   22.6646 C   0  0  0  0  0  0  0  0  0  0  0  0
  -19.5949   -6.5241   25.0898 C   0  0  0  0  0  0  0  0  0  0  0  0
  -21.2269   -5.7484   23.4861 C   0  0  0  0  0  0  0  0  0  0  0  0
  -24.6032  -11.6597   20.7432 C   0  0  0  0  0  0  0  0  0  0  0  0
  -29.6127  -21.7659   20.5243 C   0  0  0  0  0  0  0  0  0  0  0  0
  -25.2938  -13.7467   20.6941 C   0  0  0  0  0  0  0  0  0  0  0  0
  -30.0308  -19.9304   21.9277 C   0  0  0  0  0  0  0  0  0  0  0  0
  -22.9892  -13.4605   21.6191 C   0  0  0  0  0  0  0  0  0  0  0  0
  -22.2132  -28.3189   21.8526 C   0  0  0  0  0  0  0  0  0  0  0  0
  -20.5532  -27.0048   19.3950 C   0  0  0  0  0  0  0  0  0  0  0  0
  -20.4033  -24.6454   16.9337 C   0  0  0  0  0  0  0  0  0  0  0  0
  -30.7970  -14.6673   20.5851 C   0  0  0  0  0  0  0  0  0  0  0  0
  -18.3616  -30.8894   24.0009 C   0  0  0  0  0  0  0  0  0  0  0  0
  -23.9403  -28.3295   20.0160 C   0  0  0  0  0  0  0  0  0  0  0  0
  -22.5641  -25.7196   20.2134 C   0  0  0  0  0  0  0  0  0  0  0  0
  -18.5573  -29.4831   23.4402 C   0  0  0  0  0  0  0  0  0  0  0  0
  -29.4406  -12.5711   18.0468 C   0  0  0  0  0  0  0  0  0  0  0  0
  -19.8304  -28.8572   24.0007 C   0  0  0  0  0  0  0  0  0  0  0  0
  -28.0322  -12.2510   18.5507 C   0  0  0  0  0  0  0  0  0  0  0  0
  -30.4463  -12.6482   19.1934 C   0  0  0  0  0  0  0  0  0  0  0  0
  -28.6651  -13.2493   20.7871 C   0  0  0  0  0  0  0  0  0  0  0  0
  -30.1724  -17.6209   22.9162 C   0  0  0  0  0  0  0  0  0  0  0  0
  -31.0828  -17.8274   21.0326 C   0  0  0  0  0  0  0  0  0  0  0  0
  -21.0675  -29.6699   23.5998 C   0  0  1  0  0  0  0  0  0  0  0  0
  -22.4608  -28.2268   20.3734 C   0  0  1  0  0  0  0  0  0  0  0  0
  -27.6052  -13.2164   19.6728 C   0  0  2  0  0  0  0  0  0  0  0  0
  -30.9970  -16.6698   22.0374 C   0  0  0  0  0  0  0  0  0  0  0  0
  -29.8176  -22.3535   19.1740 C   0  0  0  0  0  0  0  0  0  0  0  0
  -18.9043  -23.7932   15.1105 C   0  0  0  0  0  0  0  0  0  0  0  0
  -18.8150  -25.6103   21.4793 C   0  0  0  0  0  0  0  0  0  0  0  0
  -17.9959  -24.0828   19.6726 C   0  0  0  0  0  0  0  0  0  0  0  0
  -17.5598  -26.5344   19.5235 C   0  0  0  0  0  0  0  0  0  0  0  0
  -28.3585  -22.1758   25.1908 C   0  0  0  0  0  0  0  0  0  0  0  0
  -22.3937  -25.2853   14.8390 C   0  0  0  0  0  0  0  0  0  0  0  0
  -28.3006  -23.7622   21.2800 C   0  0  0  0  0  0  0  0  0  1  0  0
  -19.9030  -25.6666   19.1386 C   0  0  1  0  0  0  0  0  0  0  0  0
  -20.0366  -24.7449   15.4640 C   0  0  2  0  0  0  0  0  0  0  0  0
  -18.5962  -25.4757   19.9591 C   0  0  0  0  0  0  0  0  0  0  0  0
  -25.8323  -11.5933   20.2247 N   0  0  0  0  0  0  0  0  0  0  0  0
  -26.2259  -12.8781   20.2074 N   0  0  0  0  0  0  0  0  0  0  0  0
  -30.1495  -20.5591   20.7503 N   0  3  0  0  0  0  0  0  0  0  0  0
  -30.6245  -18.6695   22.0764 N   0  0  0  0  0  0  0  0  0  0  0  0
  -21.8545  -26.9748   19.9162 N   0  0  0  0  0  0  0  0  0  0  0  0
  -29.9827  -13.5816   20.2229 N   0  0  0  0  0  0  0  0  0  0  0  0
  -25.5263  -15.0754   20.7491 N   0  0  0  0  0  0  0  0  0  0  0  0
  -21.9853  -12.5334   21.9306 N   0  0  0  0  0  0  0  0  0  0  0  0
  -28.0516  -22.3973   23.8125 N   0  0  0  0  0  0  0  0  0  0  0  0
  -21.4299  -29.3942   22.2261 N   0  0  0  0  0  0  0  0  0  0  0  0
  -19.7210  -25.5714   17.6942 N   0  0  0  0  0  0  0  0  0  0  0  0
  -30.2797  -15.5070   21.5639 N   0  0  0  0  0  0  0  0  0  0  0  0
  -21.2136  -24.4118   14.6128 N   0  3  0  0  0  0  0  0  0  0  0  0
  -22.7836  -14.6806   21.8255 O   0  0  0  0  0  0  0  0  0  0  0  0
  -22.6959  -27.4758   22.5996 O   0  0  0  0  0  0  0  0  0  0  0  0
  -19.9321  -28.0385   19.1356 O   0  0  0  0  0  0  0  0  0  0  0  0
  -21.2112  -23.8256   17.3646 O   0  0  0  0  0  0  0  0  0  0  0  0
  -31.9008  -14.8761   20.0703 O   0  0  0  0  0  0  0  0  0  0  0  0
  -21.6037   -6.9955   21.4608 O   0  0  0  0  0  0  0  0  0  0  0  0
  -26.8906  -23.6197   21.1136 O   0  0  0  0  0  0  0  0  0  1  0  0
  -18.9512   -6.3744   26.2549 F   0  0  0  0  0  0  0  0  0  0  0  0
  -22.1497   -4.8498   23.1163 F   0  0  0  0  0  0  0  0  0  0  0  0
  1  2  1  0  0  0  0
  1  5  2  0  0  0  0
  2  6  2  0  0  0  0
  3  8  2  0  0  0  0
  3 16  1  0  0  0  0
  4  9  1  0  0  0  0
  4 16  2  0  0  0  0
  5 18  1  0  0  0  0
  6 20  1  0  0  0  0
  7 10  2  0  0  0  0
  7 19  1  0  0  0  0
  8 24  1  0  0  0  0
  9 24  2  0  0  0  0
 10 25  1  0  0  0  0
 11 12  2  0  0  0  0
 11 26  1  0  0  0  0
 12 27  1  0  0  0  0
 13 21  1  0  0  0  0
 13 25  2  0  0  0  0
 14 23  1  0  0  0  0
 14 32  2  0  0  0  0
 15 27  2  0  0  0  0
 15 28  1  0  0  0  0
 16 29  1  0  0  0  0
 17 29  1  0  0  0  0
 17 31  2  0  0  0  0
 17 33  1  0  0  0  0
 18 20  2  0  0  0  0
 18 38  1  0  0  0  0
 19 21  2  0  0  0  0
 19 39  1  0  0  0  0
 20 49  1  0  0  0  0
 21 40  1  0  0  0  0
 22 23  2  0  0  0  0
 22 30  1  0  0  0  0
 22 60  1  0  0  0  0
 23 72  1  0  0  0  0
 24 82  1  0  0  0  0
 25 83  1  0  0  0  0
 26 28  2  0  0  0  0
 26 82  1  0  0  0  0
 27 84  1  0  0  0  0
 28 85  1  0  0  0  0
 29 64  2  0  0  0  0
 30 53  1  0  0  0  0
 30 66  2  0  0  0  0
 31 65  1  0  0  0  0
 31 70  1  0  0  0  0
 32 66  1  0  0  0  0
 32 67  1  0  0  0  0
 33 71  1  0  0  0  0
 33 77  2  0  0  0  0
 34 50  1  0  0  0  0
 34 73  1  0  0  0  0
 34 78  2  0  0  0  0
 35 61  1  0  0  0  0
 35 68  1  0  0  0  0
 35 79  2  0  0  0  0
 36 62  1  0  0  0  0
 36 74  1  0  0  0  0
 36 80  2  0  0  0  0
 37 69  1  0  0  0  0
 37 75  1  0  0  0  0
 37 81  2  0  0  0  0
 38 41  1  0  0  0  0
 39 50  1  0  0  0  0
 40 68  1  0  0  0  0
 41 43  1  0  0  0  0
 42 44  1  0  0  0  0
 42 45  1  0  0  0  0
 43 49  1  0  0  0  0
 44 51  1  0  0  0  0
 45 69  1  0  0  0  0
 46 51  1  0  0  0  0
 46 69  1  0  0  0  0
 47 52  1  0  0  0  0
 47 67  1  0  0  0  0
 48 52  1  0  0  0  0
 48 67  1  0  0  0  0
 49 73  1  0  0  0  0
 50 68  1  0  0  0  0
 51 65  1  0  0  0  0
 52 75  1  0  0  0  0
 54 62  1  0  0  0  0
 55 63  1  0  0  0  0
 56 63  1  0  0  0  0
 57 63  1  0  0  0  0
 58 72  1  0  0  0  0
 59 76  1  0  0  0  0
 60 83  1  0  0  0  0
 61 63  1  0  0  0  0
 61 74  1  0  0  0  0
 62 76  1  0  0  0  0
 64 65  1  0  0  0  0
M  CHG  2  66   1  76   1
M  ISO  4  37 100  60 101  75 100  83 101
M  END
> <Batch ID>
0181

> <Smiles>
CNc1cc(N2CC([100NH:0][100C:0](=O)N3CCCC(n4nc(-c5ccc(Oc6ccc(F)cc6F)cc5)c(C(N)=O)c4N)C3)C2)nc(C)c1[101CH2:1][101O:1]c1ccc2c(c1)CN(C(=O)C(NC(=O)C(C)NC)C(C)(C)C)C(C(=O)NC1CCCc3ccccc31)C2

> <Shape>
0.296

> <Color>
0.204

> <Negative vol penalty>
0.000

$$$$

  -OEChem-04052323023D

 86 95  0     1  0  0  0  0  0999 V2000
  -26.6669  -35.3135   23.3466 C   0  0  0  0  0  0  0  0  0  0  0  0
  -27.0998  -34.0176   23.0848 C   0  0  0  0  0  0  0  0  0  0  0  0
  -20.1023  -19.7998   21.7400 C   0  0  0  0  0  0  0  0  0  0  0  0
  -21.2095  -17.7268   22.3001 C   0  0  0  0  0  0  0  0  0  0  0  0
  -25.3873  -35.5302   23.8560 C   0  0  0  0  0  0  0  0  0  0  0  0
  -26.2537  -32.9374   23.3333 C   0  0  0  0  0  0  0  0  0  0  0  0
  -26.2464  -29.5657   19.5548 C   0  0  0  0  0  0  0  0  0  0  0  0
  -18.8849  -19.2627   22.1584 C   0  0  0  0  0  0  0  0  0  0  0  0
  -19.9922  -17.1896   22.7185 C   0  0  0  0  0  0  0  0  0  0  0  0
  -27.3294  -28.6909   19.4801 C   0  0  0  0  0  0  0  0  0  0  0  0
  -17.2361  -15.8522   21.2880 C   0  0  0  0  0  0  0  0  0  0  0  0
  -16.9232  -14.5571   20.8752 C   0  0  0  0  0  0  0  0  0  0  0  0
  -26.0026  -26.9687   20.5256 C   0  0  0  0  0  0  0  0  0  0  0  0
  -16.8021  -13.8510   23.1826 C   0  0  0  0  0  0  0  0  0  0  0  0
  -31.6672  -20.9372   18.3292 C   0  0  0  0  0  0  0  0  0  0  0  0
  -21.2646  -19.0319   21.8108 C   0  0  0  0  0  0  0  0  0  0  0  0
  -23.4533  -20.2945   22.1612 C   0  0  0  0  0  0  0  0  0  0  0  0
  -24.5215  -34.4529   24.1018 C   0  0  0  0  0  0  0  0  0  0  0  0
  -25.0348  -29.1514   20.1264 C   0  0  0  0  0  0  0  0  0  0  0  0
  -24.9617  -33.1398   23.8477 C   0  0  0  0  0  0  0  0  0  0  0  0
  -24.9050  -27.8395   20.6041 C   0  0  0  0  0  0  0  0  0  0  0  0
  -18.8298  -17.9576   22.6477 C   0  0  0  0  0  0  0  0  0  0  0  0
  -27.2085  -27.3931   19.9681 C   0  0  0  0  0  0  0  0  0  0  0  0
  -17.3321  -16.1467   22.6481 C   0  0  0  0  0  0  0  0  0  0  0  0
  -16.7062  -13.5565   21.8225 C   0  0  0  0  0  0  0  0  0  0  0  0
  -17.1151  -15.1461   23.5953 C   0  0  0  0  0  0  0  0  0  0  0  0
  -22.5224  -19.5860   21.3783 C   0  0  0  0  0  0  0  0  0  0  0  0
  -30.5588  -20.2340   18.7467 C   0  0  0  0  0  0  0  0  0  0  0  0
  -30.0231  -21.9313   20.1829 C   0  0  0  0  0  0  0  0  0  0  0  0
  -31.1319  -22.6341   19.7658 C   0  0  0  0  0  0  0  0  0  0  0  0
  -24.4706  -20.6018   21.2910 C   0  0  0  0  0  0  0  0  0  0  0  0
  -23.4031  -20.6437   23.5509 C   0  0  0  0  0  0  0  0  0  0  0  0
  -23.3082  -30.0667   22.6333 C   0  0  0  0  0  0  0  0  0  0  0  0
  -21.1773  -27.9229   21.4563 C   0  0  0  0  0  0  0  0  0  0  0  0
  -20.6132  -25.1366   19.5681 C   0  0  0  0  0  0  0  0  0  0  0  0
  -27.9558  -19.2397   17.2299 C   0  0  0  0  0  0  0  0  0  0  0  0
  -23.1645  -34.7333   24.6973 C   0  0  0  0  0  0  0  0  0  0  0  0
  -23.8676  -30.0988   20.1753 C   0  0  0  0  0  0  0  0  0  0  0  0
  -23.6193  -27.3392   21.2085 C   0  0  0  0  0  0  0  0  0  0  0  0
  -22.1939  -33.5609   24.5803 C   0  0  0  0  0  0  0  0  0  0  0  0
  -29.8902  -16.5796   18.7568 C   0  0  0  0  0  0  0  0  0  0  0  0
  -24.7493  -20.2484   16.2655 C   0  0  0  0  0  0  0  0  0  0  0  0
  -22.8749  -32.2607   24.9957 C   0  0  0  0  0  0  0  0  0  0  0  0
  -30.8642  -17.7304   18.9756 C   0  0  0  0  0  0  0  0  0  0  0  0
  -23.9434  -20.2107   17.5625 C   0  0  0  0  0  0  0  0  0  0  0  0
  -25.7163  -19.0734   16.1931 C   0  0  0  0  0  0  0  0  0  0  0  0
  -28.5394  -17.2782   18.7456 C   0  0  0  0  0  0  0  0  0  0  0  0
  -25.8777  -18.9732   18.6623 C   0  0  0  0  0  0  0  0  0  0  0  0
  -24.0641  -31.9440   24.0809 C   0  0  1  0  0  0  0  0  0  0  0  0
  -30.2469  -18.8753   18.1616 C   0  0  1  0  0  0  0  0  0  0  0  0
  -22.8436  -29.7307   21.2445 C   0  0  1  0  0  0  0  0  0  0  0  0
  -24.8761  -20.1400   18.7829 C   0  0  2  0  0  0  0  0  0  0  0  0
  -29.0995  -22.4789   21.2168 C   0  0  0  0  0  0  0  0  0  0  0  0
  -18.7736  -23.6004   18.8241 C   0  0  0  0  0  0  0  0  0  0  0  0
  -21.1481  -26.6245   24.2173 C   0  0  0  0  0  0  0  0  0  0  0  0
  -20.0851  -24.6084   23.1813 C   0  0  0  0  0  0  0  0  0  0  0  0
  -18.9053  -26.8056   23.1259 C   0  0  0  0  0  0  0  0  0  0  0  0
  -21.0766  -25.7745   16.7154 C   0  0  0  0  0  0  0  0  0  0  0  0
  -31.4597  -23.9747   20.3289 C   0  0  0  0  0  0  0  0  0  0  0  0
  -29.5698  -27.1098   19.9550 C   0  0  0  0  0  0  0  0  0  1  0  0
  -30.5265  -26.1163   20.5852 C   0  0  0  0  0  0  0  0  0  0  0  0
  -20.9272  -26.4469   21.6511 C   0  0  1  0  0  0  0  0  0  0  0  0
  -19.5864  -24.8416   18.4896 C   0  0  2  0  0  0  0  0  0  0  0  0
  -20.2914  -26.1311   23.0343 C   0  0  0  0  0  0  0  0  0  0  0  0
  -31.9737  -22.1499   18.8312 N   0  0  0  0  0  0  0  0  0  0  0  0
  -22.9134  -19.4511   20.1082 N   0  0  0  0  0  0  0  0  0  0  0  0
  -29.7168  -20.7184   19.6811 N   0  0  0  0  0  0  0  0  0  0  0  0
  -24.1013  -20.0792   20.0865 N   0  0  0  0  0  0  0  0  0  0  0  0
  -22.5087  -28.3052   21.2395 N   0  0  0  0  0  0  0  0  0  0  0  0
  -26.5803  -19.0173   17.3729 N   0  0  0  0  0  0  0  0  0  0  0  0
  -28.8085  -18.5709   18.1130 N   0  0  0  0  0  0  0  0  0  0  0  0
  -25.6359  -21.2653   21.4462 N   0  0  0  0  0  0  0  0  0  0  0  0
  -22.2853  -20.2496   24.2989 N   0  0  0  0  0  0  0  0  0  0  0  0
  -23.6021  -31.4040   22.8201 N   0  0  0  0  0  0  0  0  0  0  0  0
  -20.1246  -26.0151   20.5119 N   0  0  0  0  0  0  0  0  0  0  0  0
  -20.2604  -24.6228   17.1786 N   0  3  0  0  0  0  0  0  0  0  0  0
  -24.3147  -21.3004   24.1089 O   0  0  0  0  0  0  0  0  0  0  0  0
  -23.3924  -29.1788   23.4737 O   0  0  0  0  0  0  0  0  0  0  0  0
  -20.2255  -28.7069   21.4879 O   0  0  0  0  0  0  0  0  0  0  0  0
  -21.7352  -24.6349   19.5747 O   0  0  0  0  0  0  0  0  0  0  0  0
  -28.4023  -19.9806   16.3447 O   0  0  0  0  0  0  0  0  0  0  0  0
  -17.6421  -17.4332   23.0562 O   0  0  0  0  0  0  0  0  0  0  0  0
  -28.2714  -26.5315   19.8965 O   0  0  0  0  0  0  0  0  0  1  0  0
  -30.5781  -24.9469   19.7800 O   0  0  0  0  0  0  0  0  0  0  0  0
  -16.4041  -12.3132   21.4260 F   0  0  0  0  0  0  0  0  0  0  0  0
  -17.2048  -15.4233   24.9034 F   0  0  0  0  0  0  0  0  0  0  0  0
  1  2  1  0  0  0  0
  1  5  2  0  0  0  0
  2  6  2  0  0  0  0
  3  8  2  0  0  0  0
  3 16  1  0  0  0  0
  4  9  1  0  0  0  0
  4 16  2  0  0  0  0
  5 18  1  0  0  0  0
  6 20  1  0  0  0  0
  7 10  2  0  0  0  0
  7 19  1  0  0  0  0
  8 22  1  0  0  0  0
  9 22  2  0  0  0  0
 10 23  1  0  0  0  0
 11 12  2  0  0  0  0
 11 24  1  0  0  0  0
 12 25  1  0  0  0  0
 13 21  1  0  0  0  0
 13 23  2  0  0  0  0
 14 25  2  0  0  0  0
 14 26  1  0  0  0  0
 15 28  1  0  0  0  0
 15 65  2  0  0  0  0
 16 27  1  0  0  0  0
 17 27  1  0  0  0  0
 17 31  2  0  0  0  0
 17 32  1  0  0  0  0
 18 20  2  0  0  0  0
 18 37  1  0  0  0  0
 19 21  2  0  0  0  0
 19 38  1  0  0  0  0
 20 49  1  0  0  0  0
 21 39  1  0  0  0  0
 22 82  1  0  0  0  0
 23 83  1  0  0  0  0
 24 26  2  0  0  0  0
 24 82  1  0  0  0  0
 25 85  1  0  0  0  0
 26 86  1  0  0  0  0
 27 66  2  0  0  0  0
 28 50  1  0  0  0  0
 28 67  2  0  0  0  0
 29 30  2  0  0  0  0
 29 53  1  0  0  0  0
 29 67  1  0  0  0  0
 30 59  1  0  0  0  0
 30 65  1  0  0  0  0
 31 68  1  0  0  0  0
 31 72  1  0  0  0  0
 32 73  1  0  0  0  0
 32 77  2  0  0  0  0
 33 51  1  0  0  0  0
 33 74  1  0  0  0  0
 33 78  2  0  0  0  0
 34 62  1  0  0  0  0
 34 69  1  0  0  0  0
 34 79  2  0  0  0  0
 35 63  1  0  0  0  0
 35 75  1  0  0  0  0
 35 80  2  0  0  0  0
 36 70  1  0  0  0  0
 36 71  1  0  0  0  0
 36 81  2  0  0  0  0
 37 40  1  0  0  0  0
 38 51  1  0  0  0  0
 39 69  1  0  0  0  0
 40 43  1  0  0  0  0
 41 44  1  0  0  0  0
 41 47  1  0  0  0  0
 42 45  1  0  0  0  0
 42 46  1  0  0  0  0
 43 49  1  0  0  0  0
 44 50  1  0  0  0  0
 45 52  1  0  0  0  0
 46 70  1  0  0  0  0
 47 71  1  0  0  0  0
 48 52  1  0  0  0  0
 48 70  1  0  0  0  0
 49 74  1  0  0  0  0
 50 71  1  0  0  0  0
 51 69  1  0  0  0  0
 52 68  1  0  0  0  0
 54 63  1  0  0  0  0
 55 64  1  0  0  0  0
 56 64  1  0  0  0  0
 57 64  1  0  0  0  0
 58 76  1  0  0  0  0
 59 84  1  0  0  0  0
 60 61  1  0  0  0  0
 60 83  1  0  0  0  0
 61 84  1  0  0  0  0
 62 64  1  0  0  0  0
 62 75  1  0  0  0  0
 63 76  1  0  0  0  0
 66 68  1  0  0  0  0
M  CHG  1  76   1
M  ISO  4  36 100  60 101  71 100  83 101
M  END
> <Batch ID>
0181

> <Smiles>
CNC(C)C(=O)NC(C(=O)N1Cc2cc([101O:1][101CH2:1]COCc3ncc(C4CCC[100N:0]4[100C:0](=O)N4CCCC(n5nc(-c6ccc(Oc7ccc(F)cc7F)cc6)c(C(N)=O)c5N)C4)nc3C)ccc2CC1C(=O)NC1CCCc2ccccc21)C(C)(C)C

> <Shape>
0.193

> <Color>
0.082

> <Negative vol penalty>
0.000

$$$$

  -OEChem-04052323023D

 83 92  0     1  0  0  0  0  0999 V2000
  -28.9785  -36.4798   25.5027 C   0  0  0  0  0  0  0  0  0  0  0  0
  -28.8625  -35.0937   25.4770 C   0  0  0  0  0  0  0  0  0  0  0  0
  -27.3516  -12.2637   22.3970 C   0  0  0  0  0  0  0  0  0  0  0  0
  -27.3751  -10.9323   20.3811 C   0  0  0  0  0  0  0  0  0  0  0  0
  -27.8530  -37.2763   25.2954 C   0  0  0  0  0  0  0  0  0  0  0  0
  -27.6208  -34.5032   25.2452 C   0  0  0  0  0  0  0  0  0  0  0  0
  -27.8755  -30.6794   21.9349 C   0  0  0  0  0  0  0  0  0  0  0  0
  -26.3929  -11.4132   22.9476 C   0  0  0  0  0  0  0  0  0  0  0  0
  -26.4164  -10.0817   20.9317 C   0  0  0  0  0  0  0  0  0  0  0  0
  -28.3592  -29.4599   22.4067 C   0  0  0  0  0  0  0  0  0  0  0  0
  -23.0718  -10.0858   21.4259 C   0  0  0  0  0  0  0  0  0  0  0  0
  -21.9996   -9.7082   20.6175 C   0  0  0  0  0  0  0  0  0  0  0  0
  -26.0969  -28.6471   22.6078 C   0  0  0  0  0  0  0  0  0  0  0  0
  -22.6368   -7.3899   20.8554 C   0  0  0  0  0  0  0  0  0  0  0  0
  -28.2543  -25.5884   20.1077 C   0  0  0  0  0  0  0  0  0  0  0  0
  -27.8427  -12.0233   21.1137 C   0  0  0  0  0  0  0  0  0  0  0  0
  -30.2319  -12.7814   20.6398 C   0  0  0  0  0  0  0  0  0  0  0  0
  -26.5986  -36.6953   25.0514 C   0  0  0  0  0  0  0  0  0  0  0  0
  -26.4960  -30.8961   21.8061 C   0  0  0  0  0  0  0  0  0  0  0  0
  -26.4772  -35.2926   25.0359 C   0  0  0  0  0  0  0  0  0  0  0  0
  -25.5983  -29.8694   22.1317 C   0  0  0  0  0  0  0  0  0  0  0  0
  -25.9254  -10.3222   22.2150 C   0  0  0  0  0  0  0  0  0  0  0  0
  -27.4698  -28.4446   22.7460 C   0  0  0  0  0  0  0  0  0  0  0  0
  -23.9265   -9.1154   21.9490 C   0  0  0  0  0  0  0  0  0  0  0  0
  -21.7821   -8.3603   20.3323 C   0  0  0  0  0  0  0  0  0  0  0  0
  -23.7090   -7.7675   21.6638 C   0  0  0  0  0  0  0  0  0  0  0  0
  -28.8326  -12.9018   20.5442 C   0  0  0  0  0  0  0  0  0  0  0  0
  -28.7319  -24.3561   20.4965 C   0  0  0  0  0  0  0  0  0  0  0  0
  -28.6893  -25.0290   22.6816 C   0  0  0  0  0  0  0  0  0  0  0  0
  -28.2119  -26.2614   22.2928 C   0  0  0  0  0  0  0  0  0  1  0  0
  -30.7179  -13.8554   19.9351 C   0  0  0  0  0  0  0  0  0  0  0  0
  -31.0218  -11.7874   21.3060 C   0  0  0  0  0  0  0  0  0  0  0  0
  -24.4118  -32.9150   23.1036 C   0  0  0  0  0  0  0  0  0  0  0  0
  -22.3703  -31.5639   20.9754 C   0  0  0  0  0  0  0  0  0  0  0  0
  -21.5812  -28.8806   19.0199 C   0  0  0  0  0  0  0  0  0  0  0  0
  -30.3125  -19.4044   19.1363 C   0  0  0  0  0  0  0  0  0  0  0  0
  -25.4019  -37.5970   24.8800 C   0  0  0  0  0  0  0  0  0  0  0  0
  -25.9913  -32.2078   21.2703 C   0  0  0  0  0  0  0  0  0  0  0  0
  -24.1089  -30.0445   21.9924 C   0  0  0  0  0  0  0  0  0  0  0  0
  -24.1923  -36.8944   24.2688 C   0  0  0  0  0  0  0  0  0  0  0  0
  -28.3971  -17.1248   16.8678 C   0  0  0  0  0  0  0  0  0  0  0  0
  -23.9530  -35.5519   24.9524 C   0  0  0  0  0  0  0  0  0  0  0  0
  -28.4043  -15.8321   17.6819 C   0  0  0  0  0  0  0  0  0  0  0  0
  -30.5121  -22.8926   19.4435 C   0  0  0  0  0  0  0  0  0  0  0  0
  -28.1389  -22.0380   19.6598 C   0  0  0  0  0  0  0  0  0  0  0  0
  -28.4692  -18.3492   17.7726 C   0  0  0  0  0  0  0  0  0  0  0  0
  -30.7937  -21.7865   18.4227 C   0  0  0  0  0  0  0  0  0  0  0  0
  -28.4679  -20.9725   18.6180 C   0  0  0  0  0  0  0  0  0  0  0  0
  -29.6537  -17.0555   19.5184 C   0  0  0  0  0  0  0  0  0  0  0  0
  -25.1520  -34.6149   24.7629 C   0  0  1  0  0  0  0  0  0  0  0  0
  -29.0233  -23.2829   19.4646 C   0  0  0  0  0  0  0  0  0  0  0  0
  -24.5470  -32.4989   21.6662 C   0  0  1  0  0  0  0  0  0  0  0  0
  -29.6059  -15.7937   18.6413 C   0  0  1  0  0  0  0  0  0  0  0  0
  -28.9333  -24.7128   24.1174 C   0  0  0  0  0  0  0  0  0  0  0  0
  -19.8316  -28.0543   17.4219 C   0  0  0  0  0  0  0  0  0  0  0  0
  -20.5022  -30.9936   23.3195 C   0  0  0  0  0  0  0  0  0  0  0  0
  -19.2743  -29.3747   21.8568 C   0  0  0  0  0  0  0  0  0  0  0  0
  -19.3579  -31.7913   21.2438 C   0  0  0  0  0  0  0  0  0  0  0  0
  -23.5354  -28.6709   16.8072 C   0  0  0  0  0  0  0  0  0  0  0  0
  -21.4383  -30.3765   20.9938 C   0  0  1  0  0  0  0  0  0  0  0  0
  -21.1582  -28.7841   17.5652 C   0  0  2  0  0  0  0  0  0  0  0  0
  -20.1711  -30.6311   21.8580 C   0  0  0  0  0  0  0  0  0  0  0  0
  -27.9856  -26.5631   20.9989 N   0  0  0  0  0  0  0  0  0  0  0  0
  -28.4541  -13.9684   19.8348 N   0  0  0  0  0  0  0  0  0  0  0  0
  -28.9579  -24.0543   21.7904 N   0  0  0  0  0  0  0  0  0  0  0  0
  -29.6229  -14.5280   19.4783 N   0  0  0  0  0  0  0  0  0  0  0  0
  -23.6642  -31.3472   21.4702 N   0  0  0  0  0  0  0  0  0  0  0  0
  -29.6031  -18.2714   18.7038 N   0  0  0  0  0  0  0  0  0  0  0  0
  -29.8934  -20.6450   18.6327 N   0  0  0  0  0  0  0  0  0  0  0  0
  -31.9710  -14.2808   19.6679 N   0  0  0  0  0  0  0  0  0  0  0  0
  -30.3617  -10.7526   21.9827 N   0  0  0  0  0  0  0  0  0  0  0  0
  -25.1404  -34.0417   23.4341 N   0  0  0  0  0  0  0  0  0  0  0  0
  -21.1558  -30.0577   19.5985 N   0  0  0  0  0  0  0  0  0  0  0  0
  -22.1862  -28.0501   16.7744 N   0  3  0  0  0  0  0  0  0  0  0  0
  -32.2755  -11.8252   21.3153 O   0  0  0  0  0  0  0  0  0  0  0  0
  -23.6980  -32.2630   23.8568 O   0  0  0  0  0  0  0  0  0  0  0  0
  -21.9675  -32.6420   20.5316 O   0  0  0  0  0  0  0  0  0  0  0  0
  -22.2216  -27.9983   19.5873 O   0  0  0  0  0  0  0  0  0  0  0  0
  -31.2642  -19.3112   19.9213 O   0  0  0  0  0  0  0  0  0  0  0  0
  -24.9901   -9.4919   22.7520 O   0  0  0  0  0  0  0  0  0  0  0  0
  -27.9466  -27.2348   23.2147 O   0  0  0  0  0  0  0  0  0  1  0  0
  -20.7515   -7.9977   19.5573 F   0  0  0  0  0  0  0  0  0  0  0  0
  -24.5260   -6.8307   22.1644 F   0  0  0  0  0  0  0  0  0  0  0  0
  1  2  1  0  0  0  0
  1  5  2  0  0  0  0
  2  6  2  0  0  0  0
  3  8  2  0  0  0  0
  3 16  1  0  0  0  0
  4  9  1  0  0  0  0
  4 16  2  0  0  0  0
  5 18  1  0  0  0  0
  6 20  1  0  0  0  0
  7 10  2  0  0  0  0
  7 19  1  0  0  0  0
  8 22  1  0  0  0  0
  9 22  2  0  0  0  0
 10 23  1  0  0  0  0
 11 12  2  0  0  0  0
 11 24  1  0  0  0  0
 12 25  1  0  0  0  0
 13 21  1  0  0  0  0
 13 23  2  0  0  0  0
 14 25  2  0  0  0  0
 14 26  1  0  0  0  0
 15 28  1  0  0  0  0
 15 63  2  0  0  0  0
 16 27  1  0  0  0  0
 17 27  1  0  0  0  0
 17 31  2  0  0  0  0
 17 32  1  0  0  0  0
 18 20  2  0  0  0  0
 18 37  1  0  0  0  0
 19 21  2  0  0  0  0
 19 38  1  0  0  0  0
 20 50  1  0  0  0  0
 21 39  1  0  0  0  0
 22 80  1  0  0  0  0
 23 81  1  0  0  0  0
 24 26  2  0  0  0  0
 24 80  1  0  0  0  0
 25 82  1  0  0  0  0
 26 83  1  0  0  0  0
 27 64  2  0  0  0  0
 28 51  1  0  0  0  0
 28 65  2  0  0  0  0
 29 30  2  0  0  0  0
 29 54  1  0  0  0  0
 29 65  1  0  0  0  0
 30 63  1  0  0  0  0
 30 81  1  0  0  0  0
 31 66  1  0  0  0  0
 31 70  1  0  0  0  0
 32 71  1  0  0  0  0
 32 75  2  0  0  0  0
 33 52  1  0  0  0  0
 33 72  1  0  0  0  0
 33 76  2  0  0  0  0
 34 60  1  0  0  0  0
 34 67  1  0  0  0  0
 34 77  2  0  0  0  0
 35 61  1  0  0  0  0
 35 73  1  0  0  0  0
 35 78  2  0  0  0  0
 36 68  1  0  0  0  0
 36 69  1  0  0  0  0
 36 79  2  0  0  0  0
 37 40  1  0  0  0  0
 38 52  1  0  0  0  0
 39 67  1  0  0  0  0
 40 42  1  0  0  0  0
 41 43  1  0  0  0  0
 41 46  1  0  0  0  0
 42 50  1  0  0  0  0
 43 53  1  0  0  0  0
 44 47  1  0  0  0  0
 44 51  1  0  0  0  0
 45 48  1  0  0  0  0
 45 51  1  0  0  0  0
 46 68  1  0  0  0  0
 47 69  1  0  0  0  0
 48 69  1  0  0  0  0
 49 53  1  0  0  0  0
 49 68  1  0  0  0  0
 50 72  1  0  0  0  0
 52 67  1  0  0  0  0
 53 66  1  0  0  0  0
 55 61  1  0  0  0  0
 56 62  1  0  0  0  0
 57 62  1  0  0  0  0
 58 62  1  0  0  0  0
 59 74  1  0  0  0  0
 60 62  1  0  0  0  0
 60 73  1  0  0  0  0
 61 74  1  0  0  0  0
 64 66  1  0  0  0  0
M  CHG  1  74   1
M  ISO  4  30 101  36 100  69 100  81 101
M  END
> <Batch ID>
0181

> <Smiles>
CNC(C)C(=O)NC(C(=O)N1Cc2cc([101O:1][101c:1]3ncc(C4CC[100N:0]([100C:0](=O)N5CCCC(n6nc(-c7ccc(Oc8ccc(F)cc8F)cc7)c(C(N)=O)c6N)C5)CC4)nc3C)ccc2CC1C(=O)NC1CCCc2ccccc21)C(C)(C)C

> <Shape>
0.273

> <Color>
0.069

> <Negative vol penalty>
0.000

$$$$

  -OEChem-04052323023D

 81 89  0     1  0  0  0  0  0999 V2000
  -25.0430   -9.0629   29.5997 C   0  0  0  0  0  0  0  0  0  0  0  0
  -25.5275  -10.0369   28.7325 C   0  0  0  0  0  0  0  0  0  0  0  0
  -23.0720   -9.8695   19.9490 C   0  0  0  0  0  0  0  0  0  0  0  0
  -23.8398   -9.8815   22.2397 C   0  0  0  0  0  0  0  0  0  0  0  0
  -23.6780   -8.7813   29.6372 C   0  0  0  0  0  0  0  0  0  0  0  0
  -24.6474  -10.7290   27.9014 C   0  0  0  0  0  0  0  0  0  0  0  0
  -25.5561  -15.7104   27.8280 C   0  0  0  0  0  0  0  0  0  0  0  0
  -22.3269   -8.7184   20.2047 C   0  0  0  0  0  0  0  0  0  0  0  0
  -23.0946   -8.7305   22.4955 C   0  0  0  0  0  0  0  0  0  0  0  0
  -26.6258  -16.1511   27.0501 C   0  0  0  0  0  0  0  0  0  0  0  0
  -21.1092   -6.0009   23.8467 C   0  0  0  0  0  0  0  0  0  0  0  0
  -20.3569   -5.9620   25.0206 C   0  0  0  0  0  0  0  0  0  0  0  0
  -25.0874  -16.7805   25.3019 C   0  0  0  0  0  0  0  0  0  0  0  0
  -19.1134   -7.8995   24.2878 C   0  0  0  0  0  0  0  0  0  0  0  0
  -23.8285  -10.4510   20.9664 C   0  0  0  0  0  0  0  0  0  0  0  0
  -24.1747  -12.9751   20.8381 C   0  0  0  0  0  0  0  0  0  0  0  0
  -22.7795   -9.4770   28.8131 C   0  0  0  0  0  0  0  0  0  0  0  0
  -24.2426  -15.7915   27.3435 C   0  0  0  0  0  0  0  0  0  0  0  0
  -23.2692  -10.4555   27.9269 C   0  0  0  0  0  0  0  0  0  0  0  0
  -24.0025  -16.3425   26.0766 C   0  0  0  0  0  0  0  0  0  0  0  0
  -22.3381   -8.1489   21.4780 C   0  0  0  0  0  0  0  0  0  0  0  0
  -26.3918  -16.6835   25.7856 C   0  0  0  0  0  0  0  0  0  0  0  0
  -20.8637   -6.9891   22.8933 C   0  0  0  0  0  0  0  0  0  0  0  0
  -19.3590   -6.9113   25.2411 C   0  0  0  0  0  0  0  0  0  0  0  0
  -19.8658   -7.9384   23.1139 C   0  0  0  0  0  0  0  0  0  0  0  0
  -24.5989  -11.6397   20.7027 C   0  0  0  0  0  0  0  0  0  0  0  0
  -25.2669  -13.7215   20.4689 C   0  0  0  0  0  0  0  0  0  0  0  0
  -29.7242  -17.9188   21.9792 C   0  0  0  0  0  0  0  0  0  0  0  0
  -22.9066  -13.4945   21.2599 C   0  0  0  0  0  0  0  0  0  0  0  0
  -21.9608  -13.6794   26.6831 C   0  0  0  0  0  0  0  0  0  0  0  0
  -20.1793  -16.3441   26.1851 C   0  0  0  0  0  0  0  0  0  0  0  0
  -20.0905  -19.6679   25.4164 C   0  0  0  0  0  0  0  0  0  0  0  0
  -30.7532  -14.7308   20.6356 C   0  0  0  0  0  0  0  0  0  0  0  0
  -21.3186   -9.1046   28.8549 C   0  0  0  0  0  0  0  0  0  0  0  0
  -23.0973  -15.3365   28.2058 C   0  0  0  0  0  0  0  0  0  0  0  0
  -22.6094  -16.4704   25.5186 C   0  0  0  0  0  0  0  0  0  0  0  0
  -20.4061  -10.1453   28.2110 C   0  0  0  0  0  0  0  0  0  0  0  0
  -29.6030  -12.3417   18.2595 C   0  0  0  0  0  0  0  0  0  0  0  0
  -20.9677  -10.5870   26.8633 C   0  0  0  0  0  0  0  0  0  0  0  0
  -28.1665  -12.0519   18.6982 C   0  0  0  0  0  0  0  0  0  0  0  0
  -30.5246  -12.5642   19.4566 C   0  0  0  0  0  0  0  0  0  0  0  0
  -28.6290  -13.3028   20.8476 C   0  0  0  0  0  0  0  0  0  0  0  0
  -30.3383  -17.3187   24.1884 C   0  0  0  0  0  0  0  0  0  0  0  0
  -22.3430  -11.2451   27.0277 C   0  0  1  0  0  0  0  0  0  0  0  0
  -30.8273  -16.8848   21.8662 C   0  0  1  0  0  0  0  0  0  0  0  0
  -21.8457  -14.9926   27.4042 C   0  0  1  0  0  0  0  0  0  0  0  0
  -27.6505  -13.1267   19.6739 C   0  0  2  0  0  0  0  0  0  0  0  0
  -31.4813  -16.8735   23.2681 C   0  0  0  0  0  0  0  0  0  0  0  0
  -32.0421  -15.5112   23.6871 C   0  0  0  0  0  0  0  0  0  0  0  0
  -32.6231  -17.9097   23.3089 C   0  0  0  0  0  0  0  0  0  0  0  0
  -18.4865  -21.5618   25.0453 C   0  0  0  0  0  0  0  0  0  0  0  0
  -19.4853  -15.2147   23.4369 C   0  0  0  0  0  0  0  0  0  0  0  0
  -18.7058  -17.4991   22.7720 C   0  0  0  0  0  0  0  0  0  0  0  0
  -17.5723  -16.2900   24.6364 C   0  0  0  0  0  0  0  0  0  0  0  0
  -21.2286  -21.2248   27.6614 C   0  0  0  0  0  0  0  0  0  0  0  0
  -28.4556  -18.9700   23.8872 C   0  0  0  0  0  0  0  0  0  0  0  0
  -27.1768  -18.1841   24.1159 C   0  0  0  0  0  0  0  0  0  1  0  0
  -19.8909  -17.2308   24.9979 C   0  0  1  0  0  0  0  0  0  0  0  0
  -19.3548  -20.8308   26.0574 C   0  0  2  0  0  0  0  0  0  0  0  0
  -18.9401  -16.5546   23.9702 C   0  0  0  0  0  0  0  0  0  0  0  0
  -25.8622  -11.5403   20.2803 N   0  0  0  0  0  0  0  0  0  0  0  0
  -26.2410  -12.8228   20.1471 N   0  0  0  0  0  0  0  0  0  0  0  0
  -29.5059  -18.1402   23.3375 N   0  0  0  0  0  0  0  0  0  0  0  0
  -21.5233  -16.0058   26.3973 N   0  0  0  0  0  0  0  0  0  0  0  0
  -29.9790  -13.5963   20.3415 N   0  0  0  0  0  0  0  0  0  0  0  0
  -25.4796  -15.0524   20.3914 N   0  0  0  0  0  0  0  0  0  0  0  0
  -21.8941  -12.5882   21.6032 N   0  0  0  0  0  0  0  0  0  0  0  0
  -22.1997  -12.6008   27.5132 N   0  0  0  0  0  0  0  0  0  0  0  0
  -19.3876  -18.4882   25.5402 N   0  0  0  0  0  0  0  0  0  0  0  0
  -30.1587  -15.6632   21.4770 N   0  0  0  0  0  0  0  0  0  0  0  0
  -20.3257  -21.8037   26.6334 N   0  3  0  0  0  0  0  0  0  0  0  0
  -29.1000  -18.3815   21.0348 O   0  0  0  0  0  0  0  0  0  0  0  0
  -22.6728  -14.7257   21.3146 O   0  0  0  0  0  0  0  0  0  0  0  0
  -21.8403  -13.6469   25.4641 O   0  0  0  0  0  0  0  0  0  0  0  0
  -19.2473  -15.9714   26.9021 O   0  0  0  0  0  0  0  0  0  0  0  0
  -21.1781  -19.7943   24.8580 O   0  0  0  0  0  0  0  0  0  0  0  0
  -31.8879  -14.9029   20.1776 O   0  0  0  0  0  0  0  0  0  0  0  0
  -21.6109   -7.0259   21.7280 O   0  0  0  0  0  0  0  0  0  0  0  0
  -27.4342  -17.1138   25.0240 O   0  0  0  0  0  0  0  0  0  1  0  0
  -18.6355   -6.8729   26.3678 F   0  0  0  0  0  0  0  0  0  0  0  0
  -19.6245   -8.8895   22.2012 F   0  0  0  0  0  0  0  0  0  0  0  0
  1  2  1  0  0  0  0
  1  5  2  0  0  0  0
  2  6  2  0  0  0  0
  3  8  2  0  0  0  0
  3 15  1  0  0  0  0
  4  9  1  0  0  0  0
  4 15  2  0  0  0  0
  5 17  1  0  0  0  0
  6 19  1  0  0  0  0
  7 10  2  0  0  0  0
  7 18  1  0  0  0  0
  8 21  1  0  0  0  0
  9 21  2  0  0  0  0
 10 22  1  0  0  0  0
 11 12  2  0  0  0  0
 11 23  1  0  0  0  0
 12 24  1  0  0  0  0
 13 20  1  0  0  0  0
 13 22  2  0  0  0  0
 14 24  2  0  0  0  0
 14 25  1  0  0  0  0
 15 26  1  0  0  0  0
 16 26  1  0  0  0  0
 16 27  2  0  0  0  0
 16 29  1  0  0  0  0
 17 19  2  0  0  0  0
 17 34  1  0  0  0  0
 18 20  2  0  0  0  0
 18 35  1  0  0  0  0
 19 44  1  0  0  0  0
 20 36  1  0  0  0  0
 21 78  1  0  0  0  0
 22 79  1  0  0  0  0
 23 25  2  0  0  0  0
 23 78  1  0  0  0  0
 24 80  1  0  0  0  0
 25 81  1  0  0  0  0
 26 61  2  0  0  0  0
 27 62  1  0  0  0  0
 27 66  1  0  0  0  0
 28 45  1  0  0  0  0
 28 63  1  0  0  0  0
 28 72  2  0  0  0  0
 29 67  1  0  0  0  0
 29 73  2  0  0  0  0
 30 46  1  0  0  0  0
 30 68  1  0  0  0  0
 30 74  2  0  0  0  0
 31 58  1  0  0  0  0
 31 64  1  0  0  0  0
 31 75  2  0  0  0  0
 32 59  1  0  0  0  0
 32 69  1  0  0  0  0
 32 76  2  0  0  0  0
 33 65  1  0  0  0  0
 33 70  1  0  0  0  0
 33 77  2  0  0  0  0
 34 37  1  0  0  0  0
 35 46  1  0  0  0  0
 36 64  1  0  0  0  0
 37 39  1  0  0  0  0
 38 40  1  0  0  0  0
 38 41  1  0  0  0  0
 39 44  1  0  0  0  0
 40 47  1  0  0  0  0
 41 65  1  0  0  0  0
 42 47  1  0  0  0  0
 42 65  1  0  0  0  0
 43 48  1  0  0  0  0
 43 63  1  0  0  0  0
 44 68  1  0  0  0  0
 45 48  1  0  0  0  0
 45 70  1  0  0  0  0
 46 64  1  0  0  0  0
 47 62  1  0  0  0  0
 48 49  1  0  0  0  0
 48 50  1  0  0  0  0
 51 59  1  0  0  0  0
 52 60  1  0  0  0  0
 53 60  1  0  0  0  0
 54 60  1  0  0  0  0
 55 71  1  0  0  0  0
 56 57  1  0  0  0  0
 56 63  1  0  0  0  0
 57 79  1  0  0  0  0
 58 60  1  0  0  0  0
 58 69  1  0  0  0  0
 59 71  1  0  0  0  0
 61 62  1  0  0  0  0
M  CHG  1  71   1
M  ISO  4  33 100  57 101  70 100  79 101
M  END
> <Batch ID>
0181

> <Smiles>
CNC(C)C(=O)NC(C(=O)N1Cc2cc([101O:1][101CH2:1]CN3CC(C)(C)C([100NH:0][100C:0](=O)N4CCCC(n5nc(-c6ccc(Oc7ccc(F)cc7F)cc6)c(C(N)=O)c5N)C4)C3=O)ccc2CC1C(=O)NC1CCCc2ccccc21)C(C)(C)C

> <Shape>
0.175

> <Color>
0.193

> <Negative vol penalty>
0.000

$$$$

  -OEChem-04052323023D

 86 95  0     1  0  0  0  0  0999 V2000
  -30.8919  -35.7738   24.1639 C   0  0  0  0  0  0  0  0  0  0  0  0
  -30.8905  -34.8669   23.1089 C   0  0  0  0  0  0  0  0  0  0  0  0
  -22.9102  -10.0964   20.7867 C   0  0  0  0  0  0  0  0  0  0  0  0
  -24.5673   -8.8709   22.0475 C   0  0  0  0  0  0  0  0  0  0  0  0
  -30.1079  -35.5314   25.2911 C   0  0  0  0  0  0  0  0  0  0  0  0
  -30.1059  -33.7165   23.1810 C   0  0  0  0  0  0  0  0  0  0  0  0
  -26.3219  -29.2706   19.0298 C   0  0  0  0  0  0  0  0  0  0  0  0
  -22.1249   -8.9468   20.7014 C   0  0  0  0  0  0  0  0  0  0  0  0
  -23.7819   -7.7213   21.9622 C   0  0  0  0  0  0  0  0  0  0  0  0
  -26.1922  -27.9122   18.7443 C   0  0  0  0  0  0  0  0  0  0  0  0
  -21.0411   -6.4605   23.4850 C   0  0  0  0  0  0  0  0  0  0  0  0
  -20.8728   -5.7050   24.6454 C   0  0  0  0  0  0  0  0  0  0  0  0
  -24.8169  -27.6371   20.7070 C   0  0  0  0  0  0  0  0  0  0  0  0
  -21.8772   -3.7998   23.5506 C   0  0  0  0  0  0  0  0  0  0  0  0
  -26.2841  -22.8700   18.8465 C   0  0  0  0  0  0  0  0  0  0  0  0
  -24.1315  -10.0585   21.4597 C   0  0  0  0  0  0  0  0  0  0  0  0
  -24.9052  -12.2290   22.5542 C   0  0  0  0  0  0  0  0  0  0  0  0
  -29.3058  -34.3822   25.3728 C   0  0  0  0  0  0  0  0  0  0  0  0
  -25.7080  -29.8214   20.1639 C   0  0  0  0  0  0  0  0  0  0  0  0
  -29.3114  -33.4578   24.3109 C   0  0  0  0  0  0  0  0  0  0  0  0
  -24.9383  -29.0034   21.0033 C   0  0  0  0  0  0  0  0  0  0  0  0
  -22.5607   -7.7593   21.2892 C   0  0  0  0  0  0  0  0  0  0  0  0
  -25.4420  -27.0946   19.5845 C   0  0  0  0  0  0  0  0  0  0  0  0
  -21.6274   -5.8857   22.3574 C   0  0  0  0  0  0  0  0  0  0  0  0
  -21.2908   -4.3747   24.6782 C   0  0  0  0  0  0  0  0  0  0  0  0
  -22.0455   -4.5554   22.3902 C   0  0  0  0  0  0  0  0  0  0  0  0
  -24.9434  -11.2455   21.5476 C   0  0  0  0  0  0  0  0  0  0  0  0
  -25.6571  -23.7742   18.0136 C   0  0  0  0  0  0  0  0  0  0  0  0
  -25.9443  -21.5464   18.6546 C   0  0  0  0  0  0  0  0  0  0  0  0
  -25.8635  -13.1395   22.1812 C   0  0  0  0  0  0  0  0  0  0  0  0
  -24.5183  -22.1038   16.9744 C   0  0  0  0  0  0  0  0  0  0  0  0
  -24.0774  -12.3120   23.7219 C   0  0  0  0  0  0  0  0  0  0  0  0
  -26.7461  -31.2733   22.7941 C   0  0  0  0  0  0  0  0  0  0  0  0
  -23.5778  -31.7163   23.3308 C   0  0  0  0  0  0  0  0  0  0  0  0
  -20.3721  -30.6935   22.7616 C   0  0  0  0  0  0  0  0  0  0  0  0
  -28.0672  -16.2508   18.0170 C   0  0  0  0  0  0  0  0  0  0  0  0
  -28.5114  -34.1394   26.6317 C   0  0  0  0  0  0  0  0  0  0  0  0
  -25.8355  -31.2938   20.4433 C   0  0  0  0  0  0  0  0  0  0  0  0
  -24.2425  -29.5496   22.2223 C   0  0  0  0  0  0  0  0  0  0  0  0
  -27.4207  -33.0838   26.4696 C   0  0  0  0  0  0  0  0  0  0  0  0
  -29.4427  -12.9011   18.6177 C   0  0  0  0  0  0  0  0  0  0  0  0
  -27.9695  -31.8549   25.7517 C   0  0  0  0  0  0  0  0  0  0  0  0
  -28.3637  -12.2410   19.4773 C   0  0  0  0  0  0  0  0  0  0  0  0
  -26.7598  -18.4580   20.6506 C   0  0  0  0  0  0  0  0  0  0  0  0
  -28.8574  -13.9397   17.6635 C   0  0  0  0  0  0  0  0  0  0  0  0
  -26.8856  -17.0201   20.1577 C   0  0  0  0  0  0  0  0  0  0  0  0
  -26.9388  -14.2985   19.1680 C   0  0  0  0  0  0  0  0  0  0  0  0
  -27.1242  -18.5247   18.3018 C   0  0  0  0  0  0  0  0  0  0  0  0
  -28.4546  -32.2108   24.3412 C   0  0  1  0  0  0  0  0  0  0  0  0
  -25.5924  -31.6475   21.9073 C   0  0  1  0  0  0  0  0  0  0  0  0
  -27.4972  -13.2971   20.1885 C   0  0  1  0  0  0  0  0  0  0  0  0
  -26.3011  -19.1904   19.3944 C   0  0  2  0  0  0  0  0  0  0  0  0
  -22.2949  -20.9986   16.5401 C   0  0  0  0  0  0  0  0  0  0  0  0
  -24.1686  -20.7601   14.8706 C   0  0  0  0  0  0  0  0  0  0  0  0
  -17.9965  -31.2293   23.3673 C   0  0  0  0  0  0  0  0  0  0  0  0
  -23.9912  -30.4400   26.0713 C   0  0  0  0  0  0  0  0  0  0  0  0
  -21.5109  -30.1361   26.2266 C   0  0  0  0  0  0  0  0  0  0  0  0
  -22.4770  -32.4303   26.0652 C   0  0  0  0  0  0  0  0  0  0  0  0
  -19.6544  -31.2389   19.9427 C   0  0  0  0  0  0  0  0  0  0  0  0
  -25.9603  -25.2289   18.1461 C   0  0  0  0  0  0  0  0  0  1  0  0
  -23.5378  -21.6782   15.9348 C   0  0  0  0  0  0  0  0  0  0  0  0
  -22.4918  -30.9331   24.0280 C   0  0  1  0  0  0  0  0  0  0  0  0
  -19.1231  -31.4637   22.3729 C   0  0  2  0  0  0  0  0  0  0  0  0
  -22.6323  -30.9739   25.5759 C   0  0  0  0  0  0  0  0  0  0  0  0
  -25.8538  -11.5067   20.6059 N   0  0  0  0  0  0  0  0  0  0  0  0
  -24.7656  -23.4245   17.0632 N   0  0  0  0  0  0  0  0  0  0  0  0
  -25.0618  -21.1263   17.7246 N   0  0  0  0  0  0  0  0  0  0  0  0
  -26.3965  -12.6647   21.0190 N   0  0  0  0  0  0  0  0  0  0  0  0
  -24.4024  -30.9943   22.4564 N   0  0  0  0  0  0  0  0  0  0  0  0
  -28.0216  -14.9011   18.3830 N   0  0  0  0  0  0  0  0  0  0  0  0
  -27.2984  -17.1477   18.7577 N   0  0  0  0  0  0  0  0  0  0  0  0
  -26.2937  -14.2919   22.7373 N   0  0  0  0  0  0  0  0  0  0  0  0
  -23.1451  -11.2916   23.9540 N   0  0  0  0  0  0  0  0  0  0  0  0
  -26.5537  -20.6050   19.4729 N   0  0  0  0  0  0  0  0  0  0  0  0
  -27.3307  -32.3463   23.4394 N   0  0  0  0  0  0  0  0  0  0  0  0
  -21.2254  -31.4579   23.5289 N   0  0  0  0  0  0  0  0  0  0  0  0
  -18.6536  -31.0420   21.0228 N   0  3  0  0  0  0  0  0  0  0  0  0
  -24.1507  -13.2713   24.5268 O   0  0  0  0  0  0  0  0  0  0  0  0
  -27.0802  -30.0980   22.8873 O   0  0  0  0  0  0  0  0  0  0  0  0
  -23.6859  -32.9257   23.5484 O   0  0  0  0  0  0  0  0  0  0  0  0
  -20.5693  -29.5289   22.4219 O   0  0  0  0  0  0  0  0  0  0  0  0
  -28.7988  -16.6448   17.0991 O   0  0  0  0  0  0  0  0  0  0  0  0
  -21.7946   -6.6374   21.2064 O   0  0  0  0  0  0  0  0  0  0  0  0
  -25.3118  -25.7423   19.3031 O   0  0  0  0  0  0  0  0  0  1  0  0
  -21.1305   -3.6497   25.7930 F   0  0  0  0  0  0  0  0  0  0  0  0
  -22.6105   -3.9980   21.3104 F   0  0  0  0  0  0  0  0  0  0  0  0
  1  2  1  0  0  0  0
  1  5  2  0  0  0  0
  2  6  2  0  0  0  0
  3  8  2  0  0  0  0
  3 16  1  0  0  0  0
  4  9  1  0  0  0  0
  4 16  2  0  0  0  0
  5 18  1  0  0  0  0
  6 20  1  0  0  0  0
  7 10  2  0  0  0  0
  7 19  1  0  0  0  0
  8 22  1  0  0  0  0
  9 22  2  0  0  0  0
 10 23  1  0  0  0  0
 11 12  2  0  0  0  0
 11 24  1  0  0  0  0
 12 25  1  0  0  0  0
 13 21  1  0  0  0  0
 13 23  2  0  0  0  0
 14 25  2  0  0  0  0
 14 26  1  0  0  0  0
 15 28  1  0  0  0  0
 15 29  2  0  0  0  0
 16 27  1  0  0  0  0
 17 27  1  0  0  0  0
 17 30  2  0  0  0  0
 17 32  1  0  0  0  0
 18 20  2  0  0  0  0
 18 37  1  0  0  0  0
 19 21  2  0  0  0  0
 19 38  1  0  0  0  0
 20 49  1  0  0  0  0
 21 39  1  0  0  0  0
 22 83  1  0  0  0  0
 23 84  1  0  0  0  0
 24 26  2  0  0  0  0
 24 83  1  0  0  0  0
 25 85  1  0  0  0  0
 26 86  1  0  0  0  0
 27 65  2  0  0  0  0
 28 60  1  0  0  0  0
 28 66  2  0  0  0  0
 29 67  1  0  0  0  0
 29 74  1  0  0  0  0
 30 68  1  0  0  0  0
 30 72  1  0  0  0  0
 31 61  1  0  0  0  0
 31 66  1  0  0  0  0
 31 67  2  0  0  0  0
 32 73  1  0  0  0  0
 32 78  2  0  0  0  0
 33 50  1  0  0  0  0
 33 75  1  0  0  0  0
 33 79  2  0  0  0  0
 34 62  1  0  0  0  0
 34 69  1  0  0  0  0
 34 80  2  0  0  0  0
 35 63  1  0  0  0  0
 35 76  1  0  0  0  0
 35 81  2  0  0  0  0
 36 70  1  0  0  0  0
 36 71  1  0  0  0  0
 36 82  2  0  0  0  0
 37 40  1  0  0  0  0
 38 50  1  0  0  0  0
 39 69  1  0  0  0  0
 40 42  1  0  0  0  0
 41 43  1  0  0  0  0
 41 45  1  0  0  0  0
 42 49  1  0  0  0  0
 43 51  1  0  0  0  0
 44 46  1  0  0  0  0
 44 52  1  0  0  0  0
 45 70  1  0  0  0  0
 46 71  1  0  0  0  0
 47 51  1  0  0  0  0
 47 70  1  0  0  0  0
 48 52  1  0  0  0  0
 48 71  1  0  0  0  0
 49 75  1  0  0  0  0
 50 69  1  0  0  0  0
 51 68  1  0  0  0  0
 52 74  1  0  0  0  0
 53 61  1  0  0  0  0
 54 61  1  0  0  0  0
 55 63  1  0  0  0  0
 56 64  1  0  0  0  0
 57 64  1  0  0  0  0
 58 64  1  0  0  0  0
 59 77  1  0  0  0  0
 60 84  1  0  0  0  0
 62 64  1  0  0  0  0
 62 76  1  0  0  0  0
 63 77  1  0  0  0  0
 65 68  1  0  0  0  0
M  CHG  1  77   1
M  ISO  4  36 100  60 101  71 100  84 101
M  END
> <Batch ID>
0181

> <Smiles>
CNC(C)C(=O)NC(C(=O)N1Cc2cc([101O:1][101CH2:1]c3cc(NC4CC[100N:0]([100C:0](=O)N5CCCC(n6nc(-c7ccc(Oc8ccc(F)cc8F)cc7)c(C(N)=O)c6N)C5)C4)nc(C(C)C)n3)ccc2CC1C(=O)NC1CCCc2ccccc21)C(C)(C)C

> <Shape>
0.261

> <Color>
0.116

> <Negative vol penalty>
0.000

$$$$

  -OEChem-04052323023D

 82 91  0     1  0  0  0  0  0999 V2000
  -27.3079  -37.8322   19.0453 C   0  0  0  0  0  0  0  0  0  0  0  0
  -27.2991  -36.6350   18.3367 C   0  0  0  0  0  0  0  0  0  0  0  0
  -24.9163   -8.3463   21.5285 C   0  0  0  0  0  0  0  0  0  0  0  0
  -23.4014   -9.3595   19.9424 C   0  0  0  0  0  0  0  0  0  0  0  0
  -27.4631  -37.8198   20.4308 C   0  0  0  0  0  0  0  0  0  0  0  0
  -27.4465  -35.4246   19.0133 C   0  0  0  0  0  0  0  0  0  0  0  0
  -25.3562  -28.5788   18.7281 C   0  0  0  0  0  0  0  0  0  0  0  0
  -23.8327   -7.9632   22.3188 C   0  0  0  0  0  0  0  0  0  0  0  0
  -22.3177   -8.9763   20.7327 C   0  0  0  0  0  0  0  0  0  0  0  0
  -25.8866  -27.2895   18.7359 C   0  0  0  0  0  0  0  0  0  0  0  0
  -21.4881   -5.5269   22.3195 C   0  0  0  0  0  0  0  0  0  0  0  0
  -21.4811   -4.2263   22.8234 C   0  0  0  0  0  0  0  0  0  0  0  0
  -26.0681  -27.3853   21.1394 C   0  0  0  0  0  0  0  0  0  0  0  0
  -21.4366   -5.0993   25.0758 C   0  0  0  0  0  0  0  0  0  0  0  0
  -27.1199  -21.1762   18.9543 C   0  0  0  0  0  0  0  0  0  0  0  0
  -24.7007   -9.0445   20.3403 C   0  0  0  0  0  0  0  0  0  0  0  0
  -26.4161   -8.7040   18.4832 C   0  0  0  0  0  0  0  0  0  0  0  0
  -27.6029  -36.6081   21.1257 C   0  0  0  0  0  0  0  0  0  0  0  0
  -25.1876  -29.2864   19.9269 C   0  0  0  0  0  0  0  0  0  0  0  0
  -27.6051  -35.3961   20.4093 C   0  0  0  0  0  0  0  0  0  0  0  0
  -25.5330  -28.6825   21.1443 C   0  0  0  0  0  0  0  0  0  0  0  0
  -22.5334   -8.2782   21.9209 C   0  0  0  0  0  0  0  0  0  0  0  0
  -26.2453  -26.6936   19.9414 C   0  0  0  0  0  0  0  0  0  0  0  0
  -21.4695   -6.6137   23.1936 C   0  0  0  0  0  0  0  0  0  0  0  0
  -21.4553   -4.0124   24.2016 C   0  0  0  0  0  0  0  0  0  0  0  0
  -21.4437   -6.3999   24.5718 C   0  0  0  0  0  0  0  0  0  0  0  0
  -25.8197   -9.4410   19.5238 C   0  0  0  0  0  0  0  0  0  0  0  0
  -28.4444  -21.0080   19.2673 C   0  0  0  0  0  0  0  0  0  0  0  0
  -27.4303   -9.5109   18.0285 C   0  0  0  0  0  0  0  0  0  0  0  0
  -27.4505  -23.4094   18.8947 C   0  0  0  0  0  0  0  0  0  0  0  0
  -26.0830   -7.4062   17.9730 C   0  0  0  0  0  0  0  0  0  0  0  0
  -26.3569  -31.9914   21.1185 C   0  0  0  0  0  0  0  0  0  0  0  0
  -24.2379  -31.4010   23.5025 C   0  0  0  0  0  0  0  0  0  0  0  0
  -22.3722  -29.1177   25.2209 C   0  0  0  0  0  0  0  0  0  0  0  0
  -28.0480  -15.4011   18.1988 C   0  0  0  0  0  0  0  0  0  0  0  0
  -27.8153  -36.6476   22.6184 C   0  0  0  0  0  0  0  0  0  0  0  0
  -24.5893  -30.6662   19.9039 C   0  0  0  0  0  0  0  0  0  0  0  0
  -25.3531  -29.3919   22.4607 C   0  0  0  0  0  0  0  0  0  0  0  0
  -27.5900  -35.3013   23.3016 C   0  0  0  0  0  0  0  0  0  0  0  0
  -30.4405  -12.9207   19.4464 C   0  0  0  0  0  0  0  0  0  0  0  0
  -28.2949  -34.1880   22.5331 C   0  0  0  0  0  0  0  0  0  0  0  0
  -29.5495  -11.6886   19.5647 C   0  0  0  0  0  0  0  0  0  0  0  0
  -29.6869  -14.2152   19.7543 C   0  0  0  0  0  0  0  0  0  0  0  0
  -27.5543  -13.1461   19.0759 C   0  0  0  0  0  0  0  0  0  0  0  0
  -28.1587  -17.9399   17.9377 C   0  0  0  0  0  0  0  0  0  0  0  0
  -28.9040  -17.2752   19.8165 C   0  0  0  0  0  0  0  0  0  0  0  0
  -27.7374  -34.0614   21.1102 C   0  0  1  0  0  0  0  0  0  0  0  0
  -24.9404  -31.4905   21.1386 C   0  0  1  0  0  0  0  0  0  0  0  0
  -28.2892  -11.8511   18.7021 C   0  0  2  0  0  0  0  0  0  0  0  0
  -28.1548  -18.5313   19.3518 C   0  0  0  0  0  0  0  0  0  0  0  0
  -20.7688  -28.9294   27.1420 C   0  0  0  0  0  0  0  0  0  0  0  0
  -26.5596  -31.6717   25.4636 C   0  0  0  0  0  0  0  0  0  0  0  0
  -25.1343  -30.5606   27.1964 C   0  0  0  0  0  0  0  0  0  0  0  0
  -24.4286  -32.7430   26.2156 C   0  0  0  0  0  0  0  0  0  0  0  0
  -20.2144  -28.0976   23.4709 C   0  0  0  0  0  0  0  0  0  0  0  0
  -26.9130  -24.7840   18.6911 C   0  0  0  0  0  0  0  0  0  1  0  0
  -24.2819  -30.6469   24.8095 C   0  0  1  0  0  0  0  0  0  0  0  0
  -20.9133  -29.1198   25.6401 C   0  0  2  0  0  0  0  0  0  0  0  0
  -25.1064  -31.3926   25.8965 C   0  0  0  0  0  0  0  0  0  0  0  0
  -26.5871  -22.3919   18.7588 N   0  0  0  0  0  0  0  0  0  0  0  0
  -26.4063  -10.6250   19.7191 N   0  0  0  0  0  0  0  0  0  0  0  0
  -29.2636  -22.0680   19.3907 N   0  0  0  0  0  0  0  0  0  0  0  0
  -28.7587  -23.3047   19.2006 N   0  0  0  0  0  0  0  0  0  0  0  0
  -27.3819  -10.6381   18.7949 N   0  0  0  0  0  0  0  0  0  0  0  0
  -24.7700  -30.7417   22.3853 N   0  0  0  0  0  0  0  0  0  0  0  0
  -28.4368  -14.3159   18.9915 N   0  0  0  0  0  0  0  0  0  0  0  0
  -28.4583  -16.6593   18.5742 N   0  0  0  0  0  0  0  0  0  0  0  0
  -28.3500   -9.3591   17.0521 N   0  0  0  0  0  0  0  0  0  0  0  0
  -25.0121   -6.7142   18.5549 N   0  0  0  0  0  0  0  0  0  0  0  0
  -28.9362  -19.7123   19.4577 N   0  0  0  0  0  0  0  0  0  0  0  0
  -26.4668  -33.3688   21.1249 N   0  0  0  0  0  0  0  0  0  0  0  0
  -22.8942  -30.3933   25.1814 N   0  0  0  0  0  0  0  0  0  0  0  0
  -20.1755  -28.0216   24.9541 N   0  3  0  0  0  0  0  0  0  0  0  0
  -26.7266   -6.8689   17.0399 O   0  0  0  0  0  0  0  0  0  0  0  0
  -27.2818  -31.1876   21.1000 O   0  0  0  0  0  0  0  0  0  0  0  0
  -23.7429  -32.5304   23.4723 O   0  0  0  0  0  0  0  0  0  0  0  0
  -22.9884  -28.0872   24.9584 O   0  0  0  0  0  0  0  0  0  0  0  0
  -27.3289  -15.2571   17.2012 O   0  0  0  0  0  0  0  0  0  0  0  0
  -21.4757   -7.9043   22.6917 O   0  0  0  0  0  0  0  0  0  0  0  0
  -26.7674  -25.4270   19.9519 O   0  0  0  0  0  0  0  0  0  1  0  0
  -21.4469   -2.7634   24.6853 F   0  0  0  0  0  0  0  0  0  0  0  0
  -21.4245   -7.4400   25.4165 F   0  0  0  0  0  0  0  0  0  0  0  0
  1  2  1  0  0  0  0
  1  5  2  0  0  0  0
  2  6  2  0  0  0  0
  3  8  2  0  0  0  0
  3 16  1  0  0  0  0
  4  9  1  0  0  0  0
  4 16  2  0  0  0  0
  5 18  1  0  0  0  0
  6 20  1  0  0  0  0
  7 10  2  0  0  0  0
  7 19  1  0  0  0  0
  8 22  1  0  0  0  0
  9 22  2  0  0  0  0
 10 23  1  0  0  0  0
 11 12  2  0  0  0  0
 11 24  1  0  0  0  0
 12 25  1  0  0  0  0
 13 21  1  0  0  0  0
 13 23  2  0  0  0  0
 14 25  2  0  0  0  0
 14 26  1  0  0  0  0
 15 28  1  0  0  0  0
 15 60  2  0  0  0  0
 16 27  1  0  0  0  0
 17 27  1  0  0  0  0
 17 29  2  0  0  0  0
 17 31  1  0  0  0  0
 18 20  2  0  0  0  0
 18 36  1  0  0  0  0
 19 21  2  0  0  0  0
 19 37  1  0  0  0  0
 20 47  1  0  0  0  0
 21 38  1  0  0  0  0
 22 79  1  0  0  0  0
 23 80  1  0  0  0  0
 24 26  2  0  0  0  0
 24 79  1  0  0  0  0
 25 81  1  0  0  0  0
 26 82  1  0  0  0  0
 27 61  2  0  0  0  0
 28 62  2  0  0  0  0
 28 70  1  0  0  0  0
 29 64  1  0  0  0  0
 29 68  1  0  0  0  0
 30 56  1  0  0  0  0
 30 60  1  0  0  0  0
 30 63  2  0  0  0  0
 31 69  1  0  0  0  0
 31 74  2  0  0  0  0
 32 48  1  0  0  0  0
 32 71  1  0  0  0  0
 32 75  2  0  0  0  0
 33 57  1  0  0  0  0
 33 65  1  0  0  0  0
 33 76  2  0  0  0  0
 34 58  1  0  0  0  0
 34 72  1  0  0  0  0
 34 77  2  0  0  0  0
 35 66  1  0  0  0  0
 35 67  1  0  0  0  0
 35 78  2  0  0  0  0
 36 39  1  0  0  0  0
 37 48  1  0  0  0  0
 38 65  1  0  0  0  0
 39 41  1  0  0  0  0
 40 42  1  0  0  0  0
 40 43  1  0  0  0  0
 41 47  1  0  0  0  0
 42 49  1  0  0  0  0
 43 66  1  0  0  0  0
 44 49  1  0  0  0  0
 44 66  1  0  0  0  0
 45 50  1  0  0  0  0
 45 67  1  0  0  0  0
 46 50  1  0  0  0  0
 46 67  1  0  0  0  0
 47 71  1  0  0  0  0
 48 65  1  0  0  0  0
 49 64  1  0  0  0  0
 50 70  1  0  0  0  0
 51 58  1  0  0  0  0
 52 59  1  0  0  0  0
 53 59  1  0  0  0  0
 54 59  1  0  0  0  0
 55 73  1  0  0  0  0
 56 80  1  0  0  0  0
 57 59  1  0  0  0  0
 57 72  1  0  0  0  0
 58 73  1  0  0  0  0
 61 64  1  0  0  0  0
 62 63  1  0  0  0  0
M  CHG  1  73   1
M  ISO  4  35 100  56 101  67 100  80 101
M  END
> <Batch ID>
0181

> <Smiles>
CNC(C)C(=O)NC(C(=O)N1Cc2cc([101O:1][101CH2:1]c3ncc(NC4C[100N:0]([100C:0](=O)N5CCCC(n6nc(-c7ccc(Oc8ccc(F)cc8F)cc7)c(C(N)=O)c6N)C5)C4)nn3)ccc2CC1C(=O)NC1CCCc2ccccc21)C(C)(C)C

> <Shape>
0.278

> <Color>
0.120

> <Negative vol penalty>
0.000

$$$$

  -OEChem-04052323023D

 82 91  0     1  0  0  0  0  0999 V2000
  -22.8848   -8.0184   22.0758 C   0  0  0  0  0  0  0  0  0  0  0  0
  -24.1570   -8.5815   22.0846 C   0  0  0  0  0  0  0  0  0  0  0  0
  -22.9369  -27.3151   20.4716 C   0  0  0  0  0  0  0  0  0  0  0  0
  -24.2685  -26.9339   22.4511 C   0  0  0  0  0  0  0  0  0  0  0  0
  -21.8690   -8.6057   21.3228 C   0  0  0  0  0  0  0  0  0  0  0  0
  -24.4142   -9.7317   21.3394 C   0  0  0  0  0  0  0  0  0  0  0  0
  -28.3934  -15.6873   21.4589 C   0  0  0  0  0  0  0  0  0  0  0  0
  -21.8258  -26.7687   21.1138 C   0  0  0  0  0  0  0  0  0  0  0  0
  -23.1574  -26.3876   23.0934 C   0  0  0  0  0  0  0  0  0  0  0  0
  -29.2884  -16.4008   20.6629 C   0  0  0  0  0  0  0  0  0  0  0  0
  -19.5317  -27.7546   23.3937 C   0  0  0  0  0  0  0  0  0  0  0  0
  -18.3176  -28.4313   23.2767 C   0  0  0  0  0  0  0  0  0  0  0  0
  -27.4360  -17.3736   19.4625 C   0  0  0  0  0  0  0  0  0  0  0  0
  -17.3321  -26.4837   22.2408 C   0  0  0  0  0  0  0  0  0  0  0  0
  -31.6764  -19.9957   18.2313 C   0  0  0  0  0  0  0  0  0  0  0  0
  -24.1583  -27.3977   21.1402 C   0  0  0  0  0  0  0  0  0  0  0  0
  -25.7056  -29.3115   20.4689 C   0  0  0  0  0  0  0  0  0  0  0  0
  -22.1115   -9.7692   20.5757 C   0  0  0  0  0  0  0  0  0  0  0  0
  -27.0109  -15.8034   21.2552 C   0  0  0  0  0  0  0  0  0  0  0  0
  -23.4010  -10.3344   20.5747 C   0  0  0  0  0  0  0  0  0  0  0  0
  -26.5254  -16.6625   20.2589 C   0  0  0  0  0  0  0  0  0  0  0  0
  -21.9360  -26.3050   22.4247 C   0  0  0  0  0  0  0  0  0  0  0  0
  -28.8099  -17.2419   19.6626 C   0  0  0  0  0  0  0  0  0  0  0  0
  -19.6461  -26.4426   22.9342 C   0  0  0  0  0  0  0  0  0  0  0  0
  -17.2178  -27.7958   22.7003 C   0  0  0  0  0  0  0  0  0  0  0  0
  -18.5463  -25.8072   22.3578 C   0  0  0  0  0  0  0  0  0  0  0  0
  -25.3066  -27.9615   20.4771 C   0  0  0  0  0  0  0  0  0  0  0  0
  -32.4432  -20.7158   17.3381 C   0  0  0  0  0  0  0  0  0  0  0  0
  -31.8622  -18.6284   18.2109 C   0  0  0  0  0  0  0  0  0  0  0  0
  -26.8471  -29.3274   19.7051 C   0  0  0  0  0  0  0  0  0  0  0  0
  -33.4167  -18.8136   16.5628 C   0  0  0  0  0  0  0  0  0  0  0  0
  -25.0989  -30.4493   21.0956 C   0  0  0  0  0  0  0  0  0  0  0  0
  -24.6880  -13.7951   20.4337 C   0  0  0  0  0  0  0  0  0  0  0  0
  -22.7919  -16.3583   21.0313 C   0  0  0  0  0  0  0  0  0  0  0  0
  -22.4937  -19.7500   21.2640 C   0  0  0  0  0  0  0  0  0  0  0  0
  -30.7948  -25.0156   18.6056 C   0  0  0  0  0  0  0  0  0  0  0  0
  -20.9940  -10.3411   19.7396 C   0  0  0  0  0  0  0  0  0  0  0  0
  -26.0578  -15.0475   22.1399 C   0  0  0  0  0  0  0  0  0  0  0  0
  -25.0499  -16.8379   20.0131 C   0  0  0  0  0  0  0  0  0  0  0  0
  -21.2520  -11.7721   19.2750 C   0  0  0  0  0  0  0  0  0  0  0  0
  -29.0095  -27.0578   16.1243 C   0  0  0  0  0  0  0  0  0  0  0  0
  -22.6670  -11.9068   18.7214 C   0  0  0  0  0  0  0  0  0  0  0  0
  -27.8466  -27.5819   16.9593 C   0  0  0  0  0  0  0  0  0  0  0  0
  -29.4472  -25.6555   16.5480 C   0  0  0  0  0  0  0  0  0  0  0  0
  -30.9947  -22.9701   17.0164 C   0  0  0  0  0  0  0  0  0  0  0  0
  -32.5225  -23.1581   18.4809 C   0  0  0  0  0  0  0  0  0  0  0  0
  -28.5739  -26.0726   18.8385 C   0  0  0  0  0  0  0  0  0  0  0  0
  -23.7128  -11.5958   19.7990 C   0  0  1  0  0  0  0  0  0  0  0  0
  -32.3726  -22.2950   17.2111 C   0  0  0  0  0  0  0  0  0  0  0  0
  -24.6847  -14.8478   21.5059 C   0  0  1  0  0  0  0  0  0  0  0  0
  -28.1853  -27.5068   18.4551 C   0  0  2  0  0  0  0  0  0  0  0  0
  -34.3831  -18.1572   15.6363 C   0  0  0  0  0  0  0  0  0  0  0  0
  -20.8111  -21.5521   21.7319 C   0  0  0  0  0  0  0  0  0  0  0  0
  -21.6151  -15.9805   18.2416 C   0  0  0  0  0  0  0  0  0  0  0  0
  -20.6790  -18.2972   18.3987 C   0  0  0  0  0  0  0  0  0  0  0  0
  -19.9413  -16.5438   20.0124 C   0  0  0  0  0  0  0  0  0  0  0  0
  -24.0031  -20.7079   23.6226 C   0  0  0  0  0  0  0  0  0  0  0  0
  -31.0726  -17.7610   19.1465 C   0  0  0  0  0  0  0  0  0  1  0  0
  -22.2674  -17.5139   20.2138 C   0  0  1  0  0  0  0  0  0  0  0  0
  -21.8689  -20.6357   22.3269 C   0  0  2  0  0  0  0  0  0  0  0  0
  -21.1536  -17.0793   19.2197 C   0  0  0  0  0  0  0  0  0  0  0  0
  -26.1277  -27.1768   19.7743 N   0  0  0  0  0  0  0  0  0  0  0  0
  -33.3265  -20.1551   16.4863 N   0  0  0  0  0  0  0  0  0  0  0  0
  -32.7270  -18.0016   17.3865 N   0  0  0  0  0  0  0  0  0  0  0  0
  -27.0540  -28.0364   19.3171 N   0  0  0  0  0  0  0  0  0  0  0  0
  -24.1582  -16.0726   20.9001 N   0  0  0  0  0  0  0  0  0  0  0  0
  -29.6565  -25.5536   17.9959 N   0  0  0  0  0  0  0  0  0  0  0  0
  -31.4513  -23.9949   17.9475 N   0  0  0  0  0  0  0  0  0  0  0  0
  -27.6838  -30.3197   19.3342 N   0  0  0  0  0  0  0  0  0  0  0  0
  -23.9297  -30.2556   21.8439 N   0  0  0  0  0  0  0  0  0  0  0  0
  -23.8614  -12.7199   20.6984 N   0  0  0  0  0  0  0  0  0  0  0  0
  -21.8503  -18.5341   21.1696 N   0  0  0  0  0  0  0  0  0  0  0  0
  -22.9114  -21.4803   22.9756 N   0  3  0  0  0  0  0  0  0  0  0  0
  -25.5701  -31.6063   20.9815 O   0  0  0  0  0  0  0  0  0  0  0  0
  -25.3875  -13.9479   19.4392 O   0  0  0  0  0  0  0  0  0  0  0  0
  -22.0192  -15.7367   21.7650 O   0  0  0  0  0  0  0  0  0  0  0  0
  -23.4539  -20.1030   20.5829 O   0  0  0  0  0  0  0  0  0  0  0  0
  -31.1944  -25.4045   19.7104 O   0  0  0  0  0  0  0  0  0  0  0  0
  -20.8519  -25.7719   23.0518 O   0  0  0  0  0  0  0  0  0  0  0  0
  -29.6813  -17.9389   18.8838 O   0  0  0  0  0  0  0  0  0  1  0  0
  -16.0515  -28.4452   22.5894 F   0  0  0  0  0  0  0  0  0  0  0  0
  -18.6497  -24.5464   21.9155 F   0  0  0  0  0  0  0  0  0  0  0  0
  1  2  1  0  0  0  0
  1  5  2  0  0  0  0
  2  6  2  0  0  0  0
  3  8  2  0  0  0  0
  3 16  1  0  0  0  0
  4  9  1  0  0  0  0
  4 16  2  0  0  0  0
  5 18  1  0  0  0  0
  6 20  1  0  0  0  0
  7 10  2  0  0  0  0
  7 19  1  0  0  0  0
  8 22  1  0  0  0  0
  9 22  2  0  0  0  0
 10 23  1  0  0  0  0
 11 12  2  0  0  0  0
 11 24  1  0  0  0  0
 12 25  1  0  0  0  0
 13 21  1  0  0  0  0
 13 23  2  0  0  0  0
 14 25  2  0  0  0  0
 14 26  1  0  0  0  0
 15 28  2  0  0  0  0
 15 29  1  0  0  0  0
 16 27  1  0  0  0  0
 17 27  1  0  0  0  0
 17 30  2  0  0  0  0
 17 32  1  0  0  0  0
 18 20  2  0  0  0  0
 18 37  1  0  0  0  0
 19 21  2  0  0  0  0
 19 38  1  0  0  0  0
 20 48  1  0  0  0  0
 21 39  1  0  0  0  0
 22 79  1  0  0  0  0
 23 80  1  0  0  0  0
 24 26  2  0  0  0  0
 24 79  1  0  0  0  0
 25 81  1  0  0  0  0
 26 82  1  0  0  0  0
 27 62  2  0  0  0  0
 28 49  1  0  0  0  0
 28 63  1  0  0  0  0
 29 58  1  0  0  0  0
 29 64  2  0  0  0  0
 30 65  1  0  0  0  0
 30 69  1  0  0  0  0
 31 52  1  0  0  0  0
 31 63  2  0  0  0  0
 31 64  1  0  0  0  0
 32 70  1  0  0  0  0
 32 74  2  0  0  0  0
 33 50  1  0  0  0  0
 33 71  1  0  0  0  0
 33 75  2  0  0  0  0
 34 59  1  0  0  0  0
 34 66  1  0  0  0  0
 34 76  2  0  0  0  0
 35 60  1  0  0  0  0
 35 72  1  0  0  0  0
 35 77  2  0  0  0  0
 36 67  1  0  0  0  0
 36 68  1  0  0  0  0
 36 78  2  0  0  0  0
 37 40  1  0  0  0  0
 38 50  1  0  0  0  0
 39 66  1  0  0  0  0
 40 42  1  0  0  0  0
 41 43  1  0  0  0  0
 41 44  1  0  0  0  0
 42 48  1  0  0  0  0
 43 51  1  0  0  0  0
 44 67  1  0  0  0  0
 45 49  1  0  0  0  0
 45 68  1  0  0  0  0
 46 49  1  0  0  0  0
 46 68  1  0  0  0  0
 47 51  1  0  0  0  0
 47 67  1  0  0  0  0
 48 71  1  0  0  0  0
 50 66  1  0  0  0  0
 51 65  1  0  0  0  0
 53 60  1  0  0  0  0
 54 61  1  0  0  0  0
 55 61  1  0  0  0  0
 56 61  1  0  0  0  0
 57 73  1  0  0  0  0
 58 80  1  0  0  0  0
 59 61  1  0  0  0  0
 59 72  1  0  0  0  0
 60 73  1  0  0  0  0
 62 65  1  0  0  0  0
M  CHG  1  73   1
M  ISO  4  36 100  58 101  68 100  80 101
M  END
> <Batch ID>
0181

> <Smiles>
CNC(C)C(=O)NC(C(=O)N1Cc2cc([101O:1][101CH2:1]c3cc(C4C[100N:0]([100C:0](=O)N5CCCC(n6nc(-c7ccc(Oc8ccc(F)cc8F)cc7)c(C(N)=O)c6N)C5)C4)nc(C)n3)ccc2CC1C(=O)NC1CCCc2ccccc21)C(C)(C)C

> <Shape>
0.233

> <Color>
0.064

> <Negative vol penalty>
0.000

$$$$

  -OEChem-04052323023D

 86 95  0     1  0  0  0  0  0999 V2000
  -28.0792  -37.7644   20.8307 C   0  0  0  0  0  0  0  0  0  0  0  0
  -28.4916  -36.4832   20.4787 C   0  0  0  0  0  0  0  0  0  0  0  0
  -23.0985  -10.3957   21.8762 C   0  0  0  0  0  0  0  0  0  0  0  0
  -24.7682   -8.6793   22.1978 C   0  0  0  0  0  0  0  0  0  0  0  0
  -27.1874  -37.9427   21.8875 C   0  0  0  0  0  0  0  0  0  0  0  0
  -28.0133  -35.3796   21.1842 C   0  0  0  0  0  0  0  0  0  0  0  0
  -26.7962  -29.8161   18.9321 C   0  0  0  0  0  0  0  0  0  0  0  0
  -22.1601   -9.4199   21.5403 C   0  0  0  0  0  0  0  0  0  0  0  0
  -23.8298   -7.7035   21.8620 C   0  0  0  0  0  0  0  0  0  0  0  0
  -27.5246  -28.6274   18.9243 C   0  0  0  0  0  0  0  0  0  0  0  0
  -21.2549   -6.1065   23.3587 C   0  0  0  0  0  0  0  0  0  0  0  0
  -21.1924   -4.9666   24.1601 C   0  0  0  0  0  0  0  0  0  0  0  0
  -26.3351  -27.8925   20.8901 C   0  0  0  0  0  0  0  0  0  0  0  0
  -21.7157   -3.5909   22.2442 C   0  0  0  0  0  0  0  0  0  0  0  0
  -24.4026  -10.0254   22.2049 C   0  0  0  0  0  0  0  0  0  0  0  0
  -25.6486  -11.5416   23.8347 C   0  0  0  0  0  0  0  0  0  0  0  0
  -26.6904  -36.8400   22.6001 C   0  0  0  0  0  0  0  0  0  0  0  0
  -25.8377  -30.0570   19.9270 C   0  0  0  0  0  0  0  0  0  0  0  0
  -27.1151  -35.5434   22.2524 C   0  0  0  0  0  0  0  0  0  0  0  0
  -25.5940  -29.0840   20.9068 C   0  0  0  0  0  0  0  0  0  0  0  0
  -22.5257   -8.0738   21.5332 C   0  0  0  0  0  0  0  0  0  0  0  0
  -27.2962  -27.6666   19.9050 C   0  0  0  0  0  0  0  0  0  0  0  0
  -21.5478   -5.9886   21.9999 C   0  0  0  0  0  0  0  0  0  0  0  0
  -21.4228   -3.7088   23.6029 C   0  0  0  0  0  0  0  0  0  0  0  0
  -21.7782   -4.7308   21.4427 C   0  0  0  0  0  0  0  0  0  0  0  0
  -28.8786  -23.8351   18.9344 C   0  0  0  0  0  0  0  0  0  0  0  0
  -25.3726  -11.0330   22.5514 C   0  0  0  0  0  0  0  0  0  0  0  0
  -29.6196  -24.9977   18.9945 C   0  0  0  0  0  0  0  0  0  0  0  0
  -29.5950  -22.6631   19.0660 C   0  0  0  0  0  0  0  0  0  0  0  0
  -26.6416  -12.4683   23.6304 C   0  0  0  0  0  0  0  0  0  0  0  0
  -31.5407  -23.8178   19.2849 C   0  0  0  0  0  0  0  0  0  0  0  0
  -25.0600  -11.2065   25.0983 C   0  0  0  0  0  0  0  0  0  0  0  0
  -25.4827  -32.2287   22.2208 C   0  0  0  0  0  0  0  0  0  0  0  0
  -22.6192  -30.7606   22.6295 C   0  0  0  0  0  0  0  0  0  0  0  0
  -20.7254  -27.9472   22.2492 C   0  0  0  0  0  0  0  0  0  0  0  0
  -28.8738  -16.5805   21.0013 C   0  0  0  0  0  0  0  0  0  0  0  0
  -25.7650  -37.0859   23.7653 C   0  0  0  0  0  0  0  0  0  0  0  0
  -25.0415  -31.3329   19.9059 C   0  0  0  0  0  0  0  0  0  0  0  0
  -24.5618  -29.2855   21.9850 C   0  0  0  0  0  0  0  0  0  0  0  0
  -25.0144  -35.8373   24.2210 C   0  0  0  0  0  0  0  0  0  0  0  0
  -29.4723  -13.4353   19.5596 C   0  0  0  0  0  0  0  0  0  0  0  0
  -25.9686  -34.6527   24.3352 C   0  0  0  0  0  0  0  0  0  0  0  0
  -28.4739  -12.5597   20.3164 C   0  0  0  0  0  0  0  0  0  0  0  0
  -28.6821  -19.0835   18.5341 C   0  0  0  0  0  0  0  0  0  0  0  0
  -29.8632  -19.8788   20.6174 C   0  0  0  0  0  0  0  0  0  0  0  0
  -28.8804  -14.7989   19.1987 C   0  0  0  0  0  0  0  0  0  0  0  0
  -29.2700  -17.6866   18.7549 C   0  0  0  0  0  0  0  0  0  0  0  0
  -30.4483  -18.4788   20.7806 C   0  0  0  0  0  0  0  0  0  0  0  0
  -27.3171  -14.6569   21.1105 C   0  0  0  0  0  0  0  0  0  0  0  0
  -26.5993  -34.3195   22.9777 C   0  0  1  0  0  0  0  0  0  0  0  0
  -24.4532  -31.6927   21.2667 C   0  0  1  0  0  0  0  0  0  0  0  0
  -27.9029  -13.3022   21.5377 C   0  0  1  0  0  0  0  0  0  0  0  0
  -29.5709  -20.1704   19.1432 C   0  0  0  0  0  0  0  0  0  0  0  0
  -33.0191  -23.8082   19.4788 C   0  0  0  0  0  0  0  0  0  0  0  0
  -18.4331  -27.0379   22.7139 C   0  0  0  0  0  0  0  0  0  0  0  0
  -23.3486  -30.4330   25.5741 C   0  0  0  0  0  0  0  0  0  0  0  0
  -21.5218  -28.7317   25.7654 C   0  0  0  0  0  0  0  0  0  0  0  0
  -20.9714  -31.0869   25.1548 C   0  0  0  0  0  0  0  0  0  0  0  0
  -20.1905  -27.5062   19.3720 C   0  0  0  0  0  0  0  0  0  0  0  0
  -28.9693  -26.3364   18.8623 C   0  0  0  0  0  0  0  0  0  1  0  0
  -22.1201  -29.6032   23.4603 C   0  0  1  0  0  0  0  0  0  0  0  0
  -19.3240  -27.7425   21.7027 C   0  0  2  0  0  0  0  0  0  0  0  0
  -22.0114  -29.9604   24.9696 C   0  0  0  0  0  0  0  0  0  0  0  0
  -26.1291  -11.5903   21.6021 N   0  0  0  0  0  0  0  0  0  0  0  0
  -30.9571  -25.0259   19.1695 N   0  0  0  0  0  0  0  0  0  0  0  0
  -30.9317  -22.6174   19.2430 N   0  0  0  0  0  0  0  0  0  0  0  0
  -26.8901  -12.4589   22.2894 N   0  0  0  0  0  0  0  0  0  0  0  0
  -23.8135  -30.5520   21.9254 N   0  0  0  0  0  0  0  0  0  0  0  0
  -28.3127  -15.4508   20.3872 N   0  0  0  0  0  0  0  0  0  0  0  0
  -29.5778  -17.4700   20.1758 N   0  0  0  0  0  0  0  0  0  0  0  0
  -27.3177  -13.2821   24.4689 N   0  0  0  0  0  0  0  0  0  0  0  0
  -24.0522  -10.2329   25.1288 N   0  0  0  0  0  0  0  0  0  0  0  0
  -28.9205  -21.4560   19.0166 N   0  0  0  0  0  0  0  0  0  0  0  0
  -25.6594  -33.5972   22.1474 N   0  0  0  0  0  0  0  0  0  0  0  0
  -20.8627  -29.1783   22.8548 N   0  0  0  0  0  0  0  0  0  0  0  0
  -19.3674  -26.9198   20.4608 N   0  3  0  0  0  0  0  0  0  0  0  0
  -25.4056  -11.7659   26.1666 O   0  0  0  0  0  0  0  0  0  0  0  0
  -26.0722  -31.4580   22.9693 O   0  0  0  0  0  0  0  0  0  0  0  0
  -21.9694  -31.8088   22.6006 O   0  0  0  0  0  0  0  0  0  0  0  0
  -21.6088  -27.0982   22.1522 O   0  0  0  0  0  0  0  0  0  0  0  0
  -28.7528  -16.7830   22.2159 O   0  0  0  0  0  0  0  0  0  0  0  0
  -21.6102   -7.1213   21.2058 O   0  0  0  0  0  0  0  0  0  0  0  0
  -28.0114  -26.4974   19.9001 O   0  0  0  0  0  0  0  0  0  1  0  0
  -21.3643   -2.6143   24.3729 F   0  0  0  0  0  0  0  0  0  0  0  0
  -22.0611   -4.6114   20.1383 F   0  0  0  0  0  0  0  0  0  0  0  0
  -27.1713  -23.8606   18.7108 Cl  0  0  0  0  0  0  0  0  0  0  0  0
  1  2  1  0  0  0  0
  1  5  2  0  0  0  0
  2  6  2  0  0  0  0
  3  8  2  0  0  0  0
  3 15  1  0  0  0  0
  4  9  1  0  0  0  0
  4 15  2  0  0  0  0
  5 17  1  0  0  0  0
  6 19  1  0  0  0  0
  7 10  2  0  0  0  0
  7 18  1  0  0  0  0
  8 21  1  0  0  0  0
  9 21  2  0  0  0  0
 10 22  1  0  0  0  0
 11 12  2  0  0  0  0
 11 23  1  0  0  0  0
 12 24  1  0  0  0  0
 13 20  1  0  0  0  0
 13 22  2  0  0  0  0
 14 24  2  0  0  0  0
 14 25  1  0  0  0  0
 15 27  1  0  0  0  0
 16 27  1  0  0  0  0
 16 30  2  0  0  0  0
 16 32  1  0  0  0  0
 17 19  2  0  0  0  0
 17 37  1  0  0  0  0
 18 20  2  0  0  0  0
 18 38  1  0  0  0  0
 19 50  1  0  0  0  0
 20 39  1  0  0  0  0
 21 82  1  0  0  0  0
 22 83  1  0  0  0  0
 23 25  2  0  0  0  0
 23 82  1  0  0  0  0
 24 84  1  0  0  0  0
 25 85  1  0  0  0  0
 26 28  2  0  0  0  0
 26 29  1  0  0  0  0
 26 86  1  0  0  0  0
 27 64  2  0  0  0  0
 28 60  1  0  0  0  0
 28 65  1  0  0  0  0
 29 66  2  0  0  0  0
 29 73  1  0  0  0  0
 30 67  1  0  0  0  0
 30 71  1  0  0  0  0
 31 54  1  0  0  0  0
 31 65  2  0  0  0  0
 31 66  1  0  0  0  0
 32 72  1  0  0  0  0
 32 77  2  0  0  0  0
 33 51  1  0  0  0  0
 33 74  1  0  0  0  0
 33 78  2  0  0  0  0
 34 61  1  0  0  0  0
 34 68  1  0  0  0  0
 34 79  2  0  0  0  0
 35 62  1  0  0  0  0
 35 75  1  0  0  0  0
 35 80  2  0  0  0  0
 36 69  1  0  0  0  0
 36 70  1  0  0  0  0
 36 81  2  0  0  0  0
 37 40  1  0  0  0  0
 38 51  1  0  0  0  0
 39 68  1  0  0  0  0
 40 42  1  0  0  0  0
 41 43  1  0  0  0  0
 41 46  1  0  0  0  0
 42 50  1  0  0  0  0
 43 52  1  0  0  0  0
 44 47  1  0  0  0  0
 44 53  1  0  0  0  0
 45 48  1  0  0  0  0
 45 53  1  0  0  0  0
 46 69  1  0  0  0  0
 47 70  1  0  0  0  0
 48 70  1  0  0  0  0
 49 52  1  0  0  0  0
 49 69  1  0  0  0  0
 50 74  1  0  0  0  0
 51 68  1  0  0  0  0
 52 67  1  0  0  0  0
 53 73  1  0  0  0  0
 55 62  1  0  0  0  0
 56 63  1  0  0  0  0
 57 63  1  0  0  0  0
 58 63  1  0  0  0  0
 59 76  1  0  0  0  0
 60 83  1  0  0  0  0
 61 63  1  0  0  0  0
 61 75  1  0  0  0  0
 62 76  1  0  0  0  0
 64 67  1  0  0  0  0
M  CHG  1  76   1
M  ISO  4  36 100  60 101  70 100  83 101
M  END
> <Batch ID>
0181

> <Smiles>
CNC(C)C(=O)NC(C(=O)N1Cc2cc([101O:1][101CH2:1]c3nc(C)nc(NC4CC[100N:0]([100C:0](=O)N5CCCC(n6nc(-c7ccc(Oc8ccc(F)cc8F)cc7)c(C(N)=O)c6N)C5)CC4)c3Cl)ccc2CC1C(=O)NC1CCCc2ccccc21)C(C)(C)C

> <Shape>
0.356

> <Color>
0.118

> <Negative vol penalty>
0.000

$$$$

  -OEChem-04052323023D

 81 90  0     1  0  0  0  0  0999 V2000
  -25.5265  -33.6917   20.8028 C   0  0  0  0  0  0  0  0  0  0  0  0
  -25.1007  -32.4516   20.3375 C   0  0  0  0  0  0  0  0  0  0  0  0
  -23.1965   -9.7406   19.9654 C   0  0  0  0  0  0  0  0  0  0  0  0
  -23.5193  -10.0202   22.3434 C   0  0  0  0  0  0  0  0  0  0  0  0
  -26.8601  -33.8791   21.1638 C   0  0  0  0  0  0  0  0  0  0  0  0
  -26.0086  -31.3985   20.2320 C   0  0  0  0  0  0  0  0  0  0  0  0
  -26.3789  -24.2678   20.8084 C   0  0  0  0  0  0  0  0  0  0  0  0
  -22.4255   -8.6030   20.2038 C   0  0  0  0  0  0  0  0  0  0  0  0
  -22.7481   -8.8826   22.5818 C   0  0  0  0  0  0  0  0  0  0  0  0
  -26.8109  -23.1506   20.0950 C   0  0  0  0  0  0  0  0  0  0  0  0
  -23.1549   -5.5282   22.4667 C   0  0  0  0  0  0  0  0  0  0  0  0
  -23.6325   -4.6047   23.3965 C   0  0  0  0  0  0  0  0  0  0  0  0
  -29.0727  -23.5682   20.8225 C   0  0  0  0  0  0  0  0  0  0  0  0
  -21.6440   -4.9208   24.7318 C   0  0  0  0  0  0  0  0  0  0  0  0
  -23.7435  -10.4492   21.0352 C   0  0  0  0  0  0  0  0  0  0  0  0
  -24.0881  -12.9538   20.6949 C   0  0  0  0  0  0  0  0  0  0  0  0
  -27.7827  -32.8250   21.0718 C   0  0  0  0  0  0  0  0  0  0  0  0
  -27.2938  -25.0513   21.5265 C   0  0  0  0  0  0  0  0  0  0  0  0
  -27.3561  -31.5724   20.5909 C   0  0  0  0  0  0  0  0  0  0  0  0
  -28.6494  -24.6934   21.5462 C   0  0  0  0  0  0  0  0  0  0  0  0
  -29.3795  -17.7258   16.8103 C   0  0  0  0  0  0  0  0  0  0  0  0
  -22.2012   -8.1740   21.5120 C   0  0  0  0  0  0  0  0  0  0  0  0
  -28.1584  -22.8023   20.0996 C   0  0  0  0  0  0  0  0  0  0  0  0
  -21.9218   -6.1480   22.6694 C   0  0  0  0  0  0  0  0  0  0  0  0
  -22.8771   -4.3009   24.5291 C   0  0  0  0  0  0  0  0  0  0  0  0
  -21.1664   -5.8443   23.8020 C   0  0  0  0  0  0  0  0  0  0  0  0
  -24.5406  -11.6241   20.7896 C   0  0  0  0  0  0  0  0  0  0  0  0
  -28.6082  -17.5861   17.9494 C   0  0  0  0  0  0  0  0  0  0  0  0
  -29.5339  -18.9932   16.3191 C   0  0  0  0  0  0  0  0  0  0  0  0
  -25.2246  -13.6870   20.4553 C   0  0  0  0  0  0  0  0  0  0  0  0
  -28.2294  -19.7969   18.0251 C   0  0  0  0  0  0  0  0  0  0  0  0
  -22.7594  -13.4793   20.8130 C   0  0  0  0  0  0  0  0  0  0  0  0
  -28.2575  -28.0766   21.3783 C   0  0  0  0  0  0  0  0  0  0  0  0
  -29.8736  -27.2861   24.0775 C   0  0  0  0  0  0  0  0  0  0  0  0
  -31.2862  -24.8445   25.9984 C   0  0  0  0  0  0  0  0  0  0  0  0
  -29.9792  -14.2026   17.4850 C   0  0  0  0  0  0  0  0  0  0  0  0
  -29.2241  -33.0887   21.4289 C   0  0  0  0  0  0  0  0  0  0  0  0
  -26.8077  -26.2379   22.3127 C   0  0  0  0  0  0  0  0  0  0  0  0
  -29.6686  -25.4897   22.3179 C   0  0  0  0  0  0  0  0  0  0  0  0
  -29.9016  -16.4176   16.3485 C   0  0  0  0  0  0  0  0  0  0  0  0
  -28.5174  -16.1393   18.3361 C   0  0  0  0  0  0  0  0  0  0  0  0
  -30.0412  -31.8170   21.6420 C   0  0  0  0  0  0  0  0  0  0  0  0
  -30.1091  -12.3844   20.6684 C   0  0  0  0  0  0  0  0  0  0  0  0
  -29.7797  -30.8197   20.5178 C   0  0  0  0  0  0  0  0  0  0  0  0
  -28.6326  -12.0974   20.9494 C   0  0  0  0  0  0  0  0  0  0  0  0
  -30.4058  -12.4501   19.1715 C   0  0  0  0  0  0  0  0  0  0  0  0
  -28.0712  -13.0753   18.6956 C   0  0  0  0  0  0  0  0  0  0  0  0
  -28.3055  -30.3987   20.4858 C   0  0  1  0  0  0  0  0  0  0  0  0
  -27.9049  -27.2610   22.5899 C   0  0  1  0  0  0  0  0  0  0  0  0
  -27.7190  -13.0780   20.1890 C   0  0  1  0  0  0  0  0  0  0  0  0
  -30.3465  -19.2485   15.0976 C   0  0  0  0  0  0  0  0  0  0  0  0
  -32.5674  -24.5093   28.1300 C   0  0  0  0  0  0  0  0  0  0  0  0
  -32.4002  -28.3265   22.7197 C   0  0  0  0  0  0  0  0  0  0  0  0
  -33.7448  -27.1213   24.4540 C   0  0  0  0  0  0  0  0  0  0  0  0
  -32.1832  -28.9442   25.1333 C   0  0  0  0  0  0  0  0  0  0  0  0
  -29.1539  -23.1449   27.1489 C   0  0  0  0  0  0  0  0  0  0  0  0
  -27.5945  -20.9712   18.6907 C   0  0  0  0  0  0  0  0  0  1  0  0
  -31.2415  -26.7227   24.3783 C   0  0  1  0  0  0  0  0  0  0  0  0
  -31.1909  -24.5508   27.4847 C   0  0  2  0  0  0  0  0  0  0  0  0
  -32.3738  -27.7646   24.1551 C   0  0  0  0  0  0  0  0  0  0  0  0
  -25.8615  -11.5159   20.6236 N   0  0  0  0  0  0  0  0  0  0  0  0
  -28.0076  -18.5939   18.5955 N   0  0  0  0  0  0  0  0  0  0  0  0
  -28.9623  -20.0627   16.9147 N   0  0  0  0  0  0  0  0  0  0  0  0
  -26.2487  -12.7869   20.4220 N   0  0  0  0  0  0  0  0  0  0  0  0
  -29.1451  -26.6448   23.0656 N   0  0  0  0  0  0  0  0  0  0  0  0
  -29.3969  -15.4657   17.3555 N   0  0  0  0  0  0  0  0  0  0  0  0
  -29.4927  -13.3748   18.5016 N   0  0  0  0  0  0  0  0  0  0  0  0
  -25.4377  -15.0074   20.2719 N   0  0  0  0  0  0  0  0  0  0  0  0
  -21.7074  -12.5867   21.0600 N   0  0  0  0  0  0  0  0  0  0  0  0
  -28.0333  -29.4319   21.5277 N   0  0  0  0  0  0  0  0  0  0  0  0
  -31.1755  -26.1937   25.7363 N   0  0  0  0  0  0  0  0  0  0  0  0
  -30.5258  -23.2365   27.7114 N   0  3  0  0  0  0  0  0  0  0  0  0
  -22.5100  -14.7021   20.6865 O   0  0  0  0  0  0  0  0  0  0  0  0
  -28.7017  -27.5179   20.3822 O   0  0  0  0  0  0  0  0  0  0  0  0
  -29.4636  -28.2549   24.7217 O   0  0  0  0  0  0  0  0  0  0  0  0
  -31.4468  -23.9654   25.1547 O   0  0  0  0  0  0  0  0  0  0  0  0
  -30.9238  -13.8524   16.7662 O   0  0  0  0  0  0  0  0  0  0  0  0
  -21.4487   -7.0641   21.7449 O   0  0  0  0  0  0  0  0  0  0  0  0
  -28.5858  -21.7051   19.3988 O   0  0  0  0  0  0  0  0  0  1  0  0
  -23.3351   -3.4129   25.4211 F   0  0  0  0  0  0  0  0  0  0  0  0
  -19.9806   -6.4357   24.0016 F   0  0  0  0  0  0  0  0  0  0  0  0
  1  2  1  0  0  0  0
  1  5  2  0  0  0  0
  2  6  2  0  0  0  0
  3  8  2  0  0  0  0
  3 15  1  0  0  0  0
  4  9  1  0  0  0  0
  4 15  2  0  0  0  0
  5 17  1  0  0  0  0
  6 19  1  0  0  0  0
  7 10  2  0  0  0  0
  7 18  1  0  0  0  0
  8 22  1  0  0  0  0
  9 22  2  0  0  0  0
 10 23  1  0  0  0  0
 11 12  2  0  0  0  0
 11 24  1  0  0  0  0
 12 25  1  0  0  0  0
 13 20  1  0  0  0  0
 13 23  2  0  0  0  0
 14 25  2  0  0  0  0
 14 26  1  0  0  0  0
 15 27  1  0  0  0  0
 16 27  1  0  0  0  0
 16 30  2  0  0  0  0
 16 32  1  0  0  0  0
 17 19  2  0  0  0  0
 17 37  1  0  0  0  0
 18 20  2  0  0  0  0
 18 38  1  0  0  0  0
 19 48  1  0  0  0  0
 20 39  1  0  0  0  0
 21 28  2  0  0  0  0
 21 29  1  0  0  0  0
 21 40  1  0  0  0  0
 22 78  1  0  0  0  0
 23 79  1  0  0  0  0
 24 26  2  0  0  0  0
 24 78  1  0  0  0  0
 25 80  1  0  0  0  0
 26 81  1  0  0  0  0
 27 61  2  0  0  0  0
 28 41  1  0  0  0  0
 28 62  1  0  0  0  0
 29 51  1  0  0  0  0
 29 63  2  0  0  0  0
 30 64  1  0  0  0  0
 30 68  1  0  0  0  0
 31 57  1  0  0  0  0
 31 62  2  0  0  0  0
 31 63  1  0  0  0  0
 32 69  1  0  0  0  0
 32 73  2  0  0  0  0
 33 49  1  0  0  0  0
 33 70  1  0  0  0  0
 33 74  2  0  0  0  0
 34 58  1  0  0  0  0
 34 65  1  0  0  0  0
 34 75  2  0  0  0  0
 35 59  1  0  0  0  0
 35 71  1  0  0  0  0
 35 76  2  0  0  0  0
 36 66  1  0  0  0  0
 36 67  1  0  0  0  0
 36 77  2  0  0  0  0
 37 42  1  0  0  0  0
 38 49  1  0  0  0  0
 39 65  1  0  0  0  0
 40 66  1  0  0  0  0
 41 66  1  0  0  0  0
 42 44  1  0  0  0  0
 43 45  1  0  0  0  0
 43 46  1  0  0  0  0
 44 48  1  0  0  0  0
 45 50  1  0  0  0  0
 46 67  1  0  0  0  0
 47 50  1  0  0  0  0
 47 67  1  0  0  0  0
 48 70  1  0  0  0  0
 49 65  1  0  0  0  0
 50 64  1  0  0  0  0
 52 59  1  0  0  0  0
 53 60  1  0  0  0  0
 54 60  1  0  0  0  0
 55 60  1  0  0  0  0
 56 72  1  0  0  0  0
 57 79  1  0  0  0  0
 58 60  1  0  0  0  0
 58 71  1  0  0  0  0
 59 72  1  0  0  0  0
 61 64  1  0  0  0  0
M  CHG  1  72   1
M  ISO  4  36 100  57 101  66 100  79 101
M  END
> <Batch ID>
0181

> <Smiles>
CNC(C)C(=O)NC(C(=O)N1Cc2cc([101O:1][101CH2:1]c3nc(C)c4c(n3)C[100N:0]([100C:0](=O)N3CCCC(n5nc(-c6ccc(Oc7ccc(F)cc7F)cc6)c(C(N)=O)c5N)C3)C4)ccc2CC1C(=O)NC1CCCc2ccccc21)C(C)(C)C

> <Shape>
0.221

> <Color>
0.195

> <Negative vol penalty>
0.000

$$$$

  -OEChem-04052323023D

 87 96  0     1  0  0  0  0  0999 V2000
  -16.5800  -30.1372   23.3594 C   0  0  0  0  0  0  0  0  0  0  0  0
  -17.5208  -30.1898   22.3359 C   0  0  0  0  0  0  0  0  0  0  0  0
  -24.5943  -12.1076   20.5810 C   0  0  0  0  0  0  0  0  0  0  0  0
  -24.2155  -13.3250   22.6333 C   0  0  0  0  0  0  0  0  0  0  0  0
  -16.9608  -29.7191   24.6338 C   0  0  0  0  0  0  0  0  0  0  0  0
  -18.8433  -29.8254   22.5865 C   0  0  0  0  0  0  0  0  0  0  0  0
  -24.4962  -26.7877   19.4033 C   0  0  0  0  0  0  0  0  0  0  0  0
  -24.5848  -10.9072   21.2912 C   0  0  0  0  0  0  0  0  0  0  0  0
  -24.2059  -12.1245   23.3435 C   0  0  0  0  0  0  0  0  0  0  0  0
  -25.8494  -27.0200   19.1609 C   0  0  0  0  0  0  0  0  0  0  0  0
  -22.2831   -8.8233   22.6299 C   0  0  0  0  0  0  0  0  0  0  0  0
  -21.5513   -7.7614   22.0984 C   0  0  0  0  0  0  0  0  0  0  0  0
  -26.3752  -26.2380   21.3816 C   0  0  0  0  0  0  0  0  0  0  0  0
  -30.4529  -23.7711   21.3291 C   0  0  0  0  0  0  0  0  0  0  0  0
  -23.5653   -6.4319   21.9817 C   0  0  0  0  0  0  0  0  0  0  0  0
  -24.4098  -13.3165   21.2520 C   0  0  0  0  0  0  0  0  0  0  0  0
  -23.3181  -15.2060   19.9308 C   0  0  0  0  0  0  0  0  0  0  0  0
  -18.2864  -29.3402   24.8978 C   0  0  0  0  0  0  0  0  0  0  0  0
  -24.0706  -26.2883   20.6426 C   0  0  0  0  0  0  0  0  0  0  0  0
  -19.2424  -29.4031   23.8660 C   0  0  0  0  0  0  0  0  0  0  0  0
  -25.0163  -25.9979   21.6363 C   0  0  0  0  0  0  0  0  0  0  0  0
  -30.1327  -25.0514   19.3184 C   0  0  0  0  0  0  0  0  0  0  0  0
  -30.3764  -25.0017   20.6864 C   0  0  0  0  0  0  0  0  0  0  0  0
  -24.3906  -10.9156   22.6725 C   0  0  0  0  0  0  0  0  0  0  0  0
  -26.7889  -26.7479   20.1511 C   0  0  0  0  0  0  0  0  0  0  0  0
  -23.6560   -8.6895   22.8373 C   0  0  0  0  0  0  0  0  0  0  0  0
  -22.1924   -6.5657   21.7743 C   0  0  0  0  0  0  0  0  0  0  0  0
  -24.2970   -7.4939   22.5133 C   0  0  0  0  0  0  0  0  0  0  0  0
  -24.4201  -14.5570   20.5190 C   0  0  0  0  0  0  0  0  0  0  0  0
  -30.2799  -22.6284   20.5648 C   0  0  0  0  0  0  0  0  0  0  0  0
  -29.9743  -23.8514   18.6440 C   0  0  0  0  0  0  0  0  0  0  0  0
  -23.8499  -16.3362   19.3596 C   0  0  0  0  0  0  0  0  0  0  0  0
  -21.9370  -14.8217   19.9033 C   0  0  0  0  0  0  0  0  0  0  0  0
  -22.1905  -27.3644   22.9687 C   0  0  0  0  0  0  0  0  0  0  0  0
  -22.6647  -24.3984   24.1936 C   0  0  0  0  0  0  0  0  0  0  0  0
  -24.6265  -21.6106   24.3562 C   0  0  0  0  0  0  0  0  0  0  0  0
  -28.7809  -19.3840   20.7727 C   0  0  0  0  0  0  0  0  0  0  0  0
  -18.6610  -28.9402   26.3030 C   0  0  0  0  0  0  0  0  0  0  0  0
  -22.6100  -26.0180   20.8789 C   0  0  0  0  0  0  0  0  0  0  0  0
  -24.6130  -25.4415   22.9765 C   0  0  0  0  0  0  0  0  0  0  0  0
  -20.0003  -28.2133   26.3928 C   0  0  0  0  0  0  0  0  0  0  0  0
  -27.8677  -18.0438   17.4489 C   0  0  0  0  0  0  0  0  0  0  0  0
  -21.0611  -28.9459   25.5774 C   0  0  0  0  0  0  0  0  0  0  0  0
  -26.8151  -17.0083   17.8314 C   0  0  0  0  0  0  0  0  0  0  0  0
  -28.9547  -18.1804   18.5143 C   0  0  0  0  0  0  0  0  0  0  0  0
  -27.3620  -17.4243   20.2598 C   0  0  0  0  0  0  0  0  0  0  0  0
  -32.1773  -26.4153   17.4359 C   0  0  0  0  0  0  0  0  0  0  0  0
  -30.8867  -27.5462   19.1711 C   0  0  0  0  0  0  0  0  0  0  0  0
  -20.6811  -28.9922   24.0925 C   0  0  1  0  0  0  0  0  0  0  0  0
  -22.2388  -25.9922   22.3584 C   0  0  1  0  0  0  0  0  0  0  0  0
  -30.6782  -26.2741   17.1591 C   0  0  1  0  0  0  0  0  0  0  0  0
  -26.2360  -17.3139   19.2208 C   0  0  2  0  0  0  0  0  0  0  0  0
  -30.0398  -26.4032   18.5774 C   0  0  1  0  0  0  0  0  0  0  0  0
  -30.5615  -26.2500   21.4843 C   0  0  0  0  0  0  0  0  0  0  0  0
  -29.7089  -23.8406   17.1740 C   0  0  0  0  0  0  0  0  0  0  0  0
  -30.2174  -27.3206   16.1380 C   0  0  0  0  0  0  0  0  0  0  0  0
  -24.7734  -19.3675   25.4717 C   0  0  0  0  0  0  0  0  0  0  0  0
  -23.5602  -25.7461   26.7804 C   0  0  0  0  0  0  0  0  0  0  0  0
  -24.5705  -23.5663   27.4845 C   0  0  0  0  0  0  0  0  0  0  0  0
  -22.1114  -23.7330   27.1003 C   0  0  0  0  0  0  0  0  0  0  0  0
  -24.5229  -20.1856   21.7644 C   0  0  0  0  0  0  0  0  0  0  0  0
  -30.3542  -21.2903   21.2211 C   0  0  0  0  0  0  0  0  0  0  0  0
  -28.5630  -26.8446   18.5703 C   0  0  0  0  0  0  0  0  0  1  0  0
  -23.6810  -23.7737   25.1187 C   0  0  1  0  0  0  0  0  0  0  0  0
  -24.2896  -20.1342   24.2507 C   0  0  2  0  0  0  0  0  0  0  0  0
  -23.4885  -24.2171   26.5965 C   0  0  0  0  0  0  0  0  0  0  0  0
  -25.5656  -15.2196   20.3380 N   0  0  0  0  0  0  0  0  0  0  0  0
  -30.0418  -22.6369   19.2340 N   0  0  0  0  0  0  0  0  0  0  0  0
  -25.1863  -16.2967   19.6295 N   0  0  0  0  0  0  0  0  0  0  0  0
  -23.1725  -25.2003   23.1616 N   0  0  0  0  0  0  0  0  0  0  0  0
  -28.3821  -18.3983   19.8523 N   0  0  0  0  0  0  0  0  0  0  0  0
  -23.3003  -17.3499   18.6577 N   0  0  0  0  0  0  0  0  0  0  0  0
  -21.5621  -13.6306   20.5397 N   0  0  0  0  0  0  0  0  0  0  0  0
  -20.9490  -27.7172   23.4623 N   0  0  0  0  0  0  0  0  0  0  0  0
  -23.5908  -22.3325   24.9107 N   0  0  0  0  0  0  0  0  0  0  0  0
  -29.8196  -20.2139   20.3622 N   0  0  0  0  0  0  0  0  0  0  0  0
  -32.2680  -27.3199   18.6295 N   0  3  0  0  0  0  0  0  0  0  0  0
  -24.9277  -19.5425   23.0409 N   0  3  0  0  0  0  0  0  0  0  0  0
  -21.0640  -15.5057   19.3172 O   0  0  0  0  0  0  0  0  0  0  0  0
  -23.2049  -28.0516   22.9915 O   0  0  0  0  0  0  0  0  0  0  0  0
  -21.4649  -24.1770   24.3753 O   0  0  0  0  0  0  0  0  0  0  0  0
  -25.7024  -22.0763   23.9873 O   0  0  0  0  0  0  0  0  0  0  0  0
  -28.2583  -19.5159   21.8848 O   0  0  0  0  0  0  0  0  0  0  0  0
  -24.3809   -9.7444   23.3658 O   0  0  0  0  0  0  0  0  0  0  0  0
  -28.1102  -26.9742   19.9174 O   0  0  0  0  0  0  0  0  0  1  0  0
  -21.4893   -5.5456   21.2653 F   0  0  0  0  0  0  0  0  0  0  0  0
  -25.6155   -7.3590   22.7114 F   0  0  0  0  0  0  0  0  0  0  0  0
  1  2  1  0  0  0  0
  1  5  2  0  0  0  0
  2  6  2  0  0  0  0
  3  8  2  0  0  0  0
  3 16  1  0  0  0  0
  4  9  1  0  0  0  0
  4 16  2  0  0  0  0
  5 18  1  0  0  0  0
  6 20  1  0  0  0  0
  7 10  2  0  0  0  0
  7 19  1  0  0  0  0
  8 24  1  0  0  0  0
  9 24  2  0  0  0  0
 10 25  1  0  0  0  0
 11 12  2  0  0  0  0
 11 26  1  0  0  0  0
 12 27  1  0  0  0  0
 13 21  1  0  0  0  0
 13 25  2  0  0  0  0
 14 23  2  0  0  0  0
 14 30  1  0  0  0  0
 15 27  2  0  0  0  0
 15 28  1  0  0  0  0
 16 29  1  0  0  0  0
 17 29  1  0  0  0  0
 17 32  2  0  0  0  0
 17 33  1  0  0  0  0
 18 20  2  0  0  0  0
 18 38  1  0  0  0  0
 19 21  2  0  0  0  0
 19 39  1  0  0  0  0
 20 49  1  0  0  0  0
 21 40  1  0  0  0  0
 22 23  1  0  0  0  0
 22 31  2  0  0  0  0
 22 53  1  0  0  0  0
 23 54  1  0  0  0  0
 24 84  1  0  0  0  0
 25 85  1  0  0  0  0
 26 28  2  0  0  0  0
 26 84  1  0  0  0  0
 27 86  1  0  0  0  0
 28 87  1  0  0  0  0
 29 67  2  0  0  0  0
 30 62  1  0  0  0  0
 30 68  2  0  0  0  0
 31 55  1  0  0  0  0
 31 68  1  0  0  0  0
 32 69  1  0  0  0  0
 32 72  1  0  0  0  0
 33 73  1  0  0  0  0
 33 79  2  0  0  0  0
 34 50  1  0  0  0  0
 34 74  1  0  0  0  0
 34 80  2  0  0  0  0
 35 64  1  0  0  0  0
 35 70  1  0  0  0  0
 35 81  2  0  0  0  0
 36 65  1  0  0  0  0
 36 75  1  0  0  0  0
 36 82  2  0  0  0  0
 37 71  1  0  0  0  0
 37 76  1  0  0  0  0
 37 83  2  0  0  0  0
 38 41  1  0  0  0  0
 39 50  1  0  0  0  0
 40 70  1  0  0  0  0
 41 43  1  0  0  0  0
 42 44  1  0  0  0  0
 42 45  1  0  0  0  0
 43 49  1  0  0  0  0
 44 52  1  0  0  0  0
 45 71  1  0  0  0  0
 46 52  1  0  0  0  0
 46 71  1  0  0  0  0
 47 51  1  0  0  0  0
 47 77  1  0  0  0  0
 48 53  1  0  0  0  0
 48 77  1  0  0  0  0
 49 74  1  0  0  0  0
 50 70  1  0  0  0  0
 51 53  1  0  0  0  0
 51 56  1  0  0  0  0
 52 69  1  0  0  0  0
 53 63  1  0  0  0  0
 57 65  1  0  0  0  0
 58 66  1  0  0  0  0
 59 66  1  0  0  0  0
 60 66  1  0  0  0  0
 61 78  1  0  0  0  0
 62 76  1  0  0  0  0
 63 85  1  0  0  0  0
 64 66  1  0  0  0  0
 64 75  1  0  0  0  0
 65 78  1  0  0  0  0
 67 69  1  0  0  0  0
M  CHG  2  77   1  78   1
M  ISO  4  37 100  63 101  76 100  85 101
M  END
> <Batch ID>
0181

> <Smiles>
CNC(C)C(=O)NC(C(=O)N1Cc2cc([101O:1][101CH2:1]C3(c4c(C)cc(C[100NH:0][100C:0](=O)N5CCCC(n6nc(-c7ccc(Oc8ccc(F)cc8F)cc7)c(C(N)=O)c6N)C5)nc4C)CNCC3C)ccc2CC1C(=O)NC1CCCc2ccccc21)C(C)(C)C

> <Shape>
0.236

> <Color>
0.066

> <Negative vol penalty>
0.000

$$$$

  -OEChem-04052323023D

 84 93  0     1  0  0  0  0  0999 V2000
  -23.7685   -7.4887   24.8387 C   0  0  0  0  0  0  0  0  0  0  0  0
  -25.0355   -7.9824   24.5448 C   0  0  0  0  0  0  0  0  0  0  0  0
  -26.6967  -30.8713   22.2869 C   0  0  0  0  0  0  0  0  0  0  0  0
  -26.0191  -31.8705   20.1942 C   0  0  0  0  0  0  0  0  0  0  0  0
  -22.6995   -7.7641   23.9870 C   0  0  0  0  0  0  0  0  0  0  0  0
  -25.2345   -8.7509   23.3985 C   0  0  0  0  0  0  0  0  0  0  0  0
  -29.1066  -13.4502   22.7430 C   0  0  0  0  0  0  0  0  0  0  0  0
  -26.7191  -32.1326   22.8819 C   0  0  0  0  0  0  0  0  0  0  0  0
  -26.0415  -33.1319   20.7892 C   0  0  0  0  0  0  0  0  0  0  0  0
  -30.3837  -13.5434   22.1915 C   0  0  0  0  0  0  0  0  0  0  0  0
  -26.6049  -35.0508   25.0468 C   0  0  0  0  0  0  0  0  0  0  0  0
  -26.0235  -35.1834   26.3077 C   0  0  0  0  0  0  0  0  0  0  0  0
  -32.8781  -17.8107   18.3681 C   0  0  0  0  0  0  0  0  0  0  0  0
  -29.4225  -14.2804   20.1054 C   0  0  0  0  0  0  0  0  0  0  0  0
  -23.9007  -34.4659   25.4044 C   0  0  0  0  0  0  0  0  0  0  0  0
  -33.2565  -16.4972   18.5378 C   0  0  0  0  0  0  0  0  0  0  0  0
  -33.3458  -17.4836   20.5462 C   0  0  0  0  0  0  0  0  0  0  0  0
  -26.3468  -30.7402   20.9430 C   0  0  0  0  0  0  0  0  0  0  0  0
  -25.2337  -28.5499   20.2565 C   0  0  0  0  0  0  0  0  0  0  0  0
  -22.8836   -8.5445   22.8347 C   0  0  0  0  0  0  0  0  0  0  0  0
  -27.9753  -13.7615   21.9752 C   0  0  0  0  0  0  0  0  0  0  0  0
  -24.1673   -9.0359   22.5299 C   0  0  0  0  0  0  0  0  0  0  0  0
  -28.1323  -14.1929   20.6503 C   0  0  0  0  0  0  0  0  0  0  0  0
  -32.9344  -18.4347   19.6387 C   0  0  0  0  0  0  0  0  0  0  0  0
  -26.3915  -33.2629   22.1331 C   0  0  0  0  0  0  0  0  0  0  0  0
  -30.5417  -13.9558   20.8717 C   0  0  0  0  0  0  0  0  0  0  0  0
  -25.8342  -34.6258   23.9646 C   0  0  0  0  0  0  0  0  0  0  0  0
  -24.6715  -34.8909   26.4866 C   0  0  0  0  0  0  0  0  0  0  0  0
  -24.4821  -34.3334   24.1434 C   0  0  0  0  0  0  0  0  0  0  0  0
  -26.3240  -29.4376   20.3276 C   0  0  0  0  0  0  0  0  0  0  0  0
  -25.7217  -27.4604   19.5774 C   0  0  0  0  0  0  0  0  0  0  0  0
  -23.8991  -28.6970   20.7595 C   0  0  0  0  0  0  0  0  0  0  0  0
  -25.4256  -12.1452   20.9800 C   0  0  0  0  0  0  0  0  0  0  0  0
  -24.4812  -15.0579   19.9091 C   0  0  0  0  0  0  0  0  0  0  0  0
  -25.3581  -18.1986   18.9022 C   0  0  0  0  0  0  0  0  0  0  0  0
  -29.4416  -23.7214   18.5834 C   0  0  0  0  0  0  0  0  0  0  0  0
  -21.7075   -8.7761   21.9193 C   0  0  0  0  0  0  0  0  0  0  0  0
  -26.6063  -13.6815   22.5930 C   0  0  0  0  0  0  0  0  0  0  0  0
  -26.9513  -14.5581   19.7899 C   0  0  0  0  0  0  0  0  0  0  0  0
  -21.9256   -9.9117   20.9228 C   0  0  0  0  0  0  0  0  0  0  0  0
  -30.0370  -26.8145   17.0319 C   0  0  0  0  0  0  0  0  0  0  0  0
  -23.2976   -9.7903   20.2671 C   0  0  0  0  0  0  0  0  0  0  0  0
  -29.0296  -27.7126   17.7491 C   0  0  0  0  0  0  0  0  0  0  0  0
  -32.4654  -22.1315   19.4300 C   0  0  0  0  0  0  0  0  0  0  0  0
  -30.7233  -20.5024   18.6061 C   0  0  0  0  0  0  0  0  0  0  0  0
  -30.7129  -25.8320   17.9901 C   0  0  0  0  0  0  0  0  0  0  0  0
  -31.9157  -23.1827   18.4613 C   0  0  0  0  0  0  0  0  0  0  0  0
  -30.2282  -21.5726   17.6372 C   0  0  0  0  0  0  0  0  0  0  0  0
  -28.7566  -25.9176   19.5014 C   0  0  0  0  0  0  0  0  0  0  0  0
  -24.4180   -9.8941   21.3089 C   0  0  1  0  0  0  0  0  0  0  0  0
  -25.4930  -13.5292   21.5611 C   0  0  1  0  0  0  0  0  0  0  0  0
  -28.0188  -26.8761   18.5539 C   0  0  1  0  0  0  0  0  0  0  0  0
  -32.2063  -20.7105   18.9241 C   0  0  0  0  0  0  0  0  0  0  0  0
  -24.3695  -20.3418   18.0497 C   0  0  0  0  0  0  0  0  0  0  0  0
  -24.0919  -13.7836   17.1642 C   0  0  0  0  0  0  0  0  0  0  0  0
  -24.0394  -16.0852   16.1803 C   0  0  0  0  0  0  0  0  0  0  0  0
  -22.2995  -15.3958   17.8296 C   0  0  0  0  0  0  0  0  0  0  0  0
  -26.3727  -19.7260   21.2252 C   0  0  0  0  0  0  0  0  0  0  0  0
  -33.9770  -15.0662   20.4568 C   0  0  0  0  0  0  0  0  0  0  0  0
  -32.8596  -14.3601   21.2171 C   0  0  0  0  0  0  0  0  0  1  0  0
  -24.6584  -15.8345   18.6268 C   0  0  1  0  0  0  0  0  0  0  0  0
  -24.8155  -19.5654   19.2789 C   0  0  2  0  0  0  0  0  0  0  0  0
  -23.7947  -15.2661   17.4656 C   0  0  0  0  0  0  0  0  0  0  0  0
  -27.4219  -28.9538   19.7405 N   0  0  0  0  0  0  0  0  0  0  0  0
  -33.5388  -16.3098   19.8657 N   0  0  0  0  0  0  0  0  0  0  0  0
  -27.0240  -27.7502   19.2942 N   0  0  0  0  0  0  0  0  0  0  0  0
  -25.6329  -14.4577   20.4375 N   0  0  0  0  0  0  0  0  0  0  0  0
  -29.7103  -25.0865   18.7636 N   0  0  0  0  0  0  0  0  0  0  0  0
  -30.5044  -22.9154   18.1490 N   0  0  0  0  0  0  0  0  0  0  0  0
  -25.1595  -26.2922   19.2008 N   0  0  0  0  0  0  0  0  0  0  0  0
  -23.5656  -29.8800   21.4331 N   0  0  0  0  0  0  0  0  0  0  0  0
  -32.6331  -19.7549   19.9225 N   0  0  0  0  0  0  0  0  0  0  0  0
  -24.6245  -11.2740   21.6933 N   0  0  0  0  0  0  0  0  0  0  0  0
  -24.3790  -17.2289   18.9521 N   0  0  0  0  0  0  0  0  0  0  0  0
  -25.8600  -20.3610   19.9839 N   0  3  0  0  0  0  0  0  0  0  0  0
  -23.0328  -27.7991   20.6301 O   0  0  0  0  0  0  0  0  0  0  0  0
  -26.0527  -11.8873   19.9593 O   0  0  0  0  0  0  0  0  0  0  0  0
  -23.3635  -14.9923   20.4269 O   0  0  0  0  0  0  0  0  0  0  0  0
  -26.5321  -18.0106   18.5909 O   0  0  0  0  0  0  0  0  0  0  0  0
  -28.3178  -23.2499   18.7981 O   0  0  0  0  0  0  0  0  0  0  0  0
  -26.4130  -34.4939   22.7135 O   0  0  0  0  0  0  0  0  0  0  0  0
  -31.7957  -14.0476   20.3269 O   0  0  0  0  0  0  0  0  0  1  0  0
  -24.1137  -35.0169   27.6978 F   0  0  0  0  0  0  0  0  0  0  0  0
  -23.7368  -33.9235   23.1078 F   0  0  0  0  0  0  0  0  0  0  0  0
  1  2  1  0  0  0  0
  1  5  2  0  0  0  0
  2  6  2  0  0  0  0
  3  8  2  0  0  0  0
  3 18  1  0  0  0  0
  4  9  1  0  0  0  0
  4 18  2  0  0  0  0
  5 20  1  0  0  0  0
  6 22  1  0  0  0  0
  7 10  2  0  0  0  0
  7 21  1  0  0  0  0
  8 25  1  0  0  0  0
  9 25  2  0  0  0  0
 10 26  1  0  0  0  0
 11 12  2  0  0  0  0
 11 27  1  0  0  0  0
 12 28  1  0  0  0  0
 13 16  2  0  0  0  0
 13 24  1  0  0  0  0
 14 23  1  0  0  0  0
 14 26  2  0  0  0  0
 15 28  2  0  0  0  0
 15 29  1  0  0  0  0
 16 65  1  0  0  0  0
 17 24  2  0  0  0  0
 17 65  1  0  0  0  0
 18 30  1  0  0  0  0
 19 30  1  0  0  0  0
 19 31  2  0  0  0  0
 19 32  1  0  0  0  0
 20 22  2  0  0  0  0
 20 37  1  0  0  0  0
 21 23  2  0  0  0  0
 21 38  1  0  0  0  0
 22 50  1  0  0  0  0
 23 39  1  0  0  0  0
 24 72  1  0  0  0  0
 25 81  1  0  0  0  0
 26 82  1  0  0  0  0
 27 29  2  0  0  0  0
 27 81  1  0  0  0  0
 28 83  1  0  0  0  0
 29 84  1  0  0  0  0
 30 64  2  0  0  0  0
 31 66  1  0  0  0  0
 31 70  1  0  0  0  0
 32 71  1  0  0  0  0
 32 76  2  0  0  0  0
 33 51  1  0  0  0  0
 33 73  1  0  0  0  0
 33 77  2  0  0  0  0
 34 61  1  0  0  0  0
 34 67  1  0  0  0  0
 34 78  2  0  0  0  0
 35 62  1  0  0  0  0
 35 74  1  0  0  0  0
 35 79  2  0  0  0  0
 36 68  1  0  0  0  0
 36 69  1  0  0  0  0
 36 80  2  0  0  0  0
 37 40  1  0  0  0  0
 38 51  1  0  0  0  0
 39 67  1  0  0  0  0
 40 42  1  0  0  0  0
 41 43  1  0  0  0  0
 41 46  1  0  0  0  0
 42 50  1  0  0  0  0
 43 52  1  0  0  0  0
 44 47  1  0  0  0  0
 44 53  1  0  0  0  0
 45 48  1  0  0  0  0
 45 53  1  0  0  0  0
 46 68  1  0  0  0  0
 47 69  1  0  0  0  0
 48 69  1  0  0  0  0
 49 52  1  0  0  0  0
 49 68  1  0  0  0  0
 50 73  1  0  0  0  0
 51 67  1  0  0  0  0
 52 66  1  0  0  0  0
 53 72  1  0  0  0  0
 54 62  1  0  0  0  0
 55 63  1  0  0  0  0
 56 63  1  0  0  0  0
 57 63  1  0  0  0  0
 58 75  1  0  0  0  0
 59 60  1  0  0  0  0
 59 65  1  0  0  0  0
 60 82  1  0  0  0  0
 61 63  1  0  0  0  0
 61 74  1  0  0  0  0
 62 75  1  0  0  0  0
 64 66  1  0  0  0  0
M  CHG  1  75   1
M  ISO  4  36 100  60 101  69 100  82 101
M  END
> <Batch ID>
0181

> <Smiles>
CNC(C)C(=O)NC(C(=O)N1Cc2cc([101O:1][101CH2:1]Cn3ccc(NC4CC[100N:0]([100C:0](=O)N5CCCC(n6nc(-c7ccc(Oc8ccc(F)cc8F)cc7)c(C(N)=O)c6N)C5)CC4)c3)ccc2CC1C(=O)NC1CCCc2ccccc21)C(C)(C)C

> <Shape>
0.251

> <Color>
0.091

> <Negative vol penalty>
0.000

$$$$

  -OEChem-04052323023D

 80 89  0     1  0  0  0  0  0999 V2000
  -21.8027  -11.5888   19.4049 C   0  0  0  0  0  0  0  0  0  0  0  0
  -21.6037  -12.7249   20.1828 C   0  0  0  0  0  0  0  0  0  0  0  0
  -26.0736  -29.5230   21.2221 C   0  0  0  0  0  0  0  0  0  0  0  0
  -24.9900  -27.4386   20.6579 C   0  0  0  0  0  0  0  0  0  0  0  0
  -23.0893  -11.0798   19.2327 C   0  0  0  0  0  0  0  0  0  0  0  0
  -22.6911  -13.3521   20.7898 C   0  0  0  0  0  0  0  0  0  0  0  0
  -22.5592  -18.3892   20.2841 C   0  0  0  0  0  0  0  0  0  0  0  0
  -27.2561  -29.0657   20.6406 C   0  0  0  0  0  0  0  0  0  0  0  0
  -26.1726  -26.9813   20.0764 C   0  0  0  0  0  0  0  0  0  0  0  0
  -21.6951  -19.0909   21.1234 C   0  0  0  0  0  0  0  0  0  0  0  0
  -28.5322  -28.7255   17.5279 C   0  0  0  0  0  0  0  0  0  0  0  0
  -29.2251  -29.6019   16.6928 C   0  0  0  0  0  0  0  0  0  0  0  0
  -23.5529  -19.6538   22.5555 C   0  0  0  0  0  0  0  0  0  0  0  0
  -31.1502  -29.4650   18.1463 C   0  0  0  0  0  0  0  0  0  0  0  0
  -24.9406  -28.7095   21.2308 C   0  0  0  0  0  0  0  0  0  0  0  0
  -22.6802  -29.8916   21.2009 C   0  0  0  0  0  0  0  0  0  0  0  0
  -24.1942  -11.7067   19.8301 C   0  0  0  0  0  0  0  0  0  0  0  0
  -23.9272  -18.3051   20.5805 C   0  0  0  0  0  0  0  0  0  0  0  0
  -23.9935  -12.8503   20.6266 C   0  0  0  0  0  0  0  0  0  0  0  0
  -24.4327  -18.9525   21.7169 C   0  0  0  0  0  0  0  0  0  0  0  0
  -27.3056  -27.7949   20.0677 C   0  0  0  0  0  0  0  0  0  0  0  0
  -22.1914  -19.7210   22.2609 C   0  0  0  0  0  0  0  0  0  0  0  0
  -29.1482  -28.2189   18.6723 C   0  0  0  0  0  0  0  0  0  0  0  0
  -30.5341  -29.9716   17.0020 C   0  0  0  0  0  0  0  0  0  0  0  0
  -30.4572  -28.5886   18.9815 C   0  0  0  0  0  0  0  0  0  0  0  0
  -23.7189  -29.1811   21.8318 C   0  0  0  0  0  0  0  0  0  0  0  0
  -21.7556  -30.1024   22.1944 C   0  0  0  0  0  0  0  0  0  0  0  0
  -22.5617  -30.3225   19.8385 C   0  0  0  0  0  0  0  0  0  0  0  0
  -25.9398  -15.9324   21.2312 C   0  0  0  0  0  0  0  0  0  0  0  0
  -28.1540  -18.3004   21.1210 C   0  0  0  0  0  0  0  0  0  0  0  0
  -28.8525  -21.6291   21.4014 C   0  0  0  0  0  0  0  0  0  0  0  0
  -20.5218  -27.2188   27.2947 C   0  0  0  0  0  0  0  0  0  0  0  0
  -25.5602  -11.0924   19.6540 C   0  0  0  0  0  0  0  0  0  0  0  0
  -24.8505  -17.5667   19.6506 C   0  0  0  0  0  0  0  0  0  0  0  0
  -25.8965  -18.9095   22.0688 C   0  0  0  0  0  0  0  0  0  0  0  0
  -26.7037  -12.0334   20.0245 C   0  0  0  0  0  0  0  0  0  0  0  0
  -21.4118  -30.6474   26.9352 C   0  0  0  0  0  0  0  0  0  0  0  0
  -26.4210  -12.7177   21.3582 C   0  0  0  0  0  0  0  0  0  0  0  0
  -22.0103  -30.7245   25.5296 C   0  0  0  0  0  0  0  0  0  0  0  0
  -18.2459  -24.4351   24.5476 C   0  0  0  0  0  0  0  0  0  0  0  0
  -21.7671  -29.3340   27.6286 C   0  0  0  0  0  0  0  0  0  0  0  0
  -22.0281  -28.1960   25.4582 C   0  0  0  0  0  0  0  0  0  0  0  0
  -18.2532  -21.9161   25.2418 C   0  0  0  0  0  0  0  0  0  0  0  0
  -20.3191  -23.1513   25.4702 C   0  0  0  0  0  0  0  0  0  0  0  0
  -25.1507  -13.5732   21.2810 C   0  0  1  0  0  0  0  0  0  0  0  0
  -26.1417  -17.1141   20.3255 C   0  0  1  0  0  0  0  0  0  0  0  0
  -17.9072  -23.3436   25.5269 C   0  0  1  0  0  0  0  0  0  0  0  0
  -21.6504  -29.4787   24.6978 C   0  0  2  0  0  0  0  0  0  0  0  0
  -19.1797  -24.1123   25.6925 C   0  0  2  0  0  0  0  0  0  0  0  0
  -30.7589  -23.2575   21.2966 C   0  0  0  0  0  0  0  0  0  0  0  0
  -29.0718  -17.4002   23.8882 C   0  0  0  0  0  0  0  0  0  0  0  0
  -30.2744  -19.5835   24.1230 C   0  0  0  0  0  0  0  0  0  0  0  0
  -30.9245  -17.9916   22.3158 C   0  0  0  0  0  0  0  0  0  0  0  0
  -27.6394  -23.0810   19.1256 C   0  0  0  0  0  0  0  0  0  0  0  0
  -19.3275  -25.0989   26.8057 C   0  0  0  0  0  0  0  0  0  0  0  0
  -20.4350  -20.6177   25.2960 C   0  0  0  0  0  0  0  0  0  0  0  0
  -21.6938  -20.4593   24.4662 C   0  0  0  0  0  0  0  0  0  1  0  0
  -28.7450  -19.2590   22.1264 C   0  0  1  0  0  0  0  0  0  0  0  0
  -29.6503  -22.5690   20.5157 C   0  0  2  0  0  0  0  0  0  0  0  0
  -29.7260  -18.5579   23.1080 C   0  0  0  0  0  0  0  0  0  0  0  0
  -23.4775  -28.9557   23.1260 N   0  0  0  0  0  0  0  0  0  0  0  0
  -22.2765  -29.5280   23.3164 N   0  0  0  0  0  0  0  0  0  0  0  0
  -26.7581  -18.1697   21.1318 N   0  0  0  0  0  0  0  0  0  0  0  0
  -21.3988  -28.1921   26.7882 N   0  0  0  0  0  0  0  0  0  0  0  0
  -20.5559  -30.7213   22.2090 N   0  0  0  0  0  0  0  0  0  0  0  0
  -23.6032  -30.0225   18.9499 N   0  0  0  0  0  0  0  0  0  0  0  0
  -25.4215  -14.8195   20.5970 N   0  0  0  0  0  0  0  0  0  0  0  0
  -29.3446  -20.3419   21.3542 N   0  0  0  0  0  0  0  0  0  0  0  0
  -20.2198  -26.1732   26.4308 N   0  0  0  0  0  0  0  0  0  0  0  0
  -19.7360  -21.8639   24.8928 N   0  3  1  0  0  0  0  0  0  0  0  0
  -28.7613  -23.6167   19.9388 N   0  3  0  0  0  0  0  0  0  0  0  0
  -21.5694  -30.9691   19.4254 O   0  0  0  0  0  0  0  0  0  0  0  0
  -26.2339  -16.0231   22.4174 O   0  0  0  0  0  0  0  0  0  0  0  0
  -28.9027  -17.6954   20.3497 O   0  0  0  0  0  0  0  0  0  0  0  0
  -27.8912  -22.0004   22.0712 O   0  0  0  0  0  0  0  0  0  0  0  0
  -20.0392  -27.2799   28.4306 O   0  0  0  0  0  0  0  0  0  0  0  0
  -28.4593  -27.3484   19.5000 O   0  0  0  0  0  0  0  0  0  0  0  0
  -21.3500  -20.4061   23.0822 O   0  0  0  0  0  0  0  0  0  1  0  0
  -31.1999  -30.8119   16.1991 F   0  0  0  0  0  0  0  0  0  0  0  0
  -31.0547  -28.1043   20.0789 F   0  0  0  0  0  0  0  0  0  0  0  0
  1  2  1  0  0  0  0
  1  5  2  0  0  0  0
  2  6  2  0  0  0  0
  3  8  2  0  0  0  0
  3 15  1  0  0  0  0
  4  9  1  0  0  0  0
  4 15  2  0  0  0  0
  5 17  1  0  0  0  0
  6 19  1  0  0  0  0
  7 10  2  0  0  0  0
  7 18  1  0  0  0  0
  8 21  1  0  0  0  0
  9 21  2  0  0  0  0
 10 22  1  0  0  0  0
 11 12  2  0  0  0  0
 11 23  1  0  0  0  0
 12 24  1  0  0  0  0
 13 20  1  0  0  0  0
 13 22  2  0  0  0  0
 14 24  2  0  0  0  0
 14 25  1  0  0  0  0
 15 26  1  0  0  0  0
 16 26  1  0  0  0  0
 16 27  2  0  0  0  0
 16 28  1  0  0  0  0
 17 19  2  0  0  0  0
 17 33  1  0  0  0  0
 18 20  2  0  0  0  0
 18 34  1  0  0  0  0
 19 45  1  0  0  0  0
 20 35  1  0  0  0  0
 21 77  1  0  0  0  0
 22 78  1  0  0  0  0
 23 25  2  0  0  0  0
 23 77  1  0  0  0  0
 24 79  1  0  0  0  0
 25 80  1  0  0  0  0
 26 61  2  0  0  0  0
 27 62  1  0  0  0  0
 27 65  1  0  0  0  0
 28 66  1  0  0  0  0
 28 72  2  0  0  0  0
 29 46  1  0  0  0  0
 29 67  1  0  0  0  0
 29 73  2  0  0  0  0
 30 58  1  0  0  0  0
 30 63  1  0  0  0  0
 30 74  2  0  0  0  0
 31 59  1  0  0  0  0
 31 68  1  0  0  0  0
 31 75  2  0  0  0  0
 32 64  1  0  0  0  0
 32 69  1  0  0  0  0
 32 76  2  0  0  0  0
 33 36  1  0  0  0  0
 34 46  1  0  0  0  0
 35 63  1  0  0  0  0
 36 38  1  0  0  0  0
 37 39  1  0  0  0  0
 37 41  1  0  0  0  0
 38 45  1  0  0  0  0
 39 48  1  0  0  0  0
 40 47  1  0  0  0  0
 40 49  1  0  0  0  0
 41 64  1  0  0  0  0
 42 48  1  0  0  0  0
 42 64  1  0  0  0  0
 43 47  1  0  0  0  0
 43 70  1  0  0  0  0
 44 49  1  0  0  0  0
 44 70  1  0  0  0  0
 45 67  1  0  0  0  0
 46 63  1  0  0  0  0
 47 49  1  0  0  0  0
 48 62  1  0  0  0  0
 49 55  1  0  0  0  0
 50 59  1  0  0  0  0
 51 60  1  0  0  0  0
 52 60  1  0  0  0  0
 53 60  1  0  0  0  0
 54 71  1  0  0  0  0
 55 69  1  0  0  0  0
 56 57  1  0  0  0  0
 56 70  1  0  0  0  0
 57 78  1  0  0  0  0
 58 60  1  0  0  0  0
 58 68  1  0  0  0  0
 59 71  1  0  0  0  0
 61 62  1  0  0  0  0
M  CHG  2  70   1  71   1
M  ISO  4  32 100  57 101  69 100  78 101
M  END
> <Batch ID>
0181

> <Smiles>
CNC(C)C(=O)NC(C(=O)N1Cc2cc([101O:1][101CH2:1]CN3CC4CC4(C[100NH:0][100C:0](=O)N4CCCC(n5nc(-c6ccc(Oc7ccc(F)cc7F)cc6)c(C(N)=O)c5N)C4)C3)ccc2CC1C(=O)NC1CCCc2ccccc21)C(C)(C)C

> <Shape>
0.183

> <Color>
0.076

> <Negative vol penalty>
0.000

$$$$

  -OEChem-04052323023D

 81 90  0     1  0  0  0  0  0999 V2000
  -29.3676  -32.7300   25.3828 C   0  0  0  0  0  0  0  0  0  0  0  0
  -29.7813  -31.5337   24.8056 C   0  0  0  0  0  0  0  0  0  0  0  0
  -23.8656   -9.8576   22.1628 C   0  0  0  0  0  0  0  0  0  0  0  0
  -24.6071  -11.3759   23.8897 C   0  0  0  0  0  0  0  0  0  0  0  0
  -28.0077  -32.9885   25.5497 C   0  0  0  0  0  0  0  0  0  0  0  0
  -28.8353  -30.5946   24.3960 C   0  0  0  0  0  0  0  0  0  0  0  0
  -29.2127  -26.8576   19.5589 C   0  0  0  0  0  0  0  0  0  0  0  0
  -23.4330   -8.9593   23.1383 C   0  0  0  0  0  0  0  0  0  0  0  0
  -24.1745  -10.4776   24.8652 C   0  0  0  0  0  0  0  0  0  0  0  0
  -29.5826  -25.5191   19.4342 C   0  0  0  0  0  0  0  0  0  0  0  0
  -20.7805   -8.6150   25.2068 C   0  0  0  0  0  0  0  0  0  0  0  0
  -19.5248   -8.0314   25.0394 C   0  0  0  0  0  0  0  0  0  0  0  0
  -27.2594  -24.8753   19.5211 C   0  0  0  0  0  0  0  0  0  0  0  0
  -20.5464   -5.8422   25.0080 C   0  0  0  0  0  0  0  0  0  0  0  0
  -30.6319  -19.5613   17.3992 C   0  0  0  0  0  0  0  0  0  0  0  0
  -24.4527  -11.0659   22.5385 C   0  0  0  0  0  0  0  0  0  0  0  0
  -29.7120  -20.5371   17.6911 C   0  0  0  0  0  0  0  0  0  0  0  0
  -24.1548  -13.0312   20.9396 C   0  0  0  0  0  0  0  0  0  0  0  0
  -27.0443  -32.0563   25.1331 C   0  0  0  0  0  0  0  0  0  0  0  0
  -27.8618  -27.2147   19.6767 C   0  0  0  0  0  0  0  0  0  0  0  0
  -27.4613  -30.8404   24.5587 C   0  0  0  0  0  0  0  0  0  0  0  0
  -26.8749  -26.2191   19.6445 C   0  0  0  0  0  0  0  0  0  0  0  0
  -23.5874   -9.2694   24.4895 C   0  0  0  0  0  0  0  0  0  0  0  0
  -28.6061  -24.5275   19.4182 C   0  0  0  0  0  0  0  0  0  0  0  0
  -21.9193   -7.8123   25.2747 C   0  0  0  0  0  0  0  0  0  0  0  0
  -19.4077   -6.6450   24.9400 C   0  0  0  0  0  0  0  0  0  0  0  0
  -21.8022   -6.4259   25.1753 C   0  0  0  0  0  0  0  0  0  0  0  0
  -24.9003  -11.9939   21.5313 C   0  0  0  0  0  0  0  0  0  0  0  0
  -28.6178  -20.1526   18.4439 C   0  0  0  0  0  0  0  0  0  0  0  0
  -25.0248  -13.6165   20.0526 C   0  0  0  0  0  0  0  0  0  0  0  0
  -29.3704  -18.0333   18.5473 C   0  0  0  0  0  0  0  0  0  0  0  0
  -29.6240  -21.9545   17.3857 C   0  0  0  0  0  0  0  0  0  0  0  0
  -30.3997  -22.6307   16.5328 C   0  0  0  0  0  0  0  0  0  0  0  0
  -22.7972  -13.4300   21.1713 C   0  0  0  0  0  0  0  0  0  0  0  0
  -26.1090  -28.6585   21.9009 C   0  0  0  0  0  0  0  0  0  0  0  0
  -23.7953  -28.4873   19.6339 C   0  0  0  0  0  0  0  0  0  0  0  0
  -22.5815  -26.9414   16.8439 C   0  0  0  0  0  0  0  0  0  0  0  0
  -30.0591  -15.6204   18.7707 C   0  0  0  0  0  0  0  0  0  0  0  0
  -25.5873  -32.3598   25.3774 C   0  0  0  0  0  0  0  0  0  0  0  0
  -27.4776  -28.6650   19.7836 C   0  0  0  0  0  0  0  0  0  0  0  0
  -25.4095  -26.5516   19.7474 C   0  0  0  0  0  0  0  0  0  0  0  0
  -27.6498  -21.2874   18.6475 C   0  0  0  0  0  0  0  0  0  0  0  0
  -24.6377  -31.4744   24.5745 C   0  0  0  0  0  0  0  0  0  0  0  0
  -29.5732  -12.1107   18.4198 C   0  0  0  0  0  0  0  0  0  0  0  0
  -25.0637  -30.0126   24.6678 C   0  0  0  0  0  0  0  0  0  0  0  0
  -28.2529  -11.8528   19.1494 C   0  0  0  0  0  0  0  0  0  0  0  0
  -30.4064  -13.1844   19.1176 C   0  0  0  0  0  0  0  0  0  0  0  0
  -28.3835  -14.1911   20.0992 C   0  0  0  0  0  0  0  0  0  0  0  0
  -26.4646  -29.8075   24.0790 C   0  0  1  0  0  0  0  0  0  0  0  0
  -28.4574  -22.5096   18.1686 C   0  0  1  0  0  0  0  0  0  1  0  0
  -26.1042  -28.8744   20.4140 C   0  0  1  0  0  0  0  0  0  0  0  0
  -27.4807  -13.1634   19.3974 C   0  0  2  0  0  0  0  0  0  0  0  0
  -20.6509  -26.9999   15.2418 C   0  0  0  0  0  0  0  0  0  0  0  0
  -22.0268  -27.1335   21.7195 C   0  0  0  0  0  0  0  0  0  0  0  0
  -20.5312  -26.3778   19.8592 C   0  0  0  0  0  0  0  0  0  0  0  0
  -20.8519  -28.8142   20.2880 C   0  0  0  0  0  0  0  0  0  0  0  0
  -24.3544  -27.5279   14.5478 C   0  0  0  0  0  0  0  0  0  0  0  0
  -22.7365  -27.4779   19.2611 C   0  0  1  0  0  0  0  0  0  0  0  0
  -22.0587  -27.4969   15.5315 C   0  0  2  0  0  0  0  0  0  0  0  0
  -21.5642  -27.4441   20.2819 C   0  0  0  0  0  0  0  0  0  0  0  0
  -30.4851  -18.2859   17.8204 N   0  0  0  0  0  0  0  0  0  0  0  0
  -26.1479  -11.9218   21.0597 N   0  0  0  0  0  0  0  0  0  0  0  0
  -28.4007  -18.9058   18.8909 N   0  0  0  0  0  0  0  0  0  0  0  0
  -26.1930  -12.9211   20.1623 N   0  0  0  0  0  0  0  0  0  0  0  0
  -25.0846  -27.9834   19.8565 N   0  0  0  0  0  0  0  0  0  0  0  0
  -29.6112  -14.3982   19.3152 N   0  0  0  0  0  0  0  0  0  0  0  0
  -24.8969  -14.6530   19.1972 N   0  0  0  0  0  0  0  0  0  0  0  0
  -22.0446  -12.7206   22.1171 N   0  0  0  0  0  0  0  0  0  0  0  0
  -29.2044  -16.6992   18.9949 N   0  0  0  0  0  0  0  0  0  0  0  0
  -26.4078  -29.7918   22.6330 N   0  0  0  0  0  0  0  0  0  0  0  0
  -22.3313  -27.7965   17.8963 N   0  0  0  0  0  0  0  0  0  0  0  0
  -22.9436  -27.0848   14.4054 N   0  3  0  0  0  0  0  0  0  0  0  0
  -22.2622  -14.3766   20.5458 O   0  0  0  0  0  0  0  0  0  0  0  0
  -25.8587  -27.5464   22.3508 O   0  0  0  0  0  0  0  0  0  0  0  0
  -23.4912  -29.6798   19.7174 O   0  0  0  0  0  0  0  0  0  0  0  0
  -23.1514  -25.8557   16.9278 O   0  0  0  0  0  0  0  0  0  0  0  0
  -31.1092  -15.6983   18.1278 O   0  0  0  0  0  0  0  0  0  0  0  0
  -23.1652   -8.3932   25.4417 O   0  0  0  0  0  0  0  0  0  0  0  0
  -28.9644  -23.2203   19.2973 O   0  0  0  0  0  0  0  0  0  1  0  0
  -18.2015   -6.0846   24.7808 F   0  0  0  0  0  0  0  0  0  0  0  0
  -22.8924   -5.6495   25.2410 F   0  0  0  0  0  0  0  0  0  0  0  0
  1  2  1  0  0  0  0
  1  5  2  0  0  0  0
  2  6  2  0  0  0  0
  3  8  2  0  0  0  0
  3 16  1  0  0  0  0
  4  9  1  0  0  0  0
  4 16  2  0  0  0  0
  5 19  1  0  0  0  0
  6 21  1  0  0  0  0
  7 10  2  0  0  0  0
  7 20  1  0  0  0  0
  8 23  1  0  0  0  0
  9 23  2  0  0  0  0
 10 24  1  0  0  0  0
 11 12  2  0  0  0  0
 11 25  1  0  0  0  0
 12 26  1  0  0  0  0
 13 22  1  0  0  0  0
 13 24  2  0  0  0  0
 14 26  2  0  0  0  0
 14 27  1  0  0  0  0
 15 17  1  0  0  0  0
 15 61  2  0  0  0  0
 16 28  1  0  0  0  0
 17 29  2  0  0  0  0
 17 32  1  0  0  0  0
 18 28  1  0  0  0  0
 18 30  2  0  0  0  0
 18 34  1  0  0  0  0
 19 21  2  0  0  0  0
 19 39  1  0  0  0  0
 20 22  2  0  0  0  0
 20 40  1  0  0  0  0
 21 49  1  0  0  0  0
 22 41  1  0  0  0  0
 23 78  1  0  0  0  0
 24 79  1  0  0  0  0
 25 27  2  0  0  0  0
 25 78  1  0  0  0  0
 26 80  1  0  0  0  0
 27 81  1  0  0  0  0
 28 62  2  0  0  0  0
 29 42  1  0  0  0  0
 29 63  1  0  0  0  0
 30 64  1  0  0  0  0
 30 67  1  0  0  0  0
 31 61  1  0  0  0  0
 31 63  2  0  0  0  0
 31 69  1  0  0  0  0
 32 33  2  0  0  0  0
 32 50  1  0  0  0  0
 34 68  1  0  0  0  0
 34 73  2  0  0  0  0
 35 51  1  0  0  0  0
 35 70  1  0  0  0  0
 35 74  2  0  0  0  0
 36 58  1  0  0  0  0
 36 65  1  0  0  0  0
 36 75  2  0  0  0  0
 37 59  1  0  0  0  0
 37 71  1  0  0  0  0
 37 76  2  0  0  0  0
 38 66  1  0  0  0  0
 38 69  1  0  0  0  0
 38 77  2  0  0  0  0
 39 43  1  0  0  0  0
 40 51  1  0  0  0  0
 41 65  1  0  0  0  0
 42 50  1  0  0  0  0
 43 45  1  0  0  0  0
 44 46  1  0  0  0  0
 44 47  1  0  0  0  0
 45 49  1  0  0  0  0
 46 52  1  0  0  0  0
 47 66  1  0  0  0  0
 48 52  1  0  0  0  0
 48 66  1  0  0  0  0
 49 70  1  0  0  0  0
 50 79  1  0  0  0  0
 51 65  1  0  0  0  0
 52 64  1  0  0  0  0
 53 59  1  0  0  0  0
 54 60  1  0  0  0  0
 55 60  1  0  0  0  0
 56 60  1  0  0  0  0
 57 72  1  0  0  0  0
 58 60  1  0  0  0  0
 58 71  1  0  0  0  0
 59 72  1  0  0  0  0
 62 64  1  0  0  0  0
M  CHG  1  72   1
M  ISO  4  38 100  50 101  69 100  79 101
M  END
> <Batch ID>
0181

> <Smiles>
C=C1c2cnc([100NH:0][100C:0](=O)N3CCCC(n4nc(-c5ccc(Oc6ccc(F)cc6F)cc5)c(C(N)=O)c4N)C3)nc2C[101CH:1]1[101O:1]c1ccc2c(c1)CN(C(=O)C(NC(=O)C(C)NC)C(C)(C)C)C(C(=O)NC1CCCc3ccccc31)C2

> <Shape>
0.288

> <Color>
0.117

> <Negative vol penalty>
0.000

$$$$

  -OEChem-04052323023D

 84 92  0     1  0  0  0  0  0999 V2000
  -28.8271  -29.8948    9.0120 C   0  0  0  0  0  0  0  0  0  0  0  0
  -28.7411  -28.7629    9.8161 C   0  0  0  0  0  0  0  0  0  0  0  0
  -23.0228   -9.9521   19.9242 C   0  0  0  0  0  0  0  0  0  0  0  0
  -23.7918   -9.8812   22.2134 C   0  0  0  0  0  0  0  0  0  0  0  0
  -29.2047  -31.1164    9.5679 C   0  0  0  0  0  0  0  0  0  0  0  0
  -29.0338  -28.8516   11.1766 C   0  0  0  0  0  0  0  0  0  0  0  0
  -26.3733  -25.7318   15.7258 C   0  0  0  0  0  0  0  0  0  0  0  0
  -22.2664   -8.8007   20.1426 C   0  0  0  0  0  0  0  0  0  0  0  0
  -23.0354   -8.7298   22.4319 C   0  0  0  0  0  0  0  0  0  0  0  0
  -26.7513  -24.5854   16.4234 C   0  0  0  0  0  0  0  0  0  0  0  0
  -23.2848   -5.4229   21.7738 C   0  0  0  0  0  0  0  0  0  0  0  0
  -23.8910   -4.3693   22.4580 C   0  0  0  0  0  0  0  0  0  0  0  0
  -27.6952  -25.9632   18.1641 C   0  0  0  0  0  0  0  0  0  0  0  0
  -22.1985   -4.5114   24.1763 C   0  0  0  0  0  0  0  0  0  0  0  0
  -23.7856  -10.4923   20.9595 C   0  0  0  0  0  0  0  0  0  0  0  0
  -24.1568  -13.0157   20.9139 C   0  0  0  0  0  0  0  0  0  0  0  0
  -29.4928  -31.2222   10.9378 C   0  0  0  0  0  0  0  0  0  0  0  0
  -26.6636  -27.0047   16.2377 C   0  0  0  0  0  0  0  0  0  0  0  0
  -29.4169  -30.0754   11.7511 C   0  0  0  0  0  0  0  0  0  0  0  0
  -27.3175  -27.1242   17.4723 C   0  0  0  0  0  0  0  0  0  0  0  0
  -27.9239  -21.2251   18.6443 C   0  0  0  0  0  0  0  0  0  0  0  0
  -22.2726   -8.1896   21.3964 C   0  0  0  0  0  0  0  0  0  0  0  0
  -27.4149  -24.7010   17.6413 C   0  0  0  0  0  0  0  0  0  0  0  0
  -22.1355   -6.0208   22.2909 C   0  0  0  0  0  0  0  0  0  0  0  0
  -23.3478   -3.9136   23.6592 C   0  0  0  0  0  0  0  0  0  0  0  0
  -21.5924   -5.5651   23.4921 C   0  0  0  0  0  0  0  0  0  0  0  0
  -24.5677  -11.6813   20.7344 C   0  0  0  0  0  0  0  0  0  0  0  0
  -29.2544  -20.8781   18.7622 C   0  0  0  0  0  0  0  0  0  0  0  0
  -27.0455  -20.4940   19.4177 C   0  0  0  0  0  0  0  0  0  0  0  0
  -25.2562  -13.7630   20.5686 C   0  0  0  0  0  0  0  0  0  0  0  0
  -28.7495  -19.2562   20.2727 C   0  0  0  0  0  0  0  0  0  0  0  0
  -22.8941  -13.5335   21.3536 C   0  0  0  0  0  0  0  0  0  0  0  0
  -28.4068  -29.4740   15.2541 C   0  0  0  0  0  0  0  0  0  0  0  0
  -27.1079  -30.9246   17.8485 C   0  0  0  0  0  0  0  0  0  0  0  0
  -25.6728  -30.6092   20.9287 C   0  0  0  0  0  0  0  0  0  0  0  0
  -30.7523  -14.7117   20.7637 C   0  0  0  0  0  0  0  0  0  0  0  0
  -29.9427  -32.5540   11.4842 C   0  0  0  0  0  0  0  0  0  0  0  0
  -26.2254  -28.2315   15.4859 C   0  0  0  0  0  0  0  0  0  0  0  0
  -27.6345  -28.4676   18.0750 C   0  0  0  0  0  0  0  0  0  0  0  0
  -29.8729  -32.6427   13.0066 C   0  0  0  0  0  0  0  0  0  0  0  0
  -29.5772  -12.4135   18.3114 C   0  0  0  0  0  0  0  0  0  0  0  0
  -30.4786  -31.3954   13.6423 C   0  0  0  0  0  0  0  0  0  0  0  0
  -28.1381  -12.1238   18.7415 C   0  0  0  0  0  0  0  0  0  0  0  0
  -30.5016  -12.5874   19.5144 C   0  0  0  0  0  0  0  0  0  0  0  0
  -28.6142  -13.2986   20.9305 C   0  0  0  0  0  0  0  0  0  0  0  0
  -29.7025  -30.1368   13.2360 C   0  0  1  0  0  0  0  0  0  0  0  0
  -27.0286  -29.4756   15.8526 C   0  0  1  0  0  0  0  0  0  0  0  0
  -27.6333  -13.1709   19.7524 C   0  0  2  0  0  0  0  0  0  0  0  0
  -30.2975  -21.6011   17.9751 C   0  0  0  0  0  0  0  0  0  0  0  0
  -24.8236  -20.1002   20.5107 C   0  0  0  0  0  0  0  0  0  0  0  0
  -24.7522  -31.9748   22.8222 C   0  0  0  0  0  0  0  0  0  0  0  0
  -29.9470  -31.6133   18.7290 C   0  0  0  0  0  0  0  0  0  0  0  0
  -29.0452  -32.1036   21.0126 C   0  0  0  0  0  0  0  0  0  0  0  0
  -28.2793  -33.4481   19.0559 C   0  0  0  0  0  0  0  0  0  0  0  0
  -22.9829  -29.4093   20.6395 C   0  0  0  0  0  0  0  0  0  0  0  0
  -27.4628  -22.3251   17.7339 C   0  0  0  0  0  0  0  0  0  1  0  0
  -25.5803  -20.7795   19.3732 C   0  0  0  0  0  0  0  0  0  0  0  0
  -30.8485  -16.8232   22.0644 C   0  0  0  0  0  0  0  0  0  0  0  0
  -30.5693  -17.9917   21.1361 C   0  0  0  0  0  0  0  0  0  0  0  0
  -27.4915  -31.0584   19.3024 C   0  0  1  0  0  0  0  0  0  0  0  0
  -24.4299  -31.2400   21.5303 C   0  0  2  0  0  0  0  0  0  0  0  0
  -28.6866  -32.0304   19.5130 C   0  0  0  0  0  0  0  0  0  0  0  0
  -25.8296  -11.5833   20.3079 N   0  0  0  0  0  0  0  0  0  0  0  0
  -29.7040  -19.8953   19.5698 N   0  0  0  0  0  0  0  0  0  0  0  0
  -27.4251  -19.4989   20.2458 N   0  0  0  0  0  0  0  0  0  0  0  0
  -26.2212  -12.8657   20.2166 N   0  0  0  0  0  0  0  0  0  0  0  0
  -27.1912  -29.6375   17.2988 N   0  0  0  0  0  0  0  0  0  0  0  0
  -29.9668  -13.5952   20.4332 N   0  0  0  0  0  0  0  0  0  0  0  0
  -25.4821  -15.0935   20.5347 N   0  0  0  0  0  0  0  0  0  0  0  0
  -21.8729  -12.6265   21.6678 N   0  0  0  0  0  0  0  0  0  0  0  0
  -28.4732  -30.0347   13.9929 N   0  0  0  0  0  0  0  0  0  0  0  0
  -26.2761  -31.4435   20.0115 N   0  0  0  0  0  0  0  0  0  0  0  0
  -30.1676  -15.6217   21.6359 N   0  0  0  0  0  0  0  0  0  0  0  0
  -23.4098  -30.1946   21.8261 N   0  3  0  0  0  0  0  0  0  0  0  0
  -22.6727  -14.7646   21.4489 O   0  0  0  0  0  0  0  0  0  0  0  0
  -29.3411  -29.0004   15.8902 O   0  0  0  0  0  0  0  0  0  0  0  0
  -26.7407  -31.9239   17.2255 O   0  0  0  0  0  0  0  0  0  0  0  0
  -26.0709  -29.4900   21.2439 O   0  0  0  0  0  0  0  0  0  0  0  0
  -31.8885  -14.8875   20.3107 O   0  0  0  0  0  0  0  0  0  0  0  0
  -21.5344   -7.0662   21.6100 O   0  0  0  0  0  0  0  0  0  0  0  0
  -27.7856  -23.5836   18.3240 O   0  0  0  0  0  0  0  0  0  1  0  0
  -29.1726  -18.2479   21.1073 O   0  0  0  0  0  0  0  0  0  0  0  0
  -23.9292   -2.9008   24.3153 F   0  0  0  0  0  0  0  0  0  0  0  0
  -20.4877   -6.1347   23.9932 F   0  0  0  0  0  0  0  0  0  0  0  0
  1  2  1  0  0  0  0
  1  5  2  0  0  0  0
  2  6  2  0  0  0  0
  3  8  2  0  0  0  0
  3 15  1  0  0  0  0
  4  9  1  0  0  0  0
  4 15  2  0  0  0  0
  5 17  1  0  0  0  0
  6 19  1  0  0  0  0
  7 10  2  0  0  0  0
  7 18  1  0  0  0  0
  8 22  1  0  0  0  0
  9 22  2  0  0  0  0
 10 23  1  0  0  0  0
 11 12  2  0  0  0  0
 11 24  1  0  0  0  0
 12 25  1  0  0  0  0
 13 20  1  0  0  0  0
 13 23  2  0  0  0  0
 14 25  2  0  0  0  0
 14 26  1  0  0  0  0
 15 27  1  0  0  0  0
 16 27  1  0  0  0  0
 16 30  2  0  0  0  0
 16 32  1  0  0  0  0
 17 19  2  0  0  0  0
 17 37  1  0  0  0  0
 18 20  2  0  0  0  0
 18 38  1  0  0  0  0
 19 46  1  0  0  0  0
 20 39  1  0  0  0  0
 21 28  1  0  0  0  0
 21 29  2  0  0  0  0
 21 56  1  0  0  0  0
 22 80  1  0  0  0  0
 23 81  1  0  0  0  0
 24 26  2  0  0  0  0
 24 80  1  0  0  0  0
 25 83  1  0  0  0  0
 26 84  1  0  0  0  0
 27 63  2  0  0  0  0
 28 49  1  0  0  0  0
 28 64  2  0  0  0  0
 29 57  1  0  0  0  0
 29 65  1  0  0  0  0
 30 66  1  0  0  0  0
 30 69  1  0  0  0  0
 31 64  1  0  0  0  0
 31 65  2  0  0  0  0
 31 82  1  0  0  0  0
 32 70  1  0  0  0  0
 32 75  2  0  0  0  0
 33 47  1  0  0  0  0
 33 71  1  0  0  0  0
 33 76  2  0  0  0  0
 34 60  1  0  0  0  0
 34 67  1  0  0  0  0
 34 77  2  0  0  0  0
 35 61  1  0  0  0  0
 35 72  1  0  0  0  0
 35 78  2  0  0  0  0
 36 68  1  0  0  0  0
 36 73  1  0  0  0  0
 36 79  2  0  0  0  0
 37 40  1  0  0  0  0
 38 47  1  0  0  0  0
 39 67  1  0  0  0  0
 40 42  1  0  0  0  0
 41 43  1  0  0  0  0
 41 44  1  0  0  0  0
 42 46  1  0  0  0  0
 43 48  1  0  0  0  0
 44 68  1  0  0  0  0
 45 48  1  0  0  0  0
 45 68  1  0  0  0  0
 46 71  1  0  0  0  0
 47 67  1  0  0  0  0
 48 66  1  0  0  0  0
 50 57  1  0  0  0  0
 51 61  1  0  0  0  0
 52 62  1  0  0  0  0
 53 62  1  0  0  0  0
 54 62  1  0  0  0  0
 55 74  1  0  0  0  0
 56 81  1  0  0  0  0
 58 59  1  0  0  0  0
 58 73  1  0  0  0  0
 59 82  1  0  0  0  0
 60 62  1  0  0  0  0
 60 72  1  0  0  0  0
 61 74  1  0  0  0  0
 63 66  1  0  0  0  0
M  CHG  1  74   1
M  ISO  4  36 100  56 101  73 100  81 101
M  END
> <Batch ID>
0181

> <Smiles>
CCc1nc(OCC[100NH:0][100C:0](=O)N2CCCC(n3nc(-c4ccc(Oc5ccc(F)cc5F)cc4)c(C(N)=O)c3N)C2)nc(C)c1[101CH2:1][101O:1]c1ccc2c(c1)CN(C(=O)C(NC(=O)C(C)NC)C(C)(C)C)C(C(=O)NC1CCCc3ccccc31)C2

> <Shape>
0.268

> <Color>
0.205

> <Negative vol penalty>
0.000

$$$$
