
  -OEChem-04052323053D

 79 87  0     1  0  0  0  0  0999 V2000
  -29.0930  -11.5607   19.4506 C   0  0  0  0  0  0  0  0  0  0  0  0
  -29.1270  -12.9337   19.2289 C   0  0  0  0  0  0  0  0  0  0  0  0
  -24.0385  -26.1984   21.7995 C   0  0  0  0  0  0  0  0  0  0  0  0
  -23.1419  -28.3742   21.2525 C   0  0  0  0  0  0  0  0  0  0  0  0
  -27.9020  -10.9475   19.8371 C   0  0  0  0  0  0  0  0  0  0  0  0
  -27.9697  -13.6941   19.3923 C   0  0  0  0  0  0  0  0  0  0  0  0
  -28.8096  -17.9863   21.9450 C   0  0  0  0  0  0  0  0  0  0  0  0
  -22.9149  -25.9321   22.5819 C   0  0  0  0  0  0  0  0  0  0  0  0
  -22.0183  -28.1079   22.0349 C   0  0  0  0  0  0  0  0  0  0  0  0
  -29.3942  -19.0401   21.2439 C   0  0  0  0  0  0  0  0  0  0  0  0
  -18.7454  -27.8591   23.5983 C   0  0  0  0  0  0  0  0  0  0  0  0
  -17.4952  -28.1815   23.0702 C   0  0  0  0  0  0  0  0  0  0  0  0
  -27.2238  -20.0585   20.9766 C   0  0  0  0  0  0  0  0  0  0  0  0
  -17.8895  -26.6792   21.2196 C   0  0  0  0  0  0  0  0  0  0  0  0
  -24.1520  -27.4195   21.1348 C   0  0  0  0  0  0  0  0  0  0  0  0
  -25.4796  -27.4198   18.9564 C   0  0  0  0  0  0  0  0  0  0  0  0
  -26.7318  -11.7022   20.0147 C   0  0  0  0  0  0  0  0  0  0  0  0
  -27.4239  -17.9552   22.1581 C   0  0  0  0  0  0  0  0  0  0  0  0
  -26.7615  -13.0901   19.7802 C   0  0  0  0  0  0  0  0  0  0  0  0
  -26.6243  -19.0045   21.6830 C   0  0  0  0  0  0  0  0  0  0  0  0
  -21.9048  -26.8868   22.6996 C   0  0  0  0  0  0  0  0  0  0  0  0
  -28.6009  -20.0749   20.7571 C   0  0  0  0  0  0  0  0  0  0  0  0
  -19.5676  -26.9469   22.9369 C   0  0  0  0  0  0  0  0  0  0  0  0
  -17.0673  -27.5915   21.8809 C   0  0  0  0  0  0  0  0  0  0  0  0
  -19.1397  -26.3569   21.7476 C   0  0  0  0  0  0  0  0  0  0  0  0
  -25.3127  -27.6954   20.3268 C   0  0  0  0  0  0  0  0  0  0  0  0
  -26.7448  -27.8694   18.6673 C   0  0  0  0  0  0  0  0  0  0  0  0
  -24.5720  -26.8119   18.0277 C   0  0  0  0  0  0  0  0  0  0  0  0
  -25.0691  -15.9916   21.3197 C   0  0  0  0  0  0  0  0  0  0  0  0
  -23.3016  -17.9211   23.2368 C   0  0  0  0  0  0  0  0  0  0  0  0
  -22.9102  -20.9793   24.7001 C   0  0  0  0  0  0  0  0  0  0  0  0
  -32.1480  -28.2901   19.9785 C   0  0  0  0  0  0  0  0  0  0  0  0
  -25.4568  -10.9878   20.3874 C   0  0  0  0  0  0  0  0  0  0  0  0
  -26.8121  -16.8249   22.9395 C   0  0  0  0  0  0  0  0  0  0  0  0
  -25.1345  -19.0284   21.9026 C   0  0  0  0  0  0  0  0  0  0  0  0
  -24.3640  -11.9209   20.9024 C   0  0  0  0  0  0  0  0  0  0  0  0
  -29.9476  -30.6894   21.3492 C   0  0  0  0  0  0  0  0  0  0  0  0
  -24.2324  -13.1405   19.9956 C   0  0  0  0  0  0  0  0  0  0  0  0
  -28.5588  -30.0961   21.1289 C   0  0  0  0  0  0  0  0  0  0  0  0
  -33.0224  -25.6535   17.5327 C   0  0  0  0  0  0  0  0  0  0  0  0
  -30.9522  -29.5993   21.6976 C   0  0  0  0  0  0  0  0  0  0  0  0
  -33.3638  -26.9065   18.3239 C   0  0  0  0  0  0  0  0  0  0  0  0
  -31.1668  -26.1598   18.9365 C   0  0  0  0  0  0  0  0  0  0  0  0
  -29.6681  -27.9209   20.4000 C   0  0  0  0  0  0  0  0  0  0  0  0
  -25.5328  -13.9526   19.9712 C   0  0  1  0  0  0  0  0  0  0  0  0
  -25.3256  -16.6360   22.6526 C   0  0  1  0  0  0  0  0  0  0  0  0
  -31.9770  -24.9723   18.4168 C   0  0  1  0  0  0  0  0  0  0  0  0
  -28.6058  -28.9883   20.0651 C   0  0  1  0  0  0  0  0  0  0  0  0
  -21.3479  -22.2690   26.1811 C   0  0  0  0  0  0  0  0  0  0  0  0
  -21.3805  -18.2800   20.8936 C   0  0  0  0  0  0  0  0  0  0  0  0
  -20.4133  -20.2610   22.0803 C   0  0  0  0  0  0  0  0  0  0  0  0
  -20.2721  -17.9967   23.1174 C   0  0  0  0  0  0  0  0  0  0  0  0
  -24.9927  -21.3501   26.7700 C   0  0  0  0  0  0  0  0  0  0  0  0
  -31.1377  -23.9492   17.6726 C   0  0  0  0  0  0  0  0  0  0  0  0
  -29.2630  -22.3319   18.0020 C   0  0  0  0  0  0  0  0  0  0  0  0
  -28.3714  -21.7423   19.0769 C   0  0  0  0  0  0  0  0  0  1  0  0
  -22.5018  -19.1856   23.0357 C   0  0  1  0  0  0  0  0  0  0  0  0
  -22.5794  -21.3783   26.1269 C   0  0  2  0  0  0  0  0  0  0  0  0
  -21.1697  -18.9297   22.2758 C   0  0  0  0  0  0  0  0  0  0  0  0
  -26.3862  -28.2750   20.8706 N   0  0  0  0  0  0  0  0  0  0  0  0
  -27.2397  -28.3672   19.8367 N   0  0  0  0  0  0  0  0  0  0  0  0
  -24.5825  -17.8976   22.6670 N   0  0  0  0  0  0  0  0  0  0  0  0
  -30.9699  -28.5347   20.6926 N   0  0  0  0  0  0  0  0  0  0  0  0
  -32.1494  -27.2393   19.0620 N   0  0  0  0  0  0  0  0  0  0  0  0
  -27.4711  -27.8835   17.5295 N   0  0  0  0  0  0  0  0  0  0  0  0
  -23.3123  -26.4086   18.4913 N   0  0  0  0  0  0  0  0  0  0  0  0
  -25.6545  -14.7484   21.1739 N   0  0  0  0  0  0  0  0  0  0  0  0
  -22.3310  -19.7754   24.3591 N   0  0  0  0  0  0  0  0  0  0  0  0
  -23.7211  -22.1174   26.7361 N   0  3  0  0  0  0  0  0  0  0  0  0
  -30.1902  -23.3208   18.6201 N   0  3  0  0  0  0  0  0  0  0  0  0
  -24.8754  -26.6168   16.8263 O   0  0  0  0  0  0  0  0  0  0  0  0
  -24.3891  -16.5781   20.4859 O   0  0  0  0  0  0  0  0  0  0  0  0
  -22.8109  -16.9913   23.8820 O   0  0  0  0  0  0  0  0  0  0  0  0
  -23.6093  -21.6686   23.9607 O   0  0  0  0  0  0  0  0  0  0  0  0
  -33.1724  -28.9560   20.1809 O   0  0  0  0  0  0  0  0  0  0  0  0
  -20.8082  -26.6272   23.4629 O   0  0  0  0  0  0  0  0  0  0  0  0
  -29.1730  -21.1117   20.0670 O   0  0  0  0  0  0  0  0  0  1  0  0
  -15.8661  -27.9000   21.3747 F   0  0  0  0  0  0  0  0  0  0  0  0
  -19.9248  -25.4788   21.1084 F   0  0  0  0  0  0  0  0  0  0  0  0
  1  2  1  0  0  0  0
  1  5  2  0  0  0  0
  2  6  2  0  0  0  0
  3  8  2  0  0  0  0
  3 15  1  0  0  0  0
  4  9  1  0  0  0  0
  4 15  2  0  0  0  0
  5 17  1  0  0  0  0
  6 19  1  0  0  0  0
  7 10  2  0  0  0  0
  7 18  1  0  0  0  0
  8 21  1  0  0  0  0
  9 21  2  0  0  0  0
 10 22  1  0  0  0  0
 11 12  2  0  0  0  0
 11 23  1  0  0  0  0
 12 24  1  0  0  0  0
 13 20  1  0  0  0  0
 13 22  2  0  0  0  0
 14 24  2  0  0  0  0
 14 25  1  0  0  0  0
 15 26  1  0  0  0  0
 16 26  1  0  0  0  0
 16 27  2  0  0  0  0
 16 28  1  0  0  0  0
 17 19  2  0  0  0  0
 17 33  1  0  0  0  0
 18 20  2  0  0  0  0
 18 34  1  0  0  0  0
 19 45  1  0  0  0  0
 20 35  1  0  0  0  0
 21 76  1  0  0  0  0
 22 77  1  0  0  0  0
 23 25  2  0  0  0  0
 23 76  1  0  0  0  0
 24 78  1  0  0  0  0
 25 79  1  0  0  0  0
 26 60  2  0  0  0  0
 27 61  1  0  0  0  0
 27 65  1  0  0  0  0
 28 66  1  0  0  0  0
 28 71  2  0  0  0  0
 29 46  1  0  0  0  0
 29 67  1  0  0  0  0
 29 72  2  0  0  0  0
 30 57  1  0  0  0  0
 30 62  1  0  0  0  0
 30 73  2  0  0  0  0
 31 58  1  0  0  0  0
 31 68  1  0  0  0  0
 31 74  2  0  0  0  0
 32 63  1  0  0  0  0
 32 64  1  0  0  0  0
 32 75  2  0  0  0  0
 33 36  1  0  0  0  0
 34 46  1  0  0  0  0
 35 62  1  0  0  0  0
 36 38  1  0  0  0  0
 37 39  1  0  0  0  0
 37 41  1  0  0  0  0
 38 45  1  0  0  0  0
 39 48  1  0  0  0  0
 40 42  1  0  0  0  0
 40 47  1  0  0  0  0
 41 63  1  0  0  0  0
 42 64  1  0  0  0  0
 43 47  1  0  0  0  0
 43 64  1  0  0  0  0
 44 48  1  0  0  0  0
 44 63  1  0  0  0  0
 45 67  1  0  0  0  0
 46 62  1  0  0  0  0
 47 54  1  0  0  0  0
 48 61  1  0  0  0  0
 49 58  1  0  0  0  0
 50 59  1  0  0  0  0
 51 59  1  0  0  0  0
 52 59  1  0  0  0  0
 53 69  1  0  0  0  0
 54 70  1  0  0  0  0
 55 56  1  0  0  0  0
 55 70  1  0  0  0  0
 56 77  1  0  0  0  0
 57 59  1  0  0  0  0
 57 68  1  0  0  0  0
 58 69  1  0  0  0  0
 60 61  1  0  0  0  0
M  CHG  2  69   1  70   1
M  ISO  4  32 100  56 101  64 100  77 101
M  END
> <Batch ID>
0182

> <Smiles>
CNC(C)C(=O)NC(C(=O)N1Cc2cc([101O:1][101CH2:1]CNCC3CC[100N:0]([100C:0](=O)N4CCCC(n5nc(-c6ccc(Oc7ccc(F)cc7F)cc6)c(C(N)=O)c5N)C4)C3)ccc2CC1C(=O)NC1CCCc2ccccc21)C(C)(C)C

> <Shape>
0.230

> <Color>
0.059

> <Negative vol penalty>
0.000

$$$$

  -OEChem-04052323053D

 84 94  0     1  0  0  0  0  0999 V2000
  -18.4838  -24.3602   20.9467 C   0  0  0  0  0  0  0  0  0  0  0  0
  -19.8038  -24.4719   20.5217 C   0  0  0  0  0  0  0  0  0  0  0  0
  -25.4192  -16.0383   19.6893 C   0  0  0  0  0  0  0  0  0  0  0  0
  -24.7211  -17.2585   21.6542 C   0  0  0  0  0  0  0  0  0  0  0  0
  -17.9600  -25.2912   21.8426 C   0  0  0  0  0  0  0  0  0  0  0  0
  -20.6004  -25.5155   20.9916 C   0  0  0  0  0  0  0  0  0  0  0  0
  -25.2265  -23.9679   22.3513 C   0  0  0  0  0  0  0  0  0  0  0  0
  -24.2339  -15.3037   19.7243 C   0  0  0  0  0  0  0  0  0  0  0  0
  -23.5358  -16.5240   21.6892 C   0  0  0  0  0  0  0  0  0  0  0  0
  -26.1462  -23.7357   21.3295 C   0  0  0  0  0  0  0  0  0  0  0  0
  -21.5508  -12.8588   19.5085 C   0  0  0  0  0  0  0  0  0  0  0  0
  -21.6352  -11.4792   19.3213 C   0  0  0  0  0  0  0  0  0  0  0  0
  -27.1470  -25.8901   21.7488 C   0  0  0  0  0  0  0  0  0  0  0  0
  -23.0599  -11.3028   21.2646 C   0  0  0  0  0  0  0  0  0  0  0  0
  -30.0705  -25.4563   19.3241 C   0  0  0  0  0  0  0  0  0  0  0  0
  -25.6628  -17.0156   20.6543 C   0  0  0  0  0  0  0  0  0  0  0  0
  -27.1153  -18.9894   19.9456 C   0  0  0  0  0  0  0  0  0  0  0  0
  -18.7534  -26.3412   22.3312 C   0  0  0  0  0  0  0  0  0  0  0  0
  -25.2534  -25.1697   23.0735 C   0  0  0  0  0  0  0  0  0  0  0  0
  -20.0862  -26.4623   21.8938 C   0  0  0  0  0  0  0  0  0  0  0  0
  -26.2282  -26.1341   22.7810 C   0  0  0  0  0  0  0  0  0  0  0  0
  -23.2922  -15.5466   20.7243 C   0  0  0  0  0  0  0  0  0  0  0  0
  -27.1047  -24.6980   21.0262 C   0  0  0  0  0  0  0  0  0  0  0  0
  -22.2209  -13.4605   20.5737 C   0  0  0  0  0  0  0  0  0  0  0  0
  -22.3897  -10.7011   20.1994 C   0  0  0  0  0  0  0  0  0  0  0  0
  -22.9754  -12.6824   21.4517 C   0  0  0  0  0  0  0  0  0  0  0  0
  -26.8872  -17.7743   20.6189 C   0  0  0  0  0  0  0  0  0  0  0  0
  -31.8846  -25.3879   20.7153 C   0  0  0  0  0  0  0  0  0  0  0  0
  -31.1399  -24.7070   21.6531 C   0  0  0  0  0  0  0  0  0  0  0  0
  -29.3257  -24.7756   20.2620 C   0  0  0  0  0  0  0  0  0  1  0  0
  -28.4254  -19.2947   20.2225 C   0  0  0  0  0  0  0  0  0  0  0  0
  -26.2226  -19.7721   19.1418 C   0  0  0  0  0  0  0  0  0  0  0  0
  -23.2232  -27.5787   23.4958 C   0  0  0  0  0  0  0  0  0  0  0  0
  -25.4614  -28.5805   25.6192 C   0  0  0  0  0  0  0  0  0  0  0  0
  -28.7185  -28.5278   26.6368 C   0  0  0  0  0  0  0  0  0  0  0  0
  -32.5770  -19.7353   23.9576 C   0  0  0  0  0  0  0  0  0  0  0  0
  -18.1290  -27.3506   23.2616 C   0  0  0  0  0  0  0  0  0  0  0  0
  -24.2713  -25.3937   24.1906 C   0  0  0  0  0  0  0  0  0  0  0  0
  -26.3123  -27.4323   23.5401 C   0  0  0  0  0  0  0  0  0  0  0  0
  -19.1505  -28.2102   24.0019 C   0  0  0  0  0  0  0  0  0  0  0  0
  -32.0829  -16.5330   22.3624 C   0  0  0  0  0  0  0  0  0  0  0  0
  -20.2137  -28.7255   23.0372 C   0  0  0  0  0  0  0  0  0  0  0  0
  -33.6401  -26.9878   21.7314 C   0  0  0  0  0  0  0  0  0  0  0  0
  -33.9258  -26.9073   20.2644 C   0  0  0  0  0  0  0  0  0  0  0  0
  -30.6949  -16.6599   21.7321 C   0  0  0  0  0  0  0  0  0  0  0  0
  -32.1886  -17.3124   23.6723 C   0  0  0  0  0  0  0  0  0  0  0  0
  -31.3749  -21.7149   22.7338 C   0  0  0  0  0  0  0  0  0  0  0  0
  -32.7838  -22.2652   24.2298 C   0  0  0  0  0  0  0  0  0  0  0  0
  -30.4024  -18.8459   22.9564 C   0  0  0  0  0  0  0  0  0  0  0  0
  -20.9892  -27.5660   22.4002 C   0  0  1  0  0  0  0  0  0  0  0  0
  -33.3138  -25.7279   20.9735 C   0  0  0  0  0  0  0  0  0  0  0  0
  -24.0653  -26.8694   24.5181 C   0  0  1  0  0  0  0  0  0  0  0  0
  -32.3495  -22.8966   22.8961 C   0  0  0  0  0  0  0  0  0  0  0  0
  -30.2760  -18.1363   21.6002 C   0  0  2  0  0  0  0  0  0  0  0  0
  -30.2526  -29.4752   28.3821 C   0  0  0  0  0  0  0  0  0  0  0  0
  -25.4791  -31.2540   24.1488 C   0  0  0  0  0  0  0  0  0  0  0  0
  -27.6391  -31.7910   25.2954 C   0  0  0  0  0  0  0  0  0  0  0  0
  -25.5696  -31.4338   26.6416 C   0  0  0  0  0  0  0  0  0  0  0  0
  -29.3752  -25.8392   27.6853 C   0  0  0  0  0  0  0  0  0  0  0  0
  -31.7322  -24.2785   22.9723 C   0  0  0  0  0  0  0  0  0  0  0  0
  -26.6919  -29.4518   25.5443 C   0  0  1  0  0  0  0  0  0  0  0  0
  -29.3433  -28.3163   28.0040 C   0  0  2  0  0  0  0  0  0  0  0  0
  -26.3424  -30.9591   25.3917 C   0  0  0  0  0  0  0  0  0  0  0  0
  -31.3633  -25.7749   19.5339 N   0  0  0  0  0  0  0  0  0  0  0  0
  -27.9661  -17.3375   21.2741 N   0  0  0  0  0  0  0  0  0  0  0  0
  -29.8471  -24.3885   21.4433 N   0  0  0  0  0  0  0  0  0  0  0  0
  -28.8847  -18.2832   21.0137 N   0  0  0  0  0  0  0  0  0  0  0  0
  -25.3261  -27.6073   24.6191 N   0  0  0  0  0  0  0  0  0  0  0  0
  -31.7635  -18.7020   23.4857 N   0  0  0  0  0  0  0  0  0  0  0  0
  -32.1741  -21.0320   23.7401 N   0  0  0  0  0  0  0  0  0  0  0  0
  -29.2179  -20.3271   19.8638 N   0  0  0  0  0  0  0  0  0  0  0  0
  -24.9108  -19.3132   18.9599 N   0  0  0  0  0  0  0  0  0  0  0  0
  -21.9626  -27.0371   23.3315 N   0  0  0  0  0  0  0  0  0  0  0  0
  -27.4860  -29.1394   26.7276 N   0  0  0  0  0  0  0  0  0  0  0  0
  -30.1494  -27.0629   28.0169 N   0  3  0  0  0  0  0  0  0  0  0  0
  -26.5823  -20.8383   18.5875 O   0  0  0  0  0  0  0  0  0  0  0  0
  -23.6824  -28.5468   22.9011 O   0  0  0  0  0  0  0  0  0  0  0  0
  -24.6537  -28.7522   26.5356 O   0  0  0  0  0  0  0  0  0  0  0  0
  -29.2703  -28.1880   25.5925 O   0  0  0  0  0  0  0  0  0  0  0  0
  -33.6509  -19.5095   24.5311 O   0  0  0  0  0  0  0  0  0  0  0  0
  -22.1354  -14.8302   20.7586 O   0  0  0  0  0  0  0  0  0  0  0  0
  -28.0174  -24.4706   20.0131 O   0  0  0  0  0  0  0  0  0  1  0  0
  -22.4695   -9.3761   20.0204 F   0  0  0  0  0  0  0  0  0  0  0  0
  -23.6205  -13.2546   22.4776 F   0  0  0  0  0  0  0  0  0  0  0  0
  1  2  1  0  0  0  0
  1  5  2  0  0  0  0
  2  6  2  0  0  0  0
  3  8  2  0  0  0  0
  3 16  1  0  0  0  0
  4  9  1  0  0  0  0
  4 16  2  0  0  0  0
  5 18  1  0  0  0  0
  6 20  1  0  0  0  0
  7 10  2  0  0  0  0
  7 19  1  0  0  0  0
  8 22  1  0  0  0  0
  9 22  2  0  0  0  0
 10 23  1  0  0  0  0
 11 12  2  0  0  0  0
 11 24  1  0  0  0  0
 12 25  1  0  0  0  0
 13 21  1  0  0  0  0
 13 23  2  0  0  0  0
 14 25  2  0  0  0  0
 14 26  1  0  0  0  0
 15 30  1  0  0  0  0
 15 64  2  0  0  0  0
 16 27  1  0  0  0  0
 17 27  1  0  0  0  0
 17 31  2  0  0  0  0
 17 32  1  0  0  0  0
 18 20  2  0  0  0  0
 18 37  1  0  0  0  0
 19 21  2  0  0  0  0
 19 38  1  0  0  0  0
 20 50  1  0  0  0  0
 21 39  1  0  0  0  0
 22 81  1  0  0  0  0
 23 82  1  0  0  0  0
 24 26  2  0  0  0  0
 24 81  1  0  0  0  0
 25 83  1  0  0  0  0
 26 84  1  0  0  0  0
 27 65  2  0  0  0  0
 28 29  2  0  0  0  0
 28 51  1  0  0  0  0
 28 64  1  0  0  0  0
 29 60  1  0  0  0  0
 29 66  1  0  0  0  0
 30 66  2  0  0  0  0
 30 82  1  0  0  0  0
 31 67  1  0  0  0  0
 31 71  1  0  0  0  0
 32 72  1  0  0  0  0
 32 76  2  0  0  0  0
 33 52  1  0  0  0  0
 33 73  1  0  0  0  0
 33 77  2  0  0  0  0
 34 61  1  0  0  0  0
 34 68  1  0  0  0  0
 34 78  2  0  0  0  0
 35 62  1  0  0  0  0
 35 74  1  0  0  0  0
 35 79  2  0  0  0  0
 36 69  1  0  0  0  0
 36 70  1  0  0  0  0
 36 80  2  0  0  0  0
 37 40  1  0  0  0  0
 38 52  1  0  0  0  0
 39 68  1  0  0  0  0
 40 42  1  0  0  0  0
 41 45  1  0  0  0  0
 41 46  1  0  0  0  0
 42 50  1  0  0  0  0
 43 44  1  0  0  0  0
 43 51  1  0  0  0  0
 44 51  1  0  0  0  0
 45 54  1  0  0  0  0
 46 69  1  0  0  0  0
 47 53  1  0  0  0  0
 47 70  1  0  0  0  0
 48 53  1  0  0  0  0
 48 70  1  0  0  0  0
 49 54  1  0  0  0  0
 49 69  1  0  0  0  0
 50 73  1  0  0  0  0
 52 68  1  0  0  0  0
 53 60  1  0  0  0  0
 54 67  1  0  0  0  0
 55 62  1  0  0  0  0
 56 63  1  0  0  0  0
 57 63  1  0  0  0  0
 58 63  1  0  0  0  0
 59 75  1  0  0  0  0
 61 63  1  0  0  0  0
 61 74  1  0  0  0  0
 62 75  1  0  0  0  0
 65 67  1  0  0  0  0
M  CHG  1  75   1
M  ISO  4  30 101  36 100  70 100  82 101
M  END
> <Batch ID>
0182

> <Smiles>
CNC(C)C(=O)NC(C(=O)N1Cc2cc([101O:1][101c:1]3cnc(C4CC4)c(CC4C[100N:0]([100C:0](=O)N5CCCC(n6nc(-c7ccc(Oc8ccc(F)cc8F)cc7)c(C(N)=O)c6N)C5)C4)n3)ccc2CC1C(=O)NC1CCCc2ccccc21)C(C)(C)C

> <Shape>
0.206

> <Color>
0.096

> <Negative vol penalty>
0.000

$$$$

  -OEChem-04052323053D

 83 92  0     1  0  0  0  0  0999 V2000
  -27.8424  -29.9340   28.7136 C   0  0  0  0  0  0  0  0  0  0  0  0
  -28.1680  -28.8141   27.9551 C   0  0  0  0  0  0  0  0  0  0  0  0
  -23.0051   -9.8832   19.9831 C   0  0  0  0  0  0  0  0  0  0  0  0
  -23.7244   -9.9472   22.2886 C   0  0  0  0  0  0  0  0  0  0  0  0
  -27.4871  -31.1242   28.0804 C   0  0  0  0  0  0  0  0  0  0  0  0
  -28.1374  -28.8836   26.5627 C   0  0  0  0  0  0  0  0  0  0  0  0
  -32.1894  -26.7303   24.4205 C   0  0  0  0  0  0  0  0  0  0  0  0
  -22.2409   -8.7481   20.2530 C   0  0  0  0  0  0  0  0  0  0  0  0
  -22.9601   -8.8120   22.5586 C   0  0  0  0  0  0  0  0  0  0  0  0
  -32.2047  -25.3383   24.3434 C   0  0  0  0  0  0  0  0  0  0  0  0
  -23.2142   -5.4715   22.1033 C   0  0  0  0  0  0  0  0  0  0  0  0
  -23.8025   -4.4594   22.8618 C   0  0  0  0  0  0  0  0  0  0  0  0
  -31.5123  -25.4644   22.0361 C   0  0  0  0  0  0  0  0  0  0  0  0
  -22.0738   -4.7059   24.5315 C   0  0  0  0  0  0  0  0  0  0  0  0
  -29.7640  -17.7266   22.6506 C   0  0  0  0  0  0  0  0  0  0  0  0
  -23.7469  -10.4828   21.0009 C   0  0  0  0  0  0  0  0  0  0  0  0
  -24.1262  -12.9985   20.8137 C   0  0  0  0  0  0  0  0  0  0  0  0
  -27.4615  -31.2111   26.6795 C   0  0  0  0  0  0  0  0  0  0  0  0
  -31.8242  -27.5008   23.3071 C   0  0  0  0  0  0  0  0  0  0  0  0
  -27.7801  -30.0758   25.9102 C   0  0  0  0  0  0  0  0  0  0  0  0
  -31.4956  -26.8660   22.1008 C   0  0  0  0  0  0  0  0  0  0  0  0
  -22.2183   -8.2124   21.5407 C   0  0  0  0  0  0  0  0  0  0  0  0
  -31.8633  -24.7050   23.1520 C   0  0  0  0  0  0  0  0  0  0  0  0
  -22.0557   -6.1008   22.5590 C   0  0  0  0  0  0  0  0  0  0  0  0
  -23.2323   -4.0766   24.0758 C   0  0  0  0  0  0  0  0  0  0  0  0
  -21.4855   -5.7180   23.7730 C   0  0  0  0  0  0  0  0  0  0  0  0
  -24.5371  -11.6551   20.7226 C   0  0  0  0  0  0  0  0  0  0  0  0
  -32.2118  -18.5038   21.9217 C   0  0  0  0  0  0  0  0  0  0  0  0
  -30.5653  -16.9173   21.8758 C   0  0  0  0  0  0  0  0  0  0  0  0
  -31.4100  -19.3134   22.6958 C   0  0  0  0  0  0  0  0  0  0  0  0
  -25.2350  -13.7222   20.4486 C   0  0  0  0  0  0  0  0  0  0  0  0
  -22.8559  -13.5435   21.1945 C   0  0  0  0  0  0  0  0  0  0  0  0
  -29.4898  -29.5633   22.6748 C   0  0  0  0  0  0  0  0  0  0  0  0
  -31.1364  -29.9815   19.9115 C   0  0  0  0  0  0  0  0  0  0  0  0
  -33.3404  -28.7181   17.6327 C   0  0  0  0  0  0  0  0  0  0  0  0
  -30.7114  -14.6986   20.6916 C   0  0  0  0  0  0  0  0  0  0  0  0
  -27.0253  -32.5056   26.0404 C   0  0  0  0  0  0  0  0  0  0  0  0
  -31.8386  -29.0020   23.3987 C   0  0  0  0  0  0  0  0  0  0  0  0
  -31.1160  -27.6482   20.8709 C   0  0  0  0  0  0  0  0  0  0  0  0
  -27.3804  -32.6035   24.5590 C   0  0  0  0  0  0  0  0  0  0  0  0
  -29.6053  -12.2317   18.3747 C   0  0  0  0  0  0  0  0  0  0  0  0
  -27.0056  -31.3148   23.8339 C   0  0  0  0  0  0  0  0  0  0  0  0
  -33.7379  -20.2588   20.7969 C   0  0  0  0  0  0  0  0  0  0  0  0
  -33.9395  -18.9729   20.0580 C   0  0  0  0  0  0  0  0  0  0  0  0
  -28.1543  -11.9722   18.7865 C   0  0  0  0  0  0  0  0  0  0  0  0
  -30.5021  -12.4832   19.5856 C   0  0  0  0  0  0  0  0  0  0  0  0
  -28.5814  -13.2735   20.9105 C   0  0  0  0  0  0  0  0  0  0  0  0
  -27.7825  -30.1188   24.3974 C   0  0  1  0  0  0  0  0  0  0  0  0
  -33.5778  -18.9472   21.5200 C   0  0  0  0  0  0  0  0  0  0  0  0
  -30.9533  -29.6729   22.3530 C   0  0  1  0  0  0  0  0  0  0  0  0
  -27.6272  -13.0790   19.7208 C   0  0  2  0  0  0  0  0  0  0  0  0
  -34.4632  -29.2765   15.4590 C   0  0  0  0  0  0  0  0  0  0  0  0
  -28.5402  -29.3904   18.4214 C   0  0  0  0  0  0  0  0  0  0  0  0
  -29.8951  -29.0243   16.3481 C   0  0  0  0  0  0  0  0  0  0  0  0
  -29.8944  -31.2588   17.4570 C   0  0  0  0  0  0  0  0  0  0  0  0
  -36.0331  -28.5675   18.8514 C   0  0  0  0  0  0  0  0  0  0  0  0
  -31.5931  -22.6246   24.2721 C   0  0  0  0  0  0  0  0  0  1  0  0
  -30.9424  -21.3031   23.9116 C   0  0  0  0  0  0  0  0  0  0  0  0
  -31.1183  -29.3342   18.5478 C   0  0  1  0  0  0  0  0  0  0  0  0
  -34.5676  -29.3235   16.9754 C   0  0  2  0  0  0  0  0  0  0  0  0
  -29.8672  -29.7368   17.7171 C   0  0  0  0  0  0  0  0  0  0  0  0
  -30.1719  -18.9392   23.0745 N   0  0  0  0  0  0  0  0  0  0  0  0
  -25.8077  -11.5300   20.3302 N   0  0  0  0  0  0  0  0  0  0  0  0
  -31.8037  -17.2914   21.4975 N   0  0  0  0  0  0  0  0  0  0  0  0
  -26.2047  -12.8040   20.1715 N   0  0  0  0  0  0  0  0  0  0  0  0
  -31.1388  -29.1134   21.0125 N   0  0  0  0  0  0  0  0  0  0  0  0
  -29.9422  -13.5468   20.4224 N   0  0  0  0  0  0  0  0  0  0  0  0
  -25.4653  -15.0480   20.3408 N   0  0  0  0  0  0  0  0  0  0  0  0
  -21.8255  -12.6583   21.5397 N   0  0  0  0  0  0  0  0  0  0  0  0
  -30.0627  -15.6559   21.4710 N   0  0  0  0  0  0  0  0  0  0  0  0
  -29.1388  -30.1139   23.8927 N   0  0  0  0  0  0  0  0  0  0  0  0
  -32.3891  -29.6748   17.9174 N   0  0  0  0  0  0  0  0  0  0  0  0
  -35.7936  -28.5820   17.3854 N   0  3  0  0  0  0  0  0  0  0  0  0
  -22.6359  -14.7783   21.2117 O   0  0  0  0  0  0  0  0  0  0  0  0
  -28.7346  -29.0208   21.8767 O   0  0  0  0  0  0  0  0  0  0  0  0
  -31.1551  -31.2120   19.9966 O   0  0  0  0  0  0  0  0  0  0  0  0
  -33.2345  -27.5162   17.8664 O   0  0  0  0  0  0  0  0  0  0  0  0
  -31.8508  -14.8383   20.2398 O   0  0  0  0  0  0  0  0  0  0  0  0
  -21.4725   -7.1049   21.8045 O   0  0  0  0  0  0  0  0  0  0  0  0
  -31.8768  -23.3465   23.0743 O   0  0  0  0  0  0  0  0  0  1  0  0
  -31.8442  -20.5429   23.1165 O   0  0  0  0  0  0  0  0  0  0  0  0
  -23.7965   -3.1037   24.8033 F   0  0  0  0  0  0  0  0  0  0  0  0
  -20.3720   -6.3181   24.2154 F   0  0  0  0  0  0  0  0  0  0  0  0
  1  2  1  0  0  0  0
  1  5  2  0  0  0  0
  2  6  2  0  0  0  0
  3  8  2  0  0  0  0
  3 16  1  0  0  0  0
  4  9  1  0  0  0  0
  4 16  2  0  0  0  0
  5 18  1  0  0  0  0
  6 20  1  0  0  0  0
  7 10  2  0  0  0  0
  7 19  1  0  0  0  0
  8 22  1  0  0  0  0
  9 22  2  0  0  0  0
 10 23  1  0  0  0  0
 11 12  2  0  0  0  0
 11 24  1  0  0  0  0
 12 25  1  0  0  0  0
 13 21  1  0  0  0  0
 13 23  2  0  0  0  0
 14 25  2  0  0  0  0
 14 26  1  0  0  0  0
 15 29  1  0  0  0  0
 15 62  2  0  0  0  0
 16 27  1  0  0  0  0
 17 27  1  0  0  0  0
 17 31  2  0  0  0  0
 17 32  1  0  0  0  0
 18 20  2  0  0  0  0
 18 37  1  0  0  0  0
 19 21  2  0  0  0  0
 19 38  1  0  0  0  0
 20 48  1  0  0  0  0
 21 39  1  0  0  0  0
 22 79  1  0  0  0  0
 23 80  1  0  0  0  0
 24 26  2  0  0  0  0
 24 79  1  0  0  0  0
 25 82  1  0  0  0  0
 26 83  1  0  0  0  0
 27 63  2  0  0  0  0
 28 30  2  0  0  0  0
 28 49  1  0  0  0  0
 28 64  1  0  0  0  0
 29 64  2  0  0  0  0
 29 70  1  0  0  0  0
 30 62  1  0  0  0  0
 30 81  1  0  0  0  0
 31 65  1  0  0  0  0
 31 68  1  0  0  0  0
 32 69  1  0  0  0  0
 32 74  2  0  0  0  0
 33 50  1  0  0  0  0
 33 71  1  0  0  0  0
 33 75  2  0  0  0  0
 34 59  1  0  0  0  0
 34 66  1  0  0  0  0
 34 76  2  0  0  0  0
 35 60  1  0  0  0  0
 35 72  1  0  0  0  0
 35 77  2  0  0  0  0
 36 67  1  0  0  0  0
 36 70  1  0  0  0  0
 36 78  2  0  0  0  0
 37 40  1  0  0  0  0
 38 50  1  0  0  0  0
 39 66  1  0  0  0  0
 40 42  1  0  0  0  0
 41 45  1  0  0  0  0
 41 46  1  0  0  0  0
 42 48  1  0  0  0  0
 43 44  1  0  0  0  0
 43 49  1  0  0  0  0
 44 49  1  0  0  0  0
 45 51  1  0  0  0  0
 46 67  1  0  0  0  0
 47 51  1  0  0  0  0
 47 67  1  0  0  0  0
 48 71  1  0  0  0  0
 50 66  1  0  0  0  0
 51 65  1  0  0  0  0
 52 60  1  0  0  0  0
 53 61  1  0  0  0  0
 54 61  1  0  0  0  0
 55 61  1  0  0  0  0
 56 73  1  0  0  0  0
 57 58  1  0  0  0  0
 57 80  1  0  0  0  0
 58 81  1  0  0  0  0
 59 61  1  0  0  0  0
 59 72  1  0  0  0  0
 60 73  1  0  0  0  0
 63 65  1  0  0  0  0
M  CHG  1  73   1
M  ISO  4  36 100  57 101  70 100  80 101
M  END
> <Batch ID>
0182

> <Smiles>
CNC(C)C(=O)NC(C(=O)N1Cc2cc([101O:1][101CH2:1]COc3ncc([100NH:0][100C:0](=O)N4CCCC(n5nc(-c6ccc(Oc7ccc(F)cc7F)cc6)c(C(N)=O)c5N)C4)nc3C3CC3)ccc2CC1C(=O)NC1CCCc2ccccc21)C(C)(C)C

> <Shape>
0.236

> <Color>
0.194

> <Negative vol penalty>
0.000

$$$$

  -OEChem-04052323053D

 80 89  0     1  0  0  0  0  0999 V2000
  -29.7541  -31.4904   30.0244 C   0  0  0  0  0  0  0  0  0  0  0  0
  -29.5676  -30.1131   29.9624 C   0  0  0  0  0  0  0  0  0  0  0  0
  -23.0315   -9.8480   20.3660 C   0  0  0  0  0  0  0  0  0  0  0  0
  -23.7902  -10.1750   22.6364 C   0  0  0  0  0  0  0  0  0  0  0  0
  -29.3064  -32.3008   28.9819 C   0  0  0  0  0  0  0  0  0  0  0  0
  -28.9323  -29.5456   28.8584 C   0  0  0  0  0  0  0  0  0  0  0  0
  -30.1396  -24.1103   26.3078 C   0  0  0  0  0  0  0  0  0  0  0  0
  -22.2785   -8.7478   20.7761 C   0  0  0  0  0  0  0  0  0  0  0  0
  -23.0371   -9.0748   23.0465 C   0  0  0  0  0  0  0  0  0  0  0  0
  -29.5334  -22.8609   26.4311 C   0  0  0  0  0  0  0  0  0  0  0  0
  -19.3234   -8.1881   22.3210 C   0  0  0  0  0  0  0  0  0  0  0  0
  -18.0164   -8.0833   21.8450 C   0  0  0  0  0  0  0  0  0  0  0  0
  -28.2366  -23.3008   24.4452 C   0  0  0  0  0  0  0  0  0  0  0  0
  -18.5617   -5.9678   20.8133 C   0  0  0  0  0  0  0  0  0  0  0  0
  -30.2777  -19.3287   23.6914 C   0  0  0  0  0  0  0  0  0  0  0  0
  -28.0314  -18.9071   25.0711 C   0  0  0  0  0  0  0  0  0  0  0  0
  -23.7874  -10.5616   21.2962 C   0  0  0  0  0  0  0  0  0  0  0  0
  -24.1489  -13.0414   20.8191 C   0  0  0  0  0  0  0  0  0  0  0  0
  -28.6740  -31.7420   27.8601 C   0  0  0  0  0  0  0  0  0  0  0  0
  -29.7903  -24.9702   25.2566 C   0  0  0  0  0  0  0  0  0  0  0  0
  -28.4746  -30.3495   27.8006 C   0  0  0  0  0  0  0  0  0  0  0  0
  -28.8417  -24.5595   24.3092 C   0  0  0  0  0  0  0  0  0  0  0  0
  -22.2813   -8.3612   22.1163 C   0  0  0  0  0  0  0  0  0  0  0  0
  -28.5796  -22.4571   25.5014 C   0  0  0  0  0  0  0  0  0  0  0  0
  -20.2495   -7.1827   22.0430 C   0  0  0  0  0  0  0  0  0  0  0  0
  -17.6356   -6.9732   21.0912 C   0  0  0  0  0  0  0  0  0  0  0  0
  -19.8687   -6.0726   21.2892 C   0  0  0  0  0  0  0  0  0  0  0  0
  -24.5658  -11.6978   20.8731 C   0  0  0  0  0  0  0  0  0  0  0  0
  -29.7213  -18.0714   23.7767 C   0  0  0  0  0  0  0  0  0  0  0  0
  -28.5880  -20.1644   24.9859 C   0  0  0  0  0  0  0  0  0  1  0  0
  -25.2471  -13.7233   20.3548 C   0  0  0  0  0  0  0  0  0  0  0  0
  -22.8823  -13.6212   21.1583 C   0  0  0  0  0  0  0  0  0  0  0  0
  -28.4958  -27.8669   25.0640 C   0  0  0  0  0  0  0  0  0  0  0  0
  -29.1390  -27.5182   21.9038 C   0  0  0  0  0  0  0  0  0  0  0  0
  -29.6954  -25.4137   19.2754 C   0  0  0  0  0  0  0  0  0  0  0  0
  -30.8173  -14.6028   20.5941 C   0  0  0  0  0  0  0  0  0  0  0  0
  -28.1650  -32.6632   26.7798 C   0  0  0  0  0  0  0  0  0  0  0  0
  -30.4730  -26.3038   25.1223 C   0  0  0  0  0  0  0  0  0  0  0  0
  -28.4465  -25.4371   23.1508 C   0  0  0  0  0  0  0  0  0  0  0  0
  -27.8363  -31.9461   25.4729 C   0  0  0  0  0  0  0  0  0  0  0  0
  -29.5687  -12.0751   18.3616 C   0  0  0  0  0  0  0  0  0  0  0  0
  -27.0218  -30.6855   25.7458 C   0  0  0  0  0  0  0  0  0  0  0  0
  -28.1438  -11.8188   18.8410 C   0  0  0  0  0  0  0  0  0  0  0  0
  -30.4864  -12.4002   19.5325 C   0  0  0  0  0  0  0  0  0  0  0  0
  -29.3722  -15.7390   22.4598 C   0  0  0  0  0  0  0  0  0  0  0  0
  -30.9579  -16.9093   21.6792 C   0  0  0  0  0  0  0  0  0  0  0  0
  -28.5933  -13.3660   20.8121 C   0  0  0  0  0  0  0  0  0  0  0  0
  -27.8121  -29.6941   26.6083 C   0  0  1  0  0  0  0  0  0  0  0  0
  -30.3304  -16.7809   23.0863 C   0  0  0  0  0  0  0  0  0  0  0  0
  -29.6663  -27.3084   24.3053 C   0  0  1  0  0  0  0  0  0  0  0  0
  -27.6308  -13.0109   19.6616 C   0  0  2  0  0  0  0  0  0  0  0  0
  -30.1542  -25.4218   16.8083 C   0  0  0  0  0  0  0  0  0  0  0  0
  -26.2073  -28.1687   21.3632 C   0  0  0  0  0  0  0  0  0  0  0  0
  -26.5006  -27.2461   19.0543 C   0  0  0  0  0  0  0  0  0  0  0  0
  -27.8218  -29.2343   19.7782 C   0  0  0  0  0  0  0  0  0  0  0  0
  -32.3017  -24.0592   19.6380 C   0  0  0  0  0  0  0  0  0  0  0  0
  -28.3939  -26.9575   20.7166 C   0  0  1  0  0  0  0  0  0  0  0  0
  -30.7669  -25.4065   18.2001 C   0  0  2  0  0  0  0  0  0  0  0  0
  -27.2367  -27.8857   20.2509 C   0  0  0  0  0  0  0  0  0  0  0  0
  -28.5880  -17.8380   24.4679 N   0  0  0  0  0  0  0  0  0  0  0  0
  -29.7211  -20.3978   24.2945 N   0  0  0  0  0  0  0  0  0  0  0  0
  -25.8302  -11.5339   20.4748 N   0  0  0  0  0  0  0  0  0  0  0  0
  -26.2171  -12.7833   20.1659 N   0  0  0  0  0  0  0  0  0  0  0  0
  -29.1375  -26.7344   23.0663 N   0  0  0  0  0  0  0  0  0  0  0  0
  -29.9773  -13.5127   20.3404 N   0  0  0  0  0  0  0  0  0  0  0  0
  -30.3387  -15.6238   21.3809 N   0  0  0  0  0  0  0  0  0  0  0  0
  -25.4679  -15.0292   20.0937 N   0  0  0  0  0  0  0  0  0  0  0  0
  -21.8631  -12.7769   21.6197 N   0  0  0  0  0  0  0  0  0  0  0  0
  -28.7922  -28.9949   25.8052 N   0  0  0  0  0  0  0  0  0  0  0  0
  -29.3981  -26.6941   19.6916 N   0  0  0  0  0  0  0  0  0  0  0  0
  -31.6184  -24.1899   18.3254 N   0  3  0  0  0  0  0  0  0  0  0  0
  -22.6556  -14.8492   21.0398 O   0  0  0  0  0  0  0  0  0  0  0  0
  -27.4041  -27.3162   24.9818 O   0  0  0  0  0  0  0  0  0  0  0  0
  -29.7077  -28.6080   21.8011 O   0  0  0  0  0  0  0  0  0  0  0  0
  -29.1717  -24.3864   19.7008 O   0  0  0  0  0  0  0  0  0  0  0  0
  -31.9743  -14.6518   20.1558 O   0  0  0  0  0  0  0  0  0  0  0  0
  -21.5465   -7.2878   22.5168 O   0  0  0  0  0  0  0  0  0  0  0  0
  -27.9858  -21.2384   25.6199 O   0  0  0  0  0  0  0  0  0  1  0  0
  -16.3801   -6.8720   20.6356 F   0  0  0  0  0  0  0  0  0  0  0  0
  -20.7537   -5.1031   21.0199 F   0  0  0  0  0  0  0  0  0  0  0  0
  1  2  1  0  0  0  0
  1  5  2  0  0  0  0
  2  6  2  0  0  0  0
  3  8  2  0  0  0  0
  3 17  1  0  0  0  0
  4  9  1  0  0  0  0
  4 17  2  0  0  0  0
  5 19  1  0  0  0  0
  6 21  1  0  0  0  0
  7 10  2  0  0  0  0
  7 20  1  0  0  0  0
  8 23  1  0  0  0  0
  9 23  2  0  0  0  0
 10 24  1  0  0  0  0
 11 12  2  0  0  0  0
 11 25  1  0  0  0  0
 12 26  1  0  0  0  0
 13 22  1  0  0  0  0
 13 24  2  0  0  0  0
 14 26  2  0  0  0  0
 14 27  1  0  0  0  0
 15 29  2  0  0  0  0
 15 61  1  0  0  0  0
 16 30  1  0  0  0  0
 16 60  2  0  0  0  0
 17 28  1  0  0  0  0
 18 28  1  0  0  0  0
 18 31  2  0  0  0  0
 18 32  1  0  0  0  0
 19 21  2  0  0  0  0
 19 37  1  0  0  0  0
 20 22  2  0  0  0  0
 20 38  1  0  0  0  0
 21 48  1  0  0  0  0
 22 39  1  0  0  0  0
 23 77  1  0  0  0  0
 24 78  1  0  0  0  0
 25 27  2  0  0  0  0
 25 77  1  0  0  0  0
 26 79  1  0  0  0  0
 27 80  1  0  0  0  0
 28 62  2  0  0  0  0
 29 49  1  0  0  0  0
 29 60  1  0  0  0  0
 30 61  2  0  0  0  0
 30 78  1  0  0  0  0
 31 63  1  0  0  0  0
 31 67  1  0  0  0  0
 32 68  1  0  0  0  0
 32 72  2  0  0  0  0
 33 50  1  0  0  0  0
 33 69  1  0  0  0  0
 33 73  2  0  0  0  0
 34 57  1  0  0  0  0
 34 64  1  0  0  0  0
 34 74  2  0  0  0  0
 35 58  1  0  0  0  0
 35 70  1  0  0  0  0
 35 75  2  0  0  0  0
 36 65  1  0  0  0  0
 36 66  1  0  0  0  0
 36 76  2  0  0  0  0
 37 40  1  0  0  0  0
 38 50  1  0  0  0  0
 39 64  1  0  0  0  0
 40 42  1  0  0  0  0
 41 43  1  0  0  0  0
 41 44  1  0  0  0  0
 42 48  1  0  0  0  0
 43 51  1  0  0  0  0
 44 65  1  0  0  0  0
 45 49  1  0  0  0  0
 45 66  1  0  0  0  0
 46 49  1  0  0  0  0
 46 66  1  0  0  0  0
 47 51  1  0  0  0  0
 47 65  1  0  0  0  0
 48 69  1  0  0  0  0
 50 64  1  0  0  0  0
 51 63  1  0  0  0  0
 52 58  1  0  0  0  0
 53 59  1  0  0  0  0
 54 59  1  0  0  0  0
 55 59  1  0  0  0  0
 56 71  1  0  0  0  0
 57 59  1  0  0  0  0
 57 70  1  0  0  0  0
 58 71  1  0  0  0  0
 62 63  1  0  0  0  0
M  CHG  1  71   1
M  ISO  4  30 101  36 100  66 100  78 101
M  END
> <Batch ID>
0182

> <Smiles>
CNC(C)C(=O)NC(C(=O)N1Cc2cc([101O:1][101c:1]3cnc(C4C[100N:0]([100C:0](=O)N5CCCC(n6nc(-c7ccc(Oc8ccc(F)cc8F)cc7)c(C(N)=O)c6N)C5)C4)cn3)ccc2CC1C(=O)NC1CCCc2ccccc21)C(C)(C)C

> <Shape>
0.246

> <Color>
0.174

> <Negative vol penalty>
0.000

$$$$

  -OEChem-04052323053D

 83 92  0     1  0  0  0  0  0999 V2000
  -23.4343  -18.5027   19.2752 C   0  0  0  0  0  0  0  0  0  0  0  0
  -24.3096  -19.3372   19.9611 C   0  0  0  0  0  0  0  0  0  0  0  0
  -23.0733   -9.8777   19.9415 C   0  0  0  0  0  0  0  0  0  0  0  0
  -23.8718   -9.8694   22.2217 C   0  0  0  0  0  0  0  0  0  0  0  0
  -23.9158  -17.6740   18.2639 C   0  0  0  0  0  0  0  0  0  0  0  0
  -25.6645  -19.3520   19.6279 C   0  0  0  0  0  0  0  0  0  0  0  0
  -28.4679  -22.7494   21.8193 C   0  0  0  0  0  0  0  0  0  0  0  0
  -22.3451   -8.7148   20.1922 C   0  0  0  0  0  0  0  0  0  0  0  0
  -23.1436   -8.7064   22.4725 C   0  0  0  0  0  0  0  0  0  0  0  0
  -28.8208  -22.6807   23.1663 C   0  0  0  0  0  0  0  0  0  0  0  0
  -19.4299   -7.8742   21.6848 C   0  0  0  0  0  0  0  0  0  0  0  0
  -18.1155   -7.8198   21.2212 C   0  0  0  0  0  0  0  0  0  0  0  0
  -31.0288  -21.9351   22.5435 C   0  0  0  0  0  0  0  0  0  0  0  0
  -18.6718   -5.8957   19.8700 C   0  0  0  0  0  0  0  0  0  0  0  0
  -30.3881  -18.6221   25.0533 C   0  0  0  0  0  0  0  0  0  0  0  0
  -23.8367  -10.4550   20.9562 C   0  0  0  0  0  0  0  0  0  0  0  0
  -24.1516  -12.9845   20.8562 C   0  0  0  0  0  0  0  0  0  0  0  0
  -25.2794  -17.6702   17.9273 C   0  0  0  0  0  0  0  0  0  0  0  0
  -29.3909  -22.4004   20.8229 C   0  0  0  0  0  0  0  0  0  0  0  0
  -26.1657  -18.5404   18.5941 C   0  0  0  0  0  0  0  0  0  0  0  0
  -30.6860  -22.0027   21.1845 C   0  0  0  0  0  0  0  0  0  0  0  0
  -22.3803   -8.1291   21.4577 C   0  0  0  0  0  0  0  0  0  0  0  0
  -30.1005  -22.2708   23.5287 C   0  0  0  0  0  0  0  0  0  0  0  0
  -20.3653   -6.9395   21.2410 C   0  0  0  0  0  0  0  0  0  0  0  0
  -17.7364   -6.8305   20.3138 C   0  0  0  0  0  0  0  0  0  0  0  0
  -19.9862   -5.9502   20.3336 C   0  0  0  0  0  0  0  0  0  0  0  0
  -24.5895  -11.6560   20.6977 C   0  0  0  0  0  0  0  0  0  0  0  0
  -29.7064  -17.6035   24.4495 C   0  0  0  0  0  0  0  0  0  0  0  0
  -25.2300  -13.7485   20.4822 C   0  0  0  0  0  0  0  0  0  0  0  0
  -28.2399  -18.8594   25.5324 C   0  0  0  0  0  0  0  0  0  0  0  0
  -22.8834  -13.4834   21.3017 C   0  0  0  0  0  0  0  0  0  0  0  0
  -29.5107  -20.1751   18.5564 C   0  0  0  0  0  0  0  0  0  0  0  0
  -32.1964  -21.7685   17.6785 C   0  0  0  0  0  0  0  0  0  0  0  0
  -34.7633  -23.8323   18.5719 C   0  0  0  0  0  0  0  0  0  0  0  0
  -30.7903  -14.6799   20.7563 C   0  0  0  0  0  0  0  0  0  0  0  0
  -25.7453  -16.7590   16.8192 C   0  0  0  0  0  0  0  0  0  0  0  0
  -29.0031  -22.5054   19.3735 C   0  0  0  0  0  0  0  0  0  0  0  0
  -31.7202  -21.6367   20.1526 C   0  0  0  0  0  0  0  0  0  0  0  0
  -27.2514  -16.5196   16.8399 C   0  0  0  0  0  0  0  0  0  0  0  0
  -29.5352  -12.4998   18.1864 C   0  0  0  0  0  0  0  0  0  0  0  0
  -27.9871  -17.8467   16.9498 C   0  0  0  0  0  0  0  0  0  0  0  0
  -28.1241  -12.1484   18.6457 C   0  0  0  0  0  0  0  0  0  0  0  0
  -30.4711  -12.6591   19.3771 C   0  0  0  0  0  0  0  0  0  0  0  0
  -29.3659  -15.4929   22.7984 C   0  0  0  0  0  0  0  0  0  0  0  0
  -30.9181  -16.7964   22.1780 C   0  0  0  0  0  0  0  0  0  0  0  0
  -28.5897  -13.3851   20.8218 C   0  0  0  0  0  0  0  0  0  0  0  0
  -27.6486  -18.5512   18.2697 C   0  0  1  0  0  0  0  0  0  0  0  0
  -30.3207  -16.4441   23.5598 C   0  0  0  0  0  0  0  0  0  0  0  0
  -29.8599  -21.6334   18.4610 C   0  0  1  0  0  0  0  0  0  0  0  0
  -27.6098  -13.1923   19.6474 C   0  0  2  0  0  0  0  0  0  0  0  0
  -26.9573  -19.3733   26.0734 C   0  0  0  0  0  0  0  0  0  0  0  0
  -36.8237  -24.9271   17.6480 C   0  0  0  0  0  0  0  0  0  0  0  0
  -29.2750  -23.0835   26.7363 C   0  0  0  0  0  0  0  0  0  0  0  0
  -33.6742  -19.1029   17.8219 C   0  0  0  0  0  0  0  0  0  0  0  0
  -35.8290  -20.3777   17.8346 C   0  0  0  0  0  0  0  0  0  0  0  0
  -34.2985  -20.5382   15.8713 C   0  0  0  0  0  0  0  0  0  0  0  0
  -33.7024  -26.5433   19.1047 C   0  0  0  0  0  0  0  0  0  0  0  0
  -29.7624  -20.6214   26.5260 C   0  0  0  0  0  0  0  0  0  0  0  0
  -33.6599  -21.6757   18.0370 C   0  0  1  0  0  0  0  0  0  0  0  0
  -35.3333  -25.0748   17.9119 C   0  0  2  0  0  0  0  0  0  0  0  0
  -29.4073  -21.9090   25.7747 C   0  0  2  0  0  0  0  0  0  1  0  0
  -34.3455  -20.4286   17.4110 C   0  0  0  0  0  0  0  0  0  0  0  0
  -25.8480  -11.5771   20.2572 N   0  0  0  0  0  0  0  0  0  0  0  0
  -29.4560  -19.3839   25.7158 N   0  0  0  0  0  0  0  0  0  0  0  0
  -26.2101  -12.8656   20.1356 N   0  0  0  0  0  0  0  0  0  0  0  0
  -28.3796  -17.7750   24.7630 N   0  3  0  0  0  0  0  0  0  0  0  0
  -31.2910  -21.7495   18.7488 N   0  0  0  0  0  0  0  0  0  0  0  0
  -29.9617  -13.6264   20.3539 N   0  0  0  0  0  0  0  0  0  0  0  0
  -30.3123  -15.5605   21.6979 N   0  0  0  0  0  0  0  0  0  0  0  0
  -25.4260  -15.0827   20.4192 N   0  0  0  0  0  0  0  0  0  0  0  0
  -21.8863  -12.5608   21.6467 N   0  0  0  0  0  0  0  0  0  0  0  0
  -28.1952  -19.8900   18.2440 N   0  0  0  0  0  0  0  0  0  0  0  0
  -34.2579  -22.9469   17.6435 N   0  0  0  0  0  0  0  0  0  0  0  0
  -35.1261  -26.2657   18.7835 N   0  3  0  0  0  0  0  0  0  0  0  0
  -22.6360  -14.7110   21.3755 O   0  0  0  0  0  0  0  0  0  0  0  0
  -30.3715  -19.3681   18.8874 O   0  0  0  0  0  0  0  0  0  0  0  0
  -31.8689  -21.8618   16.4928 O   0  0  0  0  0  0  0  0  0  0  0  0
  -34.7695  -23.6622   19.7891 O   0  0  0  0  0  0  0  0  0  0  0  0
  -31.9375  -14.8155   20.3106 O   0  0  0  0  0  0  0  0  0  0  0  0
  -21.6697   -6.9944   21.7028 O   0  0  0  0  0  0  0  0  0  0  0  0
  -30.4474  -22.2023   24.8428 O   0  0  0  0  0  0  0  0  0  1  0  0
  -16.4738   -6.7774   19.8699 F   0  0  0  0  0  0  0  0  0  0  0  0
  -20.8801   -5.0487   19.9045 F   0  0  0  0  0  0  0  0  0  0  0  0
  1  2  1  0  0  0  0
  1  5  2  0  0  0  0
  2  6  2  0  0  0  0
  3  8  2  0  0  0  0
  3 16  1  0  0  0  0
  4  9  1  0  0  0  0
  4 16  2  0  0  0  0
  5 18  1  0  0  0  0
  6 20  1  0  0  0  0
  7 10  2  0  0  0  0
  7 19  1  0  0  0  0
  8 22  1  0  0  0  0
  9 22  2  0  0  0  0
 10 23  1  0  0  0  0
 11 12  2  0  0  0  0
 11 24  1  0  0  0  0
 12 25  1  0  0  0  0
 13 21  1  0  0  0  0
 13 23  2  0  0  0  0
 14 25  2  0  0  0  0
 14 26  1  0  0  0  0
 15 28  2  0  0  0  0
 15 64  1  0  0  0  0
 16 27  1  0  0  0  0
 17 27  1  0  0  0  0
 17 29  2  0  0  0  0
 17 31  1  0  0  0  0
 18 20  2  0  0  0  0
 18 36  1  0  0  0  0
 19 21  2  0  0  0  0
 19 37  1  0  0  0  0
 20 47  1  0  0  0  0
 21 38  1  0  0  0  0
 22 80  1  0  0  0  0
 23 81  1  0  0  0  0
 24 26  2  0  0  0  0
 24 80  1  0  0  0  0
 25 82  1  0  0  0  0
 26 83  1  0  0  0  0
 27 63  2  0  0  0  0
 28 48  1  0  0  0  0
 28 66  1  0  0  0  0
 29 65  1  0  0  0  0
 29 70  1  0  0  0  0
 30 51  1  0  0  0  0
 30 64  1  0  0  0  0
 30 66  2  0  0  0  0
 31 71  1  0  0  0  0
 31 75  2  0  0  0  0
 32 49  1  0  0  0  0
 32 72  1  0  0  0  0
 32 76  2  0  0  0  0
 33 59  1  0  0  0  0
 33 67  1  0  0  0  0
 33 77  2  0  0  0  0
 34 60  1  0  0  0  0
 34 73  1  0  0  0  0
 34 78  2  0  0  0  0
 35 68  1  0  0  0  0
 35 69  1  0  0  0  0
 35 79  2  0  0  0  0
 36 39  1  0  0  0  0
 37 49  1  0  0  0  0
 38 67  1  0  0  0  0
 39 41  1  0  0  0  0
 40 42  1  0  0  0  0
 40 43  1  0  0  0  0
 41 47  1  0  0  0  0
 42 50  1  0  0  0  0
 43 68  1  0  0  0  0
 44 48  1  0  0  0  0
 44 69  1  0  0  0  0
 45 48  1  0  0  0  0
 45 69  1  0  0  0  0
 46 50  1  0  0  0  0
 46 68  1  0  0  0  0
 47 72  1  0  0  0  0
 49 67  1  0  0  0  0
 50 65  1  0  0  0  0
 52 60  1  0  0  0  0
 53 61  1  0  0  0  0
 54 62  1  0  0  0  0
 55 62  1  0  0  0  0
 56 62  1  0  0  0  0
 57 74  1  0  0  0  0
 58 61  1  0  0  0  0
 58 64  1  0  0  0  0
 59 62  1  0  0  0  0
 59 73  1  0  0  0  0
 60 74  1  0  0  0  0
 61 81  1  0  0  0  0
 63 65  1  0  0  0  0
M  CHG  2  66   1  74   1
M  ISO  4  35 100  61 101  69 100  81 101
M  END
> <Batch ID>
0182

> <Smiles>
CNC(C)C(=O)NC(C(=O)N1Cc2cc([101O:1][101CH:1](C)Cn3cc(C4C[100N:0]([100C:0](=O)N5CCCC(n6nc(-c7ccc(Oc8ccc(F)cc8F)cc7)c(C(N)=O)c6N)C5)C4)nc3C)ccc2CC1C(=O)NC1CCCc2ccccc21)C(C)(C)C

> <Shape>
0.193

> <Color>
0.192

> <Negative vol penalty>
0.000

$$$$

  -OEChem-04052323053D

 78 86  0     1  0  0  0  0  0999 V2000
  -31.9604  -30.3833   24.4659 C   0  0  0  0  0  0  0  0  0  0  0  0
  -31.7059  -29.1079   23.9720 C   0  0  0  0  0  0  0  0  0  0  0  0
  -23.1280   -9.8284   21.3708 C   0  0  0  0  0  0  0  0  0  0  0  0
  -23.8236  -10.6659   23.5276 C   0  0  0  0  0  0  0  0  0  0  0  0
  -31.0146  -31.0204   25.2681 C   0  0  0  0  0  0  0  0  0  0  0  0
  -30.5060  -28.4683   24.2809 C   0  0  0  0  0  0  0  0  0  0  0  0
  -27.3153  -24.6853   20.6734 C   0  0  0  0  0  0  0  0  0  0  0  0
  -22.3937   -8.8221   21.9984 C   0  0  0  0  0  0  0  0  0  0  0  0
  -23.0893   -9.6596   24.1552 C   0  0  0  0  0  0  0  0  0  0  0  0
  -27.2406  -23.2948   20.6053 C   0  0  0  0  0  0  0  0  0  0  0  0
  -23.0043   -5.8367   23.4610 C   0  0  0  0  0  0  0  0  0  0  0  0
  -23.1117   -4.5430   22.9509 C   0  0  0  0  0  0  0  0  0  0  0  0
  -25.2694  -23.3387   21.9952 C   0  0  0  0  0  0  0  0  0  0  0  0
  -20.7358   -4.5183   22.5132 C   0  0  0  0  0  0  0  0  0  0  0  0
  -23.8430  -10.7502   22.1355 C   0  0  0  0  0  0  0  0  0  0  0  0
  -24.1526  -13.0758   21.1336 C   0  0  0  0  0  0  0  0  0  0  0  0
  -29.7983  -30.3922   25.5791 C   0  0  0  0  0  0  0  0  0  0  0  0
  -26.3724  -25.4134   21.4131 C   0  0  0  0  0  0  0  0  0  0  0  0
  -29.5436  -29.0971   25.0892 C   0  0  0  0  0  0  0  0  0  0  0  0
  -25.3329  -24.7386   22.0690 C   0  0  0  0  0  0  0  0  0  0  0  0
  -22.3743   -8.7377   23.3905 C   0  0  0  0  0  0  0  0  0  0  0  0
  -26.2192  -22.6211   21.2686 C   0  0  0  0  0  0  0  0  0  0  0  0
  -21.7626   -6.4713   23.4973 C   0  0  0  0  0  0  0  0  0  0  0  0
  -21.9774   -3.8837   22.4770 C   0  0  0  0  0  0  0  0  0  0  0  0
  -20.6284   -5.8121   23.0233 C   0  0  0  0  0  0  0  0  0  0  0  0
  -24.6022  -11.7896   21.4878 C   0  0  0  0  0  0  0  0  0  0  0  0
  -25.2438  -13.6726   20.5508 C   0  0  0  0  0  0  0  0  0  0  0  0
  -22.8638  -13.6773   21.3151 C   0  0  0  0  0  0  0  0  0  0  0  0
  -26.5044  -27.3380   23.9394 C   0  0  0  0  0  0  0  0  0  0  0  0
  -23.3617  -27.7870   23.2732 C   0  0  0  0  0  0  0  0  0  0  0  0
  -20.5066  -26.5958   21.8322 C   0  0  0  0  0  0  0  0  0  0  0  0
  -30.5881  -14.8319   20.2959 C   0  0  0  0  0  0  0  0  0  0  0  0
  -28.8269  -31.1015   26.4890 C   0  0  0  0  0  0  0  0  0  0  0  0
  -26.4513  -26.9149   21.4547 C   0  0  0  0  0  0  0  0  0  0  0  0
  -24.2839  -25.4752   22.8598 C   0  0  0  0  0  0  0  0  0  0  0  0
  -27.4212  -30.5067   26.4615 C   0  0  0  0  0  0  0  0  0  0  0  0
  -29.6654  -11.7379   19.0591 C   0  0  0  0  0  0  0  0  0  0  0  0
  -27.4828  -28.9863   26.5678 C   0  0  0  0  0  0  0  0  0  0  0  0
  -28.2258  -11.5680   19.5441 C   0  0  0  0  0  0  0  0  0  0  0  0
  -28.8785  -18.1147   20.1309 C   0  0  0  0  0  0  0  0  0  0  0  0
  -28.3901  -17.0498   22.3617 C   0  0  0  0  0  0  0  0  0  0  0  0
  -30.5370  -12.3606   20.1439 C   0  0  0  0  0  0  0  0  0  0  0  0
  -30.1208  -17.2373   20.0050 C   0  0  0  0  0  0  0  0  0  0  0  0
  -29.6437  -16.1970   22.1964 C   0  0  0  0  0  0  0  0  0  0  0  0
  -28.5896  -13.5180   21.1358 C   0  0  0  0  0  0  0  0  0  0  0  0
  -28.2432  -28.3806   25.3819 C   0  0  1  0  0  0  0  0  0  0  0  0
  -25.7368  -27.5177   22.6603 C   0  0  1  0  0  0  0  0  0  0  0  0
  -28.5141  -18.3753   21.5982 C   0  0  0  0  0  0  0  0  0  0  0  0
  -27.6603  -12.8980   20.0730 C   0  0  2  0  0  0  0  0  0  0  0  0
  -18.0884  -27.1689   21.4843 C   0  0  0  0  0  0  0  0  0  0  0  0
  -22.7685  -27.0314   26.1693 C   0  0  0  0  0  0  0  0  0  0  0  0
  -20.3744  -26.6956   25.5182 C   0  0  0  0  0  0  0  0  0  0  0  0
  -21.4218  -28.9486   25.2945 C   0  0  0  0  0  0  0  0  0  0  0  0
  -20.8136  -26.6105   18.8887 C   0  0  0  0  0  0  0  0  0  0  0  0
  -27.2241  -19.1852   21.7029 C   0  0  0  0  0  0  0  0  0  0  0  0
  -27.3693  -20.5504   21.0556 C   0  0  0  0  0  0  0  0  0  1  0  0
  -22.0749  -27.1127   23.6836 C   0  0  1  0  0  0  0  0  0  0  0  0
  -19.4943  -27.2514   20.9104 C   0  0  2  0  0  0  0  0  0  0  0  0
  -21.6806  -27.4327   25.1532 C   0  0  0  0  0  0  0  0  0  0  0  0
  -25.8794  -11.5808   21.1575 N   0  0  0  0  0  0  0  0  0  0  0  0
  -26.2417  -12.7437   20.5896 N   0  0  0  0  0  0  0  0  0  0  0  0
  -24.4077  -26.9422   22.8756 N   0  0  0  0  0  0  0  0  0  0  0  0
  -29.9640  -13.6185   20.6226 N   0  0  0  0  0  0  0  0  0  0  0  0
  -29.9868  -16.0052   20.7810 N   0  0  0  0  0  0  0  0  0  0  0  0
  -25.4374  -14.8960   20.0141 N   0  0  0  0  0  0  0  0  0  0  0  0
  -21.8557  -12.9238   21.9320 N   0  0  0  0  0  0  0  0  0  0  0  0
  -27.4033  -28.3537   24.2036 N   0  0  0  0  0  0  0  0  0  0  0  0
  -21.0748  -27.5068   22.6973 N   0  0  0  0  0  0  0  0  0  0  0  0
  -19.4980  -26.5834   19.5782 N   0  3  0  0  0  0  0  0  0  0  0  0
  -22.6088  -14.8424   20.9266 O   0  0  0  0  0  0  0  0  0  0  0  0
  -26.2955  -26.3517   24.6360 O   0  0  0  0  0  0  0  0  0  0  0  0
  -23.4337  -29.0182   23.2975 O   0  0  0  0  0  0  0  0  0  0  0  0
  -20.7646  -25.3948   21.7916 O   0  0  0  0  0  0  0  0  0  0  0  0
  -31.6168  -14.8683   19.6093 O   0  0  0  0  0  0  0  0  0  0  0  0
  -21.6577   -7.7561   24.0033 O   0  0  0  0  0  0  0  0  0  0  0  0
  -26.1438  -21.2538   21.2039 O   0  0  0  0  0  0  0  0  0  1  0  0
  -22.0810   -2.6419   21.9858 F   0  0  0  0  0  0  0  0  0  0  0  0
  -19.4330   -6.4170   23.0544 F   0  0  0  0  0  0  0  0  0  0  0  0
  1  2  1  0  0  0  0
  1  5  2  0  0  0  0
  2  6  2  0  0  0  0
  3  8  2  0  0  0  0
  3 15  1  0  0  0  0
  4  9  1  0  0  0  0
  4 15  2  0  0  0  0
  5 17  1  0  0  0  0
  6 19  1  0  0  0  0
  7 10  2  0  0  0  0
  7 18  1  0  0  0  0
  8 21  1  0  0  0  0
  9 21  2  0  0  0  0
 10 22  1  0  0  0  0
 11 12  2  0  0  0  0
 11 23  1  0  0  0  0
 12 24  1  0  0  0  0
 13 20  1  0  0  0  0
 13 22  2  0  0  0  0
 14 24  2  0  0  0  0
 14 25  1  0  0  0  0
 15 26  1  0  0  0  0
 16 26  1  0  0  0  0
 16 27  2  0  0  0  0
 16 28  1  0  0  0  0
 17 19  2  0  0  0  0
 17 33  1  0  0  0  0
 18 20  2  0  0  0  0
 18 34  1  0  0  0  0
 19 46  1  0  0  0  0
 20 35  1  0  0  0  0
 21 75  1  0  0  0  0
 22 76  1  0  0  0  0
 23 25  2  0  0  0  0
 23 75  1  0  0  0  0
 24 77  1  0  0  0  0
 25 78  1  0  0  0  0
 26 60  2  0  0  0  0
 27 61  1  0  0  0  0
 27 65  1  0  0  0  0
 28 66  1  0  0  0  0
 28 70  2  0  0  0  0
 29 47  1  0  0  0  0
 29 67  1  0  0  0  0
 29 71  2  0  0  0  0
 30 57  1  0  0  0  0
 30 62  1  0  0  0  0
 30 72  2  0  0  0  0
 31 58  1  0  0  0  0
 31 68  1  0  0  0  0
 31 73  2  0  0  0  0
 32 63  1  0  0  0  0
 32 64  1  0  0  0  0
 32 74  2  0  0  0  0
 33 36  1  0  0  0  0
 34 47  1  0  0  0  0
 35 62  1  0  0  0  0
 36 38  1  0  0  0  0
 37 39  1  0  0  0  0
 37 42  1  0  0  0  0
 38 46  1  0  0  0  0
 39 49  1  0  0  0  0
 40 43  1  0  0  0  0
 40 48  1  0  0  0  0
 41 44  1  0  0  0  0
 41 48  1  0  0  0  0
 42 63  1  0  0  0  0
 43 64  1  0  0  0  0
 44 64  1  0  0  0  0
 45 49  1  0  0  0  0
 45 63  1  0  0  0  0
 46 67  1  0  0  0  0
 47 62  1  0  0  0  0
 48 55  1  0  0  0  0
 49 61  1  0  0  0  0
 50 58  1  0  0  0  0
 51 59  1  0  0  0  0
 52 59  1  0  0  0  0
 53 59  1  0  0  0  0
 54 69  1  0  0  0  0
 55 56  1  0  0  0  0
 56 76  1  0  0  0  0
 57 59  1  0  0  0  0
 57 68  1  0  0  0  0
 58 69  1  0  0  0  0
 60 61  1  0  0  0  0
M  CHG  1  69   1
M  ISO  4  32 100  56 101  64 100  76 101
M  END
> <Batch ID>
0182

> <Smiles>
CNC(C)C(=O)NC(C(=O)N1Cc2cc([101O:1][101CH2:1]CC3CC[100N:0]([100C:0](=O)N4CCCC(n5nc(-c6ccc(Oc7ccc(F)cc7F)cc6)c(C(N)=O)c5N)C4)CC3)ccc2CC1C(=O)NC1CCCc2ccccc21)C(C)(C)C

> <Shape>
0.245

> <Color>
0.182

> <Negative vol penalty>
0.000

$$$$

  -OEChem-04052323053D

 80 89  0     1  0  0  0  0  0999 V2000
  -21.1618  -30.0708   14.6063 C   0  0  0  0  0  0  0  0  0  0  0  0
  -22.4117  -29.7304   15.1135 C   0  0  0  0  0  0  0  0  0  0  0  0
  -29.7504  -11.3810   18.9785 C   0  0  0  0  0  0  0  0  0  0  0  0
  -29.4149  -10.7736   21.2927 C   0  0  0  0  0  0  0  0  0  0  0  0
  -20.4755  -31.1680   15.1251 C   0  0  0  0  0  0  0  0  0  0  0  0
  -22.9766  -30.4877   16.1391 C   0  0  0  0  0  0  0  0  0  0  0  0
  -24.9988  -27.6159   19.7872 C   0  0  0  0  0  0  0  0  0  0  0  0
  -30.5878  -10.2782   18.8104 C   0  0  0  0  0  0  0  0  0  0  0  0
  -30.2523   -9.6708   21.1247 C   0  0  0  0  0  0  0  0  0  0  0  0
  -26.2452  -27.0459   19.5314 C   0  0  0  0  0  0  0  0  0  0  0  0
  -30.0429   -6.5632   19.8135 C   0  0  0  0  0  0  0  0  0  0  0  0
  -29.6210   -5.3442   20.3441 C   0  0  0  0  0  0  0  0  0  0  0  0
  -27.3000  -28.7855   20.8276 C   0  0  0  0  0  0  0  0  0  0  0  0
  -31.5902   -5.2711   21.7419 C   0  0  0  0  0  0  0  0  0  0  0  0
  -29.1640  -11.6287   20.2197 C   0  0  0  0  0  0  0  0  0  0  0  0
  -26.9051  -12.8141   20.2042 C   0  0  0  0  0  0  0  0  0  0  0  0
  -21.0280  -31.9333   16.1642 C   0  0  0  0  0  0  0  0  0  0  0  0
  -24.8945  -28.7831   20.5573 C   0  0  0  0  0  0  0  0  0  0  0  0
  -22.2976  -31.5969   16.6714 C   0  0  0  0  0  0  0  0  0  0  0  0
  -26.0509  -29.3669   21.0938 C   0  0  0  0  0  0  0  0  0  0  0  0
  -30.8387   -9.4231   19.8835 C   0  0  0  0  0  0  0  0  0  0  0  0
  -27.3963  -27.6323   20.0492 C   0  0  0  0  0  0  0  0  0  0  0  0
  -31.2385   -7.1361   20.2470 C   0  0  0  0  0  0  0  0  0  0  0  0
  -30.3946   -4.6981   21.3083 C   0  0  0  0  0  0  0  0  0  0  0  0
  -32.0121   -6.4901   21.2112 C   0  0  0  0  0  0  0  0  0  0  0  0
  -28.2993  -12.7680   20.3940 C   0  0  0  0  0  0  0  0  0  0  0  0
  -26.5616  -14.1116   20.4958 C   0  0  0  0  0  0  0  0  0  0  0  0
  -26.0014  -11.7768   19.8005 C   0  0  0  0  0  0  0  0  0  0  0  0
  -23.8421  -31.7349   20.0252 C   0  0  0  0  0  0  0  0  0  0  0  0
  -24.3769  -32.0808   23.2059 C   0  0  0  0  0  0  0  0  0  0  0  0
  -26.0526  -31.0426   25.9918 C   0  0  0  0  0  0  0  0  0  0  0  0
  -30.0246  -19.0613   20.3455 C   0  0  0  0  0  0  0  0  0  0  0  0
  -20.2694  -33.1387   16.6603 C   0  0  0  0  0  0  0  0  0  0  0  0
  -23.5402  -29.3705   20.8464 C   0  0  0  0  0  0  0  0  0  0  0  0
  -25.9911  -30.6089   21.9436 C   0  0  0  0  0  0  0  0  0  0  0  0
  -20.7719  -33.6646   18.0024 C   0  0  0  0  0  0  0  0  0  0  0  0
  -27.9261  -17.8465   23.1519 C   0  0  0  0  0  0  0  0  0  0  0  0
  -22.2944  -33.7587   18.0027 C   0  0  0  0  0  0  0  0  0  0  0  0
  -27.7030  -16.3878   22.7502 C   0  0  0  0  0  0  0  0  0  0  0  0
  -28.7495  -22.4758   20.8224 C   0  0  0  0  0  0  0  0  0  0  0  0
  -31.2515  -25.7053   19.3286 C   0  0  0  0  0  0  0  0  0  0  0  0
  -29.2751  -18.3486   22.6540 C   0  0  0  0  0  0  0  0  0  0  0  0
  -28.8153  -21.0636   21.3956 C   0  0  0  0  0  0  0  0  0  0  0  0
  -29.2568  -16.7548   20.7735 C   0  0  0  0  0  0  0  0  0  0  0  0
  -30.6869  -21.4136   19.9280 C   0  0  0  0  0  0  0  0  0  0  0  0
  -31.7499  -24.2520   19.3287 C   0  0  0  0  0  0  0  0  0  0  0  0
  -22.9324  -32.3790   17.8007 C   0  0  1  0  0  0  0  0  0  0  0  0
  -23.5968  -30.8499   21.2145 C   0  0  1  0  0  0  0  0  0  0  0  0
  -27.9019  -16.1905   21.2363 C   0  0  1  0  0  0  0  0  0  0  0  0
  -30.2093  -22.7417   20.4861 C   0  0  1  0  0  0  0  0  0  0  0  0
  -30.0145  -25.1548   20.0690 C   0  0  1  0  0  0  0  0  0  0  0  0
  -26.3075  -31.5421   28.4378 C   0  0  0  0  0  0  0  0  0  0  0  0
  -26.0751  -34.5233   22.5277 C   0  0  0  0  0  0  0  0  0  0  0  0
  -27.0459  -34.4016   24.8322 C   0  0  0  0  0  0  0  0  0  0  0  0
  -24.6021  -34.8002   24.5297 C   0  0  0  0  0  0  0  0  0  0  0  0
  -25.1033  -28.3467   26.7598 C   0  0  0  0  0  0  0  0  0  0  0  0
  -28.6619  -25.6659   19.6163 C   0  0  0  0  0  0  0  0  0  1  0  0
  -25.5522  -32.5064   24.0523 C   0  0  1  0  0  0  0  0  0  0  0  0
  -25.5710  -30.7169   27.3941 C   0  0  2  0  0  0  0  0  0  0  0  0
  -25.8205  -34.0356   23.9679 C   0  0  0  0  0  0  0  0  0  0  0  0
  -28.8067  -13.9429   20.7764 N   0  0  0  0  0  0  0  0  0  0  0  0
  -27.7256  -14.7394   20.8292 N   0  0  0  0  0  0  0  0  0  0  0  0
  -24.6445  -31.1492   22.1928 N   0  0  0  0  0  0  0  0  0  0  0  0
  -29.4167  -18.1437   21.2098 N   0  0  0  0  0  0  0  0  0  0  0  0
  -29.9007  -20.4158   20.6517 N   0  0  0  0  0  0  0  0  0  0  0  0
  -25.3805  -14.7653   20.4969 N   0  0  0  0  0  0  0  0  0  0  0  0
  -26.5214  -10.5015   19.5405 N   0  0  0  0  0  0  0  0  0  0  0  0
  -22.8899  -31.6176   19.0307 N   0  0  0  0  0  0  0  0  0  0  0  0
  -25.2810  -32.0209   25.4011 N   0  0  0  0  0  0  0  0  0  0  0  0
  -30.3440  -23.8286   19.4907 N   0  3  1  0  0  0  0  0  0  0  0  0
  -25.7907  -29.2740   27.6951 N   0  3  0  0  0  0  0  0  0  0  0  0
  -24.7716  -11.9791   19.6583 O   0  0  0  0  0  0  0  0  0  0  0  0
  -24.8218  -32.4709   20.0116 O   0  0  0  0  0  0  0  0  0  0  0  0
  -23.2611  -32.5519   23.4398 O   0  0  0  0  0  0  0  0  0  0  0  0
  -27.0191  -30.4876   25.4737 O   0  0  0  0  0  0  0  0  0  0  0  0
  -30.6101  -18.6903   19.3197 O   0  0  0  0  0  0  0  0  0  0  0  0
  -31.6556   -8.3468   19.7198 O   0  0  0  0  0  0  0  0  0  0  0  0
  -28.6232  -27.0742   19.7987 O   0  0  0  0  0  0  0  0  0  1  0  0
  -29.9885   -3.5282   21.8189 F   0  0  0  0  0  0  0  0  0  0  0  0
  -33.1611   -7.0362   21.6326 F   0  0  0  0  0  0  0  0  0  0  0  0
  1  2  1  0  0  0  0
  1  5  2  0  0  0  0
  2  6  2  0  0  0  0
  3  8  2  0  0  0  0
  3 15  1  0  0  0  0
  4  9  1  0  0  0  0
  4 15  2  0  0  0  0
  5 17  1  0  0  0  0
  6 19  1  0  0  0  0
  7 10  2  0  0  0  0
  7 18  1  0  0  0  0
  8 21  1  0  0  0  0
  9 21  2  0  0  0  0
 10 22  1  0  0  0  0
 11 12  2  0  0  0  0
 11 23  1  0  0  0  0
 12 24  1  0  0  0  0
 13 20  1  0  0  0  0
 13 22  2  0  0  0  0
 14 24  2  0  0  0  0
 14 25  1  0  0  0  0
 15 26  1  0  0  0  0
 16 26  1  0  0  0  0
 16 27  2  0  0  0  0
 16 28  1  0  0  0  0
 17 19  2  0  0  0  0
 17 33  1  0  0  0  0
 18 20  2  0  0  0  0
 18 34  1  0  0  0  0
 19 47  1  0  0  0  0
 20 35  1  0  0  0  0
 21 77  1  0  0  0  0
 22 78  1  0  0  0  0
 23 25  2  0  0  0  0
 23 77  1  0  0  0  0
 24 79  1  0  0  0  0
 25 80  1  0  0  0  0
 26 61  2  0  0  0  0
 27 62  1  0  0  0  0
 27 66  1  0  0  0  0
 28 67  1  0  0  0  0
 28 72  2  0  0  0  0
 29 48  1  0  0  0  0
 29 68  1  0  0  0  0
 29 73  2  0  0  0  0
 30 58  1  0  0  0  0
 30 63  1  0  0  0  0
 30 74  2  0  0  0  0
 31 59  1  0  0  0  0
 31 69  1  0  0  0  0
 31 75  2  0  0  0  0
 32 64  1  0  0  0  0
 32 65  1  0  0  0  0
 32 76  2  0  0  0  0
 33 36  1  0  0  0  0
 34 48  1  0  0  0  0
 35 63  1  0  0  0  0
 36 38  1  0  0  0  0
 37 39  1  0  0  0  0
 37 42  1  0  0  0  0
 38 47  1  0  0  0  0
 39 49  1  0  0  0  0
 40 43  1  0  0  0  0
 40 50  1  0  0  0  0
 41 46  1  0  0  0  0
 41 51  1  0  0  0  0
 42 64  1  0  0  0  0
 43 65  1  0  0  0  0
 44 49  1  0  0  0  0
 44 64  1  0  0  0  0
 45 50  1  0  0  0  0
 45 65  1  0  0  0  0
 46 70  1  0  0  0  0
 47 68  1  0  0  0  0
 48 63  1  0  0  0  0
 49 62  1  0  0  0  0
 50 70  1  0  0  0  0
 51 57  1  0  0  0  0
 51 70  1  0  0  0  0
 52 59  1  0  0  0  0
 53 60  1  0  0  0  0
 54 60  1  0  0  0  0
 55 60  1  0  0  0  0
 56 71  1  0  0  0  0
 57 78  1  0  0  0  0
 58 60  1  0  0  0  0
 58 69  1  0  0  0  0
 59 71  1  0  0  0  0
 61 62  1  0  0  0  0
M  CHG  2  70   1  71   1
M  ISO  4  32 100  57 101  65 100  78 101
M  END
> <Batch ID>
0182

> <Smiles>
CNC(C)C(=O)NC(C(=O)N1Cc2cc([101O:1][101CH2:1]C3CCN3C3CC[100N:0]([100C:0](=O)N4CCCC(n5nc(-c6ccc(Oc7ccc(F)cc7F)cc6)c(C(N)=O)c5N)C4)C3)ccc2CC1C(=O)NC1CCCc2ccccc21)C(C)(C)C

> <Shape>
0.275

> <Color>
0.107

> <Negative vol penalty>
0.000

$$$$

  -OEChem-04052323053D

 84 93  0     1  0  0  0  0  0999 V2000
  -27.9780  -24.3612   16.9837 C   0  0  0  0  0  0  0  0  0  0  0  0
  -26.8106  -24.5841   17.7067 C   0  0  0  0  0  0  0  0  0  0  0  0
  -28.3929  -17.4556   21.9492 C   0  0  0  0  0  0  0  0  0  0  0  0
  -26.1725  -17.6828   21.0244 C   0  0  0  0  0  0  0  0  0  0  0  0
  -29.1858  -24.8962   17.4297 C   0  0  0  0  0  0  0  0  0  0  0  0
  -26.8504  -25.3413   18.8769 C   0  0  0  0  0  0  0  0  0  0  0  0
  -23.0713  -28.7014   19.1461 C   0  0  0  0  0  0  0  0  0  0  0  0
  -28.4765  -16.1632   21.4312 C   0  0  0  0  0  0  0  0  0  0  0  0
  -26.2561  -16.3904   20.5063 C   0  0  0  0  0  0  0  0  0  0  0  0
  -21.8148  -28.2188   19.5098 C   0  0  0  0  0  0  0  0  0  0  0  0
  -25.7417  -13.0198   19.2475 C   0  0  0  0  0  0  0  0  0  0  0  0
  -24.6370  -12.1838   19.4093 C   0  0  0  0  0  0  0  0  0  0  0  0
  -22.1746  -28.9981   21.7642 C   0  0  0  0  0  0  0  0  0  0  0  0
  -20.9343  -23.5839   24.7180 C   0  0  0  0  0  0  0  0  0  0  0  0
  -24.8353  -12.3863   21.8087 C   0  0  0  0  0  0  0  0  0  0  0  0
  -27.2409  -18.2154   21.7459 C   0  0  0  0  0  0  0  0  0  0  0  0
  -27.5396  -20.7469   21.6482 C   0  0  0  0  0  0  0  0  0  0  0  0
  -29.2387  -25.6685   18.6008 C   0  0  0  0  0  0  0  0  0  0  0  0
  -23.8947  -29.3274   20.0930 C   0  0  0  0  0  0  0  0  0  0  0  0
  -28.0602  -25.8861   19.3398 C   0  0  0  0  0  0  0  0  0  0  0  0
  -23.4400  -29.4901   21.4094 C   0  0  0  0  0  0  0  0  0  0  0  0
  -19.6815  -24.1639   24.7109 C   0  0  0  0  0  0  0  0  0  0  0  0
  -18.9526  -24.2941   25.8944 C   0  0  0  0  0  0  0  0  0  0  0  0
  -27.4081  -15.6306   20.7097 C   0  0  0  0  0  0  0  0  0  0  0  0
  -21.3675  -28.3645   20.8197 C   0  0  0  0  0  0  0  0  0  0  0  0
  -26.3933  -13.5391   20.3662 C   0  0  0  0  0  0  0  0  0  0  0  0
  -24.1838  -11.8670   20.6899 C   0  0  0  0  0  0  0  0  0  0  0  0
  -25.9401  -13.2224   21.6468 C   0  0  0  0  0  0  0  0  0  0  0  0
  -27.1537  -19.5502   22.2813 C   0  0  0  0  0  0  0  0  0  0  0  0
  -19.5004  -23.8385   27.0704 C   0  0  0  0  0  0  0  0  0  0  0  0
  -21.4106  -23.1655   25.9524 C   0  0  0  0  0  0  0  0  0  0  0  0
  -27.2565  -21.7281   22.5668 C   0  0  0  0  0  0  0  0  0  0  0  0
  -28.1035  -20.9533   20.3463 C   0  0  0  0  0  0  0  0  0  0  0  0
  -26.7604  -28.7178   21.3259 C   0  0  0  0  0  0  0  0  0  0  0  0
  -26.3348  -31.6052   22.7416 C   0  0  0  0  0  0  0  0  0  0  0  0
  -24.1679  -34.0000   23.8444 C   0  0  0  0  0  0  0  0  0  0  0  0
  -23.3759  -22.0818   27.0968 C   0  0  0  0  0  0  0  0  0  0  0  0
  -30.5756  -26.1865   19.0690 C   0  0  0  0  0  0  0  0  0  0  0  0
  -25.2363  -29.8664   19.6784 C   0  0  0  0  0  0  0  0  0  0  0  0
  -17.6107  -24.8993   25.6457 C   0  0  0  0  0  0  0  0  0  0  0  0
  -24.2773  -30.1728   22.4589 C   0  0  0  0  0  0  0  0  0  0  0  0
  -30.4678  -27.2913   20.1169 C   0  0  0  0  0  0  0  0  0  0  0  0
  -17.8364  -25.5475   24.2689 C   0  0  0  0  0  0  0  0  0  0  0  0
  -26.9121  -22.4505   27.2884 C   0  0  0  0  0  0  0  0  0  0  0  0
  -29.4599  -26.9073   21.1955 C   0  0  0  0  0  0  0  0  0  0  0  0
  -27.4100  -21.8630   25.9659 C   0  0  0  0  0  0  0  0  0  0  0  0
  -25.7135  -21.6780   27.8366 C   0  0  0  0  0  0  0  0  0  0  0  0
  -25.0960  -20.9260   25.5733 C   0  0  0  0  0  0  0  0  0  0  0  0
  -28.0586  -26.7229   20.6007 C   0  0  1  0  0  0  0  0  0  0  0  0
  -18.8790  -24.6692   23.5532 C   0  0  1  0  0  0  0  0  0  0  0  0
  -26.2024  -30.0285   20.8479 C   0  0  1  0  0  0  0  0  0  0  0  0
  -26.2617  -21.7103   24.9492 C   0  0  2  0  0  0  0  0  0  0  0  0
  -18.7499  -23.9393   28.3536 C   0  0  0  0  0  0  0  0  0  0  0  0
  -24.1151  -36.2306   24.9928 C   0  0  0  0  0  0  0  0  0  0  0  0
  -26.9157  -30.2428   25.4093 C   0  0  0  0  0  0  0  0  0  0  0  0
  -25.9341  -32.2368   26.5620 C   0  0  0  0  0  0  0  0  0  0  0  0
  -27.9659  -32.4962   25.1382 C   0  0  0  0  0  0  0  0  0  0  0  0
  -22.8725  -35.2959   21.5203 C   0  0  0  0  0  0  0  0  0  0  0  0
  -18.7978  -25.9117   21.3958 C   0  0  0  0  0  0  0  0  0  0  0  0
  -19.6513  -26.7557   20.4699 C   0  0  0  0  0  0  0  0  0  1  0  0
  -25.7273  -32.0805   24.0393 C   0  0  1  0  0  0  0  0  0  0  0  0
  -24.1503  -35.5062   23.6561 C   0  0  2  0  0  0  0  0  0  0  0  0
  -26.6205  -31.7494   25.2681 C   0  0  0  0  0  0  0  0  0  0  0  0
  -26.6630  -19.7505   23.5073 N   0  0  0  0  0  0  0  0  0  0  0  0
  -20.7300  -23.2776   27.1253 N   0  0  0  0  0  0  0  0  0  0  0  0
  -26.7387  -21.0844   23.6521 N   0  0  0  0  0  0  0  0  0  0  0  0
  -25.5842  -30.6772   22.0060 N   0  0  0  0  0  0  0  0  0  0  0  0
  -24.6641  -21.5770   26.8201 N   0  0  0  0  0  0  0  0  0  0  0  0
  -27.4025  -23.0699   22.5440 N   0  0  0  0  0  0  0  0  0  0  0  0
  -28.3294  -19.8357   19.5312 N   0  0  0  0  0  0  0  0  0  0  0  0
  -22.6974  -22.5731   25.9819 N   0  0  0  0  0  0  0  0  0  0  0  0
  -27.4408  -28.0083   20.3547 N   0  0  0  0  0  0  0  0  0  0  0  0
  -25.4538  -33.5029   23.8652 N   0  0  0  0  0  0  0  0  0  0  0  0
  -19.6148  -25.4803   22.5580 N   0  3  0  0  0  0  0  0  0  0  0  0
  -22.9536  -35.9158   22.8680 N   0  3  0  0  0  0  0  0  0  0  0  0
  -28.4135  -22.0933   19.9247 O   0  0  0  0  0  0  0  0  0  0  0  0
  -26.5877  -28.3762   22.4900 O   0  0  0  0  0  0  0  0  0  0  0  0
  -27.4317  -32.0467   22.3899 O   0  0  0  0  0  0  0  0  0  0  0  0
  -23.1434  -33.3318   23.9649 O   0  0  0  0  0  0  0  0  0  0  0  0
  -22.9198  -22.1036   28.2428 O   0  0  0  0  0  0  0  0  0  0  0  0
  -27.4894  -14.3697   20.2038 O   0  0  0  0  0  0  0  0  0  0  0  0
  -20.1418  -27.8938   21.1774 O   0  0  0  0  0  0  0  0  0  1  0  0
  -23.1220  -11.0654   20.8452 F   0  0  0  0  0  0  0  0  0  0  0  0
  -26.5612  -13.7192   22.7253 F   0  0  0  0  0  0  0  0  0  0  0  0
  1  2  1  0  0  0  0
  1  5  2  0  0  0  0
  2  6  2  0  0  0  0
  3  8  2  0  0  0  0
  3 16  1  0  0  0  0
  4  9  1  0  0  0  0
  4 16  2  0  0  0  0
  5 18  1  0  0  0  0
  6 20  1  0  0  0  0
  7 10  2  0  0  0  0
  7 19  1  0  0  0  0
  8 24  1  0  0  0  0
  9 24  2  0  0  0  0
 10 25  1  0  0  0  0
 11 12  2  0  0  0  0
 11 26  1  0  0  0  0
 12 27  1  0  0  0  0
 13 21  1  0  0  0  0
 13 25  2  0  0  0  0
 14 22  2  0  0  0  0
 14 31  1  0  0  0  0
 15 27  2  0  0  0  0
 15 28  1  0  0  0  0
 16 29  1  0  0  0  0
 17 29  1  0  0  0  0
 17 32  2  0  0  0  0
 17 33  1  0  0  0  0
 18 20  2  0  0  0  0
 18 38  1  0  0  0  0
 19 21  2  0  0  0  0
 19 39  1  0  0  0  0
 20 49  1  0  0  0  0
 21 41  1  0  0  0  0
 22 23  1  0  0  0  0
 22 50  1  0  0  0  0
 23 30  2  0  0  0  0
 23 40  1  0  0  0  0
 24 81  1  0  0  0  0
 25 82  1  0  0  0  0
 26 28  2  0  0  0  0
 26 81  1  0  0  0  0
 27 83  1  0  0  0  0
 28 84  1  0  0  0  0
 29 64  2  0  0  0  0
 30 53  1  0  0  0  0
 30 65  1  0  0  0  0
 31 65  2  0  0  0  0
 31 71  1  0  0  0  0
 32 66  1  0  0  0  0
 32 69  1  0  0  0  0
 33 70  1  0  0  0  0
 33 76  2  0  0  0  0
 34 51  1  0  0  0  0
 34 72  1  0  0  0  0
 34 77  2  0  0  0  0
 35 61  1  0  0  0  0
 35 67  1  0  0  0  0
 35 78  2  0  0  0  0
 36 62  1  0  0  0  0
 36 73  1  0  0  0  0
 36 79  2  0  0  0  0
 37 68  1  0  0  0  0
 37 71  1  0  0  0  0
 37 80  2  0  0  0  0
 38 42  1  0  0  0  0
 39 51  1  0  0  0  0
 40 43  1  0  0  0  0
 41 67  1  0  0  0  0
 42 45  1  0  0  0  0
 43 50  1  0  0  0  0
 44 46  1  0  0  0  0
 44 47  1  0  0  0  0
 45 49  1  0  0  0  0
 46 52  1  0  0  0  0
 47 68  1  0  0  0  0
 48 52  1  0  0  0  0
 48 68  1  0  0  0  0
 49 72  1  0  0  0  0
 50 74  1  0  0  0  0
 51 67  1  0  0  0  0
 52 66  1  0  0  0  0
 54 62  1  0  0  0  0
 55 63  1  0  0  0  0
 56 63  1  0  0  0  0
 57 63  1  0  0  0  0
 58 75  1  0  0  0  0
 59 60  1  0  0  0  0
 59 74  1  0  0  0  0
 60 82  1  0  0  0  0
 61 63  1  0  0  0  0
 61 73  1  0  0  0  0
 62 75  1  0  0  0  0
 64 66  1  0  0  0  0
M  CHG  2  74   1  75   1
M  ISO  4  37 100  60 101  71 100  82 101
M  END
> <Batch ID>
0182

> <Smiles>
CNC(C)C(=O)NC(C(=O)N1Cc2cc([101O:1][101CH2:1]CNC3CCc4c3cc([100NH:0][100C:0](=O)N3CCCC(n5nc(-c6ccc(Oc7ccc(F)cc7F)cc6)c(C(N)=O)c5N)C3)nc4C)ccc2CC1C(=O)NC1CCCc2ccccc21)C(C)(C)C

> <Shape>
0.273

> <Color>
0.071

> <Negative vol penalty>
0.000

$$$$

  -OEChem-04052323053D

 79 87  0     1  0  0  0  0  0999 V2000
  -20.1770  -29.4286   17.4050 C   0  0  0  0  0  0  0  0  0  0  0  0
  -21.2469  -28.6462   17.8275 C   0  0  0  0  0  0  0  0  0  0  0  0
  -24.6017  -10.1427   22.2021 C   0  0  0  0  0  0  0  0  0  0  0  0
  -24.6499  -11.5747   24.1473 C   0  0  0  0  0  0  0  0  0  0  0  0
  -19.6670  -30.4205   18.2416 C   0  0  0  0  0  0  0  0  0  0  0  0
  -21.8082  -28.8560   19.0867 C   0  0  0  0  0  0  0  0  0  0  0  0
  -22.6675  -24.5304   21.5758 C   0  0  0  0  0  0  0  0  0  0  0  0
  -24.2477   -9.0604   23.0076 C   0  0  0  0  0  0  0  0  0  0  0  0
  -24.2958  -10.4924   24.9529 C   0  0  0  0  0  0  0  0  0  0  0  0
  -23.7924  -23.7950   21.2049 C   0  0  0  0  0  0  0  0  0  0  0  0
  -21.4561   -7.8771   24.5042 C   0  0  0  0  0  0  0  0  0  0  0  0
  -20.4282   -7.0462   24.0586 C   0  0  0  0  0  0  0  0  0  0  0  0
  -24.9936  -24.6903   23.0956 C   0  0  0  0  0  0  0  0  0  0  0  0
  -21.9475   -5.1677   24.0566 C   0  0  0  0  0  0  0  0  0  0  0  0
  -24.8028  -11.3999   22.7720 C   0  0  0  0  0  0  0  0  0  0  0  0
  -24.3002  -13.4204   21.2980 C   0  0  0  0  0  0  0  0  0  0  0  0
  -20.2161  -30.6361   19.5155 C   0  0  0  0  0  0  0  0  0  0  0  0
  -22.7008  -25.3611   22.7051 C   0  0  0  0  0  0  0  0  0  0  0  0
  -21.3059  -29.8526   19.9406 C   0  0  0  0  0  0  0  0  0  0  0  0
  -23.8670  -25.4332   23.4801 C   0  0  0  0  0  0  0  0  0  0  0  0
  -24.0947   -9.2352   24.3830 C   0  0  0  0  0  0  0  0  0  0  0  0
  -24.9566  -23.8771   21.9631 C   0  0  0  0  0  0  0  0  0  0  0  0
  -22.7298   -7.3533   24.7260 C   0  0  0  0  0  0  0  0  0  0  0  0
  -20.6739   -5.6915   23.8348 C   0  0  0  0  0  0  0  0  0  0  0  0
  -22.9755   -5.9986   24.5023 C   0  0  0  0  0  0  0  0  0  0  0  0
  -25.1691  -12.5182   21.9405 C   0  0  0  0  0  0  0  0  0  0  0  0
  -25.1342  -14.2898   20.6385 C   0  0  0  0  0  0  0  0  0  0  0  0
  -29.3907  -21.6234   19.5742 C   0  0  0  0  0  0  0  0  0  0  0  0
  -27.2427  -21.6194   20.2242 C   0  0  0  0  0  0  0  0  0  0  0  0
  -28.4475  -19.7284   20.3201 C   0  0  0  0  0  0  0  0  0  0  0  0
  -22.8672  -13.4684   21.2976 C   0  0  0  0  0  0  0  0  0  0  0  0
  -22.3652  -28.4823   23.2045 C   0  0  0  0  0  0  0  0  0  0  0  0
  -22.5134  -27.6037   26.3236 C   0  0  0  0  0  0  0  0  0  0  0  0
  -23.5355  -25.3205   28.6449 C   0  0  0  0  0  0  0  0  0  0  0  0
  -29.6617  -17.5274   20.4879 C   0  0  0  0  0  0  0  0  0  0  0  0
  -19.6616  -31.7517   20.3656 C   0  0  0  0  0  0  0  0  0  0  0  0
  -21.4704  -26.1273   23.1071 C   0  0  0  0  0  0  0  0  0  0  0  0
  -23.9479  -26.2946   24.7130 C   0  0  0  0  0  0  0  0  0  0  0  0
  -20.0708  -31.6600   21.8334 C   0  0  0  0  0  0  0  0  0  0  0  0
  -30.1191  -14.0664   19.7884 C   0  0  0  0  0  0  0  0  0  0  0  0
  -21.5648  -31.3769   21.9544 C   0  0  0  0  0  0  0  0  0  0  0  0
  -28.8006  -13.4293   20.2331 C   0  0  0  0  0  0  0  0  0  0  0  0
  -30.5349  -15.2116   20.7100 C   0  0  0  0  0  0  0  0  0  0  0  0
  -28.1926  -15.6063   21.3636 C   0  0  0  0  0  0  0  0  0  0  0  0
  -21.9257  -30.0333   21.3093 C   0  0  1  0  0  0  0  0  0  0  0  0
  -21.7798  -27.3378   23.9825 C   0  0  1  0  0  0  0  0  0  0  0  0
  -27.6997  -14.4902   20.4282 C   0  0  2  0  0  0  0  0  0  0  0  0
  -30.5768  -22.3522   19.0406 C   0  0  0  0  0  0  0  0  0  0  0  0
  -23.5463  -24.8954   31.1181 C   0  0  0  0  0  0  0  0  0  0  0  0
  -24.7569  -29.6439   26.6620 C   0  0  0  0  0  0  0  0  0  0  0  0
  -25.3524  -28.5269   28.8220 C   0  0  0  0  0  0  0  0  0  0  0  0
  -23.1097  -29.5830   28.5428 C   0  0  0  0  0  0  0  0  0  0  0  0
  -21.9526  -22.8382   28.3425 C   0  0  0  0  0  0  0  0  0  0  0  0
  -25.9470  -22.3456   20.4368 C   0  0  0  0  0  0  0  0  0  1  0  0
  -23.6223  -27.4235   27.3320 C   0  0  1  0  0  0  0  0  0  0  0  0
  -22.8072  -24.6714   29.8080 C   0  0  2  0  0  0  0  0  0  0  0  0
  -24.2097  -28.7795   27.8154 C   0  0  0  0  0  0  0  0  0  0  0  0
  -26.4565  -12.7892   21.7097 N   0  0  0  0  0  0  0  0  0  0  0  0
  -28.2669  -22.3397   19.7395 N   0  0  0  0  0  0  0  0  0  0  0  0
  -29.5552  -20.3179   19.8421 N   0  0  0  0  0  0  0  0  0  0  0  0
  -27.2587  -20.3137   20.5369 N   0  0  0  0  0  0  0  0  0  0  0  0
  -26.4026  -13.8715   20.9148 N   0  0  0  0  0  0  0  0  0  0  0  0
  -22.7206  -27.0294   25.0614 N   0  0  0  0  0  0  0  0  0  0  0  0
  -29.4441  -16.1796   20.8441 N   0  0  0  0  0  0  0  0  0  0  0  0
  -24.8990  -15.3635   19.8547 N   0  0  0  0  0  0  0  0  0  0  0  0
  -22.1660  -12.4991   22.0277 N   0  0  0  0  0  0  0  0  0  0  0  0
  -28.5429  -18.3483   20.6266 N   0  0  0  0  0  0  0  0  0  0  0  0
  -21.5566  -28.9387   22.1811 N   0  0  0  0  0  0  0  0  0  0  0  0
  -23.0722  -26.5959   28.4000 N   0  0  0  0  0  0  0  0  0  0  0  0
  -22.6802  -23.2033   29.5852 N   0  3  0  0  0  0  0  0  0  0  0  0
  -22.2272  -14.3351   20.6552 O   0  0  0  0  0  0  0  0  0  0  0  0
  -23.4680  -28.9198   23.5110 O   0  0  0  0  0  0  0  0  0  0  0  0
  -21.4976  -28.2248   26.6462 O   0  0  0  0  0  0  0  0  0  0  0  0
  -24.4288  -24.7542   28.0189 O   0  0  0  0  0  0  0  0  0  0  0  0
  -30.7519  -17.9186   20.0633 O   0  0  0  0  0  0  0  0  0  0  0  0
  -23.7491   -8.1794   25.1692 O   0  0  0  0  0  0  0  0  0  0  0  0
  -26.0562  -23.1609   21.6029 O   0  0  0  0  0  0  0  0  0  1  0  0
  -19.6863   -4.8934   23.4083 F   0  0  0  0  0  0  0  0  0  0  0  0
  -24.1967   -5.4894   24.7148 F   0  0  0  0  0  0  0  0  0  0  0  0
  1  2  1  0  0  0  0
  1  5  2  0  0  0  0
  2  6  2  0  0  0  0
  3  8  2  0  0  0  0
  3 15  1  0  0  0  0
  4  9  1  0  0  0  0
  4 15  2  0  0  0  0
  5 17  1  0  0  0  0
  6 19  1  0  0  0  0
  7 10  2  0  0  0  0
  7 18  1  0  0  0  0
  8 21  1  0  0  0  0
  9 21  2  0  0  0  0
 10 22  1  0  0  0  0
 11 12  2  0  0  0  0
 11 23  1  0  0  0  0
 12 24  1  0  0  0  0
 13 20  1  0  0  0  0
 13 22  2  0  0  0  0
 14 24  2  0  0  0  0
 14 25  1  0  0  0  0
 15 26  1  0  0  0  0
 16 26  1  0  0  0  0
 16 27  2  0  0  0  0
 16 31  1  0  0  0  0
 17 19  2  0  0  0  0
 17 36  1  0  0  0  0
 18 20  2  0  0  0  0
 18 37  1  0  0  0  0
 19 45  1  0  0  0  0
 20 38  1  0  0  0  0
 21 76  1  0  0  0  0
 22 77  1  0  0  0  0
 23 25  2  0  0  0  0
 23 76  1  0  0  0  0
 24 78  1  0  0  0  0
 25 79  1  0  0  0  0
 26 58  2  0  0  0  0
 27 62  1  0  0  0  0
 27 65  1  0  0  0  0
 28 48  1  0  0  0  0
 28 59  2  0  0  0  0
 28 60  1  0  0  0  0
 29 54  1  0  0  0  0
 29 59  1  0  0  0  0
 29 61  2  0  0  0  0
 30 60  2  0  0  0  0
 30 61  1  0  0  0  0
 30 67  1  0  0  0  0
 31 66  1  0  0  0  0
 31 71  2  0  0  0  0
 32 46  1  0  0  0  0
 32 68  1  0  0  0  0
 32 72  2  0  0  0  0
 33 55  1  0  0  0  0
 33 63  1  0  0  0  0
 33 73  2  0  0  0  0
 34 56  1  0  0  0  0
 34 69  1  0  0  0  0
 34 74  2  0  0  0  0
 35 64  1  0  0  0  0
 35 67  1  0  0  0  0
 35 75  2  0  0  0  0
 36 39  1  0  0  0  0
 37 46  1  0  0  0  0
 38 63  1  0  0  0  0
 39 41  1  0  0  0  0
 40 42  1  0  0  0  0
 40 43  1  0  0  0  0
 41 45  1  0  0  0  0
 42 47  1  0  0  0  0
 43 64  1  0  0  0  0
 44 47  1  0  0  0  0
 44 64  1  0  0  0  0
 45 68  1  0  0  0  0
 46 63  1  0  0  0  0
 47 62  1  0  0  0  0
 49 56  1  0  0  0  0
 50 57  1  0  0  0  0
 51 57  1  0  0  0  0
 52 57  1  0  0  0  0
 53 70  1  0  0  0  0
 54 77  1  0  0  0  0
 55 57  1  0  0  0  0
 55 69  1  0  0  0  0
 56 70  1  0  0  0  0
 58 62  1  0  0  0  0
M  CHG  1  70   1
M  ISO  4  35 100  54 101  67 100  77 101
M  END
> <Batch ID>
0182

> <Smiles>
CNC(C)C(=O)NC(C(=O)N1Cc2cc([101O:1][101CH2:1]c3nc(C)nc([100NH:0][100C:0](=O)N4CCCC(n5nc(-c6ccc(Oc7ccc(F)cc7F)cc6)c(C(N)=O)c5N)C4)n3)ccc2CC1C(=O)NC1CCCc2ccccc21)C(C)(C)C

> <Shape>
0.192

> <Color>
0.143

> <Negative vol penalty>
0.000

$$$$

  -OEChem-04052323053D

 84 93  0     1  0  0  0  0  0999 V2000
  -30.2933  -28.4692   25.9622 C   0  0  0  0  0  0  0  0  0  0  0  0
  -29.5794  -27.8110   24.9659 C   0  0  0  0  0  0  0  0  0  0  0  0
  -22.4249  -10.4022   22.0951 C   0  0  0  0  0  0  0  0  0  0  0  0
  -22.9158   -9.9829   19.7670 C   0  0  0  0  0  0  0  0  0  0  0  0
  -29.6471  -29.3834   26.7931 C   0  0  0  0  0  0  0  0  0  0  0  0
  -28.2185  -28.0660   24.8007 C   0  0  0  0  0  0  0  0  0  0  0  0
  -26.9330  -28.6795   19.9410 C   0  0  0  0  0  0  0  0  0  0  0  0
  -21.8953   -9.1174   22.2149 C   0  0  0  0  0  0  0  0  0  0  0  0
  -22.3862   -8.6980   19.8868 C   0  0  0  0  0  0  0  0  0  0  0  0
  -26.8038  -27.5276   19.1663 C   0  0  0  0  0  0  0  0  0  0  0  0
  -23.0642   -5.9639   22.5644 C   0  0  0  0  0  0  0  0  0  0  0  0
  -23.4305   -5.2133   23.6815 C   0  0  0  0  0  0  0  0  0  0  0  0
  -24.4079  -27.6270   19.4287 C   0  0  0  0  0  0  0  0  0  0  0  0
  -21.1117   -5.0683   24.3444 C   0  0  0  0  0  0  0  0  0  0  0  0
  -27.3190  -21.5042   19.5316 C   0  0  0  0  0  0  0  0  0  0  0  0
  -22.9351  -10.8350   20.8712 C   0  0  0  0  0  0  0  0  0  0  0  0
  -24.8172  -12.5549   20.9574 C   0  0  0  0  0  0  0  0  0  0  0  0
  -28.2797  -29.6570   26.6317 C   0  0  0  0  0  0  0  0  0  0  0  0
  -25.7994  -29.3086   20.4754 C   0  0  0  0  0  0  0  0  0  0  0  0
  -27.5531  -28.9838   25.6311 C   0  0  0  0  0  0  0  0  0  0  0  0
  -24.5252  -28.7882   20.2078 C   0  0  0  0  0  0  0  0  0  0  0  0
  -21.8759   -8.2653   21.1107 C   0  0  0  0  0  0  0  0  0  0  0  0
  -25.5414  -26.9995   18.9124 C   0  0  0  0  0  0  0  0  0  0  0  0
  -21.7216   -6.2668   22.3373 C   0  0  0  0  0  0  0  0  0  0  0  0
  -22.4542   -4.7655   24.5715 C   0  0  0  0  0  0  0  0  0  0  0  0
  -20.7454   -5.8189   23.2272 C   0  0  0  0  0  0  0  0  0  0  0  0
  -23.4818  -12.1623   20.7467 C   0  0  0  0  0  0  0  0  0  0  0  0
  -27.7378  -20.2094   19.3021 C   0  0  0  0  0  0  0  0  0  0  0  0
  -26.2539  -21.9317   18.7655 C   0  0  0  0  0  0  0  0  0  0  0  0
  -24.8202  -13.9066   20.7137 C   0  0  0  0  0  0  0  0  0  0  0  0
  -26.1381  -19.9201   17.7133 C   0  0  0  0  0  0  0  0  0  0  0  0
  -25.9533  -11.7680   21.3391 C   0  0  0  0  0  0  0  0  0  0  0  0
  -24.7547  -29.9317   23.4121 C   0  0  0  0  0  0  0  0  0  0  0  0
  -22.4409  -31.5582   21.8237 C   0  0  0  0  0  0  0  0  0  0  0  0
  -20.6525  -31.9842   18.9485 C   0  0  0  0  0  0  0  0  0  0  0  0
  -23.2999  -18.2981   17.6237 C   0  0  0  0  0  0  0  0  0  0  0  0
  -27.6142  -30.6181   27.5846 C   0  0  0  0  0  0  0  0  0  0  0  0
  -25.9537  -30.5657   21.2869 C   0  0  0  0  0  0  0  0  0  0  0  0
  -23.2753  -29.4374   20.7413 C   0  0  0  0  0  0  0  0  0  0  0  0
  -26.2525  -31.1103   27.1012 C   0  0  0  0  0  0  0  0  0  0  0  0
  -20.9877  -17.1451   20.0734 C   0  0  0  0  0  0  0  0  0  0  0  0
  -25.4103  -29.9422   26.5984 C   0  0  0  0  0  0  0  0  0  0  0  0
  -28.7005  -18.3969   20.8711 C   0  0  0  0  0  0  0  0  0  0  0  0
  -28.8202  -19.7024   21.5933 C   0  0  0  0  0  0  0  0  0  0  0  0
  -21.5371  -15.7764   20.4793 C   0  0  0  0  0  0  0  0  0  0  0  0
  -21.1936  -17.4170   18.5849 C   0  0  0  0  0  0  0  0  0  0  0  0
  -23.1326  -15.8971   18.5201 C   0  0  0  0  0  0  0  0  0  0  0  0
  -26.0810  -29.2520   25.4045 C   0  0  1  0  0  0  0  0  0  0  0  0
  -28.8849  -19.6706   20.0890 C   0  0  0  0  0  0  0  0  0  0  0  0
  -24.7674  -30.8312   22.2086 C   0  0  1  0  0  0  0  0  0  0  0  0
  -22.9982  -15.6010   20.0236 C   0  0  2  0  0  0  0  0  0  0  0  0
  -18.8039  -33.3673   17.9651 C   0  0  0  0  0  0  0  0  0  0  0  0
  -20.3931  -29.9431   23.4074 C   0  0  0  0  0  0  0  0  0  0  0  0
  -18.6554  -30.6530   21.7508 C   0  0  0  0  0  0  0  0  0  0  0  0
  -19.8282  -32.3641   23.1362 C   0  0  0  0  0  0  0  0  0  0  0  0
  -22.4264  -33.0664   16.8411 C   0  0  0  0  0  0  0  0  0  0  0  0
  -25.4820  -19.0406   16.7037 C   0  0  0  0  0  0  0  0  0  0  0  0
  -24.3022  -25.0250   18.4417 C   0  0  0  0  0  0  0  0  0  1  0  0
  -24.6795  -23.5924   18.1180 C   0  0  0  0  0  0  0  0  0  0  0  0
  -21.0811  -31.2120   21.2668 C   0  0  1  0  0  0  0  0  0  0  0  0
  -20.3068  -33.2297   18.1524 C   0  0  2  0  0  0  0  0  0  0  0  0
  -20.0129  -31.0295   22.3817 C   0  0  0  0  0  0  0  0  0  0  0  0
  -22.6937  -13.1822   20.3963 N   0  0  0  0  0  0  0  0  0  0  0  0
  -27.1680  -19.3866   18.3973 N   0  0  0  0  0  0  0  0  0  0  0  0
  -25.6373  -21.1634   17.8436 N   0  0  0  0  0  0  0  0  0  0  0  0
  -23.5364  -14.2290   20.3850 N   0  0  0  0  0  0  0  0  0  0  0  0
  -23.4787  -30.6609   21.5346 N   0  0  0  0  0  0  0  0  0  0  0  0
  -22.6002  -17.2351   18.2181 N   0  0  0  0  0  0  0  0  0  0  0  0
  -25.7958  -14.8389   20.7507 N   0  0  0  0  0  0  0  0  0  0  0  0
  -25.7742  -10.3940   21.5496 N   0  0  0  0  0  0  0  0  0  0  0  0
  -25.8872  -30.0275   24.1981 N   0  0  0  0  0  0  0  0  0  0  0  0
  -20.7603  -32.2532   20.2965 N   0  0  0  0  0  0  0  0  0  0  0  0
  -24.6302  -18.0438   17.3133 N   0  0  0  0  0  0  0  0  0  0  0  0
  -20.9454  -33.1782   16.8069 N   0  3  0  0  0  0  0  0  0  0  0  0
  -27.0902  -12.2714   21.5051 O   0  0  0  0  0  0  0  0  0  0  0  0
  -23.7883  -29.2056   23.6135 O   0  0  0  0  0  0  0  0  0  0  0  0
  -22.5787  -32.5905   22.4847 O   0  0  0  0  0  0  0  0  0  0  0  0
  -20.8075  -30.8821   18.4271 O   0  0  0  0  0  0  0  0  0  0  0  0
  -22.7792  -19.3946   17.3920 O   0  0  0  0  0  0  0  0  0  0  0  0
  -21.3595   -7.0114   21.2273 O   0  0  0  0  0  0  0  0  0  0  0  0
  -25.4126  -25.8750   18.1570 O   0  0  0  0  0  0  0  0  0  1  0  0
  -25.7785  -23.2056   18.9340 O   0  0  0  0  0  0  0  0  0  0  0  0
  -22.8060   -4.0434   25.6434 F   0  0  0  0  0  0  0  0  0  0  0  0
  -19.4539   -6.1057   23.0137 F   0  0  0  0  0  0  0  0  0  0  0  0
  1  2  1  0  0  0  0
  1  5  2  0  0  0  0
  2  6  2  0  0  0  0
  3  8  2  0  0  0  0
  3 16  1  0  0  0  0
  4  9  1  0  0  0  0
  4 16  2  0  0  0  0
  5 18  1  0  0  0  0
  6 20  1  0  0  0  0
  7 10  2  0  0  0  0
  7 19  1  0  0  0  0
  8 22  1  0  0  0  0
  9 22  2  0  0  0  0
 10 23  1  0  0  0  0
 11 12  2  0  0  0  0
 11 24  1  0  0  0  0
 12 25  1  0  0  0  0
 13 21  1  0  0  0  0
 13 23  2  0  0  0  0
 14 25  2  0  0  0  0
 14 26  1  0  0  0  0
 15 28  2  0  0  0  0
 15 29  1  0  0  0  0
 16 27  1  0  0  0  0
 17 27  1  0  0  0  0
 17 30  2  0  0  0  0
 17 32  1  0  0  0  0
 18 20  2  0  0  0  0
 18 37  1  0  0  0  0
 19 21  2  0  0  0  0
 19 38  1  0  0  0  0
 20 48  1  0  0  0  0
 21 39  1  0  0  0  0
 22 80  1  0  0  0  0
 23 81  1  0  0  0  0
 24 26  2  0  0  0  0
 24 80  1  0  0  0  0
 25 83  1  0  0  0  0
 26 84  1  0  0  0  0
 27 63  2  0  0  0  0
 28 49  1  0  0  0  0
 28 64  1  0  0  0  0
 29 65  2  0  0  0  0
 29 82  1  0  0  0  0
 30 66  1  0  0  0  0
 30 69  1  0  0  0  0
 31 57  1  0  0  0  0
 31 64  2  0  0  0  0
 31 65  1  0  0  0  0
 32 70  1  0  0  0  0
 32 75  2  0  0  0  0
 33 50  1  0  0  0  0
 33 71  1  0  0  0  0
 33 76  2  0  0  0  0
 34 60  1  0  0  0  0
 34 67  1  0  0  0  0
 34 77  2  0  0  0  0
 35 61  1  0  0  0  0
 35 72  1  0  0  0  0
 35 78  2  0  0  0  0
 36 68  1  0  0  0  0
 36 73  1  0  0  0  0
 36 79  2  0  0  0  0
 37 40  1  0  0  0  0
 38 50  1  0  0  0  0
 39 67  1  0  0  0  0
 40 42  1  0  0  0  0
 41 45  1  0  0  0  0
 41 46  1  0  0  0  0
 42 48  1  0  0  0  0
 43 44  1  0  0  0  0
 43 49  1  0  0  0  0
 44 49  1  0  0  0  0
 45 51  1  0  0  0  0
 46 68  1  0  0  0  0
 47 51  1  0  0  0  0
 47 68  1  0  0  0  0
 48 71  1  0  0  0  0
 50 67  1  0  0  0  0
 51 66  1  0  0  0  0
 52 61  1  0  0  0  0
 53 62  1  0  0  0  0
 54 62  1  0  0  0  0
 55 62  1  0  0  0  0
 56 74  1  0  0  0  0
 57 73  1  0  0  0  0
 58 59  1  0  0  0  0
 58 81  1  0  0  0  0
 59 82  1  0  0  0  0
 60 62  1  0  0  0  0
 60 72  1  0  0  0  0
 61 74  1  0  0  0  0
 63 66  1  0  0  0  0
M  CHG  1  74   1
M  ISO  4  36 100  58 101  73 100  81 101
M  END
> <Batch ID>
0182

> <Smiles>
CNC(C)C(=O)NC(C(=O)N1Cc2cc([101O:1][101CH2:1]COc3cc(C4CC4)nc(C[100NH:0][100C:0](=O)N4CCCC(n5nc(-c6ccc(Oc7ccc(F)cc7F)cc6)c(C(N)=O)c5N)C4)n3)ccc2CC1C(=O)NC1CCCc2ccccc21)C(C)(C)C

> <Shape>
0.239

> <Color>
0.121

> <Negative vol penalty>
0.000

$$$$

  -OEChem-04052323053D

 80 88  0     1  0  0  0  0  0999 V2000
  -26.7609  -32.9333   17.8395 C   0  0  0  0  0  0  0  0  0  0  0  0
  -27.3292  -31.7870   18.3857 C   0  0  0  0  0  0  0  0  0  0  0  0
  -23.0688   -9.8355   19.9496 C   0  0  0  0  0  0  0  0  0  0  0  0
  -23.8395   -9.8568   22.2393 C   0  0  0  0  0  0  0  0  0  0  0  0
  -25.9113  -32.8322   16.7387 C   0  0  0  0  0  0  0  0  0  0  0  0
  -27.0473  -30.5386   17.8320 C   0  0  0  0  0  0  0  0  0  0  0  0
  -30.8457  -25.7526   17.4172 C   0  0  0  0  0  0  0  0  0  0  0  0
  -22.3365   -8.6766   20.2068 C   0  0  0  0  0  0  0  0  0  0  0  0
  -23.1072   -8.6978   22.4966 C   0  0  0  0  0  0  0  0  0  0  0  0
  -30.9979  -24.6058   18.1952 C   0  0  0  0  0  0  0  0  0  0  0  0
  -19.8892   -7.8731   23.1171 C   0  0  0  0  0  0  0  0  0  0  0  0
  -19.1383   -7.8302   24.2917 C   0  0  0  0  0  0  0  0  0  0  0  0
  -29.5873  -23.3871   16.6641 C   0  0  0  0  0  0  0  0  0  0  0  0
  -20.4005   -5.9063   25.0284 C   0  0  0  0  0  0  0  0  0  0  0  0
  -29.1257  -19.6079   20.0028 C   0  0  0  0  0  0  0  0  0  0  0  0
  -23.8204  -10.4256   20.9659 C   0  0  0  0  0  0  0  0  0  0  0  0
  -24.1390  -12.9533   20.8361 C   0  0  0  0  0  0  0  0  0  0  0  0
  -25.6265  -31.5829   16.1652 C   0  0  0  0  0  0  0  0  0  0  0  0
  -30.0530  -25.7281   16.2608 C   0  0  0  0  0  0  0  0  0  0  0  0
  -26.1920  -30.4206   16.7233 C   0  0  0  0  0  0  0  0  0  0  0  0
  -29.4287  -24.5344   15.8718 C   0  0  0  0  0  0  0  0  0  0  0  0
  -30.0965  -20.0165   19.1113 C   0  0  0  0  0  0  0  0  0  0  0  0
  -22.3557   -8.1077   21.4803 C   0  0  0  0  0  0  0  0  0  0  0  0
  -30.3664  -23.4235   17.8203 C   0  0  0  0  0  0  0  0  0  0  0  0
  -20.8958   -6.9326   22.8980 C   0  0  0  0  0  0  0  0  0  0  0  0
  -19.3939   -6.8468   25.2474 C   0  0  0  0  0  0  0  0  0  0  0  0
  -21.1515   -5.9492   23.8537 C   0  0  0  0  0  0  0  0  0  0  0  0
  -24.5775  -11.6225   20.7006 C   0  0  0  0  0  0  0  0  0  0  0  0
  -31.2975  -19.3409   19.1853 C   0  0  0  0  0  0  0  0  0  0  0  0
  -25.2226  -13.7114   20.4652 C   0  0  0  0  0  0  0  0  0  0  0  0
  -30.5169  -18.0358   20.8748 C   0  0  0  0  0  0  0  0  0  0  0  0
  -22.8659  -13.4591   21.2595 C   0  0  0  0  0  0  0  0  0  0  0  0
  -27.4152  -27.2300   15.3173 C   0  0  0  0  0  0  0  0  0  0  0  0
  -28.0196  -25.7099   12.5161 C   0  0  0  0  0  0  0  0  0  0  0  0
  -29.5006  -23.0943   10.9000 C   0  0  0  0  0  0  0  0  0  0  0  0
  -30.6978  -14.7802   20.6241 C   0  0  0  0  0  0  0  0  0  0  0  0
  -24.6648  -31.5190   15.0052 C   0  0  0  0  0  0  0  0  0  0  0  0
  -29.9205  -26.9668   15.4178 C   0  0  0  0  0  0  0  0  0  0  0  0
  -28.5833  -24.4502   14.6281 C   0  0  0  0  0  0  0  0  0  0  0  0
  -24.7138  -30.1958   14.2456 C   0  0  0  0  0  0  0  0  0  0  0  0
  -29.5703  -12.3778   18.2504 C   0  0  0  0  0  0  0  0  0  0  0  0
  -24.7014  -29.0210   15.2184 C   0  0  0  0  0  0  0  0  0  0  0  0
  -28.1376  -12.0726   18.6912 C   0  0  0  0  0  0  0  0  0  0  0  0
  -30.4911  -12.6107   19.4462 C   0  0  0  0  0  0  0  0  0  0  0  0
  -28.5895  -13.3292   20.8395 C   0  0  0  0  0  0  0  0  0  0  0  0
  -25.9301  -29.0510   16.1354 C   0  0  1  0  0  0  0  0  0  0  0  0
  -28.6728  -26.9615   14.5400 C   0  0  1  0  0  0  0  0  0  0  0  0
  -27.6114  -13.1421   19.6671 C   0  0  2  0  0  0  0  0  0  0  0  0
  -32.4214  -19.6972   18.2691 C   0  0  0  0  0  0  0  0  0  0  0  0
  -29.7873  -22.0986    8.6144 C   0  0  0  0  0  0  0  0  0  0  0  0
  -25.1691  -24.6278   12.6326 C   0  0  0  0  0  0  0  0  0  0  0  0
  -25.8143  -22.9376   10.9019 C   0  0  0  0  0  0  0  0  0  0  0  0
  -25.9107  -25.3713   10.3629 C   0  0  0  0  0  0  0  0  0  0  0  0
  -32.4408  -23.4165   11.0015 C   0  0  0  0  0  0  0  0  0  0  0  0
  -29.8375  -21.1264   18.1353 C   0  0  0  0  0  0  0  0  0  1  0  0
  -30.7502  -16.9352   21.8537 C   0  0  0  0  0  0  0  0  0  0  0  0
  -27.6376  -24.3771   11.9189 C   0  0  1  0  0  0  0  0  0  0  0  0
  -30.3699  -23.0405    9.6566 C   0  0  2  0  0  0  0  0  0  0  0  0
  -26.1472  -24.3302   11.4786 C   0  0  0  0  0  0  0  0  0  0  0  0
  -29.3025  -18.6172   20.9015 N   0  0  0  0  0  0  0  0  0  0  0  0
  -25.8412  -11.5367   20.2766 N   0  0  0  0  0  0  0  0  0  0  0  0
  -31.5431  -18.3420   20.0583 N   0  0  0  0  0  0  0  0  0  0  0  0
  -26.2059  -12.8231   20.1424 N   0  0  0  0  0  0  0  0  0  0  0  0
  -28.4791  -25.6898   13.8406 N   0  0  0  0  0  0  0  0  0  0  0  0
  -29.9356  -13.6372   20.3315 N   0  0  0  0  0  0  0  0  0  0  0  0
  -25.4207  -15.0444   20.3869 N   0  0  0  0  0  0  0  0  0  0  0  0
  -21.8638  -12.5420   21.6045 N   0  0  0  0  0  0  0  0  0  0  0  0
  -27.0989  -28.5704   15.4302 N   0  0  0  0  0  0  0  0  0  0  0  0
  -28.5875  -24.1258   10.8405 N   0  0  0  0  0  0  0  0  0  0  0  0
  -30.0943  -15.7063   21.4660 N   0  0  0  0  0  0  0  0  0  0  0  0
  -31.7404  -22.5685   10.0028 N   0  3  0  0  0  0  0  0  0  0  0  0
  -22.6189  -14.6877   21.3140 O   0  0  0  0  0  0  0  0  0  0  0  0
  -26.7781  -26.2905   15.7790 O   0  0  0  0  0  0  0  0  0  0  0  0
  -27.9208  -26.7305   11.8303 O   0  0  0  0  0  0  0  0  0  0  0  0
  -29.6173  -22.2985   11.8293 O   0  0  0  0  0  0  0  0  0  0  0  0
  -31.8300  -14.9643   20.1645 O   0  0  0  0  0  0  0  0  0  0  0  0
  -21.6410   -6.9770   21.7317 O   0  0  0  0  0  0  0  0  0  0  0  0
  -30.5128  -22.3029   18.5783 O   0  0  0  0  0  0  0  0  0  1  0  0
  -18.6737   -6.8067   26.3760 F   0  0  0  0  0  0  0  0  0  0  0  0
  -22.1180   -5.0437   23.6494 F   0  0  0  0  0  0  0  0  0  0  0  0
  1  2  1  0  0  0  0
  1  5  2  0  0  0  0
  2  6  2  0  0  0  0
  3  8  2  0  0  0  0
  3 16  1  0  0  0  0
  4  9  1  0  0  0  0
  4 16  2  0  0  0  0
  5 18  1  0  0  0  0
  6 20  1  0  0  0  0
  7 10  2  0  0  0  0
  7 19  1  0  0  0  0
  8 23  1  0  0  0  0
  9 23  2  0  0  0  0
 10 24  1  0  0  0  0
 11 12  2  0  0  0  0
 11 25  1  0  0  0  0
 12 26  1  0  0  0  0
 13 21  1  0  0  0  0
 13 24  2  0  0  0  0
 14 26  2  0  0  0  0
 14 27  1  0  0  0  0
 15 22  1  0  0  0  0
 15 60  2  0  0  0  0
 16 28  1  0  0  0  0
 17 28  1  0  0  0  0
 17 30  2  0  0  0  0
 17 32  1  0  0  0  0
 18 20  2  0  0  0  0
 18 37  1  0  0  0  0
 19 21  2  0  0  0  0
 19 38  1  0  0  0  0
 20 46  1  0  0  0  0
 21 39  1  0  0  0  0
 22 29  2  0  0  0  0
 22 55  1  0  0  0  0
 23 77  1  0  0  0  0
 24 78  1  0  0  0  0
 25 27  2  0  0  0  0
 25 77  1  0  0  0  0
 26 79  1  0  0  0  0
 27 80  1  0  0  0  0
 28 61  2  0  0  0  0
 29 49  1  0  0  0  0
 29 62  1  0  0  0  0
 30 63  1  0  0  0  0
 30 66  1  0  0  0  0
 31 56  1  0  0  0  0
 31 60  1  0  0  0  0
 31 62  2  0  0  0  0
 32 67  1  0  0  0  0
 32 72  2  0  0  0  0
 33 47  1  0  0  0  0
 33 68  1  0  0  0  0
 33 73  2  0  0  0  0
 34 57  1  0  0  0  0
 34 64  1  0  0  0  0
 34 74  2  0  0  0  0
 35 58  1  0  0  0  0
 35 69  1  0  0  0  0
 35 75  2  0  0  0  0
 36 65  1  0  0  0  0
 36 70  1  0  0  0  0
 36 76  2  0  0  0  0
 37 40  1  0  0  0  0
 38 47  1  0  0  0  0
 39 64  1  0  0  0  0
 40 42  1  0  0  0  0
 41 43  1  0  0  0  0
 41 44  1  0  0  0  0
 42 46  1  0  0  0  0
 43 48  1  0  0  0  0
 44 65  1  0  0  0  0
 45 48  1  0  0  0  0
 45 65  1  0  0  0  0
 46 68  1  0  0  0  0
 47 64  1  0  0  0  0
 48 63  1  0  0  0  0
 50 58  1  0  0  0  0
 51 59  1  0  0  0  0
 52 59  1  0  0  0  0
 53 59  1  0  0  0  0
 54 71  1  0  0  0  0
 55 78  1  0  0  0  0
 56 70  1  0  0  0  0
 57 59  1  0  0  0  0
 57 69  1  0  0  0  0
 58 71  1  0  0  0  0
 61 63  1  0  0  0  0
M  CHG  1  71   1
M  ISO  4  36 100  55 101  70 100  78 101
M  END
> <Batch ID>
0182

> <Smiles>
CNC(C)C(=O)NC(C(=O)N1Cc2cc([101O:1][101CH2:1]c3cnc(C[100NH:0][100C:0](=O)N4CCCC(n5nc(-c6ccc(Oc7ccc(F)cc7F)cc6)c(C(N)=O)c5N)C4)nc3C)ccc2CC1C(=O)NC1CCCc2ccccc21)C(C)(C)C

> <Shape>
0.223

> <Color>
0.198

> <Negative vol penalty>
0.000

$$$$

  -OEChem-04052323053D

 82 91  0     1  0  0  0  0  0999 V2000
  -17.9296  -25.1222   21.1939 C   0  0  0  0  0  0  0  0  0  0  0  0
  -19.2690  -25.0086   20.8353 C   0  0  0  0  0  0  0  0  0  0  0  0
  -23.4051  -13.8355   20.3016 C   0  0  0  0  0  0  0  0  0  0  0  0
  -23.1145  -14.4786   22.6123 C   0  0  0  0  0  0  0  0  0  0  0  0
  -17.5070  -26.1973   21.9745 C   0  0  0  0  0  0  0  0  0  0  0  0
  -20.1864  -25.9707   21.2563 C   0  0  0  0  0  0  0  0  0  0  0  0
  -24.4792  -23.9293   23.0023 C   0  0  0  0  0  0  0  0  0  0  0  0
  -22.8629  -12.5815   20.5824 C   0  0  0  0  0  0  0  0  0  0  0  0
  -22.5722  -13.2245   22.8931 C   0  0  0  0  0  0  0  0  0  0  0  0
  -25.3990  -23.4760   22.0577 C   0  0  0  0  0  0  0  0  0  0  0  0
  -21.8862   -9.0836   20.7689 C   0  0  0  0  0  0  0  0  0  0  0  0
  -22.5349   -7.9637   20.2490 C   0  0  0  0  0  0  0  0  0  0  0  0
  -26.6802  -25.5000   22.3428 C   0  0  0  0  0  0  0  0  0  0  0  0
  -24.5366   -8.5590   21.4639 C   0  0  0  0  0  0  0  0  0  0  0  0
  -29.4200  -24.4983   18.1080 C   0  0  0  0  0  0  0  0  0  0  0  0
  -23.5310  -14.7841   21.3166 C   0  0  0  0  0  0  0  0  0  0  0  0
  -23.3976  -17.2342   20.6188 C   0  0  0  0  0  0  0  0  0  0  0  0
  -18.4213  -27.1679   22.4133 C   0  0  0  0  0  0  0  0  0  0  0  0
  -24.6475  -25.1783   23.6173 C   0  0  0  0  0  0  0  0  0  0  0  0
  -19.7753  -27.0606   22.0423 C   0  0  0  0  0  0  0  0  0  0  0  0
  -25.7625  -25.9657   23.2968 C   0  0  0  0  0  0  0  0  0  0  0  0
  -29.3443  -24.1067   19.4581 C   0  0  0  0  0  0  0  0  0  0  0  0
  -22.4464  -12.2759   21.8781 C   0  0  0  0  0  0  0  0  0  0  0  0
  -26.4981  -24.2627   21.7257 C   0  0  0  0  0  0  0  0  0  0  0  0
  -22.5626   -9.9414   21.6364 C   0  0  0  0  0  0  0  0  0  0  0  0
  -23.8601   -7.7013   20.5965 C   0  0  0  0  0  0  0  0  0  0  0  0
  -23.8878   -9.6790   21.9839 C   0  0  0  0  0  0  0  0  0  0  0  0
  -24.0916  -16.0795   21.0273 C   0  0  0  0  0  0  0  0  0  0  0  0
  -30.2323  -23.0642   19.5635 C   0  0  0  0  0  0  0  0  0  0  0  0
  -24.3742  -18.1895   20.4767 C   0  0  0  0  0  0  0  0  0  0  0  0
  -21.9955  -17.4261   20.3886 C   0  0  0  0  0  0  0  0  0  0  0  0
  -22.9683  -27.8755   23.7137 C   0  0  0  0  0  0  0  0  0  0  0  0
  -25.2339  -28.7516   25.8636 C   0  0  0  0  0  0  0  0  0  0  0  0
  -28.4028  -28.3420   27.0624 C   0  0  0  0  0  0  0  0  0  0  0  0
  -29.2672  -19.6687   18.4994 C   0  0  0  0  0  0  0  0  0  0  0  0
  -17.9091  -28.3377   23.2158 C   0  0  0  0  0  0  0  0  0  0  0  0
  -23.6607  -25.6411   24.6539 C   0  0  0  0  0  0  0  0  0  0  0  0
  -25.9996  -27.3052   23.9433 C   0  0  0  0  0  0  0  0  0  0  0  0
  -19.0107  -29.1126   23.9343 C   0  0  0  0  0  0  0  0  0  0  0  0
  -29.2174  -18.2010   21.8585 C   0  0  0  0  0  0  0  0  0  0  0  0
  -20.1775  -29.3816   22.9893 C   0  0  0  0  0  0  0  0  0  0  0  0
  -27.8340  -17.5597   21.8770 C   0  0  0  0  0  0  0  0  0  0  0  0
  -32.0923  -19.6374   16.6835 C   0  0  0  0  0  0  0  0  0  0  0  0
  -29.8585  -18.1610   20.4707 C   0  0  0  0  0  0  0  0  0  0  0  0
  -31.6698  -18.8219   17.9094 C   0  0  0  0  0  0  0  0  0  0  0  0
  -27.6103  -18.0886   19.4247 C   0  0  0  0  0  0  0  0  0  0  0  0
  -20.8049  -28.0707   22.5002 C   0  0  1  0  0  0  0  0  0  0  0  0
  -23.6551  -27.1553   24.8395 C   0  0  1  0  0  0  0  0  0  0  0  0
  -26.9360  -18.1867   20.8003 C   0  0  1  0  0  0  0  0  0  0  0  0
  -31.1494  -20.7551   17.1548 C   0  0  2  0  0  0  0  0  0  0  0  0
  -30.6147  -22.2235   20.7138 C   0  0  0  0  0  0  0  0  0  0  0  0
  -29.9807  -29.2270   28.8015 C   0  0  0  0  0  0  0  0  0  0  0  0
  -25.6989  -31.2460   24.1689 C   0  0  0  0  0  0  0  0  0  0  0  0
  -27.8623  -31.5827   25.3833 C   0  0  0  0  0  0  0  0  0  0  0  0
  -25.7070  -31.6455   26.6377 C   0  0  0  0  0  0  0  0  0  0  0  0
  -28.6206  -25.6992   28.3764 C   0  0  0  0  0  0  0  0  0  0  0  0
  -28.5007  -24.6882   20.5154 C   0  0  0  0  0  0  0  0  0  1  0  0
  -31.7618  -21.9157   17.9137 C   0  0  0  0  0  0  0  0  0  0  0  0
  -26.5790  -29.4321   25.7819 C   0  0  1  0  0  0  0  0  0  0  0  0
  -28.9314  -28.1755   28.4756 C   0  0  2  0  0  0  0  0  0  0  0  0
  -26.4566  -30.9522   25.4792 C   0  0  0  0  0  0  0  0  0  0  0  0
  -30.2877  -23.7644   17.4061 N   0  0  0  0  0  0  0  0  0  0  0  0
  -25.4075  -16.2807   21.1373 N   0  0  0  0  0  0  0  0  0  0  0  0
  -30.7654  -22.9013   18.3188 N   0  0  0  0  0  0  0  0  0  0  0  0
  -25.5481  -17.5729   20.7958 N   0  0  0  0  0  0  0  0  0  0  0  0
  -25.0033  -27.7167   24.9461 N   0  0  0  0  0  0  0  0  0  0  0  0
  -28.9553  -18.6760   19.4347 N   0  0  0  0  0  0  0  0  0  0  0  0
  -30.5702  -19.7632   18.0636 N   0  0  0  0  0  0  0  0  0  0  0  0
  -24.3347  -19.4884   20.1110 N   0  0  0  0  0  0  0  0  0  0  0  0
  -21.1318  -16.3394   20.5817 N   0  0  0  0  0  0  0  0  0  0  0  0
  -21.6512  -27.5015   23.5270 N   0  0  0  0  0  0  0  0  0  0  0  0
  -27.2683  -29.1251   27.0304 N   0  0  0  0  0  0  0  0  0  0  0  0
  -29.5477  -26.8289   28.6428 N   0  3  0  0  0  0  0  0  0  0  0  0
  -21.5246  -18.5243   20.0067 O   0  0  0  0  0  0  0  0  0  0  0  0
  -23.5871  -28.7098   23.0636 O   0  0  0  0  0  0  0  0  0  0  0  0
  -24.4207  -29.1197   26.7149 O   0  0  0  0  0  0  0  0  0  0  0  0
  -28.9444  -27.8319   26.0842 O   0  0  0  0  0  0  0  0  0  0  0  0
  -28.4047  -20.4299   18.0417 O   0  0  0  0  0  0  0  0  0  0  0  0
  -21.9169  -11.0524   22.1524 O   0  0  0  0  0  0  0  0  0  0  0  0
  -27.4013  -23.8208   20.7991 O   0  0  0  0  0  0  0  0  0  1  0  0
  -24.4825   -6.6249   20.0983 F   0  0  0  0  0  0  0  0  0  0  0  0
  -24.5425  -10.4988   22.8177 F   0  0  0  0  0  0  0  0  0  0  0  0
  1  2  1  0  0  0  0
  1  5  2  0  0  0  0
  2  6  2  0  0  0  0
  3  8  2  0  0  0  0
  3 16  1  0  0  0  0
  4  9  1  0  0  0  0
  4 16  2  0  0  0  0
  5 18  1  0  0  0  0
  6 20  1  0  0  0  0
  7 10  2  0  0  0  0
  7 19  1  0  0  0  0
  8 23  1  0  0  0  0
  9 23  2  0  0  0  0
 10 24  1  0  0  0  0
 11 12  2  0  0  0  0
 11 25  1  0  0  0  0
 12 26  1  0  0  0  0
 13 21  1  0  0  0  0
 13 24  2  0  0  0  0
 14 26  2  0  0  0  0
 14 27  1  0  0  0  0
 15 22  1  0  0  0  0
 15 62  2  0  0  0  0
 16 28  1  0  0  0  0
 17 28  1  0  0  0  0
 17 30  2  0  0  0  0
 17 31  1  0  0  0  0
 18 20  2  0  0  0  0
 18 36  1  0  0  0  0
 19 21  2  0  0  0  0
 19 37  1  0  0  0  0
 20 47  1  0  0  0  0
 21 38  1  0  0  0  0
 22 29  2  0  0  0  0
 22 57  1  0  0  0  0
 23 79  1  0  0  0  0
 24 80  1  0  0  0  0
 25 27  2  0  0  0  0
 25 79  1  0  0  0  0
 26 81  1  0  0  0  0
 27 82  1  0  0  0  0
 28 63  2  0  0  0  0
 29 51  1  0  0  0  0
 29 64  1  0  0  0  0
 30 65  1  0  0  0  0
 30 69  1  0  0  0  0
 31 70  1  0  0  0  0
 31 74  2  0  0  0  0
 32 48  1  0  0  0  0
 32 71  1  0  0  0  0
 32 75  2  0  0  0  0
 33 59  1  0  0  0  0
 33 66  1  0  0  0  0
 33 76  2  0  0  0  0
 34 60  1  0  0  0  0
 34 72  1  0  0  0  0
 34 77  2  0  0  0  0
 35 67  1  0  0  0  0
 35 68  1  0  0  0  0
 35 78  2  0  0  0  0
 36 39  1  0  0  0  0
 37 48  1  0  0  0  0
 38 66  1  0  0  0  0
 39 41  1  0  0  0  0
 40 42  1  0  0  0  0
 40 44  1  0  0  0  0
 41 47  1  0  0  0  0
 42 49  1  0  0  0  0
 43 45  1  0  0  0  0
 43 50  1  0  0  0  0
 44 67  1  0  0  0  0
 45 68  1  0  0  0  0
 46 49  1  0  0  0  0
 46 67  1  0  0  0  0
 47 71  1  0  0  0  0
 48 66  1  0  0  0  0
 49 65  1  0  0  0  0
 50 58  1  0  0  0  0
 50 68  1  0  0  0  0
 52 60  1  0  0  0  0
 53 61  1  0  0  0  0
 54 61  1  0  0  0  0
 55 61  1  0  0  0  0
 56 73  1  0  0  0  0
 57 80  1  0  0  0  0
 58 64  1  0  0  0  0
 59 61  1  0  0  0  0
 59 72  1  0  0  0  0
 60 73  1  0  0  0  0
 62 64  1  0  0  0  0
 63 65  1  0  0  0  0
M  CHG  1  73   1
M  ISO  4  35 100  57 101  68 100  80 101
M  END
> <Batch ID>
0182

> <Smiles>
CNC(C)C(=O)NC(C(=O)N1Cc2cc([101O:1][101CH2:1]c3cnn(CC4CC[100N:0]4[100C:0](=O)N4CCCC(n5nc(-c6ccc(Oc7ccc(F)cc7F)cc6)c(C(N)=O)c5N)C4)c3C)ccc2CC1C(=O)NC1CCCc2ccccc21)C(C)(C)C

> <Shape>
0.237

> <Color>
0.071

> <Negative vol penalty>
0.000

$$$$

  -OEChem-04052323053D

 83 92  0     1  0  0  0  0  0999 V2000
  -26.7877  -27.3932   19.1992 C   0  0  0  0  0  0  0  0  0  0  0  0
  -26.7528  -26.0339   18.9053 C   0  0  0  0  0  0  0  0  0  0  0  0
  -30.0288  -20.8477   21.4593 C   0  0  0  0  0  0  0  0  0  0  0  0
  -28.2404  -19.7620   20.2511 C   0  0  0  0  0  0  0  0  0  0  0  0
  -26.5641  -27.8290   20.5045 C   0  0  0  0  0  0  0  0  0  0  0  0
  -26.4954  -25.1094   19.9170 C   0  0  0  0  0  0  0  0  0  0  0  0
  -23.4118  -19.8440   19.3949 C   0  0  0  0  0  0  0  0  0  0  0  0
  -29.9002  -21.9700   20.6411 C   0  0  0  0  0  0  0  0  0  0  0  0
  -28.1117  -20.8844   19.4330 C   0  0  0  0  0  0  0  0  0  0  0  0
  -23.8304  -18.5230   19.2413 C   0  0  0  0  0  0  0  0  0  0  0  0
  -30.2837  -24.9807   18.6380 C   0  0  0  0  0  0  0  0  0  0  0  0
  -31.4509  -25.5579   18.1380 C   0  0  0  0  0  0  0  0  0  0  0  0
  -23.6353  -18.1906   21.6226 C   0  0  0  0  0  0  0  0  0  0  0  0
  -32.0013  -23.4836   17.0282 C   0  0  0  0  0  0  0  0  0  0  0  0
  -29.1990  -19.7436   21.2642 C   0  0  0  0  0  0  0  0  0  0  0  0
  -28.6630  -18.3345   23.3221 C   0  0  0  0  0  0  0  0  0  0  0  0
  -26.2943  -26.9101   21.5309 C   0  0  0  0  0  0  0  0  0  0  0  0
  -23.1117  -20.3521   20.6670 C   0  0  0  0  0  0  0  0  0  0  0  0
  -26.2693  -25.5332   21.2376 C   0  0  0  0  0  0  0  0  0  0  0  0
  -23.2106  -19.5175   21.7894 C   0  0  0  0  0  0  0  0  0  0  0  0
  -28.9416  -21.9884   19.6280 C   0  0  0  0  0  0  0  0  0  0  0  0
  -23.9451  -17.6969   20.3555 C   0  0  0  0  0  0  0  0  0  0  0  0
  -29.9752  -23.6549   18.3332 C   0  0  0  0  0  0  0  0  0  0  0  0
  -32.3097  -24.8094   17.3331 C   0  0  0  0  0  0  0  0  0  0  0  0
  -30.8340  -22.9064   17.5282 C   0  0  0  0  0  0  0  0  0  0  0  0
  -29.3317  -18.5837   22.1086 C   0  0  0  0  0  0  0  0  0  0  0  0
  -29.1321  -17.1089   23.7273 C   0  0  0  0  0  0  0  0  0  0  0  0
  -26.5410  -12.9283   20.1874 C   0  0  0  0  0  0  0  0  0  0  0  0
  -24.6592  -12.0295   21.0167 C   0  0  0  0  0  0  0  0  0  0  0  0
  -24.9490  -14.2548   21.0493 C   0  0  0  0  0  0  0  0  0  0  0  0
  -27.7034  -19.1390   24.0205 C   0  0  0  0  0  0  0  0  0  0  0  0
  -24.2875  -22.6766   22.4886 C   0  0  0  0  0  0  0  0  0  0  0  0
  -21.7769  -21.9192   24.3980 C   0  0  0  0  0  0  0  0  0  0  0  0
  -19.4874  -19.5890   25.3853 C   0  0  0  0  0  0  0  0  0  0  0  0
  -31.5344  -12.6260   20.4361 C   0  0  0  0  0  0  0  0  0  0  0  0
  -26.1058  -27.4254   22.9357 C   0  0  0  0  0  0  0  0  0  0  0  0
  -22.6357  -21.7715   20.8127 C   0  0  0  0  0  0  0  0  0  0  0  0
  -22.8808  -20.0088   23.1744 C   0  0  0  0  0  0  0  0  0  0  0  0
  -25.4690  -26.4070   23.8778 C   0  0  0  0  0  0  0  0  0  0  0  0
  -32.9688  -14.2547   23.4001 C   0  0  0  0  0  0  0  0  0  0  0  0
  -26.1412  -25.0461   23.7260 C   0  0  0  0  0  0  0  0  0  0  0  0
  -32.1654  -15.5555   23.4797 C   0  0  0  0  0  0  0  0  0  0  0  0
  -28.3560  -11.3257   19.2463 C   0  0  0  0  0  0  0  0  0  0  0  0
  -33.1139  -13.7560   21.9635 C   0  0  0  0  0  0  0  0  0  0  0  0
  -29.8512  -11.4778   19.0174 C   0  0  0  0  0  0  0  0  0  0  0  0
  -29.0724  -13.3149   20.3470 C   0  0  0  0  0  0  0  0  0  0  0  0
  -31.0604  -14.9438   21.3002 C   0  0  0  0  0  0  0  0  0  0  0  0
  -25.9687  -24.5013   22.3029 C   0  0  1  0  0  0  0  0  0  0  0  0
  -27.8934  -12.7618   19.5292 C   0  0  2  0  0  0  0  0  0  0  0  0
  -22.8506  -22.3328   22.2149 C   0  0  1  0  0  0  0  0  0  0  0  0
  -30.8213  -15.4277   22.7364 C   0  0  2  0  0  0  0  0  0  0  0  0
  -23.8262  -10.8314   21.3222 C   0  0  0  0  0  0  0  0  0  0  0  0
  -17.5896  -19.2492   26.9916 C   0  0  0  0  0  0  0  0  0  0  0  0
  -23.7721  -21.6059   26.6852 C   0  0  0  0  0  0  0  0  0  0  0  0
  -22.0064  -20.3751   27.9642 C   0  0  0  0  0  0  0  0  0  0  0  0
  -21.6403  -22.7544   27.3104 C   0  0  0  0  0  0  0  0  0  0  0  0
  -17.5608  -19.1149   23.1894 C   0  0  0  0  0  0  0  0  0  0  0  0
  -24.4495  -15.6169   21.3923 C   0  0  0  0  0  0  0  0  0  1  0  0
  -21.5531  -20.9543   25.5372 C   0  0  1  0  0  0  0  0  0  0  0  0
  -17.9852  -19.6749   25.5863 C   0  0  2  0  0  0  0  0  0  0  0  0
  -22.2511  -21.4134   26.8485 C   0  0  0  0  0  0  0  0  0  0  0  0
  -30.1626  -17.5958   21.7655 N   0  0  0  0  0  0  0  0  0  0  0  0
  -25.8471  -11.8049   20.4324 N   0  0  0  0  0  0  0  0  0  0  0  0
  -26.1569  -14.1842   20.4672 N   0  0  0  0  0  0  0  0  0  0  0  0
  -24.1451  -13.2232   21.3539 N   0  0  0  0  0  0  0  0  0  0  0  0
  -30.0191  -16.7140   22.7695 N   0  0  0  0  0  0  0  0  0  0  0  0
  -22.4257  -21.4060   23.2660 N   0  0  0  0  0  0  0  0  0  0  0  0
  -31.8104  -13.6848   21.3064 N   0  0  0  0  0  0  0  0  0  0  0  0
  -30.2513  -12.5770   19.8854 N   0  0  0  0  0  0  0  0  0  0  0  0
  -28.8684  -16.3413   24.8061 N   0  0  0  0  0  0  0  0  0  0  0  0
  -27.3327  -20.3707   23.4640 N   0  0  0  0  0  0  0  0  0  0  0  0
  -24.6370  -23.9633   22.1257 N   0  0  0  0  0  0  0  0  0  0  0  0
  -20.1083  -20.7902   25.6553 N   0  0  0  0  0  0  0  0  0  0  0  0
  -17.2811  -18.7933   24.6125 N   0  3  0  0  0  0  0  0  0  0  0  0
  -27.2023  -18.7838   25.1142 O   0  0  0  0  0  0  0  0  0  0  0  0
  -25.0241  -21.8372   22.9930 O   0  0  0  0  0  0  0  0  0  0  0  0
  -21.3840  -23.0836   24.5056 O   0  0  0  0  0  0  0  0  0  0  0  0
  -20.0539  -18.5583   25.0285 O   0  0  0  0  0  0  0  0  0  0  0  0
  -32.3732  -11.7451   20.2097 O   0  0  0  0  0  0  0  0  0  0  0  0
  -28.8156  -23.0835   18.8297 O   0  0  0  0  0  0  0  0  0  0  0  0
  -24.3569  -16.3986   20.2074 O   0  0  0  0  0  0  0  0  0  1  0  0
  -33.4298  -25.3643   16.8518 F   0  0  0  0  0  0  0  0  0  0  0  0
  -30.5424  -21.6327   17.2310 F   0  0  0  0  0  0  0  0  0  0  0  0
  1  2  1  0  0  0  0
  1  5  2  0  0  0  0
  2  6  2  0  0  0  0
  3  8  2  0  0  0  0
  3 15  1  0  0  0  0
  4  9  1  0  0  0  0
  4 15  2  0  0  0  0
  5 17  1  0  0  0  0
  6 19  1  0  0  0  0
  7 10  2  0  0  0  0
  7 18  1  0  0  0  0
  8 21  1  0  0  0  0
  9 21  2  0  0  0  0
 10 22  1  0  0  0  0
 11 12  2  0  0  0  0
 11 23  1  0  0  0  0
 12 24  1  0  0  0  0
 13 20  1  0  0  0  0
 13 22  2  0  0  0  0
 14 24  2  0  0  0  0
 14 25  1  0  0  0  0
 15 26  1  0  0  0  0
 16 26  1  0  0  0  0
 16 27  2  0  0  0  0
 16 31  1  0  0  0  0
 17 19  2  0  0  0  0
 17 36  1  0  0  0  0
 18 20  2  0  0  0  0
 18 37  1  0  0  0  0
 19 48  1  0  0  0  0
 20 38  1  0  0  0  0
 21 80  1  0  0  0  0
 22 81  1  0  0  0  0
 23 25  2  0  0  0  0
 23 80  1  0  0  0  0
 24 82  1  0  0  0  0
 25 83  1  0  0  0  0
 26 62  2  0  0  0  0
 27 66  1  0  0  0  0
 27 70  1  0  0  0  0
 28 49  1  0  0  0  0
 28 63  2  0  0  0  0
 28 64  1  0  0  0  0
 29 52  1  0  0  0  0
 29 63  1  0  0  0  0
 29 65  2  0  0  0  0
 30 58  1  0  0  0  0
 30 64  2  0  0  0  0
 30 65  1  0  0  0  0
 31 71  1  0  0  0  0
 31 75  2  0  0  0  0
 32 50  1  0  0  0  0
 32 72  1  0  0  0  0
 32 76  2  0  0  0  0
 33 59  1  0  0  0  0
 33 67  1  0  0  0  0
 33 77  2  0  0  0  0
 34 60  1  0  0  0  0
 34 73  1  0  0  0  0
 34 78  2  0  0  0  0
 35 68  1  0  0  0  0
 35 69  1  0  0  0  0
 35 79  2  0  0  0  0
 36 39  1  0  0  0  0
 37 50  1  0  0  0  0
 38 67  1  0  0  0  0
 39 41  1  0  0  0  0
 40 42  1  0  0  0  0
 40 44  1  0  0  0  0
 41 48  1  0  0  0  0
 42 51  1  0  0  0  0
 43 45  1  0  0  0  0
 43 49  1  0  0  0  0
 44 68  1  0  0  0  0
 45 69  1  0  0  0  0
 46 49  1  0  0  0  0
 46 69  1  0  0  0  0
 47 51  1  0  0  0  0
 47 68  1  0  0  0  0
 48 72  1  0  0  0  0
 50 67  1  0  0  0  0
 51 66  1  0  0  0  0
 53 60  1  0  0  0  0
 54 61  1  0  0  0  0
 55 61  1  0  0  0  0
 56 61  1  0  0  0  0
 57 74  1  0  0  0  0
 58 81  1  0  0  0  0
 59 61  1  0  0  0  0
 59 73  1  0  0  0  0
 60 74  1  0  0  0  0
 62 66  1  0  0  0  0
M  CHG  1  74   1
M  ISO  4  35 100  58 101  69 100  81 101
M  END
> <Batch ID>
0182

> <Smiles>
CNC(C)C(=O)NC(C(=O)N1Cc2cc([101O:1][101CH2:1]c3nc(C)nc(C4CC[100N:0]([100C:0](=O)N5CCCC(n6nc(-c7ccc(Oc8ccc(F)cc8F)cc7)c(C(N)=O)c6N)C5)C4)n3)ccc2CC1C(=O)NC1CCCc2ccccc21)C(C)(C)C

> <Shape>
0.186

> <Color>
0.073

> <Negative vol penalty>
0.000

$$$$

  -OEChem-04052323053D

 76 84  0     1  0  0  0  0  0999 V2000
  -28.9298  -23.2009   17.8093 C   0  0  0  0  0  0  0  0  0  0  0  0
  -27.7535  -23.3748   18.5315 C   0  0  0  0  0  0  0  0  0  0  0  0
  -26.5443  -13.9656   21.5508 C   0  0  0  0  0  0  0  0  0  0  0  0
  -24.7411  -13.9480   19.9430 C   0  0  0  0  0  0  0  0  0  0  0  0
  -30.0683  -23.9314   18.1470 C   0  0  0  0  0  0  0  0  0  0  0  0
  -27.7154  -24.2786   19.5927 C   0  0  0  0  0  0  0  0  0  0  0  0
  -23.5551  -27.1654   19.5375 C   0  0  0  0  0  0  0  0  0  0  0  0
  -26.5148  -12.5719   21.5992 C   0  0  0  0  0  0  0  0  0  0  0  0
  -24.7115  -12.5543   19.9914 C   0  0  0  0  0  0  0  0  0  0  0  0
  -22.3727  -26.5871   19.9971 C   0  0  0  0  0  0  0  0  0  0  0  0
  -23.5015  -10.1579   22.0466 C   0  0  0  0  0  0  0  0  0  0  0  0
  -22.2551   -9.5390   22.1408 C   0  0  0  0  0  0  0  0  0  0  0  0
  -22.6639  -27.6937   22.1207 C   0  0  0  0  0  0  0  0  0  0  0  0
  -22.6695   -8.3873   20.0578 C   0  0  0  0  0  0  0  0  0  0  0  0
  -25.6574  -14.6537   20.7227 C   0  0  0  0  0  0  0  0  0  0  0  0
  -26.4511  -16.8983   19.8067 C   0  0  0  0  0  0  0  0  0  0  0  0
  -30.0414  -24.8517   19.2067 C   0  0  0  0  0  0  0  0  0  0  0  0
  -24.3078  -28.0049   20.3713 C   0  0  0  0  0  0  0  0  0  0  0  0
  -28.8550  -25.0211   19.9458 C   0  0  0  0  0  0  0  0  0  0  0  0
  -23.8542  -28.2834   21.6685 C   0  0  0  0  0  0  0  0  0  0  0  0
  -25.5984  -11.8662   20.8195 C   0  0  0  0  0  0  0  0  0  0  0  0
  -21.9284  -26.8489   21.2898 C   0  0  0  0  0  0  0  0  0  0  0  0
  -24.3320   -9.8916   20.9580 C   0  0  0  0  0  0  0  0  0  0  0  0
  -21.8391   -8.6537   21.1464 C   0  0  0  0  0  0  0  0  0  0  0  0
  -23.9160   -9.0063   19.9636 C   0  0  0  0  0  0  0  0  0  0  0  0
  -25.6870  -16.0934   20.6727 C   0  0  0  0  0  0  0  0  0  0  0  0
  -26.1248  -18.1856   20.1573 C   0  0  0  0  0  0  0  0  0  0  0  0
  -27.3732  -16.5166   18.7773 C   0  0  0  0  0  0  0  0  0  0  0  0
  -27.2430  -27.9122   21.5877 C   0  0  0  0  0  0  0  0  0  0  0  0
  -26.4840  -30.8883   22.6314 C   0  0  0  0  0  0  0  0  0  0  0  0
  -24.0536  -33.1289   23.4795 C   0  0  0  0  0  0  0  0  0  0  0  0
  -21.2049  -20.3413   22.7749 C   0  0  0  0  0  0  0  0  0  0  0  0
  -31.3104  -25.5839   19.5647 C   0  0  0  0  0  0  0  0  0  0  0  0
  -25.5672  -28.6423   19.8514 C   0  0  0  0  0  0  0  0  0  0  0  0
  -24.6150  -29.1939   22.5962 C   0  0  0  0  0  0  0  0  0  0  0  0
  -31.0814  -26.7957   20.4642 C   0  0  0  0  0  0  0  0  0  0  0  0
  -24.6679  -20.7984   23.8898 C   0  0  0  0  0  0  0  0  0  0  0  0
  -30.1430  -26.4385   21.6125 C   0  0  0  0  0  0  0  0  0  0  0  0
  -25.3858  -19.6926   23.1145 C   0  0  0  0  0  0  0  0  0  0  0  0
  -23.2621  -20.3629   24.2852 C   0  0  0  0  0  0  0  0  0  0  0  0
  -19.5402  -22.2750   22.8594 C   0  0  0  0  0  0  0  0  0  0  0  0
  -21.4999  -22.8534   23.4508 C   0  0  0  0  0  0  0  0  0  0  0  0
  -23.1161  -18.8303   22.3641 C   0  0  0  0  0  0  0  0  0  0  0  0
  -28.7672  -26.0102   21.0878 C   0  0  1  0  0  0  0  0  0  0  0  0
  -26.5215  -29.0719   20.9614 C   0  0  1  0  0  0  0  0  0  0  0  0
  -20.3558  -23.5706   22.7094 C   0  0  0  0  0  0  0  0  0  0  0  0
  -24.5412  -19.2095   21.9211 C   0  0  2  0  0  0  0  0  0  0  0  0
  -23.7418  -35.4684   24.3319 C   0  0  0  0  0  0  0  0  0  0  0  0
  -27.2639  -29.9684   25.4342 C   0  0  0  0  0  0  0  0  0  0  0  0
  -26.0597  -31.9639   26.3486 C   0  0  0  0  0  0  0  0  0  0  0  0
  -28.0249  -32.2765   24.8443 C   0  0  0  0  0  0  0  0  0  0  0  0
  -22.5774  -33.9425   21.0468 C   0  0  0  0  0  0  0  0  0  0  0  0
  -19.7872  -24.8076   23.3748 C   0  0  0  0  0  0  0  0  0  0  0  0
  -20.6847  -26.0183   23.1389 C   0  0  0  0  0  0  0  0  0  1  0  0
  -25.8400  -31.4534   23.8743 C   0  0  1  0  0  0  0  0  0  0  0  0
  -23.8480  -34.5841   23.0993 C   0  0  2  0  0  0  0  0  0  0  0  0
  -26.7836  -31.3968   25.1088 C   0  0  0  0  0  0  0  0  0  0  0  0
  -24.9323  -16.8093   21.5105 N   0  0  0  0  0  0  0  0  0  0  0  0
  -25.2207  -18.0777   21.1727 N   0  0  0  0  0  0  0  0  0  0  0  0
  -25.8436  -29.7880   22.0439 N   0  0  0  0  0  0  0  0  0  0  0  0
  -22.4983  -19.9316   23.1102 N   0  0  0  0  0  0  0  0  0  0  0  0
  -20.8139  -21.6120   23.1256 N   0  0  0  0  0  0  0  0  0  0  0  0
  -26.5261  -19.3881   19.6930 N   0  0  0  0  0  0  0  0  0  0  0  0
  -27.5915  -15.1512   18.5486 N   0  0  0  0  0  0  0  0  0  0  0  0
  -27.9925  -27.1683   20.6965 N   0  0  0  0  0  0  0  0  0  0  0  0
  -25.3911  -32.7973   23.5264 N   0  0  0  0  0  0  0  0  0  0  0  0
  -22.5996  -34.7394   22.3004 N   0  3  0  0  0  0  0  0  0  0  0  0
  -27.9979  -17.3614   18.0920 O   0  0  0  0  0  0  0  0  0  0  0  0
  -27.1293  -27.7084   22.7907 O   0  0  0  0  0  0  0  0  0  0  0  0
  -27.5133  -31.4085   22.1937 O   0  0  0  0  0  0  0  0  0  0  0  0
  -23.1209  -32.3639   23.7152 O   0  0  0  0  0  0  0  0  0  0  0  0
  -20.4287  -19.6056   22.1509 O   0  0  0  0  0  0  0  0  0  0  0  0
  -25.5695  -10.5063   20.8663 O   0  0  0  0  0  0  0  0  0  0  0  0
  -20.7667  -26.2811   21.7443 O   0  0  0  0  0  0  0  0  0  1  0  0
  -20.6427   -8.0582   21.2378 F   0  0  0  0  0  0  0  0  0  0  0  0
  -24.7099   -8.7456   18.9160 F   0  0  0  0  0  0  0  0  0  0  0  0
  1  2  1  0  0  0  0
  1  5  2  0  0  0  0
  2  6  2  0  0  0  0
  3  8  2  0  0  0  0
  3 15  1  0  0  0  0
  4  9  1  0  0  0  0
  4 15  2  0  0  0  0
  5 17  1  0  0  0  0
  6 19  1  0  0  0  0
  7 10  2  0  0  0  0
  7 18  1  0  0  0  0
  8 21  1  0  0  0  0
  9 21  2  0  0  0  0
 10 22  1  0  0  0  0
 11 12  2  0  0  0  0
 11 23  1  0  0  0  0
 12 24  1  0  0  0  0
 13 20  1  0  0  0  0
 13 22  2  0  0  0  0
 14 24  2  0  0  0  0
 14 25  1  0  0  0  0
 15 26  1  0  0  0  0
 16 26  1  0  0  0  0
 16 27  2  0  0  0  0
 16 28  1  0  0  0  0
 17 19  2  0  0  0  0
 17 33  1  0  0  0  0
 18 20  2  0  0  0  0
 18 34  1  0  0  0  0
 19 44  1  0  0  0  0
 20 35  1  0  0  0  0
 21 73  1  0  0  0  0
 22 74  1  0  0  0  0
 23 25  2  0  0  0  0
 23 73  1  0  0  0  0
 24 75  1  0  0  0  0
 25 76  1  0  0  0  0
 26 58  2  0  0  0  0
 27 59  1  0  0  0  0
 27 63  1  0  0  0  0
 28 64  1  0  0  0  0
 28 68  2  0  0  0  0
 29 45  1  0  0  0  0
 29 65  1  0  0  0  0
 29 69  2  0  0  0  0
 30 55  1  0  0  0  0
 30 60  1  0  0  0  0
 30 70  2  0  0  0  0
 31 56  1  0  0  0  0
 31 66  1  0  0  0  0
 31 71  2  0  0  0  0
 32 61  1  0  0  0  0
 32 62  1  0  0  0  0
 32 72  2  0  0  0  0
 33 36  1  0  0  0  0
 34 45  1  0  0  0  0
 35 60  1  0  0  0  0
 36 38  1  0  0  0  0
 37 39  1  0  0  0  0
 37 40  1  0  0  0  0
 38 44  1  0  0  0  0
 39 47  1  0  0  0  0
 40 61  1  0  0  0  0
 41 46  1  0  0  0  0
 41 62  1  0  0  0  0
 42 46  1  0  0  0  0
 42 62  1  0  0  0  0
 43 47  1  0  0  0  0
 43 61  1  0  0  0  0
 44 65  1  0  0  0  0
 45 60  1  0  0  0  0
 46 53  1  0  0  0  0
 47 59  1  0  0  0  0
 48 56  1  0  0  0  0
 49 57  1  0  0  0  0
 50 57  1  0  0  0  0
 51 57  1  0  0  0  0
 52 67  1  0  0  0  0
 53 54  1  0  0  0  0
 54 74  1  0  0  0  0
 55 57  1  0  0  0  0
 55 66  1  0  0  0  0
 56 67  1  0  0  0  0
 58 59  1  0  0  0  0
M  CHG  1  67   1
M  ISO  4  32 100  54 101  62 100  74 101
M  END
> <Batch ID>
0182

> <Smiles>
CNC(C)C(=O)NC(C(=O)N1Cc2cc([101O:1][101CH2:1]CC3C[100N:0]([100C:0](=O)N4CCCC(n5nc(-c6ccc(Oc7ccc(F)cc7F)cc6)c(C(N)=O)c5N)C4)C3)ccc2CC1C(=O)NC1CCCc2ccccc21)C(C)(C)C

> <Shape>
0.249

> <Color>
0.078

> <Negative vol penalty>
0.000

$$$$

  -OEChem-04052323053D

 85 94  0     1  0  0  0  0  0999 V2000
  -23.3414  -35.4997   15.4563 C   0  0  0  0  0  0  0  0  0  0  0  0
  -24.0210  -34.2889   15.5432 C   0  0  0  0  0  0  0  0  0  0  0  0
  -25.3763   -9.1024   21.7826 C   0  0  0  0  0  0  0  0  0  0  0  0
  -23.0570   -9.6263   22.2111 C   0  0  0  0  0  0  0  0  0  0  0  0
  -23.3076  -36.3592   16.5536 C   0  0  0  0  0  0  0  0  0  0  0  0
  -24.6683  -33.9374   16.7273 C   0  0  0  0  0  0  0  0  0  0  0  0
  -25.2585  -28.3098   19.0697 C   0  0  0  0  0  0  0  0  0  0  0  0
  -25.2621   -7.9549   22.5674 C   0  0  0  0  0  0  0  0  0  0  0  0
  -22.9428   -8.4788   22.9958 C   0  0  0  0  0  0  0  0  0  0  0  0
  -26.3001  -27.3836   19.0345 C   0  0  0  0  0  0  0  0  0  0  0  0
  -22.5662   -5.1562   22.5068 C   0  0  0  0  0  0  0  0  0  0  0  0
  -21.4407   -4.3540   22.3192 C   0  0  0  0  0  0  0  0  0  0  0  0
  -27.0574  -28.1625   21.1883 C   0  0  0  0  0  0  0  0  0  0  0  0
  -20.8145   -4.6926   24.6279 C   0  0  0  0  0  0  0  0  0  0  0  0
  -24.2738   -9.9381   21.6045 C   0  0  0  0  0  0  0  0  0  0  0  0
  -24.1603  -11.2342   19.4102 C   0  0  0  0  0  0  0  0  0  0  0  0
  -23.9466  -36.0137   17.7548 C   0  0  0  0  0  0  0  0  0  0  0  0
  -25.1148  -29.1781   20.1613 C   0  0  0  0  0  0  0  0  0  0  0  0
  -24.6441  -34.7937   17.8412 C   0  0  0  0  0  0  0  0  0  0  0  0
  -26.0117  -29.0970   21.2361 C   0  0  0  0  0  0  0  0  0  0  0  0
  -24.0454   -7.6431   23.1739 C   0  0  0  0  0  0  0  0  0  0  0  0
  -27.2014  -27.3118   20.0925 C   0  0  0  0  0  0  0  0  0  0  0  0
  -22.8160   -5.7265   23.7550 C   0  0  0  0  0  0  0  0  0  0  0  0
  -20.5648   -4.1222   23.3797 C   0  0  0  0  0  0  0  0  0  0  0  0
  -21.9401   -5.4947   24.8156 C   0  0  0  0  0  0  0  0  0  0  0  0
  -24.3913  -11.1240   20.7945 C   0  0  0  0  0  0  0  0  0  0  0  0
  -24.4052  -12.5553   19.1253 C   0  0  0  0  0  0  0  0  0  0  0  0
  -31.6531  -24.2161   19.0458 C   0  0  0  0  0  0  0  0  0  0  0  0
  -29.4455  -24.6195   19.0665 C   0  0  0  0  0  0  0  0  0  0  0  0
  -30.2124  -22.5522   19.4849 C   0  0  0  0  0  0  0  0  0  0  0  0
  -23.7600  -10.2320   18.4662 C   0  0  0  0  0  0  0  0  0  0  0  0
  -25.1889  -32.3329   20.5431 C   0  0  0  0  0  0  0  0  0  0  0  0
  -24.3053  -31.5954   23.5759 C   0  0  0  0  0  0  0  0  0  0  0  0
  -24.2318  -29.2923   26.0933 C   0  0  0  0  0  0  0  0  0  0  0  0
  -27.2878  -17.0690   19.4861 C   0  0  0  0  0  0  0  0  0  0  0  0
  -23.9225  -36.9965   18.8986 C   0  0  0  0  0  0  0  0  0  0  0  0
  -23.9702  -30.1533   20.1963 C   0  0  0  0  0  0  0  0  0  0  0  0
  -25.8891  -29.9929   22.4406 C   0  0  0  0  0  0  0  0  0  0  0  0
  -24.3175  -36.3813   20.2387 C   0  0  0  0  0  0  0  0  0  0  0  0
  -25.1038  -16.5184   22.1785 C   0  0  0  0  0  0  0  0  0  0  0  0
  -25.5743  -35.5304   20.0857 C   0  0  0  0  0  0  0  0  0  0  0  0
  -24.6996  -15.0624   21.9485 C   0  0  0  0  0  0  0  0  0  0  0  0
  -27.6045  -20.7600   19.6392 C   0  0  0  0  0  0  0  0  0  0  0  0
  -29.0501  -19.7329   21.4460 C   0  0  0  0  0  0  0  0  0  0  0  0
  -26.5899  -16.7512   21.9010 C   0  0  0  0  0  0  0  0  0  0  0  0
  -27.6500  -19.4331   18.8830 C   0  0  0  0  0  0  0  0  0  0  0  0
  -29.0656  -18.4317   20.6471 C   0  0  0  0  0  0  0  0  0  0  0  0
  -26.6264  -14.8377   20.3346 C   0  0  0  0  0  0  0  0  0  0  0  0
  -25.3376  -34.3660   19.1165 C   0  0  1  0  0  0  0  0  0  0  0  0
  -24.2231  -31.3385   21.1230 C   0  0  1  0  0  0  0  0  0  0  0  0
  -25.1260  -14.5851   20.5488 C   0  0  1  0  0  0  0  0  0  0  0  0
  -28.8098  -20.9560   20.5595 C   0  0  0  0  0  0  0  0  0  0  0  0
  -33.0525  -24.6998   18.8710 C   0  0  0  0  0  0  0  0  0  0  0  0
  -23.4765  -28.9926   28.4675 C   0  0  0  0  0  0  0  0  0  0  0  0
  -26.6770  -33.2567   24.5376 C   0  0  0  0  0  0  0  0  0  0  0  0
  -26.4442  -32.1645   26.7784 C   0  0  0  0  0  0  0  0  0  0  0  0
  -24.5835  -33.5571   25.8721 C   0  0  0  0  0  0  0  0  0  0  0  0
  -22.3987  -27.0895   25.3542 C   0  0  0  0  0  0  0  0  0  0  0  0
  -28.3046  -25.5666   18.9123 C   0  0  0  0  0  0  0  0  0  1  0  0
  -25.0396  -31.2864   24.8582 C   0  0  1  0  0  0  0  0  0  0  0  0
  -23.1073  -28.8282   27.0014 C   0  0  2  0  0  0  0  0  0  0  0  0
  -25.6898  -32.5505   25.4881 C   0  0  0  0  0  0  0  0  0  0  0  0
  -24.7552  -12.2826   21.3504 N   0  0  0  0  0  0  0  0  0  0  0  0
  -30.6770  -25.1257   18.8934 N   0  0  0  0  0  0  0  0  0  0  0  0
  -31.4970  -22.9154   19.3409 N   0  0  0  0  0  0  0  0  0  0  0  0
  -29.1369  -23.3468   19.3628 N   0  0  0  0  0  0  0  0  0  0  0  0
  -24.7547  -13.1335   20.3101 N   0  0  0  0  0  0  0  0  0  0  0  0
  -24.7571  -30.9341   22.4251 N   0  0  0  0  0  0  0  0  0  0  0  0
  -26.9568  -16.2444   20.5718 N   0  0  0  0  0  0  0  0  0  0  0  0
  -27.8817  -18.3066   19.7864 N   0  0  0  0  0  0  0  0  0  0  0  0
  -24.3536  -13.2671   17.9795 N   0  0  0  0  0  0  0  0  0  0  0  0
  -23.5508   -8.9251   18.9275 N   0  0  0  0  0  0  0  0  0  0  0  0
  -24.5933  -33.3095   19.7679 N   0  0  0  0  0  0  0  0  0  0  0  0
  -24.0798  -30.6127   25.7260 N   0  0  0  0  0  0  0  0  0  0  0  0
  -22.7999  -27.3914   26.7524 N   0  3  0  0  0  0  0  0  0  0  0  0
  -23.6087  -10.4841   17.2468 O   0  0  0  0  0  0  0  0  0  0  0  0
  -26.3857  -32.2231   20.7826 O   0  0  0  0  0  0  0  0  0  0  0  0
  -23.3609  -32.3887   23.5959 O   0  0  0  0  0  0  0  0  0  0  0  0
  -25.1548  -28.5581   25.7475 O   0  0  0  0  0  0  0  0  0  0  0  0
  -27.0643  -16.7245   18.3188 O   0  0  0  0  0  0  0  0  0  0  0  0
  -23.9335   -6.5233   23.9395 O   0  0  0  0  0  0  0  0  0  0  0  0
  -28.2262  -26.4030   20.0602 O   0  0  0  0  0  0  0  0  0  1  0  0
  -29.9748  -21.2371   19.7868 O   0  0  0  0  0  0  0  0  0  0  0  0
  -19.4831   -3.3531   23.1990 F   0  0  0  0  0  0  0  0  0  0  0  0
  -22.1742   -6.0409   26.0167 F   0  0  0  0  0  0  0  0  0  0  0  0
  1  2  1  0  0  0  0
  1  5  2  0  0  0  0
  2  6  2  0  0  0  0
  3  8  2  0  0  0  0
  3 15  1  0  0  0  0
  4  9  1  0  0  0  0
  4 15  2  0  0  0  0
  5 17  1  0  0  0  0
  6 19  1  0  0  0  0
  7 10  2  0  0  0  0
  7 18  1  0  0  0  0
  8 21  1  0  0  0  0
  9 21  2  0  0  0  0
 10 22  1  0  0  0  0
 11 12  2  0  0  0  0
 11 23  1  0  0  0  0
 12 24  1  0  0  0  0
 13 20  1  0  0  0  0
 13 22  2  0  0  0  0
 14 24  2  0  0  0  0
 14 25  1  0  0  0  0
 15 26  1  0  0  0  0
 16 26  1  0  0  0  0
 16 27  2  0  0  0  0
 16 31  1  0  0  0  0
 17 19  2  0  0  0  0
 17 36  1  0  0  0  0
 18 20  2  0  0  0  0
 18 37  1  0  0  0  0
 19 49  1  0  0  0  0
 20 38  1  0  0  0  0
 21 81  1  0  0  0  0
 22 82  1  0  0  0  0
 23 25  2  0  0  0  0
 23 81  1  0  0  0  0
 24 84  1  0  0  0  0
 25 85  1  0  0  0  0
 26 63  2  0  0  0  0
 27 67  1  0  0  0  0
 27 71  1  0  0  0  0
 28 53  1  0  0  0  0
 28 64  2  0  0  0  0
 28 65  1  0  0  0  0
 29 59  1  0  0  0  0
 29 64  1  0  0  0  0
 29 66  2  0  0  0  0
 30 65  2  0  0  0  0
 30 66  1  0  0  0  0
 30 83  1  0  0  0  0
 31 72  1  0  0  0  0
 31 76  2  0  0  0  0
 32 50  1  0  0  0  0
 32 73  1  0  0  0  0
 32 77  2  0  0  0  0
 33 60  1  0  0  0  0
 33 68  1  0  0  0  0
 33 78  2  0  0  0  0
 34 61  1  0  0  0  0
 34 74  1  0  0  0  0
 34 79  2  0  0  0  0
 35 69  1  0  0  0  0
 35 70  1  0  0  0  0
 35 80  2  0  0  0  0
 36 39  1  0  0  0  0
 37 50  1  0  0  0  0
 38 68  1  0  0  0  0
 39 41  1  0  0  0  0
 40 42  1  0  0  0  0
 40 45  1  0  0  0  0
 41 49  1  0  0  0  0
 42 51  1  0  0  0  0
 43 46  1  0  0  0  0
 43 52  1  0  0  0  0
 44 47  1  0  0  0  0
 44 52  1  0  0  0  0
 45 69  1  0  0  0  0
 46 70  1  0  0  0  0
 47 70  1  0  0  0  0
 48 51  1  0  0  0  0
 48 69  1  0  0  0  0
 49 73  1  0  0  0  0
 50 68  1  0  0  0  0
 51 67  1  0  0  0  0
 52 83  1  0  0  0  0
 54 61  1  0  0  0  0
 55 62  1  0  0  0  0
 56 62  1  0  0  0  0
 57 62  1  0  0  0  0
 58 75  1  0  0  0  0
 59 82  1  0  0  0  0
 60 62  1  0  0  0  0
 60 74  1  0  0  0  0
 61 75  1  0  0  0  0
 63 67  1  0  0  0  0
M  CHG  1  75   1
M  ISO  4  35 100  59 101  70 100  82 101
M  END
> <Batch ID>
0182

> <Smiles>
CNC(C)C(=O)NC(C(=O)N1Cc2cc([101O:1][101CH2:1]c3nc(C)nc(OC4CC[100N:0]([100C:0](=O)N5CCCC(n6nc(-c7ccc(Oc8ccc(F)cc8F)cc7)c(C(N)=O)c6N)C5)CC4)n3)ccc2CC1C(=O)NC1CCCc2ccccc21)C(C)(C)C

> <Shape>
0.281

> <Color>
0.133

> <Negative vol penalty>
0.000

$$$$

  -OEChem-04052323053D

 84 94  0     1  0  0  0  0  0999 V2000
  -42.5304  -26.7038   22.8699 C   0  0  0  0  0  0  0  0  0  0  0  0
  -41.8782  -25.4864   22.7028 C   0  0  0  0  0  0  0  0  0  0  0  0
  -23.0975   -9.8500   19.9468 C   0  0  0  0  0  0  0  0  0  0  0  0
  -23.7305   -9.9525   22.2761 C   0  0  0  0  0  0  0  0  0  0  0  0
  -41.7965  -27.8891   22.8928 C   0  0  0  0  0  0  0  0  0  0  0  0
  -40.4916  -25.4534   22.5595 C   0  0  0  0  0  0  0  0  0  0  0  0
  -38.9963  -22.3668   18.8337 C   0  0  0  0  0  0  0  0  0  0  0  0
  -22.3562   -8.6957   20.1990 C   0  0  0  0  0  0  0  0  0  0  0  0
  -22.9892   -8.7982   22.5284 C   0  0  0  0  0  0  0  0  0  0  0  0
  -38.9938  -20.9988   19.1026 C   0  0  0  0  0  0  0  0  0  0  0  0
  -23.3537   -5.4628   22.1124 C   0  0  0  0  0  0  0  0  0  0  0  0
  -23.9423   -4.4739   22.9005 C   0  0  0  0  0  0  0  0  0  0  0  0
  -36.6137  -21.0846   19.4859 C   0  0  0  0  0  0  0  0  0  0  0  0
  -22.1479   -4.6842   24.5046 C   0  0  0  0  0  0  0  0  0  0  0  0
  -23.7847  -10.4784   20.9854 C   0  0  0  0  0  0  0  0  0  0  0  0
  -24.0994  -13.0024   20.7896 C   0  0  0  0  0  0  0  0  0  0  0  0
  -40.4012  -27.8714   22.7401 C   0  0  0  0  0  0  0  0  0  0  0  0
  -37.8073  -23.1074   18.8997 C   0  0  0  0  0  0  0  0  0  0  0  0
  -39.7382  -26.6394   22.5817 C   0  0  0  0  0  0  0  0  0  0  0  0
  -36.6033  -22.4614   19.2150 C   0  0  0  0  0  0  0  0  0  0  0  0
  -22.3020   -8.1698   21.4898 C   0  0  0  0  0  0  0  0  0  0  0  0
  -37.8029  -20.3580   19.4316 C   0  0  0  0  0  0  0  0  0  0  0  0
  -22.1622   -6.0625   22.5203 C   0  0  0  0  0  0  0  0  0  0  0  0
  -23.3395   -4.0846   24.0966 C   0  0  0  0  0  0  0  0  0  0  0  0
  -21.5593   -5.6732   23.7164 C   0  0  0  0  0  0  0  0  0  0  0  0
  -24.5510  -11.6705   20.7253 C   0  0  0  0  0  0  0  0  0  0  0  0
  -25.1999  -13.7545   20.4583 C   0  0  0  0  0  0  0  0  0  0  0  0
  -34.4020  -17.5597   20.5629 C   0  0  0  0  0  0  0  0  0  0  0  0
  -32.4050  -18.5762   20.4392 C   0  0  0  0  0  0  0  0  0  0  0  0
  -32.5166  -16.3502   20.7027 C   0  0  0  0  0  0  0  0  0  0  0  0
  -22.8013  -13.5139   21.1194 C   0  0  0  0  0  0  0  0  0  0  0  0
  -36.7775  -25.5446   20.6612 C   0  0  0  0  0  0  0  0  0  0  0  0
  -34.2282  -25.4075   18.6600 C   0  0  0  0  0  0  0  0  0  0  0  0
  -32.3166  -23.5530   16.5261 C   0  0  0  0  0  0  0  0  0  0  0  0
  -30.4466  -14.9800   20.8622 C   0  0  0  0  0  0  0  0  0  0  0  0
  -39.6457  -29.1744   22.8188 C   0  0  0  0  0  0  0  0  0  0  0  0
  -37.8223  -24.5772   18.5807 C   0  0  0  0  0  0  0  0  0  0  0  0
  -35.2964  -23.2073   19.2793 C   0  0  0  0  0  0  0  0  0  0  0  0
  -38.2185  -29.0843   22.2849 C   0  0  0  0  0  0  0  0  0  0  0  0
  -29.6733  -12.3988   18.5452 C   0  0  0  0  0  0  0  0  0  0  0  0
  -37.5191  -27.8462   22.8372 C   0  0  0  0  0  0  0  0  0  0  0  0
  -28.2266  -12.0783   18.9192 C   0  0  0  0  0  0  0  0  0  0  0  0
  -33.5217  -13.9257   22.4635 C   0  0  0  0  0  0  0  0  0  0  0  0
  -32.2909  -13.0697   22.4276 C   0  0  0  0  0  0  0  0  0  0  0  0
  -36.6619  -16.7918   19.5735 C   0  0  0  0  0  0  0  0  0  0  0  0
  -30.5349  -12.6779   19.7773 C   0  0  0  0  0  0  0  0  0  0  0  0
  -28.5370  -13.4030   21.0450 C   0  0  0  0  0  0  0  0  0  0  0  0
  -38.2379  -26.5647   22.3983 C   0  0  1  0  0  0  0  0  0  0  0  0
  -35.8825  -17.6332   20.5569 C   0  0  1  0  0  0  0  0  0  0  0  0
  -36.6392  -25.3309   19.1804 C   0  0  1  0  0  0  0  0  0  0  0  0
  -27.6342  -13.1739   19.8230 C   0  0  2  0  0  0  0  0  0  0  0  0
  -32.6552  -13.9094   21.2340 C   0  0  0  0  0  0  0  0  0  0  0  0
  -36.5865  -18.2757   19.3818 C   0  0  1  0  0  0  0  0  0  1  0  0
  -31.5962  -19.8197   20.2905 C   0  0  0  0  0  0  0  0  0  0  0  0
  -30.2775  -23.7040   15.0712 C   0  0  0  0  0  0  0  0  0  0  0  0
  -32.4524  -25.2410   21.1357 C   0  0  0  0  0  0  0  0  0  0  0  0
  -30.5901  -24.4501   19.6611 C   0  0  0  0  0  0  0  0  0  0  0  0
  -31.5730  -26.7170   19.3184 C   0  0  0  0  0  0  0  0  0  0  0  0
  -33.8741  -22.9550   14.0817 C   0  0  0  0  0  0  0  0  0  0  0  0
  -32.9086  -24.6743   18.6584 C   0  0  1  0  0  0  0  0  0  0  0  0
  -31.7904  -23.8453   15.1325 C   0  0  2  0  0  0  0  0  0  0  0  0
  -31.9058  -25.2566   19.6942 C   0  0  0  0  0  0  0  0  0  0  0  0
  -25.8380  -11.5786   20.3801 N   0  0  0  0  0  0  0  0  0  0  0  0
  -33.7398  -18.7198   20.4245 N   0  0  0  0  0  0  0  0  0  0  0  0
  -33.8593  -16.3398   20.7064 N   0  0  0  0  0  0  0  0  0  0  0  0
  -31.7243  -17.4266   20.5739 N   0  0  0  0  0  0  0  0  0  0  0  0
  -26.2045  -12.8621   20.2245 N   0  0  0  0  0  0  0  0  0  0  0  0
  -35.3639  -24.6441   18.9654 N   0  0  0  0  0  0  0  0  0  0  0  0
  -29.9100  -13.6993   20.6294 N   0  0  0  0  0  0  0  0  0  0  0  0
  -25.3965  -15.0854   20.3470 N   0  0  0  0  0  0  0  0  0  0  0  0
  -21.7844  -12.6025   21.4351 N   0  0  0  0  0  0  0  0  0  0  0  0
  -37.9107  -26.2468   21.0248 N   0  0  0  0  0  0  0  0  0  0  0  0
  -32.4282  -24.7014   17.2812 N   0  0  0  0  0  0  0  0  0  0  0  0
  -31.8571  -15.0732   20.8536 N   0  0  0  0  0  0  0  0  0  0  0  0
  -32.3907  -22.9050   14.1444 N   0  3  0  0  0  0  0  0  0  0  0  0
  -22.5461  -14.7421   21.1178 O   0  0  0  0  0  0  0  0  0  0  0  0
  -35.9188  -25.1064   21.4177 O   0  0  0  0  0  0  0  0  0  0  0  0
  -34.2513  -26.6115   18.3930 O   0  0  0  0  0  0  0  0  0  0  0  0
  -32.5967  -22.4189   16.9081 O   0  0  0  0  0  0  0  0  0  0  0  0
  -29.7237  -15.9572   21.0914 O   0  0  0  0  0  0  0  0  0  0  0  0
  -21.5786   -7.0435   21.7364 O   0  0  0  0  0  0  0  0  0  0  0  0
  -37.7978  -19.0230   19.6952 O   0  0  0  0  0  0  0  0  0  1  0  0
  -23.9040   -3.1339   24.8526 F   0  0  0  0  0  0  0  0  0  0  0  0
  -20.4140   -6.2448   24.1130 F   0  0  0  0  0  0  0  0  0  0  0  0
  1  2  1  0  0  0  0
  1  5  2  0  0  0  0
  2  6  2  0  0  0  0
  3  8  2  0  0  0  0
  3 15  1  0  0  0  0
  4  9  1  0  0  0  0
  4 15  2  0  0  0  0
  5 17  1  0  0  0  0
  6 19  1  0  0  0  0
  7 10  2  0  0  0  0
  7 18  1  0  0  0  0
  8 21  1  0  0  0  0
  9 21  2  0  0  0  0
 10 22  1  0  0  0  0
 11 12  2  0  0  0  0
 11 23  1  0  0  0  0
 12 24  1  0  0  0  0
 13 20  1  0  0  0  0
 13 22  2  0  0  0  0
 14 24  2  0  0  0  0
 14 25  1  0  0  0  0
 15 26  1  0  0  0  0
 16 26  1  0  0  0  0
 16 27  2  0  0  0  0
 16 31  1  0  0  0  0
 17 19  2  0  0  0  0
 17 36  1  0  0  0  0
 18 20  2  0  0  0  0
 18 37  1  0  0  0  0
 19 48  1  0  0  0  0
 20 38  1  0  0  0  0
 21 81  1  0  0  0  0
 22 82  1  0  0  0  0
 23 25  2  0  0  0  0
 23 81  1  0  0  0  0
 24 83  1  0  0  0  0
 25 84  1  0  0  0  0
 26 63  2  0  0  0  0
 27 67  1  0  0  0  0
 27 70  1  0  0  0  0
 28 49  1  0  0  0  0
 28 64  1  0  0  0  0
 28 65  2  0  0  0  0
 29 54  1  0  0  0  0
 29 64  2  0  0  0  0
 29 66  1  0  0  0  0
 30 65  1  0  0  0  0
 30 66  2  0  0  0  0
 30 74  1  0  0  0  0
 31 71  1  0  0  0  0
 31 76  2  0  0  0  0
 32 50  1  0  0  0  0
 32 72  1  0  0  0  0
 32 77  2  0  0  0  0
 33 60  1  0  0  0  0
 33 68  1  0  0  0  0
 33 78  2  0  0  0  0
 34 61  1  0  0  0  0
 34 73  1  0  0  0  0
 34 79  2  0  0  0  0
 35 69  1  0  0  0  0
 35 74  1  0  0  0  0
 35 80  2  0  0  0  0
 36 39  1  0  0  0  0
 37 50  1  0  0  0  0
 38 68  1  0  0  0  0
 39 41  1  0  0  0  0
 40 42  1  0  0  0  0
 40 46  1  0  0  0  0
 41 48  1  0  0  0  0
 42 51  1  0  0  0  0
 43 44  1  0  0  0  0
 43 52  1  0  0  0  0
 44 52  1  0  0  0  0
 45 49  1  0  0  0  0
 45 53  1  0  0  0  0
 46 69  1  0  0  0  0
 47 51  1  0  0  0  0
 47 69  1  0  0  0  0
 48 72  1  0  0  0  0
 49 53  1  0  0  0  0
 50 68  1  0  0  0  0
 51 67  1  0  0  0  0
 52 74  1  0  0  0  0
 53 82  1  0  0  0  0
 55 61  1  0  0  0  0
 56 62  1  0  0  0  0
 57 62  1  0  0  0  0
 58 62  1  0  0  0  0
 59 75  1  0  0  0  0
 60 62  1  0  0  0  0
 60 73  1  0  0  0  0
 61 75  1  0  0  0  0
 63 67  1  0  0  0  0
M  CHG  1  75   1
M  ISO  4  35 100  53 101  74 100  82 101
M  END
> <Batch ID>
0182

> <Smiles>
CNC(C)C(=O)NC(C(=O)N1Cc2cc([101O:1][101CH:1]3CC3c3nc(C)nc([100N:0](C4CC4)[100C:0](=O)N4CCCC(n5nc(-c6ccc(Oc7ccc(F)cc7F)cc6)c(C(N)=O)c5N)C4)n3)ccc2CC1C(=O)NC1CCCc2ccccc21)C(C)(C)C

> <Shape>
0.181

> <Color>
0.178

> <Negative vol penalty>
0.000

$$$$

  -OEChem-04052323053D

 80 89  0     1  0  0  0  0  0999 V2000
  -18.6562  -29.9853   20.5707 C   0  0  0  0  0  0  0  0  0  0  0  0
  -19.8373  -29.4070   20.1169 C   0  0  0  0  0  0  0  0  0  0  0  0
  -22.9774   -9.8799   20.0431 C   0  0  0  0  0  0  0  0  0  0  0  0
  -23.5579  -10.1663   22.3708 C   0  0  0  0  0  0  0  0  0  0  0  0
  -18.0196  -29.4729   21.7003 C   0  0  0  0  0  0  0  0  0  0  0  0
  -20.3832  -28.3166   20.7933 C   0  0  0  0  0  0  0  0  0  0  0  0
  -24.1215  -22.3199   19.6181 C   0  0  0  0  0  0  0  0  0  0  0  0
  -22.1707   -8.7925   20.3780 C   0  0  0  0  0  0  0  0  0  0  0  0
  -22.7511   -9.0789   22.7058 C   0  0  0  0  0  0  0  0  0  0  0  0
  -25.2672  -21.6606   20.0614 C   0  0  0  0  0  0  0  0  0  0  0  0
  -21.1289   -6.1558   24.1318 C   0  0  0  0  0  0  0  0  0  0  0  0
  -21.6437   -5.2178   25.0267 C   0  0  0  0  0  0  0  0  0  0  0  0
  -24.0379  -20.8102   21.9548 C   0  0  0  0  0  0  0  0  0  0  0  0
  -23.4655   -4.7663   23.5053 C   0  0  0  0  0  0  0  0  0  0  0  0
  -29.3758  -19.9350   22.6656 C   0  0  0  0  0  0  0  0  0  0  0  0
  -23.6711  -10.5669   21.0395 C   0  0  0  0  0  0  0  0  0  0  0  0
  -24.1225  -13.0429   20.6232 C   0  0  0  0  0  0  0  0  0  0  0  0
  -18.5527  -28.3695   22.3852 C   0  0  0  0  0  0  0  0  0  0  0  0
  -22.9263  -22.2381   20.3469 C   0  0  0  0  0  0  0  0  0  0  0  0
  -19.7538  -27.7898   21.9339 C   0  0  0  0  0  0  0  0  0  0  0  0
  -22.8778  -21.4673   21.5173 C   0  0  0  0  0  0  0  0  0  0  0  0
  -22.0575   -8.3919   21.7094 C   0  0  0  0  0  0  0  0  0  0  0  0
  -25.2263  -20.9080   21.2314 C   0  0  0  0  0  0  0  0  0  0  0  0
  -21.7822   -6.3989   22.9236 C   0  0  0  0  0  0  0  0  0  0  0  0
  -22.8120   -4.5232   24.7134 C   0  0  0  0  0  0  0  0  0  0  0  0
  -22.9505   -5.7043   22.6104 C   0  0  0  0  0  0  0  0  0  0  0  0
  -24.5051  -11.6899   20.6940 C   0  0  0  0  0  0  0  0  0  0  0  0
  -30.2453  -18.8894   22.7919 C   0  0  0  0  0  0  0  0  0  0  0  0
  -28.6278  -19.6023   21.4998 C   0  0  0  0  0  0  0  0  0  0  0  0
  -25.2687  -13.7050   20.2567 C   0  0  0  0  0  0  0  0  0  0  0  0
  -22.8453  -13.6470   20.8669 C   0  0  0  0  0  0  0  0  0  0  0  0
  -21.0609  -24.3350   21.8393 C   0  0  0  0  0  0  0  0  0  0  0  0
  -19.1295  -21.7569   22.2207 C   0  0  0  0  0  0  0  0  0  0  0  0
  -18.8288  -18.3616   22.3874 C   0  0  0  0  0  0  0  0  0  0  0  0
  -30.7581  -14.5760   20.7595 C   0  0  0  0  0  0  0  0  0  0  0  0
  -17.8540  -27.8804   23.6291 C   0  0  0  0  0  0  0  0  0  0  0  0
  -21.6921  -22.9333   19.8410 C   0  0  0  0  0  0  0  0  0  0  0  0
  -21.6141  -21.3310   22.3252 C   0  0  0  0  0  0  0  0  0  0  0  0
  -31.3529  -18.3687   23.6124 C   0  0  0  0  0  0  0  0  0  0  0  0
  -18.2978  -26.4877   24.0692 C   0  0  0  0  0  0  0  0  0  0  0  0
  -31.4413  -16.8926   23.1263 C   0  0  0  0  0  0  0  0  0  0  0  0
  -29.7129  -11.9328   18.6152 C   0  0  0  0  0  0  0  0  0  0  0  0
  -19.8191  -26.3794   24.0439 C   0  0  0  0  0  0  0  0  0  0  0  0
  -28.2357  -11.7417   18.9635 C   0  0  0  0  0  0  0  0  0  0  0  0
  -30.5429  -12.2825   19.8485 C   0  0  0  0  0  0  0  0  0  0  0  0
  -28.5708  -13.2463   20.9692 C   0  0  0  0  0  0  0  0  0  0  0  0
  -20.3638  -26.5902   22.6260 C   0  0  1  0  0  0  0  0  0  0  0  0
  -20.6651  -23.2005   20.9371 C   0  0  1  0  0  0  0  0  0  0  0  0
  -27.6841  -12.9472   19.7483 C   0  0  2  0  0  0  0  0  0  0  0  0
  -30.8149  -16.8678   21.7100 C   0  0  2  0  0  0  0  0  0  0  0  0
  -17.1300  -16.5497   22.7462 C   0  0  0  0  0  0  0  0  0  0  0  0
  -19.1099  -22.3706   25.2095 C   0  0  0  0  0  0  0  0  0  0  0  0
  -18.2293  -20.0609   25.6071 C   0  0  0  0  0  0  0  0  0  0  0  0
  -16.8946  -21.6897   24.2698 C   0  0  0  0  0  0  0  0  0  0  0  0
  -19.3322  -17.1997   19.7124 C   0  0  0  0  0  0  0  0  0  0  0  0
  -27.5228  -20.4026   20.8755 C   0  0  0  0  0  0  0  0  0  1  0  0
  -18.9819  -20.6769   23.2650 C   0  0  1  0  0  0  0  0  0  0  0  0
  -17.8599  -17.4022   21.7200 C   0  0  2  0  0  0  0  0  0  0  0  0
  -18.3284  -21.2035   24.5739 C   0  0  0  0  0  0  0  0  0  0  0  0
  -25.7935  -11.5021   20.3963 N   0  0  0  0  0  0  0  0  0  0  0  0
  -29.0016  -18.4382   20.9401 N   0  0  0  0  0  0  0  0  0  0  0  0
  -29.9648  -18.0470   21.7680 N   0  0  0  0  0  0  0  0  0  0  0  0
  -26.2305  -12.7458   20.1348 N   0  0  0  0  0  0  0  0  0  0  0  0
  -20.4355  -22.0346   21.7928 N   0  0  0  0  0  0  0  0  0  0  0  0
  -29.9675  -13.4347   20.5465 N   0  0  0  0  0  0  0  0  0  0  0  0
  -25.5375  -15.0084   20.0301 N   0  0  0  0  0  0  0  0  0  0  0  0
  -21.7746  -12.8208   21.2347 N   0  0  0  0  0  0  0  0  0  0  0  0
  -20.1761  -25.3963   21.8299 N   0  0  0  0  0  0  0  0  0  0  0  0
  -18.2484  -19.5893   22.6266 N   0  0  0  0  0  0  0  0  0  0  0  0
  -30.1337  -15.6251   21.4229 N   0  0  0  0  0  0  0  0  0  0  0  0
  -18.5882  -16.4953   20.7882 N   0  3  0  0  0  0  0  0  0  0  0  0
  -22.6550  -14.8810   20.7455 O   0  0  0  0  0  0  0  0  0  0  0  0
  -22.0920  -24.2529   22.4964 O   0  0  0  0  0  0  0  0  0  0  0  0
  -18.1225  -22.3280   21.7948 O   0  0  0  0  0  0  0  0  0  0  0  0
  -19.9836  -18.0516   22.6717 O   0  0  0  0  0  0  0  0  0  0  0  0
  -31.9318  -14.6562   20.3814 O   0  0  0  0  0  0  0  0  0  0  0  0
  -21.2702   -7.3310   22.0366 O   0  0  0  0  0  0  0  0  0  0  0  0
  -26.3433  -20.2640   21.6667 O   0  0  0  0  0  0  0  0  0  1  0  0
  -23.3072   -3.6236   25.5736 F   0  0  0  0  0  0  0  0  0  0  0  0
  -23.5833   -5.9344   21.4517 F   0  0  0  0  0  0  0  0  0  0  0  0
  1  2  1  0  0  0  0
  1  5  2  0  0  0  0
  2  6  2  0  0  0  0
  3  8  2  0  0  0  0
  3 16  1  0  0  0  0
  4  9  1  0  0  0  0
  4 16  2  0  0  0  0
  5 18  1  0  0  0  0
  6 20  1  0  0  0  0
  7 10  2  0  0  0  0
  7 19  1  0  0  0  0
  8 22  1  0  0  0  0
  9 22  2  0  0  0  0
 10 23  1  0  0  0  0
 11 12  2  0  0  0  0
 11 24  1  0  0  0  0
 12 25  1  0  0  0  0
 13 21  1  0  0  0  0
 13 23  2  0  0  0  0
 14 25  2  0  0  0  0
 14 26  1  0  0  0  0
 15 28  2  0  0  0  0
 15 29  1  0  0  0  0
 16 27  1  0  0  0  0
 17 27  1  0  0  0  0
 17 30  2  0  0  0  0
 17 31  1  0  0  0  0
 18 20  2  0  0  0  0
 18 36  1  0  0  0  0
 19 21  2  0  0  0  0
 19 37  1  0  0  0  0
 20 47  1  0  0  0  0
 21 38  1  0  0  0  0
 22 77  1  0  0  0  0
 23 78  1  0  0  0  0
 24 26  2  0  0  0  0
 24 77  1  0  0  0  0
 25 79  1  0  0  0  0
 26 80  1  0  0  0  0
 27 60  2  0  0  0  0
 28 39  1  0  0  0  0
 28 62  1  0  0  0  0
 29 56  1  0  0  0  0
 29 61  2  0  0  0  0
 30 63  1  0  0  0  0
 30 66  1  0  0  0  0
 31 67  1  0  0  0  0
 31 72  2  0  0  0  0
 32 48  1  0  0  0  0
 32 68  1  0  0  0  0
 32 73  2  0  0  0  0
 33 57  1  0  0  0  0
 33 64  1  0  0  0  0
 33 74  2  0  0  0  0
 34 58  1  0  0  0  0
 34 69  1  0  0  0  0
 34 75  2  0  0  0  0
 35 65  1  0  0  0  0
 35 70  1  0  0  0  0
 35 76  2  0  0  0  0
 36 40  1  0  0  0  0
 37 48  1  0  0  0  0
 38 64  1  0  0  0  0
 39 41  1  0  0  0  0
 40 43  1  0  0  0  0
 41 50  1  0  0  0  0
 42 44  1  0  0  0  0
 42 45  1  0  0  0  0
 43 47  1  0  0  0  0
 44 49  1  0  0  0  0
 45 65  1  0  0  0  0
 46 49  1  0  0  0  0
 46 65  1  0  0  0  0
 47 68  1  0  0  0  0
 48 64  1  0  0  0  0
 49 63  1  0  0  0  0
 50 62  1  0  0  0  0
 50 70  1  0  0  0  0
 51 58  1  0  0  0  0
 52 59  1  0  0  0  0
 53 59  1  0  0  0  0
 54 59  1  0  0  0  0
 55 71  1  0  0  0  0
 56 78  1  0  0  0  0
 57 59  1  0  0  0  0
 57 69  1  0  0  0  0
 58 71  1  0  0  0  0
 60 63  1  0  0  0  0
 61 62  1  0  0  0  0
M  CHG  1  71   1
M  ISO  4  35 100  56 101  70 100  78 101
M  END
> <Batch ID>
0182

> <Smiles>
CNC(C)C(=O)NC(C(=O)N1Cc2cc([101O:1][101CH2:1]c3cc4n(n3)C([100NH:0][100C:0](=O)N3CCCC(n5nc(-c6ccc(Oc7ccc(F)cc7F)cc6)c(C(N)=O)c5N)C3)CC4)ccc2CC1C(=O)NC1CCCc2ccccc21)C(C)(C)C

> <Shape>
0.242

> <Color>
0.198

> <Negative vol penalty>
0.000

$$$$

  -OEChem-04052323053D

 84 93  0     1  0  0  0  0  0999 V2000
  -26.8856  -37.5600   22.5612 C   0  0  0  0  0  0  0  0  0  0  0  0
  -27.5495  -36.5647   21.8512 C   0  0  0  0  0  0  0  0  0  0  0  0
  -23.4479  -12.1804   16.2133 C   0  0  0  0  0  0  0  0  0  0  0  0
  -22.6442  -10.9803   18.1500 C   0  0  0  0  0  0  0  0  0  0  0  0
  -26.0442  -37.2172   23.6187 C   0  0  0  0  0  0  0  0  0  0  0  0
  -27.3731  -35.2259   22.1992 C   0  0  0  0  0  0  0  0  0  0  0  0
  -27.1303  -28.6859   19.2861 C   0  0  0  0  0  0  0  0  0  0  0  0
  -22.6328  -11.4013   15.3922 C   0  0  0  0  0  0  0  0  0  0  0  0
  -21.8290  -10.2012   17.3289 C   0  0  0  0  0  0  0  0  0  0  0  0
  -27.6978  -27.4207   19.4308 C   0  0  0  0  0  0  0  0  0  0  0  0
  -18.8633  -10.5217   15.7407 C   0  0  0  0  0  0  0  0  0  0  0  0
  -17.5476  -10.3078   16.1515 C   0  0  0  0  0  0  0  0  0  0  0  0
  -26.1581  -26.9418   21.2250 C   0  0  0  0  0  0  0  0  0  0  0  0
  -30.4487  -21.9395   21.2545 C   0  0  0  0  0  0  0  0  0  0  0  0
  -17.9481   -7.9256   16.1937 C   0  0  0  0  0  0  0  0  0  0  0  0
  -28.9506  -22.5622   19.0605 C   0  0  0  0  0  0  0  0  0  0  0  0
  -23.4537  -11.9698   17.5922 C   0  0  0  0  0  0  0  0  0  0  0  0
  -23.9627  -13.9941   19.0589 C   0  0  0  0  0  0  0  0  0  0  0  0
  -25.8499  -35.8730   23.9736 C   0  0  0  0  0  0  0  0  0  0  0  0
  -26.0779  -29.0934   20.1185 C   0  0  0  0  0  0  0  0  0  0  0  0
  -26.5293  -34.8649   23.2633 C   0  0  0  0  0  0  0  0  0  0  0  0
  -25.5773  -28.2118   21.0872 C   0  0  0  0  0  0  0  0  0  0  0  0
  -30.0530  -23.2567   21.0502 C   0  0  0  0  0  0  0  0  0  0  0  0
  -29.2895  -23.5824   19.9347 C   0  0  0  0  0  0  0  0  0  0  0  0
  -21.8233  -10.4118   15.9500 C   0  0  0  0  0  0  0  0  0  0  0  0
  -27.2136  -26.5495   20.4022 C   0  0  0  0  0  0  0  0  0  0  0  0
  -19.7214   -9.4375   15.5563 C   0  0  0  0  0  0  0  0  0  0  0  0
  -17.0900   -9.0097   16.3781 C   0  0  0  0  0  0  0  0  0  0  0  0
  -19.2638   -8.1395   15.7829 C   0  0  0  0  0  0  0  0  0  0  0  0
  -24.2960  -12.7739   18.4409 C   0  0  0  0  0  0  0  0  0  0  0  0
  -30.0577  -20.9929   20.3213 C   0  0  0  0  0  0  0  0  0  0  0  0
  -25.0952  -14.3494   19.7501 C   0  0  0  0  0  0  0  0  0  0  0  0
  -22.7389  -14.7396   19.0124 C   0  0  0  0  0  0  0  0  0  0  0  0
  -25.6750  -31.4154   22.2515 C   0  0  0  0  0  0  0  0  0  0  0  0
  -22.6213  -30.3217   22.2866 C   0  0  0  0  0  0  0  0  0  0  0  0
  -20.4635  -27.7357   21.7359 C   0  0  0  0  0  0  0  0  0  0  0  0
  -30.7096  -14.9368   19.6502 C   0  0  0  0  0  0  0  0  0  0  0  0
  -24.9674  -35.5542   25.1544 C   0  0  0  0  0  0  0  0  0  0  0  0
  -25.4589  -30.4515   19.9319 C   0  0  0  0  0  0  0  0  0  0  0  0
  -24.4356  -28.5935   21.9924 C   0  0  0  0  0  0  0  0  0  0  0  0
  -24.5427  -34.0894   25.2195 C   0  0  0  0  0  0  0  0  0  0  0  0
  -29.3025  -11.7374   20.7710 C   0  0  0  0  0  0  0  0  0  0  0  0
  -25.7414  -33.1752   24.9866 C   0  0  0  0  0  0  0  0  0  0  0  0
  -27.8593  -11.8080   20.2699 C   0  0  0  0  0  0  0  0  0  0  0  0
  -28.7424  -18.0289   19.9424 C   0  0  0  0  0  0  0  0  0  0  0  0
  -30.2580  -12.5210   19.8740 C   0  0  0  0  0  0  0  0  0  0  0  0
  -28.8219  -16.6391   19.3194 C   0  0  0  0  0  0  0  0  0  0  0  0
  -28.4214  -13.9864   19.1306 C   0  0  0  0  0  0  0  0  0  0  0  0
  -31.0299  -17.3813   19.9014 C   0  0  0  0  0  0  0  0  0  0  0  0
  -26.3444  -33.4000   23.5947 C   0  0  1  0  0  0  0  0  0  0  0  0
  -24.7327  -30.9531   21.1763 C   0  0  1  0  0  0  0  0  0  0  0  0
  -27.4203  -13.2670   20.0451 C   0  0  1  0  0  0  0  0  0  0  0  0
  -30.1336  -18.5873   19.6636 C   0  0  2  0  0  0  0  0  0  0  0  0
  -30.4574  -24.3012   22.0372 C   0  0  0  0  0  0  0  0  0  0  0  0
  -18.0328  -27.1315   21.8899 C   0  0  0  0  0  0  0  0  0  0  0  0
  -22.8775  -30.0735   25.3169 C   0  0  0  0  0  0  0  0  0  0  0  0
  -20.8435  -28.6138   25.2994 C   0  0  0  0  0  0  0  0  0  0  0  0
  -20.6850  -30.9801   24.5261 C   0  0  0  0  0  0  0  0  0  0  0  0
  -20.2926  -27.2027   18.8298 C   0  0  0  0  0  0  0  0  0  0  0  0
  -28.8390  -24.9765   19.6675 C   0  0  0  0  0  0  0  0  0  1  0  0
  -21.8681  -29.2793   23.0772 C   0  0  1  0  0  0  0  0  0  0  0  0
  -19.1397  -27.6685   20.9960 C   0  0  2  0  0  0  0  0  0  0  0  0
  -21.5913  -29.7299   24.5393 C   0  0  0  0  0  0  0  0  0  0  0  0
  -29.3163  -21.2712   19.2257 N   0  0  0  0  0  0  0  0  0  0  0  0
  -25.5426  -12.3806   18.7151 N   0  0  0  0  0  0  0  0  0  0  0  0
  -26.0026  -13.3592   19.5130 N   0  0  0  0  0  0  0  0  0  0  0  0
  -23.8680  -29.9344   21.7753 N   0  0  0  0  0  0  0  0  0  0  0  0
  -29.7822  -13.8893   19.6695 N   0  0  0  0  0  0  0  0  0  0  0  0
  -30.2173  -16.2333   19.5061 N   0  0  0  0  0  0  0  0  0  0  0  0
  -25.3933  -15.4092   20.5314 N   0  0  0  0  0  0  0  0  0  0  0  0
  -21.6751  -14.2310   18.2548 N   0  0  0  0  0  0  0  0  0  0  0  0
  -30.4602  -19.6821   20.5386 N   0  0  0  0  0  0  0  0  0  0  0  0
  -25.5384  -32.7497   22.5837 N   0  0  0  0  0  0  0  0  0  0  0  0
  -20.6664  -28.9735   22.3085 N   0  0  0  0  0  0  0  0  0  0  0  0
  -19.2560  -26.7790   19.8060 N   0  3  0  0  0  0  0  0  0  0  0  0
  -22.5986  -15.8329   19.6112 O   0  0  0  0  0  0  0  0  0  0  0  0
  -26.4663  -30.6200   22.7443 O   0  0  0  0  0  0  0  0  0  0  0  0
  -22.1187  -31.4362   22.1225 O   0  0  0  0  0  0  0  0  0  0  0  0
  -21.2384  -26.7840   21.8026 O   0  0  0  0  0  0  0  0  0  0  0  0
  -31.9205  -14.7279   19.8024 O   0  0  0  0  0  0  0  0  0  0  0  0
  -21.0276   -9.6515   15.1492 O   0  0  0  0  0  0  0  0  0  0  0  0
  -27.7698  -25.3060   20.5469 O   0  0  0  0  0  0  0  0  0  1  0  0
  -15.8269   -8.8046   16.7741 F   0  0  0  0  0  0  0  0  0  0  0  0
  -20.0838   -7.0940   15.6086 F   0  0  0  0  0  0  0  0  0  0  0  0
  1  2  1  0  0  0  0
  1  5  2  0  0  0  0
  2  6  2  0  0  0  0
  3  8  2  0  0  0  0
  3 17  1  0  0  0  0
  4  9  1  0  0  0  0
  4 17  2  0  0  0  0
  5 19  1  0  0  0  0
  6 21  1  0  0  0  0
  7 10  2  0  0  0  0
  7 20  1  0  0  0  0
  8 25  1  0  0  0  0
  9 25  2  0  0  0  0
 10 26  1  0  0  0  0
 11 12  2  0  0  0  0
 11 27  1  0  0  0  0
 12 28  1  0  0  0  0
 13 22  1  0  0  0  0
 13 26  2  0  0  0  0
 14 23  1  0  0  0  0
 14 31  2  0  0  0  0
 15 28  2  0  0  0  0
 15 29  1  0  0  0  0
 16 24  1  0  0  0  0
 16 64  2  0  0  0  0
 17 30  1  0  0  0  0
 18 30  1  0  0  0  0
 18 32  2  0  0  0  0
 18 33  1  0  0  0  0
 19 21  2  0  0  0  0
 19 38  1  0  0  0  0
 20 22  2  0  0  0  0
 20 39  1  0  0  0  0
 21 50  1  0  0  0  0
 22 40  1  0  0  0  0
 23 24  2  0  0  0  0
 23 54  1  0  0  0  0
 24 60  1  0  0  0  0
 25 81  1  0  0  0  0
 26 82  1  0  0  0  0
 27 29  2  0  0  0  0
 27 81  1  0  0  0  0
 28 83  1  0  0  0  0
 29 84  1  0  0  0  0
 30 65  2  0  0  0  0
 31 64  1  0  0  0  0
 31 72  1  0  0  0  0
 32 66  1  0  0  0  0
 32 70  1  0  0  0  0
 33 71  1  0  0  0  0
 33 76  2  0  0  0  0
 34 51  1  0  0  0  0
 34 73  1  0  0  0  0
 34 77  2  0  0  0  0
 35 61  1  0  0  0  0
 35 67  1  0  0  0  0
 35 78  2  0  0  0  0
 36 62  1  0  0  0  0
 36 74  1  0  0  0  0
 36 79  2  0  0  0  0
 37 68  1  0  0  0  0
 37 69  1  0  0  0  0
 37 80  2  0  0  0  0
 38 41  1  0  0  0  0
 39 51  1  0  0  0  0
 40 67  1  0  0  0  0
 41 43  1  0  0  0  0
 42 44  1  0  0  0  0
 42 46  1  0  0  0  0
 43 50  1  0  0  0  0
 44 52  1  0  0  0  0
 45 47  1  0  0  0  0
 45 53  1  0  0  0  0
 46 68  1  0  0  0  0
 47 69  1  0  0  0  0
 48 52  1  0  0  0  0
 48 68  1  0  0  0  0
 49 53  1  0  0  0  0
 49 69  1  0  0  0  0
 50 73  1  0  0  0  0
 51 67  1  0  0  0  0
 52 66  1  0  0  0  0
 53 72  1  0  0  0  0
 55 62  1  0  0  0  0
 56 63  1  0  0  0  0
 57 63  1  0  0  0  0
 58 63  1  0  0  0  0
 59 75  1  0  0  0  0
 60 82  1  0  0  0  0
 61 63  1  0  0  0  0
 61 74  1  0  0  0  0
 62 75  1  0  0  0  0
 65 66  1  0  0  0  0
M  CHG  1  75   1
M  ISO  4  37 100  60 101  69 100  82 101
M  END
> <Batch ID>
0182

> <Smiles>
CNC(C)C(=O)NC(C(=O)N1Cc2cc([101O:1][101CH2:1]c3cnc(NC4CC[100N:0]([100C:0](=O)N5CCCC(n6nc(-c7ccc(Oc8ccc(F)cc8F)cc7)c(C(N)=O)c6N)C5)C4)cc3C)ccc2CC1C(=O)NC1CCCc2ccccc21)C(C)(C)C

> <Shape>
0.296

> <Color>
0.118

> <Negative vol penalty>
0.000

$$$$

  -OEChem-04052323053D

 87 96  0     1  0  0  0  0  0999 V2000
  -29.5931  -22.9691   16.2385 C   0  0  0  0  0  0  0  0  0  0  0  0
  -28.5611  -23.8997   16.2808 C   0  0  0  0  0  0  0  0  0  0  0  0
  -24.5686  -13.6372   21.3665 C   0  0  0  0  0  0  0  0  0  0  0  0
  -26.7709  -13.2288   20.4608 C   0  0  0  0  0  0  0  0  0  0  0  0
  -30.1558  -22.5035   17.4250 C   0  0  0  0  0  0  0  0  0  0  0  0
  -28.0995  -24.3741   17.5092 C   0  0  0  0  0  0  0  0  0  0  0  0
  -23.4909  -28.1370   18.8239 C   0  0  0  0  0  0  0  0  0  0  0  0
  -24.4258  -12.2756   21.6334 C   0  0  0  0  0  0  0  0  0  0  0  0
  -26.6281  -11.8672   20.7278 C   0  0  0  0  0  0  0  0  0  0  0  0
  -22.1361  -28.0348   19.1367 C   0  0  0  0  0  0  0  0  0  0  0  0
  -23.6855   -9.4641   19.9095 C   0  0  0  0  0  0  0  0  0  0  0  0
  -22.4753   -8.8608   19.5674 C   0  0  0  0  0  0  0  0  0  0  0  0
  -22.6747  -28.1654   21.4845 C   0  0  0  0  0  0  0  0  0  0  0  0
  -22.1248   -8.2530   21.8793 C   0  0  0  0  0  0  0  0  0  0  0  0
  -18.4838  -23.7619   18.9362 C   0  0  0  0  0  0  0  0  0  0  0  0
  -25.7411  -14.1138   20.7801 C   0  0  0  0  0  0  0  0  0  0  0  0
  -26.4229  -16.5030   21.3584 C   0  0  0  0  0  0  0  0  0  0  0  0
  -29.6918  -22.9636   18.6685 C   0  0  0  0  0  0  0  0  0  0  0  0
  -24.4503  -28.2434   19.8411 C   0  0  0  0  0  0  0  0  0  0  0  0
  -28.6707  -23.9343   18.7170 C   0  0  0  0  0  0  0  0  0  0  0  0
  -24.0408  -28.2714   21.1818 C   0  0  0  0  0  0  0  0  0  0  0  0
  -25.4556  -11.3906   21.3141 C   0  0  0  0  0  0  0  0  0  0  0  0
  -21.7280  -28.0461   20.4673 C   0  0  0  0  0  0  0  0  0  0  0  0
  -24.1154   -9.4618   21.2365 C   0  0  0  0  0  0  0  0  0  0  0  0
  -21.6949   -8.2553   20.5523 C   0  0  0  0  0  0  0  0  0  0  0  0
  -23.3350   -8.8563   22.2214 C   0  0  0  0  0  0  0  0  0  0  0  0
  -25.8889  -15.5201   20.5036 C   0  0  0  0  0  0  0  0  0  0  0  0
  -17.4371  -25.3988   20.1422 C   0  0  0  0  0  0  0  0  0  0  0  0
  -18.6020  -25.6295   20.8403 C   0  0  0  0  0  0  0  0  0  0  0  0
  -19.6490  -23.9931   19.6336 C   0  0  0  0  0  0  0  0  0  0  0  0
  -26.3423  -17.6677   20.6349 C   0  0  0  0  0  0  0  0  0  0  0  0
  -26.9451  -16.3747   22.6875 C   0  0  0  0  0  0  0  0  0  0  0  0
  -26.9136  -26.4754   20.7950 C   0  0  0  0  0  0  0  0  0  0  0  0
  -27.4388  -28.9805   22.7878 C   0  0  0  0  0  0  0  0  0  0  0  0
  -26.1671  -31.6754   24.4513 C   0  0  0  0  0  0  0  0  0  0  0  0
  -23.7271  -21.1439   17.2935 C   0  0  0  0  0  0  0  0  0  0  0  0
  -30.3420  -22.4320   19.9214 C   0  0  0  0  0  0  0  0  0  0  0  0
  -25.9055  -28.3797   19.4861 C   0  0  0  0  0  0  0  0  0  0  0  0
  -25.0294  -28.4042   22.3103 C   0  0  0  0  0  0  0  0  0  0  0  0
  -29.4952  -22.6535   21.1705 C   0  0  0  0  0  0  0  0  0  0  0  0
  -25.2926  -18.4627   15.7594 C   0  0  0  0  0  0  0  0  0  0  0  0
  -29.0337  -24.1017   21.2355 C   0  0  0  0  0  0  0  0  0  0  0  0
  -25.6356  -17.5283   16.9191 C   0  0  0  0  0  0  0  0  0  0  0  0
  -23.9094  -19.0759   15.9440 C   0  0  0  0  0  0  0  0  0  0  0  0
  -20.5954  -21.8587   18.8258 C   0  0  0  0  0  0  0  0  0  0  0  0
  -21.8698  -21.0357   18.9949 C   0  0  0  0  0  0  0  0  0  0  0  0
  -24.0837  -18.8906   18.4046 C   0  0  0  0  0  0  0  0  0  0  0  0
  -22.1217  -23.6779   19.6561 C   0  0  0  0  0  0  0  0  0  0  0  0
  -28.1316  -24.4415   20.0424 C   0  0  1  0  0  0  0  0  0  0  0  0
  -26.8385  -27.9658   20.6199 C   0  0  1  0  0  0  0  0  0  0  0  0
  -25.4783  -18.2459   18.2713 C   0  0  1  0  0  0  0  0  0  0  0  0
  -23.1611  -23.1423   18.6530 C   0  0  1  0  0  0  0  0  0  0  0  0
  -16.1976  -26.1787   20.4193 C   0  0  0  0  0  0  0  0  0  0  0  0
  -24.5705  -23.4418   19.1754 C   0  0  0  0  0  0  0  0  0  0  0  0
  -18.2550  -26.1208   23.2836 C   0  0  0  0  0  0  0  0  0  0  0  0
  -26.8314  -33.5077   26.0321 C   0  0  0  0  0  0  0  0  0  0  0  0
  -27.4592  -26.9813   25.0927 C   0  0  0  0  0  0  0  0  0  0  0  0
  -27.1693  -28.9033   26.6706 C   0  0  0  0  0  0  0  0  0  0  0  0
  -29.2086  -28.7623   25.2410 C   0  0  0  0  0  0  0  0  0  0  0  0
  -25.4420  -33.7796   22.5006 C   0  0  0  0  0  0  0  0  0  0  0  0
  -20.0744  -27.3223   22.0157 C   0  0  0  0  0  0  0  0  0  1  0  0
  -18.6770  -26.6695   21.9053 C   0  0  1  0  0  0  0  0  0  0  0  0
  -26.9901  -29.3507   24.1809 C   0  0  1  0  0  0  0  0  0  0  0  0
  -26.6586  -33.1063   24.5755 C   0  0  2  0  0  0  0  0  0  0  0  0
  -27.6881  -28.4949   25.2753 C   0  0  0  0  0  0  0  0  0  0  0  0
  -17.3570  -24.4607   19.1779 N   0  0  0  0  0  0  0  0  0  0  0  0
  -25.4979  -16.0171   19.3272 N   0  0  0  0  0  0  0  0  0  0  0  0
  -19.7289  -24.9310   20.5983 N   0  0  0  0  0  0  0  0  0  0  0  0
  -25.7863  -17.3251   19.4375 N   0  0  0  0  0  0  0  0  0  0  0  0
  -20.7713  -23.2251   19.3209 N   0  0  3  0  0  0  0  0  0  0  0  0
  -26.4414  -28.5281   21.9124 N   0  0  0  0  0  0  0  0  0  0  0  0
  -23.7968  -19.7433   17.2409 N   0  0  0  0  0  0  0  0  0  0  0  0
  -23.0093  -21.7069   18.3653 N   0  0  0  0  0  0  0  0  0  0  0  0
  -26.6934  -18.9413   20.9125 N   0  0  0  0  0  0  0  0  0  0  0  0
  -26.9536  -15.1057   23.2823 N   0  0  0  0  0  0  0  0  0  0  0  0
  -27.8873  -25.8670   20.0262 N   0  0  0  0  0  0  0  0  0  0  0  0
  -27.2122  -30.7866   24.3131 N   0  0  0  0  0  0  0  0  0  0  0  0
  -25.6891  -34.0438   23.9414 N   0  3  0  0  0  0  0  0  0  0  0  0
  -27.3759  -17.3590   23.3347 O   0  0  0  0  0  0  0  0  0  0  0  0
  -26.1460  -25.9188   21.5714 O   0  0  0  0  0  0  0  0  0  0  0  0
  -28.6291  -29.0954   22.4853 O   0  0  0  0  0  0  0  0  0  0  0  0
  -24.9755  -31.3757   24.4783 O   0  0  0  0  0  0  0  0  0  0  0  0
  -24.2758  -21.8517   16.4396 O   0  0  0  0  0  0  0  0  0  0  0  0
  -25.3167  -10.0619   21.5747 O   0  0  0  0  0  0  0  0  0  0  0  0
  -20.3977  -27.9452   20.7776 O   0  0  0  0  0  0  0  0  0  1  0  0
  -20.5320   -7.6773   20.2239 F   0  0  0  0  0  0  0  0  0  0  0  0
  -23.7422   -8.8520   23.4981 F   0  0  0  0  0  0  0  0  0  0  0  0
  1  2  1  0  0  0  0
  1  5  2  0  0  0  0
  2  6  2  0  0  0  0
  3  8  2  0  0  0  0
  3 16  1  0  0  0  0
  4  9  1  0  0  0  0
  4 16  2  0  0  0  0
  5 18  1  0  0  0  0
  6 20  1  0  0  0  0
  7 10  2  0  0  0  0
  7 19  1  0  0  0  0
  8 22  1  0  0  0  0
  9 22  2  0  0  0  0
 10 23  1  0  0  0  0
 11 12  2  0  0  0  0
 11 24  1  0  0  0  0
 12 25  1  0  0  0  0
 13 21  1  0  0  0  0
 13 23  2  0  0  0  0
 14 25  2  0  0  0  0
 14 26  1  0  0  0  0
 15 30  1  0  0  0  0
 15 66  2  0  0  0  0
 16 27  1  0  0  0  0
 17 27  1  0  0  0  0
 17 31  2  0  0  0  0
 17 32  1  0  0  0  0
 18 20  2  0  0  0  0
 18 37  1  0  0  0  0
 19 21  2  0  0  0  0
 19 38  1  0  0  0  0
 20 49  1  0  0  0  0
 21 39  1  0  0  0  0
 22 84  1  0  0  0  0
 23 85  1  0  0  0  0
 24 26  2  0  0  0  0
 24 84  1  0  0  0  0
 25 86  1  0  0  0  0
 26 87  1  0  0  0  0
 27 67  2  0  0  0  0
 28 29  2  0  0  0  0
 28 53  1  0  0  0  0
 28 66  1  0  0  0  0
 29 62  1  0  0  0  0
 29 68  1  0  0  0  0
 30 68  2  0  0  0  0
 30 70  1  0  0  0  0
 31 69  1  0  0  0  0
 31 74  1  0  0  0  0
 32 75  1  0  0  0  0
 32 79  2  0  0  0  0
 33 50  1  0  0  0  0
 33 76  1  0  0  0  0
 33 80  2  0  0  0  0
 34 63  1  0  0  0  0
 34 71  1  0  0  0  0
 34 81  2  0  0  0  0
 35 64  1  0  0  0  0
 35 77  1  0  0  0  0
 35 82  2  0  0  0  0
 36 72  1  0  0  0  0
 36 73  1  0  0  0  0
 36 83  2  0  0  0  0
 37 40  1  0  0  0  0
 38 50  1  0  0  0  0
 39 71  1  0  0  0  0
 40 42  1  0  0  0  0
 41 43  1  0  0  0  0
 41 44  1  0  0  0  0
 42 49  1  0  0  0  0
 43 51  1  0  0  0  0
 44 72  1  0  0  0  0
 45 46  1  0  0  0  0
 45 70  1  0  0  0  0
 46 73  1  0  0  0  0
 47 51  1  0  0  0  0
 47 72  1  0  0  0  0
 48 52  1  0  0  0  0
 48 70  1  0  0  0  0
 49 76  1  0  0  0  0
 50 71  1  0  0  0  0
 51 69  1  0  0  0  0
 52 54  1  0  0  0  0
 52 73  1  0  0  0  0
 55 62  1  0  0  0  0
 56 64  1  0  0  0  0
 57 65  1  0  0  0  0
 58 65  1  0  0  0  0
 59 65  1  0  0  0  0
 60 78  1  0  0  0  0
 61 62  1  0  0  0  0
 61 85  1  0  0  0  0
 63 65  1  0  0  0  0
 63 77  1  0  0  0  0
 64 78  1  0  0  0  0
 67 69  1  0  0  0  0
M  CHG  1  78   1
M  ISO  4  36 100  61 101  73 100  85 101
M  END
> <Batch ID>
0182

> <Smiles>
CNC(C)C(=O)NC(C(=O)N1Cc2cc([101O:1][101CH2:1]C(C)c3nc(N4CC[100N:0]([100C:0](=O)N5CCCC(n6nc(-c7ccc(Oc8ccc(F)cc8F)cc7)c(C(N)=O)c6N)C5)C(C)C4)cnc3C)ccc2CC1C(=O)NC1CCCc2ccccc21)C(C)(C)C

> <Shape>
0.244

> <Color>
0.056

> <Negative vol penalty>
0.000

$$$$

  -OEChem-04052323053D

 84 93  0     1  0  0  0  0  0999 V2000
  -28.8538  -36.6786   18.9423 C   0  0  0  0  0  0  0  0  0  0  0  0
  -28.9735  -35.3202   18.6665 C   0  0  0  0  0  0  0  0  0  0  0  0
  -22.6915  -11.3389   19.2239 C   0  0  0  0  0  0  0  0  0  0  0  0
  -23.2684   -9.9301   21.0999 C   0  0  0  0  0  0  0  0  0  0  0  0
  -28.4299  -37.0982   20.2025 C   0  0  0  0  0  0  0  0  0  0  0  0
  -28.6704  -34.3807   19.6513 C   0  0  0  0  0  0  0  0  0  0  0  0
  -26.1424  -28.8644   18.8232 C   0  0  0  0  0  0  0  0  0  0  0  0
  -21.6770  -10.4501   18.8684 C   0  0  0  0  0  0  0  0  0  0  0  0
  -22.2538   -9.0413   20.7445 C   0  0  0  0  0  0  0  0  0  0  0  0
  -26.6893  -27.5845   18.7431 C   0  0  0  0  0  0  0  0  0  0  0  0
  -21.7771   -6.5850   18.4707 C   0  0  0  0  0  0  0  0  0  0  0  0
  -22.0767   -5.2227   18.4788 C   0  0  0  0  0  0  0  0  0  0  0  0
  -26.2231  -27.2454   21.0856 C   0  0  0  0  0  0  0  0  0  0  0  0
  -20.3515   -4.8532   20.1294 C   0  0  0  0  0  0  0  0  0  0  0  0
  -29.2131  -23.1903   21.2064 C   0  0  0  0  0  0  0  0  0  0  0  0
  -23.4873  -11.0789   20.3396 C   0  0  0  0  0  0  0  0  0  0  0  0
  -24.4328  -13.1035   21.5703 C   0  0  0  0  0  0  0  0  0  0  0  0
  -28.1121  -36.1631   21.2001 C   0  0  0  0  0  0  0  0  0  0  0  0
  -25.6408  -29.3494   20.0396 C   0  0  0  0  0  0  0  0  0  0  0  0
  -28.2431  -34.7882   20.9265 C   0  0  0  0  0  0  0  0  0  0  0  0
  -25.6681  -28.5309   21.1778 C   0  0  0  0  0  0  0  0  0  0  0  0
  -27.9346  -23.4443   20.7534 C   0  0  0  0  0  0  0  0  0  0  0  0
  -21.4581   -9.3014   19.6287 C   0  0  0  0  0  0  0  0  0  0  0  0
  -26.7323  -26.7758   19.8751 C   0  0  0  0  0  0  0  0  0  0  0  0
  -20.7648   -7.0814   19.2921 C   0  0  0  0  0  0  0  0  0  0  0  0
  -21.3639   -4.3568   19.3081 C   0  0  0  0  0  0  0  0  0  0  0  0
  -20.0520   -6.2155   20.1214 C   0  0  0  0  0  0  0  0  0  0  0  0
  -24.5358  -11.9963   20.7070 C   0  0  0  0  0  0  0  0  0  0  0  0
  -27.3275  -22.4111   20.0690 C   0  0  0  0  0  0  0  0  0  0  0  0
  -25.6956  -13.6434   21.5885 C   0  0  0  0  0  0  0  0  0  0  0  0
  -29.1609  -21.0932   20.3310 C   0  0  0  0  0  0  0  0  0  0  0  0
  -23.2972  -13.5995   22.2914 C   0  0  0  0  0  0  0  0  0  0  0  0
  -26.3718  -31.7745   21.9601 C   0  0  0  0  0  0  0  0  0  0  0  0
  -23.7140  -30.8083   23.5491 C   0  0  0  0  0  0  0  0  0  0  0  0
  -21.5268  -28.2911   24.2747 C   0  0  0  0  0  0  0  0  0  0  0  0
  -30.1724  -15.3090   18.5783 C   0  0  0  0  0  0  0  0  0  0  0  0
  -27.7034  -36.6655   22.5622 C   0  0  0  0  0  0  0  0  0  0  0  0
  -25.0299  -30.7223   20.1032 C   0  0  0  0  0  0  0  0  0  0  0  0
  -25.1243  -28.9968   22.5028 C   0  0  0  0  0  0  0  0  0  0  0  0
  -27.0423  -35.5990   23.4316 C   0  0  0  0  0  0  0  0  0  0  0  0
  -30.0822  -11.8559   19.8195 C   0  0  0  0  0  0  0  0  0  0  0  0
  -27.8429  -34.3014   23.3859 C   0  0  0  0  0  0  0  0  0  0  0  0
  -28.6095  -11.6659   20.1856 C   0  0  0  0  0  0  0  0  0  0  0  0
  -28.2850  -17.9482   20.3071 C   0  0  0  0  0  0  0  0  0  0  0  0
  -30.2625  -12.8445   18.6698 C   0  0  0  0  0  0  0  0  0  0  0  0
  -28.2004  -16.6259   19.5520 C   0  0  0  0  0  0  0  0  0  0  0  0
  -28.1377  -13.9554   19.2394 C   0  0  0  0  0  0  0  0  0  0  0  0
  -30.2327  -17.7574   18.9567 C   0  0  0  0  0  0  0  0  0  0  0  0
  -27.8998  -33.7382   21.9607 C   0  0  1  0  0  0  0  0  0  0  0  0
  -25.0162  -31.3056   21.5128 C   0  0  1  0  0  0  0  0  0  0  0  0
  -27.9206  -13.0202   20.4371 C   0  0  1  0  0  0  0  0  0  0  0  0
  -29.1962  -18.7757   19.4072 C   0  0  2  0  0  0  0  0  0  0  0  0
  -25.9422  -22.5710   19.5352 C   0  0  0  0  0  0  0  0  0  0  0  0
  -19.4770  -27.7932   25.6339 C   0  0  0  0  0  0  0  0  0  0  0  0
  -25.4226  -30.6790   26.0738 C   0  0  0  0  0  0  0  0  0  0  0  0
  -23.6215  -29.3037   27.1383 C   0  0  0  0  0  0  0  0  0  0  0  0
  -23.1379  -31.6395   26.4084 C   0  0  0  0  0  0  0  0  0  0  0  0
  -19.9421  -27.6423   21.8608 C   0  0  0  0  0  0  0  0  0  0  0  0
  -27.2772  -24.7528   21.0004 C   0  0  0  0  0  0  0  0  0  1  0  0
  -23.4314  -29.8320   24.6653 C   0  0  1  0  0  0  0  0  0  0  0  0
  -20.0095  -28.2464   24.2834 C   0  0  2  0  0  0  0  0  0  0  0  0
  -23.9154  -30.3552   26.0471 C   0  0  0  0  0  0  0  0  0  0  0  0
  -29.8589  -22.0217   21.0122 N   0  0  0  0  0  0  0  0  0  0  0  0
  -25.7668  -11.8409   20.2124 N   0  0  0  0  0  0  0  0  0  0  0  0
  -27.9137  -21.2179   19.8387 N   0  0  0  0  0  0  0  0  0  0  0  0
  -26.4488  -12.8576   20.7667 N   0  0  0  0  0  0  0  0  0  0  0  0
  -24.5428  -30.3493   22.5156 N   0  0  0  0  0  0  0  0  0  0  0  0
  -29.5673  -14.1020   18.9453 N   0  0  0  0  0  0  0  0  0  0  0  0
  -29.5070  -16.4905   18.9029 N   0  0  0  0  0  0  0  0  0  0  0  0
  -26.2240  -14.7090   22.2271 N   0  0  0  0  0  0  0  0  0  0  0  0
  -22.0756  -12.9252   22.1598 N   0  0  0  0  0  0  0  0  0  0  0  0
  -29.7949  -19.8774   20.1134 N   0  0  0  0  0  0  0  0  0  0  0  0
  -26.6525  -33.0854   21.6251 N   0  0  0  0  0  0  0  0  0  0  0  0
  -22.0028  -29.5429   24.6028 N   0  0  0  0  0  0  0  0  0  0  0  0
  -19.5130  -27.3031   23.2420 N   0  3  0  0  0  0  0  0  0  0  0  0
  -23.3598  -14.6203   23.0177 O   0  0  0  0  0  0  0  0  0  0  0  0
  -27.1080  -31.0044   22.5657 O   0  0  0  0  0  0  0  0  0  0  0  0
  -23.2119  -31.9344   23.5891 O   0  0  0  0  0  0  0  0  0  0  0  0
  -22.2205  -27.3124   24.0073 O   0  0  0  0  0  0  0  0  0  0  0  0
  -31.2808  -15.3324   18.0269 O   0  0  0  0  0  0  0  0  0  0  0  0
  -20.4680   -8.4340   19.2823 O   0  0  0  0  0  0  0  0  0  0  0  0
  -27.2694  -25.5186   19.7994 O   0  0  0  0  0  0  0  0  0  1  0  0
  -21.6506   -3.0484   19.3146 F   0  0  0  0  0  0  0  0  0  0  0  0
  -19.0776   -6.6863   20.9117 F   0  0  0  0  0  0  0  0  0  0  0  0
  1  2  1  0  0  0  0
  1  5  2  0  0  0  0
  2  6  2  0  0  0  0
  3  8  2  0  0  0  0
  3 16  1  0  0  0  0
  4  9  1  0  0  0  0
  4 16  2  0  0  0  0
  5 18  1  0  0  0  0
  6 20  1  0  0  0  0
  7 10  2  0  0  0  0
  7 19  1  0  0  0  0
  8 23  1  0  0  0  0
  9 23  2  0  0  0  0
 10 24  1  0  0  0  0
 11 12  2  0  0  0  0
 11 25  1  0  0  0  0
 12 26  1  0  0  0  0
 13 21  1  0  0  0  0
 13 24  2  0  0  0  0
 14 26  2  0  0  0  0
 14 27  1  0  0  0  0
 15 22  1  0  0  0  0
 15 63  2  0  0  0  0
 16 28  1  0  0  0  0
 17 28  1  0  0  0  0
 17 30  2  0  0  0  0
 17 32  1  0  0  0  0
 18 20  2  0  0  0  0
 18 37  1  0  0  0  0
 19 21  2  0  0  0  0
 19 38  1  0  0  0  0
 20 49  1  0  0  0  0
 21 39  1  0  0  0  0
 22 29  2  0  0  0  0
 22 59  1  0  0  0  0
 23 81  1  0  0  0  0
 24 82  1  0  0  0  0
 25 27  2  0  0  0  0
 25 81  1  0  0  0  0
 26 83  1  0  0  0  0
 27 84  1  0  0  0  0
 28 64  2  0  0  0  0
 29 53  1  0  0  0  0
 29 65  1  0  0  0  0
 30 66  1  0  0  0  0
 30 70  1  0  0  0  0
 31 63  1  0  0  0  0
 31 65  2  0  0  0  0
 31 72  1  0  0  0  0
 32 71  1  0  0  0  0
 32 76  2  0  0  0  0
 33 50  1  0  0  0  0
 33 73  1  0  0  0  0
 33 77  2  0  0  0  0
 34 60  1  0  0  0  0
 34 67  1  0  0  0  0
 34 78  2  0  0  0  0
 35 61  1  0  0  0  0
 35 74  1  0  0  0  0
 35 79  2  0  0  0  0
 36 68  1  0  0  0  0
 36 69  1  0  0  0  0
 36 80  2  0  0  0  0
 37 40  1  0  0  0  0
 38 50  1  0  0  0  0
 39 67  1  0  0  0  0
 40 42  1  0  0  0  0
 41 43  1  0  0  0  0
 41 45  1  0  0  0  0
 42 49  1  0  0  0  0
 43 51  1  0  0  0  0
 44 46  1  0  0  0  0
 44 52  1  0  0  0  0
 45 68  1  0  0  0  0
 46 69  1  0  0  0  0
 47 51  1  0  0  0  0
 47 68  1  0  0  0  0
 48 52  1  0  0  0  0
 48 69  1  0  0  0  0
 49 73  1  0  0  0  0
 50 67  1  0  0  0  0
 51 66  1  0  0  0  0
 52 72  1  0  0  0  0
 54 61  1  0  0  0  0
 55 62  1  0  0  0  0
 56 62  1  0  0  0  0
 57 62  1  0  0  0  0
 58 75  1  0  0  0  0
 59 82  1  0  0  0  0
 60 62  1  0  0  0  0
 60 74  1  0  0  0  0
 61 75  1  0  0  0  0
 64 66  1  0  0  0  0
M  CHG  1  75   1
M  ISO  4  36 100  59 101  69 100  82 101
M  END
> <Batch ID>
0182

> <Smiles>
CNC(C)C(=O)NC(C(=O)N1Cc2cc([101O:1][101CH2:1]c3cnc(NC4CC[100N:0]([100C:0](=O)N5CCCC(n6nc(-c7ccc(Oc8ccc(F)cc8F)cc7)c(C(N)=O)c6N)C5)C4)nc3C)ccc2CC1C(=O)NC1CCCc2ccccc21)C(C)(C)C

> <Shape>
0.287

> <Color>
0.126

> <Negative vol penalty>
0.000

$$$$

  -OEChem-04052323053D

 80 89  0     1  0  0  0  0  0999 V2000
  -37.5535  -27.5572   19.7108 C   0  0  0  0  0  0  0  0  0  0  0  0
  -36.6803  -26.6038   20.2247 C   0  0  0  0  0  0  0  0  0  0  0  0
  -23.1333   -9.7954   19.9250 C   0  0  0  0  0  0  0  0  0  0  0  0
  -23.7477   -9.9017   22.2592 C   0  0  0  0  0  0  0  0  0  0  0  0
  -37.0613  -28.7827   19.2639 C   0  0  0  0  0  0  0  0  0  0  0  0
  -35.3143  -26.8759   20.2928 C   0  0  0  0  0  0  0  0  0  0  0  0
  -32.4786  -22.9956   18.6969 C   0  0  0  0  0  0  0  0  0  0  0  0
  -31.3147  -18.0043   24.4808 C   0  0  0  0  0  0  0  0  0  0  0  0
  -22.3892   -8.6421   20.1734 C   0  0  0  0  0  0  0  0  0  0  0  0
  -23.0035   -8.7485   22.5076 C   0  0  0  0  0  0  0  0  0  0  0  0
  -32.3031  -21.9302   19.5789 C   0  0  0  0  0  0  0  0  0  0  0  0
  -23.3687   -5.4120   22.1007 C   0  0  0  0  0  0  0  0  0  0  0  0
  -23.9502   -4.4241   22.8953 C   0  0  0  0  0  0  0  0  0  0  0  0
  -31.6628  -19.0247   23.6014 C   0  0  0  0  0  0  0  0  0  0  0  0
  -30.1305  -22.7911   20.1770 C   0  0  0  0  0  0  0  0  0  0  0  0
  -22.1431   -4.6388   24.4845 C   0  0  0  0  0  0  0  0  0  0  0  0
  -23.8127  -10.4252   20.9679 C   0  0  0  0  0  0  0  0  0  0  0  0
  -24.1310  -12.9485   20.7700 C   0  0  0  0  0  0  0  0  0  0  0  0
  -35.6874  -29.0662   19.3176 C   0  0  0  0  0  0  0  0  0  0  0  0
  -31.4843  -23.9743   18.5562 C   0  0  0  0  0  0  0  0  0  0  0  0
  -34.8034  -28.1069   19.8474 C   0  0  0  0  0  0  0  0  0  0  0  0
  -30.9476  -16.7819   23.9490 C   0  0  0  0  0  0  0  0  0  0  0  0
  -30.2947  -23.8665   19.2906 C   0  0  0  0  0  0  0  0  0  0  0  0
  -22.3242   -8.1187   21.4647 C   0  0  0  0  0  0  0  0  0  0  0  0
  -31.1301  -21.8294   20.3212 C   0  0  0  0  0  0  0  0  0  0  0  0
  -22.1744   -6.0134   22.4980 C   0  0  0  0  0  0  0  0  0  0  0  0
  -23.3374   -4.0375   24.0872 C   0  0  0  0  0  0  0  0  0  0  0  0
  -21.5616   -5.6267   23.6899 C   0  0  0  0  0  0  0  0  0  0  0  0
  -24.5821  -11.6162   20.7118 C   0  0  0  0  0  0  0  0  0  0  0  0
  -31.6362  -18.7592   22.2350 C   0  0  0  0  0  0  0  0  0  0  0  0
  -30.9427  -16.6093   22.5719 C   0  0  0  0  0  0  0  0  0  0  0  0
  -25.2347  -13.6991   20.4462 C   0  0  0  0  0  0  0  0  0  0  0  0
  -22.8307  -13.4617   21.0885 C   0  0  0  0  0  0  0  0  0  0  0  0
  -31.3321  -27.1074   19.0701 C   0  0  0  0  0  0  0  0  0  0  0  0
  -28.4009  -26.7931   17.7169 C   0  0  0  0  0  0  0  0  0  0  0  0
  -25.7522  -24.7715   16.9789 C   0  0  0  0  0  0  0  0  0  0  0  0
  -30.6912  -14.7405   20.9849 C   0  0  0  0  0  0  0  0  0  0  0  0
  -35.2080  -30.4231   18.8664 C   0  0  0  0  0  0  0  0  0  0  0  0
  -31.6777  -25.1028   17.5808 C   0  0  0  0  0  0  0  0  0  0  0  0
  -30.6060  -15.5242   24.6732 C   0  0  0  0  0  0  0  0  0  0  0  0
  -29.1881  -24.8800   19.1610 C   0  0  0  0  0  0  0  0  0  0  0  0
  -33.7019  -30.4881   18.6263 C   0  0  0  0  0  0  0  0  0  0  0  0
  -29.7085  -12.3653   18.5526 C   0  0  0  0  0  0  0  0  0  0  0  0
  -32.9484  -29.8390   19.7829 C   0  0  0  0  0  0  0  0  0  0  0  0
  -28.2642  -12.0322   18.9158 C   0  0  0  0  0  0  0  0  0  0  0  0
  -30.1499  -14.6202   23.5206 C   0  0  0  0  0  0  0  0  0  0  0  0
  -30.5462  -12.5719   19.8068 C   0  0  0  0  0  0  0  0  0  0  0  0
  -28.5606  -13.3634   21.0695 C   0  0  0  0  0  0  0  0  0  0  0  0
  -33.3122  -28.3552   19.9148 C   0  0  1  0  0  0  0  0  0  0  0  0
  -30.8162  -26.3212   17.8982 C   0  0  1  0  0  0  0  0  0  0  0  0
  -27.6742  -13.1157   19.8313 C   0  0  2  0  0  0  0  0  0  0  0  0
  -23.4867  -24.8081   15.9002 C   0  0  0  0  0  0  0  0  0  0  0  0
  -27.2527  -28.1792   20.1807 C   0  0  0  0  0  0  0  0  0  0  0  0
  -24.9892  -27.3475   19.5079 C   0  0  0  0  0  0  0  0  0  0  0  0
  -26.2407  -28.9016   18.0109 C   0  0  0  0  0  0  0  0  0  0  0  0
  -26.5669  -22.7954   14.9319 C   0  0  0  0  0  0  0  0  0  0  0  0
  -32.0156  -19.8404   21.2783 C   0  0  0  0  0  0  0  0  0  1  0  0
  -27.0114  -26.5037   18.2312 C   0  0  1  0  0  0  0  0  0  0  0  0
  -24.9730  -24.5614   15.6931 C   0  0  2  0  0  0  0  0  0  0  0  0
  -26.3950  -27.7148   18.9868 C   0  0  0  0  0  0  0  0  0  0  0  0
  -25.8717  -11.5226   20.3771 N   0  0  0  0  0  0  0  0  0  0  0  0
  -31.2873  -17.5682   21.6918 N   0  0  0  0  0  0  0  0  0  0  0  0
  -26.2405  -12.8056   20.2221 N   0  0  0  0  0  0  0  0  0  0  0  0
  -30.5329  -15.2920   22.2557 N   0  0  0  0  0  0  0  0  0  0  0  0
  -29.4272  -25.9684   18.1989 N   0  0  0  0  0  0  0  0  0  0  0  0
  -29.9628  -13.5795   20.6939 N   0  0  0  0  0  0  0  0  0  0  0  0
  -25.4333  -15.0297   20.3340 N   0  0  0  0  0  0  0  0  0  0  0  0
  -21.8106  -12.5517   21.3977 N   0  0  0  0  0  0  0  0  0  0  0  0
  -32.6227  -27.5746   18.9099 N   0  0  0  0  0  0  0  0  0  0  0  0
  -26.2340  -26.0596   17.0794 N   0  0  0  0  0  0  0  0  0  0  0  0
  -25.1537  -23.1667   15.2000 N   0  3  0  0  0  0  0  0  0  0  0  0
  -22.5765  -14.6901   21.0825 O   0  0  0  0  0  0  0  0  0  0  0  0
  -30.6121  -27.2789   20.0468 O   0  0  0  0  0  0  0  0  0  0  0  0
  -28.5683  -27.7123   16.9115 O   0  0  0  0  0  0  0  0  0  0  0  0
  -25.9139  -23.8831   17.8126 O   0  0  0  0  0  0  0  0  0  0  0  0
  -31.4907  -15.2079   20.1631 O   0  0  0  0  0  0  0  0  0  0  0  0
  -21.5979   -6.9934   21.7075 O   0  0  0  0  0  0  0  0  0  0  0  0
  -30.9553  -20.7835   21.1894 O   0  0  0  0  0  0  0  0  0  1  0  0
  -23.8952   -3.0877   24.8495 F   0  0  0  0  0  0  0  0  0  0  0  0
  -20.4136   -6.2000   24.0762 F   0  0  0  0  0  0  0  0  0  0  0  0
  1  2  1  0  0  0  0
  1  5  2  0  0  0  0
  2  6  2  0  0  0  0
  3  9  2  0  0  0  0
  3 17  1  0  0  0  0
  4 10  1  0  0  0  0
  4 17  2  0  0  0  0
  5 19  1  0  0  0  0
  6 21  1  0  0  0  0
  7 11  2  0  0  0  0
  7 20  1  0  0  0  0
  8 14  2  0  0  0  0
  8 22  1  0  0  0  0
  9 24  1  0  0  0  0
 10 24  2  0  0  0  0
 11 25  1  0  0  0  0
 12 13  2  0  0  0  0
 12 26  1  0  0  0  0
 13 27  1  0  0  0  0
 14 30  1  0  0  0  0
 15 23  1  0  0  0  0
 15 25  2  0  0  0  0
 16 27  2  0  0  0  0
 16 28  1  0  0  0  0
 17 29  1  0  0  0  0
 18 29  1  0  0  0  0
 18 32  2  0  0  0  0
 18 33  1  0  0  0  0
 19 21  2  0  0  0  0
 19 38  1  0  0  0  0
 20 23  2  0  0  0  0
 20 39  1  0  0  0  0
 21 49  1  0  0  0  0
 22 31  2  0  0  0  0
 22 40  1  0  0  0  0
 23 41  1  0  0  0  0
 24 77  1  0  0  0  0
 25 78  1  0  0  0  0
 26 28  2  0  0  0  0
 26 77  1  0  0  0  0
 27 79  1  0  0  0  0
 28 80  1  0  0  0  0
 29 61  2  0  0  0  0
 30 57  1  0  0  0  0
 30 62  2  0  0  0  0
 31 62  1  0  0  0  0
 31 64  1  0  0  0  0
 32 63  1  0  0  0  0
 32 67  1  0  0  0  0
 33 68  1  0  0  0  0
 33 72  2  0  0  0  0
 34 50  1  0  0  0  0
 34 69  1  0  0  0  0
 34 73  2  0  0  0  0
 35 58  1  0  0  0  0
 35 65  1  0  0  0  0
 35 74  2  0  0  0  0
 36 59  1  0  0  0  0
 36 70  1  0  0  0  0
 36 75  2  0  0  0  0
 37 64  1  0  0  0  0
 37 66  1  0  0  0  0
 37 76  2  0  0  0  0
 38 42  1  0  0  0  0
 39 50  1  0  0  0  0
 40 46  1  0  0  0  0
 41 65  1  0  0  0  0
 42 44  1  0  0  0  0
 43 45  1  0  0  0  0
 43 47  1  0  0  0  0
 44 49  1  0  0  0  0
 45 51  1  0  0  0  0
 46 64  1  0  0  0  0
 47 66  1  0  0  0  0
 48 51  1  0  0  0  0
 48 66  1  0  0  0  0
 49 69  1  0  0  0  0
 50 65  1  0  0  0  0
 51 63  1  0  0  0  0
 52 59  1  0  0  0  0
 53 60  1  0  0  0  0
 54 60  1  0  0  0  0
 55 60  1  0  0  0  0
 56 71  1  0  0  0  0
 57 78  1  0  0  0  0
 58 60  1  0  0  0  0
 58 70  1  0  0  0  0
 59 71  1  0  0  0  0
 61 63  1  0  0  0  0
M  CHG  1  71   1
M  ISO  4  37 100  57 101  64 100  78 101
M  END
> <Batch ID>
0182

> <Smiles>
CNC(C)C(=O)NC(C(=O)N1Cc2cc([101O:1][101CH2:1]c3ccc4c(n3)[100N:0]([100C:0](=O)N3CCCC(n5nc(-c6ccc(Oc7ccc(F)cc7F)cc6)c(C(N)=O)c5N)C3)CC4)ccc2CC1C(=O)NC1CCCc2ccccc21)C(C)(C)C

> <Shape>
0.262

> <Color>
0.197

> <Negative vol penalty>
0.000

$$$$

  -OEChem-04052323053D

 85 94  0     1  0  0  0  0  0999 V2000
  -28.8145  -37.4486   20.9645 C   0  0  0  0  0  0  0  0  0  0  0  0
  -29.1188  -36.1473   20.5779 C   0  0  0  0  0  0  0  0  0  0  0  0
  -24.6277   -9.7410   21.1182 C   0  0  0  0  0  0  0  0  0  0  0  0
  -22.2157   -9.8277   21.2270 C   0  0  0  0  0  0  0  0  0  0  0  0
  -27.9465  -37.6723   22.0324 C   0  0  0  0  0  0  0  0  0  0  0  0
  -28.5561  -35.0689   21.2597 C   0  0  0  0  0  0  0  0  0  0  0  0
  -26.8754  -29.6816   18.8812 C   0  0  0  0  0  0  0  0  0  0  0  0
  -24.6348   -8.7311   22.0802 C   0  0  0  0  0  0  0  0  0  0  0  0
  -22.2228   -8.8177   22.1891 C   0  0  0  0  0  0  0  0  0  0  0  0
  -27.5043  -28.4380   18.8384 C   0  0  0  0  0  0  0  0  0  0  0  0
  -22.5518   -5.4552   22.2657 C   0  0  0  0  0  0  0  0  0  0  0  0
  -21.6330   -4.4160   22.1189 C   0  0  0  0  0  0  0  0  0  0  0  0
  -26.2702  -27.7533   20.7948 C   0  0  0  0  0  0  0  0  0  0  0  0
  -20.6639   -4.9702   24.2615 C   0  0  0  0  0  0  0  0  0  0  0  0
  -28.8600  -23.6943   17.9041 C   0  0  0  0  0  0  0  0  0  0  0  0
  -23.4181  -10.2894   20.6916 C   0  0  0  0  0  0  0  0  0  0  0  0
  -23.3413  -11.1762   18.3009 C   0  0  0  0  0  0  0  0  0  0  0  0
  -27.3653  -36.5962   22.7215 C   0  0  0  0  0  0  0  0  0  0  0  0
  -25.9457  -29.9747   19.8892 C   0  0  0  0  0  0  0  0  0  0  0  0
  -27.6806  -35.2785   22.3387 C   0  0  0  0  0  0  0  0  0  0  0  0
  -25.6290  -29.0005   20.8466 C   0  0  0  0  0  0  0  0  0  0  0  0
  -23.4324   -8.2694   22.6157 C   0  0  0  0  0  0  0  0  0  0  0  0
  -27.2039  -27.4747   19.7969 C   0  0  0  0  0  0  0  0  0  0  0  0
  -22.5266   -6.2519   23.4104 C   0  0  0  0  0  0  0  0  0  0  0  0
  -20.6891   -4.1735   23.1168 C   0  0  0  0  0  0  0  0  0  0  0  0
  -21.5827   -6.0094   24.4083 C   0  0  0  0  0  0  0  0  0  0  0  0
  -23.4102  -11.3330   19.6982 C   0  0  0  0  0  0  0  0  0  0  0  0
  -29.4108  -22.4385   18.0588 C   0  0  0  0  0  0  0  0  0  0  0  0
  -29.2951  -24.6512   18.7981 C   0  0  0  0  0  0  0  0  0  0  0  0
  -23.3644  -12.4587   17.8099 C   0  0  0  0  0  0  0  0  0  0  0  0
  -30.6609  -23.1485   19.8196 C   0  0  0  0  0  0  0  0  0  0  0  0
  -23.2633   -9.9783   17.5169 C   0  0  0  0  0  0  0  0  0  0  0  0
  -25.7828  -32.1097   22.2385 C   0  0  0  0  0  0  0  0  0  0  0  0
  -22.8113  -30.8701   22.6335 C   0  0  0  0  0  0  0  0  0  0  0  0
  -20.6918  -28.2308   22.1991 C   0  0  0  0  0  0  0  0  0  0  0  0
  -25.2718  -17.4737   17.6311 C   0  0  0  0  0  0  0  0  0  0  0  0
  -26.4699  -36.8873   23.8997 C   0  0  0  0  0  0  0  0  0  0  0  0
  -25.2562  -31.3114   19.9058 C   0  0  0  0  0  0  0  0  0  0  0  0
  -24.6231  -29.2582   21.9376 C   0  0  0  0  0  0  0  0  0  0  0  0
  -25.6225  -35.6929   24.3304 C   0  0  0  0  0  0  0  0  0  0  0  0
  -22.9010  -16.9055   20.1609 C   0  0  0  0  0  0  0  0  0  0  0  0
  -26.4774  -34.4320   24.4079 C   0  0  0  0  0  0  0  0  0  0  0  0
  -22.8137  -15.3796   20.1574 C   0  0  0  0  0  0  0  0  0  0  0  0
  -24.3387  -17.3981   19.9867 C   0  0  0  0  0  0  0  0  0  0  0  0
  -26.2151  -19.4239   18.9468 C   0  0  0  0  0  0  0  0  0  0  0  0
  -25.5998  -19.6873   16.5720 C   0  0  0  0  0  0  0  0  0  0  0  0
  -24.9373  -15.3138   18.7963 C   0  0  0  0  0  0  0  0  0  0  0  0
  -27.6366  -19.8836   18.6393 C   0  0  0  0  0  0  0  0  0  0  0  0
  -27.0134  -20.1252   16.2247 C   0  0  0  0  0  0  0  0  0  0  0  0
  -27.0708  -34.0828   23.0377 C   0  0  1  0  0  0  0  0  0  0  0  0
  -24.7073  -31.6836   21.2796 C   0  0  1  0  0  0  0  0  0  0  0  0
  -23.4973  -14.7902   18.9109 C   0  0  1  0  0  0  0  0  0  0  0  0
  -31.6638  -22.8471   20.8813 C   0  0  0  0  0  0  0  0  0  0  0  0
  -18.3356  -27.5000   22.6593 C   0  0  0  0  0  0  0  0  0  0  0  0
  -23.5288  -30.4101   25.5633 C   0  0  0  0  0  0  0  0  0  0  0  0
  -21.5702  -28.8591   25.7271 C   0  0  0  0  0  0  0  0  0  0  0  0
  -21.2105  -31.2660   25.1789 C   0  0  0  0  0  0  0  0  0  0  0  0
  -20.1059  -27.9075   19.3162 C   0  0  0  0  0  0  0  0  0  0  0  0
  -28.9999  -21.3317   17.1330 C   0  0  0  0  0  0  0  0  0  0  0  0
  -28.7568  -26.0399   18.7080 C   0  0  0  0  0  0  0  0  0  1  0  0
  -22.2242  -29.7367   23.4395 C   0  0  1  0  0  0  0  0  0  0  0  0
  -19.2752  -28.1549   21.6587 C   0  0  2  0  0  0  0  0  0  0  0  0
  -22.1539  -30.0635   24.9579 C   0  0  0  0  0  0  0  0  0  0  0  0
  -23.4726  -12.6142   20.0708 N   0  0  0  0  0  0  0  0  0  0  0  0
  -30.3172  -22.1294   19.0092 N   0  0  0  0  0  0  0  0  0  0  0  0
  -30.1977  -24.4121   19.7720 N   0  0  0  0  0  0  0  0  0  0  0  0
  -23.4430  -13.2740   18.9004 N   0  0  0  0  0  0  0  0  0  0  0  0
  -23.9804  -30.5826   21.9151 N   0  0  0  0  0  0  0  0  0  0  0  0
  -24.9625  -16.7780   18.8094 N   0  0  0  0  0  0  0  0  0  0  0  0
  -25.5854  -18.8350   17.7588 N   0  0  0  0  0  0  0  0  0  0  0  0
  -23.3251  -12.9573   16.5560 N   0  0  0  0  0  0  0  0  0  0  0  0
  -23.2497   -8.7445   18.1816 N   0  0  0  0  0  0  0  0  0  0  0  0
  -26.0702  -33.4607   22.1973 N   0  0  0  0  0  0  0  0  0  0  0  0
  -20.9327  -29.4311   22.8336 N   0  0  0  0  0  0  0  0  0  0  0  0
  -27.6298  -20.7912   17.4328 N   0  3  0  0  0  0  0  0  0  0  0  0
  -19.2440  -27.3629   20.3967 N   0  3  0  0  0  0  0  0  0  0  0  0
  -23.2239  -10.0007   16.2633 O   0  0  0  0  0  0  0  0  0  0  0  0
  -26.3116  -31.2749   22.9631 O   0  0  0  0  0  0  0  0  0  0  0  0
  -22.2491  -31.9681   22.6355 O   0  0  0  0  0  0  0  0  0  0  0  0
  -21.5023  -27.3154   22.0743 O   0  0  0  0  0  0  0  0  0  0  0  0
  -25.2685  -16.9110   16.5289 O   0  0  0  0  0  0  0  0  0  0  0  0
  -23.4389   -7.2838   23.5543 O   0  0  0  0  0  0  0  0  0  0  0  0
  -27.8210  -26.2518   19.7576 O   0  0  0  0  0  0  0  0  0  1  0  0
  -19.8059   -3.1765   22.9750 F   0  0  0  0  0  0  0  0  0  0  0  0
  -21.5529   -6.7722   25.5097 F   0  0  0  0  0  0  0  0  0  0  0  0
  1  2  1  0  0  0  0
  1  5  2  0  0  0  0
  2  6  2  0  0  0  0
  3  8  2  0  0  0  0
  3 16  1  0  0  0  0
  4  9  1  0  0  0  0
  4 16  2  0  0  0  0
  5 18  1  0  0  0  0
  6 20  1  0  0  0  0
  7 10  2  0  0  0  0
  7 19  1  0  0  0  0
  8 22  1  0  0  0  0
  9 22  2  0  0  0  0
 10 23  1  0  0  0  0
 11 12  2  0  0  0  0
 11 24  1  0  0  0  0
 12 25  1  0  0  0  0
 13 21  1  0  0  0  0
 13 23  2  0  0  0  0
 14 25  2  0  0  0  0
 14 26  1  0  0  0  0
 15 28  2  0  0  0  0
 15 29  1  0  0  0  0
 16 27  1  0  0  0  0
 17 27  1  0  0  0  0
 17 30  2  0  0  0  0
 17 32  1  0  0  0  0
 18 20  2  0  0  0  0
 18 37  1  0  0  0  0
 19 21  2  0  0  0  0
 19 38  1  0  0  0  0
 20 50  1  0  0  0  0
 21 39  1  0  0  0  0
 22 82  1  0  0  0  0
 23 83  1  0  0  0  0
 24 26  2  0  0  0  0
 24 82  1  0  0  0  0
 25 84  1  0  0  0  0
 26 85  1  0  0  0  0
 27 64  2  0  0  0  0
 28 59  1  0  0  0  0
 28 65  1  0  0  0  0
 29 60  1  0  0  0  0
 29 66  2  0  0  0  0
 30 67  1  0  0  0  0
 30 71  1  0  0  0  0
 31 53  1  0  0  0  0
 31 65  2  0  0  0  0
 31 66  1  0  0  0  0
 32 72  1  0  0  0  0
 32 77  2  0  0  0  0
 33 51  1  0  0  0  0
 33 73  1  0  0  0  0
 33 78  2  0  0  0  0
 34 61  1  0  0  0  0
 34 68  1  0  0  0  0
 34 79  2  0  0  0  0
 35 62  1  0  0  0  0
 35 74  1  0  0  0  0
 35 80  2  0  0  0  0
 36 69  1  0  0  0  0
 36 70  1  0  0  0  0
 36 81  2  0  0  0  0
 37 40  1  0  0  0  0
 38 51  1  0  0  0  0
 39 68  1  0  0  0  0
 40 42  1  0  0  0  0
 41 43  1  0  0  0  0
 41 44  1  0  0  0  0
 42 50  1  0  0  0  0
 43 52  1  0  0  0  0
 44 69  1  0  0  0  0
 45 48  1  0  0  0  0
 45 70  1  0  0  0  0
 46 49  1  0  0  0  0
 46 70  1  0  0  0  0
 47 52  1  0  0  0  0
 47 69  1  0  0  0  0
 48 75  1  0  0  0  0
 49 75  1  0  0  0  0
 50 73  1  0  0  0  0
 51 68  1  0  0  0  0
 52 67  1  0  0  0  0
 54 62  1  0  0  0  0
 55 63  1  0  0  0  0
 56 63  1  0  0  0  0
 57 63  1  0  0  0  0
 58 76  1  0  0  0  0
 59 75  1  0  0  0  0
 60 83  1  0  0  0  0
 61 63  1  0  0  0  0
 61 74  1  0  0  0  0
 62 76  1  0  0  0  0
 64 67  1  0  0  0  0
M  CHG  2  75   1  76   1
M  ISO  4  36 100  60 101  70 100  83 101
M  END
> <Batch ID>
0182

> <Smiles>
CNC(C)C(=O)NC(C(=O)N1Cc2cc([101O:1][101CH2:1]c3cc(CN4CC[100N:0]([100C:0](=O)N5CCCC(n6nc(-c7ccc(Oc8ccc(F)cc8F)cc7)c(C(N)=O)c6N)C5)CC4)nc(C)n3)ccc2CC1C(=O)NC1CCCc2ccccc21)C(C)(C)C

> <Shape>
0.269

> <Color>
0.088

> <Negative vol penalty>
0.000

$$$$

  -OEChem-04052323053D

 81 90  0     1  0  0  0  0  0999 V2000
  -31.0504  -34.2078   17.9235 C   0  0  0  0  0  0  0  0  0  0  0  0
  -31.0190  -32.8225   17.7989 C   0  0  0  0  0  0  0  0  0  0  0  0
  -22.2906  -10.2680   21.3277 C   0  0  0  0  0  0  0  0  0  0  0  0
  -24.1672   -9.5395   19.9917 C   0  0  0  0  0  0  0  0  0  0  0  0
  -30.4300  -34.8230   19.0101 C   0  0  0  0  0  0  0  0  0  0  0  0
  -30.3682  -32.0516   18.7614 C   0  0  0  0  0  0  0  0  0  0  0  0
  -27.2720  -26.8496   17.8346 C   0  0  0  0  0  0  0  0  0  0  0  0
  -21.9236   -8.9387   21.5370 C   0  0  0  0  0  0  0  0  0  0  0  0
  -23.8002   -8.2102   20.2011 C   0  0  0  0  0  0  0  0  0  0  0  0
  -27.6215  -25.5092   17.9925 C   0  0  0  0  0  0  0  0  0  0  0  0
  -22.8992   -6.3649   23.5008 C   0  0  0  0  0  0  0  0  0  0  0  0
  -22.5521   -5.9848   24.7972 C   0  0  0  0  0  0  0  0  0  0  0  0
  -26.6080  -25.5091   20.1816 C   0  0  0  0  0  0  0  0  0  0  0  0
  -20.3552   -5.3454   24.0215 C   0  0  0  0  0  0  0  0  0  0  0  0
  -26.2682  -21.5067   17.1963 C   0  0  0  0  0  0  0  0  0  0  0  0
  -23.4124  -10.5684   20.5549 C   0  0  0  0  0  0  0  0  0  0  0  0
  -24.6576  -12.7195   21.1294 C   0  0  0  0  0  0  0  0  0  0  0  0
  -29.7629  -34.0598   19.9813 C   0  0  0  0  0  0  0  0  0  0  0  0
  -26.5964  -27.5340   18.8551 C   0  0  0  0  0  0  0  0  0  0  0  0
  -29.7395  -32.6570   19.8627 C   0  0  0  0  0  0  0  0  0  0  0  0
  -26.2489  -26.8574   20.0331 C   0  0  0  0  0  0  0  0  0  0  0  0
  -26.6501  -21.5318   18.5111 C   0  0  0  0  0  0  0  0  0  0  0  0
  -22.6784   -7.9098   20.9738 C   0  0  0  0  0  0  0  0  0  0  0  0
  -27.2921  -24.8395   19.1673 C   0  0  0  0  0  0  0  0  0  0  0  0
  -21.9743   -6.2354   22.4648 C   0  0  0  0  0  0  0  0  0  0  0  0
  -21.2801   -5.4750   25.0575 C   0  0  0  0  0  0  0  0  0  0  0  0
  -20.7023   -5.7256   22.7251 C   0  0  0  0  0  0  0  0  0  0  0  0
  -23.7917  -11.9414   20.3378 C   0  0  0  0  0  0  0  0  0  0  0  0
  -27.2405  -20.3842   19.0116 C   0  0  0  0  0  0  0  0  0  0  0  0
  -24.6884  -13.9422   20.5044 C   0  0  0  0  0  0  0  0  0  0  0  0
  -27.0354  -19.3537   17.0260 C   0  0  0  0  0  0  0  0  0  0  0  0
  -25.3704  -12.3684   22.3229 C   0  0  0  0  0  0  0  0  0  0  0  0
  -27.2504  -30.0519   20.6816 C   0  0  0  0  0  0  0  0  0  0  0  0
  -24.1939  -29.6296   21.6824 C   0  0  0  0  0  0  0  0  0  0  0  0
  -21.5434  -27.5182   22.0874 C   0  0  0  0  0  0  0  0  0  0  0  0
  -25.0432  -17.0315   15.8703 C   0  0  0  0  0  0  0  0  0  0  0  0
  -29.1476  -34.7664   21.1631 C   0  0  0  0  0  0  0  0  0  0  0  0
  -26.2029  -28.9723   18.6584 C   0  0  0  0  0  0  0  0  0  0  0  0
  -25.5059  -27.5413   21.1506 C   0  0  0  0  0  0  0  0  0  0  0  0
  -27.6506  -20.5813   20.4427 C   0  0  0  0  0  0  0  0  0  0  0  0
  -28.1576  -33.9032   21.9410 C   0  0  0  0  0  0  0  0  0  0  0  0
  -26.7970  -21.8047   20.8272 C   0  0  0  0  0  0  0  0  0  0  0  0
  -21.8249  -15.8063   16.7745 C   0  0  0  0  0  0  0  0  0  0  0  0
  -28.7414  -32.5166   22.1929 C   0  0  0  0  0  0  0  0  0  0  0  0
  -22.1217  -14.7519   17.8424 C   0  0  0  0  0  0  0  0  0  0  0  0
  -22.8916  -15.8186   15.6818 C   0  0  0  0  0  0  0  0  0  0  0  0
  -24.5728  -14.9086   17.2372 C   0  0  0  0  0  0  0  0  0  0  0  0
  -29.0222  -31.7882   20.8730 C   0  0  1  0  0  0  0  0  0  0  0  0
  -26.5758  -22.6102   19.5326 C   0  0  1  0  0  0  0  0  0  1  0  0
  -25.9702  -29.7131   19.9716 C   0  0  1  0  0  0  0  0  0  0  0  0
  -23.5544  -14.8963   18.3900 C   0  0  2  0  0  0  0  0  0  0  0  0
  -19.1945  -27.4517   22.9680 C   0  0  0  0  0  0  0  0  0  0  0  0
  -25.2684  -29.5764   24.5377 C   0  0  0  0  0  0  0  0  0  0  0  0
  -23.0901  -28.5793   25.2648 C   0  0  0  0  0  0  0  0  0  0  0  0
  -23.1397  -30.8566   24.2479 C   0  0  0  0  0  0  0  0  0  0  0  0
  -20.4454  -26.8022   19.4340 C   0  0  0  0  0  0  0  0  0  0  0  0
  -27.2406  -18.1433   16.1785 C   0  0  0  0  0  0  0  0  0  0  0  0
  -23.5285  -28.8351   22.7801 C   0  0  1  0  0  0  0  0  0  0  0  0
  -20.0723  -27.6713   21.7457 C   0  0  2  0  0  0  0  0  0  0  0  0
  -23.7724  -29.4492   24.1875 C   0  0  0  0  0  0  0  0  0  0  0  0
  -26.4468  -20.4151   16.4209 N   0  0  0  0  0  0  0  0  0  0  0  0
  -23.3073  -12.6134   19.2900 N   0  0  0  0  0  0  0  0  0  0  0  0
  -27.4599  -19.2675   18.3043 N   0  0  0  0  0  0  0  0  0  0  0  0
  -23.8707  -13.8267   19.4190 N   0  0  0  0  0  0  0  0  0  0  0  0
  -25.1488  -28.9497   20.9133 N   0  0  0  0  0  0  0  0  0  0  0  0
  -24.2269  -15.9597   16.2674 N   0  0  0  0  0  0  0  0  0  0  0  0
  -25.3349  -15.0941   20.7830 N   0  0  0  0  0  0  0  0  0  0  0  0
  -25.2260  -11.0697   22.8297 N   0  0  0  0  0  0  0  0  0  0  0  0
  -27.7941  -31.2673   20.3120 N   0  0  0  0  0  0  0  0  0  0  0  0
  -22.1212  -28.7277   22.4107 N   0  0  0  0  0  0  0  0  0  0  0  0
  -26.2909  -17.0950   16.4786 N   0  0  0  0  0  0  0  0  0  0  0  0
  -19.6779  -26.6849   20.7005 N   0  3  0  0  0  0  0  0  0  0  0  0
  -26.1003  -13.1873   22.9313 O   0  0  0  0  0  0  0  0  0  0  0  0
  -27.7100  -29.2693   21.5050 O   0  0  0  0  0  0  0  0  0  0  0  0
  -23.8728  -30.8080   21.5091 O   0  0  0  0  0  0  0  0  0  0  0  0
  -22.1213  -26.4336   22.0727 O   0  0  0  0  0  0  0  0  0  0  0  0
  -24.6846  -17.8729   15.0393 O   0  0  0  0  0  0  0  0  0  0  0  0
  -22.3207   -6.6125   21.1781 O   0  0  0  0  0  0  0  0  0  0  0  0
  -27.6326  -23.5313   19.3243 O   0  0  0  0  0  0  0  0  0  1  0  0
  -20.9475   -5.1085   26.3022 F   0  0  0  0  0  0  0  0  0  0  0  0
  -19.8098   -5.5977   21.7336 F   0  0  0  0  0  0  0  0  0  0  0  0
  1  2  1  0  0  0  0
  1  5  2  0  0  0  0
  2  6  2  0  0  0  0
  3  8  2  0  0  0  0
  3 16  1  0  0  0  0
  4  9  1  0  0  0  0
  4 16  2  0  0  0  0
  5 18  1  0  0  0  0
  6 20  1  0  0  0  0
  7 10  2  0  0  0  0
  7 19  1  0  0  0  0
  8 23  1  0  0  0  0
  9 23  2  0  0  0  0
 10 24  1  0  0  0  0
 11 12  2  0  0  0  0
 11 25  1  0  0  0  0
 12 26  1  0  0  0  0
 13 21  1  0  0  0  0
 13 24  2  0  0  0  0
 14 26  2  0  0  0  0
 14 27  1  0  0  0  0
 15 22  1  0  0  0  0
 15 61  2  0  0  0  0
 16 28  1  0  0  0  0
 17 28  1  0  0  0  0
 17 30  2  0  0  0  0
 17 32  1  0  0  0  0
 18 20  2  0  0  0  0
 18 37  1  0  0  0  0
 19 21  2  0  0  0  0
 19 38  1  0  0  0  0
 20 48  1  0  0  0  0
 21 39  1  0  0  0  0
 22 29  2  0  0  0  0
 22 49  1  0  0  0  0
 23 78  1  0  0  0  0
 24 79  1  0  0  0  0
 25 27  2  0  0  0  0
 25 78  1  0  0  0  0
 26 80  1  0  0  0  0
 27 81  1  0  0  0  0
 28 62  2  0  0  0  0
 29 40  1  0  0  0  0
 29 63  1  0  0  0  0
 30 64  1  0  0  0  0
 30 67  1  0  0  0  0
 31 57  1  0  0  0  0
 31 61  1  0  0  0  0
 31 63  2  0  0  0  0
 32 68  1  0  0  0  0
 32 73  2  0  0  0  0
 33 50  1  0  0  0  0
 33 69  1  0  0  0  0
 33 74  2  0  0  0  0
 34 58  1  0  0  0  0
 34 65  1  0  0  0  0
 34 75  2  0  0  0  0
 35 59  1  0  0  0  0
 35 70  1  0  0  0  0
 35 76  2  0  0  0  0
 36 66  1  0  0  0  0
 36 71  1  0  0  0  0
 36 77  2  0  0  0  0
 37 41  1  0  0  0  0
 38 50  1  0  0  0  0
 39 65  1  0  0  0  0
 40 42  1  0  0  0  0
 41 44  1  0  0  0  0
 42 49  1  0  0  0  0
 43 45  1  0  0  0  0
 43 46  1  0  0  0  0
 44 48  1  0  0  0  0
 45 51  1  0  0  0  0
 46 66  1  0  0  0  0
 47 51  1  0  0  0  0
 47 66  1  0  0  0  0
 48 69  1  0  0  0  0
 49 79  1  0  0  0  0
 50 65  1  0  0  0  0
 51 64  1  0  0  0  0
 52 59  1  0  0  0  0
 53 60  1  0  0  0  0
 54 60  1  0  0  0  0
 55 60  1  0  0  0  0
 56 72  1  0  0  0  0
 57 71  1  0  0  0  0
 58 60  1  0  0  0  0
 58 70  1  0  0  0  0
 59 72  1  0  0  0  0
 62 64  1  0  0  0  0
M  CHG  1  72   1
M  ISO  4  36 100  49 101  71 100  79 101
M  END
> <Batch ID>
0182

> <Smiles>
CNC(C)C(=O)NC(C(=O)N1Cc2cc([101O:1][101CH:1]3CCc4nc(C[100NH:0][100C:0](=O)N5CCCC(n6nc(-c7ccc(Oc8ccc(F)cc8F)cc7)c(C(N)=O)c6N)C5)ncc43)ccc2CC1C(=O)NC1CCCc2ccccc21)C(C)(C)C

> <Shape>
0.207

> <Color>
0.104

> <Negative vol penalty>
0.000

$$$$

  -OEChem-04052323053D

 82 91  0     1  0  0  0  0  0999 V2000
  -16.4699  -29.0600   23.1194 C   0  0  0  0  0  0  0  0  0  0  0  0
  -17.2875  -27.9515   22.9233 C   0  0  0  0  0  0  0  0  0  0  0  0
  -24.0614   -9.9018   21.6960 C   0  0  0  0  0  0  0  0  0  0  0  0
  -24.6673  -11.0911   23.7098 C   0  0  0  0  0  0  0  0  0  0  0  0
  -17.0377  -30.3211   23.2958 C   0  0  0  0  0  0  0  0  0  0  0  0
  -18.6734  -28.1038   22.9025 C   0  0  0  0  0  0  0  0  0  0  0  0
  -22.8458  -24.1235   24.9651 C   0  0  0  0  0  0  0  0  0  0  0  0
  -23.6356   -8.8182   22.4640 C   0  0  0  0  0  0  0  0  0  0  0  0
  -24.2414  -10.0075   24.4779 C   0  0  0  0  0  0  0  0  0  0  0  0
  -23.6320  -23.1701   24.3197 C   0  0  0  0  0  0  0  0  0  0  0  0
  -20.9277   -7.9837   24.3090 C   0  0  0  0  0  0  0  0  0  0  0  0
  -19.7075   -7.3944   23.9782 C   0  0  0  0  0  0  0  0  0  0  0  0
  -28.7724  -19.6573   22.2998 C   0  0  0  0  0  0  0  0  0  0  0  0
  -25.4534  -24.7487   24.2195 C   0  0  0  0  0  0  0  0  0  0  0  0
  -20.8306   -5.2926   23.5803 C   0  0  0  0  0  0  0  0  0  0  0  0
  -24.5774  -11.0383   22.3189 C   0  0  0  0  0  0  0  0  0  0  0  0
  -24.2472  -13.2591   21.1078 C   0  0  0  0  0  0  0  0  0  0  0  0
  -18.4316  -30.4874   23.2868 C   0  0  0  0  0  0  0  0  0  0  0  0
  -23.3546  -25.4025   25.2332 C   0  0  0  0  0  0  0  0  0  0  0  0
  -19.2603  -29.3686   23.0776 C   0  0  0  0  0  0  0  0  0  0  0  0
  -28.9027  -19.7604   20.9282 C   0  0  0  0  0  0  0  0  0  0  0  0
  -24.6724  -25.7157   24.8707 C   0  0  0  0  0  0  0  0  0  0  0  0
  -28.1496  -20.7011   22.9807 C   0  0  0  0  0  0  0  0  0  0  0  0
  -23.7256   -8.8710   23.8550 C   0  0  0  0  0  0  0  0  0  0  0  0
  -24.9350  -23.4835   23.9442 C   0  0  0  0  0  0  0  0  0  0  0  0
  -22.0994   -7.2275   24.2754 C   0  0  0  0  0  0  0  0  0  0  0  0
  -19.6589   -6.0488   23.6139 C   0  0  0  0  0  0  0  0  0  0  0  0
  -22.0508   -5.8819   23.9111 C   0  0  0  0  0  0  0  0  0  0  0  0
  -25.0180  -12.1578   21.5260 C   0  0  0  0  0  0  0  0  0  0  0  0
  -28.4283  -20.9062   20.2947 C   0  0  0  0  0  0  0  0  0  0  0  0
  -27.7022  -21.8025   22.2519 C   0  0  0  0  0  0  0  0  0  0  0  0
  -25.1210  -14.0359   20.3871 C   0  0  0  0  0  0  0  0  0  0  0  0
  -22.8649  -13.5535   21.3492 C   0  0  0  0  0  0  0  0  0  0  0  0
  -22.5776  -28.3559   24.3517 C   0  0  0  0  0  0  0  0  0  0  0  0
  -24.8844  -29.1797   26.4783 C   0  0  0  0  0  0  0  0  0  0  0  0
  -27.7078  -28.2933   28.1783 C   0  0  0  0  0  0  0  0  0  0  0  0
  -30.1234  -16.4284   19.7565 C   0  0  0  0  0  0  0  0  0  0  0  0
  -18.9978  -31.8775   23.4345 C   0  0  0  0  0  0  0  0  0  0  0  0
  -22.5027  -26.4109   25.9540 C   0  0  0  0  0  0  0  0  0  0  0  0
  -25.2727  -27.0677   25.1538 C   0  0  0  0  0  0  0  0  0  0  0  0
  -28.7187  -20.8612   18.8213 C   0  0  0  0  0  0  0  0  0  0  0  0
  -20.4862  -31.8961   23.7731 C   0  0  0  0  0  0  0  0  0  0  0  0
  -28.9659  -19.3586   18.6207 C   0  0  0  0  0  0  0  0  0  0  0  0
  -29.7858  -13.0450   18.7006 C   0  0  0  0  0  0  0  0  0  0  0  0
  -21.2507  -30.9313   22.8723 C   0  0  0  0  0  0  0  0  0  0  0  0
  -28.4554  -12.6020   19.3120 C   0  0  0  0  0  0  0  0  0  0  0  0
  -30.5458  -13.9909   19.6277 C   0  0  0  0  0  0  0  0  0  0  0  0
  -28.4464  -14.7224   20.6913 C   0  0  0  0  0  0  0  0  0  0  0  0
  -20.7688  -29.4895   23.0734 C   0  0  1  0  0  0  0  0  0  0  0  0
  -29.5527  -18.8362   19.9471 C   0  0  2  0  0  0  0  0  0  0  0  0
  -22.9502  -27.8499   25.7166 C   0  0  1  0  0  0  0  0  0  0  0  0
  -27.6180  -13.8115   19.7692 C   0  0  2  0  0  0  0  0  0  0  0  0
  -27.9830  -20.6203   24.4601 C   0  0  0  0  0  0  0  0  0  0  0  0
  -29.3855  -29.1909   29.8145 C   0  0  0  0  0  0  0  0  0  0  0  0
  -26.1793  -30.8137   24.2505 C   0  0  0  0  0  0  0  0  0  0  0  0
  -28.2741  -30.8907   25.6196 C   0  0  0  0  0  0  0  0  0  0  0  0
  -26.1774  -31.9231   26.4919 C   0  0  0  0  0  0  0  0  0  0  0  0
  -27.0369  -26.2200   30.1808 C   0  0  0  0  0  0  0  0  0  0  0  0
  -27.0304  -22.9438   22.9571 C   0  0  0  0  0  0  0  0  0  1  0  0
  -26.3755  -29.4041   26.4047 C   0  0  1  0  0  0  0  0  0  0  0  0
  -28.0840  -28.4230   29.6432 C   0  0  2  0  0  0  0  0  0  0  0  0
  -26.7399  -30.7330   25.6845 C   0  0  0  0  0  0  0  0  0  0  0  0
  -26.2840  -12.2253   21.1059 N   0  0  0  0  0  0  0  0  0  0  0  0
  -27.8310  -21.9399   20.9108 N   0  0  0  0  0  0  0  0  0  0  0  0
  -26.3155  -13.3782   20.4160 N   0  0  0  0  0  0  0  0  0  0  0  0
  -24.3978  -28.0218   25.8551 N   0  0  0  0  0  0  0  0  0  0  0  0
  -29.6964  -15.1171   20.0230 N   0  0  0  0  0  0  0  0  0  0  0  0
  -24.9765  -15.2106   19.7377 N   0  0  0  0  0  0  0  0  0  0  0  0
  -22.1118  -12.6484   22.1094 N   0  0  0  0  0  0  0  0  0  0  0  0
  -21.3248  -28.9357   24.2894 N   0  0  0  0  0  0  0  0  0  0  0  0
  -26.8703  -29.3114   27.7740 N   0  0  0  0  0  0  0  0  0  0  0  0
  -29.2558  -17.4368   20.1580 N   0  0  0  0  0  0  0  0  0  0  0  0
  -28.2494  -27.0750   30.2568 N   0  3  0  0  0  0  0  0  0  0  0  0
  -22.3097  -14.5805   20.8902 O   0  0  0  0  0  0  0  0  0  0  0  0
  -23.3687  -28.2310   23.4242 O   0  0  0  0  0  0  0  0  0  0  0  0
  -24.1784  -29.9977   27.0732 O   0  0  0  0  0  0  0  0  0  0  0  0
  -28.1189  -27.3823   27.4631 O   0  0  0  0  0  0  0  0  0  0  0  0
  -31.1957  -16.6816   19.1970 O   0  0  0  0  0  0  0  0  0  0  0  0
  -23.3099   -7.8138   24.6048 O   0  0  0  0  0  0  0  0  0  0  0  0
  -25.7044  -22.5549   23.3136 O   0  0  0  0  0  0  0  0  0  1  0  0
  -18.4869   -5.4826   23.2978 F   0  0  0  0  0  0  0  0  0  0  0  0
  -23.1729   -5.1500   23.8781 F   0  0  0  0  0  0  0  0  0  0  0  0
  1  2  1  0  0  0  0
  1  5  2  0  0  0  0
  2  6  2  0  0  0  0
  3  8  2  0  0  0  0
  3 16  1  0  0  0  0
  4  9  1  0  0  0  0
  4 16  2  0  0  0  0
  5 18  1  0  0  0  0
  6 20  1  0  0  0  0
  7 10  2  0  0  0  0
  7 19  1  0  0  0  0
  8 24  1  0  0  0  0
  9 24  2  0  0  0  0
 10 25  1  0  0  0  0
 11 12  2  0  0  0  0
 11 26  1  0  0  0  0
 12 27  1  0  0  0  0
 13 21  2  0  0  0  0
 13 23  1  0  0  0  0
 14 22  1  0  0  0  0
 14 25  2  0  0  0  0
 15 27  2  0  0  0  0
 15 28  1  0  0  0  0
 16 29  1  0  0  0  0
 17 29  1  0  0  0  0
 17 32  2  0  0  0  0
 17 33  1  0  0  0  0
 18 20  2  0  0  0  0
 18 38  1  0  0  0  0
 19 22  2  0  0  0  0
 19 39  1  0  0  0  0
 20 49  1  0  0  0  0
 21 30  1  0  0  0  0
 21 50  1  0  0  0  0
 22 40  1  0  0  0  0
 23 31  2  0  0  0  0
 23 53  1  0  0  0  0
 24 79  1  0  0  0  0
 25 80  1  0  0  0  0
 26 28  2  0  0  0  0
 26 79  1  0  0  0  0
 27 81  1  0  0  0  0
 28 82  1  0  0  0  0
 29 63  2  0  0  0  0
 30 41  1  0  0  0  0
 30 64  2  0  0  0  0
 31 59  1  0  0  0  0
 31 64  1  0  0  0  0
 32 65  1  0  0  0  0
 32 68  1  0  0  0  0
 33 69  1  0  0  0  0
 33 74  2  0  0  0  0
 34 51  1  0  0  0  0
 34 70  1  0  0  0  0
 34 75  2  0  0  0  0
 35 60  1  0  0  0  0
 35 66  1  0  0  0  0
 35 76  2  0  0  0  0
 36 61  1  0  0  0  0
 36 71  1  0  0  0  0
 36 77  2  0  0  0  0
 37 67  1  0  0  0  0
 37 72  1  0  0  0  0
 37 78  2  0  0  0  0
 38 42  1  0  0  0  0
 39 51  1  0  0  0  0
 40 66  1  0  0  0  0
 41 43  1  0  0  0  0
 42 45  1  0  0  0  0
 43 50  1  0  0  0  0
 44 46  1  0  0  0  0
 44 47  1  0  0  0  0
 45 49  1  0  0  0  0
 46 52  1  0  0  0  0
 47 67  1  0  0  0  0
 48 52  1  0  0  0  0
 48 67  1  0  0  0  0
 49 70  1  0  0  0  0
 50 72  1  0  0  0  0
 51 66  1  0  0  0  0
 52 65  1  0  0  0  0
 54 61  1  0  0  0  0
 55 62  1  0  0  0  0
 56 62  1  0  0  0  0
 57 62  1  0  0  0  0
 58 73  1  0  0  0  0
 59 80  1  0  0  0  0
 60 62  1  0  0  0  0
 60 71  1  0  0  0  0
 61 73  1  0  0  0  0
 63 65  1  0  0  0  0
M  CHG  1  73   1
M  ISO  4  37 100  59 101  72 100  80 101
M  END
> <Batch ID>
0182

> <Smiles>
CNC(C)C(=O)NC(C(=O)N1Cc2cc([101O:1][101CH2:1]c3nc4c(cc3C)C([100NH:0][100C:0](=O)N3CCCC(n5nc(-c6ccc(Oc7ccc(F)cc7F)cc6)c(C(N)=O)c5N)C3)CC4)ccc2CC1C(=O)NC1CCCc2ccccc21)C(C)(C)C

> <Shape>
0.260

> <Color>
0.146

> <Negative vol penalty>
0.000

$$$$

  -OEChem-04052323053D

 83 92  0     1  0  0  0  0  0999 V2000
  -33.4255  -30.9732   15.5557 C   0  0  0  0  0  0  0  0  0  0  0  0
  -32.6692  -29.8371   15.8252 C   0  0  0  0  0  0  0  0  0  0  0  0
  -23.1538   -9.9654   19.8811 C   0  0  0  0  0  0  0  0  0  0  0  0
  -23.8528   -9.7832   22.1866 C   0  0  0  0  0  0  0  0  0  0  0  0
  -33.6342  -31.9234   16.5544 C   0  0  0  0  0  0  0  0  0  0  0  0
  -32.1222  -29.6499   17.0942 C   0  0  0  0  0  0  0  0  0  0  0  0
  -27.3032  -28.1032   16.9235 C   0  0  0  0  0  0  0  0  0  0  0  0
  -22.4275   -8.7814   20.0077 C   0  0  0  0  0  0  0  0  0  0  0  0
  -23.1264   -8.5992   22.3133 C   0  0  0  0  0  0  0  0  0  0  0  0
  -27.0760  -26.7582   16.6351 C   0  0  0  0  0  0  0  0  0  0  0  0
  -23.5001   -5.3454   21.4742 C   0  0  0  0  0  0  0  0  0  0  0  0
  -24.1175   -4.2719   22.1162 C   0  0  0  0  0  0  0  0  0  0  0  0
  -26.7474  -26.3163   18.9837 C   0  0  0  0  0  0  0  0  0  0  0  0
  -22.3685   -4.2629   23.7830 C   0  0  0  0  0  0  0  0  0  0  0  0
  -27.2874  -21.7734   16.2725 C   0  0  0  0  0  0  0  0  0  0  0  0
  -24.8814  -21.0534   15.3225 C   0  0  0  0  0  0  0  0  0  0  0  0
  -23.8665  -10.4664   20.9706 C   0  0  0  0  0  0  0  0  0  0  0  0
  -24.1594  -12.9980   21.0828 C   0  0  0  0  0  0  0  0  0  0  0  0
  -33.0815  -31.7525   17.8334 C   0  0  0  0  0  0  0  0  0  0  0  0
  -27.2649  -28.5635   18.2475 C   0  0  0  0  0  0  0  0  0  0  0  0
  -32.3250  -30.5980   18.1114 C   0  0  0  0  0  0  0  0  0  0  0  0
  -26.9720  -27.6680   19.2860 C   0  0  0  0  0  0  0  0  0  0  0  0
  -22.4138   -8.0983   21.2238 C   0  0  0  0  0  0  0  0  0  0  0  0
  -26.8009  -25.8640   17.6655 C   0  0  0  0  0  0  0  0  0  0  0  0
  -22.3170   -5.8777   21.9867 C   0  0  0  0  0  0  0  0  0  0  0  0
  -23.5517   -3.7306   23.2705 C   0  0  0  0  0  0  0  0  0  0  0  0
  -21.7512   -5.3364   23.1410 C   0  0  0  0  0  0  0  0  0  0  0  0
  -24.6175  -11.6891   20.8403 C   0  0  0  0  0  0  0  0  0  0  0  0
  -26.3375  -22.7015   15.8975 C   0  0  0  0  0  0  0  0  0  0  0  0
  -26.9201  -20.4511   16.1275 C   0  0  0  0  0  0  0  0  0  0  0  0
  -25.2451  -13.7964   20.8176 C   0  0  0  0  0  0  0  0  0  0  0  0
  -22.8680  -13.4516   21.5097 C   0  0  0  0  0  0  0  0  0  0  0  0
  -29.3660  -29.9116   20.2152 C   0  0  0  0  0  0  0  0  0  0  0  0
  -26.7827  -30.1873   22.1576 C   0  0  0  0  0  0  0  0  0  0  0  0
  -23.6827  -29.0601   23.0331 C   0  0  0  0  0  0  0  0  0  0  0  0
  -29.4786  -15.0040   17.2826 C   0  0  0  0  0  0  0  0  0  0  0  0
  -33.3740  -32.7837   18.8944 C   0  0  0  0  0  0  0  0  0  0  0  0
  -27.4858  -30.0225   18.5394 C   0  0  0  0  0  0  0  0  0  0  0  0
  -26.8994  -28.1157   20.7223 C   0  0  0  0  0  0  0  0  0  0  0  0
  -32.4467  -32.6934   20.1037 C   0  0  0  0  0  0  0  0  0  0  0  0
  -30.0951  -12.6202   20.0048 C   0  0  0  0  0  0  0  0  0  0  0  0
  -32.3119  -31.2461   20.5661 C   0  0  0  0  0  0  0  0  0  0  0  0
  -28.6818  -12.2400   20.4486 C   0  0  0  0  0  0  0  0  0  0  0  0
  -26.8377  -17.5413   17.6056 C   0  0  0  0  0  0  0  0  0  0  0  0
  -30.1515  -12.9785   18.5215 C   0  0  0  0  0  0  0  0  0  0  0  0
  -27.1554  -16.0502   17.5638 C   0  0  0  0  0  0  0  0  0  0  0  0
  -27.7733  -13.6242   18.5465 C   0  0  0  0  0  0  0  0  0  0  0  0
  -28.9052  -17.2712   16.4626 C   0  0  0  0  0  0  0  0  0  0  0  0
  -31.6944  -30.3714   19.4683 C   0  0  1  0  0  0  0  0  0  0  0  0
  -27.9303  -30.2840   19.9751 C   0  0  1  0  0  0  0  0  0  0  0  0
  -27.6635  -13.3237   20.0478 C   0  0  1  0  0  0  0  0  0  0  0  0
  -27.6117  -18.0697   16.4028 C   0  0  2  0  0  0  0  0  0  0  0  0
  -21.8354  -29.4587   24.6842 C   0  0  0  0  0  0  0  0  0  0  0  0
  -28.4140  -28.7807   24.3187 C   0  0  0  0  0  0  0  0  0  0  0  0
  -26.2799  -28.3621   25.5592 C   0  0  0  0  0  0  0  0  0  0  0  0
  -27.0362  -30.7012   25.1358 C   0  0  0  0  0  0  0  0  0  0  0  0
  -21.7544  -29.7287   20.8899 C   0  0  0  0  0  0  0  0  0  0  0  0
  -26.6439  -24.1567   16.0173 C   0  0  0  0  0  0  0  0  0  1  0  0
  -26.1431  -29.3206   23.2153 C   0  0  1  0  0  0  0  0  0  0  0  0
  -22.3833  -29.7959   23.3062 C   0  0  2  0  0  0  0  0  0  0  0  0
  -26.9715  -29.2820   24.5305 C   0  0  0  0  0  0  0  0  0  0  0  0
  -25.1198  -22.3754   15.4167 N   0  0  0  0  0  0  0  0  0  0  0  0
  -25.7208  -20.0538   15.6541 N   0  0  0  0  0  0  0  0  0  0  0  0
  -25.8946  -11.6537   20.4508 N   0  0  0  0  0  0  0  0  0  0  0  0
  -26.2483  -12.9502   20.4465 N   0  0  0  0  0  0  0  0  0  0  0  0
  -27.1290  -29.5508   20.9573 N   0  0  0  0  0  0  0  0  0  0  0  0
  -29.1479  -13.9893   18.1874 N   0  0  0  0  0  0  0  0  0  0  0  0
  -28.5170  -15.9808   17.0270 N   0  0  0  0  0  0  0  0  0  0  0  0
  -25.4299  -15.1327   20.8680 N   0  0  0  0  0  0  0  0  0  0  0  0
  -21.8665  -12.4979   21.7372 N   0  0  0  0  0  0  0  0  0  0  0  0
  -27.8484  -19.4862   16.4943 N   0  0  0  0  0  0  0  0  0  0  0  0
  -30.2635  -30.5778   19.4027 N   0  0  0  0  0  0  0  0  0  0  0  0
  -24.7813  -29.8171   23.3813 N   0  0  0  0  0  0  0  0  0  0  0  0
  -21.3570  -29.4295   22.2897 N   0  3  0  0  0  0  0  0  0  0  0  0
  -22.6051  -14.6678   21.6684 O   0  0  0  0  0  0  0  0  0  0  0  0
  -29.6394  -29.0824   21.0751 O   0  0  0  0  0  0  0  0  0  0  0  0
  -26.9617  -31.3863   22.3852 O   0  0  0  0  0  0  0  0  0  0  0  0
  -23.7194  -27.9256   22.5618 O   0  0  0  0  0  0  0  0  0  0  0  0
  -30.6003  -15.0619   16.7616 O   0  0  0  0  0  0  0  0  0  0  0  0
  -21.7049   -6.9429   21.3477 O   0  0  0  0  0  0  0  0  0  0  0  0
  -26.5779  -24.5414   17.3848 O   0  0  0  0  0  0  0  0  0  1  0  0
  -24.1438   -2.6988   23.8860 F   0  0  0  0  0  0  0  0  0  0  0  0
  -20.6141   -5.8428   23.6374 F   0  0  0  0  0  0  0  0  0  0  0  0
  1  2  1  0  0  0  0
  1  5  2  0  0  0  0
  2  6  2  0  0  0  0
  3  8  2  0  0  0  0
  3 17  1  0  0  0  0
  4  9  1  0  0  0  0
  4 17  2  0  0  0  0
  5 19  1  0  0  0  0
  6 21  1  0  0  0  0
  7 10  2  0  0  0  0
  7 20  1  0  0  0  0
  8 23  1  0  0  0  0
  9 23  2  0  0  0  0
 10 24  1  0  0  0  0
 11 12  2  0  0  0  0
 11 25  1  0  0  0  0
 12 26  1  0  0  0  0
 13 22  1  0  0  0  0
 13 24  2  0  0  0  0
 14 26  2  0  0  0  0
 14 27  1  0  0  0  0
 15 29  1  0  0  0  0
 15 30  2  0  0  0  0
 16 62  1  0  0  0  0
 16 63  2  0  0  0  0
 17 28  1  0  0  0  0
 18 28  1  0  0  0  0
 18 31  2  0  0  0  0
 18 32  1  0  0  0  0
 19 21  2  0  0  0  0
 19 37  1  0  0  0  0
 20 22  2  0  0  0  0
 20 38  1  0  0  0  0
 21 49  1  0  0  0  0
 22 39  1  0  0  0  0
 23 80  1  0  0  0  0
 24 81  1  0  0  0  0
 25 27  2  0  0  0  0
 25 80  1  0  0  0  0
 26 82  1  0  0  0  0
 27 83  1  0  0  0  0
 28 64  2  0  0  0  0
 29 58  1  0  0  0  0
 29 62  2  0  0  0  0
 30 63  1  0  0  0  0
 30 71  1  0  0  0  0
 31 65  1  0  0  0  0
 31 69  1  0  0  0  0
 32 70  1  0  0  0  0
 32 75  2  0  0  0  0
 33 50  1  0  0  0  0
 33 72  1  0  0  0  0
 33 76  2  0  0  0  0
 34 59  1  0  0  0  0
 34 66  1  0  0  0  0
 34 77  2  0  0  0  0
 35 60  1  0  0  0  0
 35 73  1  0  0  0  0
 35 78  2  0  0  0  0
 36 67  1  0  0  0  0
 36 68  1  0  0  0  0
 36 79  2  0  0  0  0
 37 40  1  0  0  0  0
 38 50  1  0  0  0  0
 39 66  1  0  0  0  0
 40 42  1  0  0  0  0
 41 43  1  0  0  0  0
 41 45  1  0  0  0  0
 42 49  1  0  0  0  0
 43 51  1  0  0  0  0
 44 46  1  0  0  0  0
 44 52  1  0  0  0  0
 45 67  1  0  0  0  0
 46 68  1  0  0  0  0
 47 51  1  0  0  0  0
 47 67  1  0  0  0  0
 48 52  1  0  0  0  0
 48 68  1  0  0  0  0
 49 72  1  0  0  0  0
 50 66  1  0  0  0  0
 51 65  1  0  0  0  0
 52 71  1  0  0  0  0
 53 60  1  0  0  0  0
 54 61  1  0  0  0  0
 55 61  1  0  0  0  0
 56 61  1  0  0  0  0
 57 74  1  0  0  0  0
 58 81  1  0  0  0  0
 59 61  1  0  0  0  0
 59 73  1  0  0  0  0
 60 74  1  0  0  0  0
 64 65  1  0  0  0  0
M  CHG  1  74   1
M  ISO  4  36 100  58 101  68 100  81 101
M  END
> <Batch ID>
0182

> <Smiles>
CNC(C)C(=O)NC(C(=O)N1Cc2cc([101O:1][101CH2:1]c3cc(NC4CC[100N:0]([100C:0](=O)N5CCCC(n6nc(-c7ccc(Oc8ccc(F)cc8F)cc7)c(C(N)=O)c6N)C5)C4)ncn3)ccc2CC1C(=O)NC1CCCc2ccccc21)C(C)(C)C

> <Shape>
0.232

> <Color>
0.185

> <Negative vol penalty>
0.000

$$$$

  -OEChem-04052323053D

 85 94  0     1  0  0  0  0  0999 V2000
  -28.1346  -33.7654   26.1457 C   0  0  0  0  0  0  0  0  0  0  0  0
  -28.1970  -32.4979   25.5757 C   0  0  0  0  0  0  0  0  0  0  0  0
  -25.3189  -10.0423   23.1212 C   0  0  0  0  0  0  0  0  0  0  0  0
  -24.1664   -9.2068   21.1691 C   0  0  0  0  0  0  0  0  0  0  0  0
  -26.8987  -34.3805   26.3410 C   0  0  0  0  0  0  0  0  0  0  0  0
  -27.0235  -31.8442   25.2018 C   0  0  0  0  0  0  0  0  0  0  0  0
  -27.3707  -29.6911   20.6314 C   0  0  0  0  0  0  0  0  0  0  0  0
  -24.3915   -9.4018   23.9429 C   0  0  0  0  0  0  0  0  0  0  0  0
  -23.2390   -8.5662   21.9908 C   0  0  0  0  0  0  0  0  0  0  0  0
  -28.0617  -28.4832   20.5474 C   0  0  0  0  0  0  0  0  0  0  0  0
  -23.0851   -5.7429   23.8416 C   0  0  0  0  0  0  0  0  0  0  0  0
  -22.7413   -4.4284   23.5264 C   0  0  0  0  0  0  0  0  0  0  0  0
  -25.9647  -27.2909   20.5415 C   0  0  0  0  0  0  0  0  0  0  0  0
  -20.4343   -5.0952   23.2615 C   0  0  0  0  0  0  0  0  0  0  0  0
  -31.0030  -23.2050   18.9360 C   0  0  0  0  0  0  0  0  0  0  0  0
  -25.2063   -9.9448   21.7343 C   0  0  0  0  0  0  0  0  0  0  0  0
  -27.3739  -10.0793   20.3959 C   0  0  0  0  0  0  0  0  0  0  0  0
  -25.7100  -33.7380   25.9604 C   0  0  0  0  0  0  0  0  0  0  0  0
  -25.9694  -29.7075   20.6821 C   0  0  0  0  0  0  0  0  0  0  0  0
  -25.7704  -32.4507   25.3935 C   0  0  0  0  0  0  0  0  0  0  0  0
  -25.2582  -28.5005   20.6235 C   0  0  0  0  0  0  0  0  0  0  0  0
  -23.3515   -8.6637   23.3777 C   0  0  0  0  0  0  0  0  0  0  0  0
  -27.3589  -27.2826   20.5054 C   0  0  0  0  0  0  0  0  0  0  0  0
  -22.1035   -6.7336   23.8669 C   0  0  0  0  0  0  0  0  0  0  0  0
  -21.4159   -4.1045   23.2363 C   0  0  0  0  0  0  0  0  0  0  0  0
  -20.7781   -6.4098   23.5768 C   0  0  0  0  0  0  0  0  0  0  0  0
  -26.1637  -10.6067   20.8849 C   0  0  0  0  0  0  0  0  0  0  0  0
  -31.0309  -22.3354   20.0039 C   0  0  0  0  0  0  0  0  0  0  0  0
  -30.0461  -23.9231   21.3226 C   0  0  0  0  0  0  0  0  0  0  0  0
  -30.0189  -24.7930   20.2549 C   0  0  0  0  0  0  0  0  0  0  0  0
  -27.9115  -11.0945   19.6430 C   0  0  0  0  0  0  0  0  0  0  0  0
  -27.9597   -8.7873   20.6036 C   0  0  0  0  0  0  0  0  0  0  0  0
  -23.8128  -30.6926   22.7993 C   0  0  0  0  0  0  0  0  0  0  0  0
  -21.7221  -29.9457   20.4342 C   0  0  0  0  0  0  0  0  0  0  0  0
  -21.0575  -28.1320   17.6207 C   0  0  0  0  0  0  0  0  0  0  0  0
  -29.2536  -16.2236   18.7992 C   0  0  0  0  0  0  0  0  0  0  0  0
  -24.3946  -34.4230   26.2348 C   0  0  0  0  0  0  0  0  0  0  0  0
  -25.2380  -31.0203   20.7456 C   0  0  0  0  0  0  0  0  0  0  0  0
  -23.7528  -28.4648   20.6546 C   0  0  0  0  0  0  0  0  0  0  0  0
  -23.2215  -33.8191   25.4671 C   0  0  0  0  0  0  0  0  0  0  0  0
  -25.9065  -15.4525   18.0603 C   0  0  0  0  0  0  0  0  0  0  0  0
  -23.2424  -32.2973   25.5708 C   0  0  0  0  0  0  0  0  0  0  0  0
  -25.7669  -14.0691   18.6950 C   0  0  0  0  0  0  0  0  0  0  0  0
  -26.7287  -16.4031   18.9323 C   0  0  0  0  0  0  0  0  0  0  0  0
  -28.6238  -18.6556   19.1358 C   0  0  0  0  0  0  0  0  0  0  0  0
  -30.4977  -18.0333   17.6562 C   0  0  0  0  0  0  0  0  0  0  0  0
  -27.9153  -14.4863   19.9506 C   0  0  0  0  0  0  0  0  0  0  0  0
  -29.5559  -19.5363   19.9617 C   0  0  0  0  0  0  0  0  0  0  0  0
  -31.4604  -18.8814   18.4713 C   0  0  0  0  0  0  0  0  0  0  0  0
  -24.5210  -31.7197   24.9520 C   0  0  1  0  0  0  0  0  0  0  0  0
  -23.8265  -30.8912   21.3099 C   0  0  1  0  0  0  0  0  0  0  0  0
  -27.1435  -13.4919   19.0696 C   0  0  1  0  0  0  0  0  0  0  0  0
  -29.5134  -24.3155   22.6584 C   0  0  0  0  0  0  0  0  0  0  0  0
  -19.2500  -27.7059   15.9329 C   0  0  0  0  0  0  0  0  0  0  0  0
  -20.2400  -28.2137   22.4623 C   0  0  0  0  0  0  0  0  0  0  0  0
  -19.0650  -27.1030   20.5507 C   0  0  0  0  0  0  0  0  0  0  0  0
  -18.7602  -29.5465   20.9497 C   0  0  0  0  0  0  0  0  0  0  0  0
  -22.7413  -29.1199   15.3963 C   0  0  0  0  0  0  0  0  0  0  0  0
  -31.6035  -20.9573   19.8487 C   0  0  0  0  0  0  0  0  0  0  0  0
  -29.4557  -26.1669   20.3857 C   0  0  0  0  0  0  0  0  0  1  0  0
  -20.9609  -28.7055   20.0324 C   0  0  1  0  0  0  0  0  0  0  0  0
  -20.4783  -28.5342   16.2764 C   0  0  2  0  0  0  0  0  0  0  0  0
  -19.7849  -28.3924   21.0001 C   0  0  0  0  0  0  0  0  0  0  0  0
  -30.4966  -24.4495   19.0423 N   0  0  0  0  0  0  0  0  0  0  0  0
  -25.9451  -11.8597   20.4771 N   0  0  0  0  0  0  0  0  0  0  0  0
  -30.5528  -22.6788   21.2164 N   0  0  0  0  0  0  0  0  0  0  0  0
  -27.0253  -12.1281   19.7239 N   0  0  0  0  0  0  0  0  0  0  0  0
  -23.0833  -29.7742   20.7234 N   0  0  0  0  0  0  0  0  0  0  0  0
  -28.0149  -15.7934   19.2978 N   0  0  0  0  0  0  0  0  0  0  0  0
  -29.3703  -17.5819   18.4689 N   0  0  0  0  0  0  0  0  0  0  0  0
  -29.0511  -11.1950   18.9263 N   0  0  0  0  0  0  0  0  0  0  0  0
  -27.2741   -7.8638   21.4045 N   0  0  0  0  0  0  0  0  0  0  0  0
  -24.4237  -31.7094   23.5081 N   0  0  0  0  0  0  0  0  0  0  0  0
  -20.5560  -28.9066   18.6453 N   0  0  0  0  0  0  0  0  0  0  0  0
  -30.6953  -20.0232   19.0990 N   0  3  0  0  0  0  0  0  0  0  0  0
  -21.4899  -28.3440   15.1987 N   0  3  0  0  0  0  0  0  0  0  0  0
  -29.0664   -8.4671   20.1074 O   0  0  0  0  0  0  0  0  0  0  0  0
  -23.2856  -29.6917   23.2705 O   0  0  0  0  0  0  0  0  0  0  0  0
  -21.1324  -31.0281   20.4826 O   0  0  0  0  0  0  0  0  0  0  0  0
  -21.8706  -27.2194   17.7495 O   0  0  0  0  0  0  0  0  0  0  0  0
  -30.2006  -15.4396   18.6580 O   0  0  0  0  0  0  0  0  0  0  0  0
  -22.4465   -8.0384   24.1792 O   0  0  0  0  0  0  0  0  0  0  0  0
  -28.0355  -26.0941   20.4236 O   0  0  0  0  0  0  0  0  0  1  0  0
  -21.0862   -2.8424   22.9321 F   0  0  0  0  0  0  0  0  0  0  0  0
  -19.8309   -7.3575   23.5983 F   0  0  0  0  0  0  0  0  0  0  0  0
  1  2  1  0  0  0  0
  1  5  2  0  0  0  0
  2  6  2  0  0  0  0
  3  8  2  0  0  0  0
  3 16  1  0  0  0  0
  4  9  1  0  0  0  0
  4 16  2  0  0  0  0
  5 18  1  0  0  0  0
  6 20  1  0  0  0  0
  7 10  2  0  0  0  0
  7 19  1  0  0  0  0
  8 22  1  0  0  0  0
  9 22  2  0  0  0  0
 10 23  1  0  0  0  0
 11 12  2  0  0  0  0
 11 24  1  0  0  0  0
 12 25  1  0  0  0  0
 13 21  1  0  0  0  0
 13 23  2  0  0  0  0
 14 25  2  0  0  0  0
 14 26  1  0  0  0  0
 15 28  1  0  0  0  0
 15 64  2  0  0  0  0
 16 27  1  0  0  0  0
 17 27  1  0  0  0  0
 17 31  2  0  0  0  0
 17 32  1  0  0  0  0
 18 20  2  0  0  0  0
 18 37  1  0  0  0  0
 19 21  2  0  0  0  0
 19 38  1  0  0  0  0
 20 50  1  0  0  0  0
 21 39  1  0  0  0  0
 22 82  1  0  0  0  0
 23 83  1  0  0  0  0
 24 26  2  0  0  0  0
 24 82  1  0  0  0  0
 25 84  1  0  0  0  0
 26 85  1  0  0  0  0
 27 65  2  0  0  0  0
 28 59  1  0  0  0  0
 28 66  2  0  0  0  0
 29 30  2  0  0  0  0
 29 53  1  0  0  0  0
 29 66  1  0  0  0  0
 30 60  1  0  0  0  0
 30 64  1  0  0  0  0
 31 67  1  0  0  0  0
 31 71  1  0  0  0  0
 32 72  1  0  0  0  0
 32 77  2  0  0  0  0
 33 51  1  0  0  0  0
 33 73  1  0  0  0  0
 33 78  2  0  0  0  0
 34 61  1  0  0  0  0
 34 68  1  0  0  0  0
 34 79  2  0  0  0  0
 35 62  1  0  0  0  0
 35 74  1  0  0  0  0
 35 80  2  0  0  0  0
 36 69  1  0  0  0  0
 36 70  1  0  0  0  0
 36 81  2  0  0  0  0
 37 40  1  0  0  0  0
 38 51  1  0  0  0  0
 39 68  1  0  0  0  0
 40 42  1  0  0  0  0
 41 43  1  0  0  0  0
 41 44  1  0  0  0  0
 42 50  1  0  0  0  0
 43 52  1  0  0  0  0
 44 69  1  0  0  0  0
 45 48  1  0  0  0  0
 45 70  1  0  0  0  0
 46 49  1  0  0  0  0
 46 70  1  0  0  0  0
 47 52  1  0  0  0  0
 47 69  1  0  0  0  0
 48 75  1  0  0  0  0
 49 75  1  0  0  0  0
 50 73  1  0  0  0  0
 51 68  1  0  0  0  0
 52 67  1  0  0  0  0
 54 62  1  0  0  0  0
 55 63  1  0  0  0  0
 56 63  1  0  0  0  0
 57 63  1  0  0  0  0
 58 76  1  0  0  0  0
 59 75  1  0  0  0  0
 60 83  1  0  0  0  0
 61 63  1  0  0  0  0
 61 74  1  0  0  0  0
 62 76  1  0  0  0  0
 65 67  1  0  0  0  0
M  CHG  2  75   1  76   1
M  ISO  4  36 100  60 101  70 100  83 101
M  END
> <Batch ID>
0182

> <Smiles>
CNC(C)C(=O)NC(C(=O)N1Cc2cc([101O:1][101CH2:1]c3ncc(CN4CC[100N:0]([100C:0](=O)N5CCCC(n6nc(-c7ccc(Oc8ccc(F)cc8F)cc7)c(C(N)=O)c6N)C5)CC4)nc3C)ccc2CC1C(=O)NC1CCCc2ccccc21)C(C)(C)C

> <Shape>
0.300

> <Color>
0.086

> <Negative vol penalty>
0.000

$$$$

  -OEChem-04052323053D

 82 91  0     1  0  0  0  0  0999 V2000
  -26.6766   -6.3933   30.9856 C   0  0  0  0  0  0  0  0  0  0  0  0
  -26.9410   -7.4697   30.1448 C   0  0  0  0  0  0  0  0  0  0  0  0
  -23.2049   -9.8382   19.9557 C   0  0  0  0  0  0  0  0  0  0  0  0
  -23.8740   -9.9433   22.2748 C   0  0  0  0  0  0  0  0  0  0  0  0
  -25.4085   -5.8138   30.9964 C   0  0  0  0  0  0  0  0  0  0  0  0
  -25.9378   -7.9666   29.3136 C   0  0  0  0  0  0  0  0  0  0  0  0
  -25.7130  -13.0255   29.3498 C   0  0  0  0  0  0  0  0  0  0  0  0
  -22.5085   -8.6568   20.2101 C   0  0  0  0  0  0  0  0  0  0  0  0
  -23.1776   -8.7619   22.5293 C   0  0  0  0  0  0  0  0  0  0  0  0
  -26.6658  -13.7106   28.5972 C   0  0  0  0  0  0  0  0  0  0  0  0
  -23.2287   -5.3795   20.6160 C   0  0  0  0  0  0  0  0  0  0  0  0
  -23.3816   -4.3300   19.7100 C   0  0  0  0  0  0  0  0  0  0  0  0
  -25.0449  -14.0200   26.8376 C   0  0  0  0  0  0  0  0  0  0  0  0
  -21.0073   -4.3686   19.2647 C   0  0  0  0  0  0  0  0  0  0  0  0
  -23.8877  -10.4815   20.9880 C   0  0  0  0  0  0  0  0  0  0  0  0
  -24.1116  -13.0164   20.8095 C   0  0  0  0  0  0  0  0  0  0  0  0
  -24.3864   -6.3100   30.1719 C   0  0  0  0  0  0  0  0  0  0  0  0
  -24.4199  -12.8227   28.8465 C   0  0  0  0  0  0  0  0  0  0  0  0
  -24.6552   -7.3923   29.3124 C   0  0  0  0  0  0  0  0  0  0  0  0
  -24.0767  -13.3342   27.5869 C   0  0  0  0  0  0  0  0  0  0  0  0
  -30.9482  -17.2322   24.5752 C   0  0  0  0  0  0  0  0  0  0  0  0
  -22.4948   -8.1186   21.4969 C   0  0  0  0  0  0  0  0  0  0  0  0
  -26.3327  -14.2054   27.3397 C   0  0  0  0  0  0  0  0  0  0  0  0
  -21.9651   -5.9235   20.8464 C   0  0  0  0  0  0  0  0  0  0  0  0
  -22.2709   -3.8245   19.0344 C   0  0  0  0  0  0  0  0  0  0  0  0
  -20.8544   -5.4180   20.1708 C   0  0  0  0  0  0  0  0  0  0  0  0
  -24.6078  -11.7016   20.7257 C   0  0  0  0  0  0  0  0  0  0  0  0
  -30.6318  -15.9044   24.3412 C   0  0  0  0  0  0  0  0  0  0  0  0
  -30.4421  -17.7984   25.7146 C   0  0  0  0  0  0  0  0  0  0  0  0
  -25.1795  -13.8090   20.4663 C   0  0  0  0  0  0  0  0  0  0  0  0
  -29.4210  -15.8137   26.2338 C   0  0  0  0  0  0  0  0  0  0  0  0
  -22.8024  -13.4798   21.1658 C   0  0  0  0  0  0  0  0  0  0  0  0
  -22.6741  -10.2704   28.1104 C   0  0  0  0  0  0  0  0  0  0  0  0
  -20.3486  -12.4815   27.6359 C   0  0  0  0  0  0  0  0  0  0  0  0
  -19.5288  -15.7182   26.9297 C   0  0  0  0  0  0  0  0  0  0  0  0
  -30.9335  -14.0556   21.0541 C   0  0  0  0  0  0  0  0  0  0  0  0
  -23.0451   -5.6206   30.1838 C   0  0  0  0  0  0  0  0  0  0  0  0
  -23.3957  -12.1049   29.6821 C   0  0  0  0  0  0  0  0  0  0  0  0
  -31.8506  -17.7840   23.5297 C   0  0  0  0  0  0  0  0  0  0  0  0
  -22.6963  -13.1609   27.0099 C   0  0  0  0  0  0  0  0  0  0  0  0
  -21.9305   -6.4457   29.5459 C   0  0  0  0  0  0  0  0  0  0  0  0
  -31.6512  -16.7527   22.4045 C   0  0  0  0  0  0  0  0  0  0  0  0
  -29.3979  -13.0908   17.9901 C   0  0  0  0  0  0  0  0  0  0  0  0
  -22.3941   -7.0312   28.2158 C   0  0  0  0  0  0  0  0  0  0  0  0
  -27.9600  -12.7564   18.3910 C   0  0  0  0  0  0  0  0  0  0  0  0
  -30.3957  -12.6751   19.0688 C   0  0  0  0  0  0  0  0  0  0  0  0
  -28.6689  -12.8674   20.8166 C   0  0  0  0  0  0  0  0  0  0  0  0
  -23.5860   -7.9754   28.4141 C   0  0  1  0  0  0  0  0  0  0  0  0
  -31.3190  -15.4147   23.0945 C   0  0  2  0  0  0  0  0  0  0  0  0
  -22.2611  -11.5086   28.8546 C   0  0  1  0  0  0  0  0  0  0  0  0
  -27.6213  -13.3188   19.7846 C   0  0  2  0  0  0  0  0  0  0  0  0
  -30.7422  -19.2140   26.0666 C   0  0  0  0  0  0  0  0  0  0  0  0
  -17.5469  -17.2148   26.5702 C   0  0  0  0  0  0  0  0  0  0  0  0
  -19.9539  -11.2870   24.8561 C   0  0  0  0  0  0  0  0  0  0  0  0
  -18.6917  -13.3545   24.2231 C   0  0  0  0  0  0  0  0  0  0  0  0
  -17.8363  -11.8822   26.0460 C   0  0  0  0  0  0  0  0  0  0  0  0
  -20.2664  -17.4393   29.2216 C   0  0  0  0  0  0  0  0  0  0  0  0
  -28.5569  -15.0321   27.1792 C   0  0  0  0  0  0  0  0  0  1  0  0
  -19.8825  -13.3078   26.4616 C   0  0  1  0  0  0  0  0  0  0  0  0
  -18.5453  -16.6734   27.5814 C   0  0  2  0  0  0  0  0  0  0  0  0
  -19.1178  -12.4596   25.4065 C   0  0  0  0  0  0  0  0  0  0  0  0
  -25.8911  -11.6573   20.3579 N   0  0  0  0  0  0  0  0  0  0  0  0
  -29.8754  -15.1489   25.1507 N   0  0  0  0  0  0  0  0  0  0  0  0
  -29.6592  -17.1056   26.5699 N   0  0  0  0  0  0  0  0  0  0  0  0
  -26.2102  -12.9541   20.2075 N   0  0  0  0  0  0  0  0  0  0  0  0
  -21.7318  -12.4465   27.8625 N   0  0  0  0  0  0  0  0  0  0  0  0
  -30.0182  -13.2425   20.3655 N   0  0  0  0  0  0  0  0  0  0  0  0
  -25.3280  -15.1468   20.3636 N   0  0  0  0  0  0  0  0  0  0  0  0
  -21.8232  -12.5310   21.4905 N   0  0  0  0  0  0  0  0  0  0  0  0
  -23.1385   -9.2540   28.9233 N   0  0  0  0  0  0  0  0  0  0  0  0
  -19.1055  -14.4090   27.0200 N   0  0  0  0  0  0  0  0  0  0  0  0
  -30.4936  -14.5579   22.2727 N   0  0  0  0  0  0  0  0  0  0  0  0
  -19.2684  -17.8252   28.1910 N   0  3  0  0  0  0  0  0  0  0  0  0
  -22.5049  -14.6983   21.1794 O   0  0  0  0  0  0  0  0  0  0  0  0
  -22.5772  -10.2389   26.8892 O   0  0  0  0  0  0  0  0  0  0  0  0
  -19.5154  -11.8947   28.3310 O   0  0  0  0  0  0  0  0  0  0  0  0
  -20.5669  -16.0960   26.3909 O   0  0  0  0  0  0  0  0  0  0  0  0
  -32.0572  -14.3191   20.6129 O   0  0  0  0  0  0  0  0  0  0  0  0
  -21.8151   -6.9659   21.7456 O   0  0  0  0  0  0  0  0  0  0  0  0
  -27.2611  -14.8739   26.6027 O   0  0  0  0  0  0  0  0  0  1  0  0
  -22.4181   -2.8178   18.1632 F   0  0  0  0  0  0  0  0  0  0  0  0
  -19.6381   -5.9373   20.3871 F   0  0  0  0  0  0  0  0  0  0  0  0
  1  2  1  0  0  0  0
  1  5  2  0  0  0  0
  2  6  2  0  0  0  0
  3  8  2  0  0  0  0
  3 15  1  0  0  0  0
  4  9  1  0  0  0  0
  4 15  2  0  0  0  0
  5 17  1  0  0  0  0
  6 19  1  0  0  0  0
  7 10  2  0  0  0  0
  7 18  1  0  0  0  0
  8 22  1  0  0  0  0
  9 22  2  0  0  0  0
 10 23  1  0  0  0  0
 11 12  2  0  0  0  0
 11 24  1  0  0  0  0
 12 25  1  0  0  0  0
 13 20  1  0  0  0  0
 13 23  2  0  0  0  0
 14 25  2  0  0  0  0
 14 26  1  0  0  0  0
 15 27  1  0  0  0  0
 16 27  1  0  0  0  0
 16 30  2  0  0  0  0
 16 32  1  0  0  0  0
 17 19  2  0  0  0  0
 17 37  1  0  0  0  0
 18 20  2  0  0  0  0
 18 38  1  0  0  0  0
 19 48  1  0  0  0  0
 20 40  1  0  0  0  0
 21 28  2  0  0  0  0
 21 29  1  0  0  0  0
 21 39  1  0  0  0  0
 22 79  1  0  0  0  0
 23 80  1  0  0  0  0
 24 26  2  0  0  0  0
 24 79  1  0  0  0  0
 25 81  1  0  0  0  0
 26 82  1  0  0  0  0
 27 62  2  0  0  0  0
 28 49  1  0  0  0  0
 28 63  1  0  0  0  0
 29 52  1  0  0  0  0
 29 64  2  0  0  0  0
 30 65  1  0  0  0  0
 30 68  1  0  0  0  0
 31 58  1  0  0  0  0
 31 63  2  0  0  0  0
 31 64  1  0  0  0  0
 32 69  1  0  0  0  0
 32 74  2  0  0  0  0
 33 50  1  0  0  0  0
 33 70  1  0  0  0  0
 33 75  2  0  0  0  0
 34 59  1  0  0  0  0
 34 66  1  0  0  0  0
 34 76  2  0  0  0  0
 35 60  1  0  0  0  0
 35 71  1  0  0  0  0
 35 77  2  0  0  0  0
 36 67  1  0  0  0  0
 36 72  1  0  0  0  0
 36 78  2  0  0  0  0
 37 41  1  0  0  0  0
 38 50  1  0  0  0  0
 39 42  1  0  0  0  0
 40 66  1  0  0  0  0
 41 44  1  0  0  0  0
 42 49  1  0  0  0  0
 43 45  1  0  0  0  0
 43 46  1  0  0  0  0
 44 48  1  0  0  0  0
 45 51  1  0  0  0  0
 46 67  1  0  0  0  0
 47 51  1  0  0  0  0
 47 67  1  0  0  0  0
 48 70  1  0  0  0  0
 49 72  1  0  0  0  0
 50 66  1  0  0  0  0
 51 65  1  0  0  0  0
 53 60  1  0  0  0  0
 54 61  1  0  0  0  0
 55 61  1  0  0  0  0
 56 61  1  0  0  0  0
 57 73  1  0  0  0  0
 58 80  1  0  0  0  0
 59 61  1  0  0  0  0
 59 71  1  0  0  0  0
 60 73  1  0  0  0  0
 62 65  1  0  0  0  0
M  CHG  1  73   1
M  ISO  4  36 100  58 101  72 100  80 101
M  END
> <Batch ID>
0182

> <Smiles>
CNC(C)C(=O)NC(C(=O)N1Cc2cc([101O:1][101CH2:1]c3nc(C)c4c(n3)C([100NH:0][100C:0](=O)N3CCCC(n5nc(-c6ccc(Oc7ccc(F)cc7F)cc6)c(C(N)=O)c5N)C3)CC4)ccc2CC1C(=O)NC1CCCc2ccccc21)C(C)(C)C

> <Shape>
0.143

> <Color>
0.180

> <Negative vol penalty>
0.000

$$$$

  -OEChem-04052323053D

 83 92  0     1  0  0  0  0  0999 V2000
  -24.1267  -31.1787   29.0858 C   0  0  0  0  0  0  0  0  0  0  0  0
  -25.0473  -30.6276   28.2003 C   0  0  0  0  0  0  0  0  0  0  0  0
  -26.6769  -12.6141   21.7945 C   0  0  0  0  0  0  0  0  0  0  0  0
  -26.2464  -13.9596   19.8346 C   0  0  0  0  0  0  0  0  0  0  0  0
  -22.7611  -30.9917   28.8758 C   0  0  0  0  0  0  0  0  0  0  0  0
  -24.6028  -29.8882   27.1048 C   0  0  0  0  0  0  0  0  0  0  0  0
  -27.1662  -29.6370   21.5485 C   0  0  0  0  0  0  0  0  0  0  0  0
  -25.3515  -12.1796   21.7874 C   0  0  0  0  0  0  0  0  0  0  0  0
  -24.9209  -13.5250   19.8274 C   0  0  0  0  0  0  0  0  0  0  0  0
  -28.0216  -28.7123   20.9511 C   0  0  0  0  0  0  0  0  0  0  0  0
  -23.4778   -9.9267   20.1002 C   0  0  0  0  0  0  0  0  0  0  0  0
  -23.2408   -8.5657   20.2926 C   0  0  0  0  0  0  0  0  0  0  0  0
  -26.1254  -27.6298   19.9256 C   0  0  0  0  0  0  0  0  0  0  0  0
  -21.9374   -9.0712   22.2630 C   0  0  0  0  0  0  0  0  0  0  0  0
  -29.6178  -25.2707   17.2054 C   0  0  0  0  0  0  0  0  0  0  0  0
  -27.1243  -13.5042   20.8182 C   0  0  0  0  0  0  0  0  0  0  0  0
  -29.5881  -13.3553   20.1736 C   0  0  0  0  0  0  0  0  0  0  0  0
  -22.2993  -30.2579   27.7718 C   0  0  0  0  0  0  0  0  0  0  0  0
  -25.7806  -29.5584   21.3474 C   0  0  0  0  0  0  0  0  0  0  0  0
  -23.2298  -29.6902   26.8805 C   0  0  0  0  0  0  0  0  0  0  0  0
  -25.2547  -28.5563   20.5195 C   0  0  0  0  0  0  0  0  0  0  0  0
  -24.4735  -12.6350   20.8038 C   0  0  0  0  0  0  0  0  0  0  0  0
  -27.5010  -27.7068   20.1418 C   0  0  0  0  0  0  0  0  0  0  0  0
  -22.9447  -10.8600   20.9892 C   0  0  0  0  0  0  0  0  0  0  0  0
  -22.4706   -8.1379   21.3740 C   0  0  0  0  0  0  0  0  0  0  0  0
  -22.1745  -10.4323   22.0706 C   0  0  0  0  0  0  0  0  0  0  0  0
  -28.4932  -13.9539   20.8253 C   0  0  0  0  0  0  0  0  0  0  0  0
  -29.8224  -22.8419   18.2946 C   0  0  0  0  0  0  0  0  0  0  0  0
  -28.7782  -24.8752   18.2233 C   0  0  0  0  0  0  0  0  0  0  0  0
  -30.6615  -23.2372   17.2762 C   0  0  0  0  0  0  0  0  0  0  0  0
  -30.6566  -14.1586   20.4893 C   0  0  0  0  0  0  0  0  0  0  0  0
  -29.6351  -12.1785   19.3560 C   0  0  0  0  0  0  0  0  0  0  0  0
  -23.2626  -29.1017   23.2328 C   0  0  0  0  0  0  0  0  0  0  0  0
  -21.6050  -29.6998   20.5094 C   0  0  0  0  0  0  0  0  0  0  0  0
  -21.5511  -29.7264   17.0972 C   0  0  0  0  0  0  0  0  0  0  0  0
  -31.0666  -19.9073   22.0966 C   0  0  0  0  0  0  0  0  0  0  0  0
  -20.8151  -30.0427   27.6125 C   0  0  0  0  0  0  0  0  0  0  0  0
  -24.8737  -30.5797   21.9774 C   0  0  0  0  0  0  0  0  0  0  0  0
  -23.7765  -28.4406   20.2554 C   0  0  0  0  0  0  0  0  0  0  0  0
  -20.4152  -29.5626   26.2197 C   0  0  0  0  0  0  0  0  0  0  0  0
  -32.2759  -17.1017   23.8713 C   0  0  0  0  0  0  0  0  0  0  0  0
  -21.3300  -28.4310   25.7621 C   0  0  0  0  0  0  0  0  0  0  0  0
  -31.5266  -15.9197   23.2623 C   0  0  0  0  0  0  0  0  0  0  0  0
  -28.6459  -20.8736   19.5158 C   0  0  0  0  0  0  0  0  0  0  0  0
  -31.3722  -18.3236   23.9671 C   0  0  0  0  0  0  0  0  0  0  0  0
  -29.1660  -19.7379   20.3868 C   0  0  0  0  0  0  0  0  0  0  0  0
  -30.8846  -21.3863   20.1189 C   0  0  0  0  0  0  0  0  0  0  0  0
  -30.0566  -17.5762   22.0022 C   0  0  0  0  0  0  0  0  0  0  0  0
  -22.7859  -28.9028   25.6668 C   0  0  1  0  0  0  0  0  0  0  0  0
  -29.9316  -21.4679   18.9181 C   0  0  2  0  0  0  0  0  0  0  0  0
  -23.4342  -30.0945   22.1181 C   0  0  1  0  0  0  0  0  0  0  0  0
  -30.9229  -16.3036   21.9025 C   0  0  2  0  0  0  0  0  0  0  0  0
  -31.7159  -22.3295   16.7413 C   0  0  0  0  0  0  0  0  0  0  0  0
  -20.0435  -30.2276   15.1547 C   0  0  0  0  0  0  0  0  0  0  0  0
  -20.1341  -27.0674   20.9750 C   0  0  0  0  0  0  0  0  0  0  0  0
  -19.3699  -27.1535   18.5924 C   0  0  0  0  0  0  0  0  0  0  0  0
  -18.6850  -28.9467   20.1856 C   0  0  0  0  0  0  0  0  0  0  0  0
  -23.3468  -31.8592   16.1044 C   0  0  0  0  0  0  0  0  0  0  0  0
  -27.7318  -25.7987   18.7411 C   0  0  0  0  0  0  0  0  0  1  0  0
  -21.0773  -28.8585   19.3724 C   0  0  1  0  0  0  0  0  0  0  0  0
  -21.0940  -30.7806   16.1052 C   0  0  2  0  0  0  0  0  0  0  0  0
  -19.8443  -28.0073   19.7877 C   0  0  0  0  0  0  0  0  0  0  0  0
  -30.5745  -24.4588   16.7135 N   0  0  0  0  0  0  0  0  0  0  0  0
  -28.8347  -15.0526   21.5039 N   0  0  0  0  0  0  0  0  0  0  0  0
  -28.8654  -23.6537   18.7862 N   0  0  0  0  0  0  0  0  0  0  0  0
  -30.1563  -15.1506   21.2803 N   0  0  0  0  0  0  0  0  0  0  0  0
  -22.9302  -29.4590   20.8990 N   0  0  0  0  0  0  0  0  0  0  0  0
  -30.7795  -18.6648   22.6725 N   0  0  0  0  0  0  0  0  0  0  0  0
  -30.4512  -20.2227   20.8858 N   0  0  0  0  0  0  0  0  0  0  0  0
  -31.9659  -14.1060   20.1647 N   0  0  0  0  0  0  0  0  0  0  0  0
  -28.4454  -11.4718   19.1331 N   0  0  0  0  0  0  0  0  0  0  0  0
  -22.9889  -29.6752   24.4599 N   0  0  0  0  0  0  0  0  0  0  0  0
  -20.8244  -29.7774   18.2679 N   0  0  0  0  0  0  0  0  0  0  0  0
  -22.2483  -31.2676   15.2981 N   0  3  0  0  0  0  0  0  0  0  0  0
  -30.7034  -11.7566   18.8518 O   0  0  0  0  0  0  0  0  0  0  0  0
  -23.3692  -27.9039   22.9968 O   0  0  0  0  0  0  0  0  0  0  0  0
  -20.8708  -30.5447   21.0279 O   0  0  0  0  0  0  0  0  0  0  0  0
  -22.4594  -28.9343   16.8562 O   0  0  0  0  0  0  0  0  0  0  0  0
  -31.8107  -20.7208   22.6608 O   0  0  0  0  0  0  0  0  0  0  0  0
  -23.1802  -12.2109   20.7964 O   0  0  0  0  0  0  0  0  0  0  0  0
  -28.3391  -26.7965   19.5542 O   0  0  0  0  0  0  0  0  0  1  0  0
  -22.2418   -6.8310   21.5577 F   0  0  0  0  0  0  0  0  0  0  0  0
  -21.6586  -11.3242   22.9274 F   0  0  0  0  0  0  0  0  0  0  0  0
  1  2  1  0  0  0  0
  1  5  2  0  0  0  0
  2  6  2  0  0  0  0
  3  8  2  0  0  0  0
  3 16  1  0  0  0  0
  4  9  1  0  0  0  0
  4 16  2  0  0  0  0
  5 18  1  0  0  0  0
  6 20  1  0  0  0  0
  7 10  2  0  0  0  0
  7 19  1  0  0  0  0
  8 22  1  0  0  0  0
  9 22  2  0  0  0  0
 10 23  1  0  0  0  0
 11 12  2  0  0  0  0
 11 24  1  0  0  0  0
 12 25  1  0  0  0  0
 13 21  1  0  0  0  0
 13 23  2  0  0  0  0
 14 25  2  0  0  0  0
 14 26  1  0  0  0  0
 15 29  1  0  0  0  0
 15 63  2  0  0  0  0
 16 27  1  0  0  0  0
 17 27  1  0  0  0  0
 17 31  2  0  0  0  0
 17 32  1  0  0  0  0
 18 20  2  0  0  0  0
 18 37  1  0  0  0  0
 19 21  2  0  0  0  0
 19 38  1  0  0  0  0
 20 49  1  0  0  0  0
 21 39  1  0  0  0  0
 22 80  1  0  0  0  0
 23 81  1  0  0  0  0
 24 26  2  0  0  0  0
 24 80  1  0  0  0  0
 25 82  1  0  0  0  0
 26 83  1  0  0  0  0
 27 64  2  0  0  0  0
 28 30  2  0  0  0  0
 28 50  1  0  0  0  0
 28 65  1  0  0  0  0
 29 59  1  0  0  0  0
 29 65  2  0  0  0  0
 30 53  1  0  0  0  0
 30 63  1  0  0  0  0
 31 66  1  0  0  0  0
 31 70  1  0  0  0  0
 32 71  1  0  0  0  0
 32 75  2  0  0  0  0
 33 51  1  0  0  0  0
 33 72  1  0  0  0  0
 33 76  2  0  0  0  0
 34 60  1  0  0  0  0
 34 67  1  0  0  0  0
 34 77  2  0  0  0  0
 35 61  1  0  0  0  0
 35 73  1  0  0  0  0
 35 78  2  0  0  0  0
 36 68  1  0  0  0  0
 36 69  1  0  0  0  0
 36 79  2  0  0  0  0
 37 40  1  0  0  0  0
 38 51  1  0  0  0  0
 39 67  1  0  0  0  0
 40 42  1  0  0  0  0
 41 43  1  0  0  0  0
 41 45  1  0  0  0  0
 42 49  1  0  0  0  0
 43 52  1  0  0  0  0
 44 46  1  0  0  0  0
 44 50  1  0  0  0  0
 45 68  1  0  0  0  0
 46 69  1  0  0  0  0
 47 50  1  0  0  0  0
 47 69  1  0  0  0  0
 48 52  1  0  0  0  0
 48 68  1  0  0  0  0
 49 72  1  0  0  0  0
 51 67  1  0  0  0  0
 52 66  1  0  0  0  0
 54 61  1  0  0  0  0
 55 62  1  0  0  0  0
 56 62  1  0  0  0  0
 57 62  1  0  0  0  0
 58 74  1  0  0  0  0
 59 81  1  0  0  0  0
 60 62  1  0  0  0  0
 60 73  1  0  0  0  0
 61 74  1  0  0  0  0
 64 66  1  0  0  0  0
M  CHG  1  74   1
M  ISO  4  36 100  59 101  69 100  81 101
M  END
> <Batch ID>
0182

> <Smiles>
CNC(C)C(=O)NC(C(=O)N1Cc2cc([101O:1][101CH2:1]c3cnc(C)c(C4CC[100N:0]([100C:0](=O)N5CCCC(n6nc(-c7ccc(Oc8ccc(F)cc8F)cc7)c(C(N)=O)c6N)C5)C4)n3)ccc2CC1C(=O)NC1CCCc2ccccc21)C(C)(C)C

> <Shape>
0.292

> <Color>
0.095

> <Negative vol penalty>
0.000

$$$$

  -OEChem-04052323053D

 82 91  0     1  0  0  0  0  0999 V2000
  -16.8991  -29.0671   24.4211 C   0  0  0  0  0  0  0  0  0  0  0  0
  -17.3372  -27.9026   23.7988 C   0  0  0  0  0  0  0  0  0  0  0  0
  -24.3796   -9.1711   20.4579 C   0  0  0  0  0  0  0  0  0  0  0  0
  -22.8121  -10.9587   20.8870 C   0  0  0  0  0  0  0  0  0  0  0  0
  -17.4971  -30.2883   24.1127 C   0  0  0  0  0  0  0  0  0  0  0  0
  -18.3730  -27.9587   22.8669 C   0  0  0  0  0  0  0  0  0  0  0  0
  -22.6950  -23.7273   21.9072 C   0  0  0  0  0  0  0  0  0  0  0  0
  -23.5015   -8.2601   21.0450 C   0  0  0  0  0  0  0  0  0  0  0  0
  -21.9339  -10.0477   21.4740 C   0  0  0  0  0  0  0  0  0  0  0  0
  -22.8211  -22.7137   20.9582 C   0  0  0  0  0  0  0  0  0  0  0  0
  -22.6019   -7.3256   24.1662 C   0  0  0  0  0  0  0  0  0  0  0  0
  -23.1345   -6.3980   25.0614 C   0  0  0  0  0  0  0  0  0  0  0  0
  -24.1943  -24.1615   19.6029 C   0  0  0  0  0  0  0  0  0  0  0  0
  -22.3615   -4.5942   23.6522 C   0  0  0  0  0  0  0  0  0  0  0  0
  -23.8061  -20.9100   15.5903 C   0  0  0  0  0  0  0  0  0  0  0  0
  -24.9250  -19.1300   15.9223 C   0  0  0  0  0  0  0  0  0  0  0  0
  -24.0349  -10.5204   20.3789 C   0  0  0  0  0  0  0  0  0  0  0  0
  -24.9977  -11.8367   18.4172 C   0  0  0  0  0  0  0  0  0  0  0  0
  -18.5472  -30.3580   23.1837 C   0  0  0  0  0  0  0  0  0  0  0  0
  -23.3097  -24.9714   21.7056 C   0  0  0  0  0  0  0  0  0  0  0  0
  -18.9847  -29.1821   22.5448 C   0  0  0  0  0  0  0  0  0  0  0  0
  -24.0766  -25.1884   20.5519 C   0  0  0  0  0  0  0  0  0  0  0  0
  -22.2787   -8.6984   21.5530 C   0  0  0  0  0  0  0  0  0  0  0  0
  -23.5684  -22.9317   19.8045 C   0  0  0  0  0  0  0  0  0  0  0  0
  -21.9490   -6.8876   23.0140 C   0  0  0  0  0  0  0  0  0  0  0  0
  -23.0143   -5.0323   24.8044 C   0  0  0  0  0  0  0  0  0  0  0  0
  -21.8288   -5.5219   22.7570 C   0  0  0  0  0  0  0  0  0  0  0  0
  -24.9418  -11.4620   19.7731 C   0  0  0  0  0  0  0  0  0  0  0  0
  -24.4632  -21.1058   16.7821 C   0  0  0  0  0  0  0  0  0  0  0  0
  -26.0214  -12.7503   18.3554 C   0  0  0  0  0  0  0  0  0  0  0  0
  -24.1959  -11.3981   17.3125 C   0  0  0  0  0  0  0  0  0  0  0  0
  -22.2741  -27.9598   21.3878 C   0  0  0  0  0  0  0  0  0  0  0  0
  -25.4433  -28.6500   21.4341 C   0  0  0  0  0  0  0  0  0  0  0  0
  -28.6465  -27.5932   20.9145 C   0  0  0  0  0  0  0  0  0  0  0  0
  -28.8100  -17.0546   20.2550 C   0  0  0  0  0  0  0  0  0  0  0  0
  -19.1308  -31.7076   22.8477 C   0  0  0  0  0  0  0  0  0  0  0  0
  -23.1863  -26.0455   22.7514 C   0  0  0  0  0  0  0  0  0  0  0  0
  -24.7732  -26.4994   20.2977 C   0  0  0  0  0  0  0  0  0  0  0  0
  -20.4741  -31.6279   22.1270 C   0  0  0  0  0  0  0  0  0  0  0  0
  -29.5285  -14.0254   21.7600 C   0  0  0  0  0  0  0  0  0  0  0  0
  -20.4154  -30.6012   21.0004 C   0  0  0  0  0  0  0  0  0  0  0  0
  -28.4085  -13.1052   21.2744 C   0  0  0  0  0  0  0  0  0  0  0  0
  -27.5423  -19.4301   17.7172 C   0  0  0  0  0  0  0  0  0  0  0  0
  -25.5800  -18.4290   18.9614 C   0  0  0  0  0  0  0  0  0  0  0  0
  -28.9893  -15.4106   22.0989 C   0  0  0  0  0  0  0  0  0  0  0  0
  -28.4401  -19.0865   18.9034 C   0  0  0  0  0  0  0  0  0  0  0  0
  -26.5210  -18.1103   20.1196 C   0  0  0  0  0  0  0  0  0  0  0  0
  -27.1415  -15.1594   20.4749 C   0  0  0  0  0  0  0  0  0  0  0  0
  -20.1223  -29.1987   21.5469 C   0  0  1  0  0  0  0  0  0  0  0  0
  -23.4295  -27.4470   22.2001 C   0  0  1  0  0  0  0  0  0  0  0  0
  -27.6352  -13.7457   20.1081 C   0  0  2  0  0  0  0  0  0  0  0  0
  -26.0827  -19.6401   18.1559 C   0  0  0  0  0  0  0  0  0  0  0  0
  -31.0232  -28.3940   20.9993 C   0  0  0  0  0  0  0  0  0  0  0  0
  -25.0247  -30.1621   18.8171 C   0  0  0  0  0  0  0  0  0  0  0  0
  -27.5040  -30.1121   18.4725 C   0  0  0  0  0  0  0  0  0  0  0  0
  -26.5445  -31.2977   20.4465 C   0  0  0  0  0  0  0  0  0  0  0  0
  -29.3676  -25.5970   22.9771 C   0  0  0  0  0  0  0  0  0  0  0  0
  -24.4766  -22.2440   17.7169 C   0  0  0  0  0  0  0  0  0  1  0  0
  -26.5267  -28.7702   20.3896 C   0  0  1  0  0  0  0  0  0  0  0  0
  -29.8980  -27.7155   21.7650 C   0  0  2  0  0  0  0  0  0  0  0  0
  -26.3853  -30.0614   19.5350 C   0  0  0  0  0  0  0  0  0  0  0  0
  -24.0976  -19.6780   15.0603 N   0  0  0  0  0  0  0  0  0  0  0  0
  -25.8573  -12.0865   20.5187 N   0  0  0  0  0  0  0  0  0  0  0  0
  -25.1755  -19.9569   16.9818 N   0  0  0  0  0  0  0  0  0  0  0  0
  -26.4981  -12.8627   19.6283 N   0  0  0  0  0  0  0  0  0  0  0  0
  -24.6173  -27.5205   21.3468 N   0  0  0  0  0  0  0  0  0  0  0  0
  -28.2557  -15.9817   20.9695 N   0  0  0  0  0  0  0  0  0  0  0  0
  -27.9093  -17.9559   19.6640 N   0  0  0  0  0  0  0  0  0  0  0  0
  -26.5513  -13.4604   17.3369 N   0  0  0  0  0  0  0  0  0  0  0  0
  -23.1871  -10.4551   17.5519 N   0  0  0  0  0  0  0  0  0  0  0  0
  -21.3157  -28.6237   22.1295 N   0  0  0  0  0  0  0  0  0  0  0  0
  -27.7949  -28.6613   21.1024 N   0  0  0  0  0  0  0  0  0  0  0  0
  -30.3671  -26.3674   22.1932 N   0  3  0  0  0  0  0  0  0  0  0  0
  -24.3796  -11.8175   16.1446 O   0  0  0  0  0  0  0  0  0  0  0  0
  -22.2544  -27.7687   20.1775 O   0  0  0  0  0  0  0  0  0  0  0  0
  -25.3386  -29.5224   22.2998 O   0  0  0  0  0  0  0  0  0  0  0  0
  -28.4462  -26.6468   20.1564 O   0  0  0  0  0  0  0  0  0  0  0  0
  -30.0341  -17.1976   20.1453 O   0  0  0  0  0  0  0  0  0  0  0  0
  -21.4215   -7.8098   22.1258 O   0  0  0  0  0  0  0  0  0  0  0  0
  -23.6930  -21.9394   18.8719 O   0  0  0  0  0  0  0  0  0  1  0  0
  -23.5272   -4.1417   25.6634 F   0  0  0  0  0  0  0  0  0  0  0  0
  -21.2037   -5.0950   21.6512 F   0  0  0  0  0  0  0  0  0  0  0  0
  1  2  1  0  0  0  0
  1  5  2  0  0  0  0
  2  6  2  0  0  0  0
  3  8  2  0  0  0  0
  3 17  1  0  0  0  0
  4  9  1  0  0  0  0
  4 17  2  0  0  0  0
  5 19  1  0  0  0  0
  6 21  1  0  0  0  0
  7 10  2  0  0  0  0
  7 20  1  0  0  0  0
  8 23  1  0  0  0  0
  9 23  2  0  0  0  0
 10 24  1  0  0  0  0
 11 12  2  0  0  0  0
 11 25  1  0  0  0  0
 12 26  1  0  0  0  0
 13 22  1  0  0  0  0
 13 24  2  0  0  0  0
 14 26  2  0  0  0  0
 14 27  1  0  0  0  0
 15 29  2  0  0  0  0
 15 62  1  0  0  0  0
 16 62  2  0  0  0  0
 16 64  1  0  0  0  0
 17 28  1  0  0  0  0
 18 28  1  0  0  0  0
 18 30  2  0  0  0  0
 18 31  1  0  0  0  0
 19 21  2  0  0  0  0
 19 36  1  0  0  0  0
 20 22  2  0  0  0  0
 20 37  1  0  0  0  0
 21 49  1  0  0  0  0
 22 38  1  0  0  0  0
 23 79  1  0  0  0  0
 24 80  1  0  0  0  0
 25 27  2  0  0  0  0
 25 79  1  0  0  0  0
 26 81  1  0  0  0  0
 27 82  1  0  0  0  0
 28 63  2  0  0  0  0
 29 58  1  0  0  0  0
 29 64  1  0  0  0  0
 30 65  1  0  0  0  0
 30 69  1  0  0  0  0
 31 70  1  0  0  0  0
 31 74  2  0  0  0  0
 32 50  1  0  0  0  0
 32 71  1  0  0  0  0
 32 75  2  0  0  0  0
 33 59  1  0  0  0  0
 33 66  1  0  0  0  0
 33 76  2  0  0  0  0
 34 60  1  0  0  0  0
 34 72  1  0  0  0  0
 34 77  2  0  0  0  0
 35 67  1  0  0  0  0
 35 68  1  0  0  0  0
 35 78  2  0  0  0  0
 36 39  1  0  0  0  0
 37 50  1  0  0  0  0
 38 66  1  0  0  0  0
 39 41  1  0  0  0  0
 40 42  1  0  0  0  0
 40 45  1  0  0  0  0
 41 49  1  0  0  0  0
 42 51  1  0  0  0  0
 43 46  1  0  0  0  0
 43 52  1  0  0  0  0
 44 47  1  0  0  0  0
 44 52  1  0  0  0  0
 45 67  1  0  0  0  0
 46 68  1  0  0  0  0
 47 68  1  0  0  0  0
 48 51  1  0  0  0  0
 48 67  1  0  0  0  0
 49 71  1  0  0  0  0
 50 66  1  0  0  0  0
 51 65  1  0  0  0  0
 52 64  1  0  0  0  0
 53 60  1  0  0  0  0
 54 61  1  0  0  0  0
 55 61  1  0  0  0  0
 56 61  1  0  0  0  0
 57 73  1  0  0  0  0
 58 80  1  0  0  0  0
 59 61  1  0  0  0  0
 59 72  1  0  0  0  0
 60 73  1  0  0  0  0
 63 65  1  0  0  0  0
M  CHG  1  73   1
M  ISO  4  35 100  58 101  68 100  80 101
M  END
> <Batch ID>
0182

> <Smiles>
CNC(C)C(=O)NC(C(=O)N1Cc2cc([101O:1][101CH2:1]c3cncn3C3CC[100N:0]([100C:0](=O)N4CCCC(n5nc(-c6ccc(Oc7ccc(F)cc7F)cc6)c(C(N)=O)c5N)C4)CC3)ccc2CC1C(=O)NC1CCCc2ccccc21)C(C)(C)C

> <Shape>
0.239

> <Color>
0.107

> <Negative vol penalty>
0.000

$$$$

  -OEChem-04052323053D

 85 94  0     1  0  0  0  0  0999 V2000
  -31.6316  -35.2797   20.3515 C   0  0  0  0  0  0  0  0  0  0  0  0
  -31.2807  -33.9804   19.9994 C   0  0  0  0  0  0  0  0  0  0  0  0
  -22.9959  -10.1614   21.0164 C   0  0  0  0  0  0  0  0  0  0  0  0
  -24.6649   -8.7425   22.0353 C   0  0  0  0  0  0  0  0  0  0  0  0
  -31.1151  -35.8492   21.5147 C   0  0  0  0  0  0  0  0  0  0  0  0
  -30.4138  -33.2493   20.8109 C   0  0  0  0  0  0  0  0  0  0  0  0
  -26.2319  -29.1632   18.9884 C   0  0  0  0  0  0  0  0  0  0  0  0
  -22.1304   -9.0721   20.9170 C   0  0  0  0  0  0  0  0  0  0  0  0
  -23.7994   -7.6531   21.9359 C   0  0  0  0  0  0  0  0  0  0  0  0
  -26.2453  -27.7704   18.9285 C   0  0  0  0  0  0  0  0  0  0  0  0
  -21.8944   -4.5756   22.2798 C   0  0  0  0  0  0  0  0  0  0  0  0
  -21.7715   -3.7406   23.3903 C   0  0  0  0  0  0  0  0  0  0  0  0
  -25.1410  -27.6735   21.0710 C   0  0  0  0  0  0  0  0  0  0  0  0
  -20.9912   -5.6089   24.7086 C   0  0  0  0  0  0  0  0  0  0  0  0
  -24.2632   -9.9966   21.5755 C   0  0  0  0  0  0  0  0  0  0  0  0
  -25.2693  -12.0239   22.7527 C   0  0  0  0  0  0  0  0  0  0  0  0
  -30.2338  -35.1282   22.3357 C   0  0  0  0  0  0  0  0  0  0  0  0
  -25.6818  -29.8227   20.0970 C   0  0  0  0  0  0  0  0  0  0  0  0
  -29.8860  -33.8092   21.9868 C   0  0  0  0  0  0  0  0  0  0  0  0
  -25.1195  -29.0749   21.1414 C   0  0  0  0  0  0  0  0  0  0  0  0
  -22.5321   -7.8180   21.3767 C   0  0  0  0  0  0  0  0  0  0  0  0
  -25.7024  -27.0253   19.9712 C   0  0  0  0  0  0  0  0  0  0  0  0
  -21.5659   -5.9273   22.3837 C   0  0  0  0  0  0  0  0  0  0  0  0
  -21.3198   -4.2573   24.6047 C   0  0  0  0  0  0  0  0  0  0  0  0
  -21.1143   -6.4439   23.5981 C   0  0  0  0  0  0  0  0  0  0  0  0
  -25.1578  -11.1214   21.6780 C   0  0  0  0  0  0  0  0  0  0  0  0
  -25.6044  -21.5740   18.5256 C   0  0  0  0  0  0  0  0  0  0  0  0
  -26.2528  -12.9004   22.3645 C   0  0  0  0  0  0  0  0  0  0  0  0
  -26.6094  -21.5362   19.4633 C   0  0  0  0  0  0  0  0  0  0  0  0
  -26.1848  -23.6007   18.8196 C   0  0  0  0  0  0  0  0  0  0  0  0
  -24.5483  -12.0659   23.9913 C   0  0  0  0  0  0  0  0  0  0  0  0
  -26.8103  -31.7896   22.3244 C   0  0  0  0  0  0  0  0  0  0  0  0
  -23.6899  -31.9692   23.1926 C   0  0  0  0  0  0  0  0  0  0  0  0
  -20.5973  -30.5263   23.2008 C   0  0  0  0  0  0  0  0  0  0  0  0
  -28.3101  -16.1867   18.2602 C   0  0  0  0  0  0  0  0  0  0  0  0
  -29.7384  -35.7691   23.6079 C   0  0  0  0  0  0  0  0  0  0  0  0
  -25.6510  -31.3260   20.1342 C   0  0  0  0  0  0  0  0  0  0  0  0
  -24.4985  -29.7349   22.3444 C   0  0  0  0  0  0  0  0  0  0  0  0
  -28.5310  -35.0607   24.2167 C   0  0  0  0  0  0  0  0  0  0  0  0
  -29.5013  -12.7227   18.4938 C   0  0  0  0  0  0  0  0  0  0  0  0
  -28.7556  -33.5522   24.2456 C   0  0  0  0  0  0  0  0  0  0  0  0
  -28.4549  -12.0647   19.3943 C   0  0  0  0  0  0  0  0  0  0  0  0
  -27.3766  -18.2574   21.1511 C   0  0  0  0  0  0  0  0  0  0  0  0
  -28.9107  -13.8663   17.6723 C   0  0  0  0  0  0  0  0  0  0  0  0
  -27.3639  -16.8575   20.5461 C   0  0  0  0  0  0  0  0  0  0  0  0
  -27.1514  -14.2232   19.3608 C   0  0  0  0  0  0  0  0  0  0  0  0
  -27.5495  -18.4849   18.7905 C   0  0  0  0  0  0  0  0  0  0  0  0
  -28.9289  -32.9930   22.8282 C   0  0  1  0  0  0  0  0  0  0  0  0
  -25.5276  -31.8864   21.5477 C   0  0  1  0  0  0  0  0  0  0  0  0
  -27.7233  -13.1130   20.2532 C   0  0  1  0  0  0  0  0  0  0  0  0
  -26.8662  -19.1123   19.9962 C   0  0  2  0  0  0  0  0  0  0  0  0
  -23.4329  -20.3209   18.5454 C   0  0  0  0  0  0  0  0  0  0  0  0
  -18.2542  -30.8939   24.0206 C   0  0  0  0  0  0  0  0  0  0  0  0
  -24.5617  -31.2115   26.0167 C   0  0  0  0  0  0  0  0  0  0  0  0
  -22.1726  -30.6708   26.5342 C   0  0  0  0  0  0  0  0  0  0  0  0
  -22.8153  -32.9984   25.9081 C   0  0  0  0  0  0  0  0  0  0  0  0
  -27.9963  -23.3373   20.5330 C   0  0  0  0  0  0  0  0  0  0  0  0
  -19.5097  -30.5215   20.4483 C   0  0  0  0  0  0  0  0  0  0  0  0
  -24.8419  -20.4524   17.9534 C   0  0  0  0  0  0  0  0  0  0  0  0
  -26.3024  -25.0719   18.7545 C   0  0  0  0  0  0  0  0  0  1  0  0
  -22.7959  -31.1980   24.1332 C   0  0  1  0  0  0  0  0  0  0  0  0
  -19.2253  -31.0827   22.8655 C   0  0  2  0  0  0  0  0  0  0  0  0
  -23.0997  -31.5069   25.6264 C   0  0  0  0  0  0  0  0  0  0  0  0
  -26.0030  -11.3992   20.6817 N   0  0  0  0  0  0  0  0  0  0  0  0
  -25.3451  -22.8620   18.1288 N   0  0  0  0  0  0  0  0  0  0  0  0
  -26.9713  -22.8418   19.6410 N   0  0  0  0  0  0  0  0  0  0  0  0
  -26.6548  -12.4861   21.1288 N   0  0  0  0  0  0  0  0  0  0  0  0
  -24.4982  -31.2072   22.3371 N   0  0  0  0  0  0  0  0  0  0  0  0
  -28.2039  -14.8179   18.5300 N   0  0  0  0  0  0  0  0  0  0  0  0
  -27.6674  -17.0684   19.1283 N   0  0  0  0  0  0  0  0  0  0  0  0
  -26.8043  -13.9776   22.9629 N   0  0  0  0  0  0  0  0  0  0  0  0
  -23.5716  -11.0893   24.2294 N   0  0  0  0  0  0  0  0  0  0  0  0
  -27.2194  -20.4983   20.1547 N   0  0  0  0  0  0  0  0  0  0  0  0
  -27.6454  -32.8795   22.1693 N   0  0  0  0  0  0  0  0  0  0  0  0
  -21.4258  -31.4939   23.7286 N   0  0  0  0  0  0  0  0  0  0  0  0
  -18.6673  -30.3971   21.6656 N   0  3  0  0  0  0  0  0  0  0  0  0
  -24.7523  -12.9533   24.8542 O   0  0  0  0  0  0  0  0  0  0  0  0
  -27.0255  -30.8002   23.0145 O   0  0  0  0  0  0  0  0  0  0  0  0
  -23.6667  -33.2024   23.2110 O   0  0  0  0  0  0  0  0  0  0  0  0
  -20.9023  -29.3500   23.0166 O   0  0  0  0  0  0  0  0  0  0  0  0
  -28.9884  -16.6057   17.3129 O   0  0  0  0  0  0  0  0  0  0  0  0
  -21.6878   -6.7548   21.2801 O   0  0  0  0  0  0  0  0  0  0  0  0
  -25.7149  -25.6584   19.9152 O   0  0  0  0  0  0  0  0  0  1  0  0
  -21.2003   -3.4550   25.6707 F   0  0  0  0  0  0  0  0  0  0  0  0
  -20.7960   -7.7414   23.7037 F   0  0  0  0  0  0  0  0  0  0  0  0
  1  2  1  0  0  0  0
  1  5  2  0  0  0  0
  2  6  2  0  0  0  0
  3  8  2  0  0  0  0
  3 15  1  0  0  0  0
  4  9  1  0  0  0  0
  4 15  2  0  0  0  0
  5 17  1  0  0  0  0
  6 19  1  0  0  0  0
  7 10  2  0  0  0  0
  7 18  1  0  0  0  0
  8 21  1  0  0  0  0
  9 21  2  0  0  0  0
 10 22  1  0  0  0  0
 11 12  2  0  0  0  0
 11 23  1  0  0  0  0
 12 24  1  0  0  0  0
 13 20  1  0  0  0  0
 13 22  2  0  0  0  0
 14 24  2  0  0  0  0
 14 25  1  0  0  0  0
 15 26  1  0  0  0  0
 16 26  1  0  0  0  0
 16 28  2  0  0  0  0
 16 31  1  0  0  0  0
 17 19  2  0  0  0  0
 17 36  1  0  0  0  0
 18 20  2  0  0  0  0
 18 37  1  0  0  0  0
 19 48  1  0  0  0  0
 20 38  1  0  0  0  0
 21 82  1  0  0  0  0
 22 83  1  0  0  0  0
 23 25  2  0  0  0  0
 23 82  1  0  0  0  0
 24 84  1  0  0  0  0
 25 85  1  0  0  0  0
 26 64  2  0  0  0  0
 27 29  2  0  0  0  0
 27 59  1  0  0  0  0
 27 65  1  0  0  0  0
 28 67  1  0  0  0  0
 28 71  1  0  0  0  0
 29 66  1  0  0  0  0
 29 73  1  0  0  0  0
 30 60  1  0  0  0  0
 30 65  2  0  0  0  0
 30 66  1  0  0  0  0
 31 72  1  0  0  0  0
 31 77  2  0  0  0  0
 32 49  1  0  0  0  0
 32 74  1  0  0  0  0
 32 78  2  0  0  0  0
 33 61  1  0  0  0  0
 33 68  1  0  0  0  0
 33 79  2  0  0  0  0
 34 62  1  0  0  0  0
 34 75  1  0  0  0  0
 34 80  2  0  0  0  0
 35 69  1  0  0  0  0
 35 70  1  0  0  0  0
 35 81  2  0  0  0  0
 36 39  1  0  0  0  0
 37 49  1  0  0  0  0
 38 68  1  0  0  0  0
 39 41  1  0  0  0  0
 40 42  1  0  0  0  0
 40 44  1  0  0  0  0
 41 48  1  0  0  0  0
 42 50  1  0  0  0  0
 43 45  1  0  0  0  0
 43 51  1  0  0  0  0
 44 69  1  0  0  0  0
 45 70  1  0  0  0  0
 46 50  1  0  0  0  0
 46 69  1  0  0  0  0
 47 51  1  0  0  0  0
 47 70  1  0  0  0  0
 48 74  1  0  0  0  0
 49 68  1  0  0  0  0
 50 67  1  0  0  0  0
 51 73  1  0  0  0  0
 52 59  1  0  0  0  0
 53 62  1  0  0  0  0
 54 63  1  0  0  0  0
 55 63  1  0  0  0  0
 56 63  1  0  0  0  0
 57 66  1  0  0  0  0
 58 76  1  0  0  0  0
 60 83  1  0  0  0  0
 61 63  1  0  0  0  0
 61 75  1  0  0  0  0
 62 76  1  0  0  0  0
 64 67  1  0  0  0  0
M  CHG  1  76   1
M  ISO  4  35 100  60 101  70 100  83 101
M  END
> <Batch ID>
0182

> <Smiles>
CCc1nc([101CH2:1][101O:1]c2ccc3c(c2)CN(C(=O)C(NC(=O)C(C)NC)C(C)(C)C)C(C(=O)NC2CCCc4ccccc42)C3)n(C)c1NC1CC[100N:0]([100C:0](=O)N2CCCC(n3nc(-c4ccc(Oc5ccc(F)cc5F)cc4)c(C(N)=O)c3N)C2)C1

> <Shape>
0.262

> <Color>
0.110

> <Negative vol penalty>
0.000

$$$$

  -OEChem-04052323053D

 79 87  0     1  0  0  0  0  0999 V2000
  -28.5825  -37.1320   20.3951 C   0  0  0  0  0  0  0  0  0  0  0  0
  -28.9523  -35.7990   20.2476 C   0  0  0  0  0  0  0  0  0  0  0  0
  -26.9383  -12.4039   21.8728 C   0  0  0  0  0  0  0  0  0  0  0  0
  -26.0202  -14.2398   20.5986 C   0  0  0  0  0  0  0  0  0  0  0  0
  -27.5662  -37.4780   21.2847 C   0  0  0  0  0  0  0  0  0  0  0  0
  -28.3066  -34.8112   20.9906 C   0  0  0  0  0  0  0  0  0  0  0  0
  -27.0415  -29.0933   19.1988 C   0  0  0  0  0  0  0  0  0  0  0  0
  -25.6614  -11.8593   22.0083 C   0  0  0  0  0  0  0  0  0  0  0  0
  -24.7432  -13.6952   20.7341 C   0  0  0  0  0  0  0  0  0  0  0  0
  -27.6817  -27.8758   19.4260 C   0  0  0  0  0  0  0  0  0  0  0  0
  -22.6916   -9.7964   22.3822 C   0  0  0  0  0  0  0  0  0  0  0  0
  -22.5453   -8.4255   22.1702 C   0  0  0  0  0  0  0  0  0  0  0  0
  -26.1826  -27.4374   21.2644 C   0  0  0  0  0  0  0  0  0  0  0  0
  -23.3605   -8.6878   19.9111 C   0  0  0  0  0  0  0  0  0  0  0  0
  -27.1178  -13.5941   21.1680 C   0  0  0  0  0  0  0  0  0  0  0  0
  -29.3633  -13.9066   19.9985 C   0  0  0  0  0  0  0  0  0  0  0  0
  -26.9012  -36.4930   22.0317 C   0  0  0  0  0  0  0  0  0  0  0  0
  -25.9722  -29.4976   20.0110 C   0  0  0  0  0  0  0  0  0  0  0  0
  -27.2814  -35.1445   21.8920 C   0  0  0  0  0  0  0  0  0  0  0  0
  -25.5289  -28.6593   21.0438 C   0  0  0  0  0  0  0  0  0  0  0  0
  -24.5638  -12.5049   21.4390 C   0  0  0  0  0  0  0  0  0  0  0  0
  -27.2542  -27.0490   20.4607 C   0  0  0  0  0  0  0  0  0  0  0  0
  -23.1722  -10.6130   21.3586 C   0  0  0  0  0  0  0  0  0  0  0  0
  -22.8798   -7.8712   20.9347 C   0  0  0  0  0  0  0  0  0  0  0  0
  -23.5067  -10.0587   20.1230 C   0  0  0  0  0  0  0  0  0  0  0  0
  -28.4366  -14.1575   21.0281 C   0  0  0  0  0  0  0  0  0  0  0  0
  -30.4531  -14.6774   20.3222 C   0  0  0  0  0  0  0  0  0  0  0  0
  -29.2492  -13.0532   18.8520 C   0  0  0  0  0  0  0  0  0  0  0  0
  -25.4487  -31.9373   21.9801 C   0  0  0  0  0  0  0  0  0  0  0  0
  -22.4633  -30.6764   22.1218 C   0  0  0  0  0  0  0  0  0  0  0  0
  -20.4549  -27.9392   21.7747 C   0  0  0  0  0  0  0  0  0  0  0  0
  -31.0963  -19.6767   23.5538 C   0  0  0  0  0  0  0  0  0  0  0  0
  -25.8411  -36.9204   23.0157 C   0  0  0  0  0  0  0  0  0  0  0  0
  -25.2749  -30.8017   19.7360 C   0  0  0  0  0  0  0  0  0  0  0  0
  -24.3724  -29.0380   21.9314 C   0  0  0  0  0  0  0  0  0  0  0  0
  -24.9514  -35.7737   23.4889 C   0  0  0  0  0  0  0  0  0  0  0  0
  -32.7242  -16.5561   24.0909 C   0  0  0  0  0  0  0  0  0  0  0  0
  -25.7979  -34.5629   23.8686 C   0  0  0  0  0  0  0  0  0  0  0  0
  -31.8935  -15.5649   23.2740 C   0  0  0  0  0  0  0  0  0  0  0  0
  -31.2354  -22.0144   21.1844 C   0  0  0  0  0  0  0  0  0  0  0  0
  -31.8498  -17.6318   24.7315 C   0  0  0  0  0  0  0  0  0  0  0  0
  -30.1403  -17.3639   22.9767 C   0  0  0  0  0  0  0  0  0  0  0  0
  -30.7841  -23.4069   20.7822 C   0  0  0  0  0  0  0  0  0  0  0  0
  -26.5877  -34.0417   22.6619 C   0  0  1  0  0  0  0  0  0  0  0  0
  -24.5283  -31.3475   20.9492 C   0  0  1  0  0  0  0  0  0  0  0  0
  -30.9845  -16.2926   22.2653 C   0  0  2  0  0  0  0  0  0  0  0  0
  -30.2520  -21.6297   22.2763 C   0  0  1  0  0  0  0  0  0  0  0  0
  -28.9186  -22.1013   21.7039 C   0  0  1  0  0  0  0  0  0  0  0  0
  -27.8450  -22.3343   22.7533 C   0  0  0  0  0  0  0  0  0  0  0  0
  -18.0639  -27.2096   21.9946 C   0  0  0  0  0  0  0  0  0  0  0  0
  -22.7511  -30.6571   25.1594 C   0  0  0  0  0  0  0  0  0  0  0  0
  -20.8044  -29.0862   25.2641 C   0  0  0  0  0  0  0  0  0  0  0  0
  -20.5054  -31.3793   24.3288 C   0  0  0  0  0  0  0  0  0  0  0  0
  -20.2980  -27.1940   18.9148 C   0  0  0  0  0  0  0  0  0  0  0  0
  -28.4793  -23.7087   19.7957 C   0  0  0  0  0  0  0  0  0  0  0  0
  -28.4528  -25.2053   19.5553 C   0  0  0  0  0  0  0  0  0  1  0  0
  -21.7760  -29.6510   22.9908 C   0  0  1  0  0  0  0  0  0  0  0  0
  -19.1328  -27.7447   21.0545 C   0  0  2  0  0  0  0  0  0  0  0  0
  -21.4823  -30.1869   24.4205 C   0  0  0  0  0  0  0  0  0  0  0  0
  -28.8974  -15.0200   21.9378 N   0  0  0  0  0  0  0  0  0  0  0  0
  -30.1257  -15.3178   21.4810 N   0  0  0  0  0  0  0  0  0  0  0  0
  -23.7273  -30.3258   21.6266 N   0  0  0  0  0  0  0  0  0  0  0  0
  -31.0136  -18.2846   23.7213 N   0  0  0  0  0  0  0  0  0  0  0  0
  -31.6499  -14.8629   19.7258 N   0  0  0  0  0  0  0  0  0  0  0  0
  -28.0609  -12.3325   18.6712 N   0  0  0  0  0  0  0  0  0  0  0  0
  -25.7261  -33.2770   21.7860 N   0  0  0  0  0  0  0  0  0  0  0  0
  -20.5895  -29.2238   22.2573 N   0  0  0  0  0  0  0  0  0  0  0  0
  -30.2746  -20.2142   22.5707 N   0  0  0  0  0  0  0  0  0  0  0  0
  -29.2762  -23.4224   21.0153 N   0  3  2  0  0  0  0  0  0  0  0  0
  -19.2932  -26.7817   19.9285 N   0  3  0  0  0  0  0  0  0  0  0  0
  -30.1800  -12.9208   18.0215 O   0  0  0  0  0  0  0  0  0  0  0  0
  -25.8744  -31.2297   22.8856 O   0  0  0  0  0  0  0  0  0  0  0  0
  -21.8964  -31.7461   21.8852 O   0  0  0  0  0  0  0  0  0  0  0  0
  -21.2836  -27.0403   21.9002 O   0  0  0  0  0  0  0  0  0  0  0  0
  -31.8507  -20.3873   24.2268 O   0  0  0  0  0  0  0  0  0  0  0  0
  -23.3176  -11.9737   21.5708 O   0  0  0  0  0  0  0  0  0  0  0  0
  -27.8778  -25.8604   20.6851 O   0  0  0  0  0  0  0  0  0  1  0  0
  -22.7407   -6.5545   20.7318 F   0  0  0  0  0  0  0  0  0  0  0  0
  -23.9701  -10.8380   19.1362 F   0  0  0  0  0  0  0  0  0  0  0  0
  1  2  1  0  0  0  0
  1  5  2  0  0  0  0
  2  6  2  0  0  0  0
  3  8  2  0  0  0  0
  3 15  1  0  0  0  0
  4  9  1  0  0  0  0
  4 15  2  0  0  0  0
  5 17  1  0  0  0  0
  6 19  1  0  0  0  0
  7 10  2  0  0  0  0
  7 18  1  0  0  0  0
  8 21  1  0  0  0  0
  9 21  2  0  0  0  0
 10 22  1  0  0  0  0
 11 12  2  0  0  0  0
 11 23  1  0  0  0  0
 12 24  1  0  0  0  0
 13 20  1  0  0  0  0
 13 22  2  0  0  0  0
 14 24  2  0  0  0  0
 14 25  1  0  0  0  0
 15 26  1  0  0  0  0
 16 26  1  0  0  0  0
 16 27  2  0  0  0  0
 16 28  1  0  0  0  0
 17 19  2  0  0  0  0
 17 33  1  0  0  0  0
 18 20  2  0  0  0  0
 18 34  1  0  0  0  0
 19 44  1  0  0  0  0
 20 35  1  0  0  0  0
 21 76  1  0  0  0  0
 22 77  1  0  0  0  0
 23 25  2  0  0  0  0
 23 76  1  0  0  0  0
 24 78  1  0  0  0  0
 25 79  1  0  0  0  0
 26 60  2  0  0  0  0
 27 61  1  0  0  0  0
 27 64  1  0  0  0  0
 28 65  1  0  0  0  0
 28 71  2  0  0  0  0
 29 45  1  0  0  0  0
 29 66  1  0  0  0  0
 29 72  2  0  0  0  0
 30 57  1  0  0  0  0
 30 62  1  0  0  0  0
 30 73  2  0  0  0  0
 31 58  1  0  0  0  0
 31 67  1  0  0  0  0
 31 74  2  0  0  0  0
 32 63  1  0  0  0  0
 32 68  1  0  0  0  0
 32 75  2  0  0  0  0
 33 36  1  0  0  0  0
 34 45  1  0  0  0  0
 35 62  1  0  0  0  0
 36 38  1  0  0  0  0
 37 39  1  0  0  0  0
 37 41  1  0  0  0  0
 38 44  1  0  0  0  0
 39 46  1  0  0  0  0
 40 43  1  0  0  0  0
 40 47  1  0  0  0  0
 41 63  1  0  0  0  0
 42 46  1  0  0  0  0
 42 63  1  0  0  0  0
 43 69  1  0  0  0  0
 44 66  1  0  0  0  0
 45 62  1  0  0  0  0
 46 61  1  0  0  0  0
 47 48  1  0  0  0  0
 47 68  1  0  0  0  0
 48 49  1  0  0  0  0
 48 69  1  0  0  0  0
 50 58  1  0  0  0  0
 51 59  1  0  0  0  0
 52 59  1  0  0  0  0
 53 59  1  0  0  0  0
 54 70  1  0  0  0  0
 55 56  1  0  0  0  0
 55 69  1  0  0  0  0
 56 77  1  0  0  0  0
 57 59  1  0  0  0  0
 57 67  1  0  0  0  0
 58 70  1  0  0  0  0
 60 61  1  0  0  0  0
M  CHG  2  69   1  70   1
M  ISO  4  32 100  56 101  68 100  77 101
M  END
> <Batch ID>
0182

> <Smiles>
CNC(C)C(=O)NC(C(=O)N1Cc2cc([101O:1][101CH2:1]CN3CCC([100NH:0][100C:0](=O)N4CCCC(n5nc(-c6ccc(Oc7ccc(F)cc7F)cc6)c(C(N)=O)c5N)C4)C3C)ccc2CC1C(=O)NC1CCCc2ccccc21)C(C)(C)C

> <Shape>
0.316

> <Color>
0.090

> <Negative vol penalty>
0.000

$$$$

  -OEChem-04052323053D

 82 91  0     1  0  0  0  0  0999 V2000
  -22.5021  -11.1597   19.2170 C   0  0  0  0  0  0  0  0  0  0  0  0
  -22.0074  -12.4480   19.3925 C   0  0  0  0  0  0  0  0  0  0  0  0
  -31.3015  -28.2275   20.7632 C   0  0  0  0  0  0  0  0  0  0  0  0
  -30.0794  -26.7612   22.2442 C   0  0  0  0  0  0  0  0  0  0  0  0
  -23.7867  -10.8417   19.6558 C   0  0  0  0  0  0  0  0  0  0  0  0
  -22.7967  -13.4189   20.0080 C   0  0  0  0  0  0  0  0  0  0  0  0
  -22.9368  -19.4056   18.7253 C   0  0  0  0  0  0  0  0  0  0  0  0
  -32.4638  -28.0043   21.5012 C   0  0  0  0  0  0  0  0  0  0  0  0
  -31.2418  -26.5379   22.9823 C   0  0  0  0  0  0  0  0  0  0  0  0
  -22.3280  -20.5077   19.3241 C   0  0  0  0  0  0  0  0  0  0  0  0
  -33.9684  -25.2981   25.0430 C   0  0  0  0  0  0  0  0  0  0  0  0
  -34.2620  -23.9849   25.4105 C   0  0  0  0  0  0  0  0  0  0  0  0
  -24.3362  -20.9185   20.5959 C   0  0  0  0  0  0  0  0  0  0  0  0
  -34.3365  -23.3495   23.0808 C   0  0  0  0  0  0  0  0  0  0  0  0
  -20.4803  -25.1436   20.7146 C   0  0  0  0  0  0  0  0  0  0  0  0
  -30.1093  -27.6059   21.1347 C   0  0  0  0  0  0  0  0  0  0  0  0
  -28.6995  -27.5569   19.0092 C   0  0  0  0  0  0  0  0  0  0  0  0
  -24.5957  -11.8117   20.2683 C   0  0  0  0  0  0  0  0  0  0  0  0
  -24.2483  -19.0446   19.0660 C   0  0  0  0  0  0  0  0  0  0  0  0
  -24.0928  -13.1132   20.4566 C   0  0  0  0  0  0  0  0  0  0  0  0
  -24.9603  -19.8129   19.9982 C   0  0  0  0  0  0  0  0  0  0  0  0
  -32.4340  -27.1595   22.6108 C   0  0  0  0  0  0  0  0  0  0  0  0
  -23.0267  -21.2626   20.2617 C   0  0  0  0  0  0  0  0  0  0  0  0
  -33.8588  -25.6369   23.6943 C   0  0  0  0  0  0  0  0  0  0  0  0
  -34.4461  -23.0107   24.4294 C   0  0  0  0  0  0  0  0  0  0  0  0
  -34.0429  -24.6627   22.7132 C   0  0  0  0  0  0  0  0  0  0  0  0
  -28.9081  -27.8366   20.3730 C   0  0  0  0  0  0  0  0  0  0  0  0
  -20.6334  -23.8638   21.1854 C   0  0  0  0  0  0  0  0  0  0  0  0
  -27.4070  -27.9558   18.7707 C   0  0  0  0  0  0  0  0  0  0  0  0
  -29.5941  -26.9875   18.0442 C   0  0  0  0  0  0  0  0  0  0  0  0
  -25.6013  -16.4854   20.3788 C   0  0  0  0  0  0  0  0  0  0  0  0
  -28.3486  -18.0659   19.6886 C   0  0  0  0  0  0  0  0  0  0  0  0
  -29.9045  -21.0417   19.0799 C   0  0  0  0  0  0  0  0  0  0  0  0
  -22.7194  -28.4256   22.3166 C   0  0  0  0  0  0  0  0  0  0  0  0
  -25.9601  -11.4083   20.7687 C   0  0  0  0  0  0  0  0  0  0  0  0
  -24.9002  -17.8689   18.3913 C   0  0  0  0  0  0  0  0  0  0  0  0
  -26.3776  -19.4793   20.3835 C   0  0  0  0  0  0  0  0  0  0  0  0
  -26.8721  -12.5939   21.0737 C   0  0  0  0  0  0  0  0  0  0  0  0
  -24.1113  -31.0772   20.2864 C   0  0  0  0  0  0  0  0  0  0  0  0
  -26.1239  -13.6486   21.8827 C   0  0  0  0  0  0  0  0  0  0  0  0
  -25.4901  -30.5073   19.9488 C   0  0  0  0  0  0  0  0  0  0  0  0
  -18.3093  -27.8320   22.3549 C   0  0  0  0  0  0  0  0  0  0  0  0
  -23.7000  -30.7236   21.7129 C   0  0  0  0  0  0  0  0  0  0  0  0
  -25.0970  -28.6949   21.6797 C   0  0  0  0  0  0  0  0  0  0  0  0
  -24.9279  -14.2004   21.0975 C   0  0  1  0  0  0  0  0  0  0  0  0
  -26.0599  -17.2871   19.1937 C   0  0  1  0  0  0  0  0  0  0  0  0
  -25.5589  -28.9972   20.2427 C   0  0  2  0  0  0  0  0  0  0  0  0
  -19.6987  -27.3831   21.8138 C   0  0  1  0  0  0  0  0  0  0  0  0
  -20.3073  -28.2875   22.9306 C   0  0  2  0  0  0  0  0  0  0  0  0
  -18.9928  -29.1068   22.8943 C   0  0  2  0  0  0  0  0  0  0  0  0
  -31.7566  -22.6164   18.4574 C   0  0  0  0  0  0  0  0  0  0  0  0
  -29.1341  -17.7234   22.6170 C   0  0  0  0  0  0  0  0  0  0  0  0
  -30.8749  -19.4919   22.2846 C   0  0  0  0  0  0  0  0  0  0  0  0
  -30.9976  -17.3642   20.9882 C   0  0  0  0  0  0  0  0  0  0  0  0
  -29.2447  -20.8636   16.2003 C   0  0  0  0  0  0  0  0  0  0  0  0
  -21.0953  -22.6367   20.4559 C   0  0  0  0  0  0  0  0  0  1  0  0
  -29.2179  -19.0653   20.4129 C   0  0  1  0  0  0  0  0  0  0  0  0
  -30.8756  -21.4669   17.9934 C   0  0  2  0  0  0  0  0  0  0  0  0
  -30.0288  -18.4166   21.5701 C   0  0  0  0  0  0  0  0  0  0  0  0
  -27.8342  -28.3719   20.9598 N   0  0  0  0  0  0  0  0  0  0  0  0
  -20.2916  -23.8169   22.5085 N   0  0  0  0  0  0  0  0  0  0  0  0
  -19.9260  -25.0392   22.8792 N   0  0  0  0  0  0  0  0  0  0  0  0
  -20.0397  -25.8332   21.8021 N   0  0  0  0  0  0  0  0  0  0  0  0
  -26.9384  -28.4319   19.9598 N   0  0  0  0  0  0  0  0  0  0  0  0
  -26.9692  -18.3168   19.7008 N   0  0  0  0  0  0  0  0  0  0  0  0
  -23.7690  -29.2700   21.9211 N   0  0  0  0  0  0  0  0  0  0  0  0
  -26.6371  -27.9423   17.6619 N   0  0  0  0  0  0  0  0  0  0  0  0
  -29.6090  -25.5949   17.8871 N   0  0  0  0  0  0  0  0  0  0  0  0
  -25.3727  -15.1512   20.1011 N   0  0  0  0  0  0  0  0  0  0  0  0
  -30.0407  -19.7057   19.3924 N   0  0  0  0  0  0  0  0  0  0  0  0
  -21.4880  -29.0378   22.5246 N   0  0  0  0  0  0  0  0  0  0  0  0
  -30.1333  -21.9049   16.7776 N   0  3  0  0  0  0  0  0  0  0  0  0
  -30.3693  -27.6915   17.3536 O   0  0  0  0  0  0  0  0  0  0  0  0
  -25.4662  -17.0362   21.4651 O   0  0  0  0  0  0  0  0  0  0  0  0
  -28.8747  -17.1021   19.1265 O   0  0  0  0  0  0  0  0  0  0  0  0
  -29.1075  -21.8181   19.6020 O   0  0  0  0  0  0  0  0  0  0  0  0
  -22.8608  -27.2073   22.4700 O   0  0  0  0  0  0  0  0  0  0  0  0
  -18.5140  -29.5869   24.1620 O   0  0  0  0  0  0  0  0  0  0  0  0
  -33.5681  -26.9412   23.3310 O   0  0  0  0  0  0  0  0  0  0  0  0
  -22.4346  -22.3384   20.8482 O   0  0  0  0  0  0  0  0  0  1  0  0
  -34.7295  -21.7500   24.7825 F   0  0  0  0  0  0  0  0  0  0  0  0
  -33.9401  -24.9825   21.4159 F   0  0  0  0  0  0  0  0  0  0  0  0
  1  2  1  0  0  0  0
  1  5  2  0  0  0  0
  2  6  2  0  0  0  0
  3  8  2  0  0  0  0
  3 16  1  0  0  0  0
  4  9  1  0  0  0  0
  4 16  2  0  0  0  0
  5 18  1  0  0  0  0
  6 20  1  0  0  0  0
  7 10  2  0  0  0  0
  7 19  1  0  0  0  0
  8 22  1  0  0  0  0
  9 22  2  0  0  0  0
 10 23  1  0  0  0  0
 11 12  2  0  0  0  0
 11 24  1  0  0  0  0
 12 25  1  0  0  0  0
 13 21  1  0  0  0  0
 13 23  2  0  0  0  0
 14 25  2  0  0  0  0
 14 26  1  0  0  0  0
 15 28  2  0  0  0  0
 15 63  1  0  0  0  0
 16 27  1  0  0  0  0
 17 27  1  0  0  0  0
 17 29  2  0  0  0  0
 17 30  1  0  0  0  0
 18 20  2  0  0  0  0
 18 35  1  0  0  0  0
 19 21  2  0  0  0  0
 19 36  1  0  0  0  0
 20 45  1  0  0  0  0
 21 37  1  0  0  0  0
 22 79  1  0  0  0  0
 23 80  1  0  0  0  0
 24 26  2  0  0  0  0
 24 79  1  0  0  0  0
 25 81  1  0  0  0  0
 26 82  1  0  0  0  0
 27 60  2  0  0  0  0
 28 56  1  0  0  0  0
 28 61  1  0  0  0  0
 29 64  1  0  0  0  0
 29 67  1  0  0  0  0
 30 68  1  0  0  0  0
 30 73  2  0  0  0  0
 31 46  1  0  0  0  0
 31 69  1  0  0  0  0
 31 74  2  0  0  0  0
 32 57  1  0  0  0  0
 32 65  1  0  0  0  0
 32 75  2  0  0  0  0
 33 58  1  0  0  0  0
 33 70  1  0  0  0  0
 33 76  2  0  0  0  0
 34 66  1  0  0  0  0
 34 71  1  0  0  0  0
 34 77  2  0  0  0  0
 35 38  1  0  0  0  0
 36 46  1  0  0  0  0
 37 65  1  0  0  0  0
 38 40  1  0  0  0  0
 39 41  1  0  0  0  0
 39 43  1  0  0  0  0
 40 45  1  0  0  0  0
 41 47  1  0  0  0  0
 42 48  1  0  0  0  0
 42 50  1  0  0  0  0
 43 66  1  0  0  0  0
 44 47  1  0  0  0  0
 44 66  1  0  0  0  0
 45 69  1  0  0  0  0
 46 65  1  0  0  0  0
 47 64  1  0  0  0  0
 48 49  1  0  0  0  0
 48 63  1  0  0  0  0
 49 50  1  0  0  0  0
 49 71  1  0  0  0  0
 50 78  1  0  0  0  0
 51 58  1  0  0  0  0
 52 59  1  0  0  0  0
 53 59  1  0  0  0  0
 54 59  1  0  0  0  0
 55 72  1  0  0  0  0
 56 80  1  0  0  0  0
 57 59  1  0  0  0  0
 57 70  1  0  0  0  0
 58 72  1  0  0  0  0
 60 64  1  0  0  0  0
 61 62  2  0  0  0  0
 62 63  1  0  0  0  0
M  CHG  1  72   1
M  ISO  4  34 100  56 101  71 100  80 101
M  END
> <Batch ID>
0182

> <Smiles>
CNC(C)C(=O)NC(C(=O)N1Cc2cc([101O:1][101CH2:1]c3cn(C4CC(O)C4[100NH:0][100C:0](=O)N4CCCC(n5nc(-c6ccc(Oc7ccc(F)cc7F)cc6)c(C(N)=O)c5N)C4)nn3)ccc2CC1C(=O)NC1CCCc2ccccc21)C(C)(C)C

> <Shape>
0.238

> <Color>
0.087

> <Negative vol penalty>
0.000

$$$$

  -OEChem-04052323053D

 82 91  0     1  0  0  0  0  0999 V2000
  -20.6660  -34.9435   21.3560 C   0  0  0  0  0  0  0  0  0  0  0  0
  -21.8598  -34.3102   21.0254 C   0  0  0  0  0  0  0  0  0  0  0  0
  -23.4776  -12.7210   19.8325 C   0  0  0  0  0  0  0  0  0  0  0  0
  -24.9974  -12.2328   21.6461 C   0  0  0  0  0  0  0  0  0  0  0  0
  -19.8321  -34.3930   22.3283 C   0  0  0  0  0  0  0  0  0  0  0  0
  -22.2208  -33.1264   21.6679 C   0  0  0  0  0  0  0  0  0  0  0  0
  -25.2501  -28.3929   19.2341 C   0  0  0  0  0  0  0  0  0  0  0  0
  -23.1581  -11.3668   19.7357 C   0  0  0  0  0  0  0  0  0  0  0  0
  -24.6778  -10.8785   21.5493 C   0  0  0  0  0  0  0  0  0  0  0  0
  -26.5917  -28.0160   19.2767 C   0  0  0  0  0  0  0  0  0  0  0  0
  -22.1619   -8.8394   22.5149 C   0  0  0  0  0  0  0  0  0  0  0  0
  -21.9134   -8.1474   23.7002 C   0  0  0  0  0  0  0  0  0  0  0  0
  -26.1093  -26.5285   21.1135 C   0  0  0  0  0  0  0  0  0  0  0  0
  -23.7423   -6.6474   23.2079 C   0  0  0  0  0  0  0  0  0  0  0  0
  -31.7159  -27.5012   19.8185 C   0  0  0  0  0  0  0  0  0  0  0  0
  -24.3973  -13.1541   20.7877 C   0  0  0  0  0  0  0  0  0  0  0  0
  -24.0898  -15.5226   21.6841 C   0  0  0  0  0  0  0  0  0  0  0  0
  -20.1785  -33.1967   22.9761 C   0  0  0  0  0  0  0  0  0  0  0  0
  -24.3285  -27.8476   20.1395 C   0  0  0  0  0  0  0  0  0  0  0  0
  -21.3914  -32.5601   22.6508 C   0  0  0  0  0  0  0  0  0  0  0  0
  -24.7560  -26.8982   21.0786 C   0  0  0  0  0  0  0  0  0  0  0  0
  -23.7582  -10.4455   20.5941 C   0  0  0  0  0  0  0  0  0  0  0  0
  -27.0221  -27.0858   20.2184 C   0  0  0  0  0  0  0  0  0  0  0  0
  -23.2005   -8.4354   21.6760 C   0  0  0  0  0  0  0  0  0  0  0  0
  -22.7036   -7.0514   24.0467 C   0  0  0  0  0  0  0  0  0  0  0  0
  -23.9907   -7.3394   22.0225 C   0  0  0  0  0  0  0  0  0  0  0  0
  -24.7282  -14.5529   20.8879 C   0  0  0  0  0  0  0  0  0  0  0  0
  -30.5907  -26.7685   19.5036 C   0  0  0  0  0  0  0  0  0  0  0  0
  -24.7742  -16.6847   21.4246 C   0  0  0  0  0  0  0  0  0  0  0  0
  -32.0468  -25.1294   19.5591 C   0  0  0  0  0  0  0  0  0  0  0  0
  -22.9777  -15.3850   22.5785 C   0  0  0  0  0  0  0  0  0  0  0  0
  -22.4578  -29.0297   22.4213 C   0  0  0  0  0  0  0  0  0  0  0  0
  -21.3424  -25.9861   22.5428 C   0  0  0  0  0  0  0  0  0  0  0  0
  -21.8969  -22.6715   21.9491 C   0  0  0  0  0  0  0  0  0  0  0  0
  -29.6197  -19.2773   20.9503 C   0  0  0  0  0  0  0  0  0  0  0  0
  -19.2677  -32.6649   24.0542 C   0  0  0  0  0  0  0  0  0  0  0  0
  -22.8798  -28.2446   20.0630 C   0  0  0  0  0  0  0  0  0  0  0  0
  -23.8026  -26.2680   22.0596 C   0  0  0  0  0  0  0  0  0  0  0  0
  -19.5432  -31.2089   24.4208 C   0  0  0  0  0  0  0  0  0  0  0  0
  -28.1813  -17.7948   17.8825 C   0  0  0  0  0  0  0  0  0  0  0  0
  -21.0397  -30.9789   24.6058 C   0  0  0  0  0  0  0  0  0  0  0  0
  -27.1395  -16.8516   18.4755 C   0  0  0  0  0  0  0  0  0  0  0  0
  -29.4124  -17.9291   18.7780 C   0  0  0  0  0  0  0  0  0  0  0  0
  -28.0419  -17.3812   20.7722 C   0  0  0  0  0  0  0  0  0  0  0  0
  -30.8791  -22.5247   20.6639 C   0  0  0  0  0  0  0  0  0  0  0  0
  -32.6873  -21.5101   20.4255 C   0  0  0  0  0  0  0  0  0  0  0  0
  -21.8059  -31.2613   23.3078 C   0  0  1  0  0  0  0  0  0  0  0  0
  -22.1262  -28.0101   21.3687 C   0  0  1  0  0  0  0  0  0  0  0  0
  -26.7774  -17.2770   19.9063 C   0  0  2  0  0  0  0  0  0  0  0  0
  -31.3384  -21.1067   21.0474 C   0  0  0  0  0  0  0  0  0  0  0  0
  -20.8150  -20.4197   22.1870 C   0  0  0  0  0  0  0  0  0  0  0  0
  -21.9272  -26.0242   25.5372 C   0  0  0  0  0  0  0  0  0  0  0  0
  -21.7403  -23.5275   25.5347 C   0  0  0  0  0  0  0  0  0  0  0  0
  -19.7705  -24.9246   24.9093 C   0  0  0  0  0  0  0  0  0  0  0  0
  -21.9735  -22.1973   19.0288 C   0  0  0  0  0  0  0  0  0  0  0  0
  -29.2090  -27.3222   19.3144 C   0  0  0  0  0  0  0  0  0  1  0  0
  -32.6275  -23.7710   19.4852 C   0  0  0  0  0  0  0  0  0  0  0  0
  -21.7177  -24.7397   23.3073 C   0  0  1  0  0  0  0  0  0  0  0  0
  -21.0446  -21.6130   21.2726 C   0  0  2  0  0  0  0  0  0  0  0  0
  -21.3075  -24.8171   24.8051 C   0  0  0  0  0  0  0  0  0  0  0  0
  -25.7403  -15.0554   20.1757 N   0  0  0  0  0  0  0  0  0  0  0  0
  -30.7786  -25.4083   19.3540 N   0  0  0  0  0  0  0  0  0  0  0  0
  -25.7430  -16.3535   20.5235 N   0  0  0  0  0  0  0  0  0  0  0  0
  -22.3975  -26.6934   21.9491 N   0  0  0  0  0  0  0  0  0  0  0  0
  -29.0448  -18.2635   20.1632 N   0  0  0  0  0  0  0  0  0  0  0  0
  -24.6358  -17.9475   21.8814 N   0  0  0  0  0  0  0  0  0  0  0  0
  -22.3925  -14.1202   22.7274 N   0  0  0  0  0  0  0  0  0  0  0  0
  -21.6594  -30.1570   22.3840 N   0  0  0  0  0  0  0  0  0  0  0  0
  -21.1239  -23.6217   22.5822 N   0  0  0  0  0  0  0  0  0  0  0  0
  -30.6331  -20.0147   20.3458 N   0  0  0  0  0  0  0  0  0  0  0  0
  -32.2992  -22.9097   20.6609 N   0  3  0  0  0  0  0  0  0  0  0  0
  -21.7085  -21.1308   20.0285 N   0  3  0  0  0  0  0  0  0  0  0  0
  -22.5061  -16.3583   23.2139 O   0  0  0  0  0  0  0  0  0  0  0  0
  -23.3694  -28.8094   23.2100 O   0  0  0  0  0  0  0  0  0  0  0  0
  -20.1561  -26.3160   22.4688 O   0  0  0  0  0  0  0  0  0  0  0  0
  -23.1255  -22.6548   21.9221 O   0  0  0  0  0  0  0  0  0  0  0  0
  -29.2654  -19.5091   22.1113 O   0  0  0  0  0  0  0  0  0  0  0  0
  -23.4465   -9.1239   20.5000 O   0  0  0  0  0  0  0  0  0  0  0  0
  -28.3311  -26.7167   20.2626 O   0  0  0  0  0  0  0  0  0  1  0  0
  -22.4658   -6.3879   25.1858 F   0  0  0  0  0  0  0  0  0  0  0  0
  -24.9907   -6.9473   21.2212 F   0  0  0  0  0  0  0  0  0  0  0  0
  -33.0695  -26.4547   19.9366 S   0  0  0  0  0  0  0  0  0  0  0  0
  1  2  1  0  0  0  0
  1  5  2  0  0  0  0
  2  6  2  0  0  0  0
  3  8  2  0  0  0  0
  3 16  1  0  0  0  0
  4  9  1  0  0  0  0
  4 16  2  0  0  0  0
  5 18  1  0  0  0  0
  6 20  1  0  0  0  0
  7 10  2  0  0  0  0
  7 19  1  0  0  0  0
  8 22  1  0  0  0  0
  9 22  2  0  0  0  0
 10 23  1  0  0  0  0
 11 12  2  0  0  0  0
 11 24  1  0  0  0  0
 12 25  1  0  0  0  0
 13 21  1  0  0  0  0
 13 23  2  0  0  0  0
 14 25  2  0  0  0  0
 14 26  1  0  0  0  0
 15 28  2  0  0  0  0
 15 82  1  0  0  0  0
 16 27  1  0  0  0  0
 17 27  1  0  0  0  0
 17 29  2  0  0  0  0
 17 31  1  0  0  0  0
 18 20  2  0  0  0  0
 18 36  1  0  0  0  0
 19 21  2  0  0  0  0
 19 37  1  0  0  0  0
 20 47  1  0  0  0  0
 21 38  1  0  0  0  0
 22 78  1  0  0  0  0
 23 79  1  0  0  0  0
 24 26  2  0  0  0  0
 24 78  1  0  0  0  0
 25 80  1  0  0  0  0
 26 81  1  0  0  0  0
 27 61  2  0  0  0  0
 28 56  1  0  0  0  0
 28 62  1  0  0  0  0
 29 63  1  0  0  0  0
 29 66  1  0  0  0  0
 30 57  1  0  0  0  0
 30 62  2  0  0  0  0
 30 82  1  0  0  0  0
 31 67  1  0  0  0  0
 31 73  2  0  0  0  0
 32 48  1  0  0  0  0
 32 68  1  0  0  0  0
 32 74  2  0  0  0  0
 33 58  1  0  0  0  0
 33 64  1  0  0  0  0
 33 75  2  0  0  0  0
 34 59  1  0  0  0  0
 34 69  1  0  0  0  0
 34 76  2  0  0  0  0
 35 65  1  0  0  0  0
 35 70  1  0  0  0  0
 35 77  2  0  0  0  0
 36 39  1  0  0  0  0
 37 48  1  0  0  0  0
 38 64  1  0  0  0  0
 39 41  1  0  0  0  0
 40 42  1  0  0  0  0
 40 43  1  0  0  0  0
 41 47  1  0  0  0  0
 42 49  1  0  0  0  0
 43 65  1  0  0  0  0
 44 49  1  0  0  0  0
 44 65  1  0  0  0  0
 45 50  1  0  0  0  0
 45 71  1  0  0  0  0
 46 50  1  0  0  0  0
 46 71  1  0  0  0  0
 47 68  1  0  0  0  0
 48 64  1  0  0  0  0
 49 63  1  0  0  0  0
 50 70  1  0  0  0  0
 51 59  1  0  0  0  0
 52 60  1  0  0  0  0
 53 60  1  0  0  0  0
 54 60  1  0  0  0  0
 55 72  1  0  0  0  0
 56 79  1  0  0  0  0
 57 71  1  0  0  0  0
 58 60  1  0  0  0  0
 58 69  1  0  0  0  0
 59 72  1  0  0  0  0
 61 63  1  0  0  0  0
M  CHG  2  71   1  72   1
M  ISO  4  35 100  56 101  70 100  79 101
M  END
> <Batch ID>
0182

> <Smiles>
CNC(C)C(=O)NC(C(=O)N1Cc2cc([101O:1][101CH2:1]c3csc(CN4CC([100NH:0][100C:0](=O)N5CCCC(n6nc(-c7ccc(Oc8ccc(F)cc8F)cc7)c(C(N)=O)c6N)C5)C4)n3)ccc2CC1C(=O)NC1CCCc2ccccc21)C(C)(C)C

> <Shape>
0.216

> <Color>
0.093

> <Negative vol penalty>
0.000

$$$$

  -OEChem-04052323053D

 84 93  0     1  0  0  0  0  0999 V2000
  -23.8433   -7.9704   22.7571 C   0  0  0  0  0  0  0  0  0  0  0  0
  -24.6500   -9.0490   22.4087 C   0  0  0  0  0  0  0  0  0  0  0  0
  -23.1054  -31.0066   21.4954 C   0  0  0  0  0  0  0  0  0  0  0  0
  -22.7267  -29.3711   23.2329 C   0  0  0  0  0  0  0  0  0  0  0  0
  -22.4782   -8.0026   22.4753 C   0  0  0  0  0  0  0  0  0  0  0  0
  -24.0921  -10.1601   21.7773 C   0  0  0  0  0  0  0  0  0  0  0  0
  -25.7629  -16.0114   22.4673 C   0  0  0  0  0  0  0  0  0  0  0  0
  -21.7383  -31.0301   21.2196 C   0  0  0  0  0  0  0  0  0  0  0  0
  -21.3596  -29.3947   22.9572 C   0  0  0  0  0  0  0  0  0  0  0  0
  -26.5768  -16.8504   21.7074 C   0  0  0  0  0  0  0  0  0  0  0  0
  -18.7170  -31.3882   23.6378 C   0  0  0  0  0  0  0  0  0  0  0  0
  -17.8400  -31.4516   24.7206 C   0  0  0  0  0  0  0  0  0  0  0  0
  -24.6239  -17.7286   20.5965 C   0  0  0  0  0  0  0  0  0  0  0  0
  -16.8479  -29.3566   24.0397 C   0  0  0  0  0  0  0  0  0  0  0  0
  -23.5996  -30.1770   22.5020 C   0  0  0  0  0  0  0  0  0  0  0  0
  -25.7089  -30.9628   23.7025 C   0  0  0  0  0  0  0  0  0  0  0  0
  -21.9017   -9.1188   21.8488 C   0  0  0  0  0  0  0  0  0  0  0  0
  -24.3719  -16.0169   22.2895 C   0  0  0  0  0  0  0  0  0  0  0  0
  -22.7182  -10.2067   21.4856 C   0  0  0  0  0  0  0  0  0  0  0  0
  -23.7944  -16.8906   21.3572 C   0  0  0  0  0  0  0  0  0  0  0  0
  -20.8654  -30.2243   21.9505 C   0  0  0  0  0  0  0  0  0  0  0  0
  -26.0076  -17.7070   20.7697 C   0  0  0  0  0  0  0  0  0  0  0  0
  -18.6594  -30.3090   22.7559 C   0  0  0  0  0  0  0  0  0  0  0  0
  -16.9055  -30.4358   24.9216 C   0  0  0  0  0  0  0  0  0  0  0  0
  -17.7248  -29.2932   22.9568 C   0  0  0  0  0  0  0  0  0  0  0  0
  -25.0118  -30.1518   22.7870 C   0  0  0  0  0  0  0  0  0  0  0  0
  -29.9711  -21.4576   19.1673 C   0  0  0  0  0  0  0  0  0  0  0  0
  -28.8987  -19.4481   19.3707 C   0  0  0  0  0  0  0  0  0  0  0  0
  -30.1358  -21.2332   17.8183 C   0  0  0  0  0  0  0  0  0  0  0  0
  -29.0627  -19.2239   18.0215 C   0  0  0  0  0  0  0  0  0  0  0  0
  -27.0152  -30.5509   23.6007 C   0  0  0  0  0  0  0  0  0  0  0  0
  -25.2194  -31.9960   24.5677 C   0  0  0  0  0  0  0  0  0  0  0  0
  -22.2194  -13.8661   21.3707 C   0  0  0  0  0  0  0  0  0  0  0  0
  -20.1171  -16.2079   22.1571 C   0  0  0  0  0  0  0  0  0  0  0  0
  -19.5266  -19.5382   22.6119 C   0  0  0  0  0  0  0  0  0  0  0  0
  -29.2722  -25.3203   21.8881 C   0  0  0  0  0  0  0  0  0  0  0  0
  -20.4296   -9.0879   21.5219 C   0  0  0  0  0  0  0  0  0  0  0  0
  -23.5057  -15.1251   23.1361 C   0  0  0  0  0  0  0  0  0  0  0  0
  -22.3048  -16.9494   21.1425 C   0  0  0  0  0  0  0  0  0  0  0  0
  -19.8508  -10.4605   21.1883 C   0  0  0  0  0  0  0  0  0  0  0  0
  -30.1295  -28.6366   20.5533 C   0  0  0  0  0  0  0  0  0  0  0  0
  -20.7596  -11.2000   20.2117 C   0  0  0  0  0  0  0  0  0  0  0  0
  -28.9245  -29.4541   21.0051 C   0  0  0  0  0  0  0  0  0  0  0  0
  -29.7649  -27.1864   20.2347 C   0  0  0  0  0  0  0  0  0  0  0  0
  -29.7940  -24.1068   19.6511 C   0  0  0  0  0  0  0  0  0  0  0  0
  -30.0473  -22.9485   21.4142 C   0  0  0  0  0  0  0  0  0  0  0  0
  -27.8337  -27.3268   21.7946 C   0  0  0  0  0  0  0  0  0  0  0  0
  -22.1458  -11.4403   20.8218 C   0  0  1  0  0  0  0  0  0  0  0  0
  -30.4700  -22.7469   19.9443 C   0  0  0  0  0  0  0  0  0  0  0  0
  -22.1437  -14.8445   22.5085 C   0  0  1  0  0  0  0  0  0  0  0  0
  -28.2183  -28.7616   22.1797 C   0  0  2  0  0  0  0  0  0  0  0  0
  -17.7014  -21.1506   23.2169 C   0  0  0  0  0  0  0  0  0  0  0  0
  -18.9261  -15.9038   19.3644 C   0  0  0  0  0  0  0  0  0  0  0  0
  -17.7932  -18.1137   19.6827 C   0  0  0  0  0  0  0  0  0  0  0  0
  -17.2427  -16.2034   21.1895 C   0  0  0  0  0  0  0  0  0  0  0  0
  -28.6938  -17.7196   16.0653 C   0  0  0  0  0  0  0  0  0  0  0  0
  -20.9899  -20.4757   25.0074 C   0  0  0  0  0  0  0  0  0  0  0  0
  -28.2059  -18.4566   20.2587 C   0  0  0  0  0  0  0  0  0  1  0  0
  -19.4779  -17.3616   21.4226 C   0  0  1  0  0  0  0  0  0  0  0  0
  -18.8465  -20.2961   23.7377 C   0  0  2  0  0  0  0  0  0  0  0  0
  -18.3882  -16.8933   20.4173 C   0  0  0  0  0  0  0  0  0  0  0  0
  -25.8093  -29.2900   22.1503 N   0  0  0  0  0  0  0  0  0  0  0  0
  -29.3496  -20.5690   19.9678 N   0  0  0  0  0  0  0  0  0  0  0  0
  -29.6845  -20.1124   17.2211 N   0  0  0  0  0  0  0  0  0  0  0  0
  -27.0210  -29.5572   22.6665 N   0  0  0  0  0  0  0  0  0  0  0  0
  -21.5006  -16.0535   21.9899 N   0  0  0  0  0  0  0  0  0  0  0  0
  -28.9867  -26.5613   21.3090 N   0  0  0  0  0  0  0  0  0  0  0  0
  -29.8522  -24.3579   21.0861 N   0  0  0  0  0  0  0  0  0  0  0  0
  -30.7971  -22.2096   17.0405 N   0  0  0  0  0  0  0  0  0  0  0  0
  -28.1480  -30.9454   24.2200 N   0  0  0  0  0  0  0  0  0  0  0  0
  -23.8496  -32.2918   24.5466 N   0  0  0  0  0  0  0  0  0  0  0  0
  -28.5669  -18.0284   17.4546 N   0  0  0  0  0  0  0  0  0  0  0  0
  -22.1021  -12.5444   21.7565 N   0  0  0  0  0  0  0  0  0  0  0  0
  -18.9908  -18.2784   22.4477 N   0  0  0  0  0  0  0  0  0  0  0  0
  -19.8227  -21.1874   24.4259 N   0  3  0  0  0  0  0  0  0  0  0  0
  -25.9769  -32.6490   25.3248 O   0  0  0  0  0  0  0  0  0  0  0  0
  -22.3715  -14.2797   20.2272 O   0  0  0  0  0  0  0  0  0  0  0  0
  -19.4159  -15.4750   22.8592 O   0  0  0  0  0  0  0  0  0  0  0  0
  -20.4392  -20.0174   21.9424 O   0  0  0  0  0  0  0  0  0  0  0  0
  -28.9914  -25.0648   23.0661 O   0  0  0  0  0  0  0  0  0  0  0  0
  -19.5313  -30.2472   21.6818 O   0  0  0  0  0  0  0  0  0  0  0  0
  -26.7997  -18.5265   20.0262 O   0  0  0  0  0  0  0  0  0  1  0  0
  -16.0644  -30.4960   25.9623 F   0  0  0  0  0  0  0  0  0  0  0  0
  -17.6655  -28.2534   22.1136 F   0  0  0  0  0  0  0  0  0  0  0  0
  1  2  1  0  0  0  0
  1  5  2  0  0  0  0
  2  6  2  0  0  0  0
  3  8  2  0  0  0  0
  3 15  1  0  0  0  0
  4  9  1  0  0  0  0
  4 15  2  0  0  0  0
  5 17  1  0  0  0  0
  6 19  1  0  0  0  0
  7 10  2  0  0  0  0
  7 18  1  0  0  0  0
  8 21  1  0  0  0  0
  9 21  2  0  0  0  0
 10 22  1  0  0  0  0
 11 12  2  0  0  0  0
 11 23  1  0  0  0  0
 12 24  1  0  0  0  0
 13 20  1  0  0  0  0
 13 22  2  0  0  0  0
 14 24  2  0  0  0  0
 14 25  1  0  0  0  0
 15 26  1  0  0  0  0
 16 26  1  0  0  0  0
 16 31  2  0  0  0  0
 16 32  1  0  0  0  0
 17 19  2  0  0  0  0
 17 37  1  0  0  0  0
 18 20  2  0  0  0  0
 18 38  1  0  0  0  0
 19 48  1  0  0  0  0
 20 39  1  0  0  0  0
 21 81  1  0  0  0  0
 22 82  1  0  0  0  0
 23 25  2  0  0  0  0
 23 81  1  0  0  0  0
 24 83  1  0  0  0  0
 25 84  1  0  0  0  0
 26 62  2  0  0  0  0
 27 29  1  0  0  0  0
 27 49  1  0  0  0  0
 27 63  2  0  0  0  0
 28 30  2  0  0  0  0
 28 58  1  0  0  0  0
 28 63  1  0  0  0  0
 29 64  2  0  0  0  0
 29 69  1  0  0  0  0
 30 64  1  0  0  0  0
 30 72  1  0  0  0  0
 31 65  1  0  0  0  0
 31 70  1  0  0  0  0
 32 71  1  0  0  0  0
 32 76  2  0  0  0  0
 33 50  1  0  0  0  0
 33 73  1  0  0  0  0
 33 77  2  0  0  0  0
 34 59  1  0  0  0  0
 34 66  1  0  0  0  0
 34 78  2  0  0  0  0
 35 60  1  0  0  0  0
 35 74  1  0  0  0  0
 35 79  2  0  0  0  0
 36 67  1  0  0  0  0
 36 68  1  0  0  0  0
 36 80  2  0  0  0  0
 37 40  1  0  0  0  0
 38 50  1  0  0  0  0
 39 66  1  0  0  0  0
 40 42  1  0  0  0  0
 41 43  1  0  0  0  0
 41 44  1  0  0  0  0
 42 48  1  0  0  0  0
 43 51  1  0  0  0  0
 44 67  1  0  0  0  0
 45 49  1  0  0  0  0
 45 68  1  0  0  0  0
 46 49  1  0  0  0  0
 46 68  1  0  0  0  0
 47 51  1  0  0  0  0
 47 67  1  0  0  0  0
 48 73  1  0  0  0  0
 50 66  1  0  0  0  0
 51 65  1  0  0  0  0
 52 60  1  0  0  0  0
 53 61  1  0  0  0  0
 54 61  1  0  0  0  0
 55 61  1  0  0  0  0
 56 72  1  0  0  0  0
 57 75  1  0  0  0  0
 58 82  1  0  0  0  0
 59 61  1  0  0  0  0
 59 74  1  0  0  0  0
 60 75  1  0  0  0  0
 62 65  1  0  0  0  0
M  CHG  1  75   1
M  ISO  4  36 100  58 101  68 100  82 101
M  END
> <Batch ID>
0182

> <Smiles>
CNc1nc(N)c(C2C[100N:0]([100C:0](=O)N3CCCC(n4nc(-c5ccc(Oc6ccc(F)cc6F)cc5)c(C(N)=O)c4N)C3)C2)nc1[101CH2:1][101O:1]c1ccc2c(c1)CN(C(=O)C(NC(=O)C(C)NC)C(C)(C)C)C(C(=O)NC1CCCc3ccccc31)C2

> <Shape>
0.248

> <Color>
0.061

> <Negative vol penalty>
0.000

$$$$

  -OEChem-04052323053D

 83 92  0     1  0  0  0  0  0999 V2000
  -26.8841  -24.2721   17.2455 C   0  0  0  0  0  0  0  0  0  0  0  0
  -25.7436  -24.7112   17.9103 C   0  0  0  0  0  0  0  0  0  0  0  0
  -26.9660  -14.3248   22.3987 C   0  0  0  0  0  0  0  0  0  0  0  0
  -26.0603  -14.1541   20.1654 C   0  0  0  0  0  0  0  0  0  0  0  0
  -28.1464  -24.5806   17.7508 C   0  0  0  0  0  0  0  0  0  0  0  0
  -25.8649  -25.4582   19.0815 C   0  0  0  0  0  0  0  0  0  0  0  0
  -22.7576  -29.4560   19.1662 C   0  0  0  0  0  0  0  0  0  0  0  0
  -26.7252  -12.9658   22.6003 C   0  0  0  0  0  0  0  0  0  0  0  0
  -25.8196  -12.7950   20.3669 C   0  0  0  0  0  0  0  0  0  0  0  0
  -21.4178  -29.2148   19.4673 C   0  0  0  0  0  0  0  0  0  0  0  0
  -23.5156  -10.8782   21.9315 C   0  0  0  0  0  0  0  0  0  0  0  0
  -22.2801  -10.3720   21.5276 C   0  0  0  0  0  0  0  0  0  0  0  0
  -21.8046  -29.9340   21.7371 C   0  0  0  0  0  0  0  0  0  0  0  0
  -23.3965   -8.8525   20.0171 C   0  0  0  0  0  0  0  0  0  0  0  0
  -26.6335  -14.9190   21.1813 C   0  0  0  0  0  0  0  0  0  0  0  0
  -28.0499  -16.9120   20.4537 C   0  0  0  0  0  0  0  0  0  0  0  0
  -28.2832  -25.3399   18.9235 C   0  0  0  0  0  0  0  0  0  0  0  0
  -23.6349  -29.9285   20.1529 C   0  0  0  0  0  0  0  0  0  0  0  0
  -27.1302  -25.7760   19.6037 C   0  0  0  0  0  0  0  0  0  0  0  0
  -23.1545  -30.1829   21.4454 C   0  0  0  0  0  0  0  0  0  0  0  0
  -26.1521  -12.2009   21.5844 C   0  0  0  0  0  0  0  0  0  0  0  0
  -20.9418  -29.4511   20.7536 C   0  0  0  0  0  0  0  0  0  0  0  0
  -24.6915  -10.3716   21.3780 C   0  0  0  0  0  0  0  0  0  0  0  0
  -22.2206   -9.3591   20.5705 C   0  0  0  0  0  0  0  0  0  0  0  0
  -24.6319   -9.3587   20.4209 C   0  0  0  0  0  0  0  0  0  0  0  0
  -26.8814  -16.3230   20.9727 C   0  0  0  0  0  0  0  0  0  0  0  0
  -27.7856  -18.2598   20.4569 C   0  0  0  0  0  0  0  0  0  0  0  0
  -17.9917  -26.6109   22.7451 C   0  0  0  0  0  0  0  0  0  0  0  0
  -19.6741  -25.7437   21.5392 C   0  0  0  0  0  0  0  0  0  0  0  0
  -19.2927  -27.9550   21.5051 C   0  0  0  0  0  0  0  0  0  1  0  0
  -29.2655  -16.2959   20.0083 C   0  0  0  0  0  0  0  0  0  0  0  0
  -26.2769  -28.8146   21.5250 C   0  0  0  0  0  0  0  0  0  0  0  0
  -26.3200  -31.7430   22.9197 C   0  0  0  0  0  0  0  0  0  0  0  0
  -24.5781  -34.5035   23.9158 C   0  0  0  0  0  0  0  0  0  0  0  0
  -22.9437  -21.3992   20.0996 C   0  0  0  0  0  0  0  0  0  0  0  0
  -29.6681  -25.6081   19.4572 C   0  0  0  0  0  0  0  0  0  0  0  0
  -25.0711  -30.2090   19.8052 C   0  0  0  0  0  0  0  0  0  0  0  0
  -24.0508  -30.7094   22.5352 C   0  0  0  0  0  0  0  0  0  0  0  0
  -29.7140  -26.7228   20.4992 C   0  0  0  0  0  0  0  0  0  0  0  0
  -25.2309  -21.5773   22.7597 C   0  0  0  0  0  0  0  0  0  0  0  0
  -28.6017  -26.5392   21.5267 C   0  0  0  0  0  0  0  0  0  0  0  0
  -26.0367  -20.2951   22.5538 C   0  0  0  0  0  0  0  0  0  0  0  0
  -23.7380  -21.3630   22.5054 C   0  0  0  0  0  0  0  0  0  0  0  0
  -21.5407  -24.8307   20.1938 C   0  0  0  0  0  0  0  0  0  0  0  0
  -20.5064  -23.4851   22.0284 C   0  0  0  0  0  0  0  0  0  0  0  0
  -21.8872  -23.5355   19.4641 C   0  0  0  0  0  0  0  0  0  0  0  0
  -20.8595  -22.2159   21.2611 C   0  0  0  0  0  0  0  0  0  0  0  0
  -24.2393  -19.4806   20.9812 C   0  0  0  0  0  0  0  0  0  0  0  0
  -27.2209  -26.6096   20.8634 C   0  0  1  0  0  0  0  0  0  0  0  0
  -25.9927  -30.2013   21.0209 C   0  0  1  0  0  0  0  0  0  0  0  0
  -25.7510  -19.6789   21.1728 C   0  0  2  0  0  0  0  0  0  0  0  0
  -16.8475  -26.4280   23.6831 C   0  0  0  0  0  0  0  0  0  0  0  0
  -24.8797  -36.7157   25.0616 C   0  0  0  0  0  0  0  0  0  0  0  0
  -26.5110  -30.3199   25.6120 C   0  0  0  0  0  0  0  0  0  0  0  0
  -25.8570  -32.4696   26.7161 C   0  0  0  0  0  0  0  0  0  0  0  0
  -27.9686  -32.3403   25.3943 C   0  0  0  0  0  0  0  0  0  0  0  0
  -23.6567  -35.9951   21.5315 C   0  0  0  0  0  0  0  0  0  0  0  0
  -25.7477  -32.3325   24.1862 C   0  0  1  0  0  0  0  0  0  0  0  0
  -24.8462  -35.9858   23.7278 C   0  0  2  0  0  0  0  0  0  0  0  0
  -26.5044  -31.8538   25.4573 C   0  0  0  0  0  0  0  0  0  0  0  0
  -25.9445  -17.2229   21.2833 N   0  0  0  0  0  0  0  0  0  0  0  0
  -18.6585  -25.5027   22.3840 N   0  0  0  0  0  0  0  0  0  0  0  0
  -18.2507  -27.8670   22.3473 N   0  0  0  0  0  0  0  0  0  0  0  0
  -20.0493  -26.9398   21.0580 N   0  0  0  0  0  0  0  0  0  0  0  0
  -26.5241  -18.3911   20.9585 N   0  0  0  0  0  0  0  0  0  0  0  0
  -20.4178  -24.6343   21.1170 N   0  0  0  0  0  0  0  0  0  0  0  0
  -25.4485  -30.9620   22.1476 N   0  0  0  0  0  0  0  0  0  0  0  0
  -23.5177  -20.7368   21.1949 N   0  0  0  0  0  0  0  0  0  0  0  0
  -22.0171  -22.4139   20.3864 N   0  0  0  0  0  0  0  0  0  0  0  0
  -28.5116  -19.3336   20.0797 N   0  0  0  0  0  0  0  0  0  0  0  0
  -29.3698  -14.8997   20.0735 N   0  0  0  0  0  0  0  0  0  0  0  0
  -26.8620  -27.9843   20.5881 N   0  0  0  0  0  0  0  0  0  0  0  0
  -25.7485  -33.7794   23.9997 N   0  0  0  0  0  0  0  0  0  0  0  0
  -23.7846  -36.6010   22.8819 N   0  3  0  0  0  0  0  0  0  0  0  0
  -30.2368  -16.9648   19.5810 O   0  0  0  0  0  0  0  0  0  0  0  0
  -25.9883  -28.5203   22.6790 O   0  0  0  0  0  0  0  0  0  0  0  0
  -27.4949  -31.9731   22.6227 O   0  0  0  0  0  0  0  0  0  0  0  0
  -23.4439  -34.0353   23.9854 O   0  0  0  0  0  0  0  0  0  0  0  0
  -23.2419  -21.1059   18.9351 O   0  0  0  0  0  0  0  0  0  0  0  0
  -25.9173  -10.8746   21.7806 O   0  0  0  0  0  0  0  0  0  0  0  0
  -19.6180  -29.2129   21.0541 O   0  0  0  0  0  0  0  0  0  1  0  0
  -21.0342   -8.8721   20.1839 F   0  0  0  0  0  0  0  0  0  0  0  0
  -25.7583   -8.8672   19.8865 F   0  0  0  0  0  0  0  0  0  0  0  0
  1  2  1  0  0  0  0
  1  5  2  0  0  0  0
  2  6  2  0  0  0  0
  3  8  2  0  0  0  0
  3 15  1  0  0  0  0
  4  9  1  0  0  0  0
  4 15  2  0  0  0  0
  5 17  1  0  0  0  0
  6 19  1  0  0  0  0
  7 10  2  0  0  0  0
  7 18  1  0  0  0  0
  8 21  1  0  0  0  0
  9 21  2  0  0  0  0
 10 22  1  0  0  0  0
 11 12  2  0  0  0  0
 11 23  1  0  0  0  0
 12 24  1  0  0  0  0
 13 20  1  0  0  0  0
 13 22  2  0  0  0  0
 14 24  2  0  0  0  0
 14 25  1  0  0  0  0
 15 26  1  0  0  0  0
 16 26  1  0  0  0  0
 16 27  2  0  0  0  0
 16 31  1  0  0  0  0
 17 19  2  0  0  0  0
 17 36  1  0  0  0  0
 18 20  2  0  0  0  0
 18 37  1  0  0  0  0
 19 49  1  0  0  0  0
 20 38  1  0  0  0  0
 21 80  1  0  0  0  0
 22 81  1  0  0  0  0
 23 25  2  0  0  0  0
 23 80  1  0  0  0  0
 24 82  1  0  0  0  0
 25 83  1  0  0  0  0
 26 61  2  0  0  0  0
 27 65  1  0  0  0  0
 27 70  1  0  0  0  0
 28 52  1  0  0  0  0
 28 62  1  0  0  0  0
 28 63  2  0  0  0  0
 29 62  2  0  0  0  0
 29 64  1  0  0  0  0
 29 66  1  0  0  0  0
 30 63  1  0  0  0  0
 30 64  2  0  0  0  0
 30 81  1  0  0  0  0
 31 71  1  0  0  0  0
 31 75  2  0  0  0  0
 32 50  1  0  0  0  0
 32 72  1  0  0  0  0
 32 76  2  0  0  0  0
 33 58  1  0  0  0  0
 33 67  1  0  0  0  0
 33 77  2  0  0  0  0
 34 59  1  0  0  0  0
 34 73  1  0  0  0  0
 34 78  2  0  0  0  0
 35 68  1  0  0  0  0
 35 69  1  0  0  0  0
 35 79  2  0  0  0  0
 36 39  1  0  0  0  0
 37 50  1  0  0  0  0
 38 67  1  0  0  0  0
 39 41  1  0  0  0  0
 40 42  1  0  0  0  0
 40 43  1  0  0  0  0
 41 49  1  0  0  0  0
 42 51  1  0  0  0  0
 43 68  1  0  0  0  0
 44 46  1  0  0  0  0
 44 66  1  0  0  0  0
 45 47  1  0  0  0  0
 45 66  1  0  0  0  0
 46 69  1  0  0  0  0
 47 69  1  0  0  0  0
 48 51  1  0  0  0  0
 48 68  1  0  0  0  0
 49 72  1  0  0  0  0
 50 67  1  0  0  0  0
 51 65  1  0  0  0  0
 53 59  1  0  0  0  0
 54 60  1  0  0  0  0
 55 60  1  0  0  0  0
 56 60  1  0  0  0  0
 57 74  1  0  0  0  0
 58 60  1  0  0  0  0
 58 73  1  0  0  0  0
 59 74  1  0  0  0  0
 61 65  1  0  0  0  0
M  CHG  1  74   1
M  ISO  4  30 101  35 100  69 100  81 101
M  END
> <Batch ID>
0182

> <Smiles>
CNC(C)C(=O)NC(C(=O)N1Cc2cc([101O:1][101c:1]3nc(C)nc(N4CC[100N:0]([100C:0](=O)N5CCCC(n6nc(-c7ccc(Oc8ccc(F)cc8F)cc7)c(C(N)=O)c6N)C5)CC4)n3)ccc2CC1C(=O)NC1CCCc2ccccc21)C(C)(C)C

> <Shape>
0.311

> <Color>
0.082

> <Negative vol penalty>
0.000

$$$$

  -OEChem-04052323053D

 82 91  0     1  0  0  0  0  0999 V2000
  -29.9740  -32.7725   25.5967 C   0  0  0  0  0  0  0  0  0  0  0  0
  -29.4131  -31.5514   25.2364 C   0  0  0  0  0  0  0  0  0  0  0  0
  -23.7197  -10.2988   22.2697 C   0  0  0  0  0  0  0  0  0  0  0  0
  -24.1778   -9.0157   20.2745 C   0  0  0  0  0  0  0  0  0  0  0  0
  -29.1792  -33.9171   25.6422 C   0  0  0  0  0  0  0  0  0  0  0  0
  -28.0567  -31.4741   24.9224 C   0  0  0  0  0  0  0  0  0  0  0  0
  -27.1788  -28.7179   20.7657 C   0  0  0  0  0  0  0  0  0  0  0  0
  -22.4899   -9.6540   22.4020 C   0  0  0  0  0  0  0  0  0  0  0  0
  -22.9480   -8.3708   20.4069 C   0  0  0  0  0  0  0  0  0  0  0  0
  -27.2191  -27.3309   20.9012 C   0  0  0  0  0  0  0  0  0  0  0  0
  -21.3475   -6.6724   23.5147 C   0  0  0  0  0  0  0  0  0  0  0  0
  -20.9888   -6.2146   24.7825 C   0  0  0  0  0  0  0  0  0  0  0  0
  -24.8093  -27.2763   20.9975 C   0  0  0  0  0  0  0  0  0  0  0  0
  -25.5131  -20.4419   21.7876 C   0  0  0  0  0  0  0  0  0  0  0  0
  -25.4539  -22.3594   20.3369 C   0  0  0  0  0  0  0  0  0  0  0  0
  -19.0289   -7.6267   24.7378 C   0  0  0  0  0  0  0  0  0  0  0  0
  -24.5636   -9.9796   21.2059 C   0  0  0  0  0  0  0  0  0  0  0  0
  -27.0685  -10.2422   21.6111 C   0  0  0  0  0  0  0  0  0  0  0  0
  -27.8145  -33.8556   25.3193 C   0  0  0  0  0  0  0  0  0  0  0  0
  -25.9518  -29.3968   20.7561 C   0  0  0  0  0  0  0  0  0  0  0  0
  -27.2426  -32.6187   24.9649 C   0  0  0  0  0  0  0  0  0  0  0  0
  -24.7561  -28.6717   20.8592 C   0  0  0  0  0  0  0  0  0  0  0  0
  -25.6778  -21.0000   20.5247 C   0  0  0  0  0  0  0  0  0  0  0  0
  -22.1040   -8.6900   21.4706 C   0  0  0  0  0  0  0  0  0  0  0  0
  -26.0344  -26.6102   21.0200 C   0  0  0  0  0  0  0  0  0  0  0  0
  -20.5471   -7.6075   22.8585 C   0  0  0  0  0  0  0  0  0  0  0  0
  -19.8294   -6.6916   25.3940 C   0  0  0  0  0  0  0  0  0  0  0  0
  -19.3877   -8.0846   23.4700 C   0  0  0  0  0  0  0  0  0  0  0  0
  -25.8338  -10.6458   21.0684 C   0  0  0  0  0  0  0  0  0  0  0  0
  -25.1264  -21.2795   22.8213 C   0  0  0  0  0  0  0  0  0  0  0  0
  -25.0696  -23.1111   21.4356 C   0  0  0  0  0  0  0  0  0  0  0  0
  -27.9569  -11.2038   21.1957 C   0  0  0  0  0  0  0  0  0  0  0  0
  -27.3841   -9.1003   22.4186 C   0  0  0  0  0  0  0  0  0  0  0  0
  -24.5916  -31.5981   22.6020 C   0  0  0  0  0  0  0  0  0  0  0  0
  -22.3059  -31.5550   20.3006 C   0  0  0  0  0  0  0  0  0  0  0  0
  -20.7615  -29.8454   17.7829 C   0  0  0  0  0  0  0  0  0  0  0  0
  -27.0363  -16.8968   19.6983 C   0  0  0  0  0  0  0  0  0  0  0  0
  -26.9853  -35.1107   25.4286 C   0  0  0  0  0  0  0  0  0  0  0  0
  -25.9243  -30.8906   20.5823 C   0  0  0  0  0  0  0  0  0  0  0  0
  -23.4121  -29.3510   20.8340 C   0  0  0  0  0  0  0  0  0  0  0  0
  -25.6376  -35.0141   24.7182 C   0  0  0  0  0  0  0  0  0  0  0  0
  -28.7394  -14.3232   17.6761 C   0  0  0  0  0  0  0  0  0  0  0  0
  -24.9466  -33.6981   25.0609 C   0  0  0  0  0  0  0  0  0  0  0  0
  -28.2450  -13.0464   18.3494 C   0  0  0  0  0  0  0  0  0  0  0  0
  -27.3091  -20.5319   18.5773 C   0  0  0  0  0  0  0  0  0  0  0  0
  -27.6837  -15.4279   17.6962 C   0  0  0  0  0  0  0  0  0  0  0  0
  -26.6686  -14.4500   19.7351 C   0  0  0  0  0  0  0  0  0  0  0  0
  -26.0939  -20.1450   19.3779 C   0  0  1  0  0  0  0  0  0  0  0  0
  -25.7805  -32.4991   24.5934 C   0  0  1  0  0  0  0  0  0  0  0  0
  -24.6398  -31.5290   21.1018 C   0  0  1  0  0  0  0  0  0  0  0  0
  -27.7343  -13.3438   19.7676 C   0  0  1  0  0  0  0  0  0  0  0  0
  -27.3699  -19.3415   19.4882 C   0  0  1  0  0  0  0  0  0  0  0  0
  -24.9407  -20.7156   24.1905 C   0  0  0  0  0  0  0  0  0  0  0  0
  -18.9020  -30.0553   16.1109 C   0  0  0  0  0  0  0  0  0  0  0  0
  -20.2636  -31.0644   22.5139 C   0  0  0  0  0  0  0  0  0  0  0  0
  -18.6329  -30.3477   20.7546 C   0  0  0  0  0  0  0  0  0  0  0  0
  -19.5246  -32.6774   20.7513 C   0  0  0  0  0  0  0  0  0  0  0  0
  -22.6253  -29.5636   15.5013 C   0  0  0  0  0  0  0  0  0  0  0  0
  -24.8192  -24.5812   21.2699 C   0  0  0  0  0  0  0  0  0  1  0  0
  -21.0374  -30.7702   20.0683 C   0  0  1  0  0  0  0  0  0  0  0  0
  -20.3874  -30.2540   16.3696 C   0  0  2  0  0  0  0  0  0  0  0  0
  -19.8899  -31.2020   21.0245 C   0  0  0  0  0  0  0  0  0  0  0  0
  -25.9256  -11.7757   20.3622 N   0  0  0  0  0  0  0  0  0  0  0  0
  -24.8996  -22.6045   22.6774 N   0  0  0  0  0  0  0  0  0  0  0  0
  -27.2286  -12.0905   20.4584 N   0  0  0  0  0  0  0  0  0  0  0  0
  -23.4377  -30.8137   20.6685 N   0  0  0  0  0  0  0  0  0  0  0  0
  -27.1617  -15.6530   19.0533 N   0  0  0  0  0  0  0  0  0  0  0  0
  -29.2821  -11.3690   21.3929 N   0  0  0  0  0  0  0  0  0  0  0  0
  -26.3522   -8.2128   22.7532 N   0  0  0  0  0  0  0  0  0  0  0  0
  -25.6345  -32.3076   23.1663 N   0  0  0  0  0  0  0  0  0  0  0  0
  -20.7212  -30.9155   18.6515 N   0  0  0  0  0  0  0  0  0  0  0  0
  -27.4445  -18.0041   18.9634 N   0  0  0  0  0  0  0  0  0  0  0  0
  -21.1497  -29.4444   15.3774 N   0  3  0  0  0  0  0  0  0  0  0  0
  -28.5436   -8.8823   22.8447 O   0  0  0  0  0  0  0  0  0  0  0  0
  -23.6752  -31.0497   23.2030 O   0  0  0  0  0  0  0  0  0  0  0  0
  -22.2948  -32.7797   20.1540 O   0  0  0  0  0  0  0  0  0  0  0  0
  -21.0560  -28.6915   18.0868 O   0  0  0  0  0  0  0  0  0  0  0  0
  -26.5879  -17.0150   20.8440 O   0  0  0  0  0  0  0  0  0  0  0  0
  -20.9042   -8.0605   21.5996 O   0  0  0  0  0  0  0  0  0  0  0  0
  -26.0709  -25.2563   21.1530 O   0  0  0  0  0  0  0  0  0  1  0  0
  -19.4842   -6.2507   26.6108 F   0  0  0  0  0  0  0  0  0  0  0  0
  -18.6141   -8.9820   22.8441 F   0  0  0  0  0  0  0  0  0  0  0  0
  1  2  1  0  0  0  0
  1  5  2  0  0  0  0
  2  6  2  0  0  0  0
  3  8  2  0  0  0  0
  3 17  1  0  0  0  0
  4  9  1  0  0  0  0
  4 17  2  0  0  0  0
  5 19  1  0  0  0  0
  6 21  1  0  0  0  0
  7 10  2  0  0  0  0
  7 20  1  0  0  0  0
  8 24  1  0  0  0  0
  9 24  2  0  0  0  0
 10 25  1  0  0  0  0
 11 12  2  0  0  0  0
 11 26  1  0  0  0  0
 12 27  1  0  0  0  0
 13 22  1  0  0  0  0
 13 25  2  0  0  0  0
 14 23  1  0  0  0  0
 14 30  2  0  0  0  0
 15 23  2  0  0  0  0
 15 31  1  0  0  0  0
 16 27  2  0  0  0  0
 16 28  1  0  0  0  0
 17 29  1  0  0  0  0
 18 29  1  0  0  0  0
 18 32  2  0  0  0  0
 18 33  1  0  0  0  0
 19 21  2  0  0  0  0
 19 38  1  0  0  0  0
 20 22  2  0  0  0  0
 20 39  1  0  0  0  0
 21 49  1  0  0  0  0
 22 40  1  0  0  0  0
 23 48  1  0  0  0  0
 24 79  1  0  0  0  0
 25 80  1  0  0  0  0
 26 28  2  0  0  0  0
 26 79  1  0  0  0  0
 27 81  1  0  0  0  0
 28 82  1  0  0  0  0
 29 63  2  0  0  0  0
 30 53  1  0  0  0  0
 30 64  1  0  0  0  0
 31 59  1  0  0  0  0
 31 64  2  0  0  0  0
 32 65  1  0  0  0  0
 32 68  1  0  0  0  0
 33 69  1  0  0  0  0
 33 74  2  0  0  0  0
 34 50  1  0  0  0  0
 34 70  1  0  0  0  0
 34 75  2  0  0  0  0
 35 60  1  0  0  0  0
 35 66  1  0  0  0  0
 35 76  2  0  0  0  0
 36 61  1  0  0  0  0
 36 71  1  0  0  0  0
 36 77  2  0  0  0  0
 37 67  1  0  0  0  0
 37 72  1  0  0  0  0
 37 78  2  0  0  0  0
 38 41  1  0  0  0  0
 39 50  1  0  0  0  0
 40 66  1  0  0  0  0
 41 43  1  0  0  0  0
 42 44  1  0  0  0  0
 42 46  1  0  0  0  0
 43 49  1  0  0  0  0
 44 51  1  0  0  0  0
 45 48  1  0  0  0  0
 45 52  1  0  0  0  0
 46 67  1  0  0  0  0
 47 51  1  0  0  0  0
 47 67  1  0  0  0  0
 48 52  1  0  0  0  0
 49 70  1  0  0  0  0
 50 66  1  0  0  0  0
 51 65  1  0  0  0  0
 52 72  1  0  0  0  0
 54 61  1  0  0  0  0
 55 62  1  0  0  0  0
 56 62  1  0  0  0  0
 57 62  1  0  0  0  0
 58 73  1  0  0  0  0
 59 80  1  0  0  0  0
 60 62  1  0  0  0  0
 60 71  1  0  0  0  0
 61 73  1  0  0  0  0
 63 65  1  0  0  0  0
M  CHG  1  73   1
M  ISO  4  37 100  59 101  72 100  80 101
M  END
> <Batch ID>
0182

> <Smiles>
CNC(C)C(=O)NC(C(=O)N1Cc2cc([101O:1][101CH2:1]c3cc(C4CC4[100NH:0][100C:0](=O)N4CCCC(n5nc(-c6ccc(Oc7ccc(F)cc7F)cc6)c(C(N)=O)c5N)C4)cc(C)n3)ccc2CC1C(=O)NC1CCCc2ccccc21)C(C)(C)C

> <Shape>
0.221

> <Color>
0.074

> <Negative vol penalty>
0.000

$$$$

  -OEChem-04052323053D

 82 91  0     1  0  0  0  0  0999 V2000
  -16.4756  -29.1475   24.1657 C   0  0  0  0  0  0  0  0  0  0  0  0
  -17.4641  -28.2528   24.5631 C   0  0  0  0  0  0  0  0  0  0  0  0
  -26.3647  -15.1166   20.2400 C   0  0  0  0  0  0  0  0  0  0  0  0
  -28.2278  -14.2022   21.4769 C   0  0  0  0  0  0  0  0  0  0  0  0
  -16.7644  -30.1272   23.2167 C   0  0  0  0  0  0  0  0  0  0  0  0
  -18.7417  -28.3366   24.0107 C   0  0  0  0  0  0  0  0  0  0  0  0
  -25.6268  -27.2782   25.6818 C   0  0  0  0  0  0  0  0  0  0  0  0
  -25.8822  -13.8276   20.0137 C   0  0  0  0  0  0  0  0  0  0  0  0
  -27.7453  -12.9131   21.2506 C   0  0  0  0  0  0  0  0  0  0  0  0
  -26.7569  -26.6067   25.2174 C   0  0  0  0  0  0  0  0  0  0  0  0
  -24.1677  -11.4724   21.7303 C   0  0  0  0  0  0  0  0  0  0  0  0
  -22.8036  -11.2488   21.9168 C   0  0  0  0  0  0  0  0  0  0  0  0
  -27.1628  -28.3901   23.6445 C   0  0  0  0  0  0  0  0  0  0  0  0
  -22.5987  -10.5723   19.6065 C   0  0  0  0  0  0  0  0  0  0  0  0
  -27.5375  -15.3039   20.9716 C   0  0  0  0  0  0  0  0  0  0  0  0
  -27.7314  -17.4795   22.2896 C   0  0  0  0  0  0  0  0  0  0  0  0
  -18.0489  -30.2291   22.6595 C   0  0  0  0  0  0  0  0  0  0  0  0
  -25.2494  -28.5076   25.1226 C   0  0  0  0  0  0  0  0  0  0  0  0
  -19.0476  -29.3177   23.0523 C   0  0  0  0  0  0  0  0  0  0  0  0
  -26.0289  -29.0764   24.1053 C   0  0  0  0  0  0  0  0  0  0  0  0
  -26.5725  -12.7258   20.5190 C   0  0  0  0  0  0  0  0  0  0  0  0
  -27.5234  -27.1612   24.1966 C   0  0  0  0  0  0  0  0  0  0  0  0
  -24.7474  -11.2461   20.4819 C   0  0  0  0  0  0  0  0  0  0  0  0
  -28.8074  -26.4273   22.3703 C   0  0  0  0  0  0  0  0  0  1  0  0
  -22.0191  -10.7987   20.8549 C   0  0  0  0  0  0  0  0  0  0  0  0
  -23.9629  -10.7960   19.4200 C   0  0  0  0  0  0  0  0  0  0  0  0
  -28.0366  -16.6352   21.2052 C   0  0  0  0  0  0  0  0  0  0  0  0
  -27.9784  -25.8469   21.3917 C   0  0  0  0  0  0  0  0  0  0  0  0
  -29.8782  -26.9199   21.6651 C   0  0  0  0  0  0  0  0  0  0  0  0
  -28.4535  -18.6227   22.0486 C   0  0  0  0  0  0  0  0  0  0  0  0
  -26.8719  -17.2507   23.4142 C   0  0  0  0  0  0  0  0  0  0  0  0
  -22.7011  -29.5663   23.5448 C   0  0  0  0  0  0  0  0  0  0  0  0
  -24.2071  -32.4267   23.8143 C   0  0  0  0  0  0  0  0  0  0  0  0
  -27.1334  -34.1323   24.2319 C   0  0  0  0  0  0  0  0  0  0  0  0
  -29.9607  -22.5831   18.5278 C   0  0  0  0  0  0  0  0  0  0  0  0
  -18.3006  -31.2747   21.6021 C   0  0  0  0  0  0  0  0  0  0  0  0
  -24.0427  -29.2322   25.6530 C   0  0  0  0  0  0  0  0  0  0  0  0
  -25.6781  -30.4035   23.4855 C   0  0  0  0  0  0  0  0  0  0  0  0
  -19.7823  -31.5334   21.3419 C   0  0  0  0  0  0  0  0  0  0  0  0
  -32.1029  -19.5845   18.7073 C   0  0  0  0  0  0  0  0  0  0  0  0
  -20.5381  -30.2156   21.2035 C   0  0  0  0  0  0  0  0  0  0  0  0
  -31.1763  -18.6043   19.4205 C   0  0  0  0  0  0  0  0  0  0  0  0
  -31.8324  -25.6968   17.3515 C   0  0  0  0  0  0  0  0  0  0  0  0
  -31.3342  -20.5421   17.7978 C   0  0  0  0  0  0  0  0  0  0  0  0
  -29.3125  -20.2946   19.2105 C   0  0  0  0  0  0  0  0  0  0  0  0
  -20.4523  -29.3923   22.4944 C   0  0  1  0  0  0  0  0  0  0  0  0
  -23.4604  -30.2312   24.6580 C   0  0  1  0  0  0  0  0  0  0  0  0
  -31.2550  -25.7172   18.7385 C   0  0  2  0  0  0  0  0  0  0  0  0
  -30.0631  -19.3553   20.1669 C   0  0  1  0  0  0  0  0  0  0  0  0
  -30.6669  -24.8046   17.6924 C   0  0  2  0  0  0  0  0  0  0  0  0
  -26.6866  -25.1680   21.5932 C   0  0  0  0  0  0  0  0  0  0  0  0
  -31.0880  -27.6383   22.1083 C   0  0  0  0  0  0  0  0  0  0  0  0
  -28.0520  -36.4633   24.3727 C   0  0  0  0  0  0  0  0  0  0  0  0
  -23.9304  -32.7160   20.7894 C   0  0  0  0  0  0  0  0  0  0  0  0
  -25.6541  -34.5298   20.8752 C   0  0  0  0  0  0  0  0  0  0  0  0
  -23.4892  -34.8107   22.0824 C   0  0  0  0  0  0  0  0  0  0  0  0
  -28.1409  -33.6936   26.9799 C   0  0  0  0  0  0  0  0  0  0  0  0
  -30.4740  -26.9265   19.2236 C   0  0  0  0  0  0  0  0  0  0  0  0
  -25.2087  -33.1902   22.9819 C   0  0  1  0  0  0  0  0  0  0  0  0
  -27.5089  -35.2775   25.1548 C   0  0  2  0  0  0  0  0  0  0  0  0
  -24.5764  -33.7857   21.6924 C   0  0  0  0  0  0  0  0  0  0  0  0
  -28.8864  -17.1945   20.3397 N   0  0  0  0  0  0  0  0  0  0  0  0
  -28.4794  -25.9595   20.1587 N   0  0  0  0  0  0  0  0  0  0  0  0
  -29.6349  -26.6164   20.3578 N   0  0  0  0  0  0  0  0  0  0  0  0
  -29.1211  -18.4024   20.8799 N   0  0  0  0  0  0  0  0  0  0  0  0
  -24.4855  -31.0702   24.0339 N   0  0  0  0  0  0  0  0  0  0  0  0
  -30.2327  -21.2030   18.5154 N   0  0  0  0  0  0  0  0  0  0  0  0
  -28.5761  -19.7848   22.7245 N   0  0  0  0  0  0  0  0  0  0  0  0
  -26.2059  -16.0210   23.5069 N   0  0  0  0  0  0  0  0  0  0  0  0
  -21.3651  -29.9147   23.4886 N   0  0  0  0  0  0  0  0  0  0  0  0
  -25.8041  -34.1835   23.8691 N   0  0  0  0  0  0  0  0  0  0  0  0
  -30.8229  -23.3772   17.7803 N   0  0  0  0  0  0  0  0  0  0  0  0
  -28.5500  -34.8392   26.1270 N   0  3  0  0  0  0  0  0  0  0  0  0
  -26.6869  -18.1175   24.3018 O   0  0  0  0  0  0  0  0  0  0  0  0
  -23.2846  -28.7955   22.7918 O   0  0  0  0  0  0  0  0  0  0  0  0
  -23.2178  -33.0140   24.2593 O   0  0  0  0  0  0  0  0  0  0  0  0
  -27.9396  -33.2798   23.8660 O   0  0  0  0  0  0  0  0  0  0  0  0
  -29.0150  -23.0737   19.1544 O   0  0  0  0  0  0  0  0  0  0  0  0
  -26.1019  -11.4679   20.2986 O   0  0  0  0  0  0  0  0  0  0  0  0
  -28.6266  -26.5075   23.7410 O   0  0  0  0  0  0  0  0  0  1  0  0
  -20.7095  -10.5825   21.0346 F   0  0  0  0  0  0  0  0  0  0  0  0
  -24.5143  -10.5756   18.2187 F   0  0  0  0  0  0  0  0  0  0  0  0
  1  2  1  0  0  0  0
  1  5  2  0  0  0  0
  2  6  2  0  0  0  0
  3  8  2  0  0  0  0
  3 15  1  0  0  0  0
  4  9  1  0  0  0  0
  4 15  2  0  0  0  0
  5 17  1  0  0  0  0
  6 19  1  0  0  0  0
  7 10  2  0  0  0  0
  7 18  1  0  0  0  0
  8 21  1  0  0  0  0
  9 21  2  0  0  0  0
 10 22  1  0  0  0  0
 11 12  2  0  0  0  0
 11 23  1  0  0  0  0
 12 25  1  0  0  0  0
 13 20  1  0  0  0  0
 13 22  2  0  0  0  0
 14 25  2  0  0  0  0
 14 26  1  0  0  0  0
 15 27  1  0  0  0  0
 16 27  1  0  0  0  0
 16 30  2  0  0  0  0
 16 31  1  0  0  0  0
 17 19  2  0  0  0  0
 17 36  1  0  0  0  0
 18 20  2  0  0  0  0
 18 37  1  0  0  0  0
 19 46  1  0  0  0  0
 20 38  1  0  0  0  0
 21 79  1  0  0  0  0
 22 80  1  0  0  0  0
 23 26  2  0  0  0  0
 23 79  1  0  0  0  0
 24 28  1  0  0  0  0
 24 29  2  0  0  0  0
 24 80  1  0  0  0  0
 25 81  1  0  0  0  0
 26 82  1  0  0  0  0
 27 62  2  0  0  0  0
 28 51  1  0  0  0  0
 28 63  2  0  0  0  0
 29 52  1  0  0  0  0
 29 64  1  0  0  0  0
 30 65  1  0  0  0  0
 30 68  1  0  0  0  0
 31 69  1  0  0  0  0
 31 74  2  0  0  0  0
 32 47  1  0  0  0  0
 32 70  1  0  0  0  0
 32 75  2  0  0  0  0
 33 59  1  0  0  0  0
 33 66  1  0  0  0  0
 33 76  2  0  0  0  0
 34 60  1  0  0  0  0
 34 71  1  0  0  0  0
 34 77  2  0  0  0  0
 35 67  1  0  0  0  0
 35 72  1  0  0  0  0
 35 78  2  0  0  0  0
 36 39  1  0  0  0  0
 37 47  1  0  0  0  0
 38 66  1  0  0  0  0
 39 41  1  0  0  0  0
 40 42  1  0  0  0  0
 40 44  1  0  0  0  0
 41 46  1  0  0  0  0
 42 49  1  0  0  0  0
 43 48  1  0  0  0  0
 43 50  1  0  0  0  0
 44 67  1  0  0  0  0
 45 49  1  0  0  0  0
 45 67  1  0  0  0  0
 46 70  1  0  0  0  0
 47 66  1  0  0  0  0
 48 50  1  0  0  0  0
 48 58  1  0  0  0  0
 49 65  1  0  0  0  0
 50 72  1  0  0  0  0
 53 60  1  0  0  0  0
 54 61  1  0  0  0  0
 55 61  1  0  0  0  0
 56 61  1  0  0  0  0
 57 73  1  0  0  0  0
 58 64  1  0  0  0  0
 59 61  1  0  0  0  0
 59 71  1  0  0  0  0
 60 73  1  0  0  0  0
 62 65  1  0  0  0  0
 63 64  1  0  0  0  0
M  CHG  1  73   1
M  ISO  4  24 101  35 100  72 100  80 101
M  END
> <Batch ID>
0182

> <Smiles>
CNC(C)C(=O)NC(C(=O)N1Cc2cc([101O:1][101c:1]3c(C)nn(CC4CC4[100NH:0][100C:0](=O)N4CCCC(n5nc(-c6ccc(Oc7ccc(F)cc7F)cc6)c(C(N)=O)c5N)C4)c3C)ccc2CC1C(=O)NC1CCCc2ccccc21)C(C)(C)C

> <Shape>
0.271

> <Color>
0.109

> <Negative vol penalty>
0.000

$$$$

  -OEChem-04052323053D

 83 92  0     1  0  0  0  0  0999 V2000
  -26.4533  -37.7453   22.0626 C   0  0  0  0  0  0  0  0  0  0  0  0
  -27.0949  -36.7445   21.3400 C   0  0  0  0  0  0  0  0  0  0  0  0
  -23.1077  -10.9398   20.9917 C   0  0  0  0  0  0  0  0  0  0  0  0
  -24.4930   -9.2310   21.9909 C   0  0  0  0  0  0  0  0  0  0  0  0
  -25.7025  -37.4170   23.1907 C   0  0  0  0  0  0  0  0  0  0  0  0
  -26.9869  -35.4148   21.7458 C   0  0  0  0  0  0  0  0  0  0  0  0
  -26.7400  -28.7684   19.0847 C   0  0  0  0  0  0  0  0  0  0  0  0
  -28.7396  -21.4158   19.9883 C   0  0  0  0  0  0  0  0  0  0  0  0
  -22.0589  -10.0266   20.8840 C   0  0  0  0  0  0  0  0  0  0  0  0
  -23.4441   -8.3179   21.8833 C   0  0  0  0  0  0  0  0  0  0  0  0
  -27.3564  -27.5264   19.2302 C   0  0  0  0  0  0  0  0  0  0  0  0
  -20.5875   -7.6015   23.5408 C   0  0  0  0  0  0  0  0  0  0  0  0
  -20.3175   -6.7940   24.6456 C   0  0  0  0  0  0  0  0  0  0  0  0
  -28.2286  -22.6800   19.7161 C   0  0  0  0  0  0  0  0  0  0  0  0
  -25.9675  -27.0687   21.1488 C   0  0  0  0  0  0  0  0  0  0  0  0
  -20.7429   -4.8257   23.3106 C   0  0  0  0  0  0  0  0  0  0  0  0
  -30.8805  -22.4048   20.2968 C   0  0  0  0  0  0  0  0  0  0  0  0
  -24.3248  -10.5420   21.5450 C   0  0  0  0  0  0  0  0  0  0  0  0
  -25.6836  -12.3406   22.7393 C   0  0  0  0  0  0  0  0  0  0  0  0
  -25.5774  -36.0816   23.6048 C   0  0  0  0  0  0  0  0  0  0  0  0
  -25.7387  -29.1752   19.9781 C   0  0  0  0  0  0  0  0  0  0  0  0
  -26.2348  -35.0684   22.8812 C   0  0  0  0  0  0  0  0  0  0  0  0
  -25.3382  -28.3154   21.0108 C   0  0  0  0  0  0  0  0  0  0  0  0
  -30.0898  -21.2670   20.2851 C   0  0  0  0  0  0  0  0  0  0  0  0
  -22.2270   -8.7157   21.3299 C   0  0  0  0  0  0  0  0  0  0  0  0
  -26.9722  -26.6775   20.2641 C   0  0  0  0  0  0  0  0  0  0  0  0
  -20.9351   -7.0212   22.3209 C   0  0  0  0  0  0  0  0  0  0  0  0
  -20.3952   -5.4060   24.5305 C   0  0  0  0  0  0  0  0  0  0  0  0
  -21.0129   -5.6333   22.2059 C   0  0  0  0  0  0  0  0  0  0  0  0
  -25.4089  -11.4847   21.6559 C   0  0  0  0  0  0  0  0  0  0  0  0
  -29.1025  -23.7545   19.7534 C   0  0  0  0  0  0  0  0  0  0  0  0
  -26.8093  -13.0283   22.3567 C   0  0  0  0  0  0  0  0  0  0  0  0
  -24.9839  -12.4999   23.9805 C   0  0  0  0  0  0  0  0  0  0  0  0
  -25.4189  -31.5608   22.0542 C   0  0  0  0  0  0  0  0  0  0  0  0
  -22.4121  -30.3807   22.3527 C   0  0  0  0  0  0  0  0  0  0  0  0
  -20.3031  -27.7146   22.0521 C   0  0  0  0  0  0  0  0  0  0  0  0
  -29.4233  -15.9296   18.2790 C   0  0  0  0  0  0  0  0  0  0  0  0
  -24.7939  -35.7806   24.8579 C   0  0  0  0  0  0  0  0  0  0  0  0
  -25.0649  -30.5070   19.7915 C   0  0  0  0  0  0  0  0  0  0  0  0
  -24.2541  -28.6964   21.9845 C   0  0  0  0  0  0  0  0  0  0  0  0
  -24.4218  -34.3074   25.0045 C   0  0  0  0  0  0  0  0  0  0  0  0
  -29.9665  -12.3047   18.4740 C   0  0  0  0  0  0  0  0  0  0  0  0
  -25.6286  -33.4205   24.7150 C   0  0  0  0  0  0  0  0  0  0  0  0
  -28.8193  -11.8380   19.3712 C   0  0  0  0  0  0  0  0  0  0  0  0
  -30.5881  -17.6737   21.2986 C   0  0  0  0  0  0  0  0  0  0  0  0
  -29.5920  -13.5450   17.6659 C   0  0  0  0  0  0  0  0  0  0  0  0
  -29.8949  -16.4317   20.7481 C   0  0  0  0  0  0  0  0  0  0  0  0
  -27.9290  -14.1974   19.3635 C   0  0  0  0  0  0  0  0  0  0  0  0
  -29.6908  -18.2275   19.1674 C   0  0  0  0  0  0  0  0  0  0  0  0
  -26.1211  -33.6118   23.2754 C   0  0  1  0  0  0  0  0  0  0  0  0
  -24.4158  -31.0324   21.0682 C   0  0  1  0  0  0  0  0  0  0  0  0
  -28.2912  -12.9926   20.2430 C   0  0  1  0  0  0  0  0  0  0  0  0
  -29.8636  -18.7983   20.5669 C   0  0  2  0  0  0  0  0  0  0  0  0
  -17.9104  -27.0459   22.4062 C   0  0  0  0  0  0  0  0  0  0  0  0
  -22.8963  -30.2509   25.3624 C   0  0  0  0  0  0  0  0  0  0  0  0
  -20.9138  -28.7329   25.5455 C   0  0  0  0  0  0  0  0  0  0  0  0
  -20.6243  -31.0638   24.7054 C   0  0  0  0  0  0  0  0  0  0  0  0
  -19.9376  -27.0710   19.1866 C   0  0  0  0  0  0  0  0  0  0  0  0
  -28.5883  -25.1257   19.4666 C   0  0  0  0  0  0  0  0  0  1  0  0
  -21.7520  -29.3464   23.2321 C   0  0  1  0  0  0  0  0  0  0  0  0
  -18.9316  -27.5819   21.4150 C   0  0  2  0  0  0  0  0  0  0  0  0
  -21.5684  -29.8418   24.6944 C   0  0  0  0  0  0  0  0  0  0  0  0
  -30.4200  -23.6491   20.0377 N   0  0  0  0  0  0  0  0  0  0  0  0
  -26.2890  -11.6150   20.6598 N   0  0  0  0  0  0  0  0  0  0  0  0
  -27.1278  -12.5609   21.1156 N   0  0  0  0  0  0  0  0  0  0  0  0
  -23.6299  -30.0115   21.7641 N   0  0  0  0  0  0  0  0  0  0  0  0
  -29.0708  -14.6000   18.5354 N   0  0  0  0  0  0  0  0  0  0  0  0
  -29.5441  -16.7882   19.3709 N   0  0  0  0  0  0  0  0  0  0  0  0
  -27.5479  -13.9812   22.9641 N   0  0  0  0  0  0  0  0  0  0  0  0
  -23.8465  -11.7142   24.2119 N   0  0  0  0  0  0  0  0  0  0  0  0
  -30.6282  -20.0174   20.5608 N   0  0  0  0  0  0  0  0  0  0  0  0
  -25.2646  -32.9019   22.3497 N   0  0  0  0  0  0  0  0  0  0  0  0
  -20.5078  -28.9779   22.5654 N   0  0  0  0  0  0  0  0  0  0  0  0
  -18.9890  -26.6533   20.2508 N   0  3  0  0  0  0  0  0  0  0  0  0
  -25.3466  -13.3264   24.8516 O   0  0  0  0  0  0  0  0  0  0  0  0
  -26.2688  -30.8073   22.5141 O   0  0  0  0  0  0  0  0  0  0  0  0
  -21.8638  -31.4734   22.1881 O   0  0  0  0  0  0  0  0  0  0  0  0
  -21.1105  -26.7889   22.0939 O   0  0  0  0  0  0  0  0  0  0  0  0
  -29.6657  -16.3215   17.1298 O   0  0  0  0  0  0  0  0  0  0  0  0
  -21.2037   -7.8244   21.2253 O   0  0  0  0  0  0  0  0  0  0  0  0
  -27.5768  -25.4565   20.4098 O   0  0  0  0  0  0  0  0  0  1  0  0
  -20.1374   -4.6307   25.5919 F   0  0  0  0  0  0  0  0  0  0  0  0
  -21.3475   -5.0700   21.0369 F   0  0  0  0  0  0  0  0  0  0  0  0
  1  2  1  0  0  0  0
  1  5  2  0  0  0  0
  2  6  2  0  0  0  0
  3  9  2  0  0  0  0
  3 18  1  0  0  0  0
  4 10  1  0  0  0  0
  4 18  2  0  0  0  0
  5 20  1  0  0  0  0
  6 22  1  0  0  0  0
  7 11  2  0  0  0  0
  7 21  1  0  0  0  0
  8 14  2  0  0  0  0
  8 24  1  0  0  0  0
  9 25  1  0  0  0  0
 10 25  2  0  0  0  0
 11 26  1  0  0  0  0
 12 13  2  0  0  0  0
 12 27  1  0  0  0  0
 13 28  1  0  0  0  0
 14 31  1  0  0  0  0
 15 23  1  0  0  0  0
 15 26  2  0  0  0  0
 16 28  2  0  0  0  0
 16 29  1  0  0  0  0
 17 24  2  0  0  0  0
 17 63  1  0  0  0  0
 18 30  1  0  0  0  0
 19 30  1  0  0  0  0
 19 32  2  0  0  0  0
 19 33  1  0  0  0  0
 20 22  2  0  0  0  0
 20 38  1  0  0  0  0
 21 23  2  0  0  0  0
 21 39  1  0  0  0  0
 22 50  1  0  0  0  0
 23 40  1  0  0  0  0
 24 71  1  0  0  0  0
 25 80  1  0  0  0  0
 26 81  1  0  0  0  0
 27 29  2  0  0  0  0
 27 80  1  0  0  0  0
 28 82  1  0  0  0  0
 29 83  1  0  0  0  0
 30 64  2  0  0  0  0
 31 59  1  0  0  0  0
 31 63  2  0  0  0  0
 32 65  1  0  0  0  0
 32 69  1  0  0  0  0
 33 70  1  0  0  0  0
 33 75  2  0  0  0  0
 34 51  1  0  0  0  0
 34 72  1  0  0  0  0
 34 76  2  0  0  0  0
 35 60  1  0  0  0  0
 35 66  1  0  0  0  0
 35 77  2  0  0  0  0
 36 61  1  0  0  0  0
 36 73  1  0  0  0  0
 36 78  2  0  0  0  0
 37 67  1  0  0  0  0
 37 68  1  0  0  0  0
 37 79  2  0  0  0  0
 38 41  1  0  0  0  0
 39 51  1  0  0  0  0
 40 66  1  0  0  0  0
 41 43  1  0  0  0  0
 42 44  1  0  0  0  0
 42 46  1  0  0  0  0
 43 50  1  0  0  0  0
 44 52  1  0  0  0  0
 45 47  1  0  0  0  0
 45 53  1  0  0  0  0
 46 67  1  0  0  0  0
 47 68  1  0  0  0  0
 48 52  1  0  0  0  0
 48 67  1  0  0  0  0
 49 53  1  0  0  0  0
 49 68  1  0  0  0  0
 50 72  1  0  0  0  0
 51 66  1  0  0  0  0
 52 65  1  0  0  0  0
 53 71  1  0  0  0  0
 54 61  1  0  0  0  0
 55 62  1  0  0  0  0
 56 62  1  0  0  0  0
 57 62  1  0  0  0  0
 58 74  1  0  0  0  0
 59 81  1  0  0  0  0
 60 62  1  0  0  0  0
 60 73  1  0  0  0  0
 61 74  1  0  0  0  0
 64 65  1  0  0  0  0
M  CHG  1  74   1
M  ISO  4  37 100  59 101  68 100  81 101
M  END
> <Batch ID>
0182

> <Smiles>
CNC(C)C(=O)NC(C(=O)N1Cc2cc([101O:1][101CH2:1]c3ccc(NC4CC[100N:0]([100C:0](=O)N5CCCC(n6nc(-c7ccc(Oc8ccc(F)cc8F)cc7)c(C(N)=O)c6N)C5)C4)cn3)ccc2CC1C(=O)NC1CCCc2ccccc21)C(C)(C)C

> <Shape>
0.381

> <Color>
0.095

> <Negative vol penalty>
0.000

$$$$

  -OEChem-04052323053D

 83 93  0     1  0  0  0  0  0999 V2000
  -21.5832  -12.2818   19.9351 C   0  0  0  0  0  0  0  0  0  0  0  0
  -21.6016  -13.4885   20.6271 C   0  0  0  0  0  0  0  0  0  0  0  0
  -25.6840  -30.5656   21.1631 C   0  0  0  0  0  0  0  0  0  0  0  0
  -25.9284  -28.1718   20.9463 C   0  0  0  0  0  0  0  0  0  0  0  0
  -22.7748  -11.5984   19.6961 C   0  0  0  0  0  0  0  0  0  0  0  0
  -22.8115  -14.0120   21.0815 C   0  0  0  0  0  0  0  0  0  0  0  0
  -23.2505  -18.9721   20.1596 C   0  0  0  0  0  0  0  0  0  0  0  0
  -26.9583  -30.7445   20.6249 C   0  0  0  0  0  0  0  0  0  0  0  0
  -27.2028  -28.3507   20.4080 C   0  0  0  0  0  0  0  0  0  0  0  0
  -22.5645  -19.8405   21.0076 C   0  0  0  0  0  0  0  0  0  0  0  0
  -30.3164  -29.0170   21.5449 C   0  0  0  0  0  0  0  0  0  0  0  0
  -31.3411  -28.1985   22.0196 C   0  0  0  0  0  0  0  0  0  0  0  0
  -24.6075  -20.2611   22.2196 C   0  0  0  0  0  0  0  0  0  0  0  0
  -31.6898  -27.3408   19.7880 C   0  0  0  0  0  0  0  0  0  0  0  0
  -25.1690  -29.2792   21.3239 C   0  0  0  0  0  0  0  0  0  0  0  0
  -22.6341  -29.0326   21.1785 C   0  0  0  0  0  0  0  0  0  0  0  0
  -24.0009  -12.1186   20.1394 C   0  0  0  0  0  0  0  0  0  0  0  0
  -24.6201  -18.7329   20.3423 C   0  0  0  0  0  0  0  0  0  0  0  0
  -24.0204  -13.3343   20.8494 C   0  0  0  0  0  0  0  0  0  0  0  0
  -25.3090  -19.3912   21.3709 C   0  0  0  0  0  0  0  0  0  0  0  0
  -27.7177  -29.6371   20.2473 C   0  0  0  0  0  0  0  0  0  0  0  0
  -23.2424  -20.4829   22.0396 C   0  0  0  0  0  0  0  0  0  0  0  0
  -29.9782  -28.9974   20.1917 C   0  0  0  0  0  0  0  0  0  0  0  0
  -32.0279  -27.3604   21.1412 C   0  0  0  0  0  0  0  0  0  0  0  0
  -30.6650  -28.1594   19.3133 C   0  0  0  0  0  0  0  0  0  0  0  0
  -23.8530  -29.0937   21.8803 C   0  0  0  0  0  0  0  0  0  0  0  0
  -21.6852  -28.8465   22.1539 C   0  0  0  0  0  0  0  0  0  0  0  0
  -22.3822  -29.1348   19.7708 C   0  0  0  0  0  0  0  0  0  0  0  0
  -26.3797  -16.1730   21.0167 C   0  0  0  0  0  0  0  0  0  0  0  0
  -28.8467  -18.2180   20.5123 C   0  0  0  0  0  0  0  0  0  0  0  0
  -29.9723  -21.4391   20.4449 C   0  0  0  0  0  0  0  0  0  0  0  0
  -21.9024  -26.5028   27.6595 C   0  0  0  0  0  0  0  0  0  0  0  0
  -25.2577  -11.3203   19.8986 C   0  0  0  0  0  0  0  0  0  0  0  0
  -25.3512  -17.8139   19.4024 C   0  0  0  0  0  0  0  0  0  0  0  0
  -26.7837  -19.1841   21.5968 C   0  0  0  0  0  0  0  0  0  0  0  0
  -26.5385  -12.1293   20.0865 C   0  0  0  0  0  0  0  0  0  0  0  0
  -20.8254  -29.7772   26.7676 C   0  0  0  0  0  0  0  0  0  0  0  0
  -26.4727  -12.9413   21.3762 C   0  0  0  0  0  0  0  0  0  0  0  0
  -21.3692  -29.9678   25.3506 C   0  0  0  0  0  0  0  0  0  0  0  0
  -18.7516  -23.4545   25.4930 C   0  0  0  0  0  0  0  0  0  0  0  0
  -19.3941  -24.8080   25.4433 C   0  0  0  0  0  0  0  0  0  0  0  0
  -20.9829  -21.9195   27.4465 C   0  0  0  0  0  0  0  0  0  0  0  0
  -21.2013  -23.0968   24.7119 C   0  0  0  0  0  0  0  0  0  0  0  0
  -21.7907  -28.9774   27.6397 C   0  0  0  0  0  0  0  0  0  0  0  0
  -22.7499  -27.8706   25.6576 C   0  0  0  0  0  0  0  0  0  0  0  0
  -25.3156  -13.9468   21.3366 C   0  0  1  0  0  0  0  0  0  0  0  0
  -26.6363  -17.2482   19.9989 C   0  0  1  0  0  0  0  0  0  0  0  0
  -22.2650  -21.7518   26.6177 C   0  0  1  0  0  0  0  0  0  0  0  0
  -20.6926  -23.4054   27.2182 C   0  0  1  0  0  0  0  0  0  0  0  0
  -21.8619  -21.7657   25.1184 C   0  0  2  0  0  0  0  0  0  0  0  0
  -21.7862  -28.6234   24.7244 C   0  0  2  0  0  0  0  0  0  0  0  0
  -22.0685  -24.0303   27.5253 C   0  0  1  0  0  0  0  0  0  0  0  0
  -23.0940  -22.9929   27.0185 C   0  0  1  0  0  0  0  0  0  0  0  0
  -20.2334  -23.5934   25.7732 C   0  0  0  0  0  0  0  0  0  0  0  0
  -32.0451  -22.7933   20.0359 C   0  0  0  0  0  0  0  0  0  0  0  0
  -29.9110  -17.4131   23.2562 C   0  0  0  0  0  0  0  0  0  0  0  0
  -31.3896  -19.4327   23.1979 C   0  0  0  0  0  0  0  0  0  0  0  0
  -31.6610  -17.6405   21.4841 C   0  0  0  0  0  0  0  0  0  0  0  0
  -28.7317  -22.8643   18.1670 C   0  0  0  0  0  0  0  0  0  0  0  0
  -23.0455  -21.4472   24.2046 C   0  0  0  0  0  0  0  0  0  1  0  0
  -29.6456  -19.1633   21.3767 C   0  0  1  0  0  0  0  0  0  0  0  0
  -30.7899  -22.1991   19.4161 C   0  0  2  0  0  0  0  0  0  0  0  0
  -30.6236  -18.4150   22.3260 C   0  0  0  0  0  0  0  0  0  0  0  0
  -23.6957  -28.9577   23.1997 N   0  0  0  0  0  0  0  0  0  0  0  0
  -22.3668  -28.8093   23.3347 N   0  0  0  0  0  0  0  0  0  0  0  0
  -27.4529  -18.2713   20.6553 N   0  0  0  0  0  0  0  0  0  0  0  0
  -22.1452  -27.7134   26.9897 N   0  0  0  0  0  0  0  0  0  0  0  0
  -20.3427  -28.7128   22.1082 N   0  0  0  0  0  0  0  0  0  0  0  0
  -23.4713  -29.3248   18.9092 N   0  0  0  0  0  0  0  0  0  0  0  0
  -25.6697  -15.0932   20.5274 N   0  0  0  0  0  0  0  0  0  0  0  0
  -30.2958  -20.0989   20.4655 N   0  0  0  0  0  0  0  0  0  0  0  0
  -22.2620  -25.3513   26.9701 N   0  0  0  0  0  0  0  0  0  0  0  0
  -23.9987  -22.6291   28.1470 N   0  3  0  0  0  0  0  0  0  0  0  0
  -29.9844  -23.3080   18.8309 N   0  3  0  0  0  0  0  0  0  0  0  0
  -21.2240  -29.0763   19.2926 O   0  0  0  0  0  0  0  0  0  0  0  0
  -26.7963  -16.3121   22.1607 O   0  0  0  0  0  0  0  0  0  0  0  0
  -29.4371  -17.4654   19.7335 O   0  0  0  0  0  0  0  0  0  0  0  0
  -29.1334  -21.9809   21.1613 O   0  0  0  0  0  0  0  0  0  0  0  0
  -21.3974  -26.4518   28.7861 O   0  0  0  0  0  0  0  0  0  0  0  0
  -28.9611  -29.8113   19.7218 O   0  0  0  0  0  0  0  0  0  0  0  0
  -22.5688  -21.3385   22.8769 O   0  0  0  0  0  0  0  0  0  1  0  0
  -33.0130  -26.5755   21.5969 F   0  0  0  0  0  0  0  0  0  0  0  0
  -30.3454  -28.1371   18.0121 F   0  0  0  0  0  0  0  0  0  0  0  0
  1  2  1  0  0  0  0
  1  5  2  0  0  0  0
  2  6  2  0  0  0  0
  3  8  2  0  0  0  0
  3 15  1  0  0  0  0
  4  9  1  0  0  0  0
  4 15  2  0  0  0  0
  5 17  1  0  0  0  0
  6 19  1  0  0  0  0
  7 10  2  0  0  0  0
  7 18  1  0  0  0  0
  8 21  1  0  0  0  0
  9 21  2  0  0  0  0
 10 22  1  0  0  0  0
 11 12  2  0  0  0  0
 11 23  1  0  0  0  0
 12 24  1  0  0  0  0
 13 20  1  0  0  0  0
 13 22  2  0  0  0  0
 14 24  2  0  0  0  0
 14 25  1  0  0  0  0
 15 26  1  0  0  0  0
 16 26  1  0  0  0  0
 16 27  2  0  0  0  0
 16 28  1  0  0  0  0
 17 19  2  0  0  0  0
 17 33  1  0  0  0  0
 18 20  2  0  0  0  0
 18 34  1  0  0  0  0
 19 46  1  0  0  0  0
 20 35  1  0  0  0  0
 21 80  1  0  0  0  0
 22 81  1  0  0  0  0
 23 25  2  0  0  0  0
 23 80  1  0  0  0  0
 24 82  1  0  0  0  0
 25 83  1  0  0  0  0
 26 64  2  0  0  0  0
 27 65  1  0  0  0  0
 27 68  1  0  0  0  0
 28 69  1  0  0  0  0
 28 75  2  0  0  0  0
 29 47  1  0  0  0  0
 29 70  1  0  0  0  0
 29 76  2  0  0  0  0
 30 61  1  0  0  0  0
 30 66  1  0  0  0  0
 30 77  2  0  0  0  0
 31 62  1  0  0  0  0
 31 71  1  0  0  0  0
 31 78  2  0  0  0  0
 32 67  1  0  0  0  0
 32 72  1  0  0  0  0
 32 79  2  0  0  0  0
 33 36  1  0  0  0  0
 34 47  1  0  0  0  0
 35 66  1  0  0  0  0
 36 38  1  0  0  0  0
 37 39  1  0  0  0  0
 37 44  1  0  0  0  0
 38 46  1  0  0  0  0
 39 51  1  0  0  0  0
 40 41  1  0  0  0  0
 40 54  1  0  0  0  0
 41 54  1  0  0  0  0
 42 48  1  0  0  0  0
 42 49  1  0  0  0  0
 43 50  1  0  0  0  0
 43 54  1  0  0  0  0
 44 67  1  0  0  0  0
 45 51  1  0  0  0  0
 45 67  1  0  0  0  0
 46 70  1  0  0  0  0
 47 66  1  0  0  0  0
 48 50  1  0  0  0  0
 48 53  1  0  0  0  0
 49 52  1  0  0  0  0
 49 54  1  0  0  0  0
 50 60  1  0  0  0  0
 51 65  1  0  0  0  0
 52 53  1  0  0  0  0
 52 72  1  0  0  0  0
 53 73  1  0  0  0  0
 55 62  1  0  0  0  0
 56 63  1  0  0  0  0
 57 63  1  0  0  0  0
 58 63  1  0  0  0  0
 59 74  1  0  0  0  0
 60 81  1  0  0  0  0
 61 63  1  0  0  0  0
 61 71  1  0  0  0  0
 62 74  1  0  0  0  0
 64 65  1  0  0  0  0
M  CHG  2  73   1  74   1
M  ISO  4  32 100  60 101  72 100  81 101
M  END
> <Batch ID>
0182

> <Smiles>
CNC(C)C(=O)NC(C(=O)N1Cc2cc([101O:1][101CH2:1]C3CC4(CC4)C4CC3C(N)C4[100NH:0][100C:0](=O)N3CCCC(n4nc(-c5ccc(Oc6ccc(F)cc6F)cc5)c(C(N)=O)c4N)C3)ccc2CC1C(=O)NC1CCCc2ccccc21)C(C)(C)C

> <Shape>
0.202

> <Color>
0.063

> <Negative vol penalty>
0.000

$$$$

  -OEChem-04052323053D

 82 91  0     1  0  0  0  0  0999 V2000
  -16.6675  -26.3621   22.3077 C   0  0  0  0  0  0  0  0  0  0  0  0
  -17.7615  -26.5828   21.4770 C   0  0  0  0  0  0  0  0  0  0  0  0
  -28.0736  -15.8281   20.6173 C   0  0  0  0  0  0  0  0  0  0  0  0
  -30.2268  -14.7695   20.3342 C   0  0  0  0  0  0  0  0  0  0  0  0
  -16.2503  -27.3590   23.1886 C   0  0  0  0  0  0  0  0  0  0  0  0
  -18.4382  -27.8010   21.5261 C   0  0  0  0  0  0  0  0  0  0  0  0
  -23.4698  -27.2286   21.5533 C   0  0  0  0  0  0  0  0  0  0  0  0
  -27.4413  -14.6415   20.2461 C   0  0  0  0  0  0  0  0  0  0  0  0
  -29.5945  -13.5828   19.9631 C   0  0  0  0  0  0  0  0  0  0  0  0
  -24.0849  -26.9443   20.3348 C   0  0  0  0  0  0  0  0  0  0  0  0
  -26.6737  -11.6753   21.6762 C   0  0  0  0  0  0  0  0  0  0  0  0
  -25.5881  -11.2519   22.4429 C   0  0  0  0  0  0  0  0  0  0  0  0
  -24.7204  -29.2615   20.1217 C   0  0  0  0  0  0  0  0  0  0  0  0
  -24.1677  -11.3602   20.4915 C   0  0  0  0  0  0  0  0  0  0  0  0
  -25.4305  -26.7034   15.5074 C   0  0  0  0  0  0  0  0  0  0  0  0
  -29.4663  -15.8922   20.6612 C   0  0  0  0  0  0  0  0  0  0  0  0
  -30.4867  -17.5158   22.3436 C   0  0  0  0  0  0  0  0  0  0  0  0
  -16.9281  -28.5864   23.2553 C   0  0  0  0  0  0  0  0  0  0  0  0
  -23.4660  -28.5359   22.0607 C   0  0  0  0  0  0  0  0  0  0  0  0
  -18.0288  -28.8157   22.4078 C   0  0  0  0  0  0  0  0  0  0  0  0
  -24.1069  -29.5594   21.3481 C   0  0  0  0  0  0  0  0  0  0  0  0
  -28.2018  -13.5188   19.9191 C   0  0  0  0  0  0  0  0  0  0  0  0
  -24.7078  -27.9613   19.6175 C   0  0  0  0  0  0  0  0  0  0  0  0
  -26.5063  -11.9412   20.3171 C   0  0  0  0  0  0  0  0  0  0  0  0
  -24.3351  -11.0943   21.8506 C   0  0  0  0  0  0  0  0  0  0  0  0
  -25.2533  -11.7836   19.7248 C   0  0  0  0  0  0  0  0  0  0  0  0
  -30.1200  -17.1178   21.0440 C   0  0  0  0  0  0  0  0  0  0  0  0
  -27.8540  -25.5837   15.5010 C   0  0  0  0  0  0  0  0  0  0  0  0
  -25.9979  -26.2305   16.6701 C   0  0  0  0  0  0  0  0  0  0  0  0
  -27.2861  -26.0560   14.3383 C   0  0  0  0  0  0  0  0  0  0  0  0
  -31.0708  -18.7472   22.1736 C   0  0  0  0  0  0  0  0  0  0  0  0
  -30.3149  -16.8332   23.5927 C   0  0  0  0  0  0  0  0  0  0  0  0
  -21.2102  -30.6593   22.7721 C   0  0  0  0  0  0  0  0  0  0  0  0
  -23.7209  -32.3590   23.9252 C   0  0  0  0  0  0  0  0  0  0  0  0
  -27.0771  -32.9743   23.8608 C   0  0  0  0  0  0  0  0  0  0  0  0
  -30.3012  -22.8062   17.8804 C   0  0  0  0  0  0  0  0  0  0  0  0
  -16.4111  -29.6514   24.1898 C   0  0  0  0  0  0  0  0  0  0  0  0
  -22.8213  -28.8211   23.3894 C   0  0  0  0  0  0  0  0  0  0  0  0
  -24.1484  -30.9756   21.8591 C   0  0  0  0  0  0  0  0  0  0  0  0
  -17.4123  -30.7747   24.4467 C   0  0  0  0  0  0  0  0  0  0  0  0
  -33.4994  -21.3448   18.9980 C   0  0  0  0  0  0  0  0  0  0  0  0
  -18.0316  -31.2480   23.1356 C   0  0  0  0  0  0  0  0  0  0  0  0
  -33.0125  -20.0953   19.7259 C   0  0  0  0  0  0  0  0  0  0  0  0
  -30.4228  -25.8443   15.5783 C   0  0  0  0  0  0  0  0  0  0  0  0
  -32.6129  -21.6947   17.8035 C   0  0  0  0  0  0  0  0  0  0  0  0
  -30.6818  -20.5756   18.8818 C   0  0  0  0  0  0  0  0  0  0  0  0
  -18.8039  -30.1148   22.4494 C   0  0  1  0  0  0  0  0  0  0  0  0
  -29.2087  -24.9594   15.4920 C   0  0  1  0  0  0  0  0  0  0  0  0
  -22.4323  -30.2860   23.5626 C   0  0  1  0  0  0  0  0  0  0  0  0
  -31.5330  -20.2361   20.1150 C   0  0  1  0  0  0  0  0  0  0  0  0
  -30.0386  -24.9959   16.7542 C   0  0  1  0  0  0  0  0  0  0  0  0
  -27.9949  -25.9640   13.0301 C   0  0  0  0  0  0  0  0  0  0  0  0
  -28.8299  -34.4473   24.8882 C   0  0  0  0  0  0  0  0  0  0  0  0
  -22.7911  -34.6806   22.1772 C   0  0  0  0  0  0  0  0  0  0  0  0
  -25.0397  -35.7332   22.5002 C   0  0  0  0  0  0  0  0  0  0  0  0
  -23.5552  -35.3387   24.4658 C   0  0  0  0  0  0  0  0  0  0  0  0
  -28.5214  -30.6568   25.0018 C   0  0  0  0  0  0  0  0  0  0  0  0
  -25.2623  -26.3345   17.9737 C   0  0  0  0  0  0  0  0  0  1  0  0
  -24.6822  -33.3703   23.3489 C   0  0  1  0  0  0  0  0  0  0  0  0
  -28.0965  -33.1180   24.9765 C   0  0  2  0  0  0  0  0  0  0  0  0
  -24.0148  -34.7545   23.1122 C   0  0  0  0  0  0  0  0  0  0  0  0
  -26.0643  -26.6246   14.3206 N   0  0  0  0  0  0  0  0  0  0  0  0
  -30.4438  -18.0232   20.1169 N   0  0  0  0  0  0  0  0  0  0  0  0
  -27.2199  -25.6622   16.6878 N   0  0  0  0  0  0  0  0  0  0  0  0
  -31.0201  -19.0023   20.8348 N   0  0  0  0  0  0  0  0  0  0  0  0
  -23.4985  -31.2054   23.1600 N   0  0  0  0  0  0  0  0  0  0  0  0
  -31.1933  -21.7619   18.1844 N   0  0  0  0  0  0  0  0  0  0  0  0
  -31.6176  -19.6260   23.0403 N   0  0  0  0  0  0  0  0  0  0  0  0
  -29.6953  -15.5761   23.5875 N   0  0  0  0  0  0  0  0  0  0  0  0
  -20.0874  -29.9186   23.0886 N   0  0  0  0  0  0  0  0  0  0  0  0
  -25.8274  -33.4058   24.2521 N   0  0  0  0  0  0  0  0  0  0  0  0
  -30.8309  -23.8606   17.1452 N   0  0  0  0  0  0  0  0  0  0  0  0
  -29.1022  -32.0206   24.9037 N   0  3  0  0  0  0  0  0  0  0  0  0
  -30.6846  -17.3309   24.6832 O   0  0  0  0  0  0  0  0  0  0  0  0
  -21.2804  -31.5542   21.9379 O   0  0  0  0  0  0  0  0  0  0  0  0
  -23.1925  -32.5810   25.0175 O   0  0  0  0  0  0  0  0  0  0  0  0
  -27.3619  -32.5277   22.7517 O   0  0  0  0  0  0  0  0  0  0  0  0
  -29.1165  -22.7990   18.2327 O   0  0  0  0  0  0  0  0  0  0  0  0
  -27.5852  -12.3607   19.5571 O   0  0  0  0  0  0  0  0  0  0  0  0
  -25.3083  -27.6866   18.4276 O   0  0  0  0  0  0  0  0  0  1  0  0
  -23.2931  -10.6863   22.5866 F   0  0  0  0  0  0  0  0  0  0  0  0
  -25.0866  -12.0364   18.4194 F   0  0  0  0  0  0  0  0  0  0  0  0
  1  2  1  0  0  0  0
  1  5  2  0  0  0  0
  2  6  2  0  0  0  0
  3  8  2  0  0  0  0
  3 16  1  0  0  0  0
  4  9  1  0  0  0  0
  4 16  2  0  0  0  0
  5 18  1  0  0  0  0
  6 20  1  0  0  0  0
  7 10  2  0  0  0  0
  7 19  1  0  0  0  0
  8 22  1  0  0  0  0
  9 22  2  0  0  0  0
 10 23  1  0  0  0  0
 11 12  2  0  0  0  0
 11 24  1  0  0  0  0
 12 25  1  0  0  0  0
 13 21  1  0  0  0  0
 13 23  2  0  0  0  0
 14 25  2  0  0  0  0
 14 26  1  0  0  0  0
 15 29  1  0  0  0  0
 15 62  2  0  0  0  0
 16 27  1  0  0  0  0
 17 27  1  0  0  0  0
 17 31  2  0  0  0  0
 17 32  1  0  0  0  0
 18 20  2  0  0  0  0
 18 37  1  0  0  0  0
 19 21  2  0  0  0  0
 19 38  1  0  0  0  0
 20 47  1  0  0  0  0
 21 39  1  0  0  0  0
 22 79  1  0  0  0  0
 23 80  1  0  0  0  0
 24 26  2  0  0  0  0
 24 79  1  0  0  0  0
 25 81  1  0  0  0  0
 26 82  1  0  0  0  0
 27 63  2  0  0  0  0
 28 30  2  0  0  0  0
 28 48  1  0  0  0  0
 28 64  1  0  0  0  0
 29 58  1  0  0  0  0
 29 64  2  0  0  0  0
 30 52  1  0  0  0  0
 30 62  1  0  0  0  0
 31 65  1  0  0  0  0
 31 68  1  0  0  0  0
 32 69  1  0  0  0  0
 32 74  2  0  0  0  0
 33 49  1  0  0  0  0
 33 70  1  0  0  0  0
 33 75  2  0  0  0  0
 34 59  1  0  0  0  0
 34 66  1  0  0  0  0
 34 76  2  0  0  0  0
 35 60  1  0  0  0  0
 35 71  1  0  0  0  0
 35 77  2  0  0  0  0
 36 67  1  0  0  0  0
 36 72  1  0  0  0  0
 36 78  2  0  0  0  0
 37 40  1  0  0  0  0
 38 49  1  0  0  0  0
 39 66  1  0  0  0  0
 40 42  1  0  0  0  0
 41 43  1  0  0  0  0
 41 45  1  0  0  0  0
 42 47  1  0  0  0  0
 43 50  1  0  0  0  0
 44 48  1  0  0  0  0
 44 51  1  0  0  0  0
 45 67  1  0  0  0  0
 46 50  1  0  0  0  0
 46 67  1  0  0  0  0
 47 70  1  0  0  0  0
 48 51  1  0  0  0  0
 49 66  1  0  0  0  0
 50 65  1  0  0  0  0
 51 72  1  0  0  0  0
 53 60  1  0  0  0  0
 54 61  1  0  0  0  0
 55 61  1  0  0  0  0
 56 61  1  0  0  0  0
 57 73  1  0  0  0  0
 58 80  1  0  0  0  0
 59 61  1  0  0  0  0
 59 71  1  0  0  0  0
 60 73  1  0  0  0  0
 63 65  1  0  0  0  0
M  CHG  1  73   1
M  ISO  4  36 100  58 101  72 100  80 101
M  END
> <Batch ID>
0182

> <Smiles>
CNC(C)C(=O)NC(C(=O)N1Cc2cc([101O:1][101CH2:1]c3cnc(C)c(C4CC4[100NH:0][100C:0](=O)N4CCCC(n5nc(-c6ccc(Oc7ccc(F)cc7F)cc6)c(C(N)=O)c5N)C4)n3)ccc2CC1C(=O)NC1CCCc2ccccc21)C(C)(C)C

> <Shape>
0.282

> <Color>
0.068

> <Negative vol penalty>
0.000

$$$$

  -OEChem-04052323053D

 80 88  0     1  0  0  0  0  0999 V2000
  -31.4867  -34.4207   20.6437 C   0  0  0  0  0  0  0  0  0  0  0  0
  -31.3200  -33.0605   20.4041 C   0  0  0  0  0  0  0  0  0  0  0  0
  -24.5708   -9.7402   21.7124 C   0  0  0  0  0  0  0  0  0  0  0  0
  -24.7367  -11.0038   23.7649 C   0  0  0  0  0  0  0  0  0  0  0  0
  -30.7297  -35.0516   21.6300 C   0  0  0  0  0  0  0  0  0  0  0  0
  -30.3968  -32.3301   21.1516 C   0  0  0  0  0  0  0  0  0  0  0  0
  -26.9745  -27.6381   19.2077 C   0  0  0  0  0  0  0  0  0  0  0  0
  -24.2390   -8.5986   22.4419 C   0  0  0  0  0  0  0  0  0  0  0  0
  -24.4049   -9.8622   24.4945 C   0  0  0  0  0  0  0  0  0  0  0  0
  -27.1238  -26.2568   19.3239 C   0  0  0  0  0  0  0  0  0  0  0  0
  -21.5049   -7.3279   23.9726 C   0  0  0  0  0  0  0  0  0  0  0  0
  -20.4433   -6.5496   23.5113 C   0  0  0  0  0  0  0  0  0  0  0  0
  -25.6828  -26.2699   21.2585 C   0  0  0  0  0  0  0  0  0  0  0  0
  -21.9302   -4.6597   23.2778 C   0  0  0  0  0  0  0  0  0  0  0  0
  -24.8197  -10.9428   22.3738 C   0  0  0  0  0  0  0  0  0  0  0  0
  -24.2785  -13.0855   21.0996 C   0  0  0  0  0  0  0  0  0  0  0  0
  -29.7899  -34.3306   22.3833 C   0  0  0  0  0  0  0  0  0  0  0  0
  -26.1857  -28.3483   20.1241 C   0  0  0  0  0  0  0  0  0  0  0  0
  -29.6274  -32.9516   22.1498 C   0  0  0  0  0  0  0  0  0  0  0  0
  -25.5231  -27.6598   21.1502 C   0  0  0  0  0  0  0  0  0  0  0  0
  -24.1560   -8.6596   23.8330 C   0  0  0  0  0  0  0  0  0  0  0  0
  -26.4802  -25.5728   20.3511 C   0  0  0  0  0  0  0  0  0  0  0  0
  -22.7793   -6.7721   24.0864 C   0  0  0  0  0  0  0  0  0  0  0  0
  -20.6559   -5.2155   23.1639 C   0  0  0  0  0  0  0  0  0  0  0  0
  -22.9919   -5.4380   23.7390 C   0  0  0  0  0  0  0  0  0  0  0  0
  -25.1630  -12.1223   21.6208 C   0  0  0  0  0  0  0  0  0  0  0  0
  -25.0933  -13.9969   20.4736 C   0  0  0  0  0  0  0  0  0  0  0  0
  -22.8481  -13.1505   21.1746 C   0  0  0  0  0  0  0  0  0  0  0  0
  -26.7345  -30.6548   22.2413 C   0  0  0  0  0  0  0  0  0  0  0  0
  -23.5084  -30.5832   22.5726 C   0  0  0  0  0  0  0  0  0  0  0  0
  -20.6031  -28.8189   22.2672 C   0  0  0  0  0  0  0  0  0  0  0  0
  -29.6818  -17.1725   20.3919 C   0  0  0  0  0  0  0  0  0  0  0  0
  -29.0285  -35.0461   23.4710 C   0  0  0  0  0  0  0  0  0  0  0  0
  -26.0133  -29.8345   19.9691 C   0  0  0  0  0  0  0  0  0  0  0  0
  -24.6486  -28.3730   22.1477 C   0  0  0  0  0  0  0  0  0  0  0  0
  -27.8038  -34.2790   23.9629 C   0  0  0  0  0  0  0  0  0  0  0  0
  -30.0217  -13.7836   19.3546 C   0  0  0  0  0  0  0  0  0  0  0  0
  -28.1555  -32.8161   24.2140 C   0  0  0  0  0  0  0  0  0  0  0  0
  -28.3325  -21.3204   18.7995 C   0  0  0  0  0  0  0  0  0  0  0  0
  -28.7183  -13.1279   19.8142 C   0  0  0  0  0  0  0  0  0  0  0  0
  -28.3217  -19.8114   19.0412 C   0  0  0  0  0  0  0  0  0  0  0  0
  -30.5051  -14.8365   20.3494 C   0  0  0  0  0  0  0  0  0  0  0  0
  -28.2052  -15.2130   21.1512 C   0  0  0  0  0  0  0  0  0  0  0  0
  -28.6183  -32.1305   22.9228 C   0  0  1  0  0  0  0  0  0  0  0  0
  -25.6001  -30.5264   21.2644 C   0  0  1  0  0  0  0  0  0  0  0  0
  -27.4626  -22.0700   19.8210 C   0  0  1  0  0  0  0  0  0  0  0  0
  -27.8795  -21.7499   21.2825 C   0  0  1  0  0  0  0  0  0  0  0  0
  -27.6486  -14.1835   20.1529 C   0  0  2  0  0  0  0  0  0  0  0  0
  -28.7108  -19.4548   20.4791 C   0  0  1  0  0  0  0  0  0  0  0  0
  -27.8325  -20.2166   21.4821 C   0  0  1  0  0  0  0  0  0  0  0  0
  -29.2262  -22.3787   21.6741 C   0  0  0  0  0  0  0  0  0  0  0  0
  -18.1308  -29.0131   22.6515 C   0  0  0  0  0  0  0  0  0  0  0  0
  -23.9495  -30.2331   25.5714 C   0  0  0  0  0  0  0  0  0  0  0  0
  -21.5658  -29.4922   25.7649 C   0  0  0  0  0  0  0  0  0  0  0  0
  -22.0932  -31.7956   24.9653 C   0  0  0  0  0  0  0  0  0  0  0  0
  -20.0070  -28.3995   19.3988 C   0  0  0  0  0  0  0  0  0  0  0  0
  -27.4448  -23.5678   19.5112 C   0  0  0  0  0  0  0  0  0  1  0  0
  -22.5401  -29.8239   23.4472 C   0  0  1  0  0  0  0  0  0  0  0  0
  -19.2640  -29.1822   21.6514 C   0  0  2  0  0  0  0  0  0  0  0  0
  -22.5551  -30.3228   24.9197 C   0  0  0  0  0  0  0  0  0  0  0  0
  -26.4418  -12.3962   21.3494 N   0  0  0  0  0  0  0  0  0  0  0  0
  -26.3668  -13.5418   20.6508 N   0  0  0  0  0  0  0  0  0  0  0  0
  -24.5165  -29.8270   21.9579 N   0  0  0  0  0  0  0  0  0  0  0  0
  -29.4444  -15.8081   20.6266 N   0  0  0  0  0  0  0  0  0  0  0  0
  -24.8376  -15.1352   19.7944 N   0  0  0  0  0  0  0  0  0  0  0  0
  -22.1678  -12.1320   21.8557 N   0  0  0  0  0  0  0  0  0  0  0  0
  -27.4819  -31.8068   22.0871 N   0  0  0  0  0  0  0  0  0  0  0  0
  -21.2383  -29.9226   22.7961 N   0  0  0  0  0  0  0  0  0  0  0  0
  -28.6216  -18.0250   20.6750 N   0  0  0  0  0  0  0  0  0  0  0  0
  -28.2338  -19.8580   22.8706 N   0  3  0  0  0  0  0  0  0  0  0  0
  -18.9836  -28.3148   20.4724 N   0  3  0  0  0  0  0  0  0  0  0  0
  -22.1917  -14.0756   20.6390 O   0  0  0  0  0  0  0  0  0  0  0  0
  -26.9172  -29.7747   23.0742 O   0  0  0  0  0  0  0  0  0  0  0  0
  -23.3710  -31.8012   22.4339 O   0  0  0  0  0  0  0  0  0  0  0  0
  -21.0401  -27.6703   22.2813 O   0  0  0  0  0  0  0  0  0  0  0  0
  -30.7569  -17.5988   19.9569 O   0  0  0  0  0  0  0  0  0  0  0  0
  -23.8321   -7.5459   24.5452 O   0  0  0  0  0  0  0  0  0  0  0  0
  -26.6261  -24.2119   20.4683 O   0  0  0  0  0  0  0  0  0  1  0  0
  -19.6360   -4.4678   22.7225 F   0  0  0  0  0  0  0  0  0  0  0  0
  -24.2136   -4.8982   23.8473 F   0  0  0  0  0  0  0  0  0  0  0  0
  1  2  1  0  0  0  0
  1  5  2  0  0  0  0
  2  6  2  0  0  0  0
  3  8  2  0  0  0  0
  3 15  1  0  0  0  0
  4  9  1  0  0  0  0
  4 15  2  0  0  0  0
  5 17  1  0  0  0  0
  6 19  1  0  0  0  0
  7 10  2  0  0  0  0
  7 18  1  0  0  0  0
  8 21  1  0  0  0  0
  9 21  2  0  0  0  0
 10 22  1  0  0  0  0
 11 12  2  0  0  0  0
 11 23  1  0  0  0  0
 12 24  1  0  0  0  0
 13 20  1  0  0  0  0
 13 22  2  0  0  0  0
 14 24  2  0  0  0  0
 14 25  1  0  0  0  0
 15 26  1  0  0  0  0
 16 26  1  0  0  0  0
 16 27  2  0  0  0  0
 16 28  1  0  0  0  0
 17 19  2  0  0  0  0
 17 33  1  0  0  0  0
 18 20  2  0  0  0  0
 18 34  1  0  0  0  0
 19 44  1  0  0  0  0
 20 35  1  0  0  0  0
 21 77  1  0  0  0  0
 22 78  1  0  0  0  0
 23 25  2  0  0  0  0
 23 77  1  0  0  0  0
 24 79  1  0  0  0  0
 25 80  1  0  0  0  0
 26 61  2  0  0  0  0
 27 62  1  0  0  0  0
 27 65  1  0  0  0  0
 28 66  1  0  0  0  0
 28 72  2  0  0  0  0
 29 45  1  0  0  0  0
 29 67  1  0  0  0  0
 29 73  2  0  0  0  0
 30 58  1  0  0  0  0
 30 63  1  0  0  0  0
 30 74  2  0  0  0  0
 31 59  1  0  0  0  0
 31 68  1  0  0  0  0
 31 75  2  0  0  0  0
 32 64  1  0  0  0  0
 32 69  1  0  0  0  0
 32 76  2  0  0  0  0
 33 36  1  0  0  0  0
 34 45  1  0  0  0  0
 35 63  1  0  0  0  0
 36 38  1  0  0  0  0
 37 40  1  0  0  0  0
 37 42  1  0  0  0  0
 38 44  1  0  0  0  0
 39 41  1  0  0  0  0
 39 46  1  0  0  0  0
 40 48  1  0  0  0  0
 41 49  1  0  0  0  0
 42 64  1  0  0  0  0
 43 48  1  0  0  0  0
 43 64  1  0  0  0  0
 44 67  1  0  0  0  0
 45 63  1  0  0  0  0
 46 47  1  0  0  0  0
 46 57  1  0  0  0  0
 47 50  1  0  0  0  0
 47 51  1  0  0  0  0
 48 62  1  0  0  0  0
 49 50  1  0  0  0  0
 49 69  1  0  0  0  0
 50 70  1  0  0  0  0
 52 59  1  0  0  0  0
 53 60  1  0  0  0  0
 54 60  1  0  0  0  0
 55 60  1  0  0  0  0
 56 71  1  0  0  0  0
 57 78  1  0  0  0  0
 58 60  1  0  0  0  0
 58 68  1  0  0  0  0
 59 71  1  0  0  0  0
 61 62  1  0  0  0  0
M  CHG  2  70   1  71   1
M  ISO  4  32 100  57 101  69 100  78 101
M  END
> <Batch ID>
0182

> <Smiles>
CNC(C)C(=O)NC(C(=O)N1Cc2cc([101O:1][101CH2:1]C3CCC([100NH:0][100C:0](=O)N4CCCC(n5nc(-c6ccc(Oc7ccc(F)cc7F)cc6)c(C(N)=O)c5N)C4)C(N)C3C)ccc2CC1C(=O)NC1CCCc2ccccc21)C(C)(C)C

> <Shape>
0.296

> <Color>
0.119

> <Negative vol penalty>
0.000

$$$$

  -OEChem-04052323053D

 84 93  0     1  0  0  0  0  0999 V2000
  -26.2315  -36.8680   22.3618 C   0  0  0  0  0  0  0  0  0  0  0  0
  -26.8541  -35.7046   21.9212 C   0  0  0  0  0  0  0  0  0  0  0  0
  -24.6982   -9.7416   21.7210 C   0  0  0  0  0  0  0  0  0  0  0  0
  -22.8566  -10.9198   20.6927 C   0  0  0  0  0  0  0  0  0  0  0  0
  -25.1873  -36.7927   23.2826 C   0  0  0  0  0  0  0  0  0  0  0  0
  -26.4335  -34.4651   22.4021 C   0  0  0  0  0  0  0  0  0  0  0  0
  -26.2836  -29.1772   19.3164 C   0  0  0  0  0  0  0  0  0  0  0  0
  -23.7985   -9.0192   22.5047 C   0  0  0  0  0  0  0  0  0  0  0  0
  -21.9569  -10.1974   21.4764 C   0  0  0  0  0  0  0  0  0  0  0  0
  -27.1569  -28.0912   19.2733 C   0  0  0  0  0  0  0  0  0  0  0  0
  -21.7302   -6.3718   22.1232 C   0  0  0  0  0  0  0  0  0  0  0  0
  -21.9297   -4.9961   22.2379 C   0  0  0  0  0  0  0  0  0  0  0  0
  -25.8162  -26.9551   20.9259 C   0  0  0  0  0  0  0  0  0  0  0  0
  -22.1662   -5.2299   24.6309 C   0  0  0  0  0  0  0  0  0  0  0  0
  -29.0833  -23.5511   18.8815 C   0  0  0  0  0  0  0  0  0  0  0  0
  -24.2273  -10.6920   20.8150 C   0  0  0  0  0  0  0  0  0  0  0  0
  -25.6446  -11.0912   18.7318 C   0  0  0  0  0  0  0  0  0  0  0  0
  -24.7473  -35.5511   23.7677 C   0  0  0  0  0  0  0  0  0  0  0  0
  -25.1742  -29.1647   20.1741 C   0  0  0  0  0  0  0  0  0  0  0  0
  -25.3834  -34.3732   23.3313 C   0  0  0  0  0  0  0  0  0  0  0  0
  -24.9289  -28.0411   20.9762 C   0  0  0  0  0  0  0  0  0  0  0  0
  -22.4279   -9.2470   22.3824 C   0  0  0  0  0  0  0  0  0  0  0  0
  -26.9249  -26.9812   20.0802 C   0  0  0  0  0  0  0  0  0  0  0  0
  -21.7487   -7.1766   23.2623 C   0  0  0  0  0  0  0  0  0  0  0  0
  -22.1477   -4.4251   23.4917 C   0  0  0  0  0  0  0  0  0  0  0  0
  -21.9667   -6.6056   24.5161 C   0  0  0  0  0  0  0  0  0  0  0  0
  -25.1562  -11.4390   20.0055 C   0  0  0  0  0  0  0  0  0  0  0  0
  -29.6827  -24.7503   19.2089 C   0  0  0  0  0  0  0  0  0  0  0  0
  -29.8933  -22.4369   18.9634 C   0  0  0  0  0  0  0  0  0  0  0  0
  -26.4897  -12.1203   18.3954 C   0  0  0  0  0  0  0  0  0  0  0  0
  -31.6575  -23.7061   19.6294 C   0  0  0  0  0  0  0  0  0  0  0  0
  -25.3597   -9.9407   17.9249 C   0  0  0  0  0  0  0  0  0  0  0  0
  -24.2235  -30.9342   22.6376 C   0  0  0  0  0  0  0  0  0  0  0  0
  -21.5504  -29.1101   22.4152 C   0  0  0  0  0  0  0  0  0  0  0  0
  -20.1155  -26.1843   21.4016 C   0  0  0  0  0  0  0  0  0  0  0  0
  -27.7646  -17.3218   17.9928 C   0  0  0  0  0  0  0  0  0  0  0  0
  -23.6463  -35.5230   24.7980 C   0  0  0  0  0  0  0  0  0  0  0  0
  -24.2268  -30.3329   20.1892 C   0  0  0  0  0  0  0  0  0  0  0  0
  -23.7409  -27.9697   21.8992 C   0  0  0  0  0  0  0  0  0  0  0  0
  -23.0119  -34.1458   24.9742 C   0  0  0  0  0  0  0  0  0  0  0  0
  -28.3307  -15.9223   21.1646 C   0  0  0  0  0  0  0  0  0  0  0  0
  -24.0895  -33.0720   25.0859 C   0  0  0  0  0  0  0  0  0  0  0  0
  -27.5884  -14.5916   21.0463 C   0  0  0  0  0  0  0  0  0  0  0  0
  -27.5612  -17.0683   20.5057 C   0  0  0  0  0  0  0  0  0  0  0  0
  -30.1680  -20.1449   18.0694 C   0  0  0  0  0  0  0  0  0  0  0  0
  -28.1559  -20.7611   19.4177 C   0  0  0  0  0  0  0  0  0  0  0  0
  -29.3300  -19.1078   17.3266 C   0  0  0  0  0  0  0  0  0  0  0  0
  -27.3514  -19.7232   18.6431 C   0  0  0  0  0  0  0  0  0  0  0  0
  -26.4403  -15.4759   18.9806 C   0  0  0  0  0  0  0  0  0  0  0  0
  -24.9392  -33.0083   23.8109 C   0  0  1  0  0  0  0  0  0  0  0  0
  -23.4147  -30.4269   21.4773 C   0  0  1  0  0  0  0  0  0  0  0  0
  -27.2169  -14.2945   19.5826 C   0  0  2  0  0  0  0  0  0  0  0  0
  -33.0869  -23.7922   20.0449 C   0  0  0  0  0  0  0  0  0  0  0  0
  -17.9216  -24.9661   21.3914 C   0  0  0  0  0  0  0  0  0  0  0  0
  -21.9052  -28.4512   25.3732 C   0  0  0  0  0  0  0  0  0  0  0  0
  -20.3105  -26.5454   25.0684 C   0  0  0  0  0  0  0  0  0  0  0  0
  -19.5428  -28.8864   24.6775 C   0  0  0  0  0  0  0  0  0  0  0  0
  -20.0440  -26.0997   18.4442 C   0  0  0  0  0  0  0  0  0  0  0  0
  -28.8866  -26.0106   19.1498 C   0  0  0  0  0  0  0  0  0  1  0  0
  -21.0993  -27.7976   23.0091 C   0  0  1  0  0  0  0  0  0  0  0  0
  -18.8420  -25.9031   20.6248 C   0  0  2  0  0  0  0  0  0  0  0  0
  -20.7380  -27.9220   24.5162 C   0  0  0  0  0  0  0  0  0  0  0  0
  -25.6501  -12.5983   20.4482 N   0  0  0  0  0  0  0  0  0  0  0  0
  -30.9723  -24.8647   19.5884 N   0  0  0  0  0  0  0  0  0  0  0  0
  -31.1896  -22.4781   19.3350 N   0  0  0  0  0  0  0  0  0  0  0  0
  -26.4576  -12.9879   19.4472 N   0  0  0  0  0  0  0  0  0  0  0  0
  -29.3225  -21.1995   18.6392 N   0  0  0  0  0  0  0  0  0  0  0  0
  -22.8471  -29.1395   21.8829 N   0  0  0  0  0  0  0  0  0  0  0  0
  -27.1938  -16.7231   19.1258 N   0  0  0  0  0  0  0  0  0  0  0  0
  -28.2029  -18.6484   18.1292 N   0  0  0  0  0  0  0  0  0  0  0  0
  -27.2497  -12.3585   17.3054 N   0  0  0  0  0  0  0  0  0  0  0  0
  -24.4685   -8.9800   18.4221 N   0  0  0  0  0  0  0  0  0  0  0  0
  -24.2261  -32.3104   22.7627 N   0  0  0  0  0  0  0  0  0  0  0  0
  -20.0043  -27.3244   22.1692 N   0  0  0  0  0  0  0  0  0  0  0  0
  -19.1639  -25.2755   19.3120 N   0  3  0  0  0  0  0  0  0  0  0  0
  -25.8927   -9.7617   16.8036 O   0  0  0  0  0  0  0  0  0  0  0  0
  -24.8012  -30.1361   23.3663 O   0  0  0  0  0  0  0  0  0  0  0  0
  -20.7779  -30.0719   22.4170 O   0  0  0  0  0  0  0  0  0  0  0  0
  -21.1082  -25.4626   21.3371 O   0  0  0  0  0  0  0  0  0  0  0  0
  -27.8797  -16.7093   16.9240 O   0  0  0  0  0  0  0  0  0  0  0  0
  -21.5496   -8.5421   23.1469 O   0  0  0  0  0  0  0  0  0  0  0  0
  -27.7820  -25.9128   20.0403 O   0  0  0  0  0  0  0  0  0  1  0  0
  -22.3378   -3.1038   23.6019 F   0  0  0  0  0  0  0  0  0  0  0  0
  -21.9844   -7.3736   25.6142 F   0  0  0  0  0  0  0  0  0  0  0  0
  1  2  1  0  0  0  0
  1  5  2  0  0  0  0
  2  6  2  0  0  0  0
  3  8  2  0  0  0  0
  3 16  1  0  0  0  0
  4  9  1  0  0  0  0
  4 16  2  0  0  0  0
  5 18  1  0  0  0  0
  6 20  1  0  0  0  0
  7 10  2  0  0  0  0
  7 19  1  0  0  0  0
  8 22  1  0  0  0  0
  9 22  2  0  0  0  0
 10 23  1  0  0  0  0
 11 12  2  0  0  0  0
 11 24  1  0  0  0  0
 12 25  1  0  0  0  0
 13 21  1  0  0  0  0
 13 23  2  0  0  0  0
 14 25  2  0  0  0  0
 14 26  1  0  0  0  0
 15 28  1  0  0  0  0
 15 29  2  0  0  0  0
 16 27  1  0  0  0  0
 17 27  1  0  0  0  0
 17 30  2  0  0  0  0
 17 32  1  0  0  0  0
 18 20  2  0  0  0  0
 18 37  1  0  0  0  0
 19 21  2  0  0  0  0
 19 38  1  0  0  0  0
 20 50  1  0  0  0  0
 21 39  1  0  0  0  0
 22 81  1  0  0  0  0
 23 82  1  0  0  0  0
 24 26  2  0  0  0  0
 24 81  1  0  0  0  0
 25 83  1  0  0  0  0
 26 84  1  0  0  0  0
 27 63  2  0  0  0  0
 28 59  1  0  0  0  0
 28 64  2  0  0  0  0
 29 65  1  0  0  0  0
 29 67  1  0  0  0  0
 30 66  1  0  0  0  0
 30 71  1  0  0  0  0
 31 53  1  0  0  0  0
 31 64  1  0  0  0  0
 31 65  2  0  0  0  0
 32 72  1  0  0  0  0
 32 76  2  0  0  0  0
 33 51  1  0  0  0  0
 33 73  1  0  0  0  0
 33 77  2  0  0  0  0
 34 60  1  0  0  0  0
 34 68  1  0  0  0  0
 34 78  2  0  0  0  0
 35 61  1  0  0  0  0
 35 74  1  0  0  0  0
 35 79  2  0  0  0  0
 36 69  1  0  0  0  0
 36 70  1  0  0  0  0
 36 80  2  0  0  0  0
 37 40  1  0  0  0  0
 38 51  1  0  0  0  0
 39 68  1  0  0  0  0
 40 42  1  0  0  0  0
 41 43  1  0  0  0  0
 41 44  1  0  0  0  0
 42 50  1  0  0  0  0
 43 52  1  0  0  0  0
 44 69  1  0  0  0  0
 45 47  1  0  0  0  0
 45 67  1  0  0  0  0
 46 48  1  0  0  0  0
 46 67  1  0  0  0  0
 47 70  1  0  0  0  0
 48 70  1  0  0  0  0
 49 52  1  0  0  0  0
 49 69  1  0  0  0  0
 50 73  1  0  0  0  0
 51 68  1  0  0  0  0
 52 66  1  0  0  0  0
 54 61  1  0  0  0  0
 55 62  1  0  0  0  0
 56 62  1  0  0  0  0
 57 62  1  0  0  0  0
 58 75  1  0  0  0  0
 59 82  1  0  0  0  0
 60 62  1  0  0  0  0
 60 74  1  0  0  0  0
 61 75  1  0  0  0  0
 63 66  1  0  0  0  0
M  CHG  1  75   1
M  ISO  4  36 100  59 101  70 100  82 101
M  END
> <Batch ID>
0182

> <Smiles>
CNC(C)C(=O)NC(C(=O)N1Cc2cc([101O:1][101CH2:1]c3cc(N4CC[100N:0]([100C:0](=O)N5CCCC(n6nc(-c7ccc(Oc8ccc(F)cc8F)cc7)c(C(N)=O)c6N)C5)CC4)nc(C)n3)ccc2CC1C(=O)NC1CCCc2ccccc21)C(C)(C)C

> <Shape>
0.343

> <Color>
0.076

> <Negative vol penalty>
0.000

$$$$

  -OEChem-04052323053D

 78 86  0     1  0  0  0  0  0999 V2000
  -32.1287  -35.8164   18.0925 C   0  0  0  0  0  0  0  0  0  0  0  0
  -31.9351  -34.5883   17.4682 C   0  0  0  0  0  0  0  0  0  0  0  0
  -24.6172   -9.7840   21.3805 C   0  0  0  0  0  0  0  0  0  0  0  0
  -24.8609  -10.8459   23.5369 C   0  0  0  0  0  0  0  0  0  0  0  0
  -31.9529  -35.9319   19.4708 C   0  0  0  0  0  0  0  0  0  0  0  0
  -31.5667  -33.4746   18.2221 C   0  0  0  0  0  0  0  0  0  0  0  0
  -27.7043  -27.4583   17.7731 C   0  0  0  0  0  0  0  0  0  0  0  0
  -24.3497   -8.5681   22.0094 C   0  0  0  0  0  0  0  0  0  0  0  0
  -24.5933   -9.6300   24.1659 C   0  0  0  0  0  0  0  0  0  0  0  0
  -27.8216  -26.0849   17.9824 C   0  0  0  0  0  0  0  0  0  0  0  0
  -21.7282   -7.0795   23.5407 C   0  0  0  0  0  0  0  0  0  0  0  0
  -20.6619   -6.3208   23.0580 C   0  0  0  0  0  0  0  0  0  0  0  0
  -27.4693  -26.4208   20.3450 C   0  0  0  0  0  0  0  0  0  0  0  0
  -22.1770   -4.5044   22.5660 C   0  0  0  0  0  0  0  0  0  0  0  0
  -29.0550  -21.7083   20.4056 C   0  0  0  0  0  0  0  0  0  0  0  0
  -27.0539  -20.1946   21.3176 C   0  0  0  0  0  0  0  0  0  0  0  0
  -24.8729  -10.9229   22.1442 C   0  0  0  0  0  0  0  0  0  0  0  0
  -24.2179  -13.1637   21.1157 C   0  0  0  0  0  0  0  0  0  0  0  0
  -31.5728  -34.8212   20.2406 C   0  0  0  0  0  0  0  0  0  0  0  0
  -27.4790  -28.3259   18.8516 C   0  0  0  0  0  0  0  0  0  0  0  0
  -31.3870  -33.5750   19.6122 C   0  0  0  0  0  0  0  0  0  0  0  0
  -27.3469  -27.8046   20.1465 C   0  0  0  0  0  0  0  0  0  0  0  0
  -24.3377   -8.4911   23.4021 C   0  0  0  0  0  0  0  0  0  0  0  0
  -27.7070  -25.5663   19.2688 C   0  0  0  0  0  0  0  0  0  0  0  0
  -23.0189   -6.5507   23.5359 C   0  0  0  0  0  0  0  0  0  0  0  0
  -20.8863   -5.0332   22.5707 C   0  0  0  0  0  0  0  0  0  0  0  0
  -23.2433   -5.2631   23.0486 C   0  0  0  0  0  0  0  0  0  0  0  0
  -25.1499  -12.1791   21.4950 C   0  0  0  0  0  0  0  0  0  0  0  0
  -27.8782  -22.2745   20.8442 C   0  0  0  0  0  0  0  0  0  0  0  0
  -28.2303  -19.6283   20.8784 C   0  0  0  0  0  0  0  0  0  0  0  0
  -24.9783  -14.1538   20.5432 C   0  0  0  0  0  0  0  0  0  0  0  0
  -22.7923  -13.1816   21.2675 C   0  0  0  0  0  0  0  0  0  0  0  0
  -29.0779  -30.7425   20.1581 C   0  0  0  0  0  0  0  0  0  0  0  0
  -26.3929  -31.0373   21.9542 C   0  0  0  0  0  0  0  0  0  0  0  0
  -23.6046  -29.5651   23.2599 C   0  0  0  0  0  0  0  0  0  0  0  0
  -29.4599  -17.4582   20.5250 C   0  0  0  0  0  0  0  0  0  0  0  0
  -31.4409  -34.9840   21.7341 C   0  0  0  0  0  0  0  0  0  0  0  0
  -27.3282  -29.8021   18.6057 C   0  0  0  0  0  0  0  0  0  0  0  0
  -27.0848  -28.6913   21.3354 C   0  0  0  0  0  0  0  0  0  0  0  0
  -30.6850  -33.8411   22.4070 C   0  0  0  0  0  0  0  0  0  0  0  0
  -29.8508  -14.1881   19.1719 C   0  0  0  0  0  0  0  0  0  0  0  0
  -31.1929  -32.4946   21.9014 C   0  0  0  0  0  0  0  0  0  0  0  0
  -28.5859  -13.4549   19.6245 C   0  0  0  0  0  0  0  0  0  0  0  0
  -30.3561  -15.1583   20.2382 C   0  0  0  0  0  0  0  0  0  0  0  0
  -28.0921  -15.3818   21.1833 C   0  0  0  0  0  0  0  0  0  0  0  0
  -30.9630  -32.3495   20.3923 C   0  0  1  0  0  0  0  0  0  0  0  0
  -27.6116  -30.6462   19.8444 C   0  0  1  0  0  0  0  0  0  0  0  0
  -27.5085  -14.4410   20.1165 C   0  0  2  0  0  0  0  0  0  0  0  0
  -21.6210  -30.0493   24.7188 C   0  0  0  0  0  0  0  0  0  0  0  0
  -28.1814  -30.9125   24.4232 C   0  0  0  0  0  0  0  0  0  0  0  0
  -26.1389  -30.4442   25.7933 C   0  0  0  0  0  0  0  0  0  0  0  0
  -26.3397  -32.5994   24.5533 C   0  0  0  0  0  0  0  0  0  0  0  0
  -21.7029  -28.9555   21.0756 C   0  0  0  0  0  0  0  0  0  0  0  0
  -27.6937  -23.7633   20.8197 C   0  0  0  0  0  0  0  0  0  1  0  0
  -25.9167  -30.4642   23.2672 C   0  0  1  0  0  0  0  0  0  0  0  0
  -22.1534  -30.0095   23.2948 C   0  0  2  0  0  0  0  0  0  0  0  0
  -26.6510  -31.0883   24.4873 C   0  0  0  0  0  0  0  0  0  0  0  0
  -26.8567  -21.5278   21.3084 N   0  0  0  0  0  0  0  0  0  0  0  0
  -29.2520  -20.3751   20.4146 N   0  0  0  0  0  0  0  0  0  0  0  0
  -26.4063  -12.5133   21.1891 N   0  0  0  0  0  0  0  0  0  0  0  0
  -26.2692  -13.7189   20.6113 N   0  0  0  0  0  0  0  0  0  0  0  0
  -26.9514  -30.1283   21.0445 N   0  0  0  0  0  0  0  0  0  0  0  0
  -29.2827  -16.0642   20.6528 N   0  0  0  0  0  0  0  0  0  0  0  0
  -24.6620  -15.3453   19.9930 N   0  0  0  0  0  0  0  0  0  0  0  0
  -22.1714  -12.0832   21.8777 N   0  0  0  0  0  0  0  0  0  0  0  0
  -28.3594  -18.2179   20.9204 N   0  0  0  0  0  0  0  0  0  0  0  0
  -29.5779  -32.0302   20.1204 N   0  0  0  0  0  0  0  0  0  0  0  0
  -24.4685  -30.6394   23.2877 N   0  0  0  0  0  0  0  0  0  0  0  0
  -21.3061  -29.0742   22.5022 N   0  3  0  0  0  0  0  0  0  0  0  0
  -22.0882  -14.1360   20.8588 O   0  0  0  0  0  0  0  0  0  0  0  0
  -29.7086  -29.7242   20.4166 O   0  0  0  0  0  0  0  0  0  0  0  0
  -26.2672  -32.2457   21.7407 O   0  0  0  0  0  0  0  0  0  0  0  0
  -23.9384  -28.3831   23.2163 O   0  0  0  0  0  0  0  0  0  0  0  0
  -30.5002  -17.9412   20.0707 O   0  0  0  0  0  0  0  0  0  0  0  0
  -24.0764   -7.3048   24.0162 O   0  0  0  0  0  0  0  0  0  0  0  0
  -27.8218  -24.2262   19.4759 O   0  0  0  0  0  0  0  0  0  1  0  0
  -19.8619   -4.3042   22.1087 F   0  0  0  0  0  0  0  0  0  0  0  0
  -24.4809   -4.7492   23.0427 F   0  0  0  0  0  0  0  0  0  0  0  0
  1  2  1  0  0  0  0
  1  5  2  0  0  0  0
  2  6  2  0  0  0  0
  3  8  2  0  0  0  0
  3 17  1  0  0  0  0
  4  9  1  0  0  0  0
  4 17  2  0  0  0  0
  5 19  1  0  0  0  0
  6 21  1  0  0  0  0
  7 10  2  0  0  0  0
  7 20  1  0  0  0  0
  8 23  1  0  0  0  0
  9 23  2  0  0  0  0
 10 24  1  0  0  0  0
 11 12  2  0  0  0  0
 11 25  1  0  0  0  0
 12 26  1  0  0  0  0
 13 22  1  0  0  0  0
 13 24  2  0  0  0  0
 14 26  2  0  0  0  0
 14 27  1  0  0  0  0
 15 29  1  0  0  0  0
 15 59  2  0  0  0  0
 16 30  2  0  0  0  0
 16 58  1  0  0  0  0
 17 28  1  0  0  0  0
 18 28  1  0  0  0  0
 18 31  2  0  0  0  0
 18 32  1  0  0  0  0
 19 21  2  0  0  0  0
 19 37  1  0  0  0  0
 20 22  2  0  0  0  0
 20 38  1  0  0  0  0
 21 46  1  0  0  0  0
 22 39  1  0  0  0  0
 23 75  1  0  0  0  0
 24 76  1  0  0  0  0
 25 27  2  0  0  0  0
 25 75  1  0  0  0  0
 26 77  1  0  0  0  0
 27 78  1  0  0  0  0
 28 60  2  0  0  0  0
 29 54  1  0  0  0  0
 29 58  2  0  0  0  0
 30 59  1  0  0  0  0
 30 66  1  0  0  0  0
 31 61  1  0  0  0  0
 31 64  1  0  0  0  0
 32 65  1  0  0  0  0
 32 70  2  0  0  0  0
 33 47  1  0  0  0  0
 33 67  1  0  0  0  0
 33 71  2  0  0  0  0
 34 55  1  0  0  0  0
 34 62  1  0  0  0  0
 34 72  2  0  0  0  0
 35 56  1  0  0  0  0
 35 68  1  0  0  0  0
 35 73  2  0  0  0  0
 36 63  1  0  0  0  0
 36 66  1  0  0  0  0
 36 74  2  0  0  0  0
 37 40  1  0  0  0  0
 38 47  1  0  0  0  0
 39 62  1  0  0  0  0
 40 42  1  0  0  0  0
 41 43  1  0  0  0  0
 41 44  1  0  0  0  0
 42 46  1  0  0  0  0
 43 48  1  0  0  0  0
 44 63  1  0  0  0  0
 45 48  1  0  0  0  0
 45 63  1  0  0  0  0
 46 67  1  0  0  0  0
 47 62  1  0  0  0  0
 48 61  1  0  0  0  0
 49 56  1  0  0  0  0
 50 57  1  0  0  0  0
 51 57  1  0  0  0  0
 52 57  1  0  0  0  0
 53 69  1  0  0  0  0
 54 76  1  0  0  0  0
 55 57  1  0  0  0  0
 55 68  1  0  0  0  0
 56 69  1  0  0  0  0
 60 61  1  0  0  0  0
M  CHG  1  69   1
M  ISO  4  36 100  54 101  66 100  76 101
M  END
> <Batch ID>
0182

> <Smiles>
CNC(C)C(=O)NC(C(=O)N1Cc2cc([101O:1][101CH2:1]c3cnc([100NH:0][100C:0](=O)N4CCCC(n5nc(-c6ccc(Oc7ccc(F)cc7F)cc6)c(C(N)=O)c5N)C4)cn3)ccc2CC1C(=O)NC1CCCc2ccccc21)C(C)(C)C

> <Shape>
0.283

> <Color>
0.160

> <Negative vol penalty>
0.000

$$$$

  -OEChem-04052323053D

 87 96  0     1  0  0  0  0  0999 V2000
  -28.4145  -36.3695   25.9664 C   0  0  0  0  0  0  0  0  0  0  0  0
  -28.8370  -35.7864   24.7761 C   0  0  0  0  0  0  0  0  0  0  0  0
  -26.5191   -8.5331   21.6936 C   0  0  0  0  0  0  0  0  0  0  0  0
  -24.4898   -8.3387   20.3970 C   0  0  0  0  0  0  0  0  0  0  0  0
  -27.6320  -35.6392   26.8598 C   0  0  0  0  0  0  0  0  0  0  0  0
  -28.4781  -34.4721   24.4790 C   0  0  0  0  0  0  0  0  0  0  0  0
  -26.8974  -30.2367   18.9220 C   0  0  0  0  0  0  0  0  0  0  0  0
  -26.1482   -7.4157   22.4416 C   0  0  0  0  0  0  0  0  0  0  0  0
  -24.1189   -7.2213   21.1450 C   0  0  0  0  0  0  0  0  0  0  0  0
  -27.2619  -29.0127   18.3628 C   0  0  0  0  0  0  0  0  0  0  0  0
  -22.7717   -6.5911   24.1813 C   0  0  0  0  0  0  0  0  0  0  0  0
  -21.4531   -6.5205   24.6305 C   0  0  0  0  0  0  0  0  0  0  0  0
  -25.8408  -27.8738   19.9448 C   0  0  0  0  0  0  0  0  0  0  0  0
  -21.1440   -4.4642   23.4004 C   0  0  0  0  0  0  0  0  0  0  0  0
  -28.5849  -24.7768   18.3298 C   0  0  0  0  0  0  0  0  0  0  0  0
  -25.6899   -8.9946   20.6713 C   0  0  0  0  0  0  0  0  0  0  0  0
  -26.8288  -10.1650   18.7116 C   0  0  0  0  0  0  0  0  0  0  0  0
  -27.2552  -34.3185   26.5691 C   0  0  0  0  0  0  0  0  0  0  0  0
  -26.0089  -30.2878   20.0057 C   0  0  0  0  0  0  0  0  0  0  0  0
  -27.6909  -33.7229   25.3699 C   0  0  0  0  0  0  0  0  0  0  0  0
  -25.4647  -29.0999   20.5143 C   0  0  0  0  0  0  0  0  0  0  0  0
  -24.9482   -6.7598   22.1673 C   0  0  0  0  0  0  0  0  0  0  0  0
  -26.7358  -27.8308   18.8761 C   0  0  0  0  0  0  0  0  0  0  0  0
  -23.2765   -5.5983   23.3415 C   0  0  0  0  0  0  0  0  0  0  0  0
  -20.6392   -5.4571   24.2401 C   0  0  0  0  0  0  0  0  0  0  0  0
  -22.4626   -4.5348   22.9511 C   0  0  0  0  0  0  0  0  0  0  0  0
  -26.0722  -10.1491   19.8986 C   0  0  0  0  0  0  0  0  0  0  0  0
  -29.6976  -24.2009   18.9082 C   0  0  0  0  0  0  0  0  0  0  0  0
  -28.1976  -25.9908   18.8593 C   0  0  0  0  0  0  0  0  0  1  0  0
  -26.9144  -11.4943   18.3768 C   0  0  0  0  0  0  0  0  0  0  0  0
  -29.9101  -25.9426   20.3532 C   0  0  0  0  0  0  0  0  0  0  0  0
  -27.4029   -9.0756   17.9772 C   0  0  0  0  0  0  0  0  0  0  0  0
  -26.1934  -31.3045   23.0117 C   0  0  0  0  0  0  0  0  0  0  0  0
  -23.0193  -30.6358   23.0221 C   0  0  0  0  0  0  0  0  0  0  0  0
  -20.4262  -28.8695   21.6795 C   0  0  0  0  0  0  0  0  0  0  0  0
  -27.9824  -16.6758   19.9139 C   0  0  0  0  0  0  0  0  0  0  0  0
  -26.4480  -33.5530   27.5874 C   0  0  0  0  0  0  0  0  0  0  0  0
  -25.6051  -31.6179   20.5803 C   0  0  0  0  0  0  0  0  0  0  0  0
  -24.4913  -29.1018   21.6635 C   0  0  0  0  0  0  0  0  0  0  0  0
  -25.7979  -32.2912   27.0256 C   0  0  0  0  0  0  0  0  0  0  0  0
  -24.4886  -15.5230   20.1916 C   0  0  0  0  0  0  0  0  0  0  0  0
  -26.8039  -31.4941   26.2013 C   0  0  0  0  0  0  0  0  0  0  0  0
  -24.6699  -14.0111   20.0942 C   0  0  0  0  0  0  0  0  0  0  0  0
  -28.5216  -19.4528   18.3106 C   0  0  0  0  0  0  0  0  0  0  0  0
  -25.6625  -16.1969   20.9008 C   0  0  0  0  0  0  0  0  0  0  0  0
  -27.1688  -14.3566   20.2016 C   0  0  0  0  0  0  0  0  0  0  0  0
  -29.4973  -20.5472   17.9049 C   0  0  0  0  0  0  0  0  0  0  0  0
  -29.6005  -21.3522   20.2756 C   0  0  0  0  0  0  0  0  0  0  0  0
  -27.3015  -32.3080   25.0007 C   0  0  1  0  0  0  0  0  0  0  0  0
  -25.0912  -31.5185   22.0133 C   0  0  1  0  0  0  0  0  0  0  0  0
  -28.6206  -20.2574   20.7123 C   0  0  1  0  0  0  0  0  0  0  0  0
  -26.0208  -13.6673   19.4483 C   0  0  1  0  0  0  0  0  0  0  0  0
  -28.7078  -19.0393   19.7727 C   0  0  1  0  0  0  0  0  0  0  0  0
  -30.6465  -26.5916   21.4756 C   0  0  0  0  0  0  0  0  0  0  0  0
  -28.8078  -21.0583   23.0729 C   0  0  0  0  0  0  0  0  0  0  0  0
  -17.9549  -28.5070   21.9221 C   0  0  0  0  0  0  0  0  0  0  0  0
  -23.5162  -28.9201   25.4959 C   0  0  0  0  0  0  0  0  0  0  0  0
  -21.2788  -27.8599   25.1244 C   0  0  0  0  0  0  0  0  0  0  0  0
  -21.4364  -30.3059   25.5880 C   0  0  0  0  0  0  0  0  0  0  0  0
  -19.8971  -29.8382   18.9335 C   0  0  0  0  0  0  0  0  0  0  0  0
  -30.1921  -22.8871   18.4024 C   0  0  0  0  0  0  0  0  0  0  0  0
  -28.9016  -19.8753   22.1686 C   0  0  0  0  0  0  0  0  0  0  0  0
  -22.1840  -29.4195   23.3414 C   0  0  1  0  0  0  0  0  0  0  0  0
  -19.0453  -29.3004   21.2191 C   0  0  2  0  0  0  0  0  0  0  0  0
  -22.1237  -29.1259   24.8670 C   0  0  0  0  0  0  0  0  0  0  0  0
  -25.7035  -11.3713   20.2915 N   0  0  0  0  0  0  0  0  0  0  0  0
  -30.3870  -24.7581   19.9253 N   0  0  0  0  0  0  0  0  0  0  0  0
  -28.8395  -26.6048   19.8748 N   0  0  0  0  0  0  0  0  0  0  0  0
  -26.2307  -12.1676   19.3460 N   0  0  0  0  0  0  0  0  0  0  0  0
  -24.1322  -30.4269   22.1953 N   0  0  0  0  0  0  0  0  0  0  0  0
  -26.9506  -15.8046   20.3075 N   0  0  0  0  0  0  0  0  0  0  0  0
  -27.5071  -12.1413   17.3508 N   0  0  0  0  0  0  0  0  0  0  0  0
  -27.2193   -7.7732   18.4613 N   0  0  0  0  0  0  0  0  0  0  0  0
  -26.3085  -32.3143   23.9479 N   0  0  0  0  0  0  0  0  0  0  0  0
  -20.8814  -29.6455   22.7244 N   0  0  0  0  0  0  0  0  0  0  0  0
  -27.7432  -18.0299   20.1195 N   0  0  0  0  0  0  0  0  0  0  0  0
  -29.3517  -21.7354   18.8309 N   0  3  1  0  0  0  0  0  0  0  0  0
  -18.9021  -29.0963   19.7498 N   0  3  0  0  0  0  0  0  0  0  0  0
  -28.0732   -9.2533   16.9319 O   0  0  0  0  0  0  0  0  0  0  0  0
  -26.8872  -30.2969   22.9390 O   0  0  0  0  0  0  0  0  0  0  0  0
  -22.6921  -31.7321   23.4833 O   0  0  0  0  0  0  0  0  0  0  0  0
  -21.0381  -27.9353   21.1662 O   0  0  0  0  0  0  0  0  0  0  0  0
  -29.0432  -16.2778   19.4201 O   0  0  0  0  0  0  0  0  0  0  0  0
  -24.5861   -5.6693   22.8969 O   0  0  0  0  0  0  0  0  0  0  0  0
  -27.0903  -26.6346   18.3325 O   0  0  0  0  0  0  0  0  0  1  0  0
  -19.3735   -5.3887   24.6729 F   0  0  0  0  0  0  0  0  0  0  0  0
  -22.9423   -3.5774   22.1454 F   0  0  0  0  0  0  0  0  0  0  0  0
  1  2  1  0  0  0  0
  1  5  2  0  0  0  0
  2  6  2  0  0  0  0
  3  8  2  0  0  0  0
  3 16  1  0  0  0  0
  4  9  1  0  0  0  0
  4 16  2  0  0  0  0
  5 18  1  0  0  0  0
  6 20  1  0  0  0  0
  7 10  2  0  0  0  0
  7 19  1  0  0  0  0
  8 22  1  0  0  0  0
  9 22  2  0  0  0  0
 10 23  1  0  0  0  0
 11 12  2  0  0  0  0
 11 24  1  0  0  0  0
 12 25  1  0  0  0  0
 13 21  1  0  0  0  0
 13 23  2  0  0  0  0
 14 25  2  0  0  0  0
 14 26  1  0  0  0  0
 15 28  1  0  0  0  0
 15 29  2  0  0  0  0
 16 27  1  0  0  0  0
 17 27  1  0  0  0  0
 17 30  2  0  0  0  0
 17 32  1  0  0  0  0
 18 20  2  0  0  0  0
 18 37  1  0  0  0  0
 19 21  2  0  0  0  0
 19 38  1  0  0  0  0
 20 49  1  0  0  0  0
 21 39  1  0  0  0  0
 22 84  1  0  0  0  0
 23 85  1  0  0  0  0
 24 26  2  0  0  0  0
 24 84  1  0  0  0  0
 25 86  1  0  0  0  0
 26 87  1  0  0  0  0
 27 66  2  0  0  0  0
 28 61  1  0  0  0  0
 28 67  2  0  0  0  0
 29 68  1  0  0  0  0
 29 85  1  0  0  0  0
 30 69  1  0  0  0  0
 30 72  1  0  0  0  0
 31 54  1  0  0  0  0
 31 67  1  0  0  0  0
 31 68  2  0  0  0  0
 32 73  1  0  0  0  0
 32 79  2  0  0  0  0
 33 50  1  0  0  0  0
 33 74  1  0  0  0  0
 33 80  2  0  0  0  0
 34 63  1  0  0  0  0
 34 70  1  0  0  0  0
 34 81  2  0  0  0  0
 35 64  1  0  0  0  0
 35 75  1  0  0  0  0
 35 82  2  0  0  0  0
 36 71  1  0  0  0  0
 36 76  1  0  0  0  0
 36 83  2  0  0  0  0
 37 40  1  0  0  0  0
 38 50  1  0  0  0  0
 39 70  1  0  0  0  0
 40 42  1  0  0  0  0
 41 43  1  0  0  0  0
 41 45  1  0  0  0  0
 42 49  1  0  0  0  0
 43 52  1  0  0  0  0
 44 47  1  0  0  0  0
 44 53  1  0  0  0  0
 45 71  1  0  0  0  0
 46 52  1  0  0  0  0
 46 71  1  0  0  0  0
 47 77  1  0  0  0  0
 48 51  1  0  0  0  0
 48 77  1  0  0  0  0
 49 74  1  0  0  0  0
 50 70  1  0  0  0  0
 51 53  1  0  0  0  0
 51 62  1  0  0  0  0
 52 69  1  0  0  0  0
 53 76  1  0  0  0  0
 55 62  1  0  0  0  0
 56 64  1  0  0  0  0
 57 65  1  0  0  0  0
 58 65  1  0  0  0  0
 59 65  1  0  0  0  0
 60 78  1  0  0  0  0
 61 77  1  0  0  0  0
 63 65  1  0  0  0  0
 63 75  1  0  0  0  0
 64 78  1  0  0  0  0
 66 69  1  0  0  0  0
M  CHG  2  77   1  78   1
M  ISO  4  29 101  36 100  76 100  85 101
M  END
> <Batch ID>
0182

> <Smiles>
CCC1CN(Cc2c[101c:1]([101O:1]c3ccc4c(c3)CN(C(=O)C(NC(=O)C(C)NC)C(C)(C)C)C(C(=O)NC3CCCc5ccccc53)C4)nc(C)n2)CCC1[100NH:0][100C:0](=O)N1CCCC(n2nc(-c3ccc(Oc4ccc(F)cc4F)cc3)c(C(N)=O)c2N)C1

> <Shape>
0.315

> <Color>
0.092

> <Negative vol penalty>
0.000

$$$$

  -OEChem-04052323053D

 82 91  0     1  0  0  0  0  0999 V2000
  -17.5788  -26.2853   22.3114 C   0  0  0  0  0  0  0  0  0  0  0  0
  -18.8633  -25.7734   22.4645 C   0  0  0  0  0  0  0  0  0  0  0  0
  -23.8009  -13.7483   19.3459 C   0  0  0  0  0  0  0  0  0  0  0  0
  -24.9834  -14.6609   21.2448 C   0  0  0  0  0  0  0  0  0  0  0  0
  -17.3979  -27.5711   21.8036 C   0  0  0  0  0  0  0  0  0  0  0  0
  -19.9677  -26.5468   22.1088 C   0  0  0  0  0  0  0  0  0  0  0  0
  -25.4460  -26.6200   24.8454 C   0  0  0  0  0  0  0  0  0  0  0  0
  -28.9892  -23.1813   21.6913 C   0  0  0  0  0  0  0  0  0  0  0  0
  -24.2549  -12.4716   19.6767 C   0  0  0  0  0  0  0  0  0  0  0  0
  -25.4374  -13.3842   21.5757 C   0  0  0  0  0  0  0  0  0  0  0  0
  -26.6543  -25.9938   24.5425 C   0  0  0  0  0  0  0  0  0  0  0  0
  -24.8077   -8.9214   20.2292 C   0  0  0  0  0  0  0  0  0  0  0  0
  -23.8854   -7.8756   20.1938 C   0  0  0  0  0  0  0  0  0  0  0  0
  -28.2550  -22.2328   20.9881 C   0  0  0  0  0  0  0  0  0  0  0  0
  -27.3969  -27.9890   23.4080 C   0  0  0  0  0  0  0  0  0  0  0  0
  -22.5473   -8.9992   21.8624 C   0  0  0  0  0  0  0  0  0  0  0  0
  -24.1652  -14.8430   20.1299 C   0  0  0  0  0  0  0  0  0  0  0  0
  -22.5126  -16.7840   20.2273 C   0  0  0  0  0  0  0  0  0  0  0  0
  -18.5010  -28.3642   21.4505 C   0  0  0  0  0  0  0  0  0  0  0  0
  -25.1994  -27.9338   24.4218 C   0  0  0  0  0  0  0  0  0  0  0  0
  -19.8014  -27.8440   21.5945 C   0  0  0  0  0  0  0  0  0  0  0  0
  -29.4679  -24.3091   21.0338 C   0  0  0  0  0  0  0  0  0  0  0  0
  -26.1857  -28.6305   23.7091 C   0  0  0  0  0  0  0  0  0  0  0  0
  -25.0732  -12.2895   20.7916 C   0  0  0  0  0  0  0  0  0  0  0  0
  -27.6288  -26.6773   23.8212 C   0  0  0  0  0  0  0  0  0  0  0  0
  -24.6000  -10.0060   21.0814 C   0  0  0  0  0  0  0  0  0  0  0  0
  -22.7552   -7.9146   21.0103 C   0  0  0  0  0  0  0  0  0  0  0  0
  -23.4698  -10.0450   21.8979 C   0  0  0  0  0  0  0  0  0  0  0  0
  -23.6969  -16.1622   19.7884 C   0  0  0  0  0  0  0  0  0  0  0  0
  -29.1874  -24.4406   19.6834 C   0  0  0  0  0  0  0  0  0  0  0  0
  -28.0285  -22.4573   19.6397 C   0  0  0  0  0  0  0  0  0  0  0  0
  -22.5292  -18.0182   19.6249 C   0  0  0  0  0  0  0  0  0  0  0  0
  -21.4891  -16.2901   21.1014 C   0  0  0  0  0  0  0  0  0  0  0  0
  -23.0676  -29.3106   22.5078 C   0  0  0  0  0  0  0  0  0  0  0  0
  -24.4630  -32.0421   23.5633 C   0  0  0  0  0  0  0  0  0  0  0  0
  -27.2135  -33.5644   24.8915 C   0  0  0  0  0  0  0  0  0  0  0  0
  -26.9311  -21.5046   17.5819 C   0  0  0  0  0  0  0  0  0  0  0  0
  -18.2539  -29.7305   20.8614 C   0  0  0  0  0  0  0  0  0  0  0  0
  -23.9014  -28.6044   24.7797 C   0  0  0  0  0  0  0  0  0  0  0  0
  -25.9781  -30.0494   23.2488 C   0  0  0  0  0  0  0  0  0  0  0  0
  -19.4904  -30.6257   20.8597 C   0  0  0  0  0  0  0  0  0  0  0  0
  -24.1641  -20.2576   15.7202 C   0  0  0  0  0  0  0  0  0  0  0  0
  -20.7035  -29.8595   20.3417 C   0  0  0  0  0  0  0  0  0  0  0  0
  -23.6188  -19.1265   16.5950 C   0  0  0  0  0  0  0  0  0  0  0  0
  -31.6734  -25.6125   21.3160 C   0  0  0  0  0  0  0  0  0  0  0  0
  -31.4505  -24.8547   22.5873 C   0  0  0  0  0  0  0  0  0  0  0  0
  -25.6889  -20.3333   15.7764 C   0  0  0  0  0  0  0  0  0  0  0  0
  -25.7120  -19.2793   18.0029 C   0  0  0  0  0  0  0  0  0  0  0  0
  -21.0254  -28.6615   21.2432 C   0  0  1  0  0  0  0  0  0  0  0  0
  -23.5542  -29.7664   23.8543 C   0  0  1  0  0  0  0  0  0  0  0  0
  -24.1766  -19.2046   18.0297 C   0  0  2  0  0  0  0  0  0  0  0  0
  -30.2558  -25.3301   21.7802 C   0  0  0  0  0  0  0  0  0  0  0  0
  -29.6775  -25.6297   18.9235 C   0  0  0  0  0  0  0  0  0  0  0  0
  -28.0676  -35.8128   25.6072 C   0  0  0  0  0  0  0  0  0  0  0  0
  -24.8731  -32.8141   20.6399 C   0  0  0  0  0  0  0  0  0  0  0  0
  -26.5261  -34.5347   21.3987 C   0  0  0  0  0  0  0  0  0  0  0  0
  -24.1440  -34.6917   22.1223 C   0  0  0  0  0  0  0  0  0  0  0  0
  -27.5782  -32.6648   27.6874 C   0  0  0  0  0  0  0  0  0  0  0  0
  -29.4611  -26.4693   22.3194 C   0  0  0  0  0  0  0  0  0  1  0  0
  -25.6233  -32.8945   23.1091 C   0  0  1  0  0  0  0  0  0  0  0  0
  -27.3671  -34.5367   26.0471 C   0  0  2  0  0  0  0  0  0  0  0  0
  -25.2951  -33.7063   21.8244 C   0  0  0  0  0  0  0  0  0  0  0  0
  -24.4136  -16.9374   18.9702 N   0  0  0  0  0  0  0  0  0  0  0  0
  -28.4774  -23.5405   18.9668 N   0  0  0  0  0  0  0  0  0  0  0  0
  -23.6776  -18.0589   18.8901 N   0  0  0  0  0  0  0  0  0  0  0  0
  -24.6901  -30.6596   23.6179 N   0  0  0  0  0  0  0  0  0  0  0  0
  -26.1445  -20.4095   17.1661 N   0  0  0  0  0  0  0  0  0  0  0  0
  -21.6734  -19.0617   19.6572 N   0  0  0  0  0  0  0  0  0  0  0  0
  -21.6292  -15.0008   21.6329 N   0  0  0  0  0  0  0  0  0  0  0  0
  -27.2775  -21.4858   18.9325 N   0  0  0  0  0  0  0  0  0  0  0  0
  -21.7033  -29.1004   22.4441 N   0  0  0  0  0  0  0  0  0  0  0  0
  -25.9997  -33.7154   24.2549 N   0  0  0  0  0  0  0  0  0  0  0  0
  -28.1642  -33.9168   27.1431 N   0  3  0  0  0  0  0  0  0  0  0  0
  -20.4721  -16.9656   21.3893 O   0  0  0  0  0  0  0  0  0  0  0  0
  -23.8702  -29.1621   21.5938 O   0  0  0  0  0  0  0  0  0  0  0  0
  -23.3966  -32.5837   23.8654 O   0  0  0  0  0  0  0  0  0  0  0  0
  -28.0847  -32.7546   24.5820 O   0  0  0  0  0  0  0  0  0  0  0  0
  -27.2494  -22.4076   16.8038 O   0  0  0  0  0  0  0  0  0  0  0  0
  -25.5162  -11.0438   21.1148 O   0  0  0  0  0  0  0  0  0  0  0  0
  -28.8088  -26.0683   23.5236 O   0  0  0  0  0  0  0  0  0  1  0  0
  -21.8687   -6.9110   20.9750 F   0  0  0  0  0  0  0  0  0  0  0  0
  -23.2642  -11.0849   22.7177 F   0  0  0  0  0  0  0  0  0  0  0  0
  1  2  1  0  0  0  0
  1  5  2  0  0  0  0
  2  6  2  0  0  0  0
  3  9  2  0  0  0  0
  3 17  1  0  0  0  0
  4 10  1  0  0  0  0
  4 17  2  0  0  0  0
  5 19  1  0  0  0  0
  6 21  1  0  0  0  0
  7 11  2  0  0  0  0
  7 20  1  0  0  0  0
  8 14  2  0  0  0  0
  8 22  1  0  0  0  0
  9 24  1  0  0  0  0
 10 24  2  0  0  0  0
 11 25  1  0  0  0  0
 12 13  2  0  0  0  0
 12 26  1  0  0  0  0
 13 27  1  0  0  0  0
 14 31  1  0  0  0  0
 15 23  1  0  0  0  0
 15 25  2  0  0  0  0
 16 27  2  0  0  0  0
 16 28  1  0  0  0  0
 17 29  1  0  0  0  0
 18 29  1  0  0  0  0
 18 32  2  0  0  0  0
 18 33  1  0  0  0  0
 19 21  2  0  0  0  0
 19 38  1  0  0  0  0
 20 23  2  0  0  0  0
 20 39  1  0  0  0  0
 21 49  1  0  0  0  0
 22 30  2  0  0  0  0
 22 52  1  0  0  0  0
 23 40  1  0  0  0  0
 24 79  1  0  0  0  0
 25 80  1  0  0  0  0
 26 28  2  0  0  0  0
 26 79  1  0  0  0  0
 27 81  1  0  0  0  0
 28 82  1  0  0  0  0
 29 63  2  0  0  0  0
 30 53  1  0  0  0  0
 30 64  1  0  0  0  0
 31 64  2  0  0  0  0
 31 70  1  0  0  0  0
 32 65  1  0  0  0  0
 32 68  1  0  0  0  0
 33 69  1  0  0  0  0
 33 74  2  0  0  0  0
 34 50  1  0  0  0  0
 34 71  1  0  0  0  0
 34 75  2  0  0  0  0
 35 60  1  0  0  0  0
 35 66  1  0  0  0  0
 35 76  2  0  0  0  0
 36 61  1  0  0  0  0
 36 72  1  0  0  0  0
 36 77  2  0  0  0  0
 37 67  1  0  0  0  0
 37 70  1  0  0  0  0
 37 78  2  0  0  0  0
 38 41  1  0  0  0  0
 39 50  1  0  0  0  0
 40 66  1  0  0  0  0
 41 43  1  0  0  0  0
 42 44  1  0  0  0  0
 42 47  1  0  0  0  0
 43 49  1  0  0  0  0
 44 51  1  0  0  0  0
 45 46  1  0  0  0  0
 45 52  1  0  0  0  0
 46 52  1  0  0  0  0
 47 67  1  0  0  0  0
 48 51  1  0  0  0  0
 48 67  1  0  0  0  0
 49 71  1  0  0  0  0
 50 66  1  0  0  0  0
 51 65  1  0  0  0  0
 52 59  1  0  0  0  0
 54 61  1  0  0  0  0
 55 62  1  0  0  0  0
 56 62  1  0  0  0  0
 57 62  1  0  0  0  0
 58 73  1  0  0  0  0
 59 80  1  0  0  0  0
 60 62  1  0  0  0  0
 60 72  1  0  0  0  0
 61 73  1  0  0  0  0
 63 65  1  0  0  0  0
M  CHG  1  73   1
M  ISO  4  37 100  59 101  70 100  80 101
M  END
> <Batch ID>
0182

> <Smiles>
CNC(C)C(=O)NC(C(=O)N1Cc2cc([101O:1][101CH2:1]C3(c4ccc([100NH:0][100C:0](=O)N5CCCC(n6nc(-c7ccc(Oc8ccc(F)cc8F)cc7)c(C(N)=O)c6N)C5)nc4C)CC3)ccc2CC1C(=O)NC1CCCc2ccccc21)C(C)(C)C

> <Shape>
0.226

> <Color>
0.096

> <Negative vol penalty>
0.000

$$$$

  -OEChem-04052323053D

 86 95  0     1  0  0  0  0  0999 V2000
  -16.4370  -29.0067   23.1788 C   0  0  0  0  0  0  0  0  0  0  0  0
  -17.3732  -28.5153   22.2746 C   0  0  0  0  0  0  0  0  0  0  0  0
  -24.4245  -10.4996   22.9868 C   0  0  0  0  0  0  0  0  0  0  0  0
  -24.3514  -12.1792   24.7219 C   0  0  0  0  0  0  0  0  0  0  0  0
  -16.8611  -29.6960   24.3140 C   0  0  0  0  0  0  0  0  0  0  0  0
  -18.7341  -28.7140   22.5046 C   0  0  0  0  0  0  0  0  0  0  0  0
  -23.3014  -24.8789   21.1129 C   0  0  0  0  0  0  0  0  0  0  0  0
  -23.9780   -9.5408   23.8962 C   0  0  0  0  0  0  0  0  0  0  0  0
  -23.9048  -11.2205   25.6312 C   0  0  0  0  0  0  0  0  0  0  0  0
  -24.1932  -24.8316   20.0423 C   0  0  0  0  0  0  0  0  0  0  0  0
  -21.0439   -8.6113   25.2962 C   0  0  0  0  0  0  0  0  0  0  0  0
  -20.0344   -7.7435   24.8798 C   0  0  0  0  0  0  0  0  0  0  0  0
  -25.8306  -26.0135   21.3618 C   0  0  0  0  0  0  0  0  0  0  0  0
  -21.4993   -5.8593   25.2552 C   0  0  0  0  0  0  0  0  0  0  0  0
  -27.4486  -20.3624   20.2035 C   0  0  0  0  0  0  0  0  0  0  0  0
  -24.6113  -11.8188   23.3997 C   0  0  0  0  0  0  0  0  0  0  0  0
  -24.2832  -13.6301   21.6336 C   0  0  0  0  0  0  0  0  0  0  0  0
  -18.2283  -29.8949   24.5631 C   0  0  0  0  0  0  0  0  0  0  0  0
  -23.6642  -25.5045   22.3143 C   0  0  0  0  0  0  0  0  0  0  0  0
  -19.1768  -29.4078   23.6436 C   0  0  0  0  0  0  0  0  0  0  0  0
  -24.9425  -26.0651   22.4470 C   0  0  0  0  0  0  0  0  0  0  0  0
  -23.7181   -9.9012   25.2184 C   0  0  0  0  0  0  0  0  0  0  0  0
  -25.4570  -25.4015   20.1656 C   0  0  0  0  0  0  0  0  0  0  0  0
  -22.2811   -8.1031   25.6920 C   0  0  0  0  0  0  0  0  0  0  0  0
  -20.2620   -6.3675   24.8593 C   0  0  0  0  0  0  0  0  0  0  0  0
  -22.5088   -6.7271   25.6716 C   0  0  0  0  0  0  0  0  0  0  0  0
  -25.0731  -12.8096   22.4609 C   0  0  0  0  0  0  0  0  0  0  0  0
  -28.4447  -22.1740   19.2850 C   0  0  0  0  0  0  0  0  0  0  0  0
  -29.6509  -21.5009   19.2612 C   0  0  0  0  0  0  0  0  0  0  0  0
  -28.6595  -19.6866   20.1798 C   0  0  0  0  0  0  0  0  0  0  0  0
  -25.1906  -14.3903   20.9370 C   0  0  0  0  0  0  0  0  0  0  0  0
  -22.8567  -13.6990   21.5061 C   0  0  0  0  0  0  0  0  0  0  0  0
  -22.5745  -27.9919   23.9663 C   0  0  0  0  0  0  0  0  0  0  0  0
  -24.7586  -27.0019   26.1507 C   0  0  0  0  0  0  0  0  0  0  0  0
  -27.6479  -25.3034   26.7943 C   0  0  0  0  0  0  0  0  0  0  0  0
  -29.7981  -17.5103   20.7398 C   0  0  0  0  0  0  0  0  0  0  0  0
  -18.6369  -30.6872   25.7796 C   0  0  0  0  0  0  0  0  0  0  0  0
  -22.7004  -25.5235   23.4690 C   0  0  0  0  0  0  0  0  0  0  0  0
  -25.3881  -26.7306   23.7226 C   0  0  0  0  0  0  0  0  0  0  0  0
  -20.1112  -30.5294   26.1423 C   0  0  0  0  0  0  0  0  0  0  0  0
  -30.2206  -13.9803   20.5468 C   0  0  0  0  0  0  0  0  0  0  0  0
  -20.9848  -30.6721   24.9000 C   0  0  0  0  0  0  0  0  0  0  0  0
  -28.8541  -13.4285   20.9596 C   0  0  0  0  0  0  0  0  0  0  0  0
  -30.5897  -15.2326   21.3401 C   0  0  0  0  0  0  0  0  0  0  0  0
  -28.2131  -15.7466   21.7359 C   0  0  0  0  0  0  0  0  0  0  0  0
  -20.6628  -29.5817   23.8710 C   0  0  1  0  0  0  0  0  0  0  0  0
  -28.5953  -23.5761   18.7715 C   0  0  2  0  0  0  0  0  0  0  0  0
  -30.7495  -22.3739   18.7289 C   0  0  1  0  0  0  0  0  0  0  0  0
  -22.9890  -26.6382   24.4698 C   0  0  1  0  0  0  0  0  0  0  0  0
  -27.7690  -14.5223   20.9187 C   0  0  2  0  0  0  0  0  0  0  0  0
  -31.5389  -21.7370   17.5968 C   0  0  0  0  0  0  0  0  0  0  0  0
  -29.2028  -24.7009   28.6696 C   0  0  0  0  0  0  0  0  0  0  0  0
  -29.9425  -26.0538   17.8696 C   0  0  0  0  0  0  0  0  0  0  0  0
  -32.1431  -24.8162   17.8734 C   0  0  0  0  0  0  0  0  0  0  0  0
  -25.8847  -29.8376   26.1249 C   0  0  0  0  0  0  0  0  0  0  0  0
  -27.9466  -28.9542   27.2368 C   0  0  0  0  0  0  0  0  0  0  0  0
  -25.7418  -28.7925   28.3924 C   0  0  0  0  0  0  0  0  0  0  0  0
  -27.1922  -22.4064   26.3960 C   0  0  0  0  0  0  0  0  0  0  0  0
  -27.6067  -23.9325   17.6759 C   0  0  0  0  0  0  0  0  0  0  0  0
  -26.2274  -24.2423   18.2372 C   0  0  0  0  0  0  0  0  0  1  0  0
  -26.2165  -27.2934   26.4127 C   0  0  1  0  0  0  0  0  0  0  0  0
  -27.9951  -24.2708   27.8514 C   0  0  2  0  0  0  0  0  0  0  0  0
  -30.7474  -24.9116   18.4684 C   0  0  0  0  0  0  0  0  0  0  0  0
  -26.4386  -28.7087   27.0169 C   0  0  0  0  0  0  0  0  0  0  0  0
  -27.3150  -21.6316   19.7595 N   0  0  0  0  0  0  0  0  0  0  0  0
  -26.3816  -13.0278   22.3055 N   0  0  0  0  0  0  0  0  0  0  0  0
  -29.7962  -20.2469   19.7107 N   0  0  0  0  0  0  0  0  0  0  0  0
  -26.4209  -13.9941   21.3723 N   0  0  0  0  0  0  0  0  0  0  0  0
  -24.4076  -26.7293   24.8209 N   0  0  0  0  0  0  0  0  0  0  0  0
  -29.5172  -16.2261   21.2522 N   0  0  0  0  0  0  0  0  0  0  0  0
  -25.0481  -15.3523   20.0007 N   0  0  0  0  0  0  0  0  0  0  0  0
  -22.0734  -12.8472   22.2967 N   0  0  0  0  0  0  0  0  0  0  0  0
  -28.6936  -18.3590   20.6736 N   0  0  0  0  0  0  0  0  0  0  0  0
  -21.2661  -28.3252   24.2605 N   0  0  0  0  0  0  0  0  0  0  0  0
  -26.7069  -26.2030   27.2488 N   0  0  0  0  0  0  0  0  0  0  0  0
  -30.0263  -23.6288   18.1954 N   0  3  2  0  0  0  0  0  0  0  0  0
  -28.3026  -22.9595   27.2134 N   0  3  0  0  0  0  0  0  0  0  0  0
  -22.2940  -14.4810   20.7027 O   0  0  0  0  0  0  0  0  0  0  0  0
  -23.3823  -28.6834   23.3573 O   0  0  0  0  0  0  0  0  0  0  0  0
  -23.9619  -27.0085   27.0924 O   0  0  0  0  0  0  0  0  0  0  0  0
  -28.1628  -25.3134   25.6784 O   0  0  0  0  0  0  0  0  0  0  0  0
  -30.9292  -17.8245   20.3603 O   0  0  0  0  0  0  0  0  0  0  0  0
  -23.2821   -8.9659   26.1059 O   0  0  0  0  0  0  0  0  0  0  0  0
  -26.3291  -25.3573   19.1219 O   0  0  0  0  0  0  0  0  0  1  0  0
  -19.2920   -5.5342   24.4609 F   0  0  0  0  0  0  0  0  0  0  0  0
  -23.6950   -6.2329   26.0518 F   0  0  0  0  0  0  0  0  0  0  0  0
  1  2  1  0  0  0  0
  1  5  2  0  0  0  0
  2  6  2  0  0  0  0
  3  8  2  0  0  0  0
  3 16  1  0  0  0  0
  4  9  1  0  0  0  0
  4 16  2  0  0  0  0
  5 18  1  0  0  0  0
  6 20  1  0  0  0  0
  7 10  2  0  0  0  0
  7 19  1  0  0  0  0
  8 22  1  0  0  0  0
  9 22  2  0  0  0  0
 10 23  1  0  0  0  0
 11 12  2  0  0  0  0
 11 24  1  0  0  0  0
 12 25  1  0  0  0  0
 13 21  1  0  0  0  0
 13 23  2  0  0  0  0
 14 25  2  0  0  0  0
 14 26  1  0  0  0  0
 15 30  1  0  0  0  0
 15 65  2  0  0  0  0
 16 27  1  0  0  0  0
 17 27  1  0  0  0  0
 17 31  2  0  0  0  0
 17 32  1  0  0  0  0
 18 20  2  0  0  0  0
 18 37  1  0  0  0  0
 19 21  2  0  0  0  0
 19 38  1  0  0  0  0
 20 46  1  0  0  0  0
 21 39  1  0  0  0  0
 22 83  1  0  0  0  0
 23 84  1  0  0  0  0
 24 26  2  0  0  0  0
 24 83  1  0  0  0  0
 25 85  1  0  0  0  0
 26 86  1  0  0  0  0
 27 66  2  0  0  0  0
 28 29  2  0  0  0  0
 28 47  1  0  0  0  0
 28 65  1  0  0  0  0
 29 48  1  0  0  0  0
 29 67  1  0  0  0  0
 30 67  2  0  0  0  0
 30 73  1  0  0  0  0
 31 68  1  0  0  0  0
 31 71  1  0  0  0  0
 32 72  1  0  0  0  0
 32 78  2  0  0  0  0
 33 49  1  0  0  0  0
 33 74  1  0  0  0  0
 33 79  2  0  0  0  0
 34 61  1  0  0  0  0
 34 69  1  0  0  0  0
 34 80  2  0  0  0  0
 35 62  1  0  0  0  0
 35 75  1  0  0  0  0
 35 81  2  0  0  0  0
 36 70  1  0  0  0  0
 36 73  1  0  0  0  0
 36 82  2  0  0  0  0
 37 40  1  0  0  0  0
 38 49  1  0  0  0  0
 39 69  1  0  0  0  0
 40 42  1  0  0  0  0
 41 43  1  0  0  0  0
 41 44  1  0  0  0  0
 42 46  1  0  0  0  0
 43 50  1  0  0  0  0
 44 70  1  0  0  0  0
 45 50  1  0  0  0  0
 45 70  1  0  0  0  0
 46 74  1  0  0  0  0
 47 59  1  0  0  0  0
 47 76  1  0  0  0  0
 48 51  1  0  0  0  0
 48 76  1  0  0  0  0
 49 69  1  0  0  0  0
 50 68  1  0  0  0  0
 52 62  1  0  0  0  0
 53 63  1  0  0  0  0
 54 63  1  0  0  0  0
 55 64  1  0  0  0  0
 56 64  1  0  0  0  0
 57 64  1  0  0  0  0
 58 77  1  0  0  0  0
 59 60  1  0  0  0  0
 60 84  1  0  0  0  0
 61 64  1  0  0  0  0
 61 75  1  0  0  0  0
 62 77  1  0  0  0  0
 63 76  1  0  0  0  0
 66 68  1  0  0  0  0
M  CHG  2  76   1  77   1
M  ISO  4  36 100  60 101  73 100  84 101
M  END
> <Batch ID>
0182

> <Smiles>
CNC(C)C(=O)NC(C(=O)N1Cc2cc([101O:1][101CH2:1]CC3c4ncc([100NH:0][100C:0](=O)N5CCCC(n6nc(-c7ccc(Oc8ccc(F)cc8F)cc7)c(C(N)=O)c6N)C5)nc4C(C)N3C(C)C)ccc2CC1C(=O)NC1CCCc2ccccc21)C(C)(C)C

> <Shape>
0.221

> <Color>
0.127

> <Negative vol penalty>
0.000

$$$$

  -OEChem-04052323053D

 84 93  0     1  0  0  0  0  0999 V2000
  -19.3066  -24.2478   22.3610 C   0  0  0  0  0  0  0  0  0  0  0  0
  -20.5151  -24.5544   21.7439 C   0  0  0  0  0  0  0  0  0  0  0  0
  -26.4368  -13.0303   18.9090 C   0  0  0  0  0  0  0  0  0  0  0  0
  -24.6316  -13.6940   20.3711 C   0  0  0  0  0  0  0  0  0  0  0  0
  -18.4554  -25.2727   22.7723 C   0  0  0  0  0  0  0  0  0  0  0  0
  -20.8727  -25.8862   21.5367 C   0  0  0  0  0  0  0  0  0  0  0  0
  -25.6963  -26.8163   22.7668 C   0  0  0  0  0  0  0  0  0  0  0  0
  -26.4408  -11.7620   19.4897 C   0  0  0  0  0  0  0  0  0  0  0  0
  -24.6356  -12.4258   20.9517 C   0  0  0  0  0  0  0  0  0  0  0  0
  -26.6737  -26.4195   21.8552 C   0  0  0  0  0  0  0  0  0  0  0  0
  -23.4857   -9.3390   20.1969 C   0  0  0  0  0  0  0  0  0  0  0  0
  -22.2537   -8.7175   20.4010 C   0  0  0  0  0  0  0  0  0  0  0  0
  -26.8300  -28.6864   21.0452 C   0  0  0  0  0  0  0  0  0  0  0  0
  -22.6927   -8.6271   22.7751 C   0  0  0  0  0  0  0  0  0  0  0  0
  -29.3346  -25.3500   17.7385 C   0  0  0  0  0  0  0  0  0  0  0  0
  -25.5323  -13.9963   19.3498 C   0  0  0  0  0  0  0  0  0  0  0  0
  -24.7800  -15.7293   17.6356 C   0  0  0  0  0  0  0  0  0  0  0  0
  -18.8072  -26.6178   22.5788 C   0  0  0  0  0  0  0  0  0  0  0  0
  -25.2698  -28.1512   22.8170 C   0  0  0  0  0  0  0  0  0  0  0  0
  -20.0249  -26.9300   21.9446 C   0  0  0  0  0  0  0  0  0  0  0  0
  -25.8488  -29.0980   21.9601 C   0  0  0  0  0  0  0  0  0  0  0  0
  -25.5402  -11.4598   20.5110 C   0  0  0  0  0  0  0  0  0  0  0  0
  -27.2387  -27.3540   20.9923 C   0  0  0  0  0  0  0  0  0  0  0  0
  -24.3212   -9.6045   21.2818 C   0  0  0  0  0  0  0  0  0  0  0  0
  -21.8572   -8.3616   21.6901 C   0  0  0  0  0  0  0  0  0  0  0  0
  -23.9247   -9.2486   22.5709 C   0  0  0  0  0  0  0  0  0  0  0  0
  -25.5281  -15.3068   18.7508 C   0  0  0  0  0  0  0  0  0  0  0  0
  -29.6422  -25.3749   19.0810 C   0  0  0  0  0  0  0  0  0  0  0  0
  -31.5370  -24.9881   17.2404 C   0  0  0  0  0  0  0  0  0  0  0  0
  -31.8448  -25.0137   18.5829 C   0  0  0  0  0  0  0  0  0  0  0  0
  -25.1279  -17.0474   17.4682 C   0  0  0  0  0  0  0  0  0  0  0  0
  -23.8533  -14.9960   16.8237 C   0  0  0  0  0  0  0  0  0  0  0  0
  -22.5037  -29.6419   22.3375 C   0  0  0  0  0  0  0  0  0  0  0  0
  -24.1652  -32.2294   23.3702 C   0  0  0  0  0  0  0  0  0  0  0  0
  -27.1914  -33.7486   23.7950 C   0  0  0  0  0  0  0  0  0  0  0  0
  -30.0922  -19.9416   19.0426 C   0  0  0  0  0  0  0  0  0  0  0  0
  -17.8332  -27.6904   22.9976 C   0  0  0  0  0  0  0  0  0  0  0  0
  -24.2337  -28.5685   23.8243 C   0  0  0  0  0  0  0  0  0  0  0  0
  -25.4404  -30.5475   21.9880 C   0  0  0  0  0  0  0  0  0  0  0  0
  -18.4568  -29.0814   23.0790 C   0  0  0  0  0  0  0  0  0  0  0  0
  -26.6239  -20.8724   19.8893 C   0  0  0  0  0  0  0  0  0  0  0  0
  -19.3012  -29.3612   21.8399 C   0  0  0  0  0  0  0  0  0  0  0  0
  -25.8965  -19.5553   19.6359 C   0  0  0  0  0  0  0  0  0  0  0  0
  -33.2396  -21.0018   19.6852 C   0  0  0  0  0  0  0  0  0  0  0  0
  -28.0425  -20.6526   20.4131 C   0  0  0  0  0  0  0  0  0  0  0  0
  -28.1375  -18.4446   19.2905 C   0  0  0  0  0  0  0  0  0  0  0  0
  -20.4594  -28.3628   21.7246 C   0  0  1  0  0  0  0  0  0  0  0  0
  -23.5063  -29.8522   23.4366 C   0  0  1  0  0  0  0  0  0  0  0  0
  -26.7263  -18.6454   18.7173 C   0  0  1  0  0  0  0  0  0  0  0  0
  -32.0169  -21.4974   18.9584 C   0  0  2  0  0  0  0  0  0  0  0  0
  -32.8697  -22.4550   19.7487 C   0  0  2  0  0  0  0  0  0  0  0  0
  -32.5883  -24.7731   16.2058 C   0  0  0  0  0  0  0  0  0  0  0  0
  -28.2276  -35.8762   24.6301 C   0  0  0  0  0  0  0  0  0  0  0  0
  -23.2850  -33.6559   20.8206 C   0  0  0  0  0  0  0  0  0  0  0  0
  -25.0725  -35.3583   21.2391 C   0  0  0  0  0  0  0  0  0  0  0  0
  -23.2184  -35.0692   22.8828 C   0  0  0  0  0  0  0  0  0  0  0  0
  -28.7219  -32.3189   25.8861 C   0  0  0  0  0  0  0  0  0  0  0  0
  -33.2436  -24.8275   19.0631 C   0  0  0  0  0  0  0  0  0  0  0  0
  -28.5669  -25.5922   20.1046 C   0  0  0  0  0  0  0  0  0  1  0  0
  -25.0085  -33.2923   22.7083 C   0  0  1  0  0  0  0  0  0  0  0  0
  -27.8023  -34.4607   24.9884 C   0  0  2  0  0  0  0  0  0  0  0  0
  -24.1526  -34.3163   21.9106 C   0  0  0  0  0  0  0  0  0  0  0  0
  -30.2764  -25.1562   16.7941 N   0  0  0  0  0  0  0  0  0  0  0  0
  -26.2936  -16.2777   19.2561 N   0  0  0  0  0  0  0  0  0  0  0  0
  -30.9029  -25.2072   19.5272 N   0  0  0  0  0  0  0  0  0  0  0  0
  -26.0285  -17.3234   18.4547 N   0  0  0  0  0  0  0  0  0  0  0  0
  -24.4190  -30.9050   22.9863 N   0  0  0  0  0  0  0  0  0  0  0  0
  -28.7994  -19.7283   19.5540 N   0  0  0  0  0  0  0  0  0  0  0  0
  -24.7484  -17.9857   16.5749 N   0  0  0  0  0  0  0  0  0  0  0  0
  -23.6116  -13.6509   17.1347 N   0  0  0  0  0  0  0  0  0  0  0  0
  -21.5238  -28.7156   22.6395 N   0  0  0  0  0  0  0  0  0  0  0  0
  -25.8198  -33.8865   23.7653 N   0  0  0  0  0  0  0  0  0  0  0  0
  -30.6946  -21.1426   19.3999 N   0  0  0  0  0  0  0  0  0  0  0  0
  -33.7116  -23.4155   18.9893 N   0  3  0  0  0  0  0  0  0  0  0  0
  -28.9996  -33.7197   25.4766 N   0  3  0  0  0  0  0  0  0  0  0  0
  -23.2698  -15.5134   15.8413 O   0  0  0  0  0  0  0  0  0  0  0  0
  -22.6103  -30.2743   21.2933 O   0  0  0  0  0  0  0  0  0  0  0  0
  -23.3175  -32.5613   24.2026 O   0  0  0  0  0  0  0  0  0  0  0  0
  -27.8641  -33.1349   22.9696 O   0  0  0  0  0  0  0  0  0  0  0  0
  -30.6722  -19.1201   18.3239 O   0  0  0  0  0  0  0  0  0  0  0  0
  -25.5436  -10.2222   21.0776 O   0  0  0  0  0  0  0  0  0  0  0  0
  -28.1924  -26.9692   20.1011 O   0  0  0  0  0  0  0  0  0  1  0  0
  -20.6735   -7.7662   21.8861 F   0  0  0  0  0  0  0  0  0  0  0  0
  -24.7225   -9.5022   23.6173 F   0  0  0  0  0  0  0  0  0  0  0  0
  1  2  1  0  0  0  0
  1  5  2  0  0  0  0
  2  6  2  0  0  0  0
  3  8  2  0  0  0  0
  3 16  1  0  0  0  0
  4  9  1  0  0  0  0
  4 16  2  0  0  0  0
  5 18  1  0  0  0  0
  6 20  1  0  0  0  0
  7 10  2  0  0  0  0
  7 19  1  0  0  0  0
  8 22  1  0  0  0  0
  9 22  2  0  0  0  0
 10 23  1  0  0  0  0
 11 12  2  0  0  0  0
 11 24  1  0  0  0  0
 12 25  1  0  0  0  0
 13 21  1  0  0  0  0
 13 23  2  0  0  0  0
 14 25  2  0  0  0  0
 14 26  1  0  0  0  0
 15 28  1  0  0  0  0
 15 63  2  0  0  0  0
 16 27  1  0  0  0  0
 17 27  1  0  0  0  0
 17 31  2  0  0  0  0
 17 32  1  0  0  0  0
 18 20  2  0  0  0  0
 18 37  1  0  0  0  0
 19 21  2  0  0  0  0
 19 38  1  0  0  0  0
 20 47  1  0  0  0  0
 21 39  1  0  0  0  0
 22 81  1  0  0  0  0
 23 82  1  0  0  0  0
 24 26  2  0  0  0  0
 24 81  1  0  0  0  0
 25 83  1  0  0  0  0
 26 84  1  0  0  0  0
 27 64  2  0  0  0  0
 28 59  1  0  0  0  0
 28 65  2  0  0  0  0
 29 30  2  0  0  0  0
 29 52  1  0  0  0  0
 29 63  1  0  0  0  0
 30 58  1  0  0  0  0
 30 65  1  0  0  0  0
 31 66  1  0  0  0  0
 31 69  1  0  0  0  0
 32 70  1  0  0  0  0
 32 76  2  0  0  0  0
 33 48  1  0  0  0  0
 33 71  1  0  0  0  0
 33 77  2  0  0  0  0
 34 60  1  0  0  0  0
 34 67  1  0  0  0  0
 34 78  2  0  0  0  0
 35 61  1  0  0  0  0
 35 72  1  0  0  0  0
 35 79  2  0  0  0  0
 36 68  1  0  0  0  0
 36 73  1  0  0  0  0
 36 80  2  0  0  0  0
 37 40  1  0  0  0  0
 38 48  1  0  0  0  0
 39 67  1  0  0  0  0
 40 42  1  0  0  0  0
 41 43  1  0  0  0  0
 41 45  1  0  0  0  0
 42 47  1  0  0  0  0
 43 49  1  0  0  0  0
 44 50  1  0  0  0  0
 44 51  1  0  0  0  0
 45 68  1  0  0  0  0
 46 49  1  0  0  0  0
 46 68  1  0  0  0  0
 47 71  1  0  0  0  0
 48 67  1  0  0  0  0
 49 66  1  0  0  0  0
 50 51  1  0  0  0  0
 50 73  1  0  0  0  0
 51 74  1  0  0  0  0
 53 61  1  0  0  0  0
 54 62  1  0  0  0  0
 55 62  1  0  0  0  0
 56 62  1  0  0  0  0
 57 75  1  0  0  0  0
 58 74  1  0  0  0  0
 59 82  1  0  0  0  0
 60 62  1  0  0  0  0
 60 72  1  0  0  0  0
 61 75  1  0  0  0  0
 64 66  1  0  0  0  0
M  CHG  2  74   1  75   1
M  ISO  4  36 100  59 101  73 100  82 101
M  END
> <Batch ID>
0182

> <Smiles>
CNC(C)C(=O)NC(C(=O)N1Cc2cc([101O:1][101CH2:1]c3cnc(C)c(CNC4CC4[100NH:0][100C:0](=O)N4CCCC(n5nc(-c6ccc(Oc7ccc(F)cc7F)cc6)c(C(N)=O)c5N)C4)n3)ccc2CC1C(=O)NC1CCCc2ccccc21)C(C)(C)C

> <Shape>
0.286

> <Color>
0.122

> <Negative vol penalty>
0.000

$$$$

  -OEChem-04052323053D

 80 88  0     1  0  0  0  0  0999 V2000
  -22.0330  -12.4232   22.2752 C   0  0  0  0  0  0  0  0  0  0  0  0
  -22.4924  -13.5749   22.9060 C   0  0  0  0  0  0  0  0  0  0  0  0
  -23.6426  -30.4900   21.9809 C   0  0  0  0  0  0  0  0  0  0  0  0
  -24.3490  -30.4620   24.2911 C   0  0  0  0  0  0  0  0  0  0  0  0
  -22.7967  -11.8272   21.2724 C   0  0  0  0  0  0  0  0  0  0  0  0
  -23.7164  -14.1306   22.5352 C   0  0  0  0  0  0  0  0  0  0  0  0
  -23.4856  -19.1618   22.0076 C   0  0  0  0  0  0  0  0  0  0  0  0
  -22.3411  -30.1796   22.3750 C   0  0  0  0  0  0  0  0  0  0  0  0
  -23.0474  -30.1517   24.6853 C   0  0  0  0  0  0  0  0  0  0  0  0
  -23.5003  -19.9257   23.1739 C   0  0  0  0  0  0  0  0  0  0  0  0
  -18.9078  -29.0404   22.7468 C   0  0  0  0  0  0  0  0  0  0  0  0
  -18.2285  -28.0559   22.0292 C   0  0  0  0  0  0  0  0  0  0  0  0
  -25.8486  -20.3699   22.8461 C   0  0  0  0  0  0  0  0  0  0  0  0
  -19.9350  -26.4499   22.6171 C   0  0  0  0  0  0  0  0  0  0  0  0
  -24.6466  -30.6311   22.9389 C   0  0  0  0  0  0  0  0  0  0  0  0
  -26.5500  -32.2339   22.3772 C   0  0  0  0  0  0  0  0  0  0  0  0
  -24.0261  -12.3813   20.8824 C   0  0  0  0  0  0  0  0  0  0  0  0
  -24.6567  -18.9870   21.2565 C   0  0  0  0  0  0  0  0  0  0  0  0
  -24.4979  -13.5406   21.5272 C   0  0  0  0  0  0  0  0  0  0  0  0
  -25.8455  -19.6055   21.6693 C   0  0  0  0  0  0  0  0  0  0  0  0
  -22.0435  -30.0106   23.7272 C   0  0  0  0  0  0  0  0  0  0  0  0
  -24.6826  -20.5275   23.5948 C   0  0  0  0  0  0  0  0  0  0  0  0
  -20.1007  -28.7297   23.3995 C   0  0  0  0  0  0  0  0  0  0  0  0
  -18.7421  -26.7607   21.9644 C   0  0  0  0  0  0  0  0  0  0  0  0
  -20.6143  -27.4344   23.3347 C   0  0  0  0  0  0  0  0  0  0  0  0
  -25.9913  -30.9511   22.5323 C   0  0  0  0  0  0  0  0  0  0  0  0
  -27.8436  -31.9992   21.9798 C   0  0  0  0  0  0  0  0  0  0  0  0
  -25.9531  -33.5224   22.5748 C   0  0  0  0  0  0  0  0  0  0  0  0
  -26.4333  -16.4872   20.4206 C   0  0  0  0  0  0  0  0  0  0  0  0
  -28.0209  -18.6989   18.6570 C   0  0  0  0  0  0  0  0  0  0  0  0
  -28.8574  -21.9742   18.1886 C   0  0  0  0  0  0  0  0  0  0  0  0
  -27.8345  -26.4898   22.3057 C   0  0  0  0  0  0  0  0  0  0  0  0
  -24.8385  -11.6746   19.8264 C   0  0  0  0  0  0  0  0  0  0  0  0
  -24.6181  -18.1821   19.9864 C   0  0  0  0  0  0  0  0  0  0  0  0
  -27.1253  -19.4654   20.8876 C   0  0  0  0  0  0  0  0  0  0  0  0
  -25.9484  -12.5382   19.2325 C   0  0  0  0  0  0  0  0  0  0  0  0
  -28.4991  -28.5539   19.4658 C   0  0  0  0  0  0  0  0  0  0  0  0
  -29.4694  -24.9254   25.1393 C   0  0  0  0  0  0  0  0  0  0  0  0
  -26.7222  -13.2481   20.3388 C   0  0  0  0  0  0  0  0  0  0  0  0
  -29.3370  -29.7065   20.0080 C   0  0  0  0  0  0  0  0  0  0  0  0
  -28.0443  -24.9552   25.6734 C   0  0  0  0  0  0  0  0  0  0  0  0
  -28.8398  -27.2585   20.1861 C   0  0  0  0  0  0  0  0  0  0  0  0
  -29.4965  -26.1195   24.1977 C   0  0  0  0  0  0  0  0  0  0  0  0
  -29.3959  -28.5032   22.2664 C   0  0  0  0  0  0  0  0  0  0  0  0
  -25.8088  -14.1873   21.1357 C   0  0  1  0  0  0  0  0  0  0  0  0
  -25.9867  -17.6471   19.5763 C   0  0  1  0  0  0  0  0  0  0  0  0
  -29.2202  -29.8533   21.5336 C   0  0  2  0  0  0  0  0  0  0  0  0
  -27.2210  -25.3806   24.4545 C   0  0  1  0  0  0  0  0  0  0  0  0
  -30.1994  -23.4689   16.6845 C   0  0  0  0  0  0  0  0  0  0  0  0
  -30.5865  -17.7553   20.0125 C   0  0  0  0  0  0  0  0  0  0  0  0
  -31.6964  -19.8534   19.2160 C   0  0  0  0  0  0  0  0  0  0  0  0
  -30.8071  -18.2102   17.5632 C   0  0  0  0  0  0  0  0  0  0  0  0
  -26.4551  -23.4913   17.3599 C   0  0  0  0  0  0  0  0  0  0  0  0
  -25.9846  -26.1765   24.8526 C   0  0  0  0  0  0  0  0  0  0  0  0
  -25.0934  -25.3727   25.7842 C   0  0  0  0  0  0  0  0  0  0  0  0
  -23.8688  -23.2015   25.9421 C   0  0  0  0  0  0  0  0  0  0  0  0
  -23.5118  -21.9701   25.1331 C   0  0  0  0  0  0  0  0  0  1  0  0
  -29.1909  -19.6213   18.9006 C   0  0  1  0  0  0  0  0  0  0  0  0
  -28.8348  -22.8525   16.9506 C   0  0  2  0  0  0  0  0  0  0  0  0
  -30.5467  -18.8613   18.9391 C   0  0  0  0  0  0  0  0  0  0  0  0
  -26.8589  -29.9739   22.2558 N   0  0  0  0  0  0  0  0  0  0  0  0
  -27.9759  -30.6429   21.9228 N   0  0  0  0  0  0  0  0  0  0  0  0
  -27.0380  -18.6632   19.6562 N   0  0  0  0  0  0  0  0  0  0  0  0
  -28.6853  -27.3814   21.6358 N   0  0  0  0  0  0  0  0  0  0  0  0
  -28.1498  -26.1581   23.6253 N   0  0  0  0  0  0  0  0  0  0  0  0
  -28.8695  -32.8227   21.6768 N   0  0  0  0  0  0  0  0  0  0  0  0
  -24.6140  -33.5827   22.9842 N   0  0  0  0  0  0  0  0  0  0  0  0
  -25.5704  -15.4082   20.3960 N   0  0  0  0  0  0  0  0  0  0  0  0
  -29.1150  -20.6564   17.8753 N   0  0  0  0  0  0  0  0  0  0  0  0
  -27.8453  -23.9546   17.1153 N   0  3  0  0  0  0  0  0  0  0  0  0
  -24.7022  -24.1118   25.1094 N   0  3  0  0  0  0  0  0  0  0  0  0
  -26.5835  -34.5889   22.3779 O   0  0  0  0  0  0  0  0  0  0  0  0
  -27.4838  -16.5649   21.0468 O   0  0  0  0  0  0  0  0  0  0  0  0
  -27.9771  -18.0398   17.6152 O   0  0  0  0  0  0  0  0  0  0  0  0
  -28.6692  -22.4139   19.3207 O   0  0  0  0  0  0  0  0  0  0  0  0
  -26.8425  -26.0034   21.7468 O   0  0  0  0  0  0  0  0  0  0  0  0
  -20.7735  -29.7080   24.1122 O   0  0  0  0  0  0  0  0  0  0  0  0
  -24.7002  -21.2878   24.7557 O   0  0  0  0  0  0  0  0  0  1  0  0
  -18.0889  -25.8150   21.2765 F   0  0  0  0  0  0  0  0  0  0  0  0
  -21.7593  -27.1296   23.9608 F   0  0  0  0  0  0  0  0  0  0  0  0
  1  2  1  0  0  0  0
  1  5  2  0  0  0  0
  2  6  2  0  0  0  0
  3  8  2  0  0  0  0
  3 15  1  0  0  0  0
  4  9  1  0  0  0  0
  4 15  2  0  0  0  0
  5 17  1  0  0  0  0
  6 19  1  0  0  0  0
  7 10  2  0  0  0  0
  7 18  1  0  0  0  0
  8 21  1  0  0  0  0
  9 21  2  0  0  0  0
 10 22  1  0  0  0  0
 11 12  2  0  0  0  0
 11 23  1  0  0  0  0
 12 24  1  0  0  0  0
 13 20  1  0  0  0  0
 13 22  2  0  0  0  0
 14 24  2  0  0  0  0
 14 25  1  0  0  0  0
 15 26  1  0  0  0  0
 16 26  1  0  0  0  0
 16 27  2  0  0  0  0
 16 28  1  0  0  0  0
 17 19  2  0  0  0  0
 17 33  1  0  0  0  0
 18 20  2  0  0  0  0
 18 34  1  0  0  0  0
 19 45  1  0  0  0  0
 20 35  1  0  0  0  0
 21 77  1  0  0  0  0
 22 78  1  0  0  0  0
 23 25  2  0  0  0  0
 23 77  1  0  0  0  0
 24 79  1  0  0  0  0
 25 80  1  0  0  0  0
 26 61  2  0  0  0  0
 27 62  1  0  0  0  0
 27 66  1  0  0  0  0
 28 67  1  0  0  0  0
 28 72  2  0  0  0  0
 29 46  1  0  0  0  0
 29 68  1  0  0  0  0
 29 73  2  0  0  0  0
 30 58  1  0  0  0  0
 30 63  1  0  0  0  0
 30 74  2  0  0  0  0
 31 59  1  0  0  0  0
 31 69  1  0  0  0  0
 31 75  2  0  0  0  0
 32 64  1  0  0  0  0
 32 65  1  0  0  0  0
 32 76  2  0  0  0  0
 33 36  1  0  0  0  0
 34 46  1  0  0  0  0
 35 63  1  0  0  0  0
 36 39  1  0  0  0  0
 37 40  1  0  0  0  0
 37 42  1  0  0  0  0
 38 41  1  0  0  0  0
 38 43  1  0  0  0  0
 39 45  1  0  0  0  0
 40 47  1  0  0  0  0
 41 48  1  0  0  0  0
 42 64  1  0  0  0  0
 43 65  1  0  0  0  0
 44 47  1  0  0  0  0
 44 64  1  0  0  0  0
 45 68  1  0  0  0  0
 46 63  1  0  0  0  0
 47 62  1  0  0  0  0
 48 54  1  0  0  0  0
 48 65  1  0  0  0  0
 49 59  1  0  0  0  0
 50 60  1  0  0  0  0
 51 60  1  0  0  0  0
 52 60  1  0  0  0  0
 53 70  1  0  0  0  0
 54 55  1  0  0  0  0
 55 71  1  0  0  0  0
 56 57  1  0  0  0  0
 56 71  1  0  0  0  0
 57 78  1  0  0  0  0
 58 60  1  0  0  0  0
 58 69  1  0  0  0  0
 59 70  1  0  0  0  0
 61 62  1  0  0  0  0
M  CHG  2  70   1  71   1
M  ISO  4  32 100  57 101  65 100  78 101
M  END
> <Batch ID>
0182

> <Smiles>
CNC(C)C(=O)NC(C(=O)N1Cc2cc([101O:1][101CH2:1]CNCCC3CCC[100N:0]3[100C:0](=O)N3CCCC(n4nc(-c5ccc(Oc6ccc(F)cc6F)cc5)c(C(N)=O)c4N)C3)ccc2CC1C(=O)NC1CCCc2ccccc21)C(C)(C)C

> <Shape>
0.234

> <Color>
0.085

> <Negative vol penalty>
0.000

$$$$

  -OEChem-04052323053D

 82 90  0     1  0  0  0  0  0999 V2000
  -31.3961  -11.1705   20.3995 C   0  0  0  0  0  0  0  0  0  0  0  0
  -31.2181  -12.5035   20.0437 C   0  0  0  0  0  0  0  0  0  0  0  0
  -21.7197  -29.3673   19.2546 C   0  0  0  0  0  0  0  0  0  0  0  0
  -22.5860  -27.4356   20.4188 C   0  0  0  0  0  0  0  0  0  0  0  0
  -30.3402  -10.2690   20.2717 C   0  0  0  0  0  0  0  0  0  0  0  0
  -29.9842  -12.9358   19.5588 C   0  0  0  0  0  0  0  0  0  0  0  0
  -28.5045  -17.3103   21.6369 C   0  0  0  0  0  0  0  0  0  0  0  0
  -20.6161  -28.6221   18.8393 C   0  0  0  0  0  0  0  0  0  0  0  0
  -21.4824  -26.6904   20.0036 C   0  0  0  0  0  0  0  0  0  0  0  0
  -29.0951  -18.4769   21.1533 C   0  0  0  0  0  0  0  0  0  0  0  0
  -18.7128  -24.3791   19.5504 C   0  0  0  0  0  0  0  0  0  0  0  0
  -18.0804  -23.5730   20.4969 C   0  0  0  0  0  0  0  0  0  0  0  0
  -27.1473  -18.8914   19.7918 C   0  0  0  0  0  0  0  0  0  0  0  0
  -17.6082  -25.5233   21.8424 C   0  0  0  0  0  0  0  0  0  0  0  0
  -22.7047  -28.7740   20.0443 C   0  0  0  0  0  0  0  0  0  0  0  0
  -23.9623  -30.3053   21.6509 C   0  0  0  0  0  0  0  0  0  0  0  0
  -29.0899  -10.6925   19.7941 C   0  0  0  0  0  0  0  0  0  0  0  0
  -27.2332  -16.9191   21.1926 C   0  0  0  0  0  0  0  0  0  0  0  0
  -28.9109  -12.0389   19.4232 C   0  0  0  0  0  0  0  0  0  0  0  0
  -26.5417  -17.7207   20.2733 C   0  0  0  0  0  0  0  0  0  0  0  0
  -20.4975  -27.2837   19.2138 C   0  0  0  0  0  0  0  0  0  0  0  0
  -28.4177  -19.2661   20.2284 C   0  0  0  0  0  0  0  0  0  0  0  0
  -18.7931  -25.7573   19.7499 C   0  0  0  0  0  0  0  0  0  0  0  0
  -17.5280  -24.1451   21.6429 C   0  0  0  0  0  0  0  0  0  0  0  0
  -18.2407  -26.3294   20.8959 C   0  0  0  0  0  0  0  0  0  0  0  0
  -23.8451  -29.5431   20.4731 C   0  0  0  0  0  0  0  0  0  0  0  0
  -25.2277  -30.8362   21.5918 C   0  0  0  0  0  0  0  0  0  0  0  0
  -30.8797  -25.2435   23.0468 C   0  0  0  0  0  0  0  0  0  0  0  0
  -30.8816  -26.0882   20.9675 C   0  0  0  0  0  0  0  0  0  0  0  0
  -29.9167  -24.1025   21.3711 C   0  0  0  0  0  0  0  0  0  0  0  0
  -23.0123  -30.5146   22.7042 C   0  0  0  0  0  0  0  0  0  0  0  0
  -26.0798  -14.4044   19.6276 C   0  0  0  0  0  0  0  0  0  0  0  0
  -23.2262  -15.8139   20.2544 C   0  0  0  0  0  0  0  0  0  0  0  0
  -21.5006  -18.6703   20.9685 C   0  0  0  0  0  0  0  0  0  0  0  0
  -30.2496  -29.1079   18.8269 C   0  0  0  0  0  0  0  0  0  0  0  0
  -27.9922   -9.6715   19.6288 C   0  0  0  0  0  0  0  0  0  0  0  0
  -26.5987  -15.6718   21.7442 C   0  0  0  0  0  0  0  0  0  0  0  0
  -25.1663  -17.3554   19.7799 C   0  0  0  0  0  0  0  0  0  0  0  0
  -26.6063  -10.2890   19.4603 C   0  0  0  0  0  0  0  0  0  0  0  0
  -28.5643  -32.2221   18.4554 C   0  0  0  0  0  0  0  0  0  0  0  0
  -26.6489  -11.4275   18.4460 C   0  0  0  0  0  0  0  0  0  0  0  0
  -27.1743  -31.9574   19.0366 C   0  0  0  0  0  0  0  0  0  0  0  0
  -29.1072  -31.0029   17.7132 C   0  0  0  0  0  0  0  0  0  0  0  0
  -27.7219  -29.4882   19.0772 C   0  0  0  0  0  0  0  0  0  0  0  0
  -27.5801  -12.5512   18.9167 C   0  0  1  0  0  0  0  0  0  0  0  0
  -25.5160  -15.0997   20.8344 C   0  0  1  0  0  0  0  0  0  0  0  0
  -27.1562  -30.6702   19.8828 C   0  0  2  0  0  0  0  0  0  0  0  0
  -31.2483  -25.3571   24.4866 C   0  0  0  0  0  0  0  0  0  0  0  0
  -19.1747  -19.5138   21.3882 C   0  0  0  0  0  0  0  0  0  0  0  0
  -22.6292  -15.6472   17.2668 C   0  0  0  0  0  0  0  0  0  0  0  0
  -20.7916  -17.3121   17.6120 C   0  0  0  0  0  0  0  0  0  0  0  0
  -20.6930  -15.0945   18.7500 C   0  0  0  0  0  0  0  0  0  0  0  0
  -22.1988  -19.5822   23.6961 C   0  0  0  0  0  0  0  0  0  0  0  0
  -31.2522  -27.1735   20.0153 C   0  0  0  0  0  0  0  0  0  0  0  0
  -28.8335  -22.7966   19.5416 C   0  0  0  0  0  0  0  0  0  0  0  0
  -28.1159  -21.4671   19.3795 C   0  0  0  0  0  0  0  0  0  1  0  0
  -22.3549  -16.8244   19.5482 C   0  0  1  0  0  0  0  0  0  0  0  0
  -20.4491  -18.9757   22.0199 C   0  0  2  0  0  0  0  0  0  0  0  0
  -21.6439  -16.2257   18.3019 C   0  0  0  0  0  0  0  0  0  0  0  0
  -24.9480  -29.5837   19.7208 N   0  0  0  0  0  0  0  0  0  0  0  0
  -31.2464  -26.2591   22.2483 N   0  0  0  0  0  0  0  0  0  0  0  0
  -30.2147  -24.1361   22.6800 N   0  0  0  0  0  0  0  0  0  0  0  0
  -30.2169  -25.0391   20.4570 N   0  0  0  0  0  0  0  0  0  0  0  0
  -25.7703  -30.3778   20.4275 N   0  0  0  0  0  0  0  0  0  0  0  0
  -24.5908  -16.1233   20.3440 N   0  0  0  0  0  0  0  0  0  0  0  0
  -29.0640  -29.8165   18.5714 N   0  0  0  0  0  0  0  0  0  0  0  0
  -25.9180  -31.6457   22.4228 N   0  0  0  0  0  0  0  0  0  0  0  0
  -21.7591  -29.8947   22.6066 N   0  0  0  0  0  0  0  0  0  0  0  0
  -29.2298  -22.9884   20.9179 N   0  0  0  0  0  0  0  0  0  0  0  0
  -26.9294  -13.3567   19.9276 N   0  0  0  0  0  0  0  0  0  0  0  0
  -21.4452  -17.3553   20.5577 N   0  0  0  0  0  0  0  0  0  0  0  0
  -30.1214  -27.9996   19.6552 N   0  0  0  0  0  0  0  0  0  0  0  0
  -20.9603  -19.9904   22.9843 N   0  3  0  0  0  0  0  0  0  0  0  0
  -23.2613  -31.2435   23.6943 O   0  0  0  0  0  0  0  0  0  0  0  0
  -25.7659  -14.7889   18.5072 O   0  0  0  0  0  0  0  0  0  0  0  0
  -22.7138  -14.7912   20.7160 O   0  0  0  0  0  0  0  0  0  0  0  0
  -22.2896  -19.5149   20.5505 O   0  0  0  0  0  0  0  0  0  0  0  0
  -31.3424  -29.4414   18.3563 O   0  0  0  0  0  0  0  0  0  0  0  0
  -19.4206  -26.5563   18.8090 O   0  0  0  0  0  0  0  0  0  0  0  0
  -28.9922  -20.4050   19.7542 O   0  0  0  0  0  0  0  0  0  1  0  0
  -16.9194  -23.3711   22.5509 F   0  0  0  0  0  0  0  0  0  0  0  0
  -18.3136  -27.6530   21.0925 F   0  0  0  0  0  0  0  0  0  0  0  0
  1  2  1  0  0  0  0
  1  5  2  0  0  0  0
  2  6  2  0  0  0  0
  3  8  2  0  0  0  0
  3 15  1  0  0  0  0
  4  9  1  0  0  0  0
  4 15  2  0  0  0  0
  5 17  1  0  0  0  0
  6 19  1  0  0  0  0
  7 10  2  0  0  0  0
  7 18  1  0  0  0  0
  8 21  1  0  0  0  0
  9 21  2  0  0  0  0
 10 22  1  0  0  0  0
 11 12  2  0  0  0  0
 11 23  1  0  0  0  0
 12 24  1  0  0  0  0
 13 20  1  0  0  0  0
 13 22  2  0  0  0  0
 14 24  2  0  0  0  0
 14 25  1  0  0  0  0
 15 26  1  0  0  0  0
 16 26  1  0  0  0  0
 16 27  2  0  0  0  0
 16 31  1  0  0  0  0
 17 19  2  0  0  0  0
 17 36  1  0  0  0  0
 18 20  2  0  0  0  0
 18 37  1  0  0  0  0
 19 45  1  0  0  0  0
 20 38  1  0  0  0  0
 21 79  1  0  0  0  0
 22 80  1  0  0  0  0
 23 25  2  0  0  0  0
 23 79  1  0  0  0  0
 24 81  1  0  0  0  0
 25 82  1  0  0  0  0
 26 60  2  0  0  0  0
 27 64  1  0  0  0  0
 27 67  1  0  0  0  0
 28 48  1  0  0  0  0
 28 61  1  0  0  0  0
 28 62  2  0  0  0  0
 29 54  1  0  0  0  0
 29 61  2  0  0  0  0
 29 63  1  0  0  0  0
 30 62  1  0  0  0  0
 30 63  2  0  0  0  0
 30 69  1  0  0  0  0
 31 68  1  0  0  0  0
 31 74  2  0  0  0  0
 32 46  1  0  0  0  0
 32 70  1  0  0  0  0
 32 75  2  0  0  0  0
 33 57  1  0  0  0  0
 33 65  1  0  0  0  0
 33 76  2  0  0  0  0
 34 58  1  0  0  0  0
 34 71  1  0  0  0  0
 34 77  2  0  0  0  0
 35 66  1  0  0  0  0
 35 72  1  0  0  0  0
 35 78  2  0  0  0  0
 36 39  1  0  0  0  0
 37 46  1  0  0  0  0
 38 65  1  0  0  0  0
 39 41  1  0  0  0  0
 40 42  1  0  0  0  0
 40 43  1  0  0  0  0
 41 45  1  0  0  0  0
 42 47  1  0  0  0  0
 43 66  1  0  0  0  0
 44 47  1  0  0  0  0
 44 66  1  0  0  0  0
 45 70  1  0  0  0  0
 46 65  1  0  0  0  0
 47 64  1  0  0  0  0
 49 58  1  0  0  0  0
 50 59  1  0  0  0  0
 51 59  1  0  0  0  0
 52 59  1  0  0  0  0
 53 73  1  0  0  0  0
 54 72  1  0  0  0  0
 55 56  1  0  0  0  0
 55 69  1  0  0  0  0
 56 80  1  0  0  0  0
 57 59  1  0  0  0  0
 57 71  1  0  0  0  0
 58 73  1  0  0  0  0
 60 64  1  0  0  0  0
M  CHG  1  73   1
M  ISO  4  35 100  56 101  72 100  80 101
M  END
> <Batch ID>
0182

> <Smiles>
CNC(C)C(=O)NC(C(=O)N1Cc2cc([101O:1][101CH2:1]CNc3nc(C)nc(C[100NH:0][100C:0](=O)N4CCCC(n5nc(-c6ccc(Oc7ccc(F)cc7F)cc6)c(C(N)=O)c5N)C4)n3)ccc2CC1C(=O)NC1CCCc2ccccc21)C(C)(C)C

> <Shape>
0.219

> <Color>
0.075

> <Negative vol penalty>
0.000

$$$$

  -OEChem-04052323053D

 80 88  0     1  0  0  0  0  0999 V2000
  -29.1476  -35.7539   24.8749 C   0  0  0  0  0  0  0  0  0  0  0  0
  -29.6652  -34.7270   24.0919 C   0  0  0  0  0  0  0  0  0  0  0  0
  -24.3934   -9.9312   21.5946 C   0  0  0  0  0  0  0  0  0  0  0  0
  -24.7417  -11.0905   23.6854 C   0  0  0  0  0  0  0  0  0  0  0  0
  -28.1006  -35.4953   25.7585 C   0  0  0  0  0  0  0  0  0  0  0  0
  -29.1367  -33.4406   24.1929 C   0  0  0  0  0  0  0  0  0  0  0  0
  -27.8451  -27.6092   20.2378 C   0  0  0  0  0  0  0  0  0  0  0  0
  -24.0390   -8.7773   22.2934 C   0  0  0  0  0  0  0  0  0  0  0  0
  -24.3872   -9.9366   24.3843 C   0  0  0  0  0  0  0  0  0  0  0  0
  -28.0794  -26.2348   20.2369 C   0  0  0  0  0  0  0  0  0  0  0  0
  -22.6939   -5.6329   23.5259 C   0  0  0  0  0  0  0  0  0  0  0  0
  -21.5690   -4.9316   23.0918 C   0  0  0  0  0  0  0  0  0  0  0  0
  -26.2186  -25.9226   21.7400 C   0  0  0  0  0  0  0  0  0  0  0  0
  -20.2001   -6.8828   23.4871 C   0  0  0  0  0  0  0  0  0  0  0  0
  -24.7449  -11.0878   22.2906 C   0  0  0  0  0  0  0  0  0  0  0  0
  -24.2550  -13.3114   21.1402 C   0  0  0  0  0  0  0  0  0  0  0  0
  -27.5525  -34.2072   25.8633 C   0  0  0  0  0  0  0  0  0  0  0  0
  -26.8008  -28.1526   20.9998 C   0  0  0  0  0  0  0  0  0  0  0  0
  -28.0822  -33.1642   25.0797 C   0  0  0  0  0  0  0  0  0  0  0  0
  -25.9715  -27.3039   21.7469 C   0  0  0  0  0  0  0  0  0  0  0  0
  -24.0359   -8.7800   23.6883 C   0  0  0  0  0  0  0  0  0  0  0  0
  -27.2679  -25.3916   20.9903 C   0  0  0  0  0  0  0  0  0  0  0  0
  -22.5719   -6.9591   23.9406 C   0  0  0  0  0  0  0  0  0  0  0  0
  -20.3221   -5.5566   23.0724 C   0  0  0  0  0  0  0  0  0  0  0  0
  -21.3251   -7.5840   23.9212 C   0  0  0  0  0  0  0  0  0  0  0  0
  -25.1116  -12.2800   21.5692 C   0  0  0  0  0  0  0  0  0  0  0  0
  -29.7640  -21.3788   19.9012 C   0  0  0  0  0  0  0  0  0  0  0  0
  -28.6497  -22.0792   20.3079 C   0  0  0  0  0  0  0  0  0  0  0  0
  -27.6405  -20.1197   20.9175 C   0  0  0  0  0  0  0  0  0  0  0  0
  -28.7545  -19.4192   20.5101 C   0  0  0  0  0  0  0  0  0  0  0  0
  -25.0839  -14.2053   20.5075 C   0  0  0  0  0  0  0  0  0  0  0  0
  -22.8368  -13.4492   21.2996 C   0  0  0  0  0  0  0  0  0  0  0  0
  -26.6234  -30.2003   23.4245 C   0  0  0  0  0  0  0  0  0  0  0  0
  -23.4310  -29.9066   22.9300 C   0  0  0  0  0  0  0  0  0  0  0  0
  -20.8468  -28.0351   21.7191 C   0  0  0  0  0  0  0  0  0  0  0  0
  -29.8080  -17.1432   20.2732 C   0  0  0  0  0  0  0  0  0  0  0  0
  -26.4529  -33.9656   26.8670 C   0  0  0  0  0  0  0  0  0  0  0  0
  -26.5445  -29.6344   20.9690 C   0  0  0  0  0  0  0  0  0  0  0  0
  -24.8246  -27.8353   22.5658 C   0  0  0  0  0  0  0  0  0  0  0  0
  -25.6994  -32.6573   26.6418 C   0  0  0  0  0  0  0  0  0  0  0  0
  -29.9294  -13.7815   19.1062 C   0  0  0  0  0  0  0  0  0  0  0  0
  -26.6780  -31.5123   26.4007 C   0  0  0  0  0  0  0  0  0  0  0  0
  -28.6163  -13.1761   19.6077 C   0  0  0  0  0  0  0  0  0  0  0  0
  -30.5198  -14.7678   20.1124 C   0  0  0  0  0  0  0  0  0  0  0  0
  -28.2902  -15.2204   21.0573 C   0  0  0  0  0  0  0  0  0  0  0  0
  -27.5191  -31.7610   25.1429 C   0  0  1  0  0  0  0  0  0  0  0  0
  -25.7734  -30.1329   22.1874 C   0  0  1  0  0  0  0  0  0  0  0  0
  -27.6240  -14.2695   20.0495 C   0  0  2  0  0  0  0  0  0  0  0  0
  -30.9531  -22.0736   19.3312 C   0  0  0  0  0  0  0  0  0  0  0  0
  -26.4462  -19.4337   21.4897 C   0  0  0  0  0  0  0  0  0  0  0  0
  -18.3476  -28.0403   21.4927 C   0  0  0  0  0  0  0  0  0  0  0  0
  -23.1639  -29.2058   25.8876 C   0  0  0  0  0  0  0  0  0  0  0  0
  -20.8763  -28.3140   25.3981 C   0  0  0  0  0  0  0  0  0  0  0  0
  -21.3821  -30.7258   25.0107 C   0  0  0  0  0  0  0  0  0  0  0  0
  -20.9983  -27.9487   18.7647 C   0  0  0  0  0  0  0  0  0  0  0  0
  -28.5815  -23.5741   20.1985 C   0  0  0  0  0  0  0  0  0  1  0  0
  -22.3489  -28.9899   23.4473 C   0  0  1  0  0  0  0  0  0  0  0  0
  -19.6698  -28.3976   20.8317 C   0  0  2  0  0  0  0  0  0  0  0  0
  -21.9655  -29.2988   24.9221 C   0  0  0  0  0  0  0  0  0  0  0  0
  -26.3869  -12.4972   21.2369 N   0  0  0  0  0  0  0  0  0  0  0  0
  -27.5680  -21.4622   20.8234 N   0  0  0  0  0  0  0  0  0  0  0  0
  -29.8363  -20.0362   19.9949 N   0  0  0  0  0  0  0  0  0  0  0  0
  -26.3377  -13.6754   20.5923 N   0  0  0  0  0  0  0  0  0  0  0  0
  -24.6184  -29.2919   22.5082 N   0  0  0  0  0  0  0  0  0  0  0  0
  -29.5245  -15.7767   20.4814 N   0  0  0  0  0  0  0  0  0  0  0  0
  -24.8552  -15.3850   19.8923 N   0  0  0  0  0  0  0  0  0  0  0  0
  -22.1390  -12.4388   21.9752 N   0  0  0  0  0  0  0  0  0  0  0  0
  -28.7741  -18.0076   20.6316 N   0  0  0  0  0  0  0  0  0  0  0  0
  -26.7475  -31.4708   23.9534 N   0  0  0  0  0  0  0  0  0  0  0  0
  -21.2390  -29.0969   22.5065 N   0  0  0  0  0  0  0  0  0  0  0  0
  -19.7573  -27.6718   19.5330 N   0  3  0  0  0  0  0  0  0  0  0  0
  -22.2046  -14.4311   20.8416 O   0  0  0  0  0  0  0  0  0  0  0  0
  -27.1281  -29.1751   23.8674 O   0  0  0  0  0  0  0  0  0  0  0  0
  -23.2275  -31.1228   22.8946 O   0  0  0  0  0  0  0  0  0  0  0  0
  -21.3641  -26.9202   21.7170 O   0  0  0  0  0  0  0  0  0  0  0  0
  -30.8778  -17.5171   19.7857 O   0  0  0  0  0  0  0  0  0  0  0  0
  -23.6898   -7.6542   24.3706 O   0  0  0  0  0  0  0  0  0  0  0  0
  -27.4949  -24.0498   20.9917 O   0  0  0  0  0  0  0  0  0  1  0  0
  -19.2423   -4.8835   22.6541 F   0  0  0  0  0  0  0  0  0  0  0  0
  -21.2018   -8.8583   24.3174 F   0  0  0  0  0  0  0  0  0  0  0  0
  1  2  1  0  0  0  0
  1  5  2  0  0  0  0
  2  6  2  0  0  0  0
  3  8  2  0  0  0  0
  3 15  1  0  0  0  0
  4  9  1  0  0  0  0
  4 15  2  0  0  0  0
  5 17  1  0  0  0  0
  6 19  1  0  0  0  0
  7 10  2  0  0  0  0
  7 18  1  0  0  0  0
  8 21  1  0  0  0  0
  9 21  2  0  0  0  0
 10 22  1  0  0  0  0
 11 12  2  0  0  0  0
 11 23  1  0  0  0  0
 12 24  1  0  0  0  0
 13 20  1  0  0  0  0
 13 22  2  0  0  0  0
 14 24  2  0  0  0  0
 14 25  1  0  0  0  0
 15 26  1  0  0  0  0
 16 26  1  0  0  0  0
 16 31  2  0  0  0  0
 16 32  1  0  0  0  0
 17 19  2  0  0  0  0
 17 37  1  0  0  0  0
 18 20  2  0  0  0  0
 18 38  1  0  0  0  0
 19 46  1  0  0  0  0
 20 39  1  0  0  0  0
 21 77  1  0  0  0  0
 22 78  1  0  0  0  0
 23 25  2  0  0  0  0
 23 77  1  0  0  0  0
 24 79  1  0  0  0  0
 25 80  1  0  0  0  0
 26 60  2  0  0  0  0
 27 28  2  0  0  0  0
 27 49  1  0  0  0  0
 27 62  1  0  0  0  0
 28 56  1  0  0  0  0
 28 61  1  0  0  0  0
 29 30  1  0  0  0  0
 29 50  1  0  0  0  0
 29 61  2  0  0  0  0
 30 62  2  0  0  0  0
 30 68  1  0  0  0  0
 31 63  1  0  0  0  0
 31 66  1  0  0  0  0
 32 67  1  0  0  0  0
 32 72  2  0  0  0  0
 33 47  1  0  0  0  0
 33 69  1  0  0  0  0
 33 73  2  0  0  0  0
 34 57  1  0  0  0  0
 34 64  1  0  0  0  0
 34 74  2  0  0  0  0
 35 58  1  0  0  0  0
 35 70  1  0  0  0  0
 35 75  2  0  0  0  0
 36 65  1  0  0  0  0
 36 68  1  0  0  0  0
 36 76  2  0  0  0  0
 37 40  1  0  0  0  0
 38 47  1  0  0  0  0
 39 64  1  0  0  0  0
 40 42  1  0  0  0  0
 41 43  1  0  0  0  0
 41 44  1  0  0  0  0
 42 46  1  0  0  0  0
 43 48  1  0  0  0  0
 44 65  1  0  0  0  0
 45 48  1  0  0  0  0
 45 65  1  0  0  0  0
 46 69  1  0  0  0  0
 47 64  1  0  0  0  0
 48 63  1  0  0  0  0
 51 58  1  0  0  0  0
 52 59  1  0  0  0  0
 53 59  1  0  0  0  0
 54 59  1  0  0  0  0
 55 71  1  0  0  0  0
 56 78  1  0  0  0  0
 57 59  1  0  0  0  0
 57 70  1  0  0  0  0
 58 71  1  0  0  0  0
 60 63  1  0  0  0  0
M  CHG  1  71   1
M  ISO  4  36 100  56 101  68 100  78 101
M  END
> <Batch ID>
0182

> <Smiles>
CNC(C)C(=O)NC(C(=O)N1Cc2cc([101O:1][101CH2:1]c3nc(C)c([100NH:0][100C:0](=O)N4CCCC(n5nc(-c6ccc(Oc7ccc(F)cc7F)cc6)c(C(N)=O)c5N)C4)nc3C)ccc2CC1C(=O)NC1CCCc2ccccc21)C(C)(C)C

> <Shape>
0.331

> <Color>
0.135

> <Negative vol penalty>
0.000

$$$$

  -OEChem-04052323053D

 83 92  0     1  0  0  0  0  0999 V2000
  -29.0725  -32.8652   24.8365 C   0  0  0  0  0  0  0  0  0  0  0  0
  -28.8722  -31.5256   24.5192 C   0  0  0  0  0  0  0  0  0  0  0  0
  -26.6379  -12.6092   21.6638 C   0  0  0  0  0  0  0  0  0  0  0  0
  -26.0975  -13.8259   19.6477 C   0  0  0  0  0  0  0  0  0  0  0  0
  -27.9772  -33.7059   25.0300 C   0  0  0  0  0  0  0  0  0  0  0  0
  -27.5764  -31.0255   24.3964 C   0  0  0  0  0  0  0  0  0  0  0  0
  -27.0096  -28.0785   20.3173 C   0  0  0  0  0  0  0  0  0  0  0  0
  -25.3570  -12.0571   21.6740 C   0  0  0  0  0  0  0  0  0  0  0  0
  -24.8166  -13.2738   19.6578 C   0  0  0  0  0  0  0  0  0  0  0  0
  -27.4970  -26.7749   20.4009 C   0  0  0  0  0  0  0  0  0  0  0  0
  -23.7016   -9.5750   20.0829 C   0  0  0  0  0  0  0  0  0  0  0  0
  -23.5870   -8.2076   20.3331 C   0  0  0  0  0  0  0  0  0  0  0  0
  -25.2629  -25.9738   20.8327 C   0  0  0  0  0  0  0  0  0  0  0  0
  -22.2340   -8.6770   22.2789 C   0  0  0  0  0  0  0  0  0  0  0  0
  -27.0082  -13.4936   20.6507 C   0  0  0  0  0  0  0  0  0  0  0  0
  -29.4784  -13.5399   20.0155 C   0  0  0  0  0  0  0  0  0  0  0  0
  -26.6673  -33.2181   24.9000 C   0  0  0  0  0  0  0  0  0  0  0  0
  -25.6446  -28.3413   20.5019 C   0  0  0  0  0  0  0  0  0  0  0  0
  -26.4625  -31.8601   24.5897 C   0  0  0  0  0  0  0  0  0  0  0  0
  -24.7604  -27.2813   20.7484 C   0  0  0  0  0  0  0  0  0  0  0  0
  -24.4464  -12.3894   20.6710 C   0  0  0  0  0  0  0  0  0  0  0  0
  -26.6240  -25.7227   20.6615 C   0  0  0  0  0  0  0  0  0  0  0  0
  -23.0824  -10.4935   20.9307 C   0  0  0  0  0  0  0  0  0  0  0  0
  -22.8532   -7.7586   21.4310 C   0  0  0  0  0  0  0  0  0  0  0  0
  -22.3486  -10.0445   22.0286 C   0  0  0  0  0  0  0  0  0  0  0  0
  -28.3310  -14.0646   20.6399 C   0  0  0  0  0  0  0  0  0  0  0  0
  -30.4688  -14.4488   20.2975 C   0  0  0  0  0  0  0  0  0  0  0  0
  -29.6349  -12.3384   19.2490 C   0  0  0  0  0  0  0  0  0  0  0  0
  -23.9484  -30.0336   22.5907 C   0  0  0  0  0  0  0  0  0  0  0  0
  -21.4836  -29.2505   20.6327 C   0  0  0  0  0  0  0  0  0  0  0  0
  -20.2009  -27.1119   18.3029 C   0  0  0  0  0  0  0  0  0  0  0  0
  -30.3880  -20.2867   21.6251 C   0  0  0  0  0  0  0  0  0  0  0  0
  -25.5146  -34.1539   25.1651 C   0  0  0  0  0  0  0  0  0  0  0  0
  -25.1306  -29.7498   20.3821 C   0  0  0  0  0  0  0  0  0  0  0  0
  -23.2830  -27.5079   20.9341 C   0  0  0  0  0  0  0  0  0  0  0  0
  -24.1760  -33.6331   24.6483 C   0  0  0  0  0  0  0  0  0  0  0  0
  -31.7738  -17.6628   23.5927 C   0  0  0  0  0  0  0  0  0  0  0  0
  -23.9837  -32.1719   25.0418 C   0  0  0  0  0  0  0  0  0  0  0  0
  -26.8615  -24.3924   15.3718 C   0  0  0  0  0  0  0  0  0  0  0  0
  -27.3925  -25.1978   16.5247 C   0  0  0  0  0  0  0  0  0  0  0  0
  -31.1521  -16.3958   23.0027 C   0  0  0  0  0  0  0  0  0  0  0  0
  -31.0425  -21.6401   18.5093 C   0  0  0  0  0  0  0  0  0  0  0  0
  -30.0479  -22.3668   17.5791 C   0  0  0  0  0  0  0  0  0  0  0  0
  -30.7887  -18.8297   23.5880 C   0  0  0  0  0  0  0  0  0  0  0  0
  -29.5607  -17.8560   21.6859 C   0  0  0  0  0  0  0  0  0  0  0  0
  -25.0721  -31.2862   24.4235 C   0  0  1  0  0  0  0  0  0  0  0  0
  -23.8000  -29.9632   21.0971 C   0  0  1  0  0  0  0  0  0  0  0  0
  -27.6343  -23.7149   16.4694 C   0  0  0  0  0  0  0  0  0  0  0  0
  -30.5342  -16.6668   21.6178 C   0  0  2  0  0  0  0  0  0  0  0  0
  -29.9227  -21.6249   19.5775 C   0  0  1  0  0  0  0  0  0  0  0  0
  -28.9172  -21.7100   18.4020 C   0  0  1  0  0  0  0  0  0  0  0  0
  -18.1484  -26.7103   16.9160 C   0  0  0  0  0  0  0  0  0  0  0  0
  -26.0864  -21.0484   19.4442 C   0  0  0  0  0  0  0  0  0  0  0  0
  -20.0337  -28.1775   23.0937 C   0  0  0  0  0  0  0  0  0  0  0  0
  -18.4709  -26.9654   21.5585 C   0  0  0  0  0  0  0  0  0  0  0  0
  -18.5863  -29.4567   21.5053 C   0  0  0  0  0  0  0  0  0  0  0  0
  -21.7128  -27.3945   15.7743 C   0  0  0  0  0  0  0  0  0  0  0  0
  -26.9304  -22.7918   17.4398 C   0  0  0  0  0  0  0  0  0  0  0  0
  -26.2096  -23.4004   20.3595 C   0  0  0  0  0  0  0  0  0  1  0  0
  -20.5013  -28.1067   20.5556 C   0  0  1  0  0  0  0  0  0  0  0  0
  -19.5200  -27.3651   16.9699 C   0  0  2  0  0  0  0  0  0  0  0  0
  -26.9955  -22.1948   19.8564 C   0  0  2  0  0  0  0  0  0  0  0  0
  -19.4261  -28.1722   21.6767 C   0  0  0  0  0  0  0  0  0  0  0  0
  -28.5691  -15.2174   21.2712 N   0  0  0  0  0  0  0  0  0  0  0  0
  -29.8775  -15.4245   21.0449 N   0  0  0  0  0  0  0  0  0  0  0  0
  -22.8299  -28.9035   20.8139 N   0  0  0  0  0  0  0  0  0  0  0  0
  -30.2403  -19.0351   22.2452 N   0  0  0  0  0  0  0  0  0  0  0  0
  -31.7791  -14.5005   19.9767 N   0  0  0  0  0  0  0  0  0  0  0  0
  -28.5147  -11.5186   19.0554 N   0  0  0  0  0  0  0  0  0  0  0  0
  -24.7896  -31.0400   23.0256 N   0  0  0  0  0  0  0  0  0  0  0  0
  -19.9559  -28.1276   19.2026 N   0  0  0  0  0  0  0  0  0  0  0  0
  -29.8448  -20.3945   20.3507 N   0  0  0  0  0  0  0  0  0  0  0  0
  -20.3451  -26.8201   15.8550 N   0  3  0  0  0  0  0  0  0  0  0  0
  -27.7890  -22.6111   18.6639 N   0  3  1  0  0  0  0  0  0  0  0  0
  -30.7393  -11.9933   18.7644 O   0  0  0  0  0  0  0  0  0  0  0  0
  -23.3434  -29.2350   23.2963 O   0  0  0  0  0  0  0  0  0  0  0  0
  -21.0724  -30.4088   20.5287 O   0  0  0  0  0  0  0  0  0  0  0  0
  -20.8791  -26.1113   18.5250 O   0  0  0  0  0  0  0  0  0  0  0  0
  -30.9661  -21.2361   22.1649 O   0  0  0  0  0  0  0  0  0  0  0  0
  -23.1964  -11.8507   20.6805 O   0  0  0  0  0  0  0  0  0  0  0  0
  -27.0972  -24.4495   20.7443 O   0  0  0  0  0  0  0  0  0  1  0  0
  -22.7420   -6.4454   21.6703 F   0  0  0  0  0  0  0  0  0  0  0  0
  -21.7505  -10.9220   22.8460 F   0  0  0  0  0  0  0  0  0  0  0  0
  1  2  1  0  0  0  0
  1  5  2  0  0  0  0
  2  6  2  0  0  0  0
  3  8  2  0  0  0  0
  3 15  1  0  0  0  0
  4  9  1  0  0  0  0
  4 15  2  0  0  0  0
  5 17  1  0  0  0  0
  6 19  1  0  0  0  0
  7 10  2  0  0  0  0
  7 18  1  0  0  0  0
  8 21  1  0  0  0  0
  9 21  2  0  0  0  0
 10 22  1  0  0  0  0
 11 12  2  0  0  0  0
 11 23  1  0  0  0  0
 12 24  1  0  0  0  0
 13 20  1  0  0  0  0
 13 22  2  0  0  0  0
 14 24  2  0  0  0  0
 14 25  1  0  0  0  0
 15 26  1  0  0  0  0
 16 26  1  0  0  0  0
 16 27  2  0  0  0  0
 16 28  1  0  0  0  0
 17 19  2  0  0  0  0
 17 33  1  0  0  0  0
 18 20  2  0  0  0  0
 18 34  1  0  0  0  0
 19 46  1  0  0  0  0
 20 35  1  0  0  0  0
 21 80  1  0  0  0  0
 22 81  1  0  0  0  0
 23 25  2  0  0  0  0
 23 80  1  0  0  0  0
 24 82  1  0  0  0  0
 25 83  1  0  0  0  0
 26 64  2  0  0  0  0
 27 65  1  0  0  0  0
 27 68  1  0  0  0  0
 28 69  1  0  0  0  0
 28 75  2  0  0  0  0
 29 47  1  0  0  0  0
 29 70  1  0  0  0  0
 29 76  2  0  0  0  0
 30 60  1  0  0  0  0
 30 66  1  0  0  0  0
 30 77  2  0  0  0  0
 31 61  1  0  0  0  0
 31 71  1  0  0  0  0
 31 78  2  0  0  0  0
 32 67  1  0  0  0  0
 32 72  1  0  0  0  0
 32 79  2  0  0  0  0
 33 36  1  0  0  0  0
 34 47  1  0  0  0  0
 35 66  1  0  0  0  0
 36 38  1  0  0  0  0
 37 41  1  0  0  0  0
 37 44  1  0  0  0  0
 38 46  1  0  0  0  0
 39 40  1  0  0  0  0
 39 48  1  0  0  0  0
 40 48  1  0  0  0  0
 41 49  1  0  0  0  0
 42 43  1  0  0  0  0
 42 50  1  0  0  0  0
 43 51  1  0  0  0  0
 44 67  1  0  0  0  0
 45 49  1  0  0  0  0
 45 67  1  0  0  0  0
 46 70  1  0  0  0  0
 47 66  1  0  0  0  0
 48 58  1  0  0  0  0
 49 65  1  0  0  0  0
 50 51  1  0  0  0  0
 50 72  1  0  0  0  0
 51 74  1  0  0  0  0
 52 61  1  0  0  0  0
 53 62  1  0  0  0  0
 54 63  1  0  0  0  0
 55 63  1  0  0  0  0
 56 63  1  0  0  0  0
 57 73  1  0  0  0  0
 58 74  1  0  0  0  0
 59 62  1  0  0  0  0
 59 81  1  0  0  0  0
 60 63  1  0  0  0  0
 60 71  1  0  0  0  0
 61 73  1  0  0  0  0
 62 74  1  0  0  0  0
 64 65  1  0  0  0  0
M  CHG  2  73   1  74   1
M  ISO  4  32 100  59 101  72 100  81 101
M  END
> <Batch ID>
0182

> <Smiles>
CNC(C)C(=O)NC(C(=O)N1Cc2cc([101O:1][101CH2:1]C(C)N(CC3CC3)C3CCC3[100NH:0][100C:0](=O)N3CCCC(n4nc(-c5ccc(Oc6ccc(F)cc6F)cc5)c(C(N)=O)c4N)C3)ccc2CC1C(=O)NC1CCCc2ccccc21)C(C)(C)C

> <Shape>
0.319

> <Color>
0.072

> <Negative vol penalty>
0.000

$$$$

  -OEChem-04052323053D

 81 90  0     1  0  0  0  0  0999 V2000
  -25.2261  -35.6053   22.0744 C   0  0  0  0  0  0  0  0  0  0  0  0
  -25.9099  -34.3957   22.0055 C   0  0  0  0  0  0  0  0  0  0  0  0
  -25.0099  -14.6199   20.3464 C   0  0  0  0  0  0  0  0  0  0  0  0
  -27.3905  -14.2634   20.1392 C   0  0  0  0  0  0  0  0  0  0  0  0
  -23.9437  -35.6497   22.6198 C   0  0  0  0  0  0  0  0  0  0  0  0
  -25.3121  -33.2299   22.4830 C   0  0  0  0  0  0  0  0  0  0  0  0
  -25.8978  -29.3132   19.3269 C   0  0  0  0  0  0  0  0  0  0  0  0
  -24.8117  -13.2423   20.4391 C   0  0  0  0  0  0  0  0  0  0  0  0
  -27.1922  -12.8858   20.2319 C   0  0  0  0  0  0  0  0  0  0  0  0
  -27.1356  -28.6716   19.3312 C   0  0  0  0  0  0  0  0  0  0  0  0
  -25.1111  -10.8355   22.7950 C   0  0  0  0  0  0  0  0  0  0  0  0
  -24.2426  -10.3706   23.7825 C   0  0  0  0  0  0  0  0  0  0  0  0
  -33.0873  -25.0937   19.6694 C   0  0  0  0  0  0  0  0  0  0  0  0
  -26.2220  -26.9315   20.7300 C   0  0  0  0  0  0  0  0  0  0  0  0
  -22.8444   -9.3731   22.0833 C   0  0  0  0  0  0  0  0  0  0  0  0
  -32.9984  -26.4156   20.0814 C   0  0  0  0  0  0  0  0  0  0  0  0
  -26.2993  -15.1305   20.1964 C   0  0  0  0  0  0  0  0  0  0  0  0
  -26.7318  -17.4531   21.1587 C   0  0  0  0  0  0  0  0  0  0  0  0
  -23.3261  -34.4822   23.0953 C   0  0  0  0  0  0  0  0  0  0  0  0
  -24.8139  -28.7735   20.0343 C   0  0  0  0  0  0  0  0  0  0  0  0
  -24.0208  -33.2590   23.0364 C   0  0  0  0  0  0  0  0  0  0  0  0
  -31.9528  -24.5567   19.0958 C   0  0  0  0  0  0  0  0  0  0  0  0
  -24.9708  -27.5668   20.7309 C   0  0  0  0  0  0  0  0  0  0  0  0
  -30.7924  -25.3185   18.9616 C   0  0  0  0  0  0  0  0  0  0  0  0
  -25.9028  -12.3753   20.3818 C   0  0  0  0  0  0  0  0  0  0  0  0
  -27.2986  -27.4820   20.0352 C   0  0  0  0  0  0  0  0  0  0  0  0
  -24.8462  -10.5694   21.4516 C   0  0  0  0  0  0  0  0  0  0  0  0
  -23.1093   -9.6394   23.4267 C   0  0  0  0  0  0  0  0  0  0  0  0
  -23.7129   -9.8381   21.0958 C   0  0  0  0  0  0  0  0  0  0  0  0
  -26.5047  -16.5533   20.1000 C   0  0  0  0  0  0  0  0  0  0  0  0
  -30.7929  -26.6181   19.4105 C   0  0  0  0  0  0  0  0  0  0  0  0
  -26.8626  -18.6762   20.5477 C   0  0  0  0  0  0  0  0  0  0  0  0
  -26.8170  -17.2054   22.5683 C   0  0  0  0  0  0  0  0  0  0  0  0
  -23.0047  -29.7540   22.4569 C   0  0  0  0  0  0  0  0  0  0  0  0
  -21.3309  -27.0568   21.7892 C   0  0  0  0  0  0  0  0  0  0  0  0
  -21.3028  -23.9263   20.4306 C   0  0  0  0  0  0  0  0  0  0  0  0
  -28.9235  -21.8856   16.4736 C   0  0  0  0  0  0  0  0  0  0  0  0
  -21.9572  -34.5879   23.7196 C   0  0  0  0  0  0  0  0  0  0  0  0
  -23.4780  -29.4638   19.9977 C   0  0  0  0  0  0  0  0  0  0  0  0
  -31.7344  -23.1621   18.5970 C   0  0  0  0  0  0  0  0  0  0  0  0
  -29.6814  -24.5210   18.3632 C   0  0  0  0  0  0  0  0  0  0  0  0
  -23.8331  -26.9354   21.4896 C   0  0  0  0  0  0  0  0  0  0  0  0
  -21.2467  -33.2441   23.8606 C   0  0  0  0  0  0  0  0  0  0  0  0
  -25.9255  -20.0934   15.7832 C   0  0  0  0  0  0  0  0  0  0  0  0
  -22.1925  -32.1987   24.4433 C   0  0  0  0  0  0  0  0  0  0  0  0
  -25.8313  -19.0833   16.9281 C   0  0  0  0  0  0  0  0  0  0  0  0
  -27.3714  -20.3181   15.3464 C   0  0  0  0  0  0  0  0  0  0  0  0
  -28.2014  -19.6822   17.5782 C   0  0  0  0  0  0  0  0  0  0  0  0
  -23.3960  -31.9687   23.5213 C   0  0  1  0  0  0  0  0  0  0  0  0
  -22.5817  -29.0935   21.1753 C   0  0  1  0  0  0  0  0  0  0  0  0
  -26.7674  -19.4645   18.0907 C   0  0  2  0  0  0  0  0  0  0  0  0
  -30.4727  -23.3588   17.7340 C   0  0  2  0  0  0  0  0  0  0  0  0
  -19.8003  -21.9490   20.0696 C   0  0  0  0  0  0  0  0  0  0  0  0
  -21.6459  -26.2847   24.7243 C   0  0  0  0  0  0  0  0  0  0  0  0
  -20.9941  -23.9475   24.1072 C   0  0  0  0  0  0  0  0  0  0  0  0
  -19.3850  -25.8219   23.7606 C   0  0  0  0  0  0  0  0  0  0  0  0
  -21.5463  -24.1317   17.4882 C   0  0  0  0  0  0  0  0  0  0  0  0
  -29.5621  -27.4698   19.3056 C   0  0  0  0  0  0  0  0  0  1  0  0
  -21.3963  -25.6183   22.2424 C   0  0  1  0  0  0  0  0  0  0  0  0
  -20.3299  -23.2482   19.4828 C   0  0  2  0  0  0  0  0  0  0  0  0
  -20.8775  -25.4307   23.6960 C   0  0  0  0  0  0  0  0  0  0  0  0
  -31.8853  -27.1901   19.9673 N   0  0  0  0  0  0  0  0  0  0  0  0
  -26.4913  -17.1537   18.9070 N   0  0  0  0  0  0  0  0  0  0  0  0
  -26.7115  -18.4438   19.2122 N   0  0  0  0  0  0  0  0  0  0  0  0
  -22.5483  -27.6517   21.4288 N   0  0  0  0  0  0  0  0  0  0  0  0
  -28.2062  -20.6781   16.4951 N   0  0  0  0  0  0  0  0  0  0  0  0
  -27.0910  -19.9171   21.0278 N   0  0  0  0  0  0  0  0  0  0  0  0
  -26.6591  -15.8902   23.0263 N   0  0  0  0  0  0  0  0  0  0  0  0
  -23.0212  -31.1346   22.3996 N   0  0  0  0  0  0  0  0  0  0  0  0
  -20.6693  -24.8422   21.2436 N   0  0  0  0  0  0  0  0  0  0  0  0
  -29.6847  -22.1533   17.6048 N   0  0  0  0  0  0  0  0  0  0  0  0
  -20.9984  -22.9407   18.1869 N   0  3  0  0  0  0  0  0  0  0  0  0
  -27.0105  -18.1255   23.3986 O   0  0  0  0  0  0  0  0  0  0  0  0
  -23.2933  -29.0624   23.4264 O   0  0  0  0  0  0  0  0  0  0  0  0
  -20.2390  -27.6292   21.7494 O   0  0  0  0  0  0  0  0  0  0  0  0
  -22.5039  -23.6665   20.4504 O   0  0  0  0  0  0  0  0  0  0  0  0
  -28.8839  -22.6697   15.5194 O   0  0  0  0  0  0  0  0  0  0  0  0
  -25.7098  -11.0310   20.4724 O   0  0  0  0  0  0  0  0  0  0  0  0
  -28.5059  -26.8541   20.0415 O   0  0  0  0  0  0  0  0  0  1  0  0
  -22.2763   -9.1916   24.3752 F   0  0  0  0  0  0  0  0  0  0  0  0
  -23.4538   -9.5783   19.8069 F   0  0  0  0  0  0  0  0  0  0  0  0
  1  2  1  0  0  0  0
  1  5  2  0  0  0  0
  2  6  2  0  0  0  0
  3  8  2  0  0  0  0
  3 17  1  0  0  0  0
  4  9  1  0  0  0  0
  4 17  2  0  0  0  0
  5 19  1  0  0  0  0
  6 21  1  0  0  0  0
  7 10  2  0  0  0  0
  7 20  1  0  0  0  0
  8 25  1  0  0  0  0
  9 25  2  0  0  0  0
 10 26  1  0  0  0  0
 11 12  2  0  0  0  0
 11 27  1  0  0  0  0
 12 28  1  0  0  0  0
 13 16  1  0  0  0  0
 13 22  2  0  0  0  0
 14 23  1  0  0  0  0
 14 26  2  0  0  0  0
 15 28  2  0  0  0  0
 15 29  1  0  0  0  0
 16 62  2  0  0  0  0
 17 30  1  0  0  0  0
 18 30  1  0  0  0  0
 18 32  2  0  0  0  0
 18 33  1  0  0  0  0
 19 21  2  0  0  0  0
 19 38  1  0  0  0  0
 20 23  2  0  0  0  0
 20 39  1  0  0  0  0
 21 49  1  0  0  0  0
 22 24  1  0  0  0  0
 22 40  1  0  0  0  0
 23 42  1  0  0  0  0
 24 31  2  0  0  0  0
 24 41  1  0  0  0  0
 25 78  1  0  0  0  0
 26 79  1  0  0  0  0
 27 29  2  0  0  0  0
 27 78  1  0  0  0  0
 28 80  1  0  0  0  0
 29 81  1  0  0  0  0
 30 63  2  0  0  0  0
 31 58  1  0  0  0  0
 31 62  1  0  0  0  0
 32 64  1  0  0  0  0
 32 67  1  0  0  0  0
 33 68  1  0  0  0  0
 33 73  2  0  0  0  0
 34 50  1  0  0  0  0
 34 69  1  0  0  0  0
 34 74  2  0  0  0  0
 35 59  1  0  0  0  0
 35 65  1  0  0  0  0
 35 75  2  0  0  0  0
 36 60  1  0  0  0  0
 36 70  1  0  0  0  0
 36 76  2  0  0  0  0
 37 66  1  0  0  0  0
 37 71  1  0  0  0  0
 37 77  2  0  0  0  0
 38 43  1  0  0  0  0
 39 50  1  0  0  0  0
 40 52  1  0  0  0  0
 41 52  1  0  0  0  0
 42 65  1  0  0  0  0
 43 45  1  0  0  0  0
 44 46  1  0  0  0  0
 44 47  1  0  0  0  0
 45 49  1  0  0  0  0
 46 51  1  0  0  0  0
 47 66  1  0  0  0  0
 48 51  1  0  0  0  0
 48 66  1  0  0  0  0
 49 69  1  0  0  0  0
 50 65  1  0  0  0  0
 51 64  1  0  0  0  0
 52 71  1  0  0  0  0
 53 60  1  0  0  0  0
 54 61  1  0  0  0  0
 55 61  1  0  0  0  0
 56 61  1  0  0  0  0
 57 72  1  0  0  0  0
 58 79  1  0  0  0  0
 59 61  1  0  0  0  0
 59 70  1  0  0  0  0
 60 72  1  0  0  0  0
 63 64  1  0  0  0  0
M  CHG  1  72   1
M  ISO  4  37 100  58 101  71 100  79 101
M  END
> <Batch ID>
0182

> <Smiles>
CNC(C)C(=O)NC(C(=O)N1Cc2cc([101O:1][101CH2:1]c3nccc4c3CC([100NH:0][100C:0](=O)N3CCCC(n5nc(-c6ccc(Oc7ccc(F)cc7F)cc6)c(C(N)=O)c5N)C3)C4)ccc2CC1C(=O)NC1CCCc2ccccc21)C(C)(C)C

> <Shape>
0.236

> <Color>
0.070

> <Negative vol penalty>
0.000

$$$$

  -OEChem-04052323053D

 82 90  0     1  0  0  0  0  0999 V2000
  -17.4271  -25.8681   21.6787 C   0  0  0  0  0  0  0  0  0  0  0  0
  -18.6945  -25.7959   21.1098 C   0  0  0  0  0  0  0  0  0  0  0  0
  -26.6041  -12.7447   20.3693 C   0  0  0  0  0  0  0  0  0  0  0  0
  -24.3511  -13.5192   20.7712 C   0  0  0  0  0  0  0  0  0  0  0  0
  -17.1565  -26.8247   22.6563 C   0  0  0  0  0  0  0  0  0  0  0  0
  -19.6919  -26.6811   21.5173 C   0  0  0  0  0  0  0  0  0  0  0  0
  -24.1347  -24.3781   22.2938 C   0  0  0  0  0  0  0  0  0  0  0  0
  -26.1918  -11.4307   20.5902 C   0  0  0  0  0  0  0  0  0  0  0  0
  -23.9388  -12.2051   20.9920 C   0  0  0  0  0  0  0  0  0  0  0  0
  -24.8906  -24.0564   21.1673 C   0  0  0  0  0  0  0  0  0  0  0  0
  -23.1535   -9.4965   19.1299 C   0  0  0  0  0  0  0  0  0  0  0  0
  -21.9666   -9.0813   18.5263 C   0  0  0  0  0  0  0  0  0  0  0  0
  -26.2585  -26.0091   21.5349 C   0  0  0  0  0  0  0  0  0  0  0  0
  -21.0278   -8.6037   20.7006 C   0  0  0  0  0  0  0  0  0  0  0  0
  -25.6838  -13.7890   20.4599 C   0  0  0  0  0  0  0  0  0  0  0  0
  -26.1278  -15.8377   19.0061 C   0  0  0  0  0  0  0  0  0  0  0  0
  -18.1538  -27.7158   23.0829 C   0  0  0  0  0  0  0  0  0  0  0  0
  -24.4287  -25.5256   23.0443 C   0  0  0  0  0  0  0  0  0  0  0  0
  -19.4340  -27.6514   22.5005 C   0  0  0  0  0  0  0  0  0  0  0  0
  -25.5064  -26.3417   22.6720 C   0  0  0  0  0  0  0  0  0  0  0  0
  -24.8591  -11.1608   20.9014 C   0  0  0  0  0  0  0  0  0  0  0  0
  -25.9508  -24.8734   20.7861 C   0  0  0  0  0  0  0  0  0  0  0  0
  -23.2776   -9.4653   20.5189 C   0  0  0  0  0  0  0  0  0  0  0  0
  -20.9037   -8.6349   19.3116 C   0  0  0  0  0  0  0  0  0  0  0  0
  -22.2148   -9.0189   21.3043 C   0  0  0  0  0  0  0  0  0  0  0  0
  -26.1092  -15.1468   20.2325 C   0  0  0  0  0  0  0  0  0  0  0  0
  -26.6115  -17.0839   19.3214 C   0  0  0  0  0  0  0  0  0  0  0  0
  -25.7421  -15.3928   17.6988 C   0  0  0  0  0  0  0  0  0  0  0  0
  -22.8621  -28.1951   23.7678 C   0  0  0  0  0  0  0  0  0  0  0  0
  -25.4461  -28.7386   25.6519 C   0  0  0  0  0  0  0  0  0  0  0  0
  -28.7444  -28.1376   26.2898 C   0  0  0  0  0  0  0  0  0  0  0  0
  -30.6452  -19.8957   22.0665 C   0  0  0  0  0  0  0  0  0  0  0  0
  -17.8006  -28.7636   24.1086 C   0  0  0  0  0  0  0  0  0  0  0  0
  -23.6206  -25.8443   24.2722 C   0  0  0  0  0  0  0  0  0  0  0  0
  -25.8759  -27.5738   23.4555 C   0  0  0  0  0  0  0  0  0  0  0  0
  -19.0188  -29.4197   24.7534 C   0  0  0  0  0  0  0  0  0  0  0  0
  -27.3744  -19.3015   23.7902 C   0  0  0  0  0  0  0  0  0  0  0  0
  -20.0399  -29.8111   23.6899 C   0  0  0  0  0  0  0  0  0  0  0  0
  -26.8034  -18.1654   22.9431 C   0  0  0  0  0  0  0  0  0  0  0  0
  -28.8984  -19.2909   23.7755 C   0  0  0  0  0  0  0  0  0  0  0  0
  -32.4414  -21.2918   23.0113 C   0  0  0  0  0  0  0  0  0  0  0  0
  -28.9220  -18.2044   21.5511 C   0  0  0  0  0  0  0  0  0  0  0  0
  -32.7289  -21.9897   24.3290 C   0  0  0  0  0  0  0  0  0  0  0  0
  -30.3976  -22.8679   24.3670 C   0  0  0  0  0  0  0  0  0  0  0  0
  -20.5493  -28.5780   22.9339 C   0  0  1  0  0  0  0  0  0  0  0  0
  -23.6868  -27.3167   24.6656 C   0  0  1  0  0  0  0  0  0  0  0  0
  -27.3851  -18.1958   21.5196 C   0  0  1  0  0  0  0  0  0  0  0  0
  -30.0970  -22.1671   23.0425 C   0  0  1  0  0  0  0  0  0  0  0  0
  -30.5879  -28.7538   27.8769 C   0  0  0  0  0  0  0  0  0  0  0  0
  -30.6626  -23.1941   18.7181 C   0  0  0  0  0  0  0  0  0  0  0  0
  -25.7274  -31.4448   24.2707 C   0  0  0  0  0  0  0  0  0  0  0  0
  -28.0559  -31.5883   25.1795 C   0  0  0  0  0  0  0  0  0  0  0  0
  -26.1132  -31.4893   26.7412 C   0  0  0  0  0  0  0  0  0  0  0  0
  -29.0772  -25.3332   27.1747 C   0  0  0  0  0  0  0  0  0  0  0  0
  -30.1536  -23.1321   21.8500 C   0  0  0  0  0  0  0  0  0  0  0  0
  -28.1488  -22.9556   18.6545 C   0  0  0  0  0  0  0  0  0  0  0  0
  -26.8143  -23.1797   19.3572 C   0  0  0  0  0  0  0  0  0  1  0  0
  -26.7835  -29.4131   25.4637 C   0  0  1  0  0  0  0  0  0  0  0  0
  -29.4716  -27.7677   27.5699 C   0  0  2  0  0  0  0  0  0  0  0  0
  -29.3622  -23.3637   19.4923 C   0  0  1  0  0  0  0  0  0  0  0  0
  -26.6621  -30.9618   25.3977 C   0  0  0  0  0  0  0  0  0  0  0  0
  -26.5466  -15.8921   21.2509 N   0  0  0  0  0  0  0  0  0  0  0  0
  -26.8446  -17.0643   20.6650 N   0  0  0  0  0  0  0  0  0  0  0  0
  -25.0517  -27.8465   24.6446 N   0  0  0  0  0  0  0  0  0  0  0  0
  -29.4294  -19.2792   22.4058 N   0  0  0  0  0  0  0  0  0  0  0  0
  -31.0129  -21.0215   22.8271 N   0  0  0  0  0  0  0  0  0  0  0  0
  -26.8561  -18.1836   18.5775 N   0  0  0  0  0  0  0  0  0  0  0  0
  -25.2664  -14.0826   17.5522 N   0  0  0  0  0  0  0  0  0  0  0  0
  -21.5215  -27.8619   23.7318 N   0  0  0  0  0  0  0  0  0  0  0  0
  -27.6411  -28.9263   26.5388 N   0  0  0  0  0  0  0  0  0  0  0  0
  -31.8521  -23.1882   24.4595 N   0  3  0  0  0  0  0  0  0  0  0  0
  -30.0662  -26.4062   27.4529 N   0  3  0  0  0  0  0  0  0  0  0  0
  -29.4416  -22.5140   20.7164 N   0  3  0  0  0  0  0  0  0  0  0  0
  -25.8326  -16.1297   16.6877 O   0  0  0  0  0  0  0  0  0  0  0  0
  -23.4018  -29.1083   23.1543 O   0  0  0  0  0  0  0  0  0  0  0  0
  -24.7792  -28.9885   26.6591 O   0  0  0  0  0  0  0  0  0  0  0  0
  -29.1198  -27.7674   25.1796 O   0  0  0  0  0  0  0  0  0  0  0  0
  -31.3554  -19.4722   21.1465 O   0  0  0  0  0  0  0  0  0  0  0  0
  -24.4564   -9.8786   21.1167 O   0  0  0  0  0  0  0  0  0  0  0  0
  -26.6949  -24.5599   19.6790 O   0  0  0  0  0  0  0  0  0  1  0  0
  -19.7635   -8.2376   18.7319 F   0  0  0  0  0  0  0  0  0  0  0  0
  -22.3277   -8.9878   22.6392 F   0  0  0  0  0  0  0  0  0  0  0  0
  1  2  1  0  0  0  0
  1  5  2  0  0  0  0
  2  6  2  0  0  0  0
  3  8  2  0  0  0  0
  3 15  1  0  0  0  0
  4  9  1  0  0  0  0
  4 15  2  0  0  0  0
  5 17  1  0  0  0  0
  6 19  1  0  0  0  0
  7 10  2  0  0  0  0
  7 18  1  0  0  0  0
  8 21  1  0  0  0  0
  9 21  2  0  0  0  0
 10 22  1  0  0  0  0
 11 12  2  0  0  0  0
 11 23  1  0  0  0  0
 12 24  1  0  0  0  0
 13 20  1  0  0  0  0
 13 22  2  0  0  0  0
 14 24  2  0  0  0  0
 14 25  1  0  0  0  0
 15 26  1  0  0  0  0
 16 26  1  0  0  0  0
 16 27  2  0  0  0  0
 16 28  1  0  0  0  0
 17 19  2  0  0  0  0
 17 33  1  0  0  0  0
 18 20  2  0  0  0  0
 18 34  1  0  0  0  0
 19 45  1  0  0  0  0
 20 35  1  0  0  0  0
 21 79  1  0  0  0  0
 22 80  1  0  0  0  0
 23 25  2  0  0  0  0
 23 79  1  0  0  0  0
 24 81  1  0  0  0  0
 25 82  1  0  0  0  0
 26 62  2  0  0  0  0
 27 63  1  0  0  0  0
 27 67  1  0  0  0  0
 28 68  1  0  0  0  0
 28 74  2  0  0  0  0
 29 46  1  0  0  0  0
 29 69  1  0  0  0  0
 29 75  2  0  0  0  0
 30 58  1  0  0  0  0
 30 64  1  0  0  0  0
 30 76  2  0  0  0  0
 31 59  1  0  0  0  0
 31 70  1  0  0  0  0
 31 77  2  0  0  0  0
 32 65  1  0  0  0  0
 32 66  1  0  0  0  0
 32 78  2  0  0  0  0
 33 36  1  0  0  0  0
 34 46  1  0  0  0  0
 35 64  1  0  0  0  0
 36 38  1  0  0  0  0
 37 39  1  0  0  0  0
 37 40  1  0  0  0  0
 38 45  1  0  0  0  0
 39 47  1  0  0  0  0
 40 65  1  0  0  0  0
 41 43  1  0  0  0  0
 41 66  1  0  0  0  0
 42 47  1  0  0  0  0
 42 65  1  0  0  0  0
 43 71  1  0  0  0  0
 44 48  1  0  0  0  0
 44 71  1  0  0  0  0
 45 69  1  0  0  0  0
 46 64  1  0  0  0  0
 47 63  1  0  0  0  0
 48 55  1  0  0  0  0
 48 66  1  0  0  0  0
 49 59  1  0  0  0  0
 50 60  1  0  0  0  0
 51 61  1  0  0  0  0
 52 61  1  0  0  0  0
 53 61  1  0  0  0  0
 54 72  1  0  0  0  0
 55 73  1  0  0  0  0
 56 57  1  0  0  0  0
 56 60  1  0  0  0  0
 57 80  1  0  0  0  0
 58 61  1  0  0  0  0
 58 70  1  0  0  0  0
 59 72  1  0  0  0  0
 60 73  1  0  0  0  0
 62 63  1  0  0  0  0
M  CHG  3  71   1  72   1  73   1
M  ISO  4  32 100  57 101  66 100  80 101
M  END
> <Batch ID>
0182

> <Smiles>
CNC(C)C(=O)NC(C(=O)N1Cc2cc([101O:1][101CH2:1]CC(C)NCC3CNCC[100N:0]3[100C:0](=O)N3CCCC(n4nc(-c5ccc(Oc6ccc(F)cc6F)cc5)c(C(N)=O)c4N)C3)ccc2CC1C(=O)NC1CCCc2ccccc21)C(C)(C)C

> <Shape>
0.219

> <Color>
0.064

> <Negative vol penalty>
0.000

$$$$

  -OEChem-04052323053D

 82 91  0     1  0  0  0  0  0999 V2000
  -22.1086   -8.5898   20.4856 C   0  0  0  0  0  0  0  0  0  0  0  0
  -22.1313   -9.9689   20.3044 C   0  0  0  0  0  0  0  0  0  0  0  0
  -25.7579  -23.7915   15.7367 C   0  0  0  0  0  0  0  0  0  0  0  0
  -24.9421  -28.2856   20.4968 C   0  0  0  0  0  0  0  0  0  0  0  0
  -26.8312  -29.5354   21.3373 C   0  0  0  0  0  0  0  0  0  0  0  0
  -23.0211   -7.9864   21.3500 C   0  0  0  0  0  0  0  0  0  0  0  0
  -23.0658  -10.7456   20.9885 C   0  0  0  0  0  0  0  0  0  0  0  0
  -26.6278  -23.0531   16.5314 C   0  0  0  0  0  0  0  0  0  0  0  0
  -25.2689  -14.2020   18.0145 C   0  0  0  0  0  0  0  0  0  0  0  0
  -24.1007  -28.9646   21.3782 C   0  0  0  0  0  0  0  0  0  0  0  0
  -25.9898  -30.2144   22.2186 C   0  0  0  0  0  0  0  0  0  0  0  0
  -24.5363  -15.3521   17.7241 C   0  0  0  0  0  0  0  0  0  0  0  0
  -23.7868  -32.7735   22.0836 C   0  0  0  0  0  0  0  0  0  0  0  0
  -23.9419  -34.1556   22.1901 C   0  0  0  0  0  0  0  0  0  0  0  0
  -25.7703  -16.5567   19.4109 C   0  0  0  0  0  0  0  0  0  0  0  0
  -24.4383  -33.9185   24.5427 C   0  0  0  0  0  0  0  0  0  0  0  0
  -24.6242  -23.1577   15.2541 C   0  0  0  0  0  0  0  0  0  0  0  0
  -26.3073  -28.5710   20.4764 C   0  0  0  0  0  0  0  0  0  0  0  0
  -27.5135  -28.2452   18.2523 C   0  0  0  0  0  0  0  0  0  0  0  0
  -23.9735   -8.7550   22.0376 C   0  0  0  0  0  0  0  0  0  0  0  0
  -26.2519  -14.2177   19.0144 C   0  0  0  0  0  0  0  0  0  0  0  0
  -23.9910  -10.1521   21.8639 C   0  0  0  0  0  0  0  0  0  0  0  0
  -26.3414  -21.7224   16.8151 C   0  0  0  0  0  0  0  0  0  0  0  0
  -26.5158  -15.4061   19.7102 C   0  0  0  0  0  0  0  0  0  0  0  0
  -24.6246  -29.9290   22.2391 C   0  0  0  0  0  0  0  0  0  0  0  0
  -24.7849  -16.5289   18.4244 C   0  0  0  0  0  0  0  0  0  0  0  0
  -23.9574  -31.9639   23.2066 C   0  0  0  0  0  0  0  0  0  0  0  0
  -24.2677  -34.7281   23.4196 C   0  0  0  0  0  0  0  0  0  0  0  0
  -24.2832  -32.5364   24.4361 C   0  0  0  0  0  0  0  0  0  0  0  0
  -27.1770  -27.8696   19.5666 C   0  0  0  0  0  0  0  0  0  0  0  0
  -25.1815  -21.1813   16.2843 C   0  0  0  0  0  0  0  0  0  0  0  0
  -28.3619  -27.2559   17.8189 C   0  0  0  0  0  0  0  0  0  0  0  0
  -27.0965  -29.3865   17.4912 C   0  0  0  0  0  0  0  0  0  0  0  0
  -26.6699  -12.6953   21.7733 C   0  0  0  0  0  0  0  0  0  0  0  0
  -29.5372  -14.2114   21.7282 C   0  0  0  0  0  0  0  0  0  0  0  0
  -31.4114  -16.8323   20.6034 C   0  0  0  0  0  0  0  0  0  0  0  0
  -29.0279  -21.5518   19.3302 C   0  0  0  0  0  0  0  0  0  0  0  0
  -24.9087   -8.0632   22.9976 C   0  0  0  0  0  0  0  0  0  0  0  0
  -27.0520  -12.9758   19.2971 C   0  0  0  0  0  0  0  0  0  0  0  0
  -27.5744  -15.4809   20.7790 C   0  0  0  0  0  0  0  0  0  0  0  0
  -26.1103   -8.9152   23.3980 C   0  0  0  0  0  0  0  0  0  0  0  0
  -31.5491  -24.0626   19.4180 C   0  0  0  0  0  0  0  0  0  0  0  0
  -25.6651  -10.3274   23.7646 C   0  0  0  0  0  0  0  0  0  0  0  0
  -30.7481  -25.3654   19.3634 C   0  0  0  0  0  0  0  0  0  0  0  0
  -30.8356  -22.9977   20.2475 C   0  0  0  0  0  0  0  0  0  0  0  0
  -26.8637  -20.3851   18.9971 C   0  0  0  0  0  0  0  0  0  0  0  0
  -28.6380  -24.0305   19.7744 C   0  0  0  0  0  0  0  0  0  0  0  0
  -27.2845  -20.9246   17.6767 C   0  0  2  0  0  0  0  0  0  0  0  0
  -25.0056  -11.0257   22.5692 C   0  0  1  0  0  0  0  0  0  0  0  0
  -27.6742  -12.9700   20.6900 C   0  0  1  0  0  0  0  0  0  0  0  0
  -29.3013  -25.1091   18.9015 C   0  0  1  0  0  0  0  0  0  0  0  0
  -33.7110  -17.8234   20.7674 C   0  0  0  0  0  0  0  0  0  0  0  0
  -28.8779  -15.2745   24.5112 C   0  0  0  0  0  0  0  0  0  0  0  0
  -30.7028  -16.9640   24.2220 C   0  0  0  0  0  0  0  0  0  0  0  0
  -31.2466  -14.5295   24.2132 C   0  0  0  0  0  0  0  0  0  0  0  0
  -31.8751  -16.5303   17.6960 C   0  0  0  0  0  0  0  0  0  0  0  0
  -23.5706  -19.2827   16.4455 C   0  0  0  0  0  0  0  0  0  0  0  0
  -23.6020  -17.8065   16.8045 C   0  0  0  0  0  0  0  0  0  1  0  0
  -30.0521  -15.5399   22.2271 C   0  0  1  0  0  0  0  0  0  0  0  0
  -32.7984  -16.8885   19.9891 C   0  0  2  0  0  0  0  0  0  0  0  0
  -30.1985  -15.5754   23.7746 C   0  0  0  0  0  0  0  0  0  0  0  0
  -24.3125  -21.8671   15.5083 N   0  0  0  0  0  0  0  0  0  0  0  0
  -27.7637  -26.7303   19.9435 N   0  0  0  0  0  0  0  0  0  0  0  0
  -28.4773  -26.3816   18.8594 N   0  0  0  0  0  0  0  0  0  0  0  0
  -28.3255  -14.2385   21.0233 N   0  0  0  0  0  0  0  0  0  0  0  0
  -29.4617  -22.8134   19.7811 N   0  0  0  0  0  0  0  0  0  0  0  0
  -27.6987  -21.5391   18.9112 N   0  0  0  0  0  0  0  0  0  0  0  0
  -29.0130  -27.0571   16.6532 N   0  0  0  0  0  0  0  0  0  0  0  0
  -26.2222  -30.3048   18.0886 N   0  0  0  0  0  0  0  0  0  0  0  0
  -24.8922  -19.8555   16.5615 N   0  0  0  0  0  0  0  0  0  0  0  0
  -26.0109  -11.4884   21.6366 N   0  0  0  0  0  0  0  0  0  0  0  0
  -31.2931  -15.7945   21.5035 N   0  0  0  0  0  0  0  0  0  0  0  0
  -32.7222  -17.3707   18.5810 N   0  3  0  0  0  0  0  0  0  0  0  0
  -27.4745  -29.5776   16.3105 O   0  0  0  0  0  0  0  0  0  0  0  0
  -26.5060  -13.5168   22.6677 O   0  0  0  0  0  0  0  0  0  0  0  0
  -30.1899  -13.1882   21.9493 O   0  0  0  0  0  0  0  0  0  0  0  0
  -30.5229  -17.6316   20.3164 O   0  0  0  0  0  0  0  0  0  0  0  0
  -29.7545  -20.5550   19.3009 O   0  0  0  0  0  0  0  0  0  0  0  0
  -23.8039  -30.5919   23.0990 O   0  0  0  0  0  0  0  0  0  0  0  0
  -24.0708  -17.6527   18.1435 O   0  0  0  0  0  0  0  0  0  1  0  0
  -24.4181  -36.0552   23.5215 F   0  0  0  0  0  0  0  0  0  0  0  0
  -24.4495  -31.7637   25.5183 F   0  0  0  0  0  0  0  0  0  0  0  0
  1  2  1  0  0  0  0
  1  6  2  0  0  0  0
  2  7  2  0  0  0  0
  3  8  2  0  0  0  0
  3 17  1  0  0  0  0
  4 10  2  0  0  0  0
  4 18  1  0  0  0  0
  5 11  1  0  0  0  0
  5 18  2  0  0  0  0
  6 20  1  0  0  0  0
  7 22  1  0  0  0  0
  8 23  1  0  0  0  0
  9 12  2  0  0  0  0
  9 21  1  0  0  0  0
 10 25  1  0  0  0  0
 11 25  2  0  0  0  0
 12 26  1  0  0  0  0
 13 14  2  0  0  0  0
 13 27  1  0  0  0  0
 14 28  1  0  0  0  0
 15 24  1  0  0  0  0
 15 26  2  0  0  0  0
 16 28  2  0  0  0  0
 16 29  1  0  0  0  0
 17 62  2  0  0  0  0
 18 30  1  0  0  0  0
 19 30  1  0  0  0  0
 19 32  2  0  0  0  0
 19 33  1  0  0  0  0
 20 22  2  0  0  0  0
 20 38  1  0  0  0  0
 21 24  2  0  0  0  0
 21 39  1  0  0  0  0
 22 49  1  0  0  0  0
 23 31  2  0  0  0  0
 23 48  1  0  0  0  0
 24 40  1  0  0  0  0
 25 79  1  0  0  0  0
 26 80  1  0  0  0  0
 27 29  2  0  0  0  0
 27 79  1  0  0  0  0
 28 81  1  0  0  0  0
 29 82  1  0  0  0  0
 30 63  2  0  0  0  0
 31 62  1  0  0  0  0
 31 70  1  0  0  0  0
 32 64  1  0  0  0  0
 32 68  1  0  0  0  0
 33 69  1  0  0  0  0
 33 74  2  0  0  0  0
 34 50  1  0  0  0  0
 34 71  1  0  0  0  0
 34 75  2  0  0  0  0
 35 59  1  0  0  0  0
 35 65  1  0  0  0  0
 35 76  2  0  0  0  0
 36 60  1  0  0  0  0
 36 72  1  0  0  0  0
 36 77  2  0  0  0  0
 37 66  1  0  0  0  0
 37 67  1  0  0  0  0
 37 78  2  0  0  0  0
 38 41  1  0  0  0  0
 39 50  1  0  0  0  0
 40 65  1  0  0  0  0
 41 43  1  0  0  0  0
 42 44  1  0  0  0  0
 42 45  1  0  0  0  0
 43 49  1  0  0  0  0
 44 51  1  0  0  0  0
 45 66  1  0  0  0  0
 46 48  1  0  0  0  0
 46 67  1  0  0  0  0
 47 51  1  0  0  0  0
 47 66  1  0  0  0  0
 48 67  1  0  0  0  0
 49 71  1  0  0  0  0
 50 65  1  0  0  0  0
 51 64  1  0  0  0  0
 52 60  1  0  0  0  0
 53 61  1  0  0  0  0
 54 61  1  0  0  0  0
 55 61  1  0  0  0  0
 56 73  1  0  0  0  0
 57 58  1  0  0  0  0
 57 70  1  0  0  0  0
 58 80  1  0  0  0  0
 59 61  1  0  0  0  0
 59 72  1  0  0  0  0
 60 73  1  0  0  0  0
 63 64  1  0  0  0  0
M  CHG  1  73   1
M  ISO  4  37 100  58 101  67 100  80 101
M  END
> <Batch ID>
0182

> <Smiles>
CNC(C)C(=O)NC(C(=O)N1Cc2cc([101O:1][101CH2:1]CNc3ncccc3C3C[100N:0]3[100C:0](=O)N3CCCC(n4nc(-c5ccc(Oc6ccc(F)cc6F)cc5)c(C(N)=O)c4N)C3)ccc2CC1C(=O)NC1CCCc2ccccc21)C(C)(C)C

> <Shape>
0.245

> <Color>
0.067

> <Negative vol penalty>
0.000

$$$$

  -OEChem-04052323053D

 92102  0     1  0  0  0  0  0999 V2000
  -26.2802  -37.0629   21.8650 C   0  0  0  0  0  0  0  0  0  0  0  0
  -26.9438  -35.8431   21.7809 C   0  0  0  0  0  0  0  0  0  0  0  0
  -23.1426   -9.8330   20.3461 C   0  0  0  0  0  0  0  0  0  0  0  0
  -23.9868  -10.1652   22.5853 C   0  0  0  0  0  0  0  0  0  0  0  0
  -24.9775  -37.1139   22.3593 C   0  0  0  0  0  0  0  0  0  0  0  0
  -26.3055  -34.6736   22.1922 C   0  0  0  0  0  0  0  0  0  0  0  0
  -26.9147  -29.0918   19.7472 C   0  0  0  0  0  0  0  0  0  0  0  0
  -31.5644  -23.4708   22.5048 C   0  0  0  0  0  0  0  0  0  0  0  0
  -22.4574   -8.6955   20.7732 C   0  0  0  0  0  0  0  0  0  0  0  0
  -23.3016   -9.0277   23.0124 C   0  0  0  0  0  0  0  0  0  0  0  0
  -27.6786  -27.9850   20.1148 C   0  0  0  0  0  0  0  0  0  0  0  0
  -20.1344   -8.1972   23.8488 C   0  0  0  0  0  0  0  0  0  0  0  0
  -19.4241   -8.2818   25.0462 C   0  0  0  0  0  0  0  0  0  0  0  0
  -30.9728  -24.6591   22.0833 C   0  0  0  0  0  0  0  0  0  0  0  0
  -25.7770  -27.0676   21.2817 C   0  0  0  0  0  0  0  0  0  0  0  0
  -20.7721   -6.5030   25.9715 C   0  0  0  0  0  0  0  0  0  0  0  0
  -23.9073  -10.5678   21.2522 C   0  0  0  0  0  0  0  0  0  0  0  0
  -24.1386  -13.0669   20.7952 C   0  0  0  0  0  0  0  0  0  0  0  0
  -24.3194  -35.9431   22.7678 C   0  0  0  0  0  0  0  0  0  0  0  0
  -25.5770  -29.2002   20.1539 C   0  0  0  0  0  0  0  0  0  0  0  0
  -24.9932  -34.7091   22.6937 C   0  0  0  0  0  0  0  0  0  0  0  0
  -31.0144  -22.2772   22.0741 C   0  0  0  0  0  0  0  0  0  0  0  0
  -24.9975  -28.1755   20.9157 C   0  0  0  0  0  0  0  0  0  0  0  0
  -22.5369   -8.2929   22.1063 C   0  0  0  0  0  0  0  0  0  0  0  0
  -27.1107  -26.9741   20.8846 C   0  0  0  0  0  0  0  0  0  0  0  0
  -21.1635   -7.2654   23.7126 C   0  0  0  0  0  0  0  0  0  0  0  0
  -19.7430   -7.4347   26.1076 C   0  0  0  0  0  0  0  0  0  0  0  0
  -21.4823   -6.4184   24.7739 C   0  0  0  0  0  0  0  0  0  0  0  0
  -24.6158  -11.7425   20.8116 C   0  0  0  0  0  0  0  0  0  0  0  0
  -29.9003  -22.3156   21.2411 C   0  0  0  0  0  0  0  0  0  0  0  0
  -29.8539  -24.5901   21.2554 C   0  0  0  0  0  0  0  0  0  0  0  0
  -25.1842  -13.8024   20.2928 C   0  0  0  0  0  0  0  0  0  0  0  0
  -22.8643  -13.5858   21.1982 C   0  0  0  0  0  0  0  0  0  0  0  0
  -23.9374  -31.2472   21.9497 C   0  0  0  0  0  0  0  0  0  0  0  0
  -21.4026  -29.4804   20.9621 C   0  0  0  0  0  0  0  0  0  0  0  0
  -20.2333  -26.5015   19.7764 C   0  0  0  0  0  0  0  0  0  0  0  0
  -30.7805  -14.7770   20.5954 C   0  0  0  0  0  0  0  0  0  0  0  0
  -22.9282  -36.0542   23.3396 C   0  0  0  0  0  0  0  0  0  0  0  0
  -24.7587  -30.3876   19.7265 C   0  0  0  0  0  0  0  0  0  0  0  0
  -23.5598  -28.2344   21.3608 C   0  0  0  0  0  0  0  0  0  0  0  0
  -22.1879  -34.7208   23.4041 C   0  0  0  0  0  0  0  0  0  0  0  0
  -29.4941  -12.3595   18.0970 C   0  0  0  0  0  0  0  0  0  0  0  0
  -23.0895  -33.6373   23.9871 C   0  0  0  0  0  0  0  0  0  0  0  0
  -28.0992  -12.0422   18.6326 C   0  0  0  0  0  0  0  0  0  0  0  0
  -31.3863  -17.8154   22.1567 C   0  0  0  0  0  0  0  0  0  0  0  0
  -29.3535  -17.9974   20.6677 C   0  0  0  0  0  0  0  0  0  0  0  0
  -30.4531  -12.7578   19.2144 C   0  0  0  0  0  0  0  0  0  0  0  0
  -30.9840  -16.3777   22.4746 C   0  0  0  0  0  0  0  0  0  0  0  0
  -29.0051  -16.5425   20.9954 C   0  0  0  0  0  0  0  0  0  0  0  0
  -28.5640  -13.5665   20.5927 C   0  0  0  0  0  0  0  0  0  0  0  0
  -24.3254  -33.4155   23.1068 C   0  0  1  0  0  0  0  0  0  0  0  0
  -29.4378  -20.9240   20.9033 C   0  0  1  0  0  0  0  0  0  0  0  0
  -23.5552  -30.6401   20.6294 C   0  0  1  0  0  0  0  0  0  0  0  0
  -27.5627  -13.2046   19.4854 C   0  0  2  0  0  0  0  0  0  0  0  0
  -30.1516  -18.6406   21.7998 C   0  0  0  0  0  0  0  0  0  0  0  0
  -31.4192  -20.8601   22.3828 C   0  0  0  0  0  0  0  0  0  0  0  0
  -31.0506  -20.5172   23.8320 C   0  0  0  0  0  0  0  0  0  0  0  0
  -32.9003  -20.5930   22.1043 C   0  0  0  0  0  0  0  0  0  0  0  0
  -18.1101  -25.3470   19.1008 C   0  0  0  0  0  0  0  0  0  0  0  0
  -20.6595  -29.1325   23.9009 C   0  0  0  0  0  0  0  0  0  0  0  0
  -19.1566  -27.2474   23.2257 C   0  0  0  0  0  0  0  0  0  0  0  0
  -18.7212  -29.5525   22.3775 C   0  0  0  0  0  0  0  0  0  0  0  0
  -26.8419  -21.1263   19.2657 C   0  0  0  0  0  0  0  0  0  0  0  0
  -28.3007  -21.8259   17.4896 C   0  0  0  0  0  0  0  0  0  0  0  0
  -21.1948  -26.1031   17.0059 C   0  0  0  0  0  0  0  0  0  0  0  0
  -29.2091  -25.8580   20.8015 C   0  0  0  0  0  0  0  0  0  1  0  0
  -29.2032  -20.7090   19.4159 C   0  0  0  0  0  0  0  0  0  0  0  0
  -20.6917  -28.2511   21.4744 C   0  0  1  0  0  0  0  0  0  0  0  0
  -19.2967  -26.1723   18.6280 C   0  0  2  0  0  0  0  0  0  0  0  0
  -19.8349  -28.5454   22.7380 C   0  0  0  0  0  0  0  0  0  0  0  0
  -25.8670  -11.6396   20.3556 N   0  0  0  0  0  0  0  0  0  0  0  0
  -29.2907  -23.4380   20.8209 N   0  0  0  0  0  0  0  0  0  0  0  0
  -26.1849  -12.9086   20.0480 N   0  0  0  0  0  0  0  0  0  0  0  0
  -22.8027  -29.4187   20.9230 N   0  0  0  0  0  0  0  0  0  0  0  0
  -29.9014  -13.8319   20.0405 N   0  0  0  0  0  0  0  0  0  0  0  0
  -30.2098  -15.7915   21.3788 N   0  0  0  0  0  0  0  0  0  0  0  0
  -25.3359  -15.1199   20.0409 N   0  0  0  0  0  0  0  0  0  0  0  0
  -21.9045  -12.6916   21.6918 N   0  0  0  0  0  0  0  0  0  0  0  0
  -23.9817  -32.6283   21.9421 N   0  0  0  0  0  0  0  0  0  0  0  0
  -19.9321  -27.7197   20.3479 N   0  0  0  0  0  0  0  0  0  0  0  0
  -28.1997  -21.6065   18.9451 N   0  0  0  0  0  0  0  0  0  0  0  0
  -30.5811  -19.9997   21.3800 N   0  3  2  0  0  0  0  0  0  0  0  0
  -20.0175  -25.3997   17.5769 N   0  3  0  0  0  0  0  0  0  0  0  0
  -22.5791  -14.8040   21.1073 O   0  0  0  0  0  0  0  0  0  0  0  0
  -24.1731  -30.5168   22.9050 O   0  0  0  0  0  0  0  0  0  0  0  0
  -20.7396  -30.4567   20.6029 O   0  0  0  0  0  0  0  0  0  0  0  0
  -21.1390  -25.7513   20.1333 O   0  0  0  0  0  0  0  0  0  0  0  0
  -32.0008  -14.7178   20.3998 O   0  0  0  0  0  0  0  0  0  0  0  0
  -21.8682   -7.1832   22.5234 O   0  0  0  0  0  0  0  0  0  0  0  0
  -27.8596  -25.8853   21.2479 O   0  0  0  0  0  0  0  0  0  1  0  0
  -19.0618   -7.5171   27.2580 F   0  0  0  0  0  0  0  0  0  0  0  0
  -22.4707   -5.5221   24.6495 F   0  0  0  0  0  0  0  0  0  0  0  0
  1  2  1  0  0  0  0
  1  5  2  0  0  0  0
  2  6  2  0  0  0  0
  3  9  2  0  0  0  0
  3 17  1  0  0  0  0
  4 10  1  0  0  0  0
  4 17  2  0  0  0  0
  5 19  1  0  0  0  0
  6 21  1  0  0  0  0
  7 11  2  0  0  0  0
  7 20  1  0  0  0  0
  8 14  2  0  0  0  0
  8 22  1  0  0  0  0
  9 24  1  0  0  0  0
 10 24  2  0  0  0  0
 11 25  1  0  0  0  0
 12 13  2  0  0  0  0
 12 26  1  0  0  0  0
 13 27  1  0  0  0  0
 14 31  1  0  0  0  0
 15 23  1  0  0  0  0
 15 25  2  0  0  0  0
 16 27  2  0  0  0  0
 16 28  1  0  0  0  0
 17 29  1  0  0  0  0
 18 29  1  0  0  0  0
 18 32  2  0  0  0  0
 18 33  1  0  0  0  0
 19 21  2  0  0  0  0
 19 38  1  0  0  0  0
 20 23  2  0  0  0  0
 20 39  1  0  0  0  0
 21 51  1  0  0  0  0
 22 30  2  0  0  0  0
 22 56  1  0  0  0  0
 23 40  1  0  0  0  0
 24 89  1  0  0  0  0
 25 90  1  0  0  0  0
 26 28  2  0  0  0  0
 26 89  1  0  0  0  0
 27 91  1  0  0  0  0
 28 92  1  0  0  0  0
 29 71  2  0  0  0  0
 30 52  1  0  0  0  0
 30 72  1  0  0  0  0
 31 66  1  0  0  0  0
 31 72  2  0  0  0  0
 32 73  1  0  0  0  0
 32 77  1  0  0  0  0
 33 78  1  0  0  0  0
 33 84  2  0  0  0  0
 34 53  1  0  0  0  0
 34 79  1  0  0  0  0
 34 85  2  0  0  0  0
 35 68  1  0  0  0  0
 35 74  1  0  0  0  0
 35 86  2  0  0  0  0
 36 69  1  0  0  0  0
 36 80  1  0  0  0  0
 36 87  2  0  0  0  0
 37 75  1  0  0  0  0
 37 76  1  0  0  0  0
 37 88  2  0  0  0  0
 38 41  1  0  0  0  0
 39 53  1  0  0  0  0
 40 74  1  0  0  0  0
 41 43  1  0  0  0  0
 42 44  1  0  0  0  0
 42 47  1  0  0  0  0
 43 51  1  0  0  0  0
 44 54  1  0  0  0  0
 45 48  1  0  0  0  0
 45 55  1  0  0  0  0
 46 49  1  0  0  0  0
 46 55  1  0  0  0  0
 47 75  1  0  0  0  0
 48 76  1  0  0  0  0
 49 76  1  0  0  0  0
 50 54  1  0  0  0  0
 50 75  1  0  0  0  0
 51 79  1  0  0  0  0
 52 67  1  0  0  0  0
 52 82  1  0  0  0  0
 53 74  1  0  0  0  0
 54 73  1  0  0  0  0
 55 82  1  0  0  0  0
 56 57  1  0  0  0  0
 56 58  1  0  0  0  0
 56 82  1  0  0  0  0
 59 69  1  0  0  0  0
 60 70  1  0  0  0  0
 61 70  1  0  0  0  0
 62 70  1  0  0  0  0
 63 81  1  0  0  0  0
 64 81  1  0  0  0  0
 65 83  1  0  0  0  0
 66 90  1  0  0  0  0
 67 81  1  0  0  0  0
 68 70  1  0  0  0  0
 68 80  1  0  0  0  0
 69 83  1  0  0  0  0
 71 73  1  0  0  0  0
M  CHG  2  82   1  83   1
M  ISO  4  37 100  66 101  76 100  90 101
M  END
> <Batch ID>
0182

> <Smiles>
CNC(C)C(=O)NC(C(=O)N1Cc2cc([101O:1][101CH2:1]c3ccc4c(n3)C(CN(C)C)N(C3CC[100N:0]([100C:0](=O)N5CCCC(n6nc(-c7ccc(Oc8ccc(F)cc8F)cc7)c(C(N)=O)c6N)C5)CC3)C4(C)C)ccc2CC1C(=O)NC1CCCc2ccccc21)C(C)(C)C

> <Shape>
0.381

> <Color>
0.184

> <Negative vol penalty>
0.000

$$$$

  -OEChem-04052323053D

 79 88  0     1  0  0  0  0  0999 V2000
  -23.5284   -7.9471   24.7364 C   0  0  0  0  0  0  0  0  0  0  0  0
  -24.5308   -8.8846   24.9635 C   0  0  0  0  0  0  0  0  0  0  0  0
  -25.3270  -31.0797   24.2865 C   0  0  0  0  0  0  0  0  0  0  0  0
  -25.4173  -32.9243   22.7288 C   0  0  0  0  0  0  0  0  0  0  0  0
  -22.9663   -7.8230   23.4665 C   0  0  0  0  0  0  0  0  0  0  0  0
  -24.9726   -9.6979   23.9205 C   0  0  0  0  0  0  0  0  0  0  0  0
  -27.4958  -16.2828   22.6599 C   0  0  0  0  0  0  0  0  0  0  0  0
  -25.4817  -31.9697   25.3494 C   0  0  0  0  0  0  0  0  0  0  0  0
  -25.5719  -33.8143   23.7917 C   0  0  0  0  0  0  0  0  0  0  0  0
  -28.5651  -16.9257   22.0378 C   0  0  0  0  0  0  0  0  0  0  0  0
  -23.6046  -35.2862   26.1120 C   0  0  0  0  0  0  0  0  0  0  0  0
  -22.8403  -36.4529   26.0947 C   0  0  0  0  0  0  0  0  0  0  0  0
  -27.4658  -16.6773   19.9049 C   0  0  0  0  0  0  0  0  0  0  0  0
  -24.8613  -37.7769   26.0985 C   0  0  0  0  0  0  0  0  0  0  0  0
  -25.2949  -31.5570   22.9762 C   0  0  0  0  0  0  0  0  0  0  0  0
  -23.9274  -30.2076   21.2979 C   0  0  0  0  0  0  0  0  0  0  0  0
  -23.3947   -8.6418   22.4098 C   0  0  0  0  0  0  0  0  0  0  0  0
  -26.4066  -15.8219   21.9065 C   0  0  0  0  0  0  0  0  0  0  0  0
  -24.4167   -9.5837   22.6350 C   0  0  0  0  0  0  0  0  0  0  0  0
  -26.3827  -16.0311   20.5202 C   0  0  0  0  0  0  0  0  0  0  0  0
  -25.6040  -33.3369   25.1020 C   0  0  0  0  0  0  0  0  0  0  0  0
  -28.5516  -17.1204   20.6597 C   0  0  0  0  0  0  0  0  0  0  0  0
  -24.9973  -35.3649   26.1225 C   0  0  0  0  0  0  0  0  0  0  0  0
  -23.4686  -37.6982   26.0880 C   0  0  0  0  0  0  0  0  0  0  0  0
  -25.6256  -36.6102   26.1158 C   0  0  0  0  0  0  0  0  0  0  0  0
  -25.1357  -30.6381   21.8779 C   0  0  0  0  0  0  0  0  0  0  0  0
  -24.3132  -29.3468   20.2996 C   0  0  0  0  0  0  0  0  0  0  0  0
  -22.5770  -30.5550   21.6316 C   0  0  0  0  0  0  0  0  0  0  0  0
  -25.1168  -12.9725   21.3393 C   0  0  0  0  0  0  0  0  0  0  0  0
  -22.8539  -14.7322   19.8211 C   0  0  0  0  0  0  0  0  0  0  0  0
  -22.0245  -17.6380   18.2350 C   0  0  0  0  0  0  0  0  0  0  0  0
  -27.3566  -25.0781   18.6806 C   0  0  0  0  0  0  0  0  0  0  0  0
  -22.7903   -8.4385   21.0430 C   0  0  0  0  0  0  0  0  0  0  0  0
  -25.2486  -15.1541   22.5961 C   0  0  0  0  0  0  0  0  0  0  0  0
  -25.2277  -15.5733   19.6689 C   0  0  0  0  0  0  0  0  0  0  0  0
  -23.0525   -9.5959   20.0828 C   0  0  0  0  0  0  0  0  0  0  0  0
  -28.8377  -28.4173   18.2973 C   0  0  0  0  0  0  0  0  0  0  0  0
  -24.5196  -10.0105   20.1344 C   0  0  0  0  0  0  0  0  0  0  0  0
  -27.9339  -29.2426   19.2068 C   0  0  0  0  0  0  0  0  0  0  0  0
  -29.0388  -26.9920   18.8135 C   0  0  0  0  0  0  0  0  0  0  0  0
  -26.8623  -27.1061   19.9988 C   0  0  0  0  0  0  0  0  0  0  0  0
  -29.6453  -23.8446   19.0319 C   0  0  0  0  0  0  0  0  0  0  0  0
  -28.1365  -22.7555   17.9503 C   0  0  0  0  0  0  0  0  0  0  0  0
  -30.3778  -21.4786   18.2240 C   0  0  0  0  0  0  0  0  0  0  0  0
  -29.1568  -21.4652   19.9497 C   0  0  0  0  0  0  0  0  0  0  0  0
  -24.9053  -10.5012   21.5351 C   0  0  1  0  0  0  0  0  0  0  0  0
  -24.4282  -14.2680   21.6638 C   0  0  1  0  0  0  0  0  0  0  0  0
  -26.6033  -28.5142   19.4453 C   0  0  1  0  0  0  0  0  0  0  0  0
  -29.3339  -22.4012   18.7835 C   0  0  0  0  0  0  0  0  0  0  0  0
  -20.1119  -18.7692   17.0690 C   0  0  0  0  0  0  0  0  0  0  0  0
  -23.3180  -12.9810   17.3659 C   0  0  0  0  0  0  0  0  0  0  0  0
  -22.1289  -14.7069   15.9964 C   0  0  0  0  0  0  0  0  0  0  0  0
  -20.9192  -13.5183   17.8257 C   0  0  0  0  0  0  0  0  0  0  0  0
  -21.9840  -19.8509   20.1998 C   0  0  0  0  0  0  0  0  0  0  0  0
  -30.9162  -19.7535   19.8864 C   0  0  0  0  0  0  0  0  0  0  0  0
  -30.3041  -18.7209   20.8121 C   0  0  0  0  0  0  0  0  0  1  0  0
  -22.6662  -15.2483   18.4149 C   0  0  1  0  0  0  0  0  0  0  0  0
  -20.8342  -18.5669   18.3920 C   0  0  2  0  0  0  0  0  0  0  0  0
  -22.2809  -14.1206   17.4162 C   0  0  0  0  0  0  0  0  0  0  0  0
  -26.2088  -30.0953   21.2966 N   0  0  0  0  0  0  0  0  0  0  0  0
  -25.6761  -29.3149   20.3409 N   0  0  0  0  0  0  0  0  0  0  0  0
  -24.1221  -14.9199   20.3888 N   0  0  0  0  0  0  0  0  0  0  0  0
  -27.7646  -26.3375   19.1330 N   0  0  0  0  0  0  0  0  0  0  0  0
  -28.3218  -24.1199   18.4659 N   0  0  0  0  0  0  0  0  0  0  0  0
  -23.6162  -28.6215   19.3993 N   0  0  0  0  0  0  0  0  0  0  0  0
  -22.3590  -31.4539   22.6846 N   0  0  0  0  0  0  0  0  0  0  0  0
  -24.4241  -11.8492   21.7487 N   0  0  0  0  0  0  0  0  0  0  0  0
  -21.6888  -16.3278   18.5034 N   0  0  0  0  0  0  0  0  0  0  0  0
  -29.8396  -20.4308   19.1301 N   0  3  0  0  0  0  0  0  0  0  0  0
  -21.2786  -19.8982   18.8931 N   0  3  0  0  0  0  0  0  0  0  0  0
  -21.5921  -30.0695   21.0250 O   0  0  0  0  0  0  0  0  0  0  0  0
  -26.1960  -12.9908   20.7591 O   0  0  0  0  0  0  0  0  0  0  0  0
  -21.9080  -14.1892   20.3973 O   0  0  0  0  0  0  0  0  0  0  0  0
  -23.1397  -18.0343   17.9036 O   0  0  0  0  0  0  0  0  0  0  0  0
  -26.1625  -24.8026   18.5036 O   0  0  0  0  0  0  0  0  0  0  0  0
  -25.7547  -34.2057   26.1388 O   0  0  0  0  0  0  0  0  0  0  0  0
  -29.6018  -17.7515   20.0455 O   0  0  0  0  0  0  0  0  0  1  0  0
  -22.7345  -38.8185   26.0699 F   0  0  0  0  0  0  0  0  0  0  0  0
  -26.9631  -36.6921   26.1246 F   0  0  0  0  0  0  0  0  0  0  0  0
  1  2  1  0  0  0  0
  1  5  2  0  0  0  0
  2  6  2  0  0  0  0
  3  8  2  0  0  0  0
  3 15  1  0  0  0  0
  4  9  1  0  0  0  0
  4 15  2  0  0  0  0
  5 17  1  0  0  0  0
  6 19  1  0  0  0  0
  7 10  2  0  0  0  0
  7 18  1  0  0  0  0
  8 21  1  0  0  0  0
  9 21  2  0  0  0  0
 10 22  1  0  0  0  0
 11 12  2  0  0  0  0
 11 23  1  0  0  0  0
 12 24  1  0  0  0  0
 13 20  1  0  0  0  0
 13 22  2  0  0  0  0
 14 24  2  0  0  0  0
 14 25  1  0  0  0  0
 15 26  1  0  0  0  0
 16 26  1  0  0  0  0
 16 27  2  0  0  0  0
 16 28  1  0  0  0  0
 17 19  2  0  0  0  0
 17 33  1  0  0  0  0
 18 20  2  0  0  0  0
 18 34  1  0  0  0  0
 19 46  1  0  0  0  0
 20 35  1  0  0  0  0
 21 76  1  0  0  0  0
 22 77  1  0  0  0  0
 23 25  2  0  0  0  0
 23 76  1  0  0  0  0
 24 78  1  0  0  0  0
 25 79  1  0  0  0  0
 26 60  2  0  0  0  0
 27 61  1  0  0  0  0
 27 65  1  0  0  0  0
 28 66  1  0  0  0  0
 28 71  2  0  0  0  0
 29 47  1  0  0  0  0
 29 67  1  0  0  0  0
 29 72  2  0  0  0  0
 30 57  1  0  0  0  0
 30 62  1  0  0  0  0
 30 73  2  0  0  0  0
 31 58  1  0  0  0  0
 31 68  1  0  0  0  0
 31 74  2  0  0  0  0
 32 63  1  0  0  0  0
 32 64  1  0  0  0  0
 32 75  2  0  0  0  0
 33 36  1  0  0  0  0
 34 47  1  0  0  0  0
 35 62  1  0  0  0  0
 36 38  1  0  0  0  0
 37 39  1  0  0  0  0
 37 40  1  0  0  0  0
 38 46  1  0  0  0  0
 39 48  1  0  0  0  0
 40 63  1  0  0  0  0
 41 48  1  0  0  0  0
 41 63  1  0  0  0  0
 42 49  1  0  0  0  0
 42 64  1  0  0  0  0
 43 49  1  0  0  0  0
 43 64  1  0  0  0  0
 44 49  1  0  0  0  0
 44 69  1  0  0  0  0
 45 49  1  0  0  0  0
 45 69  1  0  0  0  0
 46 67  1  0  0  0  0
 47 62  1  0  0  0  0
 48 61  1  0  0  0  0
 50 58  1  0  0  0  0
 51 59  1  0  0  0  0
 52 59  1  0  0  0  0
 53 59  1  0  0  0  0
 54 70  1  0  0  0  0
 55 56  1  0  0  0  0
 55 69  1  0  0  0  0
 56 77  1  0  0  0  0
 57 59  1  0  0  0  0
 57 68  1  0  0  0  0
 58 70  1  0  0  0  0
 60 61  1  0  0  0  0
M  CHG  2  69   1  70   1
M  ISO  4  32 100  56 101  64 100  77 101
M  END
> <Batch ID>
0182

> <Smiles>
CNC(C)C(=O)NC(C(=O)N1Cc2cc([101O:1][101CH2:1]CN3CC4(C3)C[100N:0]([100C:0](=O)N3CCCC(n5nc(-c6ccc(Oc7ccc(F)cc7F)cc6)c(C(N)=O)c5N)C3)C4)ccc2CC1C(=O)NC1CCCc2ccccc21)C(C)(C)C

> <Shape>
0.258

> <Color>
0.054

> <Negative vol penalty>
0.000

$$$$

  -OEChem-04052323053D

 84 93  0     1  0  0  0  0  0999 V2000
  -16.1054  -26.9253   25.9880 C   0  0  0  0  0  0  0  0  0  0  0  0
  -16.7599  -25.9840   25.2000 C   0  0  0  0  0  0  0  0  0  0  0  0
  -26.3316  -12.5074   20.8974 C   0  0  0  0  0  0  0  0  0  0  0  0
  -24.1912  -12.7034   19.7940 C   0  0  0  0  0  0  0  0  0  0  0  0
  -16.2506  -28.2845   25.7136 C   0  0  0  0  0  0  0  0  0  0  0  0
  -17.5590  -26.4014   24.1362 C   0  0  0  0  0  0  0  0  0  0  0  0
  -22.7208  -23.7678   22.1548 C   0  0  0  0  0  0  0  0  0  0  0  0
  -25.9774  -11.2399   21.3594 C   0  0  0  0  0  0  0  0  0  0  0  0
  -23.8370  -11.4358   20.2560 C   0  0  0  0  0  0  0  0  0  0  0  0
  -22.9820  -22.8881   21.1052 C   0  0  0  0  0  0  0  0  0  0  0  0
  -22.7305  -10.0533   23.1361 C   0  0  0  0  0  0  0  0  0  0  0  0
  -21.4538   -9.8932   23.6746 C   0  0  0  0  0  0  0  0  0  0  0  0
  -23.6112  -24.7513   19.7081 C   0  0  0  0  0  0  0  0  0  0  0  0
  -20.9484   -8.2416   21.9852 C   0  0  0  0  0  0  0  0  0  0  0  0
  -24.8200  -22.6472   16.7522 C   0  0  0  0  0  0  0  0  0  0  0  0
  -25.4385  -13.2392   20.1147 C   0  0  0  0  0  0  0  0  0  0  0  0
  -26.4548  -14.8626   18.4297 C   0  0  0  0  0  0  0  0  0  0  0  0
  -17.0596  -28.7192   24.6519 C   0  0  0  0  0  0  0  0  0  0  0  0
  -22.8928  -25.1492   21.9853 C   0  0  0  0  0  0  0  0  0  0  0  0
  -17.7141  -27.7677   23.8465 C   0  0  0  0  0  0  0  0  0  0  0  0
  -23.3540  -25.6462   20.7579 C   0  0  0  0  0  0  0  0  0  0  0  0
  -24.7301  -10.7041   21.0387 C   0  0  0  0  0  0  0  0  0  0  0  0
  -23.4244  -23.3800   19.8808 C   0  0  0  0  0  0  0  0  0  0  0  0
  -23.1161   -9.3076   22.0221 C   0  0  0  0  0  0  0  0  0  0  0  0
  -20.5627   -8.9873   23.0992 C   0  0  0  0  0  0  0  0  0  0  0  0
  -22.2251   -8.4018   21.4467 C   0  0  0  0  0  0  0  0  0  0  0  0
  -25.8036  -14.5489   19.6377 C   0  0  0  0  0  0  0  0  0  0  0  0
  -27.0839  -23.1151   18.0876 C   0  0  0  0  0  0  0  0  0  0  0  0
  -27.0686  -23.0616   16.7111 C   0  0  0  0  0  0  0  0  0  0  0  0
  -24.8354  -22.7004   18.1287 C   0  0  0  0  0  0  0  0  0  1  0  0
  -26.5702  -16.2311   18.4471 C   0  0  0  0  0  0  0  0  0  0  0  0
  -26.9143  -13.9945   17.3851 C   0  0  0  0  0  0  0  0  0  0  0  0
  -28.3150  -23.3718   18.8548 C   0  0  0  0  0  0  0  0  0  0  0  0
  -20.9741  -27.6804   22.1093 C   0  0  0  0  0  0  0  0  0  0  0  0
  -23.7528  -29.3164   21.7572 C   0  0  0  0  0  0  0  0  0  0  0  0
  -26.9898  -29.3302   20.6761 C   0  0  0  0  0  0  0  0  0  0  0  0
  -27.9672  -20.8089   21.1176 C   0  0  0  0  0  0  0  0  0  0  0  0
  -17.1482  -30.1971   24.3647 C   0  0  0  0  0  0  0  0  0  0  0  0
  -22.6323  -26.0826   23.1356 C   0  0  0  0  0  0  0  0  0  0  0  0
  -23.5740  -27.1188   20.5309 C   0  0  0  0  0  0  0  0  0  0  0  0
  -18.3124  -30.5713   23.4509 C   0  0  0  0  0  0  0  0  0  0  0  0
  -24.4939  -19.6883   21.4642 C   0  0  0  0  0  0  0  0  0  0  0  0
  -18.3739  -29.6300   22.2521 C   0  0  0  0  0  0  0  0  0  0  0  0
  -24.6005  -18.2488   20.9724 C   0  0  0  0  0  0  0  0  0  0  0  0
  -28.3252  -23.7050   22.7802 C   0  0  0  0  0  0  0  0  0  0  0  0
  -25.7539  -20.1464   22.1998 C   0  0  0  0  0  0  0  0  0  0  0  0
  -27.1878  -22.6790   22.7708 C   0  0  0  0  0  0  0  0  0  0  0  0
  -27.1059  -18.5025   20.9257 C   0  0  0  0  0  0  0  0  0  0  0  0
  -18.6095  -28.1822   22.6991 C   0  0  1  0  0  0  0  0  0  0  0  0
  -22.3494  -27.5143   22.6911 C   0  0  1  0  0  0  0  0  0  0  0  0
  -25.8702  -18.0613   20.1289 C   0  0  1  0  0  0  0  0  0  0  0  0
  -28.6933  -23.2471   21.3606 C   0  0  2  0  0  0  0  0  0  0  0  0
  -28.3103  -23.2609   15.9107 C   0  0  0  0  0  0  0  0  0  0  0  0
  -28.9976  -30.8238   20.4884 C   0  0  0  0  0  0  0  0  0  0  0  0
  -22.4670  -30.7430   19.3862 C   0  0  0  0  0  0  0  0  0  0  0  0
  -24.7528  -31.4803   18.6794 C   0  0  0  0  0  0  0  0  0  0  0  0
  -23.8302  -32.2176   20.8767 C   0  0  0  0  0  0  0  0  0  0  0  0
  -28.6108  -27.5633   22.4108 C   0  0  0  0  0  0  0  0  0  0  0  0
  -28.1897  -24.0839   20.2012 C   0  0  0  0  0  0  0  0  0  0  0  0
  -24.5586  -29.8146   20.5818 C   0  0  1  0  0  0  0  0  0  0  0  0
  -28.2722  -29.7953   21.3421 C   0  0  2  0  0  0  0  0  0  0  0  0
  -23.8962  -31.0362   19.8844 C   0  0  0  0  0  0  0  0  0  0  0  0
  -25.9363  -22.8270   16.0187 N   0  0  0  0  0  0  0  0  0  0  0  0
  -25.5250  -15.6310   20.3694 N   0  0  0  0  0  0  0  0  0  0  0  0
  -25.9675  -22.9353   18.8211 N   0  0  0  0  0  0  0  0  0  0  0  0
  -26.0035  -16.6381   19.6190 N   0  0  0  0  0  0  0  0  0  0  0  0
  -23.2994  -27.9917   21.6843 N   0  0  0  0  0  0  0  0  0  0  0  0
  -26.9702  -19.8763   21.4239 N   0  0  0  0  0  0  0  0  0  0  0  0
  -27.8293  -22.0897   21.6045 N   0  0  0  0  0  0  0  0  0  0  0  0
  -27.1003  -17.1140   17.5742 N   0  0  0  0  0  0  0  0  0  0  0  0
  -26.7154  -12.6145   17.5274 N   0  0  0  0  0  0  0  0  0  0  0  0
  -20.0005  -27.9794   23.0433 N   0  0  0  0  0  0  0  0  0  0  0  0
  -25.9026  -30.0717   21.0878 N   0  0  0  0  0  0  0  0  0  0  0  0
  -29.1876  -28.6409   21.5663 N   0  3  0  0  0  0  0  0  0  0  0  0
  -27.4990  -14.4284   16.3637 O   0  0  0  0  0  0  0  0  0  0  0  0
  -29.4271  -23.0332   18.4450 O   0  0  0  0  0  0  0  0  0  0  0  0
  -20.8087  -27.5485   20.9023 O   0  0  0  0  0  0  0  0  0  0  0  0
  -23.5398  -30.0725   22.7083 O   0  0  0  0  0  0  0  0  0  0  0  0
  -26.9565  -28.4044   19.8685 O   0  0  0  0  0  0  0  0  0  0  0  0
  -28.9676  -20.5028   20.4555 O   0  0  0  0  0  0  0  0  0  0  0  0
  -24.3843   -9.4671   21.4891 O   0  0  0  0  0  0  0  0  0  0  0  0
  -23.6835  -22.5100   18.8381 O   0  0  0  0  0  0  0  0  0  1  0  0
  -19.3373   -8.8326   23.6173 F   0  0  0  0  0  0  0  0  0  0  0  0
  -22.5903   -7.6817   20.3771 F   0  0  0  0  0  0  0  0  0  0  0  0
  1  2  1  0  0  0  0
  1  5  2  0  0  0  0
  2  6  2  0  0  0  0
  3  8  2  0  0  0  0
  3 16  1  0  0  0  0
  4  9  1  0  0  0  0
  4 16  2  0  0  0  0
  5 18  1  0  0  0  0
  6 20  1  0  0  0  0
  7 10  2  0  0  0  0
  7 19  1  0  0  0  0
  8 22  1  0  0  0  0
  9 22  2  0  0  0  0
 10 23  1  0  0  0  0
 11 12  2  0  0  0  0
 11 24  1  0  0  0  0
 12 25  1  0  0  0  0
 13 21  1  0  0  0  0
 13 23  2  0  0  0  0
 14 25  2  0  0  0  0
 14 26  1  0  0  0  0
 15 30  1  0  0  0  0
 15 63  2  0  0  0  0
 16 27  1  0  0  0  0
 17 27  1  0  0  0  0
 17 31  2  0  0  0  0
 17 32  1  0  0  0  0
 18 20  2  0  0  0  0
 18 38  1  0  0  0  0
 19 21  2  0  0  0  0
 19 39  1  0  0  0  0
 20 49  1  0  0  0  0
 21 40  1  0  0  0  0
 22 81  1  0  0  0  0
 23 82  1  0  0  0  0
 24 26  2  0  0  0  0
 24 81  1  0  0  0  0
 25 83  1  0  0  0  0
 26 84  1  0  0  0  0
 27 64  2  0  0  0  0
 28 29  2  0  0  0  0
 28 33  1  0  0  0  0
 28 65  1  0  0  0  0
 29 53  1  0  0  0  0
 29 63  1  0  0  0  0
 30 65  2  0  0  0  0
 30 82  1  0  0  0  0
 31 66  1  0  0  0  0
 31 70  1  0  0  0  0
 32 71  1  0  0  0  0
 32 75  2  0  0  0  0
 33 59  1  0  0  0  0
 33 76  2  0  0  0  0
 34 50  1  0  0  0  0
 34 72  1  0  0  0  0
 34 77  2  0  0  0  0
 35 60  1  0  0  0  0
 35 67  1  0  0  0  0
 35 78  2  0  0  0  0
 36 61  1  0  0  0  0
 36 73  1  0  0  0  0
 36 79  2  0  0  0  0
 37 68  1  0  0  0  0
 37 69  1  0  0  0  0
 37 80  2  0  0  0  0
 38 41  1  0  0  0  0
 39 50  1  0  0  0  0
 40 67  1  0  0  0  0
 41 43  1  0  0  0  0
 42 44  1  0  0  0  0
 42 46  1  0  0  0  0
 43 49  1  0  0  0  0
 44 51  1  0  0  0  0
 45 47  1  0  0  0  0
 45 52  1  0  0  0  0
 46 68  1  0  0  0  0
 47 69  1  0  0  0  0
 48 51  1  0  0  0  0
 48 68  1  0  0  0  0
 49 72  1  0  0  0  0
 50 67  1  0  0  0  0
 51 66  1  0  0  0  0
 52 59  1  0  0  0  0
 52 69  1  0  0  0  0
 54 61  1  0  0  0  0
 55 62  1  0  0  0  0
 56 62  1  0  0  0  0
 57 62  1  0  0  0  0
 58 74  1  0  0  0  0
 60 62  1  0  0  0  0
 60 73  1  0  0  0  0
 61 74  1  0  0  0  0
 64 66  1  0  0  0  0
M  CHG  1  74   1
M  ISO  4  30 101  37 100  69 100  82 101
M  END
> <Batch ID>
0182

> <Smiles>
CNC(C)C(=O)NC(C(=O)N1Cc2cc([101O:1][101c:1]3cnc(C)c(C(=O)CC4CC[100N:0]4[100C:0](=O)N4CCCC(n5nc(-c6ccc(Oc7ccc(F)cc7F)cc6)c(C(N)=O)c5N)C4)n3)ccc2CC1C(=O)NC1CCCc2ccccc21)C(C)(C)C

> <Shape>
0.222

> <Color>
0.074

> <Negative vol penalty>
0.000

$$$$

  -OEChem-04052323053D

 84 93  0     1  0  0  0  0  0999 V2000
  -32.3429  -13.9127   21.2316 C   0  0  0  0  0  0  0  0  0  0  0  0
  -31.6168  -15.0777   21.4577 C   0  0  0  0  0  0  0  0  0  0  0  0
  -28.7560  -25.0162   20.2749 C   0  0  0  0  0  0  0  0  0  0  0  0
  -26.7218  -24.2765   19.2016 C   0  0  0  0  0  0  0  0  0  0  0  0
  -31.7464  -12.8374   20.5746 C   0  0  0  0  0  0  0  0  0  0  0  0
  -30.2940  -15.1683   21.0259 C   0  0  0  0  0  0  0  0  0  0  0  0
  -25.7130  -18.1438   23.7949 C   0  0  0  0  0  0  0  0  0  0  0  0
  -29.2719  -23.7231   20.1883 C   0  0  0  0  0  0  0  0  0  0  0  0
  -27.2377  -22.9835   19.1149 C   0  0  0  0  0  0  0  0  0  0  0  0
  -25.1447  -19.3987   23.5807 C   0  0  0  0  0  0  0  0  0  0  0  0
  -30.9813  -20.5368   20.5739 C   0  0  0  0  0  0  0  0  0  0  0  0
  -31.6146  -20.0127   21.7008 C   0  0  0  0  0  0  0  0  0  0  0  0
  -23.4250  -18.3824   22.2284 C   0  0  0  0  0  0  0  0  0  0  0  0
  -29.5723  -20.2662   22.9664 C   0  0  0  0  0  0  0  0  0  0  0  0
  -18.8509  -25.2618   21.8773 C   0  0  0  0  0  0  0  0  0  0  0  0
  -27.4809  -25.2929   19.7816 C   0  0  0  0  0  0  0  0  0  0  0  0
  -27.0732  -27.6596   18.9215 C   0  0  0  0  0  0  0  0  0  0  0  0
  -30.4126  -12.9113   20.1431 C   0  0  0  0  0  0  0  0  0  0  0  0
  -25.1469  -16.9981   23.2175 C   0  0  0  0  0  0  0  0  0  0  0  0
  -29.6795  -14.0934   20.3613 C   0  0  0  0  0  0  0  0  0  0  0  0
  -23.9866  -17.1138   22.4389 C   0  0  0  0  0  0  0  0  0  0  0  0
  -28.5128  -22.7068   19.6083 C   0  0  0  0  0  0  0  0  0  0  0  0
  -24.0022  -19.5186   22.7950 C   0  0  0  0  0  0  0  0  0  0  0  0
  -29.6435  -20.9256   20.6433 C   0  0  0  0  0  0  0  0  0  0  0  0
  -30.9101  -19.8774   22.8970 C   0  0  0  0  0  0  0  0  0  0  0  0
  -28.9390  -20.7903   21.8395 C   0  0  0  0  0  0  0  0  0  0  0  0
  -26.9473  -26.6282   19.8713 C   0  0  0  0  0  0  0  0  0  0  0  0
  -19.3072  -23.9992   21.5579 C   0  0  0  0  0  0  0  0  0  0  0  0
  -19.5752  -25.9322   22.8418 C   0  0  0  0  0  0  0  0  0  0  0  0
  -26.3957  -28.7193   19.4734 C   0  0  0  0  0  0  0  0  0  0  0  0
  -21.0077  -24.1802   23.0555 C   0  0  0  0  0  0  0  0  0  0  0  0
  -27.7427  -27.6598   17.6536 C   0  0  0  0  0  0  0  0  0  0  0  0
  -26.1383  -14.8137   21.1320 C   0  0  0  0  0  0  0  0  0  0  0  0
  -23.3199  -13.3900   21.8752 C   0  0  0  0  0  0  0  0  0  0  0  0
  -20.1306  -13.7136   23.0459 C   0  0  0  0  0  0  0  0  0  0  0  0
  -21.9555  -29.0818   23.4740 C   0  0  0  0  0  0  0  0  0  0  0  0
  -29.8256  -11.7405   19.3952 C   0  0  0  0  0  0  0  0  0  0  0  0
  -25.7566  -15.6484   23.4801 C   0  0  0  0  0  0  0  0  0  0  0  0
  -23.3284  -15.9122   21.8131 C   0  0  0  0  0  0  0  0  0  0  0  0
  -28.3024  -11.7790   19.3021 C   0  0  0  0  0  0  0  0  0  0  0  0
  -25.1737  -30.5873   23.7052 C   0  0  0  0  0  0  0  0  0  0  0  0
  -27.8277  -13.1691   18.8908 C   0  0  0  0  0  0  0  0  0  0  0  0
  -26.0045  -29.8364   22.6631 C   0  0  0  0  0  0  0  0  0  0  0  0
  -23.5097  -24.3394   23.6877 C   0  0  0  0  0  0  0  0  0  0  0  0
  -24.1765  -29.6651   24.4031 C   0  0  0  0  0  0  0  0  0  0  0  0
  -24.1240  -28.1575   22.4542 C   0  0  0  0  0  0  0  0  0  0  0  0
  -28.2346  -14.2208   19.9300 C   0  0  1  0  0  0  0  0  0  0  0  0
  -22.1989  -23.5831   23.7060 C   0  0  2  0  0  0  0  0  0  0  0  0
  -25.3930  -14.6122   22.4211 C   0  0  1  0  0  0  0  0  0  0  0  0
  -23.3512  -23.1090   22.8450 C   0  0  2  0  0  0  0  0  0  0  0  0
  -25.1053  -29.0577   21.6842 C   0  0  2  0  0  0  0  0  0  0  0  0
  -18.5888  -23.1977   20.5249 C   0  0  0  0  0  0  0  0  0  0  0  0
  -18.0549  -12.3793   23.5024 C   0  0  0  0  0  0  0  0  0  0  0  0
  -22.7109  -13.3195   18.8862 C   0  0  0  0  0  0  0  0  0  0  0  0
  -20.3128  -12.8806   19.4561 C   0  0  0  0  0  0  0  0  0  0  0  0
  -22.0724  -11.2460   20.1302 C   0  0  0  0  0  0  0  0  0  0  0  0
  -20.2064  -14.3656   25.9317 C   0  0  0  0  0  0  0  0  0  0  0  0
  -19.1579  -27.3043   23.2528 C   0  0  0  0  0  0  0  0  0  0  0  0
  -24.0848  -21.8610   23.1976 C   0  0  0  0  0  0  0  0  0  1  0  0
  -19.8076  -28.4178   22.4230 C   0  0  0  0  0  0  0  0  0  0  0  0
  -21.9113  -13.4618   21.3370 C   0  0  1  0  0  0  0  0  0  0  0  0
  -19.3525  -12.9217   24.0812 C   0  0  2  0  0  0  0  0  0  0  0  0
  -21.7651  -12.7500   19.9625 C   0  0  0  0  0  0  0  0  0  0  0  0
  -26.2451  -26.9992   20.9453 N   0  0  0  0  0  0  0  0  0  0  0  0
  -20.3863  -23.4254   22.1294 N   0  0  0  0  0  0  0  0  0  0  0  0
  -20.6627  -25.4194   23.4540 N   0  0  0  0  0  0  0  0  0  0  0  0
  -25.9238  -28.2756   20.6736 N   0  0  0  0  0  0  0  0  0  0  0  0
  -23.9657  -14.6151   22.0940 N   0  0  0  0  0  0  0  0  0  0  0  0
  -23.3536  -28.9577   23.4191 N   0  0  0  0  0  0  0  0  0  0  0  0
  -26.1636  -29.9780   19.0443 N   0  0  0  0  0  0  0  0  0  0  0  0
  -28.3887  -26.4871   17.2390 N   0  0  0  0  0  0  0  0  0  0  0  0
  -27.3560  -14.1627   21.0785 N   0  0  0  0  0  0  0  0  0  0  0  0
  -21.0470  -12.9251   22.3827 N   0  0  0  0  0  0  0  0  0  0  0  0
  -21.2510  -28.3838   22.5006 N   0  0  0  0  0  0  0  0  0  0  0  0
  -19.0212  -13.7836   25.2509 N   0  3  0  0  0  0  0  0  0  0  0  0
  -27.7812  -28.6749   16.9178 O   0  0  0  0  0  0  0  0  0  0  0  0
  -25.6444  -15.5071   20.2506 O   0  0  0  0  0  0  0  0  0  0  0  0
  -23.8260  -12.2878   22.1001 O   0  0  0  0  0  0  0  0  0  0  0  0
  -19.9417  -14.9110   22.8430 O   0  0  0  0  0  0  0  0  0  0  0  0
  -21.3782  -29.7683   24.3239 O   0  0  0  0  0  0  0  0  0  0  0  0
  -29.0159  -21.4450   19.5234 O   0  0  0  0  0  0  0  0  0  0  0  0
  -23.4458  -20.7424   22.5838 O   0  0  0  0  0  0  0  0  0  1  0  0
  -31.5179  -19.3727   23.9787 F   0  0  0  0  0  0  0  0  0  0  0  0
  -27.6532  -21.1609   21.9119 F   0  0  0  0  0  0  0  0  0  0  0  0
  1  2  1  0  0  0  0
  1  5  2  0  0  0  0
  2  6  2  0  0  0  0
  3  8  2  0  0  0  0
  3 16  1  0  0  0  0
  4  9  1  0  0  0  0
  4 16  2  0  0  0  0
  5 18  1  0  0  0  0
  6 20  1  0  0  0  0
  7 10  2  0  0  0  0
  7 19  1  0  0  0  0
  8 22  1  0  0  0  0
  9 22  2  0  0  0  0
 10 23  1  0  0  0  0
 11 12  2  0  0  0  0
 11 24  1  0  0  0  0
 12 25  1  0  0  0  0
 13 21  1  0  0  0  0
 13 23  2  0  0  0  0
 14 25  2  0  0  0  0
 14 26  1  0  0  0  0
 15 28  1  0  0  0  0
 15 29  2  0  0  0  0
 16 27  1  0  0  0  0
 17 27  1  0  0  0  0
 17 30  2  0  0  0  0
 17 32  1  0  0  0  0
 18 20  2  0  0  0  0
 18 37  1  0  0  0  0
 19 21  2  0  0  0  0
 19 38  1  0  0  0  0
 20 47  1  0  0  0  0
 21 39  1  0  0  0  0
 22 81  1  0  0  0  0
 23 82  1  0  0  0  0
 24 26  2  0  0  0  0
 24 81  1  0  0  0  0
 25 83  1  0  0  0  0
 26 84  1  0  0  0  0
 27 64  2  0  0  0  0
 28 52  1  0  0  0  0
 28 65  2  0  0  0  0
 29 58  1  0  0  0  0
 29 66  1  0  0  0  0
 30 67  1  0  0  0  0
 30 70  1  0  0  0  0
 31 48  1  0  0  0  0
 31 65  1  0  0  0  0
 31 66  2  0  0  0  0
 32 71  1  0  0  0  0
 32 76  2  0  0  0  0
 33 49  1  0  0  0  0
 33 72  1  0  0  0  0
 33 77  2  0  0  0  0
 34 61  1  0  0  0  0
 34 68  1  0  0  0  0
 34 78  2  0  0  0  0
 35 62  1  0  0  0  0
 35 73  1  0  0  0  0
 35 79  2  0  0  0  0
 36 69  1  0  0  0  0
 36 74  1  0  0  0  0
 36 80  2  0  0  0  0
 37 40  1  0  0  0  0
 38 49  1  0  0  0  0
 39 68  1  0  0  0  0
 40 42  1  0  0  0  0
 41 43  1  0  0  0  0
 41 45  1  0  0  0  0
 42 47  1  0  0  0  0
 43 51  1  0  0  0  0
 44 48  1  0  0  0  0
 44 50  1  0  0  0  0
 45 69  1  0  0  0  0
 46 51  1  0  0  0  0
 46 69  1  0  0  0  0
 47 72  1  0  0  0  0
 48 50  1  0  0  0  0
 49 68  1  0  0  0  0
 50 59  1  0  0  0  0
 51 67  1  0  0  0  0
 53 62  1  0  0  0  0
 54 63  1  0  0  0  0
 55 63  1  0  0  0  0
 56 63  1  0  0  0  0
 57 75  1  0  0  0  0
 58 60  1  0  0  0  0
 59 82  1  0  0  0  0
 60 74  1  0  0  0  0
 61 63  1  0  0  0  0
 61 73  1  0  0  0  0
 62 75  1  0  0  0  0
 64 67  1  0  0  0  0
M  CHG  1  75   1
M  ISO  4  36 100  59 101  74 100  82 101
M  END
> <Batch ID>
0182

> <Smiles>
CNC(C)C(=O)NC(C(=O)N1Cc2cc([101O:1][101CH2:1]C3CC3c3nc(C)cc(CC[100NH:0][100C:0](=O)N4CCCC(n5nc(-c6ccc(Oc7ccc(F)cc7F)cc6)c(C(N)=O)c5N)C4)n3)ccc2CC1C(=O)NC1CCCc2ccccc21)C(C)(C)C

> <Shape>
0.220

> <Color>
0.064

> <Negative vol penalty>
0.000

$$$$

  -OEChem-04052323053D

 85 95  0     1  0  0  0  0  0999 V2000
  -28.7206  -32.2410   26.6791 C   0  0  0  0  0  0  0  0  0  0  0  0
  -28.5823  -31.0385   25.9932 C   0  0  0  0  0  0  0  0  0  0  0  0
  -24.3777  -10.2894   22.9020 C   0  0  0  0  0  0  0  0  0  0  0  0
  -24.7320  -12.3514   24.1102 C   0  0  0  0  0  0  0  0  0  0  0  0
  -27.6085  -33.0558   26.8865 C   0  0  0  0  0  0  0  0  0  0  0  0
  -27.3314  -30.6497   25.5153 C   0  0  0  0  0  0  0  0  0  0  0  0
  -27.5277  -28.8766   20.7758 C   0  0  0  0  0  0  0  0  0  0  0  0
  -24.0831   -9.6382   24.0998 C   0  0  0  0  0  0  0  0  0  0  0  0
  -24.4374  -11.7002   25.3080 C   0  0  0  0  0  0  0  0  0  0  0  0
  -27.9911  -27.5731   20.6023 C   0  0  0  0  0  0  0  0  0  0  0  0
  -22.8855   -7.5173   26.7984 C   0  0  0  0  0  0  0  0  0  0  0  0
  -21.7775   -6.6703   26.8206 C   0  0  0  0  0  0  0  0  0  0  0  0
  -25.7157  -26.7969   20.4048 C   0  0  0  0  0  0  0  0  0  0  0  0
  -27.8828  -20.7746   20.8167 C   0  0  0  0  0  0  0  0  0  0  0  0
  -20.3467   -8.5266   26.2340 C   0  0  0  0  0  0  0  0  0  0  0  0
  -24.7022  -11.6460   22.9072 C   0  0  0  0  0  0  0  0  0  0  0  0
  -24.1028  -12.9762   20.8146 C   0  0  0  0  0  0  0  0  0  0  0  0
  -26.3451  -32.6814   26.4024 C   0  0  0  0  0  0  0  0  0  0  0  0
  -26.1521  -29.1488   20.7760 C   0  0  0  0  0  0  0  0  0  0  0  0
  -26.2010  -31.4597   25.7176 C   0  0  0  0  0  0  0  0  0  0  0  0
  -25.2375  -28.1050   20.5759 C   0  0  0  0  0  0  0  0  0  0  0  0
  -27.2375  -21.9962   20.9734 C   0  0  0  0  0  0  0  0  0  0  0  0
  -27.2382  -22.9154   19.9302 C   0  0  0  0  0  0  0  0  0  0  0  0
  -24.1129  -10.3435   25.3028 C   0  0  0  0  0  0  0  0  0  0  0  0
  -27.0850  -26.5326   20.4197 C   0  0  0  0  0  0  0  0  0  0  0  0
  -22.7241   -8.8690   26.4941 C   0  0  0  0  0  0  0  0  0  0  0  0
  -20.5081   -7.1749   26.5383 C   0  0  0  0  0  0  0  0  0  0  0  0
  -21.4547   -9.3736   26.2119 C   0  0  0  0  0  0  0  0  0  0  0  0
  -25.0072  -12.3192   21.6703 C   0  0  0  0  0  0  0  0  0  0  0  0
  -28.5091  -20.5226   19.6067 C   0  0  0  0  0  0  0  0  0  0  0  0
  -27.8935  -22.5676   18.7600 C   0  0  0  0  0  0  0  0  0  0  0  0
  -24.8826  -13.4458   19.7861 C   0  0  0  0  0  0  0  0  0  0  0  0
  -22.6846  -13.1469   20.9384 C   0  0  0  0  0  0  0  0  0  0  0  0
  -24.0994  -30.3295   22.8964 C   0  0  0  0  0  0  0  0  0  0  0  0
  -22.0386  -30.1937   20.3950 C   0  0  0  0  0  0  0  0  0  0  0  0
  -21.2083  -28.7876   17.3983 C   0  0  0  0  0  0  0  0  0  0  0  0
  -29.6105  -16.0514   18.1379 C   0  0  0  0  0  0  0  0  0  0  0  0
  -25.1633  -33.5725   26.6922 C   0  0  0  0  0  0  0  0  0  0  0  0
  -25.6693  -30.5641   20.9377 C   0  0  0  0  0  0  0  0  0  0  0  0
  -23.7513  -28.3474   20.5477 C   0  0  0  0  0  0  0  0  0  0  0  0
  -23.9432  -33.2666   25.8274 C   0  0  0  0  0  0  0  0  0  0  0  0
  -29.6692  -12.4797   18.5530 C   0  0  0  0  0  0  0  0  0  0  0  0
  -26.9277  -23.5475   23.0158 C   0  0  0  0  0  0  0  0  0  0  0  0
  -27.3392  -22.2100   23.5468 C   0  0  0  0  0  0  0  0  0  0  0  0
  -23.6814  -31.7644   25.7857 C   0  0  0  0  0  0  0  0  0  0  0  0
  -28.4218  -12.1750   19.3757 C   0  0  0  0  0  0  0  0  0  0  0  0
  -30.2721  -13.8191   18.9548 C   0  0  0  0  0  0  0  0  0  0  0  0
  -28.6975  -17.8366   19.8230 C   0  0  0  0  0  0  0  0  0  0  0  0
  -29.1715  -18.5535   17.8853 C   0  0  0  0  0  0  0  0  0  0  0  0
  -28.0417  -14.6808   19.6157 C   0  0  0  0  0  0  0  0  0  0  0  0
  -26.5535  -22.2970   22.2654 C   0  0  0  0  0  0  0  0  0  0  0  0
  -24.8652  -31.0152   25.1623 C   0  0  1  0  0  0  0  0  0  0  0  0
  -29.2792  -19.1717   19.2982 C   0  0  0  0  0  0  0  0  0  0  0  0
  -24.2294  -30.6511   21.4345 C   0  0  1  0  0  0  0  0  0  0  0  0
  -27.4077  -13.3218   19.2583 C   0  0  2  0  0  0  0  0  0  0  0  0
  -27.9283  -23.5143   17.6050 C   0  0  0  0  0  0  0  0  0  0  0  0
  -19.4473  -28.8540   15.6117 C   0  0  0  0  0  0  0  0  0  0  0  0
  -20.1589  -28.5974   22.1919 C   0  0  0  0  0  0  0  0  0  0  0  0
  -18.9066  -27.8958   20.1406 C   0  0  0  0  0  0  0  0  0  0  0  0
  -19.0300  -30.3090   20.7600 C   0  0  0  0  0  0  0  0  0  0  0  0
  -23.1612  -29.6352   15.3424 C   0  0  0  0  0  0  0  0  0  0  0  0
  -26.5508  -24.2419   20.0687 C   0  0  0  0  0  0  0  0  0  1  0  0
  -21.0875  -29.1566   19.8485 C   0  0  1  0  0  0  0  0  0  0  0  0
  -20.7853  -29.4062   16.0781 C   0  0  2  0  0  0  0  0  0  0  0  0
  -19.8236  -28.9845   20.7377 C   0  0  0  0  0  0  0  0  0  0  0  0
  -26.2653  -12.3650   21.2241 N   0  0  0  0  0  0  0  0  0  0  0  0
  -28.5312  -21.3907   18.5706 N   0  0  0  0  0  0  0  0  0  0  0  0
  -26.1570  -13.0564   20.0768 N   0  0  0  0  0  0  0  0  0  0  0  0
  -23.3283  -29.7474   20.7166 N   0  0  0  0  0  0  0  0  0  0  0  0
  -29.2941  -14.9089   18.8814 N   0  0  0  0  0  0  0  0  0  0  0  0
  -29.0999  -17.2591   18.5519 N   0  0  0  0  0  0  0  0  0  0  0  0
  -24.5957  -14.1497   18.6705 N   0  0  0  0  0  0  0  0  0  0  0  0
  -22.0412  -12.6009   22.0575 N   0  0  0  0  0  0  0  0  0  0  0  0
  -24.8458  -31.1491   23.7214 N   0  0  0  0  0  0  0  0  0  0  0  0
  -20.8013  -29.5496   18.4730 N   0  0  0  0  0  0  0  0  0  0  0  0
  -21.8022  -29.1259   15.0253 N   0  3  0  0  0  0  0  0  0  0  0  0
  -22.0057  -13.7510   20.0739 O   0  0  0  0  0  0  0  0  0  0  0  0
  -23.3744  -29.4069   23.2499 O   0  0  0  0  0  0  0  0  0  0  0  0
  -21.6538  -31.3585   20.5248 O   0  0  0  0  0  0  0  0  0  0  0  0
  -21.8337  -27.7320   17.4692 O   0  0  0  0  0  0  0  0  0  0  0  0
  -30.3530  -16.0018   17.1483 O   0  0  0  0  0  0  0  0  0  0  0  0
  -23.8252   -9.7084   26.4718 O   0  0  0  0  0  0  0  0  0  0  0  0
  -27.5346  -25.2594   20.2507 O   0  0  0  0  0  0  0  0  0  1  0  0
  -19.4444   -6.3611   26.5582 F   0  0  0  0  0  0  0  0  0  0  0  0
  -21.2936  -10.6710   25.9177 F   0  0  0  0  0  0  0  0  0  0  0  0
  1  2  1  0  0  0  0
  1  5  2  0  0  0  0
  2  6  2  0  0  0  0
  3  8  2  0  0  0  0
  3 16  1  0  0  0  0
  4  9  1  0  0  0  0
  4 16  2  0  0  0  0
  5 18  1  0  0  0  0
  6 20  1  0  0  0  0
  7 10  2  0  0  0  0
  7 19  1  0  0  0  0
  8 24  1  0  0  0  0
  9 24  2  0  0  0  0
 10 25  1  0  0  0  0
 11 12  2  0  0  0  0
 11 26  1  0  0  0  0
 12 27  1  0  0  0  0
 13 21  1  0  0  0  0
 13 25  2  0  0  0  0
 14 22  2  0  0  0  0
 14 30  1  0  0  0  0
 15 27  2  0  0  0  0
 15 28  1  0  0  0  0
 16 29  1  0  0  0  0
 17 29  1  0  0  0  0
 17 32  2  0  0  0  0
 17 33  1  0  0  0  0
 18 20  2  0  0  0  0
 18 38  1  0  0  0  0
 19 21  2  0  0  0  0
 19 39  1  0  0  0  0
 20 52  1  0  0  0  0
 21 40  1  0  0  0  0
 22 23  1  0  0  0  0
 22 51  1  0  0  0  0
 23 31  2  0  0  0  0
 23 62  1  0  0  0  0
 24 82  1  0  0  0  0
 25 83  1  0  0  0  0
 26 28  2  0  0  0  0
 26 82  1  0  0  0  0
 27 84  1  0  0  0  0
 28 85  1  0  0  0  0
 29 66  2  0  0  0  0
 30 53  1  0  0  0  0
 30 67  2  0  0  0  0
 31 56  1  0  0  0  0
 31 67  1  0  0  0  0
 32 68  1  0  0  0  0
 32 72  1  0  0  0  0
 33 73  1  0  0  0  0
 33 77  2  0  0  0  0
 34 54  1  0  0  0  0
 34 74  1  0  0  0  0
 34 78  2  0  0  0  0
 35 63  1  0  0  0  0
 35 69  1  0  0  0  0
 35 79  2  0  0  0  0
 36 64  1  0  0  0  0
 36 75  1  0  0  0  0
 36 80  2  0  0  0  0
 37 70  1  0  0  0  0
 37 71  1  0  0  0  0
 37 81  2  0  0  0  0
 38 41  1  0  0  0  0
 39 54  1  0  0  0  0
 40 69  1  0  0  0  0
 41 45  1  0  0  0  0
 42 46  1  0  0  0  0
 42 47  1  0  0  0  0
 43 44  1  0  0  0  0
 43 51  1  0  0  0  0
 44 51  1  0  0  0  0
 45 52  1  0  0  0  0
 46 55  1  0  0  0  0
 47 70  1  0  0  0  0
 48 53  1  0  0  0  0
 48 71  1  0  0  0  0
 49 53  1  0  0  0  0
 49 71  1  0  0  0  0
 50 55  1  0  0  0  0
 50 70  1  0  0  0  0
 52 74  1  0  0  0  0
 54 69  1  0  0  0  0
 55 68  1  0  0  0  0
 57 64  1  0  0  0  0
 58 65  1  0  0  0  0
 59 65  1  0  0  0  0
 60 65  1  0  0  0  0
 61 76  1  0  0  0  0
 62 83  1  0  0  0  0
 63 65  1  0  0  0  0
 63 75  1  0  0  0  0
 64 76  1  0  0  0  0
 66 68  1  0  0  0  0
M  CHG  1  76   1
M  ISO  4  37 100  62 101  71 100  83 101
M  END
> <Batch ID>
0182

> <Smiles>
CNC(C)C(=O)NC(C(=O)N1Cc2cc([101O:1][101CH2:1]c3c(C4CC4)cc(C4C[100N:0]([100C:0](=O)N5CCCC(n6nc(-c7ccc(Oc8ccc(F)cc8F)cc7)c(C(N)=O)c6N)C5)C4)nc3C)ccc2CC1C(=O)NC1CCCc2ccccc21)C(C)(C)C

> <Shape>
0.268

> <Color>
0.100

> <Negative vol penalty>
0.000

$$$$

  -OEChem-04052323053D

 81 90  0     1  0  0  0  0  0999 V2000
  -20.5975  -29.0309   22.8201 C   0  0  0  0  0  0  0  0  0  0  0  0
  -21.2298  -28.0655   23.5970 C   0  0  0  0  0  0  0  0  0  0  0  0
  -22.9987   -9.8924   19.9834 C   0  0  0  0  0  0  0  0  0  0  0  0
  -23.7242   -9.9471   22.2872 C   0  0  0  0  0  0  0  0  0  0  0  0
  -21.1056  -29.3547   21.5627 C   0  0  0  0  0  0  0  0  0  0  0  0
  -22.3701  -27.4226   23.1165 C   0  0  0  0  0  0  0  0  0  0  0  0
  -28.5367  -24.5622   25.3764 C   0  0  0  0  0  0  0  0  0  0  0  0
  -22.2325   -8.7581   20.2516 C   0  0  0  0  0  0  0  0  0  0  0  0
  -22.9579   -8.8128   22.5555 C   0  0  0  0  0  0  0  0  0  0  0  0
  -29.2747  -23.3830   25.2840 C   0  0  0  0  0  0  0  0  0  0  0  0
  -23.2029   -5.4732   22.0887 C   0  0  0  0  0  0  0  0  0  0  0  0
  -23.7908   -4.4573   22.8423 C   0  0  0  0  0  0  0  0  0  0  0  0
  -30.1084  -24.0805   23.1305 C   0  0  0  0  0  0  0  0  0  0  0  0
  -22.0671   -4.7024   24.5174 C   0  0  0  0  0  0  0  0  0  0  0  0
  -30.2507  -18.8573   23.0334 C   0  0  0  0  0  0  0  0  0  0  0  0
  -23.7447  -10.4868   21.0012 C   0  0  0  0  0  0  0  0  0  0  0  0
  -24.1294  -13.0022   20.8212 C   0  0  0  0  0  0  0  0  0  0  0  0
  -22.2582  -28.7224   21.0706 C   0  0  0  0  0  0  0  0  0  0  0  0
  -28.5705  -25.5060   24.3398 C   0  0  0  0  0  0  0  0  0  0  0  0
  -22.8933  -27.7373   21.8508 C   0  0  0  0  0  0  0  0  0  0  0  0
  -29.3719  -25.2720   23.2132 C   0  0  0  0  0  0  0  0  0  0  0  0
  -31.4980  -19.2807   22.6627 C   0  0  0  0  0  0  0  0  0  0  0  0
  -22.2121   -8.2184   21.5376 C   0  0  0  0  0  0  0  0  0  0  0  0
  -30.0585  -23.1406   24.1597 C   0  0  0  0  0  0  0  0  0  0  0  0
  -22.0472   -6.1038   22.5494 C   0  0  0  0  0  0  0  0  0  0  0  0
  -23.2229   -4.0719   24.0566 C   0  0  0  0  0  0  0  0  0  0  0  0
  -21.4793   -5.7184   23.7638 C   0  0  0  0  0  0  0  0  0  0  0  0
  -24.5368  -11.6582   20.7246 C   0  0  0  0  0  0  0  0  0  0  0  0
  -32.2296  -18.4167   21.8842 C   0  0  0  0  0  0  0  0  0  0  0  0
  -25.2390  -13.7245   20.4556 C   0  0  0  0  0  0  0  0  0  0  0  0
  -30.5806  -16.9023   21.8791 C   0  0  0  0  0  0  0  0  0  0  0  0
  -22.8614  -13.5489   21.2071 C   0  0  0  0  0  0  0  0  0  0  0  0
  -26.4140  -26.7355   22.3544 C   0  0  0  0  0  0  0  0  0  0  0  0
  -28.8853  -28.6429   21.4730 C   0  0  0  0  0  0  0  0  0  0  0  0
  -32.2608  -29.1027   21.2695 C   0  0  0  0  0  0  0  0  0  0  0  0
  -30.7183  -14.6871   20.6872 C   0  0  0  0  0  0  0  0  0  0  0  0
  -22.7428  -29.0719   19.6858 C   0  0  0  0  0  0  0  0  0  0  0  0
  -27.7895  -26.7853   24.4666 C   0  0  0  0  0  0  0  0  0  0  0  0
  -29.4585  -26.2626   22.0820 C   0  0  0  0  0  0  0  0  0  0  0  0
  -24.1716  -28.6127   19.4066 C   0  0  0  0  0  0  0  0  0  0  0  0
  -29.6002  -12.2304   18.3653 C   0  0  0  0  0  0  0  0  0  0  0  0
  -24.3678  -27.1706   19.8633 C   0  0  0  0  0  0  0  0  0  0  0  0
  -28.1497  -11.9731   18.7800 C   0  0  0  0  0  0  0  0  0  0  0  0
  -30.5008  -12.4758   19.5745 C   0  0  0  0  0  0  0  0  0  0  0  0
  -28.5855  -13.2664   20.9071 C   0  0  0  0  0  0  0  0  0  0  0  0
  -33.3819  -20.3185   21.9071 C   0  0  0  0  0  0  0  0  0  0  0  0
  -32.2955  -20.4820   22.9814 C   0  0  1  0  0  0  0  0  0  0  0  0
  -24.1466  -27.0356   21.3747 C   0  0  1  0  0  0  0  0  0  0  0  0
  -27.4959  -27.4419   23.1213 C   0  0  1  0  0  0  0  0  0  0  0  0
  -27.6277  -13.0780   19.7194 C   0  0  2  0  0  0  0  0  0  0  0  0
  -33.9804  -30.7444   20.4663 C   0  0  0  0  0  0  0  0  0  0  0  0
  -28.3615  -27.7792   18.5938 C   0  0  0  0  0  0  0  0  0  0  0  0
  -30.6267  -28.6589   17.9914 C   0  0  0  0  0  0  0  0  0  0  0  0
  -28.8835  -30.2087   18.8755 C   0  0  0  0  0  0  0  0  0  0  0  0
  -33.3692  -29.4502   23.9916 C   0  0  0  0  0  0  0  0  0  0  0  0
  -31.5606  -21.8068   22.8868 C   0  0  0  0  0  0  0  0  0  1  0  0
  -29.9857  -28.5593   20.4429 C   0  0  1  0  0  0  0  0  0  0  0  0
  -33.1415  -30.2802   21.6468 C   0  0  2  0  0  0  0  0  0  0  0  0
  -29.4614  -28.7818   18.9962 C   0  0  0  0  0  0  0  0  0  0  0  0
  -29.7563  -17.6601   22.6452 N   0  0  0  0  0  0  0  0  0  0  0  0
  -25.8061  -11.5313   20.3285 N   0  0  0  0  0  0  0  0  0  0  0  0
  -31.8265  -17.2103   21.4641 N   0  0  0  0  0  0  0  0  0  0  0  0
  -26.2058  -12.8050   20.1728 N   0  0  0  0  0  0  0  0  0  0  0  0
  -28.6715  -27.4955   22.2499 N   0  0  0  0  0  0  0  0  0  0  0  0
  -29.9457  -13.5380   20.4163 N   0  0  0  0  0  0  0  0  0  0  0  0
  -25.4721  -15.0501   20.3514 N   0  0  0  0  0  0  0  0  0  0  0  0
  -21.8298  -12.6651   21.5522 N   0  0  0  0  0  0  0  0  0  0  0  0
  -30.0739  -15.6434   21.4714 N   0  0  0  0  0  0  0  0  0  0  0  0
  -25.3031  -27.5168   22.0996 N   0  0  0  0  0  0  0  0  0  0  0  0
  -31.0090  -29.5116   20.8606 N   0  0  0  0  0  0  0  0  0  0  0  0
  -34.0610  -29.9043   22.7578 N   0  3  0  0  0  0  0  0  0  0  0  0
  -22.6444  -14.7842   21.2290 O   0  0  0  0  0  0  0  0  0  0  0  0
  -26.5758  -25.5685   22.0174 O   0  0  0  0  0  0  0  0  0  0  0  0
  -28.2438  -29.6902   21.5890 O   0  0  0  0  0  0  0  0  0  0  0  0
  -32.6460  -27.9371   21.3279 O   0  0  0  0  0  0  0  0  0  0  0  0
  -31.8568  -14.8256   20.2328 O   0  0  0  0  0  0  0  0  0  0  0  0
  -33.4860  -18.9147   21.5599 O   0  0  0  0  0  0  0  0  0  0  0  0
  -21.4643   -7.1117   21.7997 O   0  0  0  0  0  0  0  0  0  0  0  0
  -30.7793  -21.9901   24.0668 O   0  0  0  0  0  0  0  0  0  1  0  0
  -23.7866   -3.0952   24.7794 F   0  0  0  0  0  0  0  0  0  0  0  0
  -20.3683   -6.3197   24.2110 F   0  0  0  0  0  0  0  0  0  0  0  0
  1  2  1  0  0  0  0
  1  5  2  0  0  0  0
  2  6  2  0  0  0  0
  3  8  2  0  0  0  0
  3 16  1  0  0  0  0
  4  9  1  0  0  0  0
  4 16  2  0  0  0  0
  5 18  1  0  0  0  0
  6 20  1  0  0  0  0
  7 10  2  0  0  0  0
  7 19  1  0  0  0  0
  8 23  1  0  0  0  0
  9 23  2  0  0  0  0
 10 24  1  0  0  0  0
 11 12  2  0  0  0  0
 11 25  1  0  0  0  0
 12 26  1  0  0  0  0
 13 21  1  0  0  0  0
 13 24  2  0  0  0  0
 14 26  2  0  0  0  0
 14 27  1  0  0  0  0
 15 22  1  0  0  0  0
 15 60  2  0  0  0  0
 16 28  1  0  0  0  0
 17 28  1  0  0  0  0
 17 30  2  0  0  0  0
 17 32  1  0  0  0  0
 18 20  2  0  0  0  0
 18 37  1  0  0  0  0
 19 21  2  0  0  0  0
 19 38  1  0  0  0  0
 20 48  1  0  0  0  0
 21 39  1  0  0  0  0
 22 29  2  0  0  0  0
 22 47  1  0  0  0  0
 23 78  1  0  0  0  0
 24 79  1  0  0  0  0
 25 27  2  0  0  0  0
 25 78  1  0  0  0  0
 26 80  1  0  0  0  0
 27 81  1  0  0  0  0
 28 61  2  0  0  0  0
 29 62  1  0  0  0  0
 29 77  1  0  0  0  0
 30 63  1  0  0  0  0
 30 66  1  0  0  0  0
 31 60  1  0  0  0  0
 31 62  2  0  0  0  0
 31 68  1  0  0  0  0
 32 67  1  0  0  0  0
 32 72  2  0  0  0  0
 33 49  1  0  0  0  0
 33 69  1  0  0  0  0
 33 73  2  0  0  0  0
 34 57  1  0  0  0  0
 34 64  1  0  0  0  0
 34 74  2  0  0  0  0
 35 58  1  0  0  0  0
 35 70  1  0  0  0  0
 35 75  2  0  0  0  0
 36 65  1  0  0  0  0
 36 68  1  0  0  0  0
 36 76  2  0  0  0  0
 37 40  1  0  0  0  0
 38 49  1  0  0  0  0
 39 64  1  0  0  0  0
 40 42  1  0  0  0  0
 41 43  1  0  0  0  0
 41 44  1  0  0  0  0
 42 48  1  0  0  0  0
 43 50  1  0  0  0  0
 44 65  1  0  0  0  0
 45 50  1  0  0  0  0
 45 65  1  0  0  0  0
 46 47  1  0  0  0  0
 46 77  1  0  0  0  0
 47 56  1  0  0  0  0
 48 69  1  0  0  0  0
 49 64  1  0  0  0  0
 50 63  1  0  0  0  0
 51 58  1  0  0  0  0
 52 59  1  0  0  0  0
 53 59  1  0  0  0  0
 54 59  1  0  0  0  0
 55 71  1  0  0  0  0
 56 79  1  0  0  0  0
 57 59  1  0  0  0  0
 57 70  1  0  0  0  0
 58 71  1  0  0  0  0
 61 63  1  0  0  0  0
M  CHG  1  71   1
M  ISO  4  36 100  56 101  68 100  79 101
M  END
> <Batch ID>
0182

> <Smiles>
CNC(C)C(=O)NC(C(=O)N1Cc2cc([101O:1][101CH2:1]C3COc4nc([100NH:0][100C:0](=O)N5CCCC(n6nc(-c7ccc(Oc8ccc(F)cc8F)cc7)c(C(N)=O)c6N)C5)ncc43)ccc2CC1C(=O)NC1CCCc2ccccc21)C(C)(C)C

> <Shape>
0.261

> <Color>
0.190

> <Negative vol penalty>
0.000

$$$$

  -OEChem-04052323053D

 83 92  0     1  0  0  0  0  0999 V2000
  -19.7193  -28.1575   23.6215 C   0  0  0  0  0  0  0  0  0  0  0  0
  -19.5284  -26.7798   23.5895 C   0  0  0  0  0  0  0  0  0  0  0  0
  -29.6810  -23.6646   18.8004 C   0  0  0  0  0  0  0  0  0  0  0  0
  -28.9796  -23.6360   21.1122 C   0  0  0  0  0  0  0  0  0  0  0  0
  -19.7457  -28.8843   22.4320 C   0  0  0  0  0  0  0  0  0  0  0  0
  -19.3626  -26.1283   22.3678 C   0  0  0  0  0  0  0  0  0  0  0  0
  -22.0863  -21.8707   22.0516 C   0  0  0  0  0  0  0  0  0  0  0  0
  -29.3602  -25.0197   18.7198 C   0  0  0  0  0  0  0  0  0  0  0  0
  -28.6588  -24.9911   21.0316 C   0  0  0  0  0  0  0  0  0  0  0  0
  -21.5896  -20.7467   22.7102 C   0  0  0  0  0  0  0  0  0  0  0  0
  -27.3175  -28.3557   21.3327 C   0  0  0  0  0  0  0  0  0  0  0  0
  -26.1046  -28.7687   21.8839 C   0  0  0  0  0  0  0  0  0  0  0  0
  -20.7251  -19.9108   20.6190 C   0  0  0  0  0  0  0  0  0  0  0  0
  -20.5828  -15.5654   21.7697 C   0  0  0  0  0  0  0  0  0  0  0  0
  -22.7939  -15.5621   22.7160 C   0  0  0  0  0  0  0  0  0  0  0  0
  -24.9191  -27.3001   20.3756 C   0  0  0  0  0  0  0  0  0  0  0  0
  -29.4906  -22.9727   19.9966 C   0  0  0  0  0  0  0  0  0  0  0  0
  -31.0588  -21.0122   20.4491 C   0  0  0  0  0  0  0  0  0  0  0  0
  -19.5899  -28.2400   21.1946 C   0  0  0  0  0  0  0  0  0  0  0  0
  -21.8962  -22.0287   20.6712 C   0  0  0  0  0  0  0  0  0  0  0  0
  -19.3856  -26.8473   21.1607 C   0  0  0  0  0  0  0  0  0  0  0  0
  -21.2226  -21.0365   19.9448 C   0  0  0  0  0  0  0  0  0  0  0  0
  -21.4578  -15.9414   22.7827 C   0  0  0  0  0  0  0  0  0  0  0  0
  -28.8492  -25.6829   19.8354 C   0  0  0  0  0  0  0  0  0  0  0  0
  -20.9064  -19.7680   21.9944 C   0  0  0  0  0  0  0  0  0  0  0  0
  -27.3312  -27.4149   20.3029 C   0  0  0  0  0  0  0  0  0  0  0  0
  -24.9054  -28.2409   21.4054 C   0  0  0  0  0  0  0  0  0  0  0  0
  -26.1320  -26.8871   19.8244 C   0  0  0  0  0  0  0  0  0  0  0  0
  -29.8212  -21.5728   20.0803 C   0  0  0  0  0  0  0  0  0  0  0  0
  -21.0893  -14.8162   20.7200 C   0  0  0  0  0  0  0  0  0  0  0  0
  -23.2014  -14.8128   21.6241 C   0  0  0  0  0  0  0  0  0  0  0  0
  -30.8577  -19.6557   20.3722 C   0  0  0  0  0  0  0  0  0  0  0  0
  -32.2808  -21.6597   20.8274 C   0  0  0  0  0  0  0  0  0  0  0  0
  -20.4057  -24.1579   18.8413 C   0  0  0  0  0  0  0  0  0  0  0  0
  -21.7579  -22.4558   16.4337 C   0  0  0  0  0  0  0  0  0  0  0  0
  -23.0762  -19.4954   15.3636 C   0  0  0  0  0  0  0  0  0  0  0  0
  -25.9808  -16.3672   20.8791 C   0  0  0  0  0  0  0  0  0  0  0  0
  -19.5784  -29.0742   19.9381 C   0  0  0  0  0  0  0  0  0  0  0  0
  -22.4614  -23.2340   19.9710 C   0  0  0  0  0  0  0  0  0  0  0  0
  -21.0098  -21.1488   18.4580 C   0  0  0  0  0  0  0  0  0  0  0  0
  -19.7695  -28.2573   18.6628 C   0  0  0  0  0  0  0  0  0  0  0  0
  -28.2447  -16.3826   18.0556 C   0  0  0  0  0  0  0  0  0  0  0  0
  -18.8735  -27.0230   18.6803 C   0  0  0  0  0  0  0  0  0  0  0  0
  -29.0259  -17.6751   18.2992 C   0  0  0  0  0  0  0  0  0  0  0  0
  -21.0985  -16.1563   25.3258 C   0  0  0  0  0  0  0  0  0  0  0  0
  -19.7479  -16.2443   24.6869 C   0  0  0  0  0  0  0  0  0  0  0  0
  -26.7778  -16.5416   18.4446 C   0  0  0  0  0  0  0  0  0  0  0  0
  -27.3379  -18.2862   20.0928 C   0  0  0  0  0  0  0  0  0  0  0  0
  -19.2269  -26.1012   19.8537 C   0  0  1  0  0  0  0  0  0  0  0  0
  -21.7621  -23.5404   18.6503 C   0  0  1  0  0  0  0  0  0  0  0  0
  -28.8329  -18.1833   19.7403 C   0  0  2  0  0  0  0  0  0  0  0  0
  -20.9660  -16.7489   23.9344 C   0  0  0  0  0  0  0  0  0  0  0  0
  -20.1795  -14.3954   19.6145 C   0  0  0  0  0  0  0  0  0  0  0  0
  -24.2243  -17.8781   13.8261 C   0  0  0  0  0  0  0  0  0  0  0  0
  -18.9684  -22.1830   15.2278 C   0  0  0  0  0  0  0  0  0  0  0  0
  -19.8484  -20.3352   13.7858 C   0  0  0  0  0  0  0  0  0  0  0  0
  -20.7827  -22.6379   13.5677 C   0  0  0  0  0  0  0  0  0  0  0  0
  -25.7523  -20.2558   16.3732 C   0  0  0  0  0  0  0  0  0  0  0  0
  -24.6283  -14.3879   21.5196 C   0  0  0  0  0  0  0  0  0  0  0  0
  -21.1318  -18.2223   23.7878 C   0  0  0  0  0  0  0  0  0  1  0  0
  -21.3488  -21.2588   15.6097 C   0  0  1  0  0  0  0  0  0  0  0  0
  -24.3535  -19.1762   14.6079 C   0  0  2  0  0  0  0  0  0  0  0  0
  -20.2392  -21.6022   14.5761 C   0  0  0  0  0  0  0  0  0  0  0  0
  -28.9021  -20.6481   19.7905 N   0  0  0  0  0  0  0  0  0  0  0  0
  -22.3807  -14.4289   20.6207 N   0  0  0  0  0  0  0  0  0  0  0  0
  -29.5626  -19.4926   19.9771 N   0  0  0  0  0  0  0  0  0  0  0  0
  -21.5756  -22.3488   17.8198 N   0  0  0  0  0  0  0  0  0  0  0  0
  -26.6635  -17.0099   19.8330 N   0  0  0  0  0  0  0  0  0  0  0  0
  -31.6643  -18.5984   20.6046 N   0  0  0  0  0  0  0  0  0  0  0  0
  -32.3141  -23.0606   20.8541 N   0  0  0  0  0  0  0  0  0  0  0  0
  -20.4214  -25.3401   19.5566 N   0  0  0  0  0  0  0  0  0  0  0  0
  -22.5741  -20.7323   15.0183 N   0  0  0  0  0  0  0  0  0  0  0  0
  -25.3634  -15.1672   20.5483 N   0  0  0  0  0  0  0  0  0  0  0  0
  -25.4962  -19.0425   15.5552 N   0  3  0  0  0  0  0  0  0  0  0  0
  -33.3173  -21.0153   21.1169 O   0  0  0  0  0  0  0  0  0  0  0  0
  -19.4181  -23.6037   18.3732 O   0  0  0  0  0  0  0  0  0  0  0  0
  -22.2287  -23.4463   15.8691 O   0  0  0  0  0  0  0  0  0  0  0  0
  -22.5722  -18.7231   16.1760 O   0  0  0  0  0  0  0  0  0  0  0  0
  -25.9298  -16.8262   22.0254 O   0  0  0  0  0  0  0  0  0  0  0  0
  -28.5363  -27.0053   19.7572 O   0  0  0  0  0  0  0  0  0  0  0  0
  -20.4200  -18.6702   22.6349 O   0  0  0  0  0  0  0  0  0  1  0  0
  -23.7408  -28.6365   21.9359 F   0  0  0  0  0  0  0  0  0  0  0  0
  -26.1389  -25.9821   18.8361 F   0  0  0  0  0  0  0  0  0  0  0  0
  1  2  1  0  0  0  0
  1  5  2  0  0  0  0
  2  6  2  0  0  0  0
  3  8  2  0  0  0  0
  3 17  1  0  0  0  0
  4  9  1  0  0  0  0
  4 17  2  0  0  0  0
  5 19  1  0  0  0  0
  6 21  1  0  0  0  0
  7 10  2  0  0  0  0
  7 20  1  0  0  0  0
  8 24  1  0  0  0  0
  9 24  2  0  0  0  0
 10 25  1  0  0  0  0
 11 12  2  0  0  0  0
 11 26  1  0  0  0  0
 12 27  1  0  0  0  0
 13 22  1  0  0  0  0
 13 25  2  0  0  0  0
 14 23  1  0  0  0  0
 14 30  2  0  0  0  0
 15 23  2  0  0  0  0
 15 31  1  0  0  0  0
 16 27  2  0  0  0  0
 16 28  1  0  0  0  0
 17 29  1  0  0  0  0
 18 29  1  0  0  0  0
 18 32  2  0  0  0  0
 18 33  1  0  0  0  0
 19 21  2  0  0  0  0
 19 38  1  0  0  0  0
 20 22  2  0  0  0  0
 20 39  1  0  0  0  0
 21 49  1  0  0  0  0
 22 40  1  0  0  0  0
 23 52  1  0  0  0  0
 24 80  1  0  0  0  0
 25 81  1  0  0  0  0
 26 28  2  0  0  0  0
 26 80  1  0  0  0  0
 27 82  1  0  0  0  0
 28 83  1  0  0  0  0
 29 64  2  0  0  0  0
 30 53  1  0  0  0  0
 30 65  1  0  0  0  0
 31 59  1  0  0  0  0
 31 65  2  0  0  0  0
 32 66  1  0  0  0  0
 32 69  1  0  0  0  0
 33 70  1  0  0  0  0
 33 75  2  0  0  0  0
 34 50  1  0  0  0  0
 34 71  1  0  0  0  0
 34 76  2  0  0  0  0
 35 61  1  0  0  0  0
 35 67  1  0  0  0  0
 35 77  2  0  0  0  0
 36 62  1  0  0  0  0
 36 72  1  0  0  0  0
 36 78  2  0  0  0  0
 37 68  1  0  0  0  0
 37 73  1  0  0  0  0
 37 79  2  0  0  0  0
 38 41  1  0  0  0  0
 39 50  1  0  0  0  0
 40 67  1  0  0  0  0
 41 43  1  0  0  0  0
 42 44  1  0  0  0  0
 42 47  1  0  0  0  0
 43 49  1  0  0  0  0
 44 51  1  0  0  0  0
 45 46  1  0  0  0  0
 45 52  1  0  0  0  0
 46 52  1  0  0  0  0
 47 68  1  0  0  0  0
 48 51  1  0  0  0  0
 48 68  1  0  0  0  0
 49 71  1  0  0  0  0
 50 67  1  0  0  0  0
 51 66  1  0  0  0  0
 52 60  1  0  0  0  0
 54 62  1  0  0  0  0
 55 63  1  0  0  0  0
 56 63  1  0  0  0  0
 57 63  1  0  0  0  0
 58 74  1  0  0  0  0
 59 73  1  0  0  0  0
 60 81  1  0  0  0  0
 61 63  1  0  0  0  0
 61 72  1  0  0  0  0
 62 74  1  0  0  0  0
 64 66  1  0  0  0  0
M  CHG  1  74   1
M  ISO  4  37 100  60 101  73 100  81 101
M  END
> <Batch ID>
0182

> <Smiles>
CNC(C)C(=O)NC(C(=O)N1Cc2cc([101O:1][101CH2:1]C3(c4cc(C)nc(C[100NH:0][100C:0](=O)N5CCCC(n6nc(-c7ccc(Oc8ccc(F)cc8F)cc7)c(C(N)=O)c6N)C5)c4)CC3)ccc2CC1C(=O)NC1CCCc2ccccc21)C(C)(C)C

> <Shape>
0.161

> <Color>
0.101

> <Negative vol penalty>
0.000

$$$$

  -OEChem-04052323053D

 81 90  0     1  0  0  0  0  0999 V2000
  -25.8544  -10.9204   23.5950 C   0  0  0  0  0  0  0  0  0  0  0  0
  -26.7304  -11.9977   23.6810 C   0  0  0  0  0  0  0  0  0  0  0  0
  -22.3719  -28.2648   20.8515 C   0  0  0  0  0  0  0  0  0  0  0  0
  -23.6404  -27.5902   22.7940 C   0  0  0  0  0  0  0  0  0  0  0  0
  -25.0463  -10.7686   22.4690 C   0  0  0  0  0  0  0  0  0  0  0  0
  -26.7996  -12.9233   22.6404 C   0  0  0  0  0  0  0  0  0  0  0  0
  -27.8180  -18.9425   23.1293 C   0  0  0  0  0  0  0  0  0  0  0  0
  -21.1850  -28.0463   21.5507 C   0  0  0  0  0  0  0  0  0  0  0  0
  -22.4534  -27.3718   23.4932 C   0  0  0  0  0  0  0  0  0  0  0  0
  -28.9679  -19.7150   22.9725 C   0  0  0  0  0  0  0  0  0  0  0  0
  -19.3319  -29.6552   23.8768 C   0  0  0  0  0  0  0  0  0  0  0  0
  -18.3349  -30.6259   23.7807 C   0  0  0  0  0  0  0  0  0  0  0  0
  -34.4385  -23.6800   21.7228 C   0  0  0  0  0  0  0  0  0  0  0  0
  -28.3293  -20.1923   20.6957 C   0  0  0  0  0  0  0  0  0  0  0  0
  -16.8277  -28.9852   22.8459 C   0  0  0  0  0  0  0  0  0  0  0  0
  -34.6141  -22.3683   22.1140 C   0  0  0  0  0  0  0  0  0  0  0  0
  -23.5997  -28.0367   21.4731 C   0  0  0  0  0  0  0  0  0  0  0  0
  -25.5658  -29.4576   20.6837 C   0  0  0  0  0  0  0  0  0  0  0  0
  -25.0987  -11.6983   21.4184 C   0  0  0  0  0  0  0  0  0  0  0  0
  -26.9191  -18.7798   22.0654 C   0  0  0  0  0  0  0  0  0  0  0  0
  -25.9924  -12.7832   21.4987 C   0  0  0  0  0  0  0  0  0  0  0  0
  -27.1674  -19.4193   20.8424 C   0  0  0  0  0  0  0  0  0  0  0  0
  -21.2257  -27.5998   22.8716 C   0  0  0  0  0  0  0  0  0  0  0  0
  -29.2252  -20.3377   21.7546 C   0  0  0  0  0  0  0  0  0  0  0  0
  -19.0769  -28.3495   23.4574 C   0  0  0  0  0  0  0  0  0  0  0  0
  -17.0828  -30.2909   23.2652 C   0  0  0  0  0  0  0  0  0  0  0  0
  -17.8248  -28.0145   22.9420 C   0  0  0  0  0  0  0  0  0  0  0  0
  -24.8262  -28.2617   20.7512 C   0  0  0  0  0  0  0  0  0  0  0  0
  -33.1317  -24.1213   21.6830 C   0  0  0  0  0  0  0  0  0  0  0  0
  -26.6371  -29.1538   19.8797 C   0  0  0  0  0  0  0  0  0  0  0  0
  -32.3720  -22.0904   22.3651 C   0  0  0  0  0  0  0  0  0  0  0  0
  -25.3076  -30.7293   21.2934 C   0  0  0  0  0  0  0  0  0  0  0  0
  -25.8684  -16.3011   20.3755 C   0  0  0  0  0  0  0  0  0  0  0  0
  -23.8982  -18.5235   19.0711 C   0  0  0  0  0  0  0  0  0  0  0  0
  -23.3056  -21.8075   18.3565 C   0  0  0  0  0  0  0  0  0  0  0  0
  -30.7690  -25.5640   18.5154 C   0  0  0  0  0  0  0  0  0  0  0  0
  -24.2399  -11.4664   20.2005 C   0  0  0  0  0  0  0  0  0  0  0  0
  -25.6697  -17.9651   22.2590 C   0  0  0  0  0  0  0  0  0  0  0  0
  -26.2237  -19.2928   19.6754 C   0  0  0  0  0  0  0  0  0  0  0  0
  -24.1033  -12.6974   19.3081 C   0  0  0  0  0  0  0  0  0  0  0  0
  -27.5562  -25.1523   16.9636 C   0  0  0  0  0  0  0  0  0  0  0  0
  -25.4655  -13.3448   19.0795 C   0  0  0  0  0  0  0  0  0  0  0  0
  -26.6099  -25.9749   17.8321 C   0  0  0  0  0  0  0  0  0  0  0  0
  -28.6513  -24.5134   17.8070 C   0  0  0  0  0  0  0  0  0  0  0  0
  -32.9255  -26.0454   19.7863 C   0  0  0  0  0  0  0  0  0  0  0  0
  -31.2249  -25.9440   21.0605 C   0  0  0  0  0  0  0  0  0  0  0  0
  -28.5336  -26.3655   19.4531 C   0  0  0  0  0  0  0  0  0  0  0  0
  -26.0784  -13.8220   20.4016 C   0  0  1  0  0  0  0  0  0  0  0  0
  -32.7240  -25.6057   21.2559 C   0  0  0  0  0  0  0  0  0  0  0  0
  -25.0846  -17.4478   20.9485 C   0  0  1  0  0  0  0  0  0  0  0  0
  -27.3939  -27.0161   18.6439 C   0  0  2  0  0  0  0  0  0  0  0  0
  -21.6290  -23.3113   17.2496 C   0  0  0  0  0  0  0  0  0  0  0  0
  -24.9065  -17.6289   16.3338 C   0  0  0  0  0  0  0  0  0  0  0  0
  -23.9588  -19.7376   15.3728 C   0  0  0  0  0  0  0  0  0  0  0  0
  -22.4473  -18.0689   16.4468 C   0  0  0  0  0  0  0  0  0  0  0  0
  -22.7947  -23.2819   20.8712 C   0  0  0  0  0  0  0  0  0  0  0  0
  -31.2172  -21.2023   22.7243 C   0  0  0  0  0  0  0  0  0  1  0  0
  -23.9796  -19.4653   17.8940 C   0  0  1  0  0  0  0  0  0  0  0  0
  -22.0769  -22.6762   18.5568 C   0  0  2  0  0  0  0  0  0  0  0  0
  -23.8420  -18.7262   16.5331 C   0  0  0  0  0  0  0  0  0  0  0  0
  -33.5996  -21.5422   22.4434 N   0  0  0  0  0  0  0  0  0  0  0  0
  -25.3806  -27.2720   20.0460 N   0  0  0  0  0  0  0  0  0  0  0  0
  -32.0702  -23.3506   21.9986 N   0  0  0  0  0  0  0  0  0  0  0  0
  -26.4800  -27.8455   19.5278 N   0  0  0  0  0  0  0  0  0  0  0  0
  -25.0190  -18.4803   19.9123 N   0  0  0  0  0  0  0  0  0  0  0  0
  -29.3744  -25.5025   18.6118 N   0  0  0  0  0  0  0  0  0  0  0  0
  -31.4813  -25.9405   19.6313 N   0  0  0  0  0  0  0  0  0  0  0  0
  -27.6888  -29.8809   19.4463 N   0  0  0  0  0  0  0  0  0  0  0  0
  -24.1621  -30.8686   22.0889 N   0  0  0  0  0  0  0  0  0  0  0  0
  -25.4614  -15.0601   20.8269 N   0  0  0  0  0  0  0  0  0  0  0  0
  -22.9679  -20.4915   18.1216 N   0  0  0  0  0  0  0  0  0  0  0  0
  -22.3654  -23.7644   19.5333 N   0  3  0  0  0  0  0  0  0  0  0  0
  -26.0613  -31.7176   21.1241 O   0  0  0  0  0  0  0  0  0  0  0  0
  -26.7743  -16.5256   19.5814 O   0  0  0  0  0  0  0  0  0  0  0  0
  -22.8749  -17.8562   19.2420 O   0  0  0  0  0  0  0  0  0  0  0  0
  -24.4503  -22.2527   18.4000 O   0  0  0  0  0  0  0  0  0  0  0  0
  -31.3655  -25.2619   17.4733 O   0  0  0  0  0  0  0  0  0  0  0  0
  -20.0676  -27.3868   23.5543 O   0  0  0  0  0  0  0  0  0  0  0  0
  -30.3472  -21.0918   21.5986 O   0  0  0  0  0  0  0  0  0  1  0  0
  -16.1249  -31.2227   23.1744 F   0  0  0  0  0  0  0  0  0  0  0  0
  -17.5736  -26.7615   22.5386 F   0  0  0  0  0  0  0  0  0  0  0  0
  1  2  1  0  0  0  0
  1  5  2  0  0  0  0
  2  6  2  0  0  0  0
  3  8  2  0  0  0  0
  3 17  1  0  0  0  0
  4  9  1  0  0  0  0
  4 17  2  0  0  0  0
  5 19  1  0  0  0  0
  6 21  1  0  0  0  0
  7 10  2  0  0  0  0
  7 20  1  0  0  0  0
  8 23  1  0  0  0  0
  9 23  2  0  0  0  0
 10 24  1  0  0  0  0
 11 12  2  0  0  0  0
 11 25  1  0  0  0  0
 12 26  1  0  0  0  0
 13 16  1  0  0  0  0
 13 29  2  0  0  0  0
 14 22  1  0  0  0  0
 14 24  2  0  0  0  0
 15 26  2  0  0  0  0
 15 27  1  0  0  0  0
 16 61  2  0  0  0  0
 17 28  1  0  0  0  0
 18 28  1  0  0  0  0
 18 30  2  0  0  0  0
 18 32  1  0  0  0  0
 19 21  2  0  0  0  0
 19 37  1  0  0  0  0
 20 22  2  0  0  0  0
 20 38  1  0  0  0  0
 21 48  1  0  0  0  0
 22 39  1  0  0  0  0
 23 78  1  0  0  0  0
 24 79  1  0  0  0  0
 25 27  2  0  0  0  0
 25 78  1  0  0  0  0
 26 80  1  0  0  0  0
 27 81  1  0  0  0  0
 28 62  2  0  0  0  0
 29 49  1  0  0  0  0
 29 63  1  0  0  0  0
 30 64  1  0  0  0  0
 30 68  1  0  0  0  0
 31 57  1  0  0  0  0
 31 61  1  0  0  0  0
 31 63  2  0  0  0  0
 32 69  1  0  0  0  0
 32 73  2  0  0  0  0
 33 50  1  0  0  0  0
 33 70  1  0  0  0  0
 33 74  2  0  0  0  0
 34 58  1  0  0  0  0
 34 65  1  0  0  0  0
 34 75  2  0  0  0  0
 35 59  1  0  0  0  0
 35 71  1  0  0  0  0
 35 76  2  0  0  0  0
 36 66  1  0  0  0  0
 36 67  1  0  0  0  0
 36 77  2  0  0  0  0
 37 40  1  0  0  0  0
 38 50  1  0  0  0  0
 39 65  1  0  0  0  0
 40 42  1  0  0  0  0
 41 43  1  0  0  0  0
 41 44  1  0  0  0  0
 42 48  1  0  0  0  0
 43 51  1  0  0  0  0
 44 66  1  0  0  0  0
 45 49  1  0  0  0  0
 45 67  1  0  0  0  0
 46 49  1  0  0  0  0
 46 67  1  0  0  0  0
 47 51  1  0  0  0  0
 47 66  1  0  0  0  0
 48 70  1  0  0  0  0
 50 65  1  0  0  0  0
 51 64  1  0  0  0  0
 52 59  1  0  0  0  0
 53 60  1  0  0  0  0
 54 60  1  0  0  0  0
 55 60  1  0  0  0  0
 56 72  1  0  0  0  0
 57 79  1  0  0  0  0
 58 60  1  0  0  0  0
 58 71  1  0  0  0  0
 59 72  1  0  0  0  0
 62 64  1  0  0  0  0
M  CHG  1  72   1
M  ISO  4  36 100  57 101  67 100  79 101
M  END
> <Batch ID>
0182

> <Smiles>
CNC(C)C(=O)NC(C(=O)N1Cc2cc([101O:1][101CH2:1]c3nccc(C4C[100N:0]([100C:0](=O)N5CCCC(n6nc(-c7ccc(Oc8ccc(F)cc8F)cc7)c(C(N)=O)c6N)C5)C4)n3)ccc2CC1C(=O)NC1CCCc2ccccc21)C(C)(C)C

> <Shape>
0.214

> <Color>
0.069

> <Negative vol penalty>
0.000

$$$$

  -OEChem-04052323053D

 86 95  0     1  0  0  0  0  0999 V2000
  -21.9244  -24.2514   20.4651 C   0  0  0  0  0  0  0  0  0  0  0  0
  -23.0069  -23.3776   20.4792 C   0  0  0  0  0  0  0  0  0  0  0  0
  -24.0656  -29.3998   22.5381 C   0  0  0  0  0  0  0  0  0  0  0  0
  -25.3587  -30.8676   21.1202 C   0  0  0  0  0  0  0  0  0  0  0  0
  -20.7691  -23.9398   21.1807 C   0  0  0  0  0  0  0  0  0  0  0  0
  -22.9351  -22.1921   21.2099 C   0  0  0  0  0  0  0  0  0  0  0  0
  -24.7012  -18.2091   18.6290 C   0  0  0  0  0  0  0  0  0  0  0  0
  -23.6851  -30.4903   23.3201 C   0  0  0  0  0  0  0  0  0  0  0  0
  -24.9782  -31.9582   21.9022 C   0  0  0  0  0  0  0  0  0  0  0  0
  -26.0857  -18.0664   18.5474 C   0  0  0  0  0  0  0  0  0  0  0  0
  -24.6389  -35.0779   23.7359 C   0  0  0  0  0  0  0  0  0  0  0  0
  -25.6272  -35.9942   24.0954 C   0  0  0  0  0  0  0  0  0  0  0  0
  -26.0143  -16.4230   20.3118 C   0  0  0  0  0  0  0  0  0  0  0  0
  -26.8412  -34.2400   25.2294 C   0  0  0  0  0  0  0  0  0  0  0  0
  -30.9550  -15.0980   20.5359 C   0  0  0  0  0  0  0  0  0  0  0  0
  -24.9025  -29.5884   21.4382 C   0  0  0  0  0  0  0  0  0  0  0  0
  -24.6317  -27.9543   19.4981 C   0  0  0  0  0  0  0  0  0  0  0  0
  -20.6795  -22.7453   21.9127 C   0  0  0  0  0  0  0  0  0  0  0  0
  -23.9630  -17.4665   19.5618 C   0  0  0  0  0  0  0  0  0  0  0  0
  -21.7780  -21.8649   21.9371 C   0  0  0  0  0  0  0  0  0  0  0  0
  -24.6203  -16.5562   20.4016 C   0  0  0  0  0  0  0  0  0  0  0  0
  -24.1414  -31.7695   23.0022 C   0  0  0  0  0  0  0  0  0  0  0  0
  -26.7428  -17.1754   19.3908 C   0  0  0  0  0  0  0  0  0  0  0  0
  -24.7517  -33.7426   24.1232 C   0  0  0  0  0  0  0  0  0  0  0  0
  -26.7283  -35.5753   24.8421 C   0  0  0  0  0  0  0  0  0  0  0  0
  -25.8528  -33.3237   24.8699 C   0  0  0  0  0  0  0  0  0  0  0  0
  -25.2964  -28.4622   20.6303 C   0  0  0  0  0  0  0  0  0  0  0  0
  -30.1783  -16.1110   20.0180 C   0  0  0  0  0  0  0  0  0  0  0  0
  -32.8280  -16.1025   19.6918 C   0  0  0  0  0  0  0  0  0  0  0  0
  -32.0513  -17.1151   19.1733 C   0  0  0  0  0  0  0  0  0  0  0  0
  -25.4014  -26.8900   19.0967 C   0  0  0  0  0  0  0  0  0  0  0  0
  -23.4263  -28.4045   18.8656 C   0  0  0  0  0  0  0  0  0  0  0  0
  -22.1196  -18.1874   22.0490 C   0  0  0  0  0  0  0  0  0  0  0  0
  -21.5421  -14.9954   22.0499 C   0  0  0  0  0  0  0  0  0  0  0  0
  -22.5902  -11.8613   21.1981 C   0  0  0  0  0  0  0  0  0  0  0  0
  -30.4277  -24.8802   17.9484 C   0  0  0  0  0  0  0  0  0  0  0  0
  -19.4276  -22.4741   22.7089 C   0  0  0  0  0  0  0  0  0  0  0  0
  -22.4670  -17.6124   19.6190 C   0  0  0  0  0  0  0  0  0  0  0  0
  -23.8713  -15.7207   21.4062 C   0  0  0  0  0  0  0  0  0  0  0  0
  -19.2920  -21.0203   23.1542 C   0  0  0  0  0  0  0  0  0  0  0  0
  -29.2417  -24.5434   21.4015 C   0  0  0  0  0  0  0  0  0  0  0  0
  -20.6067  -20.5171   23.7419 C   0  0  0  0  0  0  0  0  0  0  0  0
  -28.0590  -25.5132   21.4132 C   0  0  0  0  0  0  0  0  0  0  0  0
  -30.3551  -25.0520   20.4937 C   0  0  0  0  0  0  0  0  0  0  0  0
  -31.7519  -23.0035   16.8339 C   0  0  0  0  0  0  0  0  0  0  0  0
  -31.0897  -22.4909   18.7893 C   0  0  0  0  0  0  0  0  0  0  0  0
  -28.7507  -26.2875   19.0936 C   0  0  0  0  0  0  0  0  0  0  0  0
  -21.7290  -20.5575   22.6977 C   0  0  1  0  0  0  0  0  0  0  0  0
  -21.8756  -17.1832   20.9582 C   0  0  1  0  0  0  0  0  0  0  0  0
  -31.2982  -21.6886   17.4909 C   0  0  0  0  0  0  0  0  0  0  0  0
  -27.5812  -25.8274   19.9835 C   0  0  2  0  0  0  0  0  0  0  0  0
  -35.0488  -16.5226   20.7772 C   0  0  0  0  0  0  0  0  0  0  0  0
  -21.9232   -9.4479   21.3650 C   0  0  0  0  0  0  0  0  0  0  0  0
  -22.3619  -14.9747   24.9889 C   0  0  0  0  0  0  0  0  0  0  0  0
  -22.5948  -12.4867   24.8343 C   0  0  0  0  0  0  0  0  0  0  0  0
  -20.3740  -13.5560   24.4503 C   0  0  0  0  0  0  0  0  0  0  0  0
  -22.4992  -11.5627   18.2550 C   0  0  0  0  0  0  0  0  0  0  0  0
  -34.3080  -16.0894   19.5144 C   0  0  0  0  0  0  0  0  0  0  0  0
  -32.6589  -18.2521   18.4058 C   0  0  0  0  0  0  0  0  0  0  0  0
  -28.7020  -16.1034   20.2084 C   0  0  0  0  0  0  0  0  0  1  0  0
  -32.3204  -20.5709   17.5413 C   0  0  0  0  0  0  0  0  0  0  0  0
  -22.1831  -13.7932   22.7002 C   0  0  1  0  0  0  0  0  0  0  0  0
  -21.8728  -10.7096   20.5174 C   0  0  2  0  0  0  0  0  0  0  0  0
  -21.8931  -13.7197   24.2260 C   0  0  0  0  0  0  0  0  0  0  0  0
  -32.2938  -15.0756   20.3821 N   0  0  0  0  0  0  0  0  0  0  0  0
  -26.4031  -27.7768   20.9292 N   0  0  0  0  0  0  0  0  0  0  0  0
  -30.7126  -17.1377   19.3274 N   0  0  0  0  0  0  0  0  0  0  0  0
  -26.4397  -26.8272   19.9789 N   0  0  0  0  0  0  0  0  0  0  0  0
  -22.4106  -15.9038   21.4283 N   0  0  0  0  0  0  0  0  0  0  0  0
  -29.8489  -25.3167   19.1432 N   0  0  0  0  0  0  0  0  0  0  0  0
  -31.0994  -23.6805   17.9513 N   0  0  0  0  0  0  0  0  0  0  0  0
  -25.2846  -26.0109   18.0789 N   0  0  0  0  0  0  0  0  0  0  0  0
  -22.7611  -29.5127   19.4075 N   0  0  0  0  0  0  0  0  0  0  0  0
  -21.6081  -19.4431   21.7823 N   0  0  0  0  0  0  0  0  0  0  0  0
  -21.7254  -12.6299   21.9482 N   0  0  0  0  0  0  0  0  0  0  0  0
  -22.5008  -10.4151   19.1984 N   0  3  0  0  0  0  0  0  0  0  0  0
  -31.7309  -19.4052   18.2386 N   0  3  0  0  0  0  0  0  0  0  0  0
  -22.9442  -27.8306   17.8597 O   0  0  0  0  0  0  0  0  0  0  0  0
  -22.7257  -17.8478   23.0584 O   0  0  0  0  0  0  0  0  0  0  0  0
  -20.3154  -15.1202   22.0858 O   0  0  0  0  0  0  0  0  0  0  0  0
  -23.7977  -12.0573   21.0794 O   0  0  0  0  0  0  0  0  0  0  0  0
  -30.3220  -25.5271   16.8979 O   0  0  0  0  0  0  0  0  0  0  0  0
  -23.7701  -32.8340   23.7649 O   0  0  0  0  0  0  0  0  0  0  0  0
  -28.1030  -17.0337   19.3131 O   0  0  0  0  0  0  0  0  0  1  0  0
  -27.6781  -36.4550   25.1859 F   0  0  0  0  0  0  0  0  0  0  0  0
  -25.9673  -32.0419   25.2439 F   0  0  0  0  0  0  0  0  0  0  0  0
  1  2  1  0  0  0  0
  1  5  2  0  0  0  0
  2  6  2  0  0  0  0
  3  8  2  0  0  0  0
  3 16  1  0  0  0  0
  4  9  1  0  0  0  0
  4 16  2  0  0  0  0
  5 18  1  0  0  0  0
  6 20  1  0  0  0  0
  7 10  2  0  0  0  0
  7 19  1  0  0  0  0
  8 22  1  0  0  0  0
  9 22  2  0  0  0  0
 10 23  1  0  0  0  0
 11 12  2  0  0  0  0
 11 24  1  0  0  0  0
 12 25  1  0  0  0  0
 13 21  1  0  0  0  0
 13 23  2  0  0  0  0
 14 25  2  0  0  0  0
 14 26  1  0  0  0  0
 15 28  1  0  0  0  0
 15 65  2  0  0  0  0
 16 27  1  0  0  0  0
 17 27  1  0  0  0  0
 17 31  2  0  0  0  0
 17 32  1  0  0  0  0
 18 20  2  0  0  0  0
 18 37  1  0  0  0  0
 19 21  2  0  0  0  0
 19 38  1  0  0  0  0
 20 48  1  0  0  0  0
 21 39  1  0  0  0  0
 22 83  1  0  0  0  0
 23 84  1  0  0  0  0
 24 26  2  0  0  0  0
 24 83  1  0  0  0  0
 25 85  1  0  0  0  0
 26 86  1  0  0  0  0
 27 66  2  0  0  0  0
 28 60  1  0  0  0  0
 28 67  2  0  0  0  0
 29 30  2  0  0  0  0
 29 58  1  0  0  0  0
 29 65  1  0  0  0  0
 30 59  1  0  0  0  0
 30 67  1  0  0  0  0
 31 68  1  0  0  0  0
 31 72  1  0  0  0  0
 32 73  1  0  0  0  0
 32 78  2  0  0  0  0
 33 49  1  0  0  0  0
 33 74  1  0  0  0  0
 33 79  2  0  0  0  0
 34 62  1  0  0  0  0
 34 69  1  0  0  0  0
 34 80  2  0  0  0  0
 35 63  1  0  0  0  0
 35 75  1  0  0  0  0
 35 81  2  0  0  0  0
 36 70  1  0  0  0  0
 36 71  1  0  0  0  0
 36 82  2  0  0  0  0
 37 40  1  0  0  0  0
 38 49  1  0  0  0  0
 39 69  1  0  0  0  0
 40 42  1  0  0  0  0
 41 43  1  0  0  0  0
 41 44  1  0  0  0  0
 42 48  1  0  0  0  0
 43 51  1  0  0  0  0
 44 70  1  0  0  0  0
 45 50  1  0  0  0  0
 45 71  1  0  0  0  0
 46 50  1  0  0  0  0
 46 71  1  0  0  0  0
 47 51  1  0  0  0  0
 47 70  1  0  0  0  0
 48 74  1  0  0  0  0
 49 69  1  0  0  0  0
 50 61  1  0  0  0  0
 51 68  1  0  0  0  0
 52 58  1  0  0  0  0
 53 63  1  0  0  0  0
 54 64  1  0  0  0  0
 55 64  1  0  0  0  0
 56 64  1  0  0  0  0
 57 76  1  0  0  0  0
 59 77  1  0  0  0  0
 60 84  1  0  0  0  0
 61 77  1  0  0  0  0
 62 64  1  0  0  0  0
 62 75  1  0  0  0  0
 63 76  1  0  0  0  0
 66 68  1  0  0  0  0
M  CHG  2  76   1  77   1
M  ISO  4  36 100  60 101  71 100  84 101
M  END
> <Batch ID>
0182

> <Smiles>
CCc1ncc([101CH2:1][101O:1]c2ccc3c(c2)CN(C(=O)C(NC(=O)C(C)NC)C(C)(C)C)C(C(=O)NC2CCCc4ccccc42)C3)nc1CNCC1C[100N:0]([100C:0](=O)N2CCCC(n3nc(-c4ccc(Oc5ccc(F)cc5F)cc4)c(C(N)=O)c3N)C2)C1

> <Shape>
0.226

> <Color>
0.057

> <Negative vol penalty>
0.000

$$$$

  -OEChem-04052323053D

 84 93  0     1  0  0  0  0  0999 V2000
  -28.0139   -9.5903   17.7430 C   0  0  0  0  0  0  0  0  0  0  0  0
  -26.7301  -10.0619   17.9979 C   0  0  0  0  0  0  0  0  0  0  0  0
  -27.9617  -29.3939   19.7118 C   0  0  0  0  0  0  0  0  0  0  0  0
  -27.4011  -27.3990   20.9541 C   0  0  0  0  0  0  0  0  0  0  0  0
  -29.1214  -10.3163   18.1792 C   0  0  0  0  0  0  0  0  0  0  0  0
  -26.5531  -11.2593   18.6902 C   0  0  0  0  0  0  0  0  0  0  0  0
  -22.1206  -15.3945   17.8195 C   0  0  0  0  0  0  0  0  0  0  0  0
  -29.2065  -28.8485   19.3978 C   0  0  0  0  0  0  0  0  0  0  0  0
  -28.6459  -26.8536   20.6401 C   0  0  0  0  0  0  0  0  0  0  0  0
  -20.9174  -15.6336   18.4822 C   0  0  0  0  0  0  0  0  0  0  0  0
  -30.1032  -25.3367   17.9952 C   0  0  0  0  0  0  0  0  0  0  0  0
  -30.1392  -24.0072   17.5748 C   0  0  0  0  0  0  0  0  0  0  0  0
  -21.9940  -17.3355   19.8103 C   0  0  0  0  0  0  0  0  0  0  0  0
  -31.5694  -23.4555   19.4423 C   0  0  0  0  0  0  0  0  0  0  0  0
  -17.9020  -23.0454   18.8281 C   0  0  0  0  0  0  0  0  0  0  0  0
  -27.0590  -28.6692   20.4900 C   0  0  0  0  0  0  0  0  0  0  0  0
  -25.5208  -30.4227   21.5230 C   0  0  0  0  0  0  0  0  0  0  0  0
  -28.9580  -11.5281   18.8688 C   0  0  0  0  0  0  0  0  0  0  0  0
  -23.2740  -16.1178   18.1553 C   0  0  0  0  0  0  0  0  0  0  0  0
  -27.6594  -12.0015   19.1372 C   0  0  0  0  0  0  0  0  0  0  0  0
  -23.2099  -17.1055   19.1486 C   0  0  0  0  0  0  0  0  0  0  0  0
  -18.0035  -23.8819   19.9279 C   0  0  0  0  0  0  0  0  0  0  0  0
  -29.5486  -27.5784   19.8619 C   0  0  0  0  0  0  0  0  0  0  0  0
  -20.8547  -16.6021   19.4797 C   0  0  0  0  0  0  0  0  0  0  0  0
  -30.8004  -25.7257   19.1390 C   0  0  0  0  0  0  0  0  0  0  0  0
  -30.8722  -23.0666   18.2984 C   0  0  0  0  0  0  0  0  0  0  0  0
  -31.5334  -24.7851   19.8626 C   0  0  0  0  0  0  0  0  0  0  0  0
  -25.7731  -29.2322   20.8152 C   0  0  0  0  0  0  0  0  0  0  0  0
  -17.6428  -23.3182   21.1489 C   0  0  0  0  0  0  0  0  0  0  0  0
  -24.1510  -30.5131   21.5655 C   0  0  0  0  0  0  0  0  0  0  0  0
  -17.1951  -21.3238   20.1287 C   0  0  0  0  0  0  0  0  0  0  0  0
  -26.4423  -31.3628   22.0911 C   0  0  0  0  0  0  0  0  0  0  0  0
  -26.1370  -15.3637   19.3123 C   0  0  0  0  0  0  0  0  0  0  0  0
  -26.7504  -18.5032   18.7742 C   0  0  0  0  0  0  0  0  0  0  0  0
  -25.5341  -21.6690   18.3934 C   0  0  0  0  0  0  0  0  0  0  0  0
  -19.8853  -26.5877   21.4422 C   0  0  0  0  0  0  0  0  0  0  0  0
  -30.1847  -12.2538   19.3620 C   0  0  0  0  0  0  0  0  0  0  0  0
  -24.5577  -15.8666   17.4126 C   0  0  0  0  0  0  0  0  0  0  0  0
  -24.4149  -17.9235   19.5325 C   0  0  0  0  0  0  0  0  0  0  0  0
  -18.4321  -25.3158   19.7884 C   0  0  0  0  0  0  0  0  0  0  0  0
  -17.7321  -24.1273   22.4160 C   0  0  0  0  0  0  0  0  0  0  0  0
  -29.9160  -13.7025   19.7610 C   0  0  0  0  0  0  0  0  0  0  0  0
  -20.2298  -29.2525   19.1467 C   0  0  0  0  0  0  0  0  0  0  0  0
  -28.6643  -13.7941   20.6280 C   0  0  0  0  0  0  0  0  0  0  0  0
  -21.6826  -29.6648   19.3782 C   0  0  0  0  0  0  0  0  0  0  0  0
  -17.7112  -25.6262   22.1326 C   0  0  0  0  0  0  0  0  0  0  0  0
  -20.0498  -27.7338   19.1840 C   0  0  0  0  0  0  0  0  0  0  0  0
  -22.0383  -27.5102   20.6396 C   0  0  0  0  0  0  0  0  0  0  0  0
  -27.4269  -13.3086   19.8634 C   0  0  1  0  0  0  0  0  0  0  0  0
  -25.7942  -16.3041   18.1917 C   0  0  1  0  0  0  0  0  0  0  0  0
  -22.2349  -29.0335   20.6679 C   0  0  1  0  0  0  0  0  0  0  0  0
  -26.2812  -24.0327   18.0030 C   0  0  0  0  0  0  0  0  0  0  0  0
  -27.6459  -18.6983   21.6845 C   0  0  0  0  0  0  0  0  0  0  0  0
  -27.4656  -21.1887   21.5002 C   0  0  0  0  0  0  0  0  0  0  0  0
  -29.0844  -19.9475   20.0644 C   0  0  0  0  0  0  0  0  0  0  0  0
  -24.0360  -21.8447   15.8471 C   0  0  0  0  0  0  0  0  0  0  0  0
  -16.7537  -19.9042   20.2432 C   0  0  0  0  0  0  0  0  0  0  0  0
  -17.3761  -17.5051   19.9346 C   0  0  0  0  0  0  0  0  0  0  0  0
  -18.4779  -16.6126   19.3982 C   0  0  0  0  0  0  0  0  0  1  0  0
  -26.6095  -19.7732   19.5781 C   0  0  1  0  0  0  0  0  0  0  0  0
  -25.8165  -22.7384   17.3536 C   0  0  2  0  0  0  0  0  0  0  0  0
  -27.6789  -19.8853   20.7011 C   0  0  0  0  0  0  0  0  0  0  0  0
  -17.5028  -21.7591   18.8940 N   0  0  0  0  0  0  0  0  0  0  0  0
  -24.6534  -28.6108   20.4356 N   0  0  0  0  0  0  0  0  0  0  0  0
  -17.2434  -22.0315   21.2732 N   0  0  0  0  0  0  0  0  0  0  0  0
  -23.6842  -29.4139   20.9066 N   0  0  0  0  0  0  0  0  0  0  0  0
  -25.6484  -17.6363   18.7818 N   0  0  0  0  0  0  0  0  0  0  0  0
  -18.6823  -25.9571   21.0896 N   0  0  0  0  0  0  0  0  0  0  0  0
  -20.6335  -27.1666   20.4070 N   0  0  0  0  0  0  0  0  0  0  0  0
  -23.3122  -31.4248   22.1020 N   0  0  0  0  0  0  0  0  0  0  0  0
  -26.8631  -31.1699   23.4140 N   0  0  0  0  0  0  0  0  0  0  0  0
  -26.9712  -14.3265   18.9411 N   0  0  0  0  0  0  0  0  0  0  0  0
  -26.6354  -20.8700   18.6166 N   0  0  0  0  0  0  0  0  0  0  0  0
  -24.5888  -23.0255   16.5592 N   0  3  0  0  0  0  0  0  0  0  0  0
  -17.7758  -18.9275   19.7753 N   0  3  0  0  0  0  0  0  0  0  0  0
  -26.8670  -32.3539   21.4502 O   0  0  0  0  0  0  0  0  0  0  0  0
  -25.6798  -15.5651   20.4313 O   0  0  0  0  0  0  0  0  0  0  0  0
  -27.7968  -18.2917   18.1562 O   0  0  0  0  0  0  0  0  0  0  0  0
  -24.4464  -21.5563   18.9545 O   0  0  0  0  0  0  0  0  0  0  0  0
  -20.2751  -26.6222   22.6164 O   0  0  0  0  0  0  0  0  0  0  0  0
  -30.7631  -27.0458   19.5555 O   0  0  0  0  0  0  0  0  0  0  0  0
  -19.6734  -16.8387   20.1332 O   0  0  0  0  0  0  0  0  0  1  0  0
  -30.9054  -21.7896   17.8955 F   0  0  0  0  0  0  0  0  0  0  0  0
  -32.2043  -25.1525   20.9629 F   0  0  0  0  0  0  0  0  0  0  0  0
  1  2  1  0  0  0  0
  1  5  2  0  0  0  0
  2  6  2  0  0  0  0
  3  8  2  0  0  0  0
  3 16  1  0  0  0  0
  4  9  1  0  0  0  0
  4 16  2  0  0  0  0
  5 18  1  0  0  0  0
  6 20  1  0  0  0  0
  7 10  2  0  0  0  0
  7 19  1  0  0  0  0
  8 23  1  0  0  0  0
  9 23  2  0  0  0  0
 10 24  1  0  0  0  0
 11 12  2  0  0  0  0
 11 25  1  0  0  0  0
 12 26  1  0  0  0  0
 13 21  1  0  0  0  0
 13 24  2  0  0  0  0
 14 26  2  0  0  0  0
 14 27  1  0  0  0  0
 15 22  1  0  0  0  0
 15 63  2  0  0  0  0
 16 28  1  0  0  0  0
 17 28  1  0  0  0  0
 17 30  2  0  0  0  0
 17 32  1  0  0  0  0
 18 20  2  0  0  0  0
 18 37  1  0  0  0  0
 19 21  2  0  0  0  0
 19 38  1  0  0  0  0
 20 49  1  0  0  0  0
 21 39  1  0  0  0  0
 22 29  2  0  0  0  0
 22 40  1  0  0  0  0
 23 81  1  0  0  0  0
 24 82  1  0  0  0  0
 25 27  2  0  0  0  0
 25 81  1  0  0  0  0
 26 83  1  0  0  0  0
 27 84  1  0  0  0  0
 28 64  2  0  0  0  0
 29 41  1  0  0  0  0
 29 65  1  0  0  0  0
 30 66  1  0  0  0  0
 30 70  1  0  0  0  0
 31 57  1  0  0  0  0
 31 63  1  0  0  0  0
 31 65  2  0  0  0  0
 32 71  1  0  0  0  0
 32 76  2  0  0  0  0
 33 50  1  0  0  0  0
 33 72  1  0  0  0  0
 33 77  2  0  0  0  0
 34 60  1  0  0  0  0
 34 67  1  0  0  0  0
 34 78  2  0  0  0  0
 35 61  1  0  0  0  0
 35 73  1  0  0  0  0
 35 79  2  0  0  0  0
 36 68  1  0  0  0  0
 36 69  1  0  0  0  0
 36 80  2  0  0  0  0
 37 42  1  0  0  0  0
 38 50  1  0  0  0  0
 39 67  1  0  0  0  0
 40 68  1  0  0  0  0
 41 46  1  0  0  0  0
 42 44  1  0  0  0  0
 43 45  1  0  0  0  0
 43 47  1  0  0  0  0
 44 49  1  0  0  0  0
 45 51  1  0  0  0  0
 46 68  1  0  0  0  0
 47 69  1  0  0  0  0
 48 51  1  0  0  0  0
 48 69  1  0  0  0  0
 49 72  1  0  0  0  0
 50 67  1  0  0  0  0
 51 66  1  0  0  0  0
 52 61  1  0  0  0  0
 53 62  1  0  0  0  0
 54 62  1  0  0  0  0
 55 62  1  0  0  0  0
 56 74  1  0  0  0  0
 57 75  1  0  0  0  0
 58 59  1  0  0  0  0
 58 75  1  0  0  0  0
 59 82  1  0  0  0  0
 60 62  1  0  0  0  0
 60 73  1  0  0  0  0
 61 74  1  0  0  0  0
 64 66  1  0  0  0  0
M  CHG  2  74   1  75   1
M  ISO  4  36 100  59 101  68 100  82 101
M  END
> <Batch ID>
0182

> <Smiles>
CNC(C)C(=O)NC(C(=O)N1Cc2cc([101O:1][101CH2:1]CNCc3ncc4c(n3)CC[100N:0]([100C:0](=O)N3CCCC(n5nc(-c6ccc(Oc7ccc(F)cc7F)cc6)c(C(N)=O)c5N)C3)C4)ccc2CC1C(=O)NC1CCCc2ccccc21)C(C)(C)C

> <Shape>
0.238

> <Color>
0.048

> <Negative vol penalty>
0.000

$$$$

  -OEChem-04052323053D

 81 90  0     1  0  0  0  0  0999 V2000
  -27.6501  -10.0309   22.2268 C   0  0  0  0  0  0  0  0  0  0  0  0
  -28.3336  -11.2060   21.9311 C   0  0  0  0  0  0  0  0  0  0  0  0
  -19.7464  -28.7813   22.3322 C   0  0  0  0  0  0  0  0  0  0  0  0
  -20.4130  -26.5431   22.9513 C   0  0  0  0  0  0  0  0  0  0  0  0
  -26.2976   -9.9138   21.9093 C   0  0  0  0  0  0  0  0  0  0  0  0
  -27.6651  -12.2643   21.3166 C   0  0  0  0  0  0  0  0  0  0  0  0
  -28.6261  -18.2452   22.2173 C   0  0  0  0  0  0  0  0  0  0  0  0
  -18.4213  -28.3582   22.2290 C   0  0  0  0  0  0  0  0  0  0  0  0
  -19.0878  -26.1199   22.8482 C   0  0  0  0  0  0  0  0  0  0  0  0
  -29.3544  -19.1961   21.5038 C   0  0  0  0  0  0  0  0  0  0  0  0
  -16.9254  -25.2785   20.3892 C   0  0  0  0  0  0  0  0  0  0  0  0
  -16.6782  -24.0788   19.7218 C   0  0  0  0  0  0  0  0  0  0  0  0
  -27.3392  -19.8767   20.3659 C   0  0  0  0  0  0  0  0  0  0  0  0
  -15.6873  -23.1671   21.7278 C   0  0  0  0  0  0  0  0  0  0  0  0
  -32.4840  -24.0429   17.7988 C   0  0  0  0  0  0  0  0  0  0  0  0
  -32.4104  -21.8373   18.3982 C   0  0  0  0  0  0  0  0  0  0  0  0
  -20.7423  -27.8737   22.6932 C   0  0  0  0  0  0  0  0  0  0  0  0
  -22.7554  -28.8181   23.9434 C   0  0  0  0  0  0  0  0  0  0  0  0
  -25.6098  -10.9747   21.2994 C   0  0  0  0  0  0  0  0  0  0  0  0
  -27.2486  -18.0952   22.0023 C   0  0  0  0  0  0  0  0  0  0  0  0
  -26.3024  -12.1607   20.9894 C   0  0  0  0  0  0  0  0  0  0  0  0
  -26.5952  -18.9250   21.0799 C   0  0  0  0  0  0  0  0  0  0  0  0
  -18.0920  -27.0275   22.4871 C   0  0  0  0  0  0  0  0  0  0  0  0
  -28.7115  -20.0101   20.5758 C   0  0  0  0  0  0  0  0  0  0  0  0
  -16.5536  -25.4224   21.7259 C   0  0  0  0  0  0  0  0  0  0  0  0
  -16.0592  -23.0232   20.3911 C   0  0  0  0  0  0  0  0  0  0  0  0
  -15.9346  -24.3668   22.3952 C   0  0  0  0  0  0  0  0  0  0  0  0
  -22.1114  -28.3101   22.7993 C   0  0  0  0  0  0  0  0  0  0  0  0
  -31.4852  -24.3226   18.7053 C   0  0  0  0  0  0  0  0  0  0  0  0
  -31.4122  -22.1170   19.3053 C   0  0  0  0  0  0  0  0  0  0  0  0
  -24.0369  -29.0835   23.5266 C   0  0  0  0  0  0  0  0  0  0  0  0
  -22.2413  -29.0310   25.2648 C   0  0  0  0  0  0  0  0  0  0  0  0
  -25.3835  -15.7396   20.9649 C   0  0  0  0  0  0  0  0  0  0  0  0
  -23.0047  -17.7965   21.7604 C   0  0  0  0  0  0  0  0  0  0  0  0
  -22.0198  -21.0202   22.2934 C   0  0  0  0  0  0  0  0  0  0  0  0
  -28.5689  -27.4039   20.8989 C   0  0  0  0  0  0  0  0  0  0  0  0
  -24.1595  -10.7839   20.9321 C   0  0  0  0  0  0  0  0  0  0  0  0
  -26.4724  -17.0830   22.7994 C   0  0  0  0  0  0  0  0  0  0  0  0
  -25.1144  -18.8177   20.8267 C   0  0  0  0  0  0  0  0  0  0  0  0
  -23.4327  -12.0901   20.6221 C   0  0  0  0  0  0  0  0  0  0  0  0
  -26.0601  -29.2222   18.9203 C   0  0  0  0  0  0  0  0  0  0  0  0
  -24.2719  -12.9601   19.6917 C   0  0  0  0  0  0  0  0  0  0  0  0
  -24.8399  -29.1179   19.8284 C   0  0  0  0  0  0  0  0  0  0  0  0
  -26.9664  -27.9947   19.0168 C   0  0  0  0  0  0  0  0  0  0  0  0
  -29.3489  -25.9621   18.8835 C   0  0  0  0  0  0  0  0  0  0  0  0
  -30.8086  -26.3223   20.3848 C   0  0  0  0  0  0  0  0  0  0  0  0
  -26.1399  -27.5628   21.3219 C   0  0  0  0  0  0  0  0  0  0  0  0
  -25.6059  -13.3400   20.3457 C   0  0  1  0  0  0  0  0  0  0  0  0
  -30.8822  -25.7694   18.9464 C   0  0  0  0  0  0  0  0  0  0  0  0
  -25.1676  -16.6666   22.1276 C   0  0  1  0  0  0  0  0  0  0  0  0
  -25.2714  -28.8271   21.2731 C   0  0  2  0  0  0  0  0  0  0  0  0
  -20.0054  -22.3908   22.8945 C   0  0  0  0  0  0  0  0  0  0  0  0
  -21.9233  -17.4442   18.9291 C   0  0  0  0  0  0  0  0  0  0  0  0
  -20.5336  -19.4971   19.2793 C   0  0  0  0  0  0  0  0  0  0  0  0
  -20.1740  -17.4896   20.7158 C   0  0  0  0  0  0  0  0  0  0  0  0
  -23.3071  -22.0453   24.7533 C   0  0  0  0  0  0  0  0  0  0  0  0
  -30.8190  -21.0247   20.1457 C   0  0  0  0  0  0  0  0  0  1  0  0
  -22.2530  -18.8909   21.0420 C   0  0  1  0  0  0  0  0  0  0  0  0
  -21.2297  -21.6587   23.4215 C   0  0  2  0  0  0  0  0  0  0  0  0
  -21.2492  -18.3314   19.9947 C   0  0  0  0  0  0  0  0  0  0  0  0
  -32.9645  -22.7952   17.6289 N   0  0  0  0  0  0  0  0  0  0  0  0
  -22.9172  -28.2552   21.7356 N   0  0  0  0  0  0  0  0  0  0  0  0
  -30.9314  -23.3647   19.4749 N   0  0  0  0  0  0  0  0  0  0  0  0
  -24.0808  -28.7324   22.2094 N   0  0  0  0  0  0  0  0  0  0  0  0
  -24.4003  -17.8086   21.6263 N   0  0  0  0  0  0  0  0  0  0  0  0
  -27.2824  -27.6464   20.4059 N   0  0  0  0  0  0  0  0  0  0  0  0
  -29.4896  -26.8430   20.0366 N   0  0  0  0  0  0  0  0  0  0  0  0
  -25.1193  -29.5808   24.1619 N   0  0  0  0  0  0  0  0  0  0  0  0
  -20.9028  -28.7042   25.5216 N   0  0  0  0  0  0  0  0  0  0  0  0
  -25.4119  -14.4017   21.3098 N   0  0  0  0  0  0  0  0  0  0  0  0
  -21.6384  -19.7126   22.0791 N   0  0  0  0  0  0  0  0  0  0  0  0
  -22.0790  -22.6349   24.1609 N   0  3  0  0  0  0  0  0  0  0  0  0
  -22.9433  -29.5125   26.1861 O   0  0  0  0  0  0  0  0  0  0  0  0
  -25.5132  -16.2036   19.8382 O   0  0  0  0  0  0  0  0  0  0  0  0
  -22.3774  -16.9658   22.4222 O   0  0  0  0  0  0  0  0  0  0  0  0
  -22.8858  -21.6225   21.6627 O   0  0  0  0  0  0  0  0  0  0  0  0
  -28.8792  -27.6457   22.0723 O   0  0  0  0  0  0  0  0  0  0  0  0
  -16.7990  -26.6143   22.3868 O   0  0  0  0  0  0  0  0  0  0  0  0
  -29.4201  -20.9386   19.8775 O   0  0  0  0  0  0  0  0  0  1  0  0
  -15.8204  -21.8717   19.7497 F   0  0  0  0  0  0  0  0  0  0  0  0
  -15.5740  -24.4996   23.6790 F   0  0  0  0  0  0  0  0  0  0  0  0
  1  2  1  0  0  0  0
  1  5  2  0  0  0  0
  2  6  2  0  0  0  0
  3  8  2  0  0  0  0
  3 17  1  0  0  0  0
  4  9  1  0  0  0  0
  4 17  2  0  0  0  0
  5 19  1  0  0  0  0
  6 21  1  0  0  0  0
  7 10  2  0  0  0  0
  7 20  1  0  0  0  0
  8 23  1  0  0  0  0
  9 23  2  0  0  0  0
 10 24  1  0  0  0  0
 11 12  2  0  0  0  0
 11 25  1  0  0  0  0
 12 26  1  0  0  0  0
 13 22  1  0  0  0  0
 13 24  2  0  0  0  0
 14 26  2  0  0  0  0
 14 27  1  0  0  0  0
 15 29  2  0  0  0  0
 15 61  1  0  0  0  0
 16 30  1  0  0  0  0
 16 61  2  0  0  0  0
 17 28  1  0  0  0  0
 18 28  1  0  0  0  0
 18 31  2  0  0  0  0
 18 32  1  0  0  0  0
 19 21  2  0  0  0  0
 19 37  1  0  0  0  0
 20 22  2  0  0  0  0
 20 38  1  0  0  0  0
 21 48  1  0  0  0  0
 22 39  1  0  0  0  0
 23 78  1  0  0  0  0
 24 79  1  0  0  0  0
 25 27  2  0  0  0  0
 25 78  1  0  0  0  0
 26 80  1  0  0  0  0
 27 81  1  0  0  0  0
 28 62  2  0  0  0  0
 29 49  1  0  0  0  0
 29 63  1  0  0  0  0
 30 57  1  0  0  0  0
 30 63  2  0  0  0  0
 31 64  1  0  0  0  0
 31 68  1  0  0  0  0
 32 69  1  0  0  0  0
 32 73  2  0  0  0  0
 33 50  1  0  0  0  0
 33 70  1  0  0  0  0
 33 74  2  0  0  0  0
 34 58  1  0  0  0  0
 34 65  1  0  0  0  0
 34 75  2  0  0  0  0
 35 59  1  0  0  0  0
 35 71  1  0  0  0  0
 35 76  2  0  0  0  0
 36 66  1  0  0  0  0
 36 67  1  0  0  0  0
 36 77  2  0  0  0  0
 37 40  1  0  0  0  0
 38 50  1  0  0  0  0
 39 65  1  0  0  0  0
 40 42  1  0  0  0  0
 41 43  1  0  0  0  0
 41 44  1  0  0  0  0
 42 48  1  0  0  0  0
 43 51  1  0  0  0  0
 44 66  1  0  0  0  0
 45 49  1  0  0  0  0
 45 67  1  0  0  0  0
 46 49  1  0  0  0  0
 46 67  1  0  0  0  0
 47 51  1  0  0  0  0
 47 66  1  0  0  0  0
 48 70  1  0  0  0  0
 50 65  1  0  0  0  0
 51 64  1  0  0  0  0
 52 59  1  0  0  0  0
 53 60  1  0  0  0  0
 54 60  1  0  0  0  0
 55 60  1  0  0  0  0
 56 72  1  0  0  0  0
 57 79  1  0  0  0  0
 58 60  1  0  0  0  0
 58 71  1  0  0  0  0
 59 72  1  0  0  0  0
 62 64  1  0  0  0  0
M  CHG  1  72   1
M  ISO  4  36 100  57 101  67 100  79 101
M  END
> <Batch ID>
0182

> <Smiles>
CNC(C)C(=O)NC(C(=O)N1Cc2cc([101O:1][101CH2:1]c3cncc(C4C[100N:0]([100C:0](=O)N5CCCC(n6nc(-c7ccc(Oc8ccc(F)cc8F)cc7)c(C(N)=O)c6N)C5)C4)n3)ccc2CC1C(=O)NC1CCCc2ccccc21)C(C)(C)C

> <Shape>
0.215

> <Color>
0.075

> <Negative vol penalty>
0.000

$$$$

  -OEChem-04052323053D

 85 94  0     1  0  0  0  0  0999 V2000
  -25.6448  -28.3909   11.0452 C   0  0  0  0  0  0  0  0  0  0  0  0
  -26.0988  -27.6910   12.1584 C   0  0  0  0  0  0  0  0  0  0  0  0
  -23.0920   -9.8780   19.9673 C   0  0  0  0  0  0  0  0  0  0  0  0
  -23.8433   -9.9243   22.2630 C   0  0  0  0  0  0  0  0  0  0  0  0
  -25.2505  -29.7221   11.1733 C   0  0  0  0  0  0  0  0  0  0  0  0
  -26.1598  -28.3222   13.4003 C   0  0  0  0  0  0  0  0  0  0  0  0
  -24.3359  -25.4342   17.1390 C   0  0  0  0  0  0  0  0  0  0  0  0
  -22.3591   -8.7208   20.2304 C   0  0  0  0  0  0  0  0  0  0  0  0
  -23.1104   -8.7670   22.5262 C   0  0  0  0  0  0  0  0  0  0  0  0
  -25.1625  -24.4206   17.6217 C   0  0  0  0  0  0  0  0  0  0  0  0
  -19.8885   -7.9441   23.1282 C   0  0  0  0  0  0  0  0  0  0  0  0
  -19.1277   -7.9124   24.2968 C   0  0  0  0  0  0  0  0  0  0  0  0
  -28.5031  -20.4786   21.6298 C   0  0  0  0  0  0  0  0  0  0  0  0
  -25.7693  -25.8153   19.4941 C   0  0  0  0  0  0  0  0  0  0  0  0
  -20.3863   -5.9982   25.0642 C   0  0  0  0  0  0  0  0  0  0  0  0
  -23.8341  -10.4798   20.9836 C   0  0  0  0  0  0  0  0  0  0  0  0
  -24.1503  -13.0065   20.8301 C   0  0  0  0  0  0  0  0  0  0  0  0
  -25.2976  -30.3671   12.4192 C   0  0  0  0  0  0  0  0  0  0  0  0
  -24.2281  -26.6522   17.8256 C   0  0  0  0  0  0  0  0  0  0  0  0
  -25.7671  -29.6636   13.5449 C   0  0  0  0  0  0  0  0  0  0  0  0
  -29.8710  -20.5857   21.4047 C   0  0  0  0  0  0  0  0  0  0  0  0
  -24.9387  -26.8418   19.0194 C   0  0  0  0  0  0  0  0  0  0  0  0
  -27.6695  -21.5515   21.3344 C   0  0  0  0  0  0  0  0  0  0  0  0
  -22.3683   -8.1653   21.5098 C   0  0  0  0  0  0  0  0  0  0  0  0
  -25.8816  -24.6121   18.7979 C   0  0  0  0  0  0  0  0  0  0  0  0
  -20.8981   -7.0028   22.9274 C   0  0  0  0  0  0  0  0  0  0  0  0
  -19.3766   -6.9395   25.2648 C   0  0  0  0  0  0  0  0  0  0  0  0
  -21.1470   -6.0299   23.8955 C   0  0  0  0  0  0  0  0  0  0  0  0
  -24.5918  -11.6749   20.7122 C   0  0  0  0  0  0  0  0  0  0  0  0
  -30.3517  -21.7776   20.8868 C   0  0  0  0  0  0  0  0  0  0  0  0
  -28.2487  -22.7002   20.8199 C   0  0  0  0  0  0  0  0  0  0  0  0
  -25.2360  -13.7622   20.4604 C   0  0  0  0  0  0  0  0  0  0  0  0
  -22.8731  -13.5148   21.2374 C   0  0  0  0  0  0  0  0  0  0  0  0
  -24.8909  -29.6831   17.1345 C   0  0  0  0  0  0  0  0  0  0  0  0
  -23.4808  -30.2383   20.0025 C   0  0  0  0  0  0  0  0  0  0  0  0
  -22.6065  -29.0493   23.0796 C   0  0  0  0  0  0  0  0  0  0  0  0
  -30.7082  -14.8405   20.6542 C   0  0  0  0  0  0  0  0  0  0  0  0
  -24.9056  -31.8212   12.4992 C   0  0  0  0  0  0  0  0  0  0  0  0
  -23.3115  -27.7256   17.3060 C   0  0  0  0  0  0  0  0  0  0  0  0
  -24.8420  -28.1233   19.8049 C   0  0  0  0  0  0  0  0  0  0  0  0
  -24.6467  -32.3048   13.9238 C   0  0  0  0  0  0  0  0  0  0  0  0
  -29.6041  -12.4119   18.2964 C   0  0  0  0  0  0  0  0  0  0  0  0
  -30.7691  -18.9860   23.2047 C   0  0  0  0  0  0  0  0  0  0  0  0
  -25.7592  -31.8373   14.8568 C   0  0  0  0  0  0  0  0  0  0  0  0
  -28.1681  -12.1092   18.7282 C   0  0  0  0  0  0  0  0  0  0  0  0
  -30.2789  -17.5405   23.2082 C   0  0  0  0  0  0  0  0  0  0  0  0
  -30.4353  -18.1592   20.9127 C   0  0  0  0  0  0  0  0  0  0  0  0
  -30.5145  -12.6586   19.4973 C   0  0  0  0  0  0  0  0  0  0  0  0
  -28.6002  -13.3888   20.8670 C   0  0  0  0  0  0  0  0  0  0  0  0
  -30.7831  -19.4224   21.7237 C   0  0  1  0  0  0  0  0  0  0  0  0
  -25.8243  -30.3063   14.9138 C   0  0  1  0  0  0  0  0  0  0  0  0
  -23.6748  -29.1181   17.8123 C   0  0  1  0  0  0  0  0  0  0  0  0
  -27.6322  -13.1881   19.6885 C   0  0  2  0  0  0  0  0  0  0  0  0
  -30.7474  -17.0083   21.8617 C   0  0  2  0  0  0  0  0  0  0  0  0
  -26.2031  -21.4433   21.5736 C   0  0  0  0  0  0  0  0  0  0  0  0
  -31.8121  -21.9508   20.6253 C   0  0  0  0  0  0  0  0  0  0  0  0
  -21.4973  -29.7484   25.2194 C   0  0  0  0  0  0  0  0  0  0  0  0
  -25.9916  -31.7788   20.7978 C   0  0  0  0  0  0  0  0  0  0  0  0
  -25.2458  -31.6256   23.1829 C   0  0  0  0  0  0  0  0  0  0  0  0
  -23.8445  -32.8416   21.5155 C   0  0  0  0  0  0  0  0  0  0  0  0
  -20.4784  -27.0149   22.7768 C   0  0  0  0  0  0  0  0  0  0  0  0
  -27.3974  -23.8885   20.4816 C   0  0  0  0  0  0  0  0  0  1  0  0
  -23.9598  -30.3174   21.4319 C   0  0  1  0  0  0  0  0  0  0  0  0
  -21.3006  -29.1147   23.8510 C   0  0  2  0  0  0  0  0  0  0  0  0
  -24.7640  -31.6173   21.7164 C   0  0  0  0  0  0  0  0  0  0  0  0
  -25.8591  -11.5865   20.2998 N   0  0  0  0  0  0  0  0  0  0  0  0
  -29.5730  -22.8414   20.5876 N   0  0  0  0  0  0  0  0  0  0  0  0
  -26.2232  -12.8720   20.1552 N   0  0  0  0  0  0  0  0  0  0  0  0
  -23.9374  -29.1452   19.2526 N   0  0  0  0  0  0  0  0  0  0  0  0
  -29.9501  -13.6934   20.3672 N   0  0  0  0  0  0  0  0  0  0  0  0
  -25.4330  -15.0946   20.3699 N   0  0  0  0  0  0  0  0  0  0  0  0
  -21.8693  -12.5999   21.5835 N   0  0  0  0  0  0  0  0  0  0  0  0
  -24.7727  -29.7869   15.7616 N   0  0  0  0  0  0  0  0  0  0  0  0
  -22.7764  -30.1516   22.2688 N   0  0  0  0  0  0  0  0  0  0  0  0
  -30.0964  -15.7745   21.4813 N   0  0  0  0  0  0  0  0  0  0  0  0
  -20.7433  -27.7459   24.0427 N   0  3  0  0  0  0  0  0  0  0  0  0
  -22.6239  -14.7435   21.2770 O   0  0  0  0  0  0  0  0  0  0  0  0
  -25.8640  -30.0027   17.8074 O   0  0  0  0  0  0  0  0  0  0  0  0
  -22.7234  -31.1104   19.5695 O   0  0  0  0  0  0  0  0  0  0  0  0
  -23.3984  -28.1158   23.1885 O   0  0  0  0  0  0  0  0  0  0  0  0
  -31.8440  -15.0215   20.2022 O   0  0  0  0  0  0  0  0  0  0  0  0
  -21.6531   -7.0362   21.7670 O   0  0  0  0  0  0  0  0  0  0  0  0
  -26.6897  -23.6245   19.2709 O   0  0  0  0  0  0  0  0  0  1  0  0
  -18.6469   -6.9100   26.3877 F   0  0  0  0  0  0  0  0  0  0  0  0
  -22.1165   -5.1237   23.7088 F   0  0  0  0  0  0  0  0  0  0  0  0
  1  2  1  0  0  0  0
  1  5  2  0  0  0  0
  2  6  2  0  0  0  0
  3  8  2  0  0  0  0
  3 16  1  0  0  0  0
  4  9  1  0  0  0  0
  4 16  2  0  0  0  0
  5 18  1  0  0  0  0
  6 20  1  0  0  0  0
  7 10  2  0  0  0  0
  7 19  1  0  0  0  0
  8 24  1  0  0  0  0
  9 24  2  0  0  0  0
 10 25  1  0  0  0  0
 11 12  2  0  0  0  0
 11 26  1  0  0  0  0
 12 27  1  0  0  0  0
 13 21  2  0  0  0  0
 13 23  1  0  0  0  0
 14 22  1  0  0  0  0
 14 25  2  0  0  0  0
 15 27  2  0  0  0  0
 15 28  1  0  0  0  0
 16 29  1  0  0  0  0
 17 29  1  0  0  0  0
 17 32  2  0  0  0  0
 17 33  1  0  0  0  0
 18 20  2  0  0  0  0
 18 38  1  0  0  0  0
 19 22  2  0  0  0  0
 19 39  1  0  0  0  0
 20 51  1  0  0  0  0
 21 30  1  0  0  0  0
 21 50  1  0  0  0  0
 22 40  1  0  0  0  0
 23 31  2  0  0  0  0
 23 55  1  0  0  0  0
 24 82  1  0  0  0  0
 25 83  1  0  0  0  0
 26 28  2  0  0  0  0
 26 82  1  0  0  0  0
 27 84  1  0  0  0  0
 28 85  1  0  0  0  0
 29 66  2  0  0  0  0
 30 56  1  0  0  0  0
 30 67  2  0  0  0  0
 31 62  1  0  0  0  0
 31 67  1  0  0  0  0
 32 68  1  0  0  0  0
 32 71  1  0  0  0  0
 33 72  1  0  0  0  0
 33 77  2  0  0  0  0
 34 52  1  0  0  0  0
 34 73  1  0  0  0  0
 34 78  2  0  0  0  0
 35 63  1  0  0  0  0
 35 69  1  0  0  0  0
 35 79  2  0  0  0  0
 36 64  1  0  0  0  0
 36 74  1  0  0  0  0
 36 80  2  0  0  0  0
 37 70  1  0  0  0  0
 37 75  1  0  0  0  0
 37 81  2  0  0  0  0
 38 41  1  0  0  0  0
 39 52  1  0  0  0  0
 40 69  1  0  0  0  0
 41 44  1  0  0  0  0
 42 45  1  0  0  0  0
 42 48  1  0  0  0  0
 43 46  1  0  0  0  0
 43 50  1  0  0  0  0
 44 51  1  0  0  0  0
 45 53  1  0  0  0  0
 46 54  1  0  0  0  0
 47 50  1  0  0  0  0
 47 54  1  0  0  0  0
 48 70  1  0  0  0  0
 49 53  1  0  0  0  0
 49 70  1  0  0  0  0
 51 73  1  0  0  0  0
 52 69  1  0  0  0  0
 53 68  1  0  0  0  0
 54 75  1  0  0  0  0
 57 64  1  0  0  0  0
 58 65  1  0  0  0  0
 59 65  1  0  0  0  0
 60 65  1  0  0  0  0
 61 76  1  0  0  0  0
 62 83  1  0  0  0  0
 63 65  1  0  0  0  0
 63 74  1  0  0  0  0
 64 76  1  0  0  0  0
 66 68  1  0  0  0  0
M  CHG  1  76   1
M  ISO  4  37 100  62 101  75 100  83 101
M  END
> <Batch ID>
0182

> <Smiles>
CNC(C)C(=O)NC(C(=O)N1Cc2cc([101O:1][101CH2:1]c3nc(C)c(C4CCC([100NH:0][100C:0](=O)N5CCCC(n6nc(-c7ccc(Oc8ccc(F)cc8F)cc7)c(C(N)=O)c6N)C5)C4)cc3C)ccc2CC1C(=O)NC1CCCc2ccccc21)C(C)(C)C

> <Shape>
0.320

> <Color>
0.209

> <Negative vol penalty>
0.000

$$$$

  -OEChem-04052323053D

 83 92  0     1  0  0  0  0  0999 V2000
  -16.8650  -28.2324   23.8183 C   0  0  0  0  0  0  0  0  0  0  0  0
  -17.8154  -27.5539   23.0621 C   0  0  0  0  0  0  0  0  0  0  0  0
  -23.5997   -8.5799   19.1018 C   0  0  0  0  0  0  0  0  0  0  0  0
  -24.7783   -8.6386   21.2100 C   0  0  0  0  0  0  0  0  0  0  0  0
  -16.9083  -29.6233   23.9050 C   0  0  0  0  0  0  0  0  0  0  0  0
  -18.8091  -28.2661   22.3913 C   0  0  0  0  0  0  0  0  0  0  0  0
  -24.5953  -26.5017   21.4364 C   0  0  0  0  0  0  0  0  0  0  0  0
  -22.4931   -8.0155   19.7362 C   0  0  0  0  0  0  0  0  0  0  0  0
  -23.6717   -8.0742   21.8444 C   0  0  0  0  0  0  0  0  0  0  0  0
  -25.2309  -25.9250   20.3376 C   0  0  0  0  0  0  0  0  0  0  0  0
  -22.2932   -5.0062   22.1880 C   0  0  0  0  0  0  0  0  0  0  0  0
  -22.5230   -3.9657   23.0880 C   0  0  0  0  0  0  0  0  0  0  0  0
  -25.9712  -28.1084   19.6276 C   0  0  0  0  0  0  0  0  0  0  0  0
  -21.5211   -5.2731   24.8555 C   0  0  0  0  0  0  0  0  0  0  0  0
  -24.7424   -8.8914   19.8387 C   0  0  0  0  0  0  0  0  0  0  0  0
  -26.6410   -8.9155   18.1351 C   0  0  0  0  0  0  0  0  0  0  0  0
  -17.9087  -30.3522   23.2428 C   0  0  0  0  0  0  0  0  0  0  0  0
  -24.6338  -27.8895   21.6334 C   0  0  0  0  0  0  0  0  0  0  0  0
  -18.8650  -29.6681   22.4682 C   0  0  0  0  0  0  0  0  0  0  0  0
  -25.3375  -28.6999   20.7311 C   0  0  0  0  0  0  0  0  0  0  0  0
  -22.5290   -7.7627   21.1075 C   0  0  0  0  0  0  0  0  0  0  0  0
  -25.9166  -26.7287   19.4315 C   0  0  0  0  0  0  0  0  0  0  0  0
  -21.6774   -6.1803   22.6218 C   0  0  0  0  0  0  0  0  0  0  0  0
  -22.1369   -4.0991   24.4218 C   0  0  0  0  0  0  0  0  0  0  0  0
  -21.2913   -6.3137   23.9555 C   0  0  0  0  0  0  0  0  0  0  0  0
  -25.8860   -9.4739   19.1839 C   0  0  0  0  0  0  0  0  0  0  0  0
  -27.6090   -9.8535   17.8715 C   0  0  0  0  0  0  0  0  0  0  0  0
  -26.4814   -7.6610   17.4594 C   0  0  0  0  0  0  0  0  0  0  0  0
  -22.4527  -30.1982   21.7613 C   0  0  0  0  0  0  0  0  0  0  0  0
  -25.0015  -32.0257   22.5898 C   0  0  0  0  0  0  0  0  0  0  0  0
  -28.3816  -32.4901   22.5103 C   0  0  0  0  0  0  0  0  0  0  0  0
  -27.6317  -15.7713   18.9820 C   0  0  0  0  0  0  0  0  0  0  0  0
  -17.8866  -31.8578   23.3277 C   0  0  0  0  0  0  0  0  0  0  0  0
  -23.9656  -28.4932   22.8382 C   0  0  0  0  0  0  0  0  0  0  0  0
  -25.4258  -30.1929   20.9086 C   0  0  0  0  0  0  0  0  0  0  0  0
  -19.1951  -32.5118   22.8914 C   0  0  0  0  0  0  0  0  0  0  0  0
  -29.3135  -12.9732   21.0121 C   0  0  0  0  0  0  0  0  0  0  0  0
  -19.6868  -31.9012   21.5829 C   0  0  0  0  0  0  0  0  0  0  0  0
  -29.3855  -12.0230   19.8205 C   0  0  0  0  0  0  0  0  0  0  0  0
  -28.2957  -23.0160   17.3081 C   0  0  0  0  0  0  0  0  0  0  0  0
  -28.6962  -23.4237   19.7768 C   0  0  0  0  0  0  0  0  0  0  0  0
  -27.6466  -24.3928   17.1895 C   0  0  0  0  0  0  0  0  0  0  0  0
  -28.0457  -24.7993   19.6523 C   0  0  0  0  0  0  0  0  0  0  0  0
  -28.7100  -18.6807   17.6101 C   0  0  0  0  0  0  0  0  0  0  0  0
  -29.0891  -14.4102   20.5517 C   0  0  0  0  0  0  0  0  0  0  0  0
  -27.2487  -13.3342   19.2565 C   0  0  0  0  0  0  0  0  0  0  0  0
  -19.9731  -30.4035   21.7463 C   0  0  1  0  0  0  0  0  0  0  0  0
  -23.6353  -29.9719   22.6601 C   0  0  1  0  0  0  0  0  0  0  0  0
  -29.1981  -19.2556   18.9096 C   0  0  2  0  0  0  0  0  0  0  0  0
  -28.1755  -12.1674   18.8718 C   0  0  2  0  0  0  0  0  0  0  0  0
  -28.1150  -18.2069   18.9108 C   0  0  2  0  0  0  0  0  0  0  0  0
  -29.3124  -22.9921   18.4477 C   0  0  0  0  0  0  0  0  0  0  0  0
  -27.0274  -24.8410   18.5126 C   0  0  0  0  0  0  0  0  0  1  0  0
  -30.1671  -34.0953   23.2401 C   0  0  0  0  0  0  0  0  0  0  0  0
  -24.2210  -33.9187   20.3276 C   0  0  0  0  0  0  0  0  0  0  0  0
  -26.5030  -34.9364   20.4855 C   0  0  0  0  0  0  0  0  0  0  0  0
  -24.9493  -35.0541   22.4336 C   0  0  0  0  0  0  0  0  0  0  0  0
  -29.6928  -30.4442   24.1996 C   0  0  0  0  0  0  0  0  0  0  0  0
  -31.1973  -21.5784   19.2536 C   0  0  0  0  0  0  0  0  0  0  0  0
  -28.8726  -20.6862   19.2793 C   0  0  0  0  0  0  0  0  0  0  0  0
  -26.0209  -32.8439   21.8346 C   0  0  1  0  0  0  0  0  0  0  0  0
  -29.3751  -32.8482   23.6008 C   0  0  2  0  0  0  0  0  0  0  0  0
  -25.4204  -34.1604   21.2657 C   0  0  0  0  0  0  0  0  0  0  0  0
  -26.3359  -10.6737   19.5610 N   0  0  0  0  0  0  0  0  0  0  0  0
  -27.3840  -10.8768   18.7447 N   0  0  0  0  0  0  0  0  0  0  0  0
  -24.7508  -30.7366   22.0987 N   0  0  0  0  0  0  0  0  0  0  0  0
  -28.0073  -14.5469   19.5681 N   0  0  0  0  0  0  0  0  0  0  0  0
  -28.6222   -9.8946   16.9804 N   0  0  0  0  0  0  0  0  0  0  0  0
  -27.1512   -6.5391   17.9663 N   0  0  0  0  0  0  0  0  0  0  0  0
  -21.2379  -30.2013   22.4199 N   0  0  0  0  0  0  0  0  0  0  0  0
  -27.1413  -33.0438   22.7475 N   0  0  0  0  0  0  0  0  0  0  0  0
  -28.3685  -16.8736   19.4074 N   0  0  0  0  0  0  0  0  0  0  0  0
  -30.3342  -31.7280   23.8159 N   0  3  0  0  0  0  0  0  0  0  0  0
  -29.8439  -21.6106   18.5896 N   0  3  1  0  0  0  0  0  0  0  0  0
  -25.7790   -7.5420   16.4269 O   0  0  0  0  0  0  0  0  0  0  0  0
  -22.6294  -30.3597   20.5594 O   0  0  0  0  0  0  0  0  0  0  0  0
  -24.4533  -32.5098   23.5831 O   0  0  0  0  0  0  0  0  0  0  0  0
  -28.6774  -31.7923   21.5428 O   0  0  0  0  0  0  0  0  0  0  0  0
  -26.7197  -15.8724   18.1558 O   0  0  0  0  0  0  0  0  0  0  0  0
  -21.4493   -7.2122   21.7268 O   0  0  0  0  0  0  0  0  0  0  0  0
  -26.5373  -26.1685   18.3578 O   0  0  0  0  0  0  0  0  0  1  0  0
  -22.3562   -3.0991   25.2856 F   0  0  0  0  0  0  0  0  0  0  0  0
  -20.6983   -7.4388   24.3777 F   0  0  0  0  0  0  0  0  0  0  0  0
  1  2  1  0  0  0  0
  1  5  2  0  0  0  0
  2  6  2  0  0  0  0
  3  8  2  0  0  0  0
  3 15  1  0  0  0  0
  4  9  1  0  0  0  0
  4 15  2  0  0  0  0
  5 17  1  0  0  0  0
  6 19  1  0  0  0  0
  7 10  2  0  0  0  0
  7 18  1  0  0  0  0
  8 21  1  0  0  0  0
  9 21  2  0  0  0  0
 10 22  1  0  0  0  0
 11 12  2  0  0  0  0
 11 23  1  0  0  0  0
 12 24  1  0  0  0  0
 13 20  1  0  0  0  0
 13 22  2  0  0  0  0
 14 24  2  0  0  0  0
 14 25  1  0  0  0  0
 15 26  1  0  0  0  0
 16 26  1  0  0  0  0
 16 27  2  0  0  0  0
 16 28  1  0  0  0  0
 17 19  2  0  0  0  0
 17 33  1  0  0  0  0
 18 20  2  0  0  0  0
 18 34  1  0  0  0  0
 19 47  1  0  0  0  0
 20 35  1  0  0  0  0
 21 80  1  0  0  0  0
 22 81  1  0  0  0  0
 23 25  2  0  0  0  0
 23 80  1  0  0  0  0
 24 82  1  0  0  0  0
 25 83  1  0  0  0  0
 26 64  2  0  0  0  0
 27 65  1  0  0  0  0
 27 68  1  0  0  0  0
 28 69  1  0  0  0  0
 28 75  2  0  0  0  0
 29 48  1  0  0  0  0
 29 70  1  0  0  0  0
 29 76  2  0  0  0  0
 30 61  1  0  0  0  0
 30 66  1  0  0  0  0
 30 77  2  0  0  0  0
 31 62  1  0  0  0  0
 31 71  1  0  0  0  0
 31 78  2  0  0  0  0
 32 67  1  0  0  0  0
 32 72  1  0  0  0  0
 32 79  2  0  0  0  0
 33 36  1  0  0  0  0
 34 48  1  0  0  0  0
 35 66  1  0  0  0  0
 36 38  1  0  0  0  0
 37 39  1  0  0  0  0
 37 45  1  0  0  0  0
 38 47  1  0  0  0  0
 39 50  1  0  0  0  0
 40 42  1  0  0  0  0
 40 52  1  0  0  0  0
 41 43  1  0  0  0  0
 41 52  1  0  0  0  0
 42 53  1  0  0  0  0
 43 53  1  0  0  0  0
 44 49  1  0  0  0  0
 44 51  1  0  0  0  0
 45 67  1  0  0  0  0
 46 50  1  0  0  0  0
 46 67  1  0  0  0  0
 47 70  1  0  0  0  0
 48 66  1  0  0  0  0
 49 51  1  0  0  0  0
 49 60  1  0  0  0  0
 50 65  1  0  0  0  0
 51 72  1  0  0  0  0
 52 74  1  0  0  0  0
 53 81  1  0  0  0  0
 54 62  1  0  0  0  0
 55 63  1  0  0  0  0
 56 63  1  0  0  0  0
 57 63  1  0  0  0  0
 58 73  1  0  0  0  0
 59 74  1  0  0  0  0
 60 74  1  0  0  0  0
 61 63  1  0  0  0  0
 61 71  1  0  0  0  0
 62 73  1  0  0  0  0
 64 65  1  0  0  0  0
M  CHG  2  73   1  74   1
M  ISO  4  32 100  53 101  72 100  81 101
M  END
> <Batch ID>
0182

> <Smiles>
CNC(C)C(=O)NC(C(=O)N1Cc2cc([101O:1][101CH:1]3CCC(N(C)CC4CC4[100NH:0][100C:0](=O)N4CCCC(n5nc(-c6ccc(Oc7ccc(F)cc7F)cc6)c(C(N)=O)c5N)C4)CC3)ccc2CC1C(=O)NC1CCCc2ccccc21)C(C)(C)C

> <Shape>
0.292

> <Color>
0.091

> <Negative vol penalty>
0.000

$$$$

  -OEChem-04052323053D

 85 94  0     1  0  0  0  0  0999 V2000
  -28.0511  -34.2894   24.7732 C   0  0  0  0  0  0  0  0  0  0  0  0
  -28.5053  -32.9986   24.5225 C   0  0  0  0  0  0  0  0  0  0  0  0
  -23.2474  -10.4969   21.4673 C   0  0  0  0  0  0  0  0  0  0  0  0
  -24.8103   -8.7278   21.9820 C   0  0  0  0  0  0  0  0  0  0  0  0
  -26.6860  -34.5688   24.7236 C   0  0  0  0  0  0  0  0  0  0  0  0
  -27.5945  -31.9861   24.2231 C   0  0  0  0  0  0  0  0  0  0  0  0
  -28.4460  -27.2821   20.3950 C   0  0  0  0  0  0  0  0  0  0  0  0
  -22.2284   -9.5551   21.3244 C   0  0  0  0  0  0  0  0  0  0  0  0
  -23.7913   -7.7860   21.8392 C   0  0  0  0  0  0  0  0  0  0  0  0
  -28.8032  -25.9515   20.6089 C   0  0  0  0  0  0  0  0  0  0  0  0
  -21.1940   -6.6322   23.6677 C   0  0  0  0  0  0  0  0  0  0  0  0
  -21.0952   -5.6345   24.6374 C   0  0  0  0  0  0  0  0  0  0  0  0
  -26.4737  -25.3262   20.5693 C   0  0  0  0  0  0  0  0  0  0  0  0
  -21.4237   -3.9496   22.9372 C   0  0  0  0  0  0  0  0  0  0  0  0
  -28.4155  -18.1552   18.2341 C   0  0  0  0  0  0  0  0  0  0  0  0
  -24.5383  -10.0832   21.7960 C   0  0  0  0  0  0  0  0  0  0  0  0
  -25.9675  -11.7299   23.1202 C   0  0  0  0  0  0  0  0  0  0  0  0
  -25.7588  -33.5613   24.4139 C   0  0  0  0  0  0  0  0  0  0  0  0
  -27.0972  -27.6470   20.2774 C   0  0  0  0  0  0  0  0  0  0  0  0
  -26.2156  -32.2519   24.1706 C   0  0  0  0  0  0  0  0  0  0  0  0
  -26.1022  -26.6617   20.3514 C   0  0  0  0  0  0  0  0  0  0  0  0
  -27.4392  -18.0208   17.2682 C   0  0  0  0  0  0  0  0  0  0  0  0
  -22.5003   -8.1997   21.5104 C   0  0  0  0  0  0  0  0  0  0  0  0
  -27.8168  -24.9738   20.6990 C   0  0  0  0  0  0  0  0  0  0  0  0
  -21.4076   -6.2887   22.3328 C   0  0  0  0  0  0  0  0  0  0  0  0
  -21.2101   -4.2932   24.2722 C   0  0  0  0  0  0  0  0  0  0  0  0
  -21.5224   -4.9474   21.9675 C   0  0  0  0  0  0  0  0  0  0  0  0
  -25.5915  -11.0555   21.9431 C   0  0  0  0  0  0  0  0  0  0  0  0
  -26.7811  -19.1823   16.9187 C   0  0  0  0  0  0  0  0  0  0  0  0
  -27.0097  -12.5375   22.7353 C   0  0  0  0  0  0  0  0  0  0  0  0
  -28.0206  -20.3881   18.3941 C   0  0  0  0  0  0  0  0  0  0  0  0
  -25.4234  -11.6348   24.4433 C   0  0  0  0  0  0  0  0  0  0  0  0
  -25.1317  -29.5311   21.9178 C   0  0  0  0  0  0  0  0  0  0  0  0
  -23.0852  -28.8509   19.4947 C   0  0  0  0  0  0  0  0  0  0  0  0
  -22.1654  -26.7225   16.9905 C   0  0  0  0  0  0  0  0  0  0  0  0
  -28.6216  -14.9478   17.5611 C   0  0  0  0  0  0  0  0  0  0  0  0
  -24.2893  -33.9008   24.4185 C   0  0  0  0  0  0  0  0  0  0  0  0
  -26.7298  -29.0827   20.0202 C   0  0  0  0  0  0  0  0  0  0  0  0
  -24.6408  -26.9984   20.2116 C   0  0  0  0  0  0  0  0  0  0  0  0
  -23.4202  -32.8542   23.7258 C   0  0  0  0  0  0  0  0  0  0  0  0
  -30.5584  -12.8301   19.5579 C   0  0  0  0  0  0  0  0  0  0  0  0
  -23.8063  -31.4515   24.1843 C   0  0  0  0  0  0  0  0  0  0  0  0
  -29.5488  -12.1820   20.5030 C   0  0  0  0  0  0  0  0  0  0  0  0
  -25.9233  -15.2265   19.6763 C   0  0  0  0  0  0  0  0  0  0  0  0
  -25.0665  -15.9388   18.6726 C   0  0  0  0  0  0  0  0  0  0  0  0
  -29.9791  -12.9666   18.1554 C   0  0  0  0  0  0  0  0  0  0  0  0
  -27.6764  -13.1197   19.0539 C   0  0  0  0  0  0  0  0  0  0  0  0
  -25.2607  -31.1321   23.8180 C   0  0  1  0  0  0  0  0  0  0  0  0
  -25.2983  -29.4156   20.4290 C   0  0  1  0  0  0  0  0  0  0  0  0
  -28.2157  -12.9485   20.4890 C   0  0  1  0  0  0  0  0  0  0  0  0
  -26.1832  -15.0457   18.2057 C   0  0  0  0  0  0  0  0  0  0  0  0
  -25.7074  -19.1582   15.8814 C   0  0  0  0  0  0  0  0  0  0  0  0
  -20.4288  -26.4149   15.2053 C   0  0  0  0  0  0  0  0  0  0  0  0
  -21.0687  -27.9750   21.6105 C   0  0  0  0  0  0  0  0  0  0  0  0
  -19.7787  -26.8195   19.8026 C   0  0  0  0  0  0  0  0  0  0  0  0
  -20.0933  -29.2927   19.7220 C   0  0  0  0  0  0  0  0  0  0  0  0
  -24.1959  -26.8037   14.8389 C   0  0  0  0  0  0  0  0  0  0  0  0
  -27.1366  -16.7004   16.6595 C   0  0  0  0  0  0  0  0  0  0  0  0
  -29.3366  -21.7866   19.9872 C   0  0  0  0  0  0  0  0  0  0  0  0
  -29.4243  -23.2474   20.3962 C   0  0  0  0  0  0  0  0  0  1  0  0
  -22.0569  -27.7769   19.2335 C   0  0  1  0  0  0  0  0  0  0  0  0
  -21.8038  -26.9731   15.5376 C   0  0  2  0  0  0  0  0  0  0  0  0
  -20.7767  -27.9596   20.0968 C   0  0  0  0  0  0  0  0  0  0  0  0
  -28.7334  -19.3280   18.8205 N   0  0  0  0  0  0  0  0  0  0  0  0
  -26.3343  -11.4044   20.8893 N   0  0  0  0  0  0  0  0  0  0  0  0
  -27.0471  -20.3875   17.4636 N   0  0  0  0  0  0  0  0  0  0  0  0
  -27.1874  -12.3069   21.4028 N   0  0  0  0  0  0  0  0  0  0  0  0
  -24.3319  -28.4170   19.9674 N   0  0  0  0  0  0  0  0  0  0  0  0
  -28.7056  -13.6877   18.1707 N   0  0  0  0  0  0  0  0  0  0  0  0
  -27.7822  -13.4152   23.4099 N   0  0  0  0  0  0  0  0  0  0  0  0
  -24.3544  -10.7558   24.6646 N   0  0  0  0  0  0  0  0  0  0  0  0
  -28.3212  -21.6092   18.9746 N   0  0  0  0  0  0  0  0  0  0  0  0
  -25.3667  -30.7993   22.4136 N   0  0  0  0  0  0  0  0  0  0  0  0
  -21.8138  -27.7858   17.7950 N   0  0  0  0  0  0  0  0  0  0  0  0
  -27.3729  -15.5926   17.5786 N   0  0  0  0  0  0  0  0  0  0  0  0
  -22.8023  -26.3303   14.6371 N   0  3  0  0  0  0  0  0  0  0  0  0
  -25.8612  -12.3215   25.3975 O   0  0  0  0  0  0  0  0  0  0  0  0
  -24.8121  -28.5430   22.5684 O   0  0  0  0  0  0  0  0  0  0  0  0
  -22.7954  -30.0306   19.2803 O   0  0  0  0  0  0  0  0  0  0  0  0
  -22.7023  -25.6856   17.3740 O   0  0  0  0  0  0  0  0  0  0  0  0
  -29.6024  -15.4643   17.0096 O   0  0  0  0  0  0  0  0  0  0  0  0
  -21.5062   -7.2805   21.3714 O   0  0  0  0  0  0  0  0  0  0  0  0
  -28.1626  -23.6744   20.9083 O   0  0  0  0  0  0  0  0  0  1  0  0
  -21.1168   -3.3352   25.2037 F   0  0  0  0  0  0  0  0  0  0  0  0
  -21.7288   -4.6113   20.6868 F   0  0  0  0  0  0  0  0  0  0  0  0
  1  2  1  0  0  0  0
  1  5  2  0  0  0  0
  2  6  2  0  0  0  0
  3  8  2  0  0  0  0
  3 16  1  0  0  0  0
  4  9  1  0  0  0  0
  4 16  2  0  0  0  0
  5 18  1  0  0  0  0
  6 20  1  0  0  0  0
  7 10  2  0  0  0  0
  7 19  1  0  0  0  0
  8 23  1  0  0  0  0
  9 23  2  0  0  0  0
 10 24  1  0  0  0  0
 11 12  2  0  0  0  0
 11 25  1  0  0  0  0
 12 26  1  0  0  0  0
 13 21  1  0  0  0  0
 13 24  2  0  0  0  0
 14 26  2  0  0  0  0
 14 27  1  0  0  0  0
 15 22  1  0  0  0  0
 15 64  2  0  0  0  0
 16 28  1  0  0  0  0
 17 28  1  0  0  0  0
 17 30  2  0  0  0  0
 17 32  1  0  0  0  0
 18 20  2  0  0  0  0
 18 37  1  0  0  0  0
 19 21  2  0  0  0  0
 19 38  1  0  0  0  0
 20 48  1  0  0  0  0
 21 39  1  0  0  0  0
 22 29  2  0  0  0  0
 22 58  1  0  0  0  0
 23 82  1  0  0  0  0
 24 83  1  0  0  0  0
 25 27  2  0  0  0  0
 25 82  1  0  0  0  0
 26 84  1  0  0  0  0
 27 85  1  0  0  0  0
 28 65  2  0  0  0  0
 29 52  1  0  0  0  0
 29 66  1  0  0  0  0
 30 67  1  0  0  0  0
 30 70  1  0  0  0  0
 31 64  1  0  0  0  0
 31 66  2  0  0  0  0
 31 72  1  0  0  0  0
 32 71  1  0  0  0  0
 32 77  2  0  0  0  0
 33 49  1  0  0  0  0
 33 73  1  0  0  0  0
 33 78  2  0  0  0  0
 34 61  1  0  0  0  0
 34 68  1  0  0  0  0
 34 79  2  0  0  0  0
 35 62  1  0  0  0  0
 35 74  1  0  0  0  0
 35 80  2  0  0  0  0
 36 69  1  0  0  0  0
 36 75  1  0  0  0  0
 36 81  2  0  0  0  0
 37 40  1  0  0  0  0
 38 49  1  0  0  0  0
 39 68  1  0  0  0  0
 40 42  1  0  0  0  0
 41 43  1  0  0  0  0
 41 46  1  0  0  0  0
 42 48  1  0  0  0  0
 43 50  1  0  0  0  0
 44 45  1  0  0  0  0
 44 51  1  0  0  0  0
 45 51  1  0  0  0  0
 46 69  1  0  0  0  0
 47 50  1  0  0  0  0
 47 69  1  0  0  0  0
 48 73  1  0  0  0  0
 49 68  1  0  0  0  0
 50 67  1  0  0  0  0
 51 75  1  0  0  0  0
 53 62  1  0  0  0  0
 54 63  1  0  0  0  0
 55 63  1  0  0  0  0
 56 63  1  0  0  0  0
 57 76  1  0  0  0  0
 58 75  1  0  0  0  0
 59 60  1  0  0  0  0
 59 72  1  0  0  0  0
 60 83  1  0  0  0  0
 61 63  1  0  0  0  0
 61 74  1  0  0  0  0
 62 76  1  0  0  0  0
 65 67  1  0  0  0  0
M  CHG  1  76   1
M  ISO  4  36 100  60 101  75 100  83 101
M  END
> <Batch ID>
0182

> <Smiles>
CNC(C)C(=O)NC(C(=O)N1Cc2cc([101O:1][101CH2:1]CNc3ncc(C[100N:0](C4CC4)[100C:0](=O)N4CCCC(n5nc(-c6ccc(Oc7ccc(F)cc7F)cc6)c(C(N)=O)c5N)C4)c(C)n3)ccc2CC1C(=O)NC1CCCc2ccccc21)C(C)(C)C

> <Shape>
0.305

> <Color>
0.098

> <Negative vol penalty>
0.000

$$$$

  -OEChem-04052323053D

 81 89  0     1  0  0  0  0  0999 V2000
  -28.0485  -32.7471   26.1672 C   0  0  0  0  0  0  0  0  0  0  0  0
  -28.1962  -31.5960   25.4001 C   0  0  0  0  0  0  0  0  0  0  0  0
  -26.7657  -12.8902   21.9360 C   0  0  0  0  0  0  0  0  0  0  0  0
  -26.0027  -14.5904   20.3983 C   0  0  0  0  0  0  0  0  0  0  0  0
  -26.7889  -33.1097   26.6426 C   0  0  0  0  0  0  0  0  0  0  0  0
  -27.0846  -30.8062   25.1088 C   0  0  0  0  0  0  0  0  0  0  0  0
  -26.9402  -29.3700   20.2548 C   0  0  0  0  0  0  0  0  0  0  0  0
  -25.4818  -12.3463   21.9716 C   0  0  0  0  0  0  0  0  0  0  0  0
  -24.7188  -14.0465   20.4339 C   0  0  0  0  0  0  0  0  0  0  0  0
  -27.7761  -28.3204   19.8762 C   0  0  0  0  0  0  0  0  0  0  0  0
  -22.4892  -10.2936   22.1865 C   0  0  0  0  0  0  0  0  0  0  0  0
  -22.3691   -8.9075   22.0872 C   0  0  0  0  0  0  0  0  0  0  0  0
  -25.9092  -26.7976   19.9979 C   0  0  0  0  0  0  0  0  0  0  0  0
  -23.4433   -8.9695   19.9240 C   0  0  0  0  0  0  0  0  0  0  0  0
  -27.0262  -14.0123   21.1494 C   0  0  0  0  0  0  0  0  0  0  0  0
  -29.3932  -14.2406   20.2259 C   0  0  0  0  0  0  0  0  0  0  0  0
  -25.6597  -32.3292   26.3488 C   0  0  0  0  0  0  0  0  0  0  0  0
  -25.5825  -29.1389   20.5188 C   0  0  0  0  0  0  0  0  0  0  0  0
  -25.8090  -31.1580   25.5818 C   0  0  0  0  0  0  0  0  0  0  0  0
  -25.0576  -27.8464   20.3772 C   0  0  0  0  0  0  0  0  0  0  0  0
  -24.4583  -12.9244   21.2206 C   0  0  0  0  0  0  0  0  0  0  0  0
  -27.2613  -27.0334   19.7505 C   0  0  0  0  0  0  0  0  0  0  0  0
  -23.0862  -11.0177   21.1545 C   0  0  0  0  0  0  0  0  0  0  0  0
  -22.8462   -8.2454   20.9560 C   0  0  0  0  0  0  0  0  0  0  0  0
  -23.5634  -10.3556   20.0233 C   0  0  0  0  0  0  0  0  0  0  0  0
  -28.3521  -14.5750   21.1126 C   0  0  0  0  0  0  0  0  0  0  0  0
  -30.4373  -15.0500   20.6015 C   0  0  0  0  0  0  0  0  0  0  0  0
  -29.4145  -13.2839   19.1582 C   0  0  0  0  0  0  0  0  0  0  0  0
  -23.7083  -29.4501   23.0672 C   0  0  0  0  0  0  0  0  0  0  0  0
  -21.3693  -28.6761   20.9571 C   0  0  0  0  0  0  0  0  0  0  0  0
  -20.4973  -27.1646   18.0242 C   0  0  0  0  0  0  0  0  0  0  0  0
  -30.2967  -20.4109   23.5172 C   0  0  0  0  0  0  0  0  0  0  0  0
  -24.3264  -32.7359   26.9244 C   0  0  0  0  0  0  0  0  0  0  0  0
  -24.6883  -30.2867   20.9002 C   0  0  0  0  0  0  0  0  0  0  0  0
  -23.6028  -27.5493   20.6294 C   0  0  0  0  0  0  0  0  0  0  0  0
  -23.1390  -32.0470   26.2567 C   0  0  0  0  0  0  0  0  0  0  0  0
  -31.8556  -17.2119   24.7049 C   0  0  0  0  0  0  0  0  0  0  0  0
  -23.4015  -30.5513   26.1127 C   0  0  0  0  0  0  0  0  0  0  0  0
  -31.5453  -16.2175   23.5858 C   0  0  0  0  0  0  0  0  0  0  0  0
  -27.2918  -22.2012   22.2606 C   0  0  0  0  0  0  0  0  0  0  0  0
  -31.8684  -18.6514   24.2128 C   0  0  0  0  0  0  0  0  0  0  0  0
  -29.8272  -17.9785   22.9357 C   0  0  0  0  0  0  0  0  0  0  0  0
  -27.8360  -19.9982   22.9831 C   0  0  0  0  0  0  0  0  0  0  0  0
  -24.6231  -30.2887   25.2237 C   0  0  1  0  0  0  0  0  0  0  0  0
  -23.4320  -29.8438   21.6437 C   0  0  1  0  0  0  0  0  0  0  0  0
  -30.7371  -16.8436   22.4351 C   0  0  2  0  0  0  0  0  0  0  0  0
  -26.7529  -21.0563   23.1020 C   0  0  2  0  0  0  0  0  0  0  0  0
  -28.7875  -22.1807   22.6027 C   0  0  2  0  0  0  0  0  0  0  0  0
  -18.5052  -26.6625   16.5831 C   0  0  0  0  0  0  0  0  0  0  0  0
  -20.5362  -26.4621   22.8843 C   0  0  0  0  0  0  0  0  0  0  0  0
  -19.2215  -25.4299   21.0204 C   0  0  0  0  0  0  0  0  0  0  0  0
  -18.6347  -27.7101   21.8445 C   0  0  0  0  0  0  0  0  0  0  0  0
  -24.3595  -21.5730   22.6078 C   0  0  0  0  0  0  0  0  0  0  0  0
  -21.6019  -28.7127   15.7566 C   0  0  0  0  0  0  0  0  0  0  0  0
  -29.6360  -22.6902   21.4443 C   0  0  0  0  0  0  0  0  0  0  0  0
  -30.0011  -24.7115   20.0231 C   0  0  0  0  0  0  0  0  0  0  0  0
  -29.4476  -26.0976   19.7576 C   0  0  0  0  0  0  0  0  0  1  0  0
  -20.7406  -27.3881   20.4829 C   0  0  1  0  0  0  0  0  0  0  0  0
  -19.6390  -27.6362   16.8643 C   0  0  2  0  0  0  0  0  0  0  0  0
  -19.8111  -26.7525   21.5551 C   0  0  0  0  0  0  0  0  0  0  0  0
  -28.7030  -15.5229   21.9858 N   0  0  0  0  0  0  0  0  0  0  0  0
  -29.9763  -15.7909   21.6497 N   0  0  0  0  0  0  0  0  0  0  0  0
  -22.7702  -28.7037   21.0061 N   0  0  0  0  0  0  0  0  0  0  0  0
  -30.5904  -19.0414   23.6101 N   0  0  0  0  0  0  0  0  0  0  0  0
  -29.0758  -20.7799   22.9497 N   0  0  0  0  0  0  0  0  0  0  0  0
  -31.6957  -15.1931   20.1342 N   0  0  0  0  0  0  0  0  0  0  0  0
  -28.2557  -12.5364   18.9078 N   0  0  0  0  0  0  0  0  0  0  0  0
  -24.2773  -30.4534   23.8281 N   0  0  0  0  0  0  0  0  0  0  0  0
  -20.0742  -27.6989   19.2229 N   0  0  0  0  0  0  0  0  0  0  0  0
  -25.4639  -20.5684   22.5840 N   0  3  0  0  0  0  0  0  0  0  0  0
  -20.4633  -27.7669   15.6296 N   0  3  0  0  0  0  0  0  0  0  0  0
  -29.2108  -24.0659   21.1096 N   0  3  0  0  0  0  0  0  0  0  0  0
  -30.4362  -13.0859   18.4579 O   0  0  0  0  0  0  0  0  0  0  0  0
  -23.4249  -28.3201   23.4474 O   0  0  0  0  0  0  0  0  0  0  0  0
  -20.6443  -29.6252   21.2657 O   0  0  0  0  0  0  0  0  0  0  0  0
  -21.4457  -26.3961   17.8818 O   0  0  0  0  0  0  0  0  0  0  0  0
  -31.0923  -21.2650   23.9313 O   0  0  0  0  0  0  0  0  0  0  0  0
  -23.2054  -12.3937   21.2549 O   0  0  0  0  0  0  0  0  0  0  0  0
  -28.0810  -25.9996   19.3791 O   0  0  0  0  0  0  0  0  0  1  0  0
  -22.7322   -6.9142   20.8614 F   0  0  0  0  0  0  0  0  0  0  0  0
  -24.1390  -11.0457   19.0292 F   0  0  0  0  0  0  0  0  0  0  0  0
  1  2  1  0  0  0  0
  1  5  2  0  0  0  0
  2  6  2  0  0  0  0
  3  8  2  0  0  0  0
  3 15  1  0  0  0  0
  4  9  1  0  0  0  0
  4 15  2  0  0  0  0
  5 17  1  0  0  0  0
  6 19  1  0  0  0  0
  7 10  2  0  0  0  0
  7 18  1  0  0  0  0
  8 21  1  0  0  0  0
  9 21  2  0  0  0  0
 10 22  1  0  0  0  0
 11 12  2  0  0  0  0
 11 23  1  0  0  0  0
 12 24  1  0  0  0  0
 13 20  1  0  0  0  0
 13 22  2  0  0  0  0
 14 24  2  0  0  0  0
 14 25  1  0  0  0  0
 15 26  1  0  0  0  0
 16 26  1  0  0  0  0
 16 27  2  0  0  0  0
 16 28  1  0  0  0  0
 17 19  2  0  0  0  0
 17 33  1  0  0  0  0
 18 20  2  0  0  0  0
 18 34  1  0  0  0  0
 19 44  1  0  0  0  0
 20 35  1  0  0  0  0
 21 78  1  0  0  0  0
 22 79  1  0  0  0  0
 23 25  2  0  0  0  0
 23 78  1  0  0  0  0
 24 80  1  0  0  0  0
 25 81  1  0  0  0  0
 26 61  2  0  0  0  0
 27 62  1  0  0  0  0
 27 66  1  0  0  0  0
 28 67  1  0  0  0  0
 28 73  2  0  0  0  0
 29 45  1  0  0  0  0
 29 68  1  0  0  0  0
 29 74  2  0  0  0  0
 30 58  1  0  0  0  0
 30 63  1  0  0  0  0
 30 75  2  0  0  0  0
 31 59  1  0  0  0  0
 31 69  1  0  0  0  0
 31 76  2  0  0  0  0
 32 64  1  0  0  0  0
 32 65  1  0  0  0  0
 32 77  2  0  0  0  0
 33 36  1  0  0  0  0
 34 45  1  0  0  0  0
 35 63  1  0  0  0  0
 36 38  1  0  0  0  0
 37 39  1  0  0  0  0
 37 41  1  0  0  0  0
 38 44  1  0  0  0  0
 39 46  1  0  0  0  0
 40 47  1  0  0  0  0
 40 48  1  0  0  0  0
 41 64  1  0  0  0  0
 42 46  1  0  0  0  0
 42 64  1  0  0  0  0
 43 47  1  0  0  0  0
 43 65  1  0  0  0  0
 44 68  1  0  0  0  0
 45 63  1  0  0  0  0
 46 62  1  0  0  0  0
 47 70  1  0  0  0  0
 48 55  1  0  0  0  0
 48 65  1  0  0  0  0
 49 59  1  0  0  0  0
 50 60  1  0  0  0  0
 51 60  1  0  0  0  0
 52 60  1  0  0  0  0
 53 70  1  0  0  0  0
 54 71  1  0  0  0  0
 55 72  1  0  0  0  0
 56 57  1  0  0  0  0
 56 72  1  0  0  0  0
 57 79  1  0  0  0  0
 58 60  1  0  0  0  0
 58 69  1  0  0  0  0
 59 71  1  0  0  0  0
 61 62  1  0  0  0  0
M  CHG  3  70   1  71   1  72   1
M  ISO  4  32 100  57 101  65 100  79 101
M  END
> <Batch ID>
0182

> <Smiles>
CNC1CC(CNC[101CH2:1][101O:1]c2ccc3c(c2)CN(C(=O)C(NC(=O)C(C)NC)C(C)(C)C)C(C(=O)NC2CCCc4ccccc42)C3)[100N:0]([100C:0](=O)N2CCCC(n3nc(-c4ccc(Oc5ccc(F)cc5F)cc4)c(C(N)=O)c3N)C2)C1

> <Shape>
0.313

> <Color>
0.075

> <Negative vol penalty>
0.000

$$$$

  -OEChem-04052323053D

 84 93  0     1  0  0  0  0  0999 V2000
  -28.3057  -37.4371   20.3911 C   0  0  0  0  0  0  0  0  0  0  0  0
  -28.7102  -36.1222   20.1837 C   0  0  0  0  0  0  0  0  0  0  0  0
  -24.2345   -9.4431   21.4737 C   0  0  0  0  0  0  0  0  0  0  0  0
  -23.7908   -8.6464   19.2364 C   0  0  0  0  0  0  0  0  0  0  0  0
  -27.3354  -37.7236   21.3504 C   0  0  0  0  0  0  0  0  0  0  0  0
  -28.1454  -35.0932   20.9364 C   0  0  0  0  0  0  0  0  0  0  0  0
  -26.9646  -29.3831   19.0641 C   0  0  0  0  0  0  0  0  0  0  0  0
  -23.1945   -8.6520   21.9617 C   0  0  0  0  0  0  0  0  0  0  0  0
  -22.7509   -7.8552   19.7244 C   0  0  0  0  0  0  0  0  0  0  0  0
  -27.6582  -28.1834   19.2173 C   0  0  0  0  0  0  0  0  0  0  0  0
  -22.6915   -5.3992   22.7360 C   0  0  0  0  0  0  0  0  0  0  0  0
  -22.9287   -4.6588   23.8940 C   0  0  0  0  0  0  0  0  0  0  0  0
  -26.2914  -27.6444   21.1305 C   0  0  0  0  0  0  0  0  0  0  0  0
  -21.1286   -5.8237   25.0075 C   0  0  0  0  0  0  0  0  0  0  0  0
  -28.4348  -22.9843   20.7228 C   0  0  0  0  0  0  0  0  0  0  0  0
  -24.5326   -9.4404   20.1110 C   0  0  0  0  0  0  0  0  0  0  0  0
  -26.9591   -9.8937   19.4675 C   0  0  0  0  0  0  0  0  0  0  0  0
  -26.7514  -36.6965   22.1085 C   0  0  0  0  0  0  0  0  0  0  0  0
  -25.9347  -29.7280   19.9511 C   0  0  0  0  0  0  0  0  0  0  0  0
  -27.1673  -35.3664   21.9077 C   0  0  0  0  0  0  0  0  0  0  0  0
  -25.5845  -28.8479   20.9849 C   0  0  0  0  0  0  0  0  0  0  0  0
  -22.4527   -7.8580   21.0871 C   0  0  0  0  0  0  0  0  0  0  0  0
  -27.3236  -27.3152   20.2524 C   0  0  0  0  0  0  0  0  0  0  0  0
  -21.6728   -6.3519   22.7137 C   0  0  0  0  0  0  0  0  0  0  0  0
  -22.1472   -4.8710   25.0298 C   0  0  0  0  0  0  0  0  0  0  0  0
  -20.8914   -6.5641   23.8494 C   0  0  0  0  0  0  0  0  0  0  0  0
  -25.6064  -10.2579   19.6063 C   0  0  0  0  0  0  0  0  0  0  0  0
  -28.4594  -24.1126   21.5643 C   0  0  0  0  0  0  0  0  0  0  0  0
  -29.4290  -22.1712   21.2096 C   0  0  0  0  0  0  0  0  0  0  0  0
  -27.5643  -11.0121   18.9483 C   0  0  0  0  0  0  0  0  0  0  0  0
  -27.6105   -8.6552   19.7799 C   0  0  0  0  0  0  0  0  0  0  0  0
  -25.4524  -32.0953   22.0167 C   0  0  0  0  0  0  0  0  0  0  0  0
  -22.5256  -30.7267   22.3045 C   0  0  0  0  0  0  0  0  0  0  0  0
  -20.5927  -27.9303   22.0032 C   0  0  0  0  0  0  0  0  0  0  0  0
  -28.4747  -16.2978   18.7523 C   0  0  0  0  0  0  0  0  0  0  0  0
  -25.7405  -37.0604   23.1669 C   0  0  0  0  0  0  0  0  0  0  0  0
  -25.1783  -31.0134   19.7561 C   0  0  0  0  0  0  0  0  0  0  0  0
  -24.4732  -29.1622   21.9517 C   0  0  0  0  0  0  0  0  0  0  0  0
  -24.9209  -35.8710   23.6609 C   0  0  0  0  0  0  0  0  0  0  0  0
  -25.5903  -15.2541   17.0436 C   0  0  0  0  0  0  0  0  0  0  0  0
  -25.8295  -34.6813   23.9538 C   0  0  0  0  0  0  0  0  0  0  0  0
  -25.4408  -13.8193   17.5488 C   0  0  0  0  0  0  0  0  0  0  0  0
  -28.0420  -19.5162   20.1098 C   0  0  0  0  0  0  0  0  0  0  0  0
  -30.3703  -19.1628   19.2032 C   0  0  0  0  0  0  0  0  0  0  0  0
  -26.0124  -16.2131   18.1581 C   0  0  0  0  0  0  0  0  0  0  0  0
  -27.4910  -18.6215   18.9956 C   0  0  0  0  0  0  0  0  0  0  0  0
  -29.7723  -18.3014   18.0944 C   0  0  0  0  0  0  0  0  0  0  0  0
  -27.0796  -14.3535   19.3917 C   0  0  0  0  0  0  0  0  0  0  0  0
  -26.5601  -34.2201   22.6870 C   0  0  1  0  0  0  0  0  0  0  0  0
  -24.4903  -31.5006   21.0276 C   0  0  1  0  0  0  0  0  0  0  0  0
  -26.7127  -13.3564   18.2816 C   0  0  1  0  0  0  0  0  0  0  0  0
  -29.3494  -20.1935   19.6923 C   0  0  0  0  0  0  0  0  0  0  0  0
  -18.2458  -27.1113   22.3477 C   0  0  0  0  0  0  0  0  0  0  0  0
  -23.0014  -30.6381   25.3171 C   0  0  0  0  0  0  0  0  0  0  0  0
  -21.1188  -28.9972   25.4958 C   0  0  0  0  0  0  0  0  0  0  0  0
  -20.6856  -31.3021   24.6457 C   0  0  0  0  0  0  0  0  0  0  0  0
  -31.0533  -22.3967   23.1192 C   0  0  0  0  0  0  0  0  0  0  0  0
  -20.2841  -27.2551   19.1383 C   0  0  0  0  0  0  0  0  0  0  0  0
  -27.5974  -25.3043   21.4922 C   0  0  0  0  0  0  0  0  0  1  0  0
  -21.9283  -29.6552   23.1843 C   0  0  1  0  0  0  0  0  0  0  0  0
  -19.2358  -27.7082   21.3597 C   0  0  2  0  0  0  0  0  0  0  0  0
  -21.7058  -30.1428   24.6439 C   0  0  0  0  0  0  0  0  0  0  0  0
  -25.3659  -11.5098   19.2076 N   0  0  0  0  0  0  0  0  0  0  0  0
  -29.3950  -24.0275   22.5138 N   0  0  0  0  0  0  0  0  0  0  0  0
  -26.5758  -11.9420   18.8133 N   0  0  0  0  0  0  0  0  0  0  0  0
  -29.9674  -22.8359   22.2719 N   0  0  0  0  0  0  0  0  0  0  0  0
  -23.7675  -30.4339   21.7234 N   0  0  0  0  0  0  0  0  0  0  0  0
  -27.2050  -15.7098   18.8537 N   0  0  0  0  0  0  0  0  0  0  0  0
  -28.5191  -17.6816   18.5263 N   0  0  0  0  0  0  0  0  0  0  0  0
  -28.8402  -11.2809   18.5988 N   0  0  0  0  0  0  0  0  0  0  0  0
  -26.8400   -7.6093   20.3060 N   0  0  0  0  0  0  0  0  0  0  0  0
  -29.8932  -20.9299   20.8121 N   0  0  0  0  0  0  0  0  0  0  0  0
  -25.6721  -33.4486   21.8439 N   0  0  0  0  0  0  0  0  0  0  0  0
  -20.7136  -29.2058   22.5128 N   0  0  0  0  0  0  0  0  0  0  0  0
  -19.3584  -26.7812   20.1992 N   0  3  0  0  0  0  0  0  0  0  0  0
  -28.8423   -8.4867   19.6133 O   0  0  0  0  0  0  0  0  0  0  0  0
  -25.9569  -31.3798   22.8741 O   0  0  0  0  0  0  0  0  0  0  0  0
  -21.9095  -31.7815   22.1332 O   0  0  0  0  0  0  0  0  0  0  0  0
  -21.4573  -27.0582   22.0524 O   0  0  0  0  0  0  0  0  0  0  0  0
  -29.5084  -15.6259   18.8576 O   0  0  0  0  0  0  0  0  0  0  0  0
  -21.4380   -7.0856   21.5629 O   0  0  0  0  0  0  0  0  0  0  0  0
  -28.0027  -26.1383   20.4053 O   0  0  0  0  0  0  0  0  0  1  0  0
  -22.3741   -4.1589   26.1413 F   0  0  0  0  0  0  0  0  0  0  0  0
  -19.9106   -7.4772   23.8336 F   0  0  0  0  0  0  0  0  0  0  0  0
  1  2  1  0  0  0  0
  1  5  2  0  0  0  0
  2  6  2  0  0  0  0
  3  8  2  0  0  0  0
  3 16  1  0  0  0  0
  4  9  1  0  0  0  0
  4 16  2  0  0  0  0
  5 18  1  0  0  0  0
  6 20  1  0  0  0  0
  7 10  2  0  0  0  0
  7 19  1  0  0  0  0
  8 22  1  0  0  0  0
  9 22  2  0  0  0  0
 10 23  1  0  0  0  0
 11 12  2  0  0  0  0
 11 24  1  0  0  0  0
 12 25  1  0  0  0  0
 13 21  1  0  0  0  0
 13 23  2  0  0  0  0
 14 25  2  0  0  0  0
 14 26  1  0  0  0  0
 15 28  1  0  0  0  0
 15 29  2  0  0  0  0
 16 27  1  0  0  0  0
 17 27  1  0  0  0  0
 17 30  2  0  0  0  0
 17 31  1  0  0  0  0
 18 20  2  0  0  0  0
 18 36  1  0  0  0  0
 19 21  2  0  0  0  0
 19 37  1  0  0  0  0
 20 49  1  0  0  0  0
 21 38  1  0  0  0  0
 22 81  1  0  0  0  0
 23 82  1  0  0  0  0
 24 26  2  0  0  0  0
 24 81  1  0  0  0  0
 25 83  1  0  0  0  0
 26 84  1  0  0  0  0
 27 63  2  0  0  0  0
 28 59  1  0  0  0  0
 28 64  2  0  0  0  0
 29 66  1  0  0  0  0
 29 72  1  0  0  0  0
 30 65  1  0  0  0  0
 30 70  1  0  0  0  0
 31 71  1  0  0  0  0
 31 76  2  0  0  0  0
 32 50  1  0  0  0  0
 32 73  1  0  0  0  0
 32 77  2  0  0  0  0
 33 60  1  0  0  0  0
 33 67  1  0  0  0  0
 33 78  2  0  0  0  0
 34 61  1  0  0  0  0
 34 74  1  0  0  0  0
 34 79  2  0  0  0  0
 35 68  1  0  0  0  0
 35 69  1  0  0  0  0
 35 80  2  0  0  0  0
 36 39  1  0  0  0  0
 37 50  1  0  0  0  0
 38 67  1  0  0  0  0
 39 41  1  0  0  0  0
 40 42  1  0  0  0  0
 40 45  1  0  0  0  0
 41 49  1  0  0  0  0
 42 51  1  0  0  0  0
 43 46  1  0  0  0  0
 43 52  1  0  0  0  0
 44 47  1  0  0  0  0
 44 52  1  0  0  0  0
 45 68  1  0  0  0  0
 46 69  1  0  0  0  0
 47 69  1  0  0  0  0
 48 51  1  0  0  0  0
 48 68  1  0  0  0  0
 49 73  1  0  0  0  0
 50 67  1  0  0  0  0
 51 65  1  0  0  0  0
 52 72  1  0  0  0  0
 53 61  1  0  0  0  0
 54 62  1  0  0  0  0
 55 62  1  0  0  0  0
 56 62  1  0  0  0  0
 57 66  1  0  0  0  0
 58 75  1  0  0  0  0
 59 82  1  0  0  0  0
 60 62  1  0  0  0  0
 60 74  1  0  0  0  0
 61 75  1  0  0  0  0
 63 65  1  0  0  0  0
 64 66  1  0  0  0  0
M  CHG  1  75   1
M  ISO  4  35 100  59 101  69 100  82 101
M  END
> <Batch ID>
0182

> <Smiles>
CNC(C)C(=O)NC(C(=O)N1Cc2cc([101O:1][101CH2:1]c3cc(NC4CC[100N:0]([100C:0](=O)N5CCCC(n6nc(-c7ccc(Oc8ccc(F)cc8F)cc7)c(C(N)=O)c6N)C5)CC4)n(C)n3)ccc2CC1C(=O)NC1CCCc2ccccc21)C(C)(C)C

> <Shape>
0.299

> <Color>
0.097

> <Negative vol penalty>
0.000

$$$$

  -OEChem-04052323053D

 86 96  0     1  0  0  0  0  0999 V2000
  -16.3264  -28.8303   23.6170 C   0  0  0  0  0  0  0  0  0  0  0  0
  -17.3348  -27.8746   23.5470 C   0  0  0  0  0  0  0  0  0  0  0  0
  -24.2535   -9.3228   22.2156 C   0  0  0  0  0  0  0  0  0  0  0  0
  -24.0765   -8.9447   19.8359 C   0  0  0  0  0  0  0  0  0  0  0  0
  -16.5538  -30.1186   23.1346 C   0  0  0  0  0  0  0  0  0  0  0  0
  -18.5710  -28.2062   22.9935 C   0  0  0  0  0  0  0  0  0  0  0  0
  -24.0596  -26.1090   24.7206 C   0  0  0  0  0  0  0  0  0  0  0  0
  -23.1872   -8.4503   22.4335 C   0  0  0  0  0  0  0  0  0  0  0  0
  -23.0103   -8.0721   20.0539 C   0  0  0  0  0  0  0  0  0  0  0  0
  -24.8795  -25.1003   24.2164 C   0  0  0  0  0  0  0  0  0  0  0  0
  -22.6866   -5.1082   22.5469 C   0  0  0  0  0  0  0  0  0  0  0  0
  -22.8154   -4.1705   23.5715 C   0  0  0  0  0  0  0  0  0  0  0  0
  -26.1085  -26.7423   22.9465 C   0  0  0  0  0  0  0  0  0  0  0  0
  -20.8754   -5.1031   24.6688 C   0  0  0  0  0  0  0  0  0  0  0  0
  -24.6981   -9.5701   20.9168 C   0  0  0  0  0  0  0  0  0  0  0  0
  -27.1678  -10.1463   20.6407 C   0  0  0  0  0  0  0  0  0  0  0  0
  -17.7965  -30.4689   22.5838 C   0  0  0  0  0  0  0  0  0  0  0  0
  -24.2515  -27.4428   24.3324 C   0  0  0  0  0  0  0  0  0  0  0  0
  -18.8148  -29.4999   22.5021 C   0  0  0  0  0  0  0  0  0  0  0  0
  -25.2914  -27.7664   23.4492 C   0  0  0  0  0  0  0  0  0  0  0  0
  -26.2267  -19.4989   19.1781 C   0  0  0  0  0  0  0  0  0  0  0  0
  -22.5657   -7.8249   21.3527 C   0  0  0  0  0  0  0  0  0  0  0  0
  -25.9022  -25.4165   23.3270 C   0  0  0  0  0  0  0  0  0  0  0  0
  -21.6523   -6.0435   22.5833 C   0  0  0  0  0  0  0  0  0  0  0  0
  -21.9098   -4.1680   24.6324 C   0  0  0  0  0  0  0  0  0  0  0  0
  -20.7467   -6.0409   23.6442 C   0  0  0  0  0  0  0  0  0  0  0  0
  -25.7991  -10.4717   20.6910 C   0  0  0  0  0  0  0  0  0  0  0  0
  -26.6886  -20.1699   20.2919 C   0  0  0  0  0  0  0  0  0  0  0  0
  -26.9432  -18.3759   18.8178 C   0  0  0  0  0  0  0  0  0  0  0  0
  -27.7969  -11.3438   20.4028 C   0  0  0  0  0  0  0  0  0  0  0  0
  -28.3791  -18.6732   20.5547 C   0  0  0  0  0  0  0  0  0  0  0  0
  -27.8128   -8.8752   20.7952 C   0  0  0  0  0  0  0  0  0  0  0  0
  -22.4954  -29.6104   22.8088 C   0  0  0  0  0  0  0  0  0  0  0  0
  -24.9615  -31.5749   23.5711 C   0  0  0  0  0  0  0  0  0  0  0  0
  -28.2615  -31.9035   24.3765 C   0  0  0  0  0  0  0  0  0  0  0  0
  -26.1385  -16.2666   17.7733 C   0  0  0  0  0  0  0  0  0  0  0  0
  -17.9797  -31.8606   22.0322 C   0  0  0  0  0  0  0  0  0  0  0  0
  -23.3756  -28.5226   24.9060 C   0  0  0  0  0  0  0  0  0  0  0  0
  -25.5519  -29.1854   23.0168 C   0  0  0  0  0  0  0  0  0  0  0  0
  -19.4411  -32.2373   21.8025 C   0  0  0  0  0  0  0  0  0  0  0  0
  -27.3162  -16.0432   21.1187 C   0  0  0  0  0  0  0  0  0  0  0  0
  -20.1772  -31.1087   21.0874 C   0  0  0  0  0  0  0  0  0  0  0  0
  -27.1833  -14.5447   21.3880 C   0  0  0  0  0  0  0  0  0  0  0  0
  -27.7537  -19.2515   16.0798 C   0  0  0  0  0  0  0  0  0  0  0  0
  -27.9027  -17.8788   15.4947 C   0  0  0  0  0  0  0  0  0  0  0  0
  -26.3310  -22.7261   20.1404 C   0  0  0  0  0  0  0  0  0  0  0  0
  -26.1434  -16.5840   20.2999 C   0  0  0  0  0  0  0  0  0  0  0  0
  -25.7694  -14.3484   19.3066 C   0  0  0  0  0  0  0  0  0  0  0  0
  -20.1773  -29.8284   21.9313 C   0  0  1  0  0  0  0  0  0  0  0  0
  -25.9903  -21.3898   20.7639 C   0  0  2  0  0  0  0  0  0  0  0  0
  -23.3350  -29.7802   24.0433 C   0  0  1  0  0  0  0  0  0  0  0  0
  -26.7662  -22.4300   21.5447 C   0  0  2  0  0  0  0  0  0  0  0  0
  -26.9629  -13.7658   20.0793 C   0  0  2  0  0  0  0  0  0  0  0  0
  -26.6987  -18.2097   16.3335 C   0  0  0  0  0  0  0  0  0  0  0  0
  -25.0320  -19.9620   18.4189 C   0  0  0  0  0  0  0  0  0  0  0  0
  -29.5744  -18.2147   21.3191 C   0  0  0  0  0  0  0  0  0  0  0  0
  -29.9970  -33.6373   24.9052 C   0  0  0  0  0  0  0  0  0  0  0  0
  -25.1325  -32.3023   20.6128 C   0  0  0  0  0  0  0  0  0  0  0  0
  -27.4084  -33.2500   21.0489 C   0  0  0  0  0  0  0  0  0  0  0  0
  -25.4131  -34.2314   22.1793 C   0  0  0  0  0  0  0  0  0  0  0  0
  -28.7295  -30.7799   27.0742 C   0  0  0  0  0  0  0  0  0  0  0  0
  -26.1273  -23.1360   22.6907 C   0  0  0  0  0  0  0  0  0  1  0  0
  -26.2615  -31.9647   22.9100 C   0  0  1  0  0  0  0  0  0  0  0  0
  -28.9570  -32.6858   25.4760 C   0  0  2  0  0  0  0  0  0  0  0  0
  -26.0480  -32.9100   21.6942 C   0  0  0  0  0  0  0  0  0  0  0  0
  -25.5713  -11.7739   20.5005 N   0  0  0  0  0  0  0  0  0  0  0  0
  -27.7657  -19.7835   21.0067 N   0  0  0  0  0  0  0  0  0  0  0  0
  -28.0285  -17.9329   19.4858 N   0  0  0  0  0  0  0  0  0  0  0  0
  -26.8054  -12.2774   20.3283 N   0  0  0  0  0  0  0  0  0  0  0  0
  -24.6645  -30.2049   23.6003 N   0  0  0  0  0  0  0  0  0  0  0  0
  -25.9461  -15.7851   19.0822 N   0  0  0  0  0  0  0  0  0  0  0  0
  -29.0959  -11.6788   20.2523 N   0  0  0  0  0  0  0  0  0  0  0  0
  -27.0168   -7.7467   21.0344 N   0  0  0  0  0  0  0  0  0  0  0  0
  -21.1609  -29.9203   22.9890 N   0  0  0  0  0  0  0  0  0  0  0  0
  -27.1026  -32.5251   23.9622 N   0  0  0  0  0  0  0  0  0  0  0  0
  -26.5148  -17.6246   17.6601 N   0  0  0  0  0  0  0  0  0  0  0  0
  -29.6384  -31.7568   26.4212 N   0  3  0  0  0  0  0  0  0  0  0  0
  -29.0594   -8.7466   20.7395 O   0  0  0  0  0  0  0  0  0  0  0  0
  -23.0198  -29.2279   21.7694 O   0  0  0  0  0  0  0  0  0  0  0  0
  -24.2397  -32.4529   24.0504 O   0  0  0  0  0  0  0  0  0  0  0  0
  -28.7043  -30.8486   23.9274 O   0  0  0  0  0  0  0  0  0  0  0  0
  -25.9575  -15.5490   16.7821 O   0  0  0  0  0  0  0  0  0  0  0  0
  -21.5254   -6.9733   21.5650 O   0  0  0  0  0  0  0  0  0  0  0  0
  -26.7035  -24.4338   22.8329 O   0  0  0  0  0  0  0  0  0  1  0  0
  -22.0326   -3.2664   25.6154 F   0  0  0  0  0  0  0  0  0  0  0  0
  -19.7504   -6.9361   23.6841 F   0  0  0  0  0  0  0  0  0  0  0  0
  1  2  1  0  0  0  0
  1  5  2  0  0  0  0
  2  6  2  0  0  0  0
  3  8  2  0  0  0  0
  3 15  1  0  0  0  0
  4  9  1  0  0  0  0
  4 15  2  0  0  0  0
  5 17  1  0  0  0  0
  6 19  1  0  0  0  0
  7 10  2  0  0  0  0
  7 18  1  0  0  0  0
  8 22  1  0  0  0  0
  9 22  2  0  0  0  0
 10 23  1  0  0  0  0
 11 12  2  0  0  0  0
 11 24  1  0  0  0  0
 12 25  1  0  0  0  0
 13 20  1  0  0  0  0
 13 23  2  0  0  0  0
 14 25  2  0  0  0  0
 14 26  1  0  0  0  0
 15 27  1  0  0  0  0
 16 27  1  0  0  0  0
 16 30  2  0  0  0  0
 16 32  1  0  0  0  0
 17 19  2  0  0  0  0
 17 37  1  0  0  0  0
 18 20  2  0  0  0  0
 18 38  1  0  0  0  0
 19 49  1  0  0  0  0
 20 39  1  0  0  0  0
 21 28  2  0  0  0  0
 21 29  1  0  0  0  0
 21 55  1  0  0  0  0
 22 83  1  0  0  0  0
 23 84  1  0  0  0  0
 24 26  2  0  0  0  0
 24 83  1  0  0  0  0
 25 85  1  0  0  0  0
 26 86  1  0  0  0  0
 27 66  2  0  0  0  0
 28 50  1  0  0  0  0
 28 67  1  0  0  0  0
 29 68  2  0  0  0  0
 29 76  1  0  0  0  0
 30 69  1  0  0  0  0
 30 72  1  0  0  0  0
 31 56  1  0  0  0  0
 31 67  2  0  0  0  0
 31 68  1  0  0  0  0
 32 73  1  0  0  0  0
 32 78  2  0  0  0  0
 33 51  1  0  0  0  0
 33 74  1  0  0  0  0
 33 79  2  0  0  0  0
 34 63  1  0  0  0  0
 34 70  1  0  0  0  0
 34 80  2  0  0  0  0
 35 64  1  0  0  0  0
 35 75  1  0  0  0  0
 35 81  2  0  0  0  0
 36 71  1  0  0  0  0
 36 76  1  0  0  0  0
 36 82  2  0  0  0  0
 37 40  1  0  0  0  0
 38 51  1  0  0  0  0
 39 70  1  0  0  0  0
 40 42  1  0  0  0  0
 41 43  1  0  0  0  0
 41 47  1  0  0  0  0
 42 49  1  0  0  0  0
 43 53  1  0  0  0  0
 44 45  1  0  0  0  0
 44 54  1  0  0  0  0
 45 54  1  0  0  0  0
 46 50  1  0  0  0  0
 46 52  1  0  0  0  0
 47 71  1  0  0  0  0
 48 53  1  0  0  0  0
 48 71  1  0  0  0  0
 49 74  1  0  0  0  0
 50 52  1  0  0  0  0
 51 70  1  0  0  0  0
 52 62  1  0  0  0  0
 53 69  1  0  0  0  0
 54 76  1  0  0  0  0
 57 64  1  0  0  0  0
 58 65  1  0  0  0  0
 59 65  1  0  0  0  0
 60 65  1  0  0  0  0
 61 77  1  0  0  0  0
 62 84  1  0  0  0  0
 63 65  1  0  0  0  0
 63 75  1  0  0  0  0
 64 77  1  0  0  0  0
 66 69  1  0  0  0  0
M  CHG  1  77   1
M  ISO  4  36 100  62 101  76 100  84 101
M  END
> <Batch ID>
0182

> <Smiles>
CNC(C)C(=O)NC(C(=O)N1Cc2cc([101O:1][101CH2:1]C3CC3c3nc(C)nc([100N:0](C4CC4)[100C:0](=O)N4CCCC(n5nc(-c6ccc(Oc7ccc(F)cc7F)cc6)c(C(N)=O)c5N)C4)c3C)ccc2CC1C(=O)NC1CCCc2ccccc21)C(C)(C)C

> <Shape>
0.247

> <Color>
0.106

> <Negative vol penalty>
0.000

$$$$

  -OEChem-04052323053D

 86 96  0     1  0  0  0  0  0999 V2000
  -22.2972  -32.3755   14.4827 C   0  0  0  0  0  0  0  0  0  0  0  0
  -23.4363  -31.7633   14.9956 C   0  0  0  0  0  0  0  0  0  0  0  0
  -21.9282  -11.9797   21.4983 C   0  0  0  0  0  0  0  0  0  0  0  0
  -22.5818  -10.5790   19.6415 C   0  0  0  0  0  0  0  0  0  0  0  0
  -21.6392  -33.3549   15.2255 C   0  0  0  0  0  0  0  0  0  0  0  0
  -23.9186  -32.1309   16.2513 C   0  0  0  0  0  0  0  0  0  0  0  0
  -25.1951  -28.1350   19.0882 C   0  0  0  0  0  0  0  0  0  0  0  0
  -20.6321  -11.4693   21.4273 C   0  0  0  0  0  0  0  0  0  0  0  0
  -21.2856  -10.0684   19.5705 C   0  0  0  0  0  0  0  0  0  0  0  0
  -26.4140  -27.5188   18.8084 C   0  0  0  0  0  0  0  0  0  0  0  0
  -19.0030   -8.6657   22.3859 C   0  0  0  0  0  0  0  0  0  0  0  0
  -18.3850   -8.2971   23.5808 C   0  0  0  0  0  0  0  0  0  0  0  0
  -27.4239  -28.6892   20.6603 C   0  0  0  0  0  0  0  0  0  0  0  0
  -16.6246   -9.8986   23.1644 C   0  0  0  0  0  0  0  0  0  0  0  0
  -30.3907  -24.2345   20.2900 C   0  0  0  0  0  0  0  0  0  0  0  0
  -22.9030  -11.5346   20.6054 C   0  0  0  0  0  0  0  0  0  0  0  0
  -25.3147  -11.5566   21.4366 C   0  0  0  0  0  0  0  0  0  0  0  0
  -22.1081  -33.7278   16.4950 C   0  0  0  0  0  0  0  0  0  0  0  0
  -25.0839  -29.0427   20.1513 C   0  0  0  0  0  0  0  0  0  0  0  0
  -23.2669  -33.1171   17.0112 C   0  0  0  0  0  0  0  0  0  0  0  0
  -26.2018  -29.3136   20.9531 C   0  0  0  0  0  0  0  0  0  0  0  0
  -29.4894  -23.6492   21.1556 C   0  0  0  0  0  0  0  0  0  0  0  0
  -20.3108  -10.5136   20.4634 C   0  0  0  0  0  0  0  0  0  0  0  0
  -27.5294  -27.7980   19.5927 C   0  0  0  0  0  0  0  0  0  0  0  0
  -18.4318   -9.6508   21.5803 C   0  0  0  0  0  0  0  0  0  0  0  0
  -17.1958   -8.9135   23.9701 C   0  0  0  0  0  0  0  0  0  0  0  0
  -17.2426  -10.2672   21.9695 C   0  0  0  0  0  0  0  0  0  0  0  0
  -24.2420  -12.0620   20.6780 C   0  0  0  0  0  0  0  0  0  0  0  0
  -28.3152  -24.3460   21.3559 C   0  0  0  0  0  0  0  0  0  0  0  0
  -26.3591  -12.4056   21.1626 C   0  0  0  0  0  0  0  0  0  0  0  0
  -28.9909  -25.9909   19.9401 C   0  0  0  0  0  0  0  0  0  1  0  0
  -25.3629  -10.4211   22.3108 C   0  0  0  0  0  0  0  0  0  0  0  0
  -24.3554  -32.1267   20.4005 C   0  0  0  0  0  0  0  0  0  0  0  0
  -24.4865  -31.5005   23.5806 C   0  0  0  0  0  0  0  0  0  0  0  0
  -25.6849  -29.5339   26.0992 C   0  0  0  0  0  0  0  0  0  0  0  0
  -28.5056  -17.2806   20.4942 C   0  0  0  0  0  0  0  0  0  0  0  0
  -21.3904  -34.8250   17.2405 C   0  0  0  0  0  0  0  0  0  0  0  0
  -23.7554  -29.6787   20.4565 C   0  0  0  0  0  0  0  0  0  0  0  0
  -26.1301  -30.2651   22.1184 C   0  0  0  0  0  0  0  0  0  0  0  0
  -21.7501  -34.8906   18.7226 C   0  0  0  0  0  0  0  0  0  0  0  0
  -26.8512  -16.0162   17.6644 C   0  0  0  0  0  0  0  0  0  0  0  0
  -23.2615  -34.8030   18.9095 C   0  0  0  0  0  0  0  0  0  0  0  0
  -26.3090  -24.7469   22.9334 C   0  0  0  0  0  0  0  0  0  0  0  0
  -27.3740  -24.0817   23.7481 C   0  0  0  0  0  0  0  0  0  0  0  0
  -26.1024  -14.8237   18.2587 C   0  0  0  0  0  0  0  0  0  0  0  0
  -26.8274  -17.2299   18.5952 C   0  0  0  0  0  0  0  0  0  0  0  0
  -28.1591  -19.6440   19.6464 C   0  0  0  0  0  0  0  0  0  0  0  0
  -30.3963  -18.8719   20.3440 C   0  0  0  0  0  0  0  0  0  0  0  0
  -26.5581  -15.7517   20.5603 C   0  0  0  0  0  0  0  0  0  0  0  0
  -28.2312  -20.7902   20.6503 C   0  0  0  0  0  0  0  0  0  0  0  0
  -30.4918  -19.9870   21.3725 C   0  0  0  0  0  0  0  0  0  0  0  0
  -23.8066  -33.4711   18.3800 C   0  0  1  0  0  0  0  0  0  0  0  0
  -27.2719  -23.7970   22.2740 C   0  0  0  0  0  0  0  0  0  0  0  0
  -23.8823  -30.9781   21.2458 C   0  0  1  0  0  0  0  0  0  0  0  0
  -26.6151  -14.4987   19.6729 C   0  0  1  0  0  0  0  0  0  0  0  0
  -25.6503  -29.2931   28.5968 C   0  0  0  0  0  0  0  0  0  0  0  0
  -26.4529  -33.8203   23.8292 C   0  0  0  0  0  0  0  0  0  0  0  0
  -27.0939  -32.9440   26.0851 C   0  0  0  0  0  0  0  0  0  0  0  0
  -24.7529  -33.6931   25.6590 C   0  0  0  0  0  0  0  0  0  0  0  0
  -24.4257  -26.8604   25.9400 C   0  0  0  0  0  0  0  0  0  0  0  0
  -29.7953  -22.3406   21.8227 C   0  0  0  0  0  0  0  0  0  0  0  0
  -25.5688  -31.5314   24.6326 C   0  0  1  0  0  0  0  0  0  0  0  0
  -24.9953  -28.8858   27.2861 C   0  0  2  0  0  0  0  0  0  0  0  0
  -25.9693  -32.9807   25.0284 C   0  0  0  0  0  0  0  0  0  0  0  0
  -30.1732  -25.4089   19.6625 N   0  0  0  0  0  0  0  0  0  0  0  0
  -24.5741  -13.1480   19.9750 N   0  0  0  0  0  0  0  0  0  0  0  0
  -28.0320  -25.5240   20.7623 N   0  0  0  0  0  0  0  0  0  0  0  0
  -25.8674  -13.3320   20.2908 N   0  0  0  0  0  0  0  0  0  0  0  0
  -24.8106  -30.8665   22.3727 N   0  0  0  0  0  0  0  0  0  0  0  0
  -27.2857  -16.8622   19.9422 N   0  0  0  0  0  0  0  0  0  0  0  0
  -29.0044  -18.5212   20.0702 N   0  0  0  0  0  0  0  0  0  0  0  0
  -27.6407  -12.4426   21.5849 N   0  0  0  0  0  0  0  0  0  0  0  0
  -24.1999   -9.6573   22.4786 N   0  0  0  0  0  0  0  0  0  0  0  0
  -23.5383  -32.4051   19.3214 N   0  0  0  0  0  0  0  0  0  0  0  0
  -25.0813  -30.7216   25.7438 N   0  0  0  0  0  0  0  0  0  0  0  0
  -29.6734  -21.1640   20.8952 N   0  3  0  0  0  0  0  0  0  0  0  0
  -25.0549  -27.4010   27.1724 N   0  3  0  0  0  0  0  0  0  0  0  0
  -26.4020  -10.1033   22.9376 O   0  0  0  0  0  0  0  0  0  0  0  0
  -25.3846  -32.7176   20.7056 O   0  0  0  0  0  0  0  0  0  0  0  0
  -23.3915  -32.0135   23.8243 O   0  0  0  0  0  0  0  0  0  0  0  0
  -26.6637  -29.0383   25.5452 O   0  0  0  0  0  0  0  0  0  0  0  0
  -29.1136  -16.5863   21.3187 O   0  0  0  0  0  0  0  0  0  0  0  0
  -19.0462  -10.0151   20.3939 O   0  0  0  0  0  0  0  0  0  0  0  0
  -28.7356  -27.1908   19.3179 O   0  0  0  0  0  0  0  0  0  1  0  0
  -16.6017   -8.5584   25.1168 F   0  0  0  0  0  0  0  0  0  0  0  0
  -16.6886  -11.2134   21.1991 F   0  0  0  0  0  0  0  0  0  0  0  0
  1  2  1  0  0  0  0
  1  5  2  0  0  0  0
  2  6  2  0  0  0  0
  3  8  2  0  0  0  0
  3 16  1  0  0  0  0
  4  9  1  0  0  0  0
  4 16  2  0  0  0  0
  5 18  1  0  0  0  0
  6 20  1  0  0  0  0
  7 10  2  0  0  0  0
  7 19  1  0  0  0  0
  8 23  1  0  0  0  0
  9 23  2  0  0  0  0
 10 24  1  0  0  0  0
 11 12  2  0  0  0  0
 11 25  1  0  0  0  0
 12 26  1  0  0  0  0
 13 21  1  0  0  0  0
 13 24  2  0  0  0  0
 14 26  2  0  0  0  0
 14 27  1  0  0  0  0
 15 22  1  0  0  0  0
 15 65  2  0  0  0  0
 16 28  1  0  0  0  0
 17 28  1  0  0  0  0
 17 30  2  0  0  0  0
 17 32  1  0  0  0  0
 18 20  2  0  0  0  0
 18 37  1  0  0  0  0
 19 21  2  0  0  0  0
 19 38  1  0  0  0  0
 20 52  1  0  0  0  0
 21 39  1  0  0  0  0
 22 29  2  0  0  0  0
 22 61  1  0  0  0  0
 23 83  1  0  0  0  0
 24 84  1  0  0  0  0
 25 27  2  0  0  0  0
 25 83  1  0  0  0  0
 26 85  1  0  0  0  0
 27 86  1  0  0  0  0
 28 66  2  0  0  0  0
 29 53  1  0  0  0  0
 29 67  1  0  0  0  0
 30 68  1  0  0  0  0
 30 72  1  0  0  0  0
 31 65  1  0  0  0  0
 31 67  2  0  0  0  0
 31 84  1  0  0  0  0
 32 73  1  0  0  0  0
 32 78  2  0  0  0  0
 33 54  1  0  0  0  0
 33 74  1  0  0  0  0
 33 79  2  0  0  0  0
 34 62  1  0  0  0  0
 34 69  1  0  0  0  0
 34 80  2  0  0  0  0
 35 63  1  0  0  0  0
 35 75  1  0  0  0  0
 35 81  2  0  0  0  0
 36 70  1  0  0  0  0
 36 71  1  0  0  0  0
 36 82  2  0  0  0  0
 37 40  1  0  0  0  0
 38 54  1  0  0  0  0
 39 69  1  0  0  0  0
 40 42  1  0  0  0  0
 41 45  1  0  0  0  0
 41 46  1  0  0  0  0
 42 52  1  0  0  0  0
 43 44  1  0  0  0  0
 43 53  1  0  0  0  0
 44 53  1  0  0  0  0
 45 55  1  0  0  0  0
 46 70  1  0  0  0  0
 47 50  1  0  0  0  0
 47 71  1  0  0  0  0
 48 51  1  0  0  0  0
 48 71  1  0  0  0  0
 49 55  1  0  0  0  0
 49 70  1  0  0  0  0
 50 76  1  0  0  0  0
 51 76  1  0  0  0  0
 52 74  1  0  0  0  0
 54 69  1  0  0  0  0
 55 68  1  0  0  0  0
 56 63  1  0  0  0  0
 57 64  1  0  0  0  0
 58 64  1  0  0  0  0
 59 64  1  0  0  0  0
 60 77  1  0  0  0  0
 61 76  1  0  0  0  0
 62 64  1  0  0  0  0
 62 75  1  0  0  0  0
 63 77  1  0  0  0  0
 66 68  1  0  0  0  0
M  CHG  2  76   1  77   1
M  ISO  4  31 101  36 100  71 100  84 101
M  END
> <Batch ID>
0182

> <Smiles>
CNC(C)C(=O)NC(C(=O)N1Cc2cc([101O:1][101c:1]3ncc(CN4CC[100N:0]([100C:0](=O)N5CCCC(n6nc(-c7ccc(Oc8ccc(F)cc8F)cc7)c(C(N)=O)c6N)C5)CC4)c(C4CC4)n3)ccc2CC1C(=O)NC1CCCc2ccccc21)C(C)(C)C

> <Shape>
0.258

> <Color>
0.094

> <Negative vol penalty>
0.000

$$$$

  -OEChem-04052323053D

 85 94  0     1  0  0  0  0  0999 V2000
  -30.3200  -21.1532   16.2075 C   0  0  0  0  0  0  0  0  0  0  0  0
  -30.0271  -21.3288   17.5561 C   0  0  0  0  0  0  0  0  0  0  0  0
  -27.9527  -14.5548   19.8930 C   0  0  0  0  0  0  0  0  0  0  0  0
  -26.8996  -14.7241   22.0608 C   0  0  0  0  0  0  0  0  0  0  0  0
  -30.4244  -22.2614   15.3679 C   0  0  0  0  0  0  0  0  0  0  0  0
  -29.8394  -22.6130   18.0662 C   0  0  0  0  0  0  0  0  0  0  0  0
  -25.8136  -22.9202   21.1228 C   0  0  0  0  0  0  0  0  0  0  0  0
  -27.3547  -13.3096   19.6997 C   0  0  0  0  0  0  0  0  0  0  0  0
  -26.3015  -13.4789   21.8674 C   0  0  0  0  0  0  0  0  0  0  0  0
  -25.9613  -22.4339   22.4211 C   0  0  0  0  0  0  0  0  0  0  0  0
  -23.6545  -12.2236   20.1827 C   0  0  0  0  0  0  0  0  0  0  0  0
  -22.3045  -12.0969   20.5101 C   0  0  0  0  0  0  0  0  0  0  0  0
  -26.2782  -24.6871   23.2225 C   0  0  0  0  0  0  0  0  0  0  0  0
  -22.8558  -10.3817   22.1198 C   0  0  0  0  0  0  0  0  0  0  0  0
  -32.1529  -22.3895   28.6684 C   0  0  0  0  0  0  0  0  0  0  0  0
  -27.7252  -15.2620   21.0736 C   0  0  0  0  0  0  0  0  0  0  0  0
  -27.8202  -17.8068   20.9221 C   0  0  0  0  0  0  0  0  0  0  0  0
  -30.2285  -23.5591   15.8659 C   0  0  0  0  0  0  0  0  0  0  0  0
  -25.9081  -24.2949   20.8626 C   0  0  0  0  0  0  0  0  0  0  0  0
  -29.9426  -23.7397   17.2327 C   0  0  0  0  0  0  0  0  0  0  0  0
  -26.1288  -25.1884   21.9204 C   0  0  0  0  0  0  0  0  0  0  0  0
  -26.5290  -12.7717   20.6868 C   0  0  0  0  0  0  0  0  0  0  0  0
  -26.1965  -23.3171   23.4707 C   0  0  0  0  0  0  0  0  0  0  0  0
  -24.6051  -11.4292   20.8239 C   0  0  0  0  0  0  0  0  0  0  0  0
  -21.9051  -11.1760   21.4786 C   0  0  0  0  0  0  0  0  0  0  0  0
  -24.2057  -10.5083   21.7924 C   0  0  0  0  0  0  0  0  0  0  0  0
  -28.3432  -16.5481   21.2742 C   0  0  0  0  0  0  0  0  0  0  0  0
  -29.9975  -21.2988   27.5318 C   0  0  0  0  0  0  0  0  0  0  0  0
  -30.8832  -22.7322   29.0781 C   0  0  0  0  0  0  0  0  0  0  0  0
  -31.2673  -20.9568   27.1217 C   0  0  0  0  0  0  0  0  0  0  0  0
  -28.7825  -18.7021   21.3206 C   0  0  0  0  0  0  0  0  0  0  0  0
  -26.5758  -18.1370   20.2912 C   0  0  0  0  0  0  0  0  0  0  0  0
  -28.7712  -20.7184   26.9266 C   0  0  0  0  0  0  0  0  0  0  0  0
  -27.8445  -26.1209   19.1248 C   0  0  0  0  0  0  0  0  0  0  0  0
  -25.7625  -28.4596   19.9726 C   0  0  0  0  0  0  0  0  0  0  0  0
  -23.4171  -29.5905   22.1787 C   0  0  0  0  0  0  0  0  0  0  0  0
  -32.6339  -19.5500   25.5406 C   0  0  0  0  0  0  0  0  0  0  0  0
  -30.3982  -24.7293   14.9297 C   0  0  0  0  0  0  0  0  0  0  0  0
  -25.7199  -24.8059   19.4605 C   0  0  0  0  0  0  0  0  0  0  0  0
  -26.2186  -26.6752   21.6969 C   0  0  0  0  0  0  0  0  0  0  0  0
  -29.8153  -26.0321   15.4711 C   0  0  0  0  0  0  0  0  0  0  0  0
  -33.6202  -18.4055   22.3165 C   0  0  0  0  0  0  0  0  0  0  0  0
  -30.2354  -26.2424   16.9224 C   0  0  0  0  0  0  0  0  0  0  0  0
  -29.8463  -24.9427   29.9221 C   0  0  0  0  0  0  0  0  0  0  0  0
  -31.3311  -25.0877   30.0421 C   0  0  0  0  0  0  0  0  0  0  0  0
  -32.3097  -17.9325   21.6832 C   0  0  0  0  0  0  0  0  0  0  0  0
  -33.6711  -18.0971   23.8119 C   0  0  0  0  0  0  0  0  0  0  0  0
  -31.2115  -18.1113   23.9523 C   0  0  0  0  0  0  0  0  0  0  0  0
  -29.7079  -25.1152   17.8183 C   0  0  1  0  0  0  0  0  0  0  0  0
  -30.6993  -23.7249   30.1717 C   0  0  0  0  0  0  0  0  0  0  0  0
  -26.3471  -26.1782   19.2354 C   0  0  1  0  0  0  0  0  0  0  0  0
  -31.0866  -18.4582   22.4597 C   0  0  2  0  0  0  0  0  0  0  0  0
  -21.9198  -31.5536   22.6278 C   0  0  0  0  0  0  0  0  0  0  0  0
  -28.1589  -30.0520   20.9879 C   0  0  0  0  0  0  0  0  0  0  0  0
  -26.5648  -31.5142   22.2485 C   0  0  0  0  0  0  0  0  0  0  0  0
  -26.4523  -31.4052   19.7589 C   0  0  0  0  0  0  0  0  0  0  0  0
  -20.9781  -27.9291   21.9548 C   0  0  0  0  0  0  0  0  0  0  0  0
  -26.3781  -21.1053   26.3978 C   0  0  0  0  0  0  0  0  0  0  0  0
  -26.2413  -21.4334   24.9218 C   0  0  0  0  0  0  0  0  0  1  0  0
  -25.6565  -29.4310   21.1232 C   0  0  1  0  0  0  0  0  0  0  0  0
  -22.0391  -30.1903   21.9645 C   0  0  2  0  0  0  0  0  0  0  0  0
  -26.7084  -30.5725   21.0339 C   0  0  0  0  0  0  0  0  0  0  0  0
  -32.3678  -21.4958   27.6828 N   0  0  0  0  0  0  0  0  0  0  0  0
  -29.5446  -16.6322   21.8519 N   0  0  0  0  0  0  0  0  0  0  0  0
  -29.7827  -22.1929   28.5172 N   0  0  0  0  0  0  0  0  0  0  0  0
  -29.7845  -17.9545   21.8657 N   0  0  0  0  0  0  0  0  0  0  0  0
  -26.0341  -27.1254   20.3074 N   0  0  0  0  0  0  0  0  0  0  0  0
  -32.4827  -18.6288   24.4826 N   0  0  0  0  0  0  0  0  0  0  0  0
  -28.8608  -20.0482   21.2544 N   0  0  0  0  0  0  0  0  0  0  0  0
  -25.7035  -17.0951   19.9480 N   0  0  0  0  0  0  0  0  0  0  0  0
  -31.4333  -20.0112   26.0795 N   0  0  0  0  0  0  0  0  0  0  0  0
  -27.6463  -21.5337   26.9257 N   0  0  0  0  0  0  0  0  0  0  0  0
  -28.3025  -25.3115   18.1028 N   0  0  0  0  0  0  0  0  0  0  0  0
  -24.2730  -29.8935   21.1409 N   0  0  0  0  0  0  0  0  0  0  0  0
  -20.9911  -29.2970   22.5342 N   0  3  0  0  0  0  0  0  0  0  0  0
  -26.2543  -19.3199   20.0245 O   0  0  0  0  0  0  0  0  0  0  0  0
  -28.8036  -19.5718   26.4875 O   0  0  0  0  0  0  0  0  0  0  0  0
  -28.5332  -26.7647   19.9077 O   0  0  0  0  0  0  0  0  0  0  0  0
  -25.6029  -28.8680   18.8196 O   0  0  0  0  0  0  0  0  0  0  0  0
  -23.7065  -28.9233   23.1694 O   0  0  0  0  0  0  0  0  0  0  0  0
  -33.7461  -19.9246   25.9210 O   0  0  0  0  0  0  0  0  0  0  0  0
  -25.9450  -11.5567   20.4984 O   0  0  0  0  0  0  0  0  0  0  0  0
  -26.3417  -22.8451   24.7388 O   0  0  0  0  0  0  0  0  0  1  0  0
  -20.6089  -11.0556   21.7939 F   0  0  0  0  0  0  0  0  0  0  0  0
  -25.1145   -9.7433   22.4127 F   0  0  0  0  0  0  0  0  0  0  0  0
  1  2  1  0  0  0  0
  1  5  2  0  0  0  0
  2  6  2  0  0  0  0
  3  8  2  0  0  0  0
  3 16  1  0  0  0  0
  4  9  1  0  0  0  0
  4 16  2  0  0  0  0
  5 18  1  0  0  0  0
  6 20  1  0  0  0  0
  7 10  2  0  0  0  0
  7 19  1  0  0  0  0
  8 22  1  0  0  0  0
  9 22  2  0  0  0  0
 10 23  1  0  0  0  0
 11 12  2  0  0  0  0
 11 24  1  0  0  0  0
 12 25  1  0  0  0  0
 13 21  1  0  0  0  0
 13 23  2  0  0  0  0
 14 25  2  0  0  0  0
 14 26  1  0  0  0  0
 15 29  1  0  0  0  0
 15 63  2  0  0  0  0
 16 27  1  0  0  0  0
 17 27  1  0  0  0  0
 17 31  2  0  0  0  0
 17 32  1  0  0  0  0
 18 20  2  0  0  0  0
 18 38  1  0  0  0  0
 19 21  2  0  0  0  0
 19 39  1  0  0  0  0
 20 49  1  0  0  0  0
 21 40  1  0  0  0  0
 22 82  1  0  0  0  0
 23 83  1  0  0  0  0
 24 26  2  0  0  0  0
 24 82  1  0  0  0  0
 25 84  1  0  0  0  0
 26 85  1  0  0  0  0
 27 64  2  0  0  0  0
 28 30  2  0  0  0  0
 28 33  1  0  0  0  0
 28 65  1  0  0  0  0
 29 50  1  0  0  0  0
 29 65  2  0  0  0  0
 30 63  1  0  0  0  0
 30 71  1  0  0  0  0
 31 66  1  0  0  0  0
 31 69  1  0  0  0  0
 32 70  1  0  0  0  0
 32 76  2  0  0  0  0
 33 72  1  0  0  0  0
 33 77  2  0  0  0  0
 34 51  1  0  0  0  0
 34 73  1  0  0  0  0
 34 78  2  0  0  0  0
 35 60  1  0  0  0  0
 35 67  1  0  0  0  0
 35 79  2  0  0  0  0
 36 61  1  0  0  0  0
 36 74  1  0  0  0  0
 36 80  2  0  0  0  0
 37 68  1  0  0  0  0
 37 71  1  0  0  0  0
 37 81  2  0  0  0  0
 38 41  1  0  0  0  0
 39 51  1  0  0  0  0
 40 67  1  0  0  0  0
 41 43  1  0  0  0  0
 42 46  1  0  0  0  0
 42 47  1  0  0  0  0
 43 49  1  0  0  0  0
 44 45  1  0  0  0  0
 44 50  1  0  0  0  0
 45 50  1  0  0  0  0
 46 52  1  0  0  0  0
 47 68  1  0  0  0  0
 48 52  1  0  0  0  0
 48 68  1  0  0  0  0
 49 73  1  0  0  0  0
 51 67  1  0  0  0  0
 52 66  1  0  0  0  0
 53 61  1  0  0  0  0
 54 62  1  0  0  0  0
 55 62  1  0  0  0  0
 56 62  1  0  0  0  0
 57 75  1  0  0  0  0
 58 59  1  0  0  0  0
 58 72  1  0  0  0  0
 59 83  1  0  0  0  0
 60 62  1  0  0  0  0
 60 74  1  0  0  0  0
 61 75  1  0  0  0  0
 64 66  1  0  0  0  0
M  CHG  1  75   1
M  ISO  4  37 100  59 101  71 100  83 101
M  END
> <Batch ID>
0182

> <Smiles>
CNC(C)C(=O)NC(C(=O)N1Cc2cc([101O:1][101CH2:1]CNC(=O)c3nc(C4CC4)cnc3[100NH:0][100C:0](=O)N3CCCC(n4nc(-c5ccc(Oc6ccc(F)cc6F)cc5)c(C(N)=O)c4N)C3)ccc2CC1C(=O)NC1CCCc2ccccc21)C(C)(C)C

> <Shape>
0.208

> <Color>
0.071

> <Negative vol penalty>
0.000

$$$$

  -OEChem-04052323053D

 85 94  0     1  0  0  0  0  0999 V2000
  -24.3249  -16.6895   25.2668 C   0  0  0  0  0  0  0  0  0  0  0  0
  -25.0709  -17.6707   24.6216 C   0  0  0  0  0  0  0  0  0  0  0  0
  -25.4525  -13.7507   21.4479 C   0  0  0  0  0  0  0  0  0  0  0  0
  -27.2874  -13.0792   20.0268 C   0  0  0  0  0  0  0  0  0  0  0  0
  -22.9336  -16.7760   25.2902 C   0  0  0  0  0  0  0  0  0  0  0  0
  -24.4259  -18.7383   23.9984 C   0  0  0  0  0  0  0  0  0  0  0  0
  -26.6214  -23.1894   25.0046 C   0  0  0  0  0  0  0  0  0  0  0  0
  -24.6740  -12.7145   20.9323 C   0  0  0  0  0  0  0  0  0  0  0  0
  -26.5089  -12.0429   19.5113 C   0  0  0  0  0  0  0  0  0  0  0  0
  -27.7883  -23.4962   24.3061 C   0  0  0  0  0  0  0  0  0  0  0  0
  -24.3734   -9.3740   21.3609 C   0  0  0  0  0  0  0  0  0  0  0  0
  -23.6419   -8.6020   22.2634 C   0  0  0  0  0  0  0  0  0  0  0  0
  -26.5144  -24.8842   22.7995 C   0  0  0  0  0  0  0  0  0  0  0  0
  -21.5939   -9.2495   21.1572 C   0  0  0  0  0  0  0  0  0  0  0  0
  -31.0382  -26.5039   21.3575 C   0  0  0  0  0  0  0  0  0  0  0  0
  -26.7592  -13.9331   20.9951 C   0  0  0  0  0  0  0  0  0  0  0  0
  -28.4135  -14.9523   22.6480 C   0  0  0  0  0  0  0  0  0  0  0  0
  -22.2716  -17.8504   24.6753 C   0  0  0  0  0  0  0  0  0  0  0  0
  -25.3885  -23.7200   24.5986 C   0  0  0  0  0  0  0  0  0  0  0  0
  -23.0243  -18.8386   24.0125 C   0  0  0  0  0  0  0  0  0  0  0  0
  -25.3337  -24.5848   23.4962 C   0  0  0  0  0  0  0  0  0  0  0  0
  -25.2022  -11.8606   19.9641 C   0  0  0  0  0  0  0  0  0  0  0  0
  -27.7345  -24.3414   23.2016 C   0  0  0  0  0  0  0  0  0  0  0  0
  -23.7152  -10.0838   20.3566 C   0  0  0  0  0  0  0  0  0  0  0  0
  -22.2522   -8.5397   22.1615 C   0  0  0  0  0  0  0  0  0  0  0  0
  -22.3254  -10.0215   20.2548 C   0  0  0  0  0  0  0  0  0  0  0  0
  -27.5637  -15.0036   21.5269 C   0  0  0  0  0  0  0  0  0  0  0  0
  -30.0917  -25.6989   20.7628 C   0  0  0  0  0  0  0  0  0  0  0  0
  -32.4973  -26.0442   19.6578 C   0  0  0  0  0  0  0  0  0  0  0  0
  -31.5511  -25.2386   19.0633 C   0  0  0  0  0  0  0  0  0  0  0  0
  -28.9443  -16.2161   22.7348 C   0  0  0  0  0  0  0  0  0  0  0  0
  -28.6977  -13.8598   23.5320 C   0  0  0  0  0  0  0  0  0  0  0  0
  -22.6461  -22.4871   23.5675 C   0  0  0  0  0  0  0  0  0  0  0  0
  -21.6457  -25.5679   23.7415 C   0  0  0  0  0  0  0  0  0  0  0  0
  -22.4581  -28.8825   23.7371 C   0  0  0  0  0  0  0  0  0  0  0  0
  -29.8733  -20.3783   18.6629 C   0  0  0  0  0  0  0  0  0  0  0  0
  -20.7636  -17.8760   24.6863 C   0  0  0  0  0  0  0  0  0  0  0  0
  -24.1428  -23.4007   25.3789 C   0  0  0  0  0  0  0  0  0  0  0  0
  -24.0382  -25.1967   23.0319 C   0  0  0  0  0  0  0  0  0  0  0  0
  -20.1749  -19.2372   24.3243 C   0  0  0  0  0  0  0  0  0  0  0  0
  -27.9407  -20.7784   21.6952 C   0  0  0  0  0  0  0  0  0  0  0  0
  -20.8662  -19.8065   23.0895 C   0  0  0  0  0  0  0  0  0  0  0  0
  -27.7091  -19.3217   22.1004 C   0  0  0  0  0  0  0  0  0  0  0  0
  -31.4325  -23.3481   15.7599 C   0  0  0  0  0  0  0  0  0  0  0  0
  -30.9023  -21.9287   16.0554 C   0  0  0  0  0  0  0  0  0  0  0  0
  -27.8781  -20.9485   20.1799 C   0  0  0  0  0  0  0  0  0  0  0  0
  -28.5821  -18.6146   19.8259 C   0  0  0  0  0  0  0  0  0  0  0  0
  -22.3622  -20.0252   23.3463 C   0  0  1  0  0  0  0  0  0  0  0  0
  -22.8648  -23.5875   24.5670 C   0  0  1  0  0  0  0  0  0  0  0  0
  -28.6576  -18.3728   21.3443 C   0  0  2  0  0  0  0  0  0  0  0  0
  -30.9464  -23.7399   17.1722 C   0  0  1  0  0  0  0  0  0  0  0  0
  -31.0963  -22.2472   17.5579 C   0  0  1  0  0  0  0  0  0  0  0  0
  -34.7712  -25.0561   19.2838 C   0  0  0  0  0  0  0  0  0  0  0  0
  -21.4218  -31.1649   23.8565 C   0  0  0  0  0  0  0  0  0  0  0  0
  -20.7451  -25.3082   20.8378 C   0  0  0  0  0  0  0  0  0  0  0  0
  -20.6142  -27.8060   20.7280 C   0  0  0  0  0  0  0  0  0  0  0  0
  -19.1559  -26.5510   22.3158 C   0  0  0  0  0  0  0  0  0  0  0  0
  -23.9121  -29.5394   26.2298 C   0  0  0  0  0  0  0  0  0  0  0  0
  -33.8465  -26.2490   19.0556 C   0  0  0  0  0  0  0  0  0  0  0  0
  -28.7438  -25.5144   21.3957 C   0  0  0  0  0  0  0  0  0  1  0  0
  -21.6313  -26.7425   22.7933 C   0  0  1  0  0  0  0  0  0  0  0  0
  -22.0408  -30.0231   24.6478 C   0  0  2  0  0  0  0  0  0  0  0  0
  -20.5609  -26.5890   21.6761 C   0  0  0  0  0  0  0  0  0  0  0  0
  -32.2579  -26.6910   20.8156 N   0  0  0  0  0  0  0  0  0  0  0  0
  -27.5521  -16.2050   20.9433 N   0  0  0  0  0  0  0  0  0  0  0  0
  -30.3312  -25.0518   19.6050 N   0  0  0  0  0  0  0  0  0  0  0  0
  -28.4010  -16.9203   21.7007 N   0  0  0  0  0  0  0  0  0  0  0  0
  -22.8467  -24.8491   23.8238 N   0  0  0  0  0  0  0  0  0  0  0  0
  -28.8185  -20.0302   19.5215 N   0  0  0  0  0  0  0  0  0  0  0  0
  -29.8179  -16.7826   23.5939 N   0  0  0  0  0  0  0  0  0  0  0  0
  -28.0665  -12.6303   23.2992 N   0  0  0  0  0  0  0  0  0  0  0  0
  -31.8638  -24.5865   17.8492 N   0  0  0  0  0  0  0  0  0  0  0  0
  -22.5708  -21.2258   24.1269 N   0  0  0  0  0  0  0  0  0  0  0  0
  -21.4653  -27.9328   23.6204 N   0  0  0  0  0  0  0  0  0  0  0  0
  -30.0411  -21.7377   18.4213 N   0  0  0  0  0  0  0  0  0  0  0  0
  -23.2200  -30.5511   25.3905 N   0  3  0  0  0  0  0  0  0  0  0  0
  -29.4755  -13.9753   24.5094 O   0  0  0  0  0  0  0  0  0  0  0  0
  -22.5512  -22.7622   22.3771 O   0  0  0  0  0  0  0  0  0  0  0  0
  -20.6310  -25.3024   24.3908 O   0  0  0  0  0  0  0  0  0  0  0  0
  -23.5537  -28.8403   23.1818 O   0  0  0  0  0  0  0  0  0  0  0  0
  -30.6224  -19.5411   18.1476 O   0  0  0  0  0  0  0  0  0  0  0  0
  -24.4429  -10.8492   19.4609 O   0  0  0  0  0  0  0  0  0  0  0  0
  -28.8720  -24.6419   22.5176 O   0  0  0  0  0  0  0  0  0  1  0  0
  -21.5499   -7.7970   23.0273 F   0  0  0  0  0  0  0  0  0  0  0  0
  -21.6876  -10.7003   19.2913 F   0  0  0  0  0  0  0  0  0  0  0  0
  1  2  1  0  0  0  0
  1  5  2  0  0  0  0
  2  6  2  0  0  0  0
  3  8  2  0  0  0  0
  3 16  1  0  0  0  0
  4  9  1  0  0  0  0
  4 16  2  0  0  0  0
  5 18  1  0  0  0  0
  6 20  1  0  0  0  0
  7 10  2  0  0  0  0
  7 19  1  0  0  0  0
  8 22  1  0  0  0  0
  9 22  2  0  0  0  0
 10 23  1  0  0  0  0
 11 12  2  0  0  0  0
 11 24  1  0  0  0  0
 12 25  1  0  0  0  0
 13 21  1  0  0  0  0
 13 23  2  0  0  0  0
 14 25  2  0  0  0  0
 14 26  1  0  0  0  0
 15 28  1  0  0  0  0
 15 64  2  0  0  0  0
 16 27  1  0  0  0  0
 17 27  1  0  0  0  0
 17 31  2  0  0  0  0
 17 32  1  0  0  0  0
 18 20  2  0  0  0  0
 18 37  1  0  0  0  0
 19 21  2  0  0  0  0
 19 38  1  0  0  0  0
 20 48  1  0  0  0  0
 21 39  1  0  0  0  0
 22 82  1  0  0  0  0
 23 83  1  0  0  0  0
 24 26  2  0  0  0  0
 24 82  1  0  0  0  0
 25 84  1  0  0  0  0
 26 85  1  0  0  0  0
 27 65  2  0  0  0  0
 28 60  1  0  0  0  0
 28 66  2  0  0  0  0
 29 30  2  0  0  0  0
 29 59  1  0  0  0  0
 29 64  1  0  0  0  0
 30 66  1  0  0  0  0
 30 72  1  0  0  0  0
 31 67  1  0  0  0  0
 31 70  1  0  0  0  0
 32 71  1  0  0  0  0
 32 77  2  0  0  0  0
 33 49  1  0  0  0  0
 33 73  1  0  0  0  0
 33 78  2  0  0  0  0
 34 61  1  0  0  0  0
 34 68  1  0  0  0  0
 34 79  2  0  0  0  0
 35 62  1  0  0  0  0
 35 74  1  0  0  0  0
 35 80  2  0  0  0  0
 36 69  1  0  0  0  0
 36 75  1  0  0  0  0
 36 81  2  0  0  0  0
 37 40  1  0  0  0  0
 38 49  1  0  0  0  0
 39 68  1  0  0  0  0
 40 42  1  0  0  0  0
 41 43  1  0  0  0  0
 41 46  1  0  0  0  0
 42 48  1  0  0  0  0
 43 50  1  0  0  0  0
 44 45  1  0  0  0  0
 44 51  1  0  0  0  0
 45 52  1  0  0  0  0
 46 69  1  0  0  0  0
 47 50  1  0  0  0  0
 47 69  1  0  0  0  0
 48 73  1  0  0  0  0
 49 68  1  0  0  0  0
 50 67  1  0  0  0  0
 51 52  1  0  0  0  0
 51 72  1  0  0  0  0
 52 75  1  0  0  0  0
 53 59  1  0  0  0  0
 54 62  1  0  0  0  0
 55 63  1  0  0  0  0
 56 63  1  0  0  0  0
 57 63  1  0  0  0  0
 58 76  1  0  0  0  0
 60 83  1  0  0  0  0
 61 63  1  0  0  0  0
 61 74  1  0  0  0  0
 62 76  1  0  0  0  0
 65 67  1  0  0  0  0
M  CHG  1  76   1
M  ISO  4  36 100  60 101  75 100  83 101
M  END
> <Batch ID>
0182

> <Smiles>
CCc1ncc([101CH2:1][101O:1]c2ccc3c(c2)CN(C(=O)C(NC(=O)C(C)NC)C(C)(C)C)C(C(=O)NC2CCCc4ccccc42)C3)nc1NC1CCC1[100NH:0][100C:0](=O)N1CCCC(n2nc(-c3ccc(Oc4ccc(F)cc4F)cc3)c(C(N)=O)c2N)C1

> <Shape>
0.200

> <Color>
0.058

> <Negative vol penalty>
0.000

$$$$

  -OEChem-04052323053D

 81 90  0     1  0  0  0  0  0999 V2000
  -23.7880  -36.1660   16.1563 C   0  0  0  0  0  0  0  0  0  0  0  0
  -24.1977  -34.8445   16.0111 C   0  0  0  0  0  0  0  0  0  0  0  0
  -22.6920  -10.5302   21.0029 C   0  0  0  0  0  0  0  0  0  0  0  0
  -24.5166   -9.2496   21.9346 C   0  0  0  0  0  0  0  0  0  0  0  0
  -24.0386  -36.8455   17.3476 C   0  0  0  0  0  0  0  0  0  0  0  0
  -24.8594  -34.2020   17.0569 C   0  0  0  0  0  0  0  0  0  0  0  0
  -24.4414  -28.2895   18.5976 C   0  0  0  0  0  0  0  0  0  0  0  0
  -21.9939   -9.3499   20.7477 C   0  0  0  0  0  0  0  0  0  0  0  0
  -23.8185   -8.0693   21.6794 C   0  0  0  0  0  0  0  0  0  0  0  0
  -25.2529  -27.1893   18.3243 C   0  0  0  0  0  0  0  0  0  0  0  0
  -20.1365   -7.1276   22.4925 C   0  0  0  0  0  0  0  0  0  0  0  0
  -18.7834   -7.0891   22.8289 C   0  0  0  0  0  0  0  0  0  0  0  0
  -26.3516  -27.4785   20.4523 C   0  0  0  0  0  0  0  0  0  0  0  0
  -18.2216   -6.6550   20.5195 C   0  0  0  0  0  0  0  0  0  0  0  0
  -29.0610  -23.8583   17.3632 C   0  0  0  0  0  0  0  0  0  0  0  0
  -27.3340  -22.5532   17.7495 C   0  0  0  0  0  0  0  0  0  0  0  0
  -23.9534  -10.4801   21.5963 C   0  0  0  0  0  0  0  0  0  0  0  0
  -24.6263  -12.4801   23.0297 C   0  0  0  0  0  0  0  0  0  0  0  0
  -24.6951  -36.2079   18.4121 C   0  0  0  0  0  0  0  0  0  0  0  0
  -24.5865  -29.0003   19.7977 C   0  0  0  0  0  0  0  0  0  0  0  0
  -25.1203  -34.8740   18.2632 C   0  0  0  0  0  0  0  0  0  0  0  0
  -25.5389  -28.5858   20.7396 C   0  0  0  0  0  0  0  0  0  0  0  0
  -27.6773  -23.8770   17.6219 C   0  0  0  0  0  0  0  0  0  0  0  0
  -22.5571   -8.1195   21.0860 C   0  0  0  0  0  0  0  0  0  0  0  0
  -26.2102  -26.7854   19.2504 C   0  0  0  0  0  0  0  0  0  0  0  0
  -20.5322   -6.9298   21.1696 C   0  0  0  0  0  0  0  0  0  0  0  0
  -17.8259   -6.8528   21.8424 C   0  0  0  0  0  0  0  0  0  0  0  0
  -19.5748   -6.6936   20.1831 C   0  0  0  0  0  0  0  0  0  0  0  0
  -24.6753  -11.6990   21.8596 C   0  0  0  0  0  0  0  0  0  0  0  0
  -25.4854  -13.5229   22.7827 C   0  0  0  0  0  0  0  0  0  0  0  0
  -23.8717  -12.2809   24.2325 C   0  0  0  0  0  0  0  0  0  0  0  0
  -25.3684  -31.9866   20.5554 C   0  0  0  0  0  0  0  0  0  0  0  0
  -24.6263  -31.0060   23.5571 C   0  0  0  0  0  0  0  0  0  0  0  0
  -24.2901  -28.4219   25.7607 C   0  0  0  0  0  0  0  0  0  0  0  0
  -27.3467  -17.4755   19.5662 C   0  0  0  0  0  0  0  0  0  0  0  0
  -24.9858  -36.9981   19.6634 C   0  0  0  0  0  0  0  0  0  0  0  0
  -23.6851  -30.1686   20.0892 C   0  0  0  0  0  0  0  0  0  0  0  0
  -25.7207  -29.3027   22.0517 C   0  0  0  0  0  0  0  0  0  0  0  0
  -25.3598  -36.1277   20.8604 C   0  0  0  0  0  0  0  0  0  0  0  0
  -28.8493  -14.2368   19.0974 C   0  0  0  0  0  0  0  0  0  0  0  0
  -26.3862  -35.0747   20.4547 C   0  0  0  0  0  0  0  0  0  0  0  0
  -27.8634  -13.3412   19.8422 C   0  0  0  0  0  0  0  0  0  0  0  0
  -27.7827  -19.5875   16.5905 C   0  0  0  0  0  0  0  0  0  0  0  0
  -28.1540  -15.3868   18.3656 C   0  0  0  0  0  0  0  0  0  0  0  0
  -27.8037  -18.1658   17.1392 C   0  0  0  0  0  0  0  0  0  0  0  0
  -26.2731  -15.2884   19.9785 C   0  0  0  0  0  0  0  0  0  0  0  0
  -28.2232  -19.7050   18.9356 C   0  0  0  0  0  0  0  0  0  0  0  0
  -25.8188  -34.1350   19.3840 C   0  0  1  0  0  0  0  0  0  0  0  0
  -24.2689  -31.1314   21.1186 C   0  0  1  0  0  0  0  0  0  0  0  0
  -26.9703  -14.1758   20.7738 C   0  0  1  0  0  0  0  0  0  0  0  0
  -28.6375  -20.3499   17.6107 C   0  0  2  0  0  0  0  0  0  0  0  0
  -23.7067  -27.9359   28.1526 C   0  0  0  0  0  0  0  0  0  0  0  0
  -27.3759  -32.0019   24.4276 C   0  0  0  0  0  0  0  0  0  0  0  0
  -27.1189  -30.6633   26.5276 C   0  0  0  0  0  0  0  0  0  0  0  0
  -25.5250  -32.5163   26.0289 C   0  0  0  0  0  0  0  0  0  0  0  0
  -21.9687  -26.7612   24.9783 C   0  0  0  0  0  0  0  0  0  0  0  0
  -26.7954  -25.0496   17.7337 C   0  0  0  0  0  0  0  0  0  1  0  0
  -25.3906  -30.3730   24.6946 C   0  0  1  0  0  0  0  0  0  0  0  0
  -23.1795  -28.0642   26.7319 C   0  0  2  0  0  0  0  0  0  0  0  0
  -26.3507  -31.3761   25.3942 C   0  0  0  0  0  0  0  0  0  0  0  0
  -29.5624  -22.6208   17.3284 N   0  0  0  0  0  0  0  0  0  0  0  0
  -25.5001  -12.2025   20.9376 N   0  0  0  0  0  0  0  0  0  0  0  0
  -28.4879  -21.8495   17.5670 N   0  0  0  0  0  0  0  0  0  0  0  0
  -25.9773  -13.3113   21.5283 N   0  0  0  0  0  0  0  0  0  0  0  0
  -24.8197  -30.4429   22.2877 N   0  0  0  0  0  0  0  0  0  0  0  0
  -27.2403  -16.1162   19.2519 N   0  0  0  0  0  0  0  0  0  0  0  0
  -27.8614  -18.3314   18.5931 N   0  0  0  0  0  0  0  0  0  0  0  0
  -25.8604  -14.5909   23.5182 N   0  0  0  0  0  0  0  0  0  0  0  0
  -23.0379  -11.1577   24.3198 N   0  0  0  0  0  0  0  0  0  0  0  0
  -24.9279  -33.1649   19.9836 N   0  0  0  0  0  0  0  0  0  0  0  0
  -24.3916  -29.7852   25.5805 N   0  0  0  0  0  0  0  0  0  0  0  0
  -22.5504  -26.7697   26.3453 N   0  3  0  0  0  0  0  0  0  0  0  0
  -23.9225  -13.0841   25.1947 O   0  0  0  0  0  0  0  0  0  0  0  0
  -26.5307  -31.6064   20.6352 O   0  0  0  0  0  0  0  0  0  0  0  0
  -23.8794  -31.9604   23.7875 O   0  0  0  0  0  0  0  0  0  0  0  0
  -24.9993  -27.5767   25.2193 O   0  0  0  0  0  0  0  0  0  0  0  0
  -26.9578  -17.9153   20.6567 O   0  0  0  0  0  0  0  0  0  0  0  0
  -21.8760   -6.9676   20.8374 O   0  0  0  0  0  0  0  0  0  0  0  0
  -27.0077  -25.7073   18.9845 O   0  0  0  0  0  0  0  0  0  1  0  0
  -16.5267   -6.8144   22.1658 F   0  0  0  0  0  0  0  0  0  0  0  0
  -19.9489   -6.5017   18.9107 F   0  0  0  0  0  0  0  0  0  0  0  0
  1  2  1  0  0  0  0
  1  5  2  0  0  0  0
  2  6  2  0  0  0  0
  3  8  2  0  0  0  0
  3 17  1  0  0  0  0
  4  9  1  0  0  0  0
  4 17  2  0  0  0  0
  5 19  1  0  0  0  0
  6 21  1  0  0  0  0
  7 10  2  0  0  0  0
  7 20  1  0  0  0  0
  8 24  1  0  0  0  0
  9 24  2  0  0  0  0
 10 25  1  0  0  0  0
 11 12  2  0  0  0  0
 11 26  1  0  0  0  0
 12 27  1  0  0  0  0
 13 22  1  0  0  0  0
 13 25  2  0  0  0  0
 14 27  2  0  0  0  0
 14 28  1  0  0  0  0
 15 23  1  0  0  0  0
 15 61  2  0  0  0  0
 16 23  2  0  0  0  0
 16 63  1  0  0  0  0
 17 29  1  0  0  0  0
 18 29  1  0  0  0  0
 18 30  2  0  0  0  0
 18 31  1  0  0  0  0
 19 21  2  0  0  0  0
 19 36  1  0  0  0  0
 20 22  2  0  0  0  0
 20 37  1  0  0  0  0
 21 48  1  0  0  0  0
 22 38  1  0  0  0  0
 23 57  1  0  0  0  0
 24 78  1  0  0  0  0
 25 79  1  0  0  0  0
 26 28  2  0  0  0  0
 26 78  1  0  0  0  0
 27 80  1  0  0  0  0
 28 81  1  0  0  0  0
 29 62  2  0  0  0  0
 30 64  1  0  0  0  0
 30 68  1  0  0  0  0
 31 69  1  0  0  0  0
 31 73  2  0  0  0  0
 32 49  1  0  0  0  0
 32 70  1  0  0  0  0
 32 74  2  0  0  0  0
 33 58  1  0  0  0  0
 33 65  1  0  0  0  0
 33 75  2  0  0  0  0
 34 59  1  0  0  0  0
 34 71  1  0  0  0  0
 34 76  2  0  0  0  0
 35 66  1  0  0  0  0
 35 67  1  0  0  0  0
 35 77  2  0  0  0  0
 36 39  1  0  0  0  0
 37 49  1  0  0  0  0
 38 65  1  0  0  0  0
 39 41  1  0  0  0  0
 40 42  1  0  0  0  0
 40 44  1  0  0  0  0
 41 48  1  0  0  0  0
 42 50  1  0  0  0  0
 43 45  1  0  0  0  0
 43 51  1  0  0  0  0
 44 66  1  0  0  0  0
 45 67  1  0  0  0  0
 46 50  1  0  0  0  0
 46 66  1  0  0  0  0
 47 51  1  0  0  0  0
 47 67  1  0  0  0  0
 48 70  1  0  0  0  0
 49 65  1  0  0  0  0
 50 64  1  0  0  0  0
 51 63  1  0  0  0  0
 52 59  1  0  0  0  0
 53 60  1  0  0  0  0
 54 60  1  0  0  0  0
 55 60  1  0  0  0  0
 56 72  1  0  0  0  0
 57 79  1  0  0  0  0
 58 60  1  0  0  0  0
 58 71  1  0  0  0  0
 59 72  1  0  0  0  0
 61 63  1  0  0  0  0
 62 64  1  0  0  0  0
M  CHG  1  72   1
M  ISO  4  35 100  57 101  67 100  79 101
M  END
> <Batch ID>
0182

> <Smiles>
CNC(C)C(=O)NC(C(=O)N1Cc2cc([101O:1][101CH2:1]c3cnn(C4CC[100N:0]([100C:0](=O)N5CCCC(n6nc(-c7ccc(Oc8ccc(F)cc8F)cc7)c(C(N)=O)c6N)C5)C4)c3)ccc2CC1C(=O)NC1CCCc2ccccc21)C(C)(C)C

> <Shape>
0.217

> <Color>
0.111

> <Negative vol penalty>
0.000

$$$$

  -OEChem-04052323053D

 86 95  0     1  0  0  0  0  0999 V2000
  -26.4749  -37.4320   20.6459 C   0  0  0  0  0  0  0  0  0  0  0  0
  -27.0606  -36.2258   21.0167 C   0  0  0  0  0  0  0  0  0  0  0  0
  -23.9995  -10.1341   21.9865 C   0  0  0  0  0  0  0  0  0  0  0  0
  -24.4632   -8.9824   19.9139 C   0  0  0  0  0  0  0  0  0  0  0  0
  -25.1333  -37.6732   20.9388 C   0  0  0  0  0  0  0  0  0  0  0  0
  -26.3052  -35.2605   21.6816 C   0  0  0  0  0  0  0  0  0  0  0  0
  -27.0357  -30.6051   19.8271 C   0  0  0  0  0  0  0  0  0  0  0  0
  -22.9621   -9.2402   22.2512 C   0  0  0  0  0  0  0  0  0  0  0  0
  -23.4258   -8.0884   20.1786 C   0  0  0  0  0  0  0  0  0  0  0  0
  -28.2025  -29.9439   20.2079 C   0  0  0  0  0  0  0  0  0  0  0  0
  -22.6310   -6.0811   23.4103 C   0  0  0  0  0  0  0  0  0  0  0  0
  -22.5417   -5.5549   24.6990 C   0  0  0  0  0  0  0  0  0  0  0  0
  -26.9515  -28.6934   21.8482 C   0  0  0  0  0  0  0  0  0  0  0  0
  -20.3368   -6.5133   24.9375 C   0  0  0  0  0  0  0  0  0  0  0  0
  -29.6124  -23.7338   19.9608 C   0  0  0  0  0  0  0  0  0  0  0  0
  -24.7500  -10.0053   20.8178 C   0  0  0  0  0  0  0  0  0  0  0  0
  -27.1724  -10.7990   20.9176 C   0  0  0  0  0  0  0  0  0  0  0  0
  -24.3585  -36.7065   21.5990 C   0  0  0  0  0  0  0  0  0  0  0  0
  -25.8179  -30.3228   20.4626 C   0  0  0  0  0  0  0  0  0  0  0  0
  -24.9523  -35.4896   21.9847 C   0  0  0  0  0  0  0  0  0  0  0  0
  -25.7701  -29.3506   21.4719 C   0  0  0  0  0  0  0  0  0  0  0  0
  -28.8148  -23.4199   21.0423 C   0  0  0  0  0  0  0  0  0  0  0  0
  -22.6752   -8.2173   21.3473 C   0  0  0  0  0  0  0  0  0  0  0  0
  -28.1611  -28.9900   21.2206 C   0  0  0  0  0  0  0  0  0  0  0  0
  -21.5732   -6.8235   22.8852 C   0  0  0  0  0  0  0  0  0  0  0  0
  -21.3946   -5.7709   25.4626 C   0  0  0  0  0  0  0  0  0  0  0  0
  -20.4261   -7.0395   23.6488 C   0  0  0  0  0  0  0  0  0  0  0  0
  -25.8215  -10.9289   20.5435 C   0  0  0  0  0  0  0  0  0  0  0  0
  -28.8289  -24.3308   22.0789 C   0  0  0  0  0  0  0  0  0  0  0  0
  -27.7757  -11.9296   20.4234 C   0  0  0  0  0  0  0  0  0  0  0  0
  -30.2972  -25.6572   20.9602 C   0  0  0  0  0  0  0  0  0  0  0  0
  -27.8236   -9.7502   21.6467 C   0  0  0  0  0  0  0  0  0  0  0  0
  -23.7526  -32.0015   22.2005 C   0  0  0  0  0  0  0  0  0  0  0  0
  -21.9836  -29.2892   22.0079 C   0  0  0  0  0  0  0  0  0  0  0  0
  -21.9044  -25.9085   21.5483 C   0  0  0  0  0  0  0  0  0  0  0  0
  -28.0313  -17.2200   19.5560 C   0  0  0  0  0  0  0  0  0  0  0  0
  -22.9248  -37.0316   21.9361 C   0  0  0  0  0  0  0  0  0  0  0  0
  -24.5632  -31.0256   20.0218 C   0  0  0  0  0  0  0  0  0  0  0  0
  -24.4842  -28.9964   22.1715 C   0  0  0  0  0  0  0  0  0  0  0  0
  -22.0943  -35.8067   22.3103 C   0  0  0  0  0  0  0  0  0  0  0  0
  -26.0735  -15.4580   17.2340 C   0  0  0  0  0  0  0  0  0  0  0  0
  -22.8541  -34.9284   23.2994 C   0  0  0  0  0  0  0  0  0  0  0  0
  -25.9380  -14.0992   17.9206 C   0  0  0  0  0  0  0  0  0  0  0  0
  -26.7567  -20.4584   20.0812 C   0  0  0  0  0  0  0  0  0  0  0  0
  -29.2796  -20.4134   20.0545 C   0  0  0  0  0  0  0  0  0  0  0  0
  -25.9595  -16.6159   18.2271 C   0  0  0  0  0  0  0  0  0  0  0  0
  -26.7429  -19.3401   19.0349 C   0  0  0  0  0  0  0  0  0  0  0  0
  -29.2161  -19.3198   18.9920 C   0  0  0  0  0  0  0  0  0  0  0  0
  -26.7548  -15.1580   20.0603 C   0  0  0  0  0  0  0  0  0  0  0  0
  -24.1592  -34.4078   22.6853 C   0  0  1  0  0  0  0  0  0  0  0  0
  -23.4736  -31.0289   21.0897 C   0  0  1  0  0  0  0  0  0  0  0  0
  -26.9235  -13.9736   19.0962 C   0  0  1  0  0  0  0  0  0  0  0  0
  -28.0325  -21.2989   19.9892 C   0  0  0  0  0  0  0  0  0  0  0  0
  -28.0042  -24.0998   23.3028 C   0  0  0  0  0  0  0  0  0  0  0  0
  -20.3169  -23.9660   21.4833 C   0  0  0  0  0  0  0  0  0  0  0  0
  -21.7922  -29.3470   25.0526 C   0  0  0  0  0  0  0  0  0  0  0  0
  -21.0520  -26.9563   24.9818 C   0  0  0  0  0  0  0  0  0  0  0  0
  -19.6708  -28.7208   23.8856 C   0  0  0  0  0  0  0  0  0  0  0  0
  -22.6011  -25.2837   18.7406 C   0  0  0  0  0  0  0  0  0  0  0  0
  -31.1201  -26.9000   20.9143 C   0  0  0  0  0  0  0  0  0  0  0  0
  -30.2964  -28.1511   20.5938 C   0  0  0  0  0  0  0  0  0  1  0  0
  -21.8633  -28.0306   22.8327 C   0  0  1  0  0  0  0  0  0  0  0  0
  -21.0322  -25.0319   20.6677 C   0  0  2  0  0  0  0  0  0  0  0  0
  -21.1193  -28.2715   24.1765 C   0  0  0  0  0  0  0  0  0  0  0  0
  -30.3694  -24.8482   19.8861 N   0  0  0  0  0  0  0  0  0  0  0  0
  -25.5804  -12.0533   19.8641 N   0  0  0  0  0  0  0  0  0  0  0  0
  -29.5612  -25.4639   22.0712 N   0  0  0  0  0  0  0  0  0  0  0  0
  -26.7879  -12.6404   19.8076 N   0  0  0  0  0  0  0  0  0  0  0  0
  -23.2855  -29.7155   21.7093 N   0  0  0  0  0  0  0  0  0  0  0  0
  -26.8892  -16.4317   19.3502 N   0  0  0  0  0  0  0  0  0  0  0  0
  -27.9786  -18.5470   19.1042 N   0  0  0  0  0  0  0  0  0  0  0  0
  -29.0495  -12.3752   20.4600 N   0  0  0  0  0  0  0  0  0  0  0  0
  -27.0552   -8.6614   22.0807 N   0  0  0  0  0  0  0  0  0  0  0  0
  -28.0573  -22.2624   21.0676 N   0  0  0  0  0  0  0  0  0  0  0  0
  -23.8898  -33.3108   21.7806 N   0  0  0  0  0  0  0  0  0  0  0  0
  -21.2331  -27.0364   21.9707 N   0  0  0  0  0  0  0  0  0  0  0  0
  -21.8598  -24.3534   19.6305 N   0  3  0  0  0  0  0  0  0  0  0  0
  -29.0474   -9.7857   21.9198 O   0  0  0  0  0  0  0  0  0  0  0  0
  -23.8357  -31.5943   23.3533 O   0  0  0  0  0  0  0  0  0  0  0  0
  -20.9602  -29.8688   21.6361 O   0  0  0  0  0  0  0  0  0  0  0  0
  -23.0638  -25.6196   21.8358 O   0  0  0  0  0  0  0  0  0  0  0  0
  -29.0393  -16.7650   20.1110 O   0  0  0  0  0  0  0  0  0  0  0  0
  -21.6631   -7.3446   21.6054 O   0  0  0  0  0  0  0  0  0  0  0  0
  -29.3067  -28.3390   21.5973 O   0  0  0  0  0  0  0  0  0  1  0  0
  -21.3084   -5.2643   26.6995 F   0  0  0  0  0  0  0  0  0  0  0  0
  -19.4062   -7.7509   23.1494 F   0  0  0  0  0  0  0  0  0  0  0  0
  1  2  1  0  0  0  0
  1  5  2  0  0  0  0
  2  6  2  0  0  0  0
  3  8  2  0  0  0  0
  3 16  1  0  0  0  0
  4  9  1  0  0  0  0
  4 16  2  0  0  0  0
  5 18  1  0  0  0  0
  6 20  1  0  0  0  0
  7 10  2  0  0  0  0
  7 19  1  0  0  0  0
  8 23  1  0  0  0  0
  9 23  2  0  0  0  0
 10 24  1  0  0  0  0
 11 12  2  0  0  0  0
 11 25  1  0  0  0  0
 12 26  1  0  0  0  0
 13 21  1  0  0  0  0
 13 24  2  0  0  0  0
 14 26  2  0  0  0  0
 14 27  1  0  0  0  0
 15 22  1  0  0  0  0
 15 65  2  0  0  0  0
 16 28  1  0  0  0  0
 17 28  1  0  0  0  0
 17 30  2  0  0  0  0
 17 32  1  0  0  0  0
 18 20  2  0  0  0  0
 18 37  1  0  0  0  0
 19 21  2  0  0  0  0
 19 38  1  0  0  0  0
 20 50  1  0  0  0  0
 21 39  1  0  0  0  0
 22 29  2  0  0  0  0
 22 74  1  0  0  0  0
 23 83  1  0  0  0  0
 24 84  1  0  0  0  0
 25 27  2  0  0  0  0
 25 83  1  0  0  0  0
 26 85  1  0  0  0  0
 27 86  1  0  0  0  0
 28 66  2  0  0  0  0
 29 54  1  0  0  0  0
 29 67  1  0  0  0  0
 30 68  1  0  0  0  0
 30 72  1  0  0  0  0
 31 60  1  0  0  0  0
 31 65  1  0  0  0  0
 31 67  2  0  0  0  0
 32 73  1  0  0  0  0
 32 78  2  0  0  0  0
 33 51  1  0  0  0  0
 33 75  1  0  0  0  0
 33 79  2  0  0  0  0
 34 62  1  0  0  0  0
 34 69  1  0  0  0  0
 34 80  2  0  0  0  0
 35 63  1  0  0  0  0
 35 76  1  0  0  0  0
 35 81  2  0  0  0  0
 36 70  1  0  0  0  0
 36 71  1  0  0  0  0
 36 82  2  0  0  0  0
 37 40  1  0  0  0  0
 38 51  1  0  0  0  0
 39 69  1  0  0  0  0
 40 42  1  0  0  0  0
 41 43  1  0  0  0  0
 41 46  1  0  0  0  0
 42 50  1  0  0  0  0
 43 52  1  0  0  0  0
 44 47  1  0  0  0  0
 44 53  1  0  0  0  0
 45 48  1  0  0  0  0
 45 53  1  0  0  0  0
 46 70  1  0  0  0  0
 47 71  1  0  0  0  0
 48 71  1  0  0  0  0
 49 52  1  0  0  0  0
 49 70  1  0  0  0  0
 50 75  1  0  0  0  0
 51 69  1  0  0  0  0
 52 68  1  0  0  0  0
 53 74  1  0  0  0  0
 55 63  1  0  0  0  0
 56 64  1  0  0  0  0
 57 64  1  0  0  0  0
 58 64  1  0  0  0  0
 59 77  1  0  0  0  0
 60 61  1  0  0  0  0
 61 84  1  0  0  0  0
 62 64  1  0  0  0  0
 62 76  1  0  0  0  0
 63 77  1  0  0  0  0
 66 68  1  0  0  0  0
M  CHG  1  77   1
M  ISO  4  36 100  61 101  71 100  84 101
M  END
> <Batch ID>
0182

> <Smiles>
CNC(C)C(=O)NC(C(=O)N1Cc2cc([101O:1][101CH2:1]Cc3ncc(NC4CC[100N:0]([100C:0](=O)N5CCCC(n6nc(-c7ccc(Oc8ccc(F)cc8F)cc7)c(C(N)=O)c6N)C5)CC4)c(C)n3)ccc2CC1C(=O)NC1CCCc2ccccc21)C(C)(C)C

> <Shape>
0.299

> <Color>
0.085

> <Negative vol penalty>
0.000

$$$$

  -OEChem-04052323053D

 79 87  0     1  0  0  0  0  0999 V2000
  -32.4328  -13.2660   20.9668 C   0  0  0  0  0  0  0  0  0  0  0  0
  -31.9417  -14.5617   21.0902 C   0  0  0  0  0  0  0  0  0  0  0  0
  -26.1741  -27.7103   22.2310 C   0  0  0  0  0  0  0  0  0  0  0  0
  -26.1750  -28.9870   20.1798 C   0  0  0  0  0  0  0  0  0  0  0  0
  -31.6564  -12.2828   20.3549 C   0  0  0  0  0  0  0  0  0  0  0  0
  -30.6743  -14.8753   20.6006 C   0  0  0  0  0  0  0  0  0  0  0  0
  -25.0595  -19.1142   21.9505 C   0  0  0  0  0  0  0  0  0  0  0  0
  -27.1530  -26.8665   21.7063 C   0  0  0  0  0  0  0  0  0  0  0  0
  -27.1540  -28.1432   19.6551 C   0  0  0  0  0  0  0  0  0  0  0  0
  -24.2368  -20.0459   21.3188 C   0  0  0  0  0  0  0  0  0  0  0  0
  -27.3044  -24.2610   19.5586 C   0  0  0  0  0  0  0  0  0  0  0  0
  -27.1355  -22.8873   19.7318 C   0  0  0  0  0  0  0  0  0  0  0  0
  -22.9530  -18.2473   20.3513 C   0  0  0  0  0  0  0  0  0  0  0  0
  -29.2228  -22.7834   20.9441 C   0  0  0  0  0  0  0  0  0  0  0  0
  -25.6851  -28.7705   21.4677 C   0  0  0  0  0  0  0  0  0  0  0  0
  -24.8756  -30.8250   22.7450 C   0  0  0  0  0  0  0  0  0  0  0  0
  -30.3750  -12.5822   19.8661 C   0  0  0  0  0  0  0  0  0  0  0  0
  -24.8413  -17.7397   21.7782 C   0  0  0  0  0  0  0  0  0  0  0  0
  -29.8806  -13.8956   19.9803 C   0  0  0  0  0  0  0  0  0  0  0  0
  -23.7727  -17.3003   20.9839 C   0  0  0  0  0  0  0  0  0  0  0  0
  -27.6430  -27.0830   20.4183 C   0  0  0  0  0  0  0  0  0  0  0  0
  -23.1852  -19.6125   20.5167 C   0  0  0  0  0  0  0  0  0  0  0  0
  -28.4325  -24.8959   20.0781 C   0  0  0  0  0  0  0  0  0  0  0  0
  -28.0947  -22.1485   20.4245 C   0  0  0  0  0  0  0  0  0  0  0  0
  -29.3917  -24.1572   20.7709 C   0  0  0  0  0  0  0  0  0  0  0  0
  -24.6734  -29.6422   22.0090 C   0  0  0  0  0  0  0  0  0  0  0  0
  -23.6088  -31.2763   23.0244 C   0  0  0  0  0  0  0  0  0  0  0  0
  -26.0991  -31.4591   23.1408 C   0  0  0  0  0  0  0  0  0  0  0  0
  -21.6660  -22.7707   19.3718 C   0  0  0  0  0  0  0  0  0  0  0  0
  -26.5279  -15.3361   20.5610 C   0  0  0  0  0  0  0  0  0  0  0  0
  -24.0628  -13.5513   21.6836 C   0  0  0  0  0  0  0  0  0  0  0  0
  -20.7840  -13.4024   22.6187 C   0  0  0  0  0  0  0  0  0  0  0  0
  -20.4802  -27.6520   20.0403 C   0  0  0  0  0  0  0  0  0  0  0  0
  -29.5918  -11.4975   19.1699 C   0  0  0  0  0  0  0  0  0  0  0  0
  -25.7213  -16.7475   22.4879 C   0  0  0  0  0  0  0  0  0  0  0  0
  -23.4837  -15.8358   20.7830 C   0  0  0  0  0  0  0  0  0  0  0  0
  -28.1085  -11.8221   19.0132 C   0  0  0  0  0  0  0  0  0  0  0  0
  -20.6643  -28.2554   23.7297 C   0  0  0  0  0  0  0  0  0  0  0  0
  -27.9252  -13.2458   18.4970 C   0  0  0  0  0  0  0  0  0  0  0  0
  -20.6713  -29.7822   23.7734 C   0  0  0  0  0  0  0  0  0  0  0  0
  -21.0769  -24.8470   18.1380 C   0  0  0  0  0  0  0  0  0  0  0  0
  -22.6834  -24.9292   20.1090 C   0  0  0  0  0  0  0  0  0  0  0  0
  -19.9297  -27.7497   22.4959 C   0  0  0  0  0  0  0  0  0  0  0  0
  -20.0034  -25.4348   19.0500 C   0  0  0  0  0  0  0  0  0  0  0  0
  -21.5668  -25.5519   20.9529 C   0  0  0  0  0  0  0  0  0  0  0  0
  -20.5263  -29.8064   21.2455 C   0  0  0  0  0  0  0  0  0  0  0  0
  -28.5006  -14.2688   19.4839 C   0  0  1  0  0  0  0  0  0  0  0  0
  -22.1677  -24.1121   18.9216 C   0  0  0  0  0  0  0  0  0  0  0  0
  -25.7226  -15.3716   21.8290 C   0  0  1  0  0  0  0  0  0  0  0  0
  -21.2335  -30.4030   22.4791 C   0  0  2  0  0  0  0  0  0  0  0  0
  -19.0451  -11.7982   23.4553 C   0  0  0  0  0  0  0  0  0  0  0  0
  -23.7979  -12.3795   18.8789 C   0  0  0  0  0  0  0  0  0  0  0  0
  -21.5250  -11.5461   19.5173 C   0  0  0  0  0  0  0  0  0  0  0  0
  -23.5410  -10.7194   20.7316 C   0  0  0  0  0  0  0  0  0  0  0  0
  -20.4073  -14.9355   25.1220 C   0  0  0  0  0  0  0  0  0  0  0  0
  -22.6593  -21.8952   20.1056 C   0  0  0  0  0  0  0  0  0  1  0  0
  -22.7398  -13.0847   21.1259 C   0  0  1  0  0  0  0  0  0  0  0  0
  -20.1120  -12.8098   23.8441 C   0  0  2  0  0  0  0  0  0  0  0  0
  -22.9073  -11.9601   20.0654 C   0  0  0  0  0  0  0  0  0  0  0  0
  -23.3800  -29.3597   21.8320 N   0  0  0  0  0  0  0  0  0  0  0  0
  -22.7580  -30.3714   22.4609 N   0  0  0  0  0  0  0  0  0  0  0  0
  -24.3761  -14.9046   21.4929 N   0  0  0  0  0  0  0  0  0  0  0  0
  -20.4663  -28.3419   21.2650 N   0  0  0  0  0  0  0  0  0  0  0  0
  -20.6007  -26.2552   20.1011 N   0  0  0  0  0  0  0  0  0  0  0  0
  -23.1508  -32.3549   23.6947 N   0  0  0  0  0  0  0  0  0  0  0  0
  -27.3116  -30.8616   22.7703 N   0  0  0  0  0  0  0  0  0  0  0  0
  -27.5964  -14.4606   20.5975 N   0  0  0  0  0  0  0  0  0  0  0  0
  -21.9234  -12.7064   22.2743 N   0  0  0  0  0  0  0  0  0  0  0  0
  -19.4688  -13.8840   24.6525 N   0  3  0  0  0  0  0  0  0  0  0  0
  -26.1166  -32.5153   23.8173 O   0  0  0  0  0  0  0  0  0  0  0  0
  -20.5098  -22.4137   19.1507 O   0  0  0  0  0  0  0  0  0  0  0  0
  -26.2030  -16.0490   19.6187 O   0  0  0  0  0  0  0  0  0  0  0  0
  -24.7882  -12.7464   22.2732 O   0  0  0  0  0  0  0  0  0  0  0  0
  -20.3404  -14.3823   22.0241 O   0  0  0  0  0  0  0  0  0  0  0  0
  -20.3996  -28.2504   18.9603 O   0  0  0  0  0  0  0  0  0  0  0  0
  -28.5984  -26.2599   19.9061 O   0  0  0  0  0  0  0  0  0  0  0  0
  -22.3728  -20.5292   19.8921 O   0  0  0  0  0  0  0  0  0  1  0  0
  -27.9316  -20.8296   20.5921 F   0  0  0  0  0  0  0  0  0  0  0  0
  -30.4769  -24.7618   21.2733 F   0  0  0  0  0  0  0  0  0  0  0  0
  1  2  1  0  0  0  0
  1  5  2  0  0  0  0
  2  6  2  0  0  0  0
  3  8  2  0  0  0  0
  3 15  1  0  0  0  0
  4  9  1  0  0  0  0
  4 15  2  0  0  0  0
  5 17  1  0  0  0  0
  6 19  1  0  0  0  0
  7 10  2  0  0  0  0
  7 18  1  0  0  0  0
  8 21  1  0  0  0  0
  9 21  2  0  0  0  0
 10 22  1  0  0  0  0
 11 12  2  0  0  0  0
 11 23  1  0  0  0  0
 12 24  1  0  0  0  0
 13 20  1  0  0  0  0
 13 22  2  0  0  0  0
 14 24  2  0  0  0  0
 14 25  1  0  0  0  0
 15 26  1  0  0  0  0
 16 26  1  0  0  0  0
 16 27  2  0  0  0  0
 16 28  1  0  0  0  0
 17 19  2  0  0  0  0
 17 34  1  0  0  0  0
 18 20  2  0  0  0  0
 18 35  1  0  0  0  0
 19 47  1  0  0  0  0
 20 36  1  0  0  0  0
 21 76  1  0  0  0  0
 22 77  1  0  0  0  0
 23 25  2  0  0  0  0
 23 76  1  0  0  0  0
 24 78  1  0  0  0  0
 25 79  1  0  0  0  0
 26 60  2  0  0  0  0
 27 61  1  0  0  0  0
 27 65  1  0  0  0  0
 28 66  1  0  0  0  0
 28 70  2  0  0  0  0
 29 48  1  0  0  0  0
 29 56  1  0  0  0  0
 29 71  2  0  0  0  0
 30 49  1  0  0  0  0
 30 67  1  0  0  0  0
 30 72  2  0  0  0  0
 31 57  1  0  0  0  0
 31 62  1  0  0  0  0
 31 73  2  0  0  0  0
 32 58  1  0  0  0  0
 32 68  1  0  0  0  0
 32 74  2  0  0  0  0
 33 63  1  0  0  0  0
 33 64  1  0  0  0  0
 33 75  2  0  0  0  0
 34 37  1  0  0  0  0
 35 49  1  0  0  0  0
 36 62  1  0  0  0  0
 37 39  1  0  0  0  0
 38 40  1  0  0  0  0
 38 43  1  0  0  0  0
 39 47  1  0  0  0  0
 40 50  1  0  0  0  0
 41 44  1  0  0  0  0
 41 48  1  0  0  0  0
 42 45  1  0  0  0  0
 42 48  1  0  0  0  0
 43 63  1  0  0  0  0
 44 64  1  0  0  0  0
 45 64  1  0  0  0  0
 46 50  1  0  0  0  0
 46 63  1  0  0  0  0
 47 67  1  0  0  0  0
 49 62  1  0  0  0  0
 50 61  1  0  0  0  0
 51 58  1  0  0  0  0
 52 59  1  0  0  0  0
 53 59  1  0  0  0  0
 54 59  1  0  0  0  0
 55 69  1  0  0  0  0
 56 77  1  0  0  0  0
 57 59  1  0  0  0  0
 57 68  1  0  0  0  0
 58 69  1  0  0  0  0
 60 61  1  0  0  0  0
M  CHG  1  69   1
M  ISO  4  33 100  56 101  64 100  77 101
M  END
> <Batch ID>
0182

> <Smiles>
CNC(C)C(=O)NC(C(=O)N1Cc2cc([101O:1][101CH2:1]C(=O)C3CC[100N:0]([100C:0](=O)N4CCCC(n5nc(-c6ccc(Oc7ccc(F)cc7F)cc6)c(C(N)=O)c5N)C4)CC3)ccc2CC1C(=O)NC1CCCc2ccccc21)C(C)(C)C

> <Shape>
0.255

> <Color>
0.081

> <Negative vol penalty>
0.000

$$$$

  -OEChem-04052323053D

 86 95  0     1  0  0  0  0  0999 V2000
  -20.1932  -31.0182   21.8574 C   0  0  0  0  0  0  0  0  0  0  0  0
  -21.4646  -30.4549   21.8981 C   0  0  0  0  0  0  0  0  0  0  0  0
  -26.4322  -13.0828   21.4851 C   0  0  0  0  0  0  0  0  0  0  0  0
  -26.1328  -13.7244   19.1752 C   0  0  0  0  0  0  0  0  0  0  0  0
  -19.0694  -30.2138   22.0425 C   0  0  0  0  0  0  0  0  0  0  0  0
  -21.6131  -29.0871   22.1250 C   0  0  0  0  0  0  0  0  0  0  0  0
  -24.9804  -26.9541   19.0015 C   0  0  0  0  0  0  0  0  0  0  0  0
  -25.1764  -12.4759   21.4793 C   0  0  0  0  0  0  0  0  0  0  0  0
  -24.8769  -13.1174   19.1694 C   0  0  0  0  0  0  0  0  0  0  0  0
  -26.3301  -27.1421   19.2959 C   0  0  0  0  0  0  0  0  0  0  0  0
  -23.8134   -9.5820   20.3836 C   0  0  0  0  0  0  0  0  0  0  0  0
  -23.7027   -8.3158   20.9581 C   0  0  0  0  0  0  0  0  0  0  0  0
  -26.4134  -24.9451   20.2887 C   0  0  0  0  0  0  0  0  0  0  0  0
  -22.0911   -9.1744   22.5401 C   0  0  0  0  0  0  0  0  0  0  0  0
  -26.9104  -13.7071   20.3330 C   0  0  0  0  0  0  0  0  0  0  0  0
  -29.4411  -13.7398   20.0131 C   0  0  0  0  0  0  0  0  0  0  0  0
  -19.2038  -28.8339   22.2621 C   0  0  0  0  0  0  0  0  0  0  0  0
  -24.3332  -25.7625   19.3589 C   0  0  0  0  0  0  0  0  0  0  0  0
  -20.4901  -28.2638   22.3145 C   0  0  0  0  0  0  0  0  0  0  0  0
  -25.0560  -24.7434   19.9954 C   0  0  0  0  0  0  0  0  0  0  0  0
  -31.2098  -26.8169   20.7096 C   0  0  0  0  0  0  0  0  0  0  0  0
  -24.3987  -12.4931   20.3215 C   0  0  0  0  0  0  0  0  0  0  0  0
  -27.0461  -26.1387   19.9422 C   0  0  0  0  0  0  0  0  0  0  0  0
  -23.0629  -10.6444   20.8874 C   0  0  0  0  0  0  0  0  0  0  0  0
  -22.8415   -8.1119   22.0363 C   0  0  0  0  0  0  0  0  0  0  0  0
  -22.2018  -10.4406   21.9656 C   0  0  0  0  0  0  0  0  0  0  0  0
  -28.2074  -14.3348   20.3385 C   0  0  0  0  0  0  0  0  0  0  0  0
  -31.6075  -28.0215   21.2527 C   0  0  0  0  0  0  0  0  0  0  0  0
  -31.4292  -25.7054   21.4975 C   0  0  0  0  0  0  0  0  0  0  0  0
  -30.3609  -14.7473   20.1728 C   0  0  0  0  0  0  0  0  0  0  0  0
  -32.3368  -26.9870   23.1408 C   0  0  0  0  0  0  0  0  0  0  0  0
  -29.7298  -12.3966   19.6030 C   0  0  0  0  0  0  0  0  0  0  0  0
  -21.9037  -25.0145   21.2672 C   0  0  0  0  0  0  0  0  0  0  0  0
  -22.3351  -22.0555   20.0100 C   0  0  0  0  0  0  0  0  0  0  0  0
  -24.4328  -19.8267   18.5004 C   0  0  0  0  0  0  0  0  0  0  0  0
  -30.1037  -20.5109   19.7953 C   0  0  0  0  0  0  0  0  0  0  0  0
  -17.9619  -28.0130   22.5038 C   0  0  0  0  0  0  0  0  0  0  0  0
  -22.8835  -25.5645   19.0103 C   0  0  0  0  0  0  0  0  0  0  0  0
  -24.4129  -23.4375   20.3820 C   0  0  0  0  0  0  0  0  0  0  0  0
  -18.1890  -26.5097   22.3659 C   0  0  0  0  0  0  0  0  0  0  0  0
  -31.1434  -18.7552   22.6546 C   0  0  0  0  0  0  0  0  0  0  0  0
  -19.4506  -26.0897   23.1134 C   0  0  0  0  0  0  0  0  0  0  0  0
  -30.6240  -17.3496   22.3537 C   0  0  0  0  0  0  0  0  0  0  0  0
  -30.1454  -19.8365   22.2374 C   0  0  0  0  0  0  0  0  0  0  0  0
  -32.0066  -23.6655   20.2194 C   0  0  0  0  0  0  0  0  0  0  0  0
  -30.0340  -23.7002   21.7537 C   0  0  0  0  0  0  0  0  0  0  0  0
  -31.2948  -22.6260   19.3577 C   0  0  0  0  0  0  0  0  0  0  0  0
  -29.3528  -22.6708   20.8588 C   0  0  0  0  0  0  0  0  0  0  0  0
  -29.1851  -18.3297   20.5270 C   0  0  0  0  0  0  0  0  0  0  0  0
  -20.6910  -26.7800   22.5335 C   0  0  1  0  0  0  0  0  0  0  0  0
  -22.1975  -24.5160   19.8805 C   0  0  1  0  0  0  0  0  0  0  0  0
  -30.1914  -17.2240   20.8820 C   0  0  2  0  0  0  0  0  0  0  0  0
  -31.4209  -29.2934   20.4925 C   0  0  0  0  0  0  0  0  0  0  0  0
  -32.9626  -27.0815   24.4909 C   0  0  0  0  0  0  0  0  0  0  0  0
  -24.5114  -17.4747   17.6289 C   0  0  0  0  0  0  0  0  0  0  0  0
  -22.5232  -21.0051   22.8685 C   0  0  0  0  0  0  0  0  0  0  0  0
  -23.5267  -18.9010   21.9553 C   0  0  0  0  0  0  0  0  0  0  0  0
  -21.2084  -19.5575   21.3096 C   0  0  0  0  0  0  0  0  0  0  0  0
  -25.0217  -20.7428   15.7485 C   0  0  0  0  0  0  0  0  0  0  0  0
  -30.5856  -26.7326   19.3606 C   0  0  0  0  0  0  0  0  0  0  0  0
  -29.1128  -27.1572   19.3529 C   0  0  0  0  0  0  0  0  0  1  0  0
  -23.1689  -20.8507   20.3735 C   0  0  1  0  0  0  0  0  0  0  0  0
  -24.2490  -18.9332   17.2870 C   0  0  2  0  0  0  0  0  0  0  0  0
  -22.6187  -20.1038   21.6213 C   0  0  0  0  0  0  0  0  0  0  0  0
  -28.3289  -15.6205   20.6793 N   0  0  0  0  0  0  0  0  0  0  0  0
  -32.1764  -28.1436   22.4700 N   0  0  0  0  0  0  0  0  0  0  0  0
  -31.9926  -25.7541   22.7224 N   0  0  0  0  0  0  0  0  0  0  0  0
  -29.6499  -15.8417   20.5690 N   0  0  0  0  0  0  0  0  0  0  0  0
  -31.0465  -24.4529   21.0005 N   0  0  0  0  0  0  0  0  0  0  0  0
  -22.9917  -23.2943   20.0254 N   0  0  0  0  0  0  0  0  0  0  0  0
  -29.7315  -19.6518   20.8400 N   0  0  0  0  0  0  0  0  0  0  0  0
  -30.3265  -21.8560   20.1290 N   0  0  0  0  0  0  0  0  0  0  0  0
  -31.7003  -14.7949   20.0116 N   0  0  0  0  0  0  0  0  0  0  0  0
  -28.6673  -11.4897   19.4896 N   0  0  0  0  0  0  0  0  0  0  0  0
  -21.0983  -26.1368   21.3027 N   0  0  0  0  0  0  0  0  0  0  0  0
  -23.2448  -20.0288   19.1705 N   0  0  0  0  0  0  0  0  0  0  0  0
  -25.1850  -19.3369   16.1999 N   0  3  0  0  0  0  0  0  0  0  0  0
  -30.8975  -12.0077   19.3607 O   0  0  0  0  0  0  0  0  0  0  0  0
  -22.3717  -24.4238   22.2334 O   0  0  0  0  0  0  0  0  0  0  0  0
  -21.1469  -21.9023   19.7161 O   0  0  0  0  0  0  0  0  0  0  0  0
  -25.5220  -20.2952   18.8238 O   0  0  0  0  0  0  0  0  0  0  0  0
  -30.2329  -20.1025   18.6345 O   0  0  0  0  0  0  0  0  0  0  0  0
  -23.1733  -11.9008   20.3155 O   0  0  0  0  0  0  0  0  0  0  0  0
  -28.3727  -26.3211   20.2333 O   0  0  0  0  0  0  0  0  0  1  0  0
  -22.7342   -6.8956   22.5869 F   0  0  0  0  0  0  0  0  0  0  0  0
  -21.4774  -11.4572   22.4531 F   0  0  0  0  0  0  0  0  0  0  0  0
  1  2  1  0  0  0  0
  1  5  2  0  0  0  0
  2  6  2  0  0  0  0
  3  8  2  0  0  0  0
  3 15  1  0  0  0  0
  4  9  1  0  0  0  0
  4 15  2  0  0  0  0
  5 17  1  0  0  0  0
  6 19  1  0  0  0  0
  7 10  2  0  0  0  0
  7 18  1  0  0  0  0
  8 22  1  0  0  0  0
  9 22  2  0  0  0  0
 10 23  1  0  0  0  0
 11 12  2  0  0  0  0
 11 24  1  0  0  0  0
 12 25  1  0  0  0  0
 13 20  1  0  0  0  0
 13 23  2  0  0  0  0
 14 25  2  0  0  0  0
 14 26  1  0  0  0  0
 15 27  1  0  0  0  0
 16 27  1  0  0  0  0
 16 30  2  0  0  0  0
 16 32  1  0  0  0  0
 17 19  2  0  0  0  0
 17 37  1  0  0  0  0
 18 20  2  0  0  0  0
 18 38  1  0  0  0  0
 19 50  1  0  0  0  0
 20 39  1  0  0  0  0
 21 28  1  0  0  0  0
 21 29  2  0  0  0  0
 21 60  1  0  0  0  0
 22 83  1  0  0  0  0
 23 84  1  0  0  0  0
 24 26  2  0  0  0  0
 24 83  1  0  0  0  0
 25 85  1  0  0  0  0
 26 86  1  0  0  0  0
 27 65  2  0  0  0  0
 28 53  1  0  0  0  0
 28 66  2  0  0  0  0
 29 67  1  0  0  0  0
 29 69  1  0  0  0  0
 30 68  1  0  0  0  0
 30 73  1  0  0  0  0
 31 54  1  0  0  0  0
 31 66  1  0  0  0  0
 31 67  2  0  0  0  0
 32 74  1  0  0  0  0
 32 78  2  0  0  0  0
 33 51  1  0  0  0  0
 33 75  1  0  0  0  0
 33 79  2  0  0  0  0
 34 62  1  0  0  0  0
 34 70  1  0  0  0  0
 34 80  2  0  0  0  0
 35 63  1  0  0  0  0
 35 76  1  0  0  0  0
 35 81  2  0  0  0  0
 36 71  1  0  0  0  0
 36 72  1  0  0  0  0
 36 82  2  0  0  0  0
 37 40  1  0  0  0  0
 38 51  1  0  0  0  0
 39 70  1  0  0  0  0
 40 42  1  0  0  0  0
 41 43  1  0  0  0  0
 41 44  1  0  0  0  0
 42 50  1  0  0  0  0
 43 52  1  0  0  0  0
 44 71  1  0  0  0  0
 45 47  1  0  0  0  0
 45 69  1  0  0  0  0
 46 48  1  0  0  0  0
 46 69  1  0  0  0  0
 47 72  1  0  0  0  0
 48 72  1  0  0  0  0
 49 52  1  0  0  0  0
 49 71  1  0  0  0  0
 50 75  1  0  0  0  0
 51 70  1  0  0  0  0
 52 68  1  0  0  0  0
 55 63  1  0  0  0  0
 56 64  1  0  0  0  0
 57 64  1  0  0  0  0
 58 64  1  0  0  0  0
 59 77  1  0  0  0  0
 60 61  1  0  0  0  0
 61 84  1  0  0  0  0
 62 64  1  0  0  0  0
 62 76  1  0  0  0  0
 63 77  1  0  0  0  0
 65 68  1  0  0  0  0
M  CHG  1  77   1
M  ISO  4  36 100  61 101  72 100  84 101
M  END
> <Batch ID>
0182

> <Smiles>
CNC(C)C(=O)NC(C(=O)N1Cc2cc([101O:1][101CH2:1]Cc3c(C)nc(C)nc3N3CC[100N:0]([100C:0](=O)N4CCCC(n5nc(-c6ccc(Oc7ccc(F)cc7F)cc6)c(C(N)=O)c5N)C4)CC3)ccc2CC1C(=O)NC1CCCc2ccccc21)C(C)(C)C

> <Shape>
0.264

> <Color>
0.083

> <Negative vol penalty>
0.000

$$$$

  -OEChem-04052323053D

 84 93  0     1  0  0  0  0  0999 V2000
  -28.8082  -35.3895   26.9205 C   0  0  0  0  0  0  0  0  0  0  0  0
  -28.7291  -34.0587   26.5225 C   0  0  0  0  0  0  0  0  0  0  0  0
  -24.5722   -9.1949   22.0591 C   0  0  0  0  0  0  0  0  0  0  0  0
  -23.4518   -9.6062   19.9584 C   0  0  0  0  0  0  0  0  0  0  0  0
  -27.6870  -36.2125   26.8241 C   0  0  0  0  0  0  0  0  0  0  0  0
  -27.5282  -33.5500   26.0290 C   0  0  0  0  0  0  0  0  0  0  0  0
  -26.8433  -29.3260   21.6479 C   0  0  0  0  0  0  0  0  0  0  0  0
  -23.4328   -8.5503   22.5406 C   0  0  0  0  0  0  0  0  0  0  0  0
  -22.3124   -8.9616   20.4399 C   0  0  0  0  0  0  0  0  0  0  0  0
  -26.6068  -27.9529   21.6976 C   0  0  0  0  0  0  0  0  0  0  0  0
  -21.9593   -5.5241   22.2186 C   0  0  0  0  0  0  0  0  0  0  0  0
  -22.1342   -4.3147   22.8912 C   0  0  0  0  0  0  0  0  0  0  0  0
  -24.2441  -28.3560   21.4251 C   0  0  0  0  0  0  0  0  0  0  0  0
  -21.1194   -5.2665   24.8664 C   0  0  0  0  0  0  0  0  0  0  0  0
  -25.1360  -23.3258   22.9022 C   0  0  0  0  0  0  0  0  0  0  0  0
  -24.5817   -9.7229   20.7680 C   0  0  0  0  0  0  0  0  0  0  0  0
  -26.8376   -9.8062   19.5800 C   0  0  0  0  0  0  0  0  0  0  0  0
  -26.4744  -35.7162   26.3201 C   0  0  0  0  0  0  0  0  0  0  0  0
  -25.7790  -30.2265   21.4972 C   0  0  0  0  0  0  0  0  0  0  0  0
  -26.3893  -34.3669   25.9271 C   0  0  0  0  0  0  0  0  0  0  0  0
  -24.4700  -29.7399   21.3712 C   0  0  0  0  0  0  0  0  0  0  0  0
  -22.3029   -8.4336   21.7310 C   0  0  0  0  0  0  0  0  0  0  0  0
  -25.3068  -27.4678   21.5891 C   0  0  0  0  0  0  0  0  0  0  0  0
  -21.3646   -6.6047   22.8699 C   0  0  0  0  0  0  0  0  0  0  0  0
  -21.7142   -4.1859   24.2151 C   0  0  0  0  0  0  0  0  0  0  0  0
  -20.9446   -6.4759   24.1938 C   0  0  0  0  0  0  0  0  0  0  0  0
  -25.7582  -10.3894   20.2702 C   0  0  0  0  0  0  0  0  0  0  0  0
  -24.7656  -21.9999   22.8073 C   0  0  0  0  0  0  0  0  0  0  0  0
  -25.7676  -23.8501   21.7930 C   0  0  0  0  0  0  0  0  0  0  0  0
  -27.6906  -10.8531   19.3291 C   0  0  0  0  0  0  0  0  0  0  0  0
  -25.6129  -21.8617   20.7025 C   0  0  0  0  0  0  0  0  0  0  0  0
  -27.0503   -8.4402   19.1996 C   0  0  0  0  0  0  0  0  0  0  0  0
  -24.5661  -32.5804   23.2555 C   0  0  0  0  0  0  0  0  0  0  0  0
  -22.7108  -33.0558   20.6375 C   0  0  0  0  0  0  0  0  0  0  0  0
  -21.3041  -31.7626   17.8098 C   0  0  0  0  0  0  0  0  0  0  0  0
  -26.6218  -16.6537   18.7682 C   0  0  0  0  0  0  0  0  0  0  0  0
  -25.2764  -36.6315   26.2791 C   0  0  0  0  0  0  0  0  0  0  0  0
  -26.0535  -31.7033   21.4186 C   0  0  0  0  0  0  0  0  0  0  0  0
  -23.2947  -30.6638   21.1876 C   0  0  0  0  0  0  0  0  0  0  0  0
  -24.1447  -36.1142   25.3948 C   0  0  0  0  0  0  0  0  0  0  0  0
  -29.0402  -15.0913   21.0361 C   0  0  0  0  0  0  0  0  0  0  0  0
  -23.8774  -34.6393   25.6780 C   0  0  0  0  0  0  0  0  0  0  0  0
  -28.5231  -13.6570   21.0721 C   0  0  0  0  0  0  0  0  0  0  0  0
  -27.9107  -16.1136   20.9034 C   0  0  0  0  0  0  0  0  0  0  0  0
  -26.4878  -14.4116   19.7945 C   0  0  0  0  0  0  0  0  0  0  0  0
  -26.1303  -19.0869   18.1651 C   0  0  0  0  0  0  0  0  0  0  0  0
  -26.3644  -18.7921   20.2592 C   0  0  0  0  0  0  0  0  0  0  0  0
  -25.1112  -33.7848   25.3634 C   0  0  1  0  0  0  0  0  0  0  0  0
  -24.8411  -32.5564   21.7785 C   0  0  1  0  0  0  0  0  0  0  0  0
  -27.6221  -13.3793   19.8596 C   0  0  2  0  0  0  0  0  0  0  0  0
  -25.5034  -19.7330   19.4056 C   0  0  0  0  0  0  0  0  0  0  0  0
  -25.0590  -20.7029   24.9329 C   0  0  0  0  0  0  0  0  0  0  0  0
  -19.8074  -32.3826   15.8933 C   0  0  0  0  0  0  0  0  0  0  0  0
  -20.2849  -32.8863   22.4804 C   0  0  0  0  0  0  0  0  0  0  0  0
  -18.8544  -32.5567   20.4522 C   0  0  0  0  0  0  0  0  0  0  0  0
  -20.1462  -34.6719   20.7349 C   0  0  0  0  0  0  0  0  0  0  0  0
  -23.4265  -31.2109   15.8224 C   0  0  0  0  0  0  0  0  0  0  0  0
  -24.0765  -21.3448   23.9570 C   0  0  0  0  0  0  0  0  0  0  0  0
  -26.2055  -25.2763   21.8019 C   0  0  0  0  0  0  0  0  0  1  0  0
  -21.3741  -32.5364   20.1658 C   0  0  1  0  0  0  0  0  0  0  0  0
  -21.2429  -32.2848   16.3857 C   0  0  2  0  0  0  0  0  0  0  0  0
  -20.1866  -33.1453   20.9637 C   0  0  0  0  0  0  0  0  0  0  0  0
  -25.9092  -11.7047   20.4467 N   0  0  0  0  0  0  0  0  0  0  0  0
  -24.9892  -21.2352   21.7184 N   0  0  0  0  0  0  0  0  0  0  0  0
  -26.0231  -23.1440   20.6721 N   0  0  0  0  0  0  0  0  0  0  0  0
  -27.0936  -11.9566   19.8638 N   0  0  0  0  0  0  0  0  0  0  0  0
  -23.6139  -32.0996   21.1231 N   0  0  0  0  0  0  0  0  0  0  0  0
  -27.0027  -15.7861   19.7976 N   0  0  0  0  0  0  0  0  0  0  0  0
  -26.5340  -17.9972   19.0506 N   0  0  0  0  0  0  0  0  0  0  0  0
  -28.8856  -10.9280   18.7056 N   0  0  0  0  0  0  0  0  0  0  0  0
  -26.0735   -7.4931   19.5360 N   0  0  0  0  0  0  0  0  0  0  0  0
  -25.8611  -21.0990   19.5563 N   0  0  0  0  0  0  0  0  0  0  0  0
  -25.2340  -33.5806   23.9359 N   0  0  0  0  0  0  0  0  0  0  0  0
  -21.3214  -32.7894   18.7300 N   0  0  0  0  0  0  0  0  0  0  0  0
  -21.9934  -31.3801   15.4696 N   0  3  0  0  0  0  0  0  0  0  0  0
  -28.0838   -8.0677   18.5942 O   0  0  0  0  0  0  0  0  0  0  0  0
  -23.8033  -31.7536   23.7416 O   0  0  0  0  0  0  0  0  0  0  0  0
  -22.9476  -34.2645   20.5706 O   0  0  0  0  0  0  0  0  0  0  0  0
  -21.3299  -30.5637   18.0791 O   0  0  0  0  0  0  0  0  0  0  0  0
  -26.3373  -16.2398   17.6365 O   0  0  0  0  0  0  0  0  0  0  0  0
  -21.1910   -7.8045   22.2005 O   0  0  0  0  0  0  0  0  0  0  0  0
  -25.0715  -26.1188   21.6382 O   0  0  0  0  0  0  0  0  0  1  0  0
  -21.8808   -3.0240   24.8604 F   0  0  0  0  0  0  0  0  0  0  0  0
  -20.3715   -7.5102   24.8243 F   0  0  0  0  0  0  0  0  0  0  0  0
  1  2  1  0  0  0  0
  1  5  2  0  0  0  0
  2  6  2  0  0  0  0
  3  8  2  0  0  0  0
  3 16  1  0  0  0  0
  4  9  1  0  0  0  0
  4 16  2  0  0  0  0
  5 18  1  0  0  0  0
  6 20  1  0  0  0  0
  7 10  2  0  0  0  0
  7 19  1  0  0  0  0
  8 22  1  0  0  0  0
  9 22  2  0  0  0  0
 10 23  1  0  0  0  0
 11 12  2  0  0  0  0
 11 24  1  0  0  0  0
 12 25  1  0  0  0  0
 13 21  1  0  0  0  0
 13 23  2  0  0  0  0
 14 25  2  0  0  0  0
 14 26  1  0  0  0  0
 15 28  1  0  0  0  0
 15 29  2  0  0  0  0
 16 27  1  0  0  0  0
 17 27  1  0  0  0  0
 17 30  2  0  0  0  0
 17 32  1  0  0  0  0
 18 20  2  0  0  0  0
 18 37  1  0  0  0  0
 19 21  2  0  0  0  0
 19 38  1  0  0  0  0
 20 48  1  0  0  0  0
 21 39  1  0  0  0  0
 22 81  1  0  0  0  0
 23 82  1  0  0  0  0
 24 26  2  0  0  0  0
 24 81  1  0  0  0  0
 25 83  1  0  0  0  0
 26 84  1  0  0  0  0
 27 63  2  0  0  0  0
 28 58  1  0  0  0  0
 28 64  2  0  0  0  0
 29 59  1  0  0  0  0
 29 65  1  0  0  0  0
 30 66  1  0  0  0  0
 30 70  1  0  0  0  0
 31 64  1  0  0  0  0
 31 65  2  0  0  0  0
 31 72  1  0  0  0  0
 32 71  1  0  0  0  0
 32 76  2  0  0  0  0
 33 49  1  0  0  0  0
 33 73  1  0  0  0  0
 33 77  2  0  0  0  0
 34 60  1  0  0  0  0
 34 67  1  0  0  0  0
 34 78  2  0  0  0  0
 35 61  1  0  0  0  0
 35 74  1  0  0  0  0
 35 79  2  0  0  0  0
 36 68  1  0  0  0  0
 36 69  1  0  0  0  0
 36 80  2  0  0  0  0
 37 40  1  0  0  0  0
 38 49  1  0  0  0  0
 39 67  1  0  0  0  0
 40 42  1  0  0  0  0
 41 43  1  0  0  0  0
 41 44  1  0  0  0  0
 42 48  1  0  0  0  0
 43 50  1  0  0  0  0
 44 68  1  0  0  0  0
 45 50  1  0  0  0  0
 45 68  1  0  0  0  0
 46 51  1  0  0  0  0
 46 69  1  0  0  0  0
 47 51  1  0  0  0  0
 47 69  1  0  0  0  0
 48 73  1  0  0  0  0
 49 67  1  0  0  0  0
 50 66  1  0  0  0  0
 51 72  1  0  0  0  0
 52 58  1  0  0  0  0
 53 61  1  0  0  0  0
 54 62  1  0  0  0  0
 55 62  1  0  0  0  0
 56 62  1  0  0  0  0
 57 75  1  0  0  0  0
 59 82  1  0  0  0  0
 60 62  1  0  0  0  0
 60 74  1  0  0  0  0
 61 75  1  0  0  0  0
 63 66  1  0  0  0  0
M  CHG  1  75   1
M  ISO  4  36 100  59 101  69 100  82 101
M  END
> <Batch ID>
0182

> <Smiles>
CCc1cc([101CH2:1][101O:1]c2ccc3c(c2)CN(C(=O)C(NC(=O)C(C)NC)C(C)(C)C)C(C(=O)NC2CCCc4ccccc42)C3)nc(NC2C[100N:0]([100C:0](=O)N3CCCC(n4nc(-c5ccc(Oc6ccc(F)cc6F)cc5)c(C(N)=O)c4N)C3)C2)n1

> <Shape>
0.206

> <Color>
0.095

> <Negative vol penalty>
0.000

$$$$

  -OEChem-04052323053D

 82 91  0     1  0  0  0  0  0999 V2000
  -34.2249  -23.2749   21.4518 C   0  0  0  0  0  0  0  0  0  0  0  0
  -33.2153  -22.8823   20.5789 C   0  0  0  0  0  0  0  0  0  0  0  0
  -23.2513   -9.9032   19.8765 C   0  0  0  0  0  0  0  0  0  0  0  0
  -23.7264   -9.9559   22.2448 C   0  0  0  0  0  0  0  0  0  0  0  0
  -34.0171  -24.3463   22.3194 C   0  0  0  0  0  0  0  0  0  0  0  0
  -31.9968  -23.5602   20.5738 C   0  0  0  0  0  0  0  0  0  0  0  0
  -30.3511  -24.5634   15.8909 C   0  0  0  0  0  0  0  0  0  0  0  0
  -22.4970   -8.7434   20.0537 C   0  0  0  0  0  0  0  0  0  0  0  0
  -22.9720   -8.7962   22.4219 C   0  0  0  0  0  0  0  0  0  0  0  0
  -29.7626  -23.5152   15.1846 C   0  0  0  0  0  0  0  0  0  0  0  0
  -19.7046   -7.9613   22.6413 C   0  0  0  0  0  0  0  0  0  0  0  0
  -18.8114   -7.9283   23.7120 C   0  0  0  0  0  0  0  0  0  0  0  0
  -27.5784  -24.3766   15.7383 C   0  0  0  0  0  0  0  0  0  0  0  0
  -19.9779   -6.0203   24.6263 C   0  0  0  0  0  0  0  0  0  0  0  0
  -23.8661  -10.5094   20.9721 C   0  0  0  0  0  0  0  0  0  0  0  0
  -24.1887  -13.0371   20.8520 C   0  0  0  0  0  0  0  0  0  0  0  0
  -32.7989  -25.0439   22.3183 C   0  0  0  0  0  0  0  0  0  0  0  0
  -29.5562  -25.5215   16.5364 C   0  0  0  0  0  0  0  0  0  0  0  0
  -31.7720  -24.6412   21.4432 C   0  0  0  0  0  0  0  0  0  0  0  0
  -28.1593  -25.4373   16.4499 C   0  0  0  0  0  0  0  0  0  0  0  0
  -22.3572   -8.1899   21.3264 C   0  0  0  0  0  0  0  0  0  0  0  0
  -28.3760  -23.4201   15.1107 C   0  0  0  0  0  0  0  0  0  0  0  0
  -20.7345   -7.0238   22.5629 C   0  0  0  0  0  0  0  0  0  0  0  0
  -18.9480   -6.9579   24.7046 C   0  0  0  0  0  0  0  0  0  0  0  0
  -20.8711   -6.0533   23.5555 C   0  0  0  0  0  0  0  0  0  0  0  0
  -24.6460  -11.7072   20.7897 C   0  0  0  0  0  0  0  0  0  0  0  0
  -25.3075  -13.7966   20.6115 C   0  0  0  0  0  0  0  0  0  0  0  0
  -26.9268  -19.6624   14.0415 C   0  0  0  0  0  0  0  0  0  0  0  0
  -27.5986  -18.3822   14.3841 C   0  0  0  0  0  0  0  0  0  0  0  0
  -25.7140  -20.0045   14.4797 C   0  0  0  0  0  0  0  0  0  0  0  0
  -22.8704  -13.5410   21.1048 C   0  0  0  0  0  0  0  0  0  0  0  0
  -29.1562  -26.4404   19.5529 C   0  0  0  0  0  0  0  0  0  0  0  0
  -27.2933  -28.7258   18.2005 C   0  0  0  0  0  0  0  0  0  0  0  0
  -25.3745  -29.7084   15.5549 C   0  0  0  0  0  0  0  0  0  0  0  0
  -29.9628  -14.6781   17.5469 C   0  0  0  0  0  0  0  0  0  0  0  0
  -32.6038  -26.1656   23.3074 C   0  0  0  0  0  0  0  0  0  0  0  0
  -30.2067  -26.6611   17.2717 C   0  0  0  0  0  0  0  0  0  0  0  0
  -27.2615  -26.4517   17.1082 C   0  0  0  0  0  0  0  0  0  0  0  0
  -28.8718  -18.2396   13.6015 C   0  0  0  0  0  0  0  0  0  0  0  0
  -31.4185  -27.0693   22.9775 C   0  0  0  0  0  0  0  0  0  0  0  0
  -28.6801  -19.2769   12.4943 C   0  0  0  0  0  0  0  0  0  0  0  0
  -30.1807  -12.5415   20.4260 C   0  0  0  0  0  0  0  0  0  0  0  0
  -30.1906  -26.2336   22.6301 C   0  0  0  0  0  0  0  0  0  0  0  0
  -28.7307  -12.1975   20.7510 C   0  0  0  0  0  0  0  0  0  0  0  0
  -30.3842  -12.6734   18.9227 C   0  0  0  0  0  0  0  0  0  0  0  0
  -29.3566  -16.6861   16.0906 C   0  0  0  0  0  0  0  0  0  0  0  0
  -27.6642  -15.4985   16.5960 C   0  0  0  0  0  0  0  0  0  0  0  0
  -28.0309  -13.3958   18.6162 C   0  0  0  0  0  0  0  0  0  0  0  0
  -30.4454  -25.3674   21.3907 C   0  0  1  0  0  0  0  0  0  0  0  0
  -27.8181  -20.4042   13.0859 C   0  0  2  0  0  0  0  0  0  0  0  0
  -29.2972  -27.2909   18.3223 C   0  0  1  0  0  0  0  0  0  0  0  0
  -28.0469  -16.3431   15.3743 C   0  0  0  0  0  0  0  0  0  0  0  0
  -27.7808  -13.2310   20.1287 C   0  0  1  0  0  0  0  0  0  0  0  0
  -23.9501  -31.6130   14.7543 C   0  0  0  0  0  0  0  0  0  0  0  0
  -25.0632  -27.8487   20.0893 C   0  0  0  0  0  0  0  0  0  0  0  0
  -23.4411  -29.0815   18.6343 C   0  0  0  0  0  0  0  0  0  0  0  0
  -25.2671  -30.3238   19.7941 C   0  0  0  0  0  0  0  0  0  0  0  0
  -27.1097  -30.1695   13.2022 C   0  0  0  0  0  0  0  0  0  0  0  0
  -28.6630  -21.4567   13.7996 C   0  0  0  0  0  0  0  0  0  1  0  0
  -25.8337  -28.8347   17.8309 C   0  0  1  0  0  0  0  0  0  0  0  0
  -25.3421  -31.0006   14.7590 C   0  0  2  0  0  0  0  0  0  0  0  0
  -24.9179  -29.0018   19.0763 C   0  0  0  0  0  0  0  0  0  0  0  0
  -25.9535  -11.6232   20.5298 N   0  0  0  0  0  0  0  0  0  0  0  0
  -27.1950  -17.5054   15.2361 N   0  0  0  0  0  0  0  0  0  0  0  0
  -26.3272  -12.9099   20.4266 N   0  0  0  0  0  0  0  0  0  0  0  0
  -27.9449  -27.5438   17.8208 N   0  0  0  0  0  0  0  0  0  0  0  0
  -29.4514  -13.6319   18.3225 N   0  0  0  0  0  0  0  0  0  0  0  0
  -29.0726  -15.5486   16.9618 N   0  0  0  0  0  0  0  0  0  0  0  0
  -25.5087  -15.1297   20.5422 N   0  0  0  0  0  0  0  0  0  0  0  0
  -21.8363  -12.6226   21.3319 N   0  0  0  0  0  0  0  0  0  0  0  0
  -30.3526  -26.1666   20.1877 N   0  0  0  0  0  0  0  0  0  0  0  0
  -25.7370  -29.9259   16.8674 N   0  0  0  0  0  0  0  0  0  0  0  0
  -25.7500  -30.7500   13.3477 N   0  3  0  0  0  0  0  0  0  0  0  0
  -22.6137  -14.7688   21.1123 O   0  0  0  0  0  0  0  0  0  0  0  0
  -28.0441  -26.0618   19.9015 O   0  0  0  0  0  0  0  0  0  0  0  0
  -27.8372  -29.6581   18.7977 O   0  0  0  0  0  0  0  0  0  0  0  0
  -25.1016  -28.6158   15.0626 O   0  0  0  0  0  0  0  0  0  0  0  0
  -31.1783  -14.8151   17.3549 O   0  0  0  0  0  0  0  0  0  0  0  0
  -21.6210   -7.0583   21.4996 O   0  0  0  0  0  0  0  0  0  0  0  0
  -27.7937  -22.3883   14.4162 O   0  0  0  0  0  0  0  0  0  1  0  0
  -18.0911   -6.9272   25.7336 F   0  0  0  0  0  0  0  0  0  0  0  0
  -21.8592   -5.1507   23.4863 F   0  0  0  0  0  0  0  0  0  0  0  0
  1  2  1  0  0  0  0
  1  5  2  0  0  0  0
  2  6  2  0  0  0  0
  3  8  2  0  0  0  0
  3 15  1  0  0  0  0
  4  9  1  0  0  0  0
  4 15  2  0  0  0  0
  5 17  1  0  0  0  0
  6 19  1  0  0  0  0
  7 10  2  0  0  0  0
  7 18  1  0  0  0  0
  8 21  1  0  0  0  0
  9 21  2  0  0  0  0
 10 22  1  0  0  0  0
 11 12  2  0  0  0  0
 11 23  1  0  0  0  0
 12 24  1  0  0  0  0
 13 20  1  0  0  0  0
 13 22  2  0  0  0  0
 14 24  2  0  0  0  0
 14 25  1  0  0  0  0
 15 26  1  0  0  0  0
 16 26  1  0  0  0  0
 16 27  2  0  0  0  0
 16 31  1  0  0  0  0
 17 19  2  0  0  0  0
 17 36  1  0  0  0  0
 18 20  2  0  0  0  0
 18 37  1  0  0  0  0
 19 49  1  0  0  0  0
 20 38  1  0  0  0  0
 21 79  1  0  0  0  0
 22 80  1  0  0  0  0
 23 25  2  0  0  0  0
 23 79  1  0  0  0  0
 24 81  1  0  0  0  0
 25 82  1  0  0  0  0
 26 63  2  0  0  0  0
 27 65  1  0  0  0  0
 27 69  1  0  0  0  0
 28 29  1  0  0  0  0
 28 30  2  0  0  0  0
 28 50  1  0  0  0  0
 29 39  1  0  0  0  0
 29 64  2  0  0  0  0
 31 70  1  0  0  0  0
 31 74  2  0  0  0  0
 32 51  1  0  0  0  0
 32 71  1  0  0  0  0
 32 75  2  0  0  0  0
 33 60  1  0  0  0  0
 33 66  1  0  0  0  0
 33 76  2  0  0  0  0
 34 61  1  0  0  0  0
 34 72  1  0  0  0  0
 34 77  2  0  0  0  0
 35 67  1  0  0  0  0
 35 68  1  0  0  0  0
 35 78  2  0  0  0  0
 36 40  1  0  0  0  0
 37 51  1  0  0  0  0
 38 66  1  0  0  0  0
 39 41  1  0  0  0  0
 40 43  1  0  0  0  0
 41 50  1  0  0  0  0
 42 44  1  0  0  0  0
 42 45  1  0  0  0  0
 43 49  1  0  0  0  0
 44 53  1  0  0  0  0
 45 67  1  0  0  0  0
 46 52  1  0  0  0  0
 46 68  1  0  0  0  0
 47 52  1  0  0  0  0
 47 68  1  0  0  0  0
 48 53  1  0  0  0  0
 48 67  1  0  0  0  0
 49 71  1  0  0  0  0
 50 59  1  0  0  0  0
 51 66  1  0  0  0  0
 52 64  1  0  0  0  0
 53 65  1  0  0  0  0
 54 61  1  0  0  0  0
 55 62  1  0  0  0  0
 56 62  1  0  0  0  0
 57 62  1  0  0  0  0
 58 73  1  0  0  0  0
 59 80  1  0  0  0  0
 60 62  1  0  0  0  0
 60 72  1  0  0  0  0
 61 73  1  0  0  0  0
 63 65  1  0  0  0  0
M  CHG  1  73   1
M  ISO  4  35 100  59 101  68 100  80 101
M  END
> <Batch ID>
0182

> <Smiles>
C=C1C(=NC2C[100N:0]([100C:0](=O)N3CCCC(n4nc(-c5ccc(Oc6ccc(F)cc6F)cc5)c(C(N)=O)c4N)C3)C2)CCC1[101CH2:1][101O:1]c1ccc2c(c1)CN(C(=O)C(NC(=O)C(C)NC)C(C)(C)C)C(C(=O)NC1CCCc3ccccc31)C2

> <Shape>
0.190

> <Color>
0.189

> <Negative vol penalty>
0.000

$$$$

  -OEChem-04052323053D

 84 93  0     1  0  0  0  0  0999 V2000
  -20.7079  -26.0616   25.7432 C   0  0  0  0  0  0  0  0  0  0  0  0
  -21.6988  -25.9115   24.7783 C   0  0  0  0  0  0  0  0  0  0  0  0
  -24.3659   -8.8290   22.4275 C   0  0  0  0  0  0  0  0  0  0  0  0
  -22.7800  -10.0083   21.0379 C   0  0  0  0  0  0  0  0  0  0  0  0
  -19.6658  -26.9643   25.5360 C   0  0  0  0  0  0  0  0  0  0  0  0
  -21.6475  -26.6633   23.6050 C   0  0  0  0  0  0  0  0  0  0  0  0
  -26.1431  -28.6369   22.3643 C   0  0  0  0  0  0  0  0  0  0  0  0
  -23.6599   -7.6429   22.2268 C   0  0  0  0  0  0  0  0  0  0  0  0
  -22.0739   -8.8222   20.8371 C   0  0  0  0  0  0  0  0  0  0  0  0
  -27.0705  -27.7834   21.7682 C   0  0  0  0  0  0  0  0  0  0  0  0
  -20.8525   -6.1840   23.4162 C   0  0  0  0  0  0  0  0  0  0  0  0
  -20.6088   -5.3794   24.5292 C   0  0  0  0  0  0  0  0  0  0  0  0
  -26.4948  -28.6793   19.6037 C   0  0  0  0  0  0  0  0  0  0  0  0
  -21.8262   -3.5707   23.4883 C   0  0  0  0  0  0  0  0  0  0  0  0
  -26.0540  -19.5078   21.2057 C   0  0  0  0  0  0  0  0  0  0  0  0
  -23.9259  -10.0117   21.8331 C   0  0  0  0  0  0  0  0  0  0  0  0
  -25.7124  -11.7401   21.2596 C   0  0  0  0  0  0  0  0  0  0  0  0
  -19.6069  -27.7347   24.3639 C   0  0  0  0  0  0  0  0  0  0  0  0
  -25.3755  -29.5118   21.5821 C   0  0  0  0  0  0  0  0  0  0  0  0
  -20.6029  -27.5763   23.3814 C   0  0  0  0  0  0  0  0  0  0  0  0
  -25.5602  -29.5447   20.1925 C   0  0  0  0  0  0  0  0  0  0  0  0
  -22.5139   -7.6395   21.4315 C   0  0  0  0  0  0  0  0  0  0  0  0
  -27.2444  -27.8025   20.3875 C   0  0  0  0  0  0  0  0  0  0  0  0
  -21.5830   -5.6820   22.3392 C   0  0  0  0  0  0  0  0  0  0  0  0
  -21.0957   -4.0728   24.5653 C   0  0  0  0  0  0  0  0  0  0  0  0
  -22.0699   -4.3753   22.3752 C   0  0  0  0  0  0  0  0  0  0  0  0
  -24.6545  -11.2374   22.0406 C   0  0  0  0  0  0  0  0  0  0  0  0
  -25.6093  -19.2534   22.4788 C   0  0  0  0  0  0  0  0  0  0  0  0
  -26.0569  -12.9222   21.8682 C   0  0  0  0  0  0  0  0  0  0  0  0
  -26.3285  -11.1879   20.0886 C   0  0  0  0  0  0  0  0  0  0  0  0
  -22.2686  -29.8778   21.0190 C   0  0  0  0  0  0  0  0  0  0  0  0
  -23.2693  -32.5019   19.3956 C   0  0  0  0  0  0  0  0  0  0  0  0
  -25.7891  -34.0946   17.7341 C   0  0  0  0  0  0  0  0  0  0  0  0
  -24.6683  -17.7507   24.2683 C   0  0  0  0  0  0  0  0  0  0  0  0
  -18.4354  -28.6631   24.1635 C   0  0  0  0  0  0  0  0  0  0  0  0
  -24.3984  -30.4450   22.2430 C   0  0  0  0  0  0  0  0  0  0  0  0
  -24.7755  -30.4797   19.3102 C   0  0  0  0  0  0  0  0  0  0  0  0
  -18.6573  -29.6944   23.0601 C   0  0  0  0  0  0  0  0  0  0  0  0
  -24.6697  -14.8528   26.3371 C   0  0  0  0  0  0  0  0  0  0  0  0
  -19.2310  -29.0277   21.8138 C   0  0  0  0  0  0  0  0  0  0  0  0
  -24.7529  -13.6952   25.3395 C   0  0  0  0  0  0  0  0  0  0  0  0
  -26.0027  -22.7913   19.8424 C   0  0  0  0  0  0  0  0  0  0  0  0
  -28.3509  -22.1389   20.5398 C   0  0  0  0  0  0  0  0  0  0  0  0
  -23.8092  -15.9981   25.8064 C   0  0  0  0  0  0  0  0  0  0  0  0
  -24.2694  -15.3355   23.4786 C   0  0  0  0  0  0  0  0  0  0  0  0
  -26.5877  -23.6941   18.7643 C   0  0  0  0  0  0  0  0  0  0  0  0
  -28.9121  -23.0491   19.4552 C   0  0  0  0  0  0  0  0  0  0  0  0
  -20.5954  -28.3920   22.1067 C   0  0  1  0  0  0  0  0  0  0  0  0
  -23.3035  -30.9308   21.2982 C   0  0  1  0  0  0  0  0  0  0  0  0
  -25.1786  -14.1855   23.9416 C   0  0  2  0  0  0  0  0  0  0  0  0
  -26.9494  -21.6275   20.1732 C   0  0  0  0  0  0  0  0  0  0  0  0
  -26.2955  -36.2115   16.4852 C   0  0  0  0  0  0  0  0  0  0  0  0
  -21.7201  -31.4487   16.9872 C   0  0  0  0  0  0  0  0  0  0  0  0
  -23.0078  -33.0434   15.5495 C   0  0  0  0  0  0  0  0  0  0  0  0
  -21.5247  -33.9144   17.3562 C   0  0  0  0  0  0  0  0  0  0  0  0
  -27.9019  -34.8620   19.6592 C   0  0  0  0  0  0  0  0  0  0  0  0
  -28.5134  -25.1855   18.2330 C   0  0  0  0  0  0  0  0  0  0  0  0
  -27.8662  -26.5351   18.4736 C   0  0  0  0  0  0  0  0  0  1  0  0
  -23.6983  -32.7814   17.9755 C   0  0  1  0  0  0  0  0  0  0  0  0
  -26.3242  -35.5116   17.8351 C   0  0  2  0  0  0  0  0  0  0  0  0
  -22.5013  -32.7778   16.9832 C   0  0  0  0  0  0  0  0  0  0  0  0
  -24.3473  -12.0348   23.0672 N   0  0  0  0  0  0  0  0  0  0  0  0
  -25.7041  -20.3892   23.2341 N   0  0  0  0  0  0  0  0  0  0  0  0
  -26.1977  -21.3521   22.4632 N   0  0  0  0  0  0  0  0  0  0  0  0
  -26.4066  -20.8216   21.2474 N   0  0  0  0  0  0  0  0  0  0  0  0
  -25.2173  -13.0505   22.9354 N   0  0  0  0  0  0  0  0  0  0  0  0
  -23.8278  -31.3683   20.0029 N   0  0  0  0  0  0  0  0  0  0  0  0
  -24.2738  -16.4128   24.4808 N   0  0  0  0  0  0  0  0  0  0  0  0
  -26.9930  -13.8540   21.5893 N   0  0  0  0  0  0  0  0  0  0  0  0
  -25.8519   -9.9654   19.5963 N   0  0  0  0  0  0  0  0  0  0  0  0
  -25.1222  -18.0199   22.9776 N   0  0  0  0  0  0  0  0  0  0  0  0
  -21.6270  -29.4061   22.1482 N   0  0  0  0  0  0  0  0  0  0  0  0
  -24.4399  -34.0372   18.0127 N   0  0  0  0  0  0  0  0  0  0  0  0
  -27.9551  -24.1968   19.1896 N   0  3  0  0  0  0  0  0  0  0  0  0
  -27.7303  -35.5004   18.3288 N   0  3  0  0  0  0  0  0  0  0  0  0
  -27.2845  -11.7537   19.5060 O   0  0  0  0  0  0  0  0  0  0  0  0
  -22.0662  -29.5209   19.8643 O   0  0  0  0  0  0  0  0  0  0  0  0
  -22.4736  -33.2655   19.9483 O   0  0  0  0  0  0  0  0  0  0  0  0
  -26.4964  -33.1353   17.4343 O   0  0  0  0  0  0  0  0  0  0  0  0
  -24.6336  -18.5889   25.1728 O   0  0  0  0  0  0  0  0  0  0  0  0
  -21.8248   -6.4823   21.2352 O   0  0  0  0  0  0  0  0  0  0  0  0
  -28.1485  -26.9700   19.8031 O   0  0  0  0  0  0  0  0  0  1  0  0
  -20.8629   -3.3008   25.6348 F   0  0  0  0  0  0  0  0  0  0  0  0
  -22.7734   -3.8878   21.3440 F   0  0  0  0  0  0  0  0  0  0  0  0
  1  2  1  0  0  0  0
  1  5  2  0  0  0  0
  2  6  2  0  0  0  0
  3  8  2  0  0  0  0
  3 16  1  0  0  0  0
  4  9  1  0  0  0  0
  4 16  2  0  0  0  0
  5 18  1  0  0  0  0
  6 20  1  0  0  0  0
  7 10  2  0  0  0  0
  7 19  1  0  0  0  0
  8 22  1  0  0  0  0
  9 22  2  0  0  0  0
 10 23  1  0  0  0  0
 11 12  2  0  0  0  0
 11 24  1  0  0  0  0
 12 25  1  0  0  0  0
 13 21  1  0  0  0  0
 13 23  2  0  0  0  0
 14 25  2  0  0  0  0
 14 26  1  0  0  0  0
 15 28  2  0  0  0  0
 15 65  1  0  0  0  0
 16 27  1  0  0  0  0
 17 27  1  0  0  0  0
 17 29  2  0  0  0  0
 17 30  1  0  0  0  0
 18 20  2  0  0  0  0
 18 35  1  0  0  0  0
 19 21  2  0  0  0  0
 19 36  1  0  0  0  0
 20 48  1  0  0  0  0
 21 37  1  0  0  0  0
 22 81  1  0  0  0  0
 23 82  1  0  0  0  0
 24 26  2  0  0  0  0
 24 81  1  0  0  0  0
 25 83  1  0  0  0  0
 26 84  1  0  0  0  0
 27 62  2  0  0  0  0
 28 63  1  0  0  0  0
 28 71  1  0  0  0  0
 29 66  1  0  0  0  0
 29 69  1  0  0  0  0
 30 70  1  0  0  0  0
 30 76  2  0  0  0  0
 31 49  1  0  0  0  0
 31 72  1  0  0  0  0
 31 77  2  0  0  0  0
 32 59  1  0  0  0  0
 32 67  1  0  0  0  0
 32 78  2  0  0  0  0
 33 60  1  0  0  0  0
 33 73  1  0  0  0  0
 33 79  2  0  0  0  0
 34 68  1  0  0  0  0
 34 71  1  0  0  0  0
 34 80  2  0  0  0  0
 35 38  1  0  0  0  0
 36 49  1  0  0  0  0
 37 67  1  0  0  0  0
 38 40  1  0  0  0  0
 39 41  1  0  0  0  0
 39 44  1  0  0  0  0
 40 48  1  0  0  0  0
 41 50  1  0  0  0  0
 42 46  1  0  0  0  0
 42 51  1  0  0  0  0
 43 47  1  0  0  0  0
 43 51  1  0  0  0  0
 44 68  1  0  0  0  0
 45 50  1  0  0  0  0
 45 68  1  0  0  0  0
 46 74  1  0  0  0  0
 47 74  1  0  0  0  0
 48 72  1  0  0  0  0
 49 67  1  0  0  0  0
 50 66  1  0  0  0  0
 51 65  1  0  0  0  0
 52 60  1  0  0  0  0
 53 61  1  0  0  0  0
 54 61  1  0  0  0  0
 55 61  1  0  0  0  0
 56 75  1  0  0  0  0
 57 58  1  0  0  0  0
 57 74  1  0  0  0  0
 58 82  1  0  0  0  0
 59 61  1  0  0  0  0
 59 73  1  0  0  0  0
 60 75  1  0  0  0  0
 62 66  1  0  0  0  0
 63 64  2  0  0  0  0
 64 65  1  0  0  0  0
M  CHG  2  74   1  75   1
M  ISO  4  34 100  58 101  71 100  82 101
M  END
> <Batch ID>
0182

> <Smiles>
CNC(C)C(=O)NC(C(=O)N1Cc2cc([101O:1][101CH2:1]CN3CCC(n4cc([100NH:0][100C:0](=O)N5CCCC(n6nc(-c7ccc(Oc8ccc(F)cc8F)cc7)c(C(N)=O)c6N)C5)nn4)CC3)ccc2CC1C(=O)NC1CCCc2ccccc21)C(C)(C)C

> <Shape>
0.225

> <Color>
0.107

> <Negative vol penalty>
0.000

$$$$

  -OEChem-04052323053D

 85 94  0     1  0  0  0  0  0999 V2000
  -33.4357  -33.4256   16.7150 C   0  0  0  0  0  0  0  0  0  0  0  0
  -32.9521  -32.2143   17.1989 C   0  0  0  0  0  0  0  0  0  0  0  0
  -24.3744   -9.1205   21.7443 C   0  0  0  0  0  0  0  0  0  0  0  0
  -22.5794  -10.0784   20.4414 C   0  0  0  0  0  0  0  0  0  0  0  0
  -33.2487  -34.5941   17.4524 C   0  0  0  0  0  0  0  0  0  0  0  0
  -32.2821  -32.1706   18.4211 C   0  0  0  0  0  0  0  0  0  0  0  0
  -28.0790  -29.3522   18.2326 C   0  0  0  0  0  0  0  0  0  0  0  0
  -23.6994   -7.9002   21.7771 C   0  0  0  0  0  0  0  0  0  0  0  0
  -21.9044   -8.8581   20.4742 C   0  0  0  0  0  0  0  0  0  0  0  0
  -28.2380  -27.9679   18.2785 C   0  0  0  0  0  0  0  0  0  0  0  0
  -21.1261   -6.5227   23.4815 C   0  0  0  0  0  0  0  0  0  0  0  0
  -21.0571   -5.8537   24.7035 C   0  0  0  0  0  0  0  0  0  0  0  0
  -27.6760  -27.9871   20.6244 C   0  0  0  0  0  0  0  0  0  0  0  0
  -25.4043  -19.3917   19.0463 C   0  0  0  0  0  0  0  0  0  0  0  0
  -22.2105   -3.9648   23.7346 C   0  0  0  0  0  0  0  0  0  0  0  0
  -25.6300  -21.7544   20.3925 C   0  0  0  0  0  0  0  0  0  0  0  0
  -23.8143  -10.2096   21.0765 C   0  0  0  0  0  0  0  0  0  0  0  0
  -25.4410  -11.9023   20.0784 C   0  0  0  0  0  0  0  0  0  0  0  0
  -32.5677  -34.5662   18.6795 C   0  0  0  0  0  0  0  0  0  0  0  0
  -27.7273  -30.0669   19.3868 C   0  0  0  0  0  0  0  0  0  0  0  0
  -32.0870  -33.3396   19.1762 C   0  0  0  0  0  0  0  0  0  0  0  0
  -27.5106  -29.3802   20.5899 C   0  0  0  0  0  0  0  0  0  0  0  0
  -25.8822  -21.7487   19.0301 C   0  0  0  0  0  0  0  0  0  0  0  0
  -25.7650  -20.5408   18.3515 C   0  0  0  0  0  0  0  0  0  0  0  0
  -22.4645   -7.7690   21.1420 C   0  0  0  0  0  0  0  0  0  0  0  0
  -28.0394  -27.2855   19.4752 C   0  0  0  0  0  0  0  0  0  0  0  0
  -21.7373   -5.9127   22.3860 C   0  0  0  0  0  0  0  0  0  0  0  0
  -21.5993   -4.5748   24.8301 C   0  0  0  0  0  0  0  0  0  0  0  0
  -22.2795   -4.6337   22.5125 C   0  0  0  0  0  0  0  0  0  0  0  0
  -24.5108  -11.4705   21.0428 C   0  0  0  0  0  0  0  0  0  0  0  0
  -25.1737  -19.5028   20.4080 C   0  0  0  0  0  0  0  0  0  0  0  0
  -25.8085  -13.1587   20.4942 C   0  0  0  0  0  0  0  0  0  0  0  0
  -25.9291  -11.2281   18.9110 C   0  0  0  0  0  0  0  0  0  0  0  0
  -29.1055  -32.3472   21.1201 C   0  0  0  0  0  0  0  0  0  0  0  0
  -26.2700  -32.3223   22.6955 C   0  0  0  0  0  0  0  0  0  0  0  0
  -23.4493  -30.6052   23.5568 C   0  0  0  0  0  0  0  0  0  0  0  0
  -24.5273  -18.2050   22.4682 C   0  0  0  0  0  0  0  0  0  0  0  0
  -32.4313  -35.8475   19.4634 C   0  0  0  0  0  0  0  0  0  0  0  0
  -27.5335  -31.5567   19.3145 C   0  0  0  0  0  0  0  0  0  0  0  0
  -27.1122  -30.0985   21.8524 C   0  0  0  0  0  0  0  0  0  0  0  0
  -31.3825  -35.7757   20.5702 C   0  0  0  0  0  0  0  0  0  0  0  0
  -24.9088  -15.5825   24.8460 C   0  0  0  0  0  0  0  0  0  0  0  0
  -25.1990  -24.1420   18.4040 C   0  0  0  0  0  0  0  0  0  0  0  0
  -31.5412  -34.4886   21.3733 C   0  0  0  0  0  0  0  0  0  0  0  0
  -24.9158  -14.3144   23.9892 C   0  0  0  0  0  0  0  0  0  0  0  0
  -25.8891  -25.3506   19.0322 C   0  0  0  0  0  0  0  0  0  0  0  0
  -23.9414  -16.6309   24.2995 C   0  0  0  0  0  0  0  0  0  0  0  0
  -24.1353  -15.7017   22.0262 C   0  0  0  0  0  0  0  0  0  0  0  0
  -26.2713  -23.0289   18.3241 C   0  0  1  0  0  0  0  0  0  0  0  0
  -31.3334  -33.2555   20.4858 C   0  0  1  0  0  0  0  0  0  0  0  0
  -27.6760  -32.2442   20.6689 C   0  0  1  0  0  0  0  0  0  0  0  0
  -25.1429  -14.6416   22.5002 C   0  0  2  0  0  0  0  0  0  0  0  0
  -27.5438  -23.6661   18.9069 C   0  0  2  0  0  0  0  0  0  0  0  0
  -27.3593  -25.1602   18.6835 C   0  0  2  0  0  0  0  0  0  1  0  0
  -26.0213  -20.4552   16.8834 C   0  0  0  0  0  0  0  0  0  0  0  0
  -21.3320  -30.8341   24.8843 C   0  0  0  0  0  0  0  0  0  0  0  0
  -27.8505  -31.9408   25.2774 C   0  0  0  0  0  0  0  0  0  0  0  0
  -25.7234  -31.2349   26.3932 C   0  0  0  0  0  0  0  0  0  0  0  0
  -25.9329  -33.5364   25.4542 C   0  0  0  0  0  0  0  0  0  0  0  0
  -30.0231  -23.8108   18.6399 C   0  0  0  0  0  0  0  0  0  0  0  0
  -21.7643  -30.2186   21.1546 C   0  0  0  0  0  0  0  0  0  0  0  0
  -25.7115  -31.5707   23.8797 C   0  0  1  0  0  0  0  0  0  0  0  0
  -21.9823  -30.9940   23.5189 C   0  0  2  0  0  0  0  0  0  0  0  0
  -26.3140  -32.0571   25.2280 C   0  0  0  0  0  0  0  0  0  0  0  0
  -25.2775  -20.6586   21.1015 N   0  0  0  0  0  0  0  0  0  0  0  0
  -24.3005  -12.3787   21.9993 N   0  0  0  0  0  0  0  0  0  0  0  0
  -25.1038  -13.3937   21.6381 N   0  0  0  0  0  0  0  0  0  0  0  0
  -26.9413  -31.5558   21.7322 N   0  0  0  0  0  0  0  0  0  0  0  0
  -24.2191  -16.8929   22.8856 N   0  0  0  0  0  0  0  0  0  0  0  0
  -26.6625  -14.0742   19.9894 N   0  0  0  0  0  0  0  0  0  0  0  0
  -25.4468   -9.9422   18.6314 N   0  0  0  0  0  0  0  0  0  0  0  0
  -24.8050  -18.3267   21.1070 N   0  0  0  0  0  0  0  0  0  0  0  0
  -29.9230  -33.0375   20.2456 N   0  0  0  0  0  0  0  0  0  0  0  0
  -24.2604  -31.6946   23.7943 N   0  0  0  0  0  0  0  0  0  0  0  0
  -28.7486  -23.1814   18.1949 N   0  3  0  0  0  0  0  0  0  0  0  0
  -21.2453  -30.1407   22.5444 N   0  3  0  0  0  0  0  0  0  0  0  0
  -26.7805  -11.7439   18.1476 O   0  0  0  0  0  0  0  0  0  0  0  0
  -29.4415  -31.8395   22.1835 O   0  0  0  0  0  0  0  0  0  0  0  0
  -26.1102  -33.5433   22.6241 O   0  0  0  0  0  0  0  0  0  0  0  0
  -23.8365  -29.4500   23.3958 O   0  0  0  0  0  0  0  0  0  0  0  0
  -24.5703  -19.1462   23.2646 O   0  0  0  0  0  0  0  0  0  0  0  0
  -21.8057   -6.5784   21.1736 O   0  0  0  0  0  0  0  0  0  0  0  0
  -28.1946  -25.9343   19.5229 O   0  0  0  0  0  0  0  0  0  1  0  0
  -21.5343   -3.9332   26.0040 F   0  0  0  0  0  0  0  0  0  0  0  0
  -22.8689   -4.0431   21.4640 F   0  0  0  0  0  0  0  0  0  0  0  0
  1  2  1  0  0  0  0
  1  5  2  0  0  0  0
  2  6  2  0  0  0  0
  3  8  2  0  0  0  0
  3 17  1  0  0  0  0
  4  9  1  0  0  0  0
  4 17  2  0  0  0  0
  5 19  1  0  0  0  0
  6 21  1  0  0  0  0
  7 10  2  0  0  0  0
  7 20  1  0  0  0  0
  8 25  1  0  0  0  0
  9 25  2  0  0  0  0
 10 26  1  0  0  0  0
 11 12  2  0  0  0  0
 11 27  1  0  0  0  0
 12 28  1  0  0  0  0
 13 22  1  0  0  0  0
 13 26  2  0  0  0  0
 14 24  1  0  0  0  0
 14 31  2  0  0  0  0
 15 28  2  0  0  0  0
 15 29  1  0  0  0  0
 16 23  1  0  0  0  0
 16 65  2  0  0  0  0
 17 30  1  0  0  0  0
 18 30  1  0  0  0  0
 18 32  2  0  0  0  0
 18 33  1  0  0  0  0
 19 21  2  0  0  0  0
 19 38  1  0  0  0  0
 20 22  2  0  0  0  0
 20 39  1  0  0  0  0
 21 50  1  0  0  0  0
 22 40  1  0  0  0  0
 23 24  2  0  0  0  0
 23 49  1  0  0  0  0
 24 55  1  0  0  0  0
 25 82  1  0  0  0  0
 26 83  1  0  0  0  0
 27 29  2  0  0  0  0
 27 82  1  0  0  0  0
 28 84  1  0  0  0  0
 29 85  1  0  0  0  0
 30 66  2  0  0  0  0
 31 65  1  0  0  0  0
 31 72  1  0  0  0  0
 32 67  1  0  0  0  0
 32 70  1  0  0  0  0
 33 71  1  0  0  0  0
 33 77  2  0  0  0  0
 34 51  1  0  0  0  0
 34 73  1  0  0  0  0
 34 78  2  0  0  0  0
 35 62  1  0  0  0  0
 35 68  1  0  0  0  0
 35 79  2  0  0  0  0
 36 63  1  0  0  0  0
 36 74  1  0  0  0  0
 36 80  2  0  0  0  0
 37 69  1  0  0  0  0
 37 72  1  0  0  0  0
 37 81  2  0  0  0  0
 38 41  1  0  0  0  0
 39 51  1  0  0  0  0
 40 68  1  0  0  0  0
 41 44  1  0  0  0  0
 42 45  1  0  0  0  0
 42 47  1  0  0  0  0
 43 46  1  0  0  0  0
 43 49  1  0  0  0  0
 44 50  1  0  0  0  0
 45 52  1  0  0  0  0
 46 54  1  0  0  0  0
 47 69  1  0  0  0  0
 48 52  1  0  0  0  0
 48 69  1  0  0  0  0
 49 53  1  0  0  0  0
 50 73  1  0  0  0  0
 51 68  1  0  0  0  0
 52 67  1  0  0  0  0
 53 54  1  0  0  0  0
 53 75  1  0  0  0  0
 54 83  1  0  0  0  0
 56 63  1  0  0  0  0
 57 64  1  0  0  0  0
 58 64  1  0  0  0  0
 59 64  1  0  0  0  0
 60 75  1  0  0  0  0
 61 76  1  0  0  0  0
 62 64  1  0  0  0  0
 62 74  1  0  0  0  0
 63 76  1  0  0  0  0
 66 67  1  0  0  0  0
M  CHG  2  75   1  76   1
M  ISO  4  37 100  54 101  72 100  83 101
M  END
> <Batch ID>
0182

> <Smiles>
CNC(C)C(=O)NC(C(=O)N1Cc2cc([101O:1][101CH:1]3CCC(c4cnc([100NH:0][100C:0](=O)N5CCCC(n6nc(-c7ccc(Oc8ccc(F)cc8F)cc7)c(C(N)=O)c6N)C5)cc4C)C3NC)ccc2CC1C(=O)NC1CCCc2ccccc21)C(C)(C)C

> <Shape>
0.235

> <Color>
0.111

> <Negative vol penalty>
0.000

$$$$

  -OEChem-04052323053D

 82 91  0     1  0  0  0  0  0999 V2000
  -28.4565  -36.4066   23.1432 C   0  0  0  0  0  0  0  0  0  0  0  0
  -28.8318  -35.2117   22.5375 C   0  0  0  0  0  0  0  0  0  0  0  0
  -23.3937  -11.9123   19.0000 C   0  0  0  0  0  0  0  0  0  0  0  0
  -24.1458  -10.5386   20.8397 C   0  0  0  0  0  0  0  0  0  0  0  0
  -27.4579  -36.4100   24.1162 C   0  0  0  0  0  0  0  0  0  0  0  0
  -28.2094  -34.0193   22.9053 C   0  0  0  0  0  0  0  0  0  0  0  0
  -26.9430  -29.2546   19.2722 C   0  0  0  0  0  0  0  0  0  0  0  0
  -22.6972  -10.8250   18.4728 C   0  0  0  0  0  0  0  0  0  0  0  0
  -23.4492   -9.4512   20.3125 C   0  0  0  0  0  0  0  0  0  0  0  0
  -27.5963  -28.0426   19.0529 C   0  0  0  0  0  0  0  0  0  0  0  0
  -21.5746   -6.4089   19.6430 C   0  0  0  0  0  0  0  0  0  0  0  0
  -20.8172   -5.6349   20.5222 C   0  0  0  0  0  0  0  0  0  0  0  0
  -26.1412  -26.9756   20.6540 C   0  0  0  0  0  0  0  0  0  0  0  0
  -19.4962   -7.5757   21.0928 C   0  0  0  0  0  0  0  0  0  0  0  0
  -29.1999  -22.0883   18.8825 C   0  0  0  0  0  0  0  0  0  0  0  0
  -24.1181  -11.7692   20.1835 C   0  0  0  0  0  0  0  0  0  0  0  0
  -24.3561  -13.8494   21.6407 C   0  0  0  0  0  0  0  0  0  0  0  0
  -26.8162  -35.2185   24.4891 C   0  0  0  0  0  0  0  0  0  0  0  0
  -25.8893  -29.3387   20.1936 C   0  0  0  0  0  0  0  0  0  0  0  0
  -27.2022  -34.0066   23.8851 C   0  0  0  0  0  0  0  0  0  0  0  0
  -25.4746  -28.1893   20.8813 C   0  0  0  0  0  0  0  0  0  0  0  0
  -22.7249   -9.5944   19.1290 C   0  0  0  0  0  0  0  0  0  0  0  0
  -27.1973  -26.9035   19.7460 C   0  0  0  0  0  0  0  0  0  0  0  0
  -21.2928   -7.7663   19.4887 C   0  0  0  0  0  0  0  0  0  0  0  0
  -19.7781   -6.2183   21.2471 C   0  0  0  0  0  0  0  0  0  0  0  0
  -20.2536   -8.3497   20.2136 C   0  0  0  0  0  0  0  0  0  0  0  0
  -24.8383  -12.8919   20.7283 C   0  0  0  0  0  0  0  0  0  0  0  0
  -30.4148  -21.8422   18.2817 C   0  0  0  0  0  0  0  0  0  0  0  0
  -30.6664  -24.0786   17.8747 C   0  0  0  0  0  0  0  0  0  0  0  0
  -29.4511  -24.3244   18.4749 C   0  0  0  0  0  0  0  0  0  0  0  0
  -25.4176  -14.6977   21.8413 C   0  0  0  0  0  0  0  0  0  0  0  0
  -23.0642  -13.9620   22.2523 C   0  0  0  0  0  0  0  0  0  0  0  0
  -25.3933  -30.9410   22.8937 C   0  0  0  0  0  0  0  0  0  0  0  0
  -22.4203  -29.6673   22.6463 C   0  0  0  0  0  0  0  0  0  0  0  0
  -20.4230  -27.1905   21.4121 C   0  0  0  0  0  0  0  0  0  0  0  0
  -29.4408  -17.7909   19.6970 C   0  0  0  0  0  0  0  0  0  0  0  0
  -25.7753  -35.2651   25.5796 C   0  0  0  0  0  0  0  0  0  0  0  0
  -25.1775  -30.6477   20.3990 C   0  0  0  0  0  0  0  0  0  0  0  0
  -24.3356  -28.2222   21.8662 C   0  0  0  0  0  0  0  0  0  0  0  0
  -24.9040  -34.0133   25.6439 C   0  0  0  0  0  0  0  0  0  0  0  0
  -30.2670  -14.2922   20.5273 C   0  0  0  0  0  0  0  0  0  0  0  0
  -25.7668  -32.7578   25.5661 C   0  0  0  0  0  0  0  0  0  0  0  0
  -28.8734  -13.6888   20.6748 C   0  0  0  0  0  0  0  0  0  0  0  0
  -32.2950  -20.1291   18.7321 C   0  0  0  0  0  0  0  0  0  0  0  0
  -30.3081  -15.3872   19.4622 C   0  0  0  0  0  0  0  0  0  0  0  0
  -27.9013  -15.8577   19.8229 C   0  0  0  0  0  0  0  0  0  0  0  0
  -26.5331  -32.6963   24.2393 C   0  0  1  0  0  0  0  0  0  0  0  0
  -30.9272  -20.4476   18.1876 C   0  0  1  0  0  0  0  0  0  0  0  0
  -24.4543  -30.7306   21.7397 C   0  0  1  0  0  0  0  0  0  0  0  0
  -27.8297  -14.7884   20.9237 C   0  0  1  0  0  0  0  0  0  0  0  0
  -31.0767  -19.6339   19.4538 C   0  0  1  0  0  0  0  0  0  0  0  0
  -31.4920  -25.1834   17.3098 C   0  0  0  0  0  0  0  0  0  0  0  0
  -18.0424  -26.3967   21.4106 C   0  0  0  0  0  0  0  0  0  0  0  0
  -22.7754  -28.6045   25.4843 C   0  0  0  0  0  0  0  0  0  0  0  0
  -20.8421  -27.0671   25.0758 C   0  0  0  0  0  0  0  0  0  0  0  0
  -20.5071  -29.5377   24.9960 C   0  0  0  0  0  0  0  0  0  0  0  0
  -20.2077  -27.4765   18.4743 C   0  0  0  0  0  0  0  0  0  0  0  0
  -28.9017  -25.7160   18.5880 C   0  0  0  0  0  0  0  0  0  1  0  0
  -21.7593  -28.3955   23.1200 C   0  0  1  0  0  0  0  0  0  0  0  0
  -19.0866  -27.2383   20.6936 C   0  0  2  0  0  0  0  0  0  0  0  0
  -21.4937  -28.4007   24.6520 C   0  0  0  0  0  0  0  0  0  0  0  0
  -28.6962  -23.3338   18.9899 N   0  0  0  0  0  0  0  0  0  0  0  0
  -26.1073  -13.1108   20.3737 N   0  0  0  0  0  0  0  0  0  0  0  0
  -31.1699  -22.8330   17.7671 N   0  0  0  0  0  0  0  0  0  0  0  0
  -26.4314  -14.2157   21.0667 N   0  0  0  0  0  0  0  0  0  0  0  0
  -23.6753  -29.5269   22.0371 N   0  0  0  0  0  0  0  0  0  0  0  0
  -29.2599  -16.3961   19.6825 N   0  0  0  0  0  0  0  0  0  0  0  0
  -25.5733  -15.8014   22.6028 N   0  0  0  0  0  0  0  0  0  0  0  0
  -22.0896  -13.0059   21.9358 N   0  0  0  0  0  0  0  0  0  0  0  0
  -25.6574  -32.2691   23.1692 N   0  0  0  0  0  0  0  0  0  0  0  0
  -20.5596  -28.2313   22.3062 N   0  0  0  0  0  0  0  0  0  0  0  0
  -30.7391  -18.2357   19.4743 N   0  0  0  0  0  0  0  0  0  0  0  0
  -19.2284  -26.7256   19.3014 N   0  3  0  0  0  0  0  0  0  0  0  0
  -22.7774  -14.8926   23.0430 O   0  0  0  0  0  0  0  0  0  0  0  0
  -25.8437  -29.9703   23.4909 O   0  0  0  0  0  0  0  0  0  0  0  0
  -21.8411  -30.7449   22.8042 O   0  0  0  0  0  0  0  0  0  0  0  0
  -21.2603  -26.3152   21.2040 O   0  0  0  0  0  0  0  0  0  0  0  0
  -28.5131  -18.5847   19.8887 O   0  0  0  0  0  0  0  0  0  0  0  0
  -22.0451   -8.5332   18.6149 O   0  0  0  0  0  0  0  0  0  0  0  0
  -27.8336  -25.7193   19.5343 O   0  0  0  0  0  0  0  0  0  1  0  0
  -19.0499   -5.4746   22.0901 F   0  0  0  0  0  0  0  0  0  0  0  0
  -19.9774   -9.6530   20.0687 F   0  0  0  0  0  0  0  0  0  0  0  0
  1  2  1  0  0  0  0
  1  5  2  0  0  0  0
  2  6  2  0  0  0  0
  3  8  2  0  0  0  0
  3 16  1  0  0  0  0
  4  9  1  0  0  0  0
  4 16  2  0  0  0  0
  5 18  1  0  0  0  0
  6 20  1  0  0  0  0
  7 10  2  0  0  0  0
  7 19  1  0  0  0  0
  8 22  1  0  0  0  0
  9 22  2  0  0  0  0
 10 23  1  0  0  0  0
 11 12  2  0  0  0  0
 11 24  1  0  0  0  0
 12 25  1  0  0  0  0
 13 21  1  0  0  0  0
 13 23  2  0  0  0  0
 14 25  2  0  0  0  0
 14 26  1  0  0  0  0
 15 28  1  0  0  0  0
 15 62  2  0  0  0  0
 16 27  1  0  0  0  0
 17 27  1  0  0  0  0
 17 31  2  0  0  0  0
 17 32  1  0  0  0  0
 18 20  2  0  0  0  0
 18 37  1  0  0  0  0
 19 21  2  0  0  0  0
 19 38  1  0  0  0  0
 20 47  1  0  0  0  0
 21 39  1  0  0  0  0
 22 79  1  0  0  0  0
 23 80  1  0  0  0  0
 24 26  2  0  0  0  0
 24 79  1  0  0  0  0
 25 81  1  0  0  0  0
 26 82  1  0  0  0  0
 27 63  2  0  0  0  0
 28 48  1  0  0  0  0
 28 64  2  0  0  0  0
 29 30  2  0  0  0  0
 29 52  1  0  0  0  0
 29 64  1  0  0  0  0
 30 58  1  0  0  0  0
 30 62  1  0  0  0  0
 31 65  1  0  0  0  0
 31 68  1  0  0  0  0
 32 69  1  0  0  0  0
 32 74  2  0  0  0  0
 33 49  1  0  0  0  0
 33 70  1  0  0  0  0
 33 75  2  0  0  0  0
 34 59  1  0  0  0  0
 34 66  1  0  0  0  0
 34 76  2  0  0  0  0
 35 60  1  0  0  0  0
 35 71  1  0  0  0  0
 35 77  2  0  0  0  0
 36 67  1  0  0  0  0
 36 72  1  0  0  0  0
 36 78  2  0  0  0  0
 37 40  1  0  0  0  0
 38 49  1  0  0  0  0
 39 66  1  0  0  0  0
 40 42  1  0  0  0  0
 41 43  1  0  0  0  0
 41 45  1  0  0  0  0
 42 47  1  0  0  0  0
 43 50  1  0  0  0  0
 44 48  1  0  0  0  0
 44 51  1  0  0  0  0
 45 67  1  0  0  0  0
 46 50  1  0  0  0  0
 46 67  1  0  0  0  0
 47 70  1  0  0  0  0
 48 51  1  0  0  0  0
 49 66  1  0  0  0  0
 50 65  1  0  0  0  0
 51 72  1  0  0  0  0
 53 60  1  0  0  0  0
 54 61  1  0  0  0  0
 55 61  1  0  0  0  0
 56 61  1  0  0  0  0
 57 73  1  0  0  0  0
 58 80  1  0  0  0  0
 59 61  1  0  0  0  0
 59 71  1  0  0  0  0
 60 73  1  0  0  0  0
 63 65  1  0  0  0  0
M  CHG  1  73   1
M  ISO  4  36 100  58 101  72 100  80 101
M  END
> <Batch ID>
0182

> <Smiles>
CNC(C)C(=O)NC(C(=O)N1Cc2cc([101O:1][101CH2:1]c3ncc(C4CC4[100NH:0][100C:0](=O)N4CCCC(n5nc(-c6ccc(Oc7ccc(F)cc7F)cc6)c(C(N)=O)c5N)C4)nc3C)ccc2CC1C(=O)NC1CCCc2ccccc21)C(C)(C)C

> <Shape>
0.323

> <Color>
0.075

> <Negative vol penalty>
0.000

$$$$

  -OEChem-04052323053D

 84 93  0     1  0  0  0  0  0999 V2000
  -29.0676  -32.3144   26.1897 C   0  0  0  0  0  0  0  0  0  0  0  0
  -28.9403  -31.1539   25.4330 C   0  0  0  0  0  0  0  0  0  0  0  0
  -22.3466  -13.9510   21.4315 C   0  0  0  0  0  0  0  0  0  0  0  0
  -22.0741  -15.6331   19.7188 C   0  0  0  0  0  0  0  0  0  0  0  0
  -27.9284  -32.9759   26.6462 C   0  0  0  0  0  0  0  0  0  0  0  0
  -27.6737  -30.6538   25.1333 C   0  0  0  0  0  0  0  0  0  0  0  0
  -27.2373  -29.2458   20.2885 C   0  0  0  0  0  0  0  0  0  0  0  0
  -21.0627  -14.2235   21.9035 C   0  0  0  0  0  0  0  0  0  0  0  0
  -20.7901  -15.9057   20.1908 C   0  0  0  0  0  0  0  0  0  0  0  0
  -27.7981  -28.0212   19.9283 C   0  0  0  0  0  0  0  0  0  0  0  0
  -17.7104  -14.5333   19.9617 C   0  0  0  0  0  0  0  0  0  0  0  0
  -16.6896  -14.6636   19.0202 C   0  0  0  0  0  0  0  0  0  0  0  0
  -27.8927  -23.1520   17.7185 C   0  0  0  0  0  0  0  0  0  0  0  0
  -25.6168  -26.9970   20.0373 C   0  0  0  0  0  0  0  0  0  0  0  0
  -16.2821  -16.9224   19.7745 C   0  0  0  0  0  0  0  0  0  0  0  0
  -27.6609  -22.3879   19.9508 C   0  0  0  0  0  0  0  0  0  0  0  0
  -22.8524  -14.6558   20.3391 C   0  0  0  0  0  0  0  0  0  0  0  0
  -24.5420  -13.4343   18.8693 C   0  0  0  0  0  0  0  0  0  0  0  0
  -26.6470  -32.4890   26.3438 C   0  0  0  0  0  0  0  0  0  0  0  0
  -25.8614  -29.3530   20.5368 C   0  0  0  0  0  0  0  0  0  0  0  0
  -26.5163  -31.3087   25.5873 C   0  0  0  0  0  0  0  0  0  0  0  0
  -28.6201  -21.9959   17.4084 C   0  0  0  0  0  0  0  0  0  0  0  0
  -25.0406  -28.2246   20.3980 C   0  0  0  0  0  0  0  0  0  0  0  0
  -27.4086  -23.3598   19.0041 C   0  0  0  0  0  0  0  0  0  0  0  0
  -20.2844  -15.2009   21.2832 C   0  0  0  0  0  0  0  0  0  0  0  0
  -26.9883  -26.8960   19.8055 C   0  0  0  0  0  0  0  0  0  0  0  0
  -18.0171  -15.5976   20.8097 C   0  0  0  0  0  0  0  0  0  0  0  0
  -15.9754  -15.8581   18.9266 C   0  0  0  0  0  0  0  0  0  0  0  0
  -17.3030  -16.7921   20.7161 C   0  0  0  0  0  0  0  0  0  0  0  0
  -24.1788  -14.3751   19.8514 C   0  0  0  0  0  0  0  0  0  0  0  0
  -28.7875  -21.0496   18.4285 C   0  0  0  0  0  0  0  0  0  0  0  0
  -25.9066  -13.5532   18.7678 C   0  0  0  0  0  0  0  0  0  0  0  0
  -23.7194  -12.5334   18.1160 C   0  0  0  0  0  0  0  0  0  0  0  0
  -24.0913  -30.1346   23.0587 C   0  0  0  0  0  0  0  0  0  0  0  0
  -21.6570  -29.9284   20.9247 C   0  0  0  0  0  0  0  0  0  0  0  0
  -20.4761  -28.6431   17.9920 C   0  0  0  0  0  0  0  0  0  0  0  0
  -29.7084  -18.0263   19.9463 C   0  0  0  0  0  0  0  0  0  0  0  0
  -25.4458  -33.2123   26.8993 C   0  0  0  0  0  0  0  0  0  0  0  0
  -25.2678  -30.6869   20.8984 C   0  0  0  0  0  0  0  0  0  0  0  0
  -23.5545  -28.2911   20.6338 C   0  0  0  0  0  0  0  0  0  0  0  0
  -24.1341  -32.8245   26.2216 C   0  0  0  0  0  0  0  0  0  0  0  0
  -29.7623  -14.7487   21.3359 C   0  0  0  0  0  0  0  0  0  0  0  0
  -24.0281  -31.3084   26.0919 C   0  0  0  0  0  0  0  0  0  0  0  0
  -28.3702  -14.1964   21.0244 C   0  0  0  0  0  0  0  0  0  0  0  0
  -29.7178  -16.2398   21.6623 C   0  0  0  0  0  0  0  0  0  0  0  0
  -27.6613  -16.5245   20.3343 C   0  0  0  0  0  0  0  0  0  0  0  0
  -25.1590  -30.7488   25.2205 C   0  0  1  0  0  0  0  0  0  0  0  0
  -29.1395  -21.7485   16.0114 C   0  0  1  0  0  0  0  0  0  0  0  0
  -29.5514  -19.7633   18.1806 C   0  0  2  0  0  0  0  0  0  0  0  0
  -23.9337  -30.5689   21.6290 C   0  0  1  0  0  0  0  0  0  0  0  0
  -27.6624  -15.0365   19.9443 C   0  0  2  0  0  0  0  0  0  0  0  0
  -29.6210  -19.3802   16.6945 C   0  0  2  0  0  0  0  0  0  0  0  0
  -29.8673  -22.9440   15.3933 C   0  0  0  0  0  0  0  0  0  0  0  0
  -30.5930  -18.2388   16.4138 C   0  0  0  0  0  0  0  0  0  0  0  0
  -18.4372  -28.6235   16.5293 C   0  0  0  0  0  0  0  0  0  0  0  0
  -20.2922  -28.0017   22.8573 C   0  0  0  0  0  0  0  0  0  0  0  0
  -18.7865  -27.2995   20.9843 C   0  0  0  0  0  0  0  0  0  0  0  0
  -18.7607  -29.6622   21.7841 C   0  0  0  0  0  0  0  0  0  0  0  0
  -21.9468  -29.8545   15.7274 C   0  0  0  0  0  0  0  0  0  0  0  0
  -26.6436  -24.5879   19.3475 C   0  0  0  0  0  0  0  0  0  1  0  0
  -20.7402  -28.8261   20.4520 C   0  0  1  0  0  0  0  0  0  0  0  0
  -19.7700  -29.2966   16.8178 C   0  0  2  0  0  0  0  0  0  0  0  0
  -19.6731  -28.4454   21.5168 C   0  0  0  0  0  0  0  0  0  0  0  0
  -28.3364  -21.2477   19.6961 N   0  0  0  0  0  0  0  0  0  0  0  0
  -25.2280  -15.0424   20.3392 N   0  0  0  0  0  0  0  0  0  0  0  0
  -26.2639  -14.5202   19.6608 N   0  0  0  0  0  0  0  0  0  0  0  0
  -23.0224  -29.6165   20.9913 N   0  0  0  0  0  0  0  0  0  0  0  0
  -29.0354  -16.9797   20.5980 N   0  0  0  0  0  0  0  0  0  0  0  0
  -26.8237  -12.9239   18.0027 N   0  0  0  0  0  0  0  0  0  0  0  0
  -22.3367  -12.5412   18.3447 N   0  0  0  0  0  0  0  0  0  0  0  0
  -24.8783  -30.9781   23.8194 N   0  0  0  0  0  0  0  0  0  0  0  0
  -20.1823  -29.2761   19.1813 N   0  0  0  0  0  0  0  0  0  0  0  0
  -28.9919  -18.6712   18.9455 N   0  0  0  0  0  0  0  0  0  0  0  0
  -30.0991  -20.5854   15.9388 N   0  3  0  0  0  0  0  0  0  0  0  0
  -20.6145  -29.2112   15.5928 N   0  3  0  0  0  0  0  0  0  0  0  0
  -24.1983  -11.7332   17.2769 O   0  0  0  0  0  0  0  0  0  0  0  0
  -23.5387  -29.1108   23.4435 O   0  0  0  0  0  0  0  0  0  0  0  0
  -21.1802  -31.0278   21.2170 O   0  0  0  0  0  0  0  0  0  0  0  0
  -21.2116  -27.6664   17.8673 O   0  0  0  0  0  0  0  0  0  0  0  0
  -30.8642  -18.3577   20.2312 O   0  0  0  0  0  0  0  0  0  0  0  0
  -19.0314  -15.4669   21.7434 O   0  0  0  0  0  0  0  0  0  0  0  0
  -27.5367  -25.6917   19.4525 O   0  0  0  0  0  0  0  0  0  1  0  0
  -14.9962  -15.9836   18.0213 F   0  0  0  0  0  0  0  0  0  0  0  0
  -17.5939  -17.8184   21.5272 F   0  0  0  0  0  0  0  0  0  0  0  0
  1  2  1  0  0  0  0
  1  5  2  0  0  0  0
  2  6  2  0  0  0  0
  3  8  2  0  0  0  0
  3 17  1  0  0  0  0
  4  9  1  0  0  0  0
  4 17  2  0  0  0  0
  5 19  1  0  0  0  0
  6 21  1  0  0  0  0
  7 10  2  0  0  0  0
  7 20  1  0  0  0  0
  8 25  1  0  0  0  0
  9 25  2  0  0  0  0
 10 26  1  0  0  0  0
 11 12  2  0  0  0  0
 11 27  1  0  0  0  0
 12 28  1  0  0  0  0
 13 22  1  0  0  0  0
 13 24  2  0  0  0  0
 14 23  1  0  0  0  0
 14 26  2  0  0  0  0
 15 28  2  0  0  0  0
 15 29  1  0  0  0  0
 16 24  1  0  0  0  0
 16 64  2  0  0  0  0
 17 30  1  0  0  0  0
 18 30  1  0  0  0  0
 18 32  2  0  0  0  0
 18 33  1  0  0  0  0
 19 21  2  0  0  0  0
 19 38  1  0  0  0  0
 20 23  2  0  0  0  0
 20 39  1  0  0  0  0
 21 47  1  0  0  0  0
 22 31  2  0  0  0  0
 22 48  1  0  0  0  0
 23 40  1  0  0  0  0
 24 60  1  0  0  0  0
 25 81  1  0  0  0  0
 26 82  1  0  0  0  0
 27 29  2  0  0  0  0
 27 81  1  0  0  0  0
 28 83  1  0  0  0  0
 29 84  1  0  0  0  0
 30 65  2  0  0  0  0
 31 49  1  0  0  0  0
 31 64  1  0  0  0  0
 32 66  1  0  0  0  0
 32 69  1  0  0  0  0
 33 70  1  0  0  0  0
 33 76  2  0  0  0  0
 34 50  1  0  0  0  0
 34 71  1  0  0  0  0
 34 77  2  0  0  0  0
 35 61  1  0  0  0  0
 35 67  1  0  0  0  0
 35 78  2  0  0  0  0
 36 62  1  0  0  0  0
 36 72  1  0  0  0  0
 36 79  2  0  0  0  0
 37 68  1  0  0  0  0
 37 73  1  0  0  0  0
 37 80  2  0  0  0  0
 38 41  1  0  0  0  0
 39 50  1  0  0  0  0
 40 67  1  0  0  0  0
 41 43  1  0  0  0  0
 42 44  1  0  0  0  0
 42 45  1  0  0  0  0
 43 47  1  0  0  0  0
 44 51  1  0  0  0  0
 45 68  1  0  0  0  0
 46 51  1  0  0  0  0
 46 68  1  0  0  0  0
 47 71  1  0  0  0  0
 48 53  1  0  0  0  0
 48 74  1  0  0  0  0
 49 52  1  0  0  0  0
 49 73  1  0  0  0  0
 50 67  1  0  0  0  0
 51 66  1  0  0  0  0
 52 54  1  0  0  0  0
 52 74  1  0  0  0  0
 55 62  1  0  0  0  0
 56 63  1  0  0  0  0
 57 63  1  0  0  0  0
 58 63  1  0  0  0  0
 59 75  1  0  0  0  0
 60 82  1  0  0  0  0
 61 63  1  0  0  0  0
 61 72  1  0  0  0  0
 62 75  1  0  0  0  0
 65 66  1  0  0  0  0
M  CHG  2  74   1  75   1
M  ISO  4  37 100  60 101  73 100  82 101
M  END
> <Batch ID>
0182

> <Smiles>
CNC(C)C(=O)NC(C(=O)N1Cc2cc([101O:1][101CH2:1]c3cnc4c(c3)C(C)NC(C)C4[100NH:0][100C:0](=O)N3CCCC(n4nc(-c5ccc(Oc6ccc(F)cc6F)cc5)c(C(N)=O)c4N)C3)ccc2CC1C(=O)NC1CCCc2ccccc21)C(C)(C)C

> <Shape>
0.251

> <Color>
0.075

> <Negative vol penalty>
0.000

$$$$

  -OEChem-04052323053D

 82 91  0     1  0  0  0  0  0999 V2000
  -27.0268  -34.7634   23.4084 C   0  0  0  0  0  0  0  0  0  0  0  0
  -27.9320  -33.9025   22.7960 C   0  0  0  0  0  0  0  0  0  0  0  0
  -24.0976  -11.3874   23.8342 C   0  0  0  0  0  0  0  0  0  0  0  0
  -24.1885  -13.7780   24.1716 C   0  0  0  0  0  0  0  0  0  0  0  0
  -25.8792  -34.2515   24.0126 C   0  0  0  0  0  0  0  0  0  0  0  0
  -27.6907  -32.5292   22.7886 C   0  0  0  0  0  0  0  0  0  0  0  0
  -28.7151  -26.7028   18.7487 C   0  0  0  0  0  0  0  0  0  0  0  0
  -23.5947  -11.2243   25.1249 C   0  0  0  0  0  0  0  0  0  0  0  0
  -23.6855  -13.6149   25.4624 C   0  0  0  0  0  0  0  0  0  0  0  0
  -29.2386  -25.4133   18.8313 C   0  0  0  0  0  0  0  0  0  0  0  0
  -20.6819  -13.0739   26.9136 C   0  0  0  0  0  0  0  0  0  0  0  0
  -19.6666  -13.9369   27.3257 C   0  0  0  0  0  0  0  0  0  0  0  0
  -27.1832  -24.6498   19.8372 C   0  0  0  0  0  0  0  0  0  0  0  0
  -30.0762  -20.7416   20.7735 C   0  0  0  0  0  0  0  0  0  0  0  0
  -21.0680  -14.7245   29.1293 C   0  0  0  0  0  0  0  0  0  0  0  0
  -24.3945  -12.6642   23.3575 C   0  0  0  0  0  0  0  0  0  0  0  0
  -24.1758  -13.0285   20.8421 C   0  0  0  0  0  0  0  0  0  0  0  0
  -25.6189  -32.8721   24.0041 C   0  0  0  0  0  0  0  0  0  0  0  0
  -27.4236  -26.9783   19.2205 C   0  0  0  0  0  0  0  0  0  0  0  0
  -26.5393  -31.9983   23.3944 C   0  0  0  0  0  0  0  0  0  0  0  0
  -26.6447  -25.9432   19.7571 C   0  0  0  0  0  0  0  0  0  0  0  0
  -30.7095  -19.5153   20.7660 C   0  0  0  0  0  0  0  0  0  0  0  0
  -30.1708  -18.4349   20.0648 C   0  0  0  0  0  0  0  0  0  0  0  0
  -23.3886  -12.3381   25.9390 C   0  0  0  0  0  0  0  0  0  0  0  0
  -28.4737  -24.3872   19.3783 C   0  0  0  0  0  0  0  0  0  0  0  0
  -21.8903  -13.0361   27.6094 C   0  0  0  0  0  0  0  0  0  0  0  0
  -19.8596  -14.7622   28.4335 C   0  0  0  0  0  0  0  0  0  0  0  0
  -22.0833  -13.8614   28.7172 C   0  0  0  0  0  0  0  0  0  0  0  0
  -24.9146  -12.8333   22.0244 C   0  0  0  0  0  0  0  0  0  0  0  0
  -28.8886  -20.8223   20.0613 C   0  0  0  0  0  0  0  0  0  0  0  0
  -28.9944  -18.6153   19.3736 C   0  0  0  0  0  0  0  0  0  0  0  0
  -25.1265  -13.1323   19.8563 C   0  0  0  0  0  0  0  0  0  0  0  0
  -22.7569  -13.1088   20.6520 C   0  0  0  0  0  0  0  0  0  0  0  0
  -26.2155  -28.8496   21.4882 C   0  0  0  0  0  0  0  0  0  0  0  0
  -23.3847  -27.8865   20.2307 C   0  0  0  0  0  0  0  0  0  0  0  0
  -21.6497  -25.5425   18.4581 C   0  0  0  0  0  0  0  0  0  0  0  0
  -30.8836  -14.7769   19.9009 C   0  0  0  0  0  0  0  0  0  0  0  0
  -24.3888  -32.3611   24.7115 C   0  0  0  0  0  0  0  0  0  0  0  0
  -26.8634  -28.3690   19.0996 C   0  0  0  0  0  0  0  0  0  0  0  0
  -32.0112  -19.1419   21.4027 C   0  0  0  0  0  0  0  0  0  0  0  0
  -25.2450  -26.1824   20.2591 C   0  0  0  0  0  0  0  0  0  0  0  0
  -24.0192  -30.9292   24.3330 C   0  0  0  0  0  0  0  0  0  0  0  0
  -31.9182  -17.6066   21.3869 C   0  0  0  0  0  0  0  0  0  0  0  0
  -29.5502  -11.6817   18.7528 C   0  0  0  0  0  0  0  0  0  0  0  0
  -25.2539  -30.0339   24.3613 C   0  0  0  0  0  0  0  0  0  0  0  0
  -28.1443  -11.6434   19.3544 C   0  0  0  0  0  0  0  0  0  0  0  0
  -30.5537  -12.3297   19.7042 C   0  0  0  0  0  0  0  0  0  0  0  0
  -28.7650  -13.6304   20.7916 C   0  0  0  0  0  0  0  0  0  0  0  0
  -26.3002  -30.5048   23.3440 C   0  0  1  0  0  0  0  0  0  0  0  0
  -31.0628  -17.2387   20.1590 C   0  0  1  0  0  0  0  0  0  0  0  0
  -25.7287  -28.6435   20.0817 C   0  0  1  0  0  0  0  0  0  0  0  0
  -27.7068  -13.0362   19.8464 C   0  0  2  0  0  0  0  0  0  0  0  0
  -28.3903  -17.5182   18.5665 C   0  0  0  0  0  0  0  0  0  0  0  0
  -19.3427  -25.0122   17.6249 C   0  0  0  0  0  0  0  0  0  0  0  0
  -22.5660  -27.0383   23.0449 C   0  0  0  0  0  0  0  0  0  0  0  0
  -20.7200  -25.6884   22.0258 C   0  0  0  0  0  0  0  0  0  0  0  0
  -20.7624  -28.1648   21.7287 C   0  0  0  0  0  0  0  0  0  0  0  0
  -22.5314  -25.5977   15.6335 C   0  0  0  0  0  0  0  0  0  0  0  0
  -28.1440  -22.1246   20.0324 C   0  0  0  0  0  0  0  0  0  1  0  0
  -22.4378  -26.7383   20.4838 C   0  0  1  0  0  0  0  0  0  0  0  0
  -20.6743  -25.6721   17.3021 C   0  0  2  0  0  0  0  0  0  0  0  0
  -21.6486  -26.9030   21.8132 C   0  0  0  0  0  0  0  0  0  0  0  0
  -26.2330  -12.8138   21.8113 N   0  0  0  0  0  0  0  0  0  0  0  0
  -28.3321  -19.7953   19.3640 N   0  0  0  0  0  0  0  0  0  0  0  0
  -26.3301  -12.9979   20.4836 N   0  0  0  0  0  0  0  0  0  0  0  0
  -24.7442  -27.5604   20.1250 N   0  0  0  0  0  0  0  0  0  0  0  0
  -30.0800  -13.6482   20.1320 N   0  0  0  0  0  0  0  0  0  0  0  0
  -25.0420  -13.3244   18.5228 N   0  0  0  0  0  0  0  0  0  0  0  0
  -21.9244  -12.9816   21.7723 N   0  0  0  0  0  0  0  0  0  0  0  0
  -25.9248  -30.0968   22.0072 N   0  0  0  0  0  0  0  0  0  0  0  0
  -21.5951  -26.6352   19.2974 N   0  0  0  0  0  0  0  0  0  0  0  0
  -30.3572  -15.9885   20.3318 N   0  0  0  0  0  0  0  0  0  0  0  0
  -21.2327  -25.0300   16.0787 N   0  3  0  0  0  0  0  0  0  0  0  0
  -22.2420  -13.2717   19.5198 O   0  0  0  0  0  0  0  0  0  0  0  0
  -26.8096  -27.9435   22.0608 O   0  0  0  0  0  0  0  0  0  0  0  0
  -22.9339  -29.0297   20.1234 O   0  0  0  0  0  0  0  0  0  0  0  0
  -22.3837  -24.5677   18.6042 O   0  0  0  0  0  0  0  0  0  0  0  0
  -31.9860  -14.7105   19.3465 O   0  0  0  0  0  0  0  0  0  0  0  0
  -22.8977  -12.1793   27.1985 O   0  0  0  0  0  0  0  0  0  0  0  0
  -28.9825  -23.1277   19.4608 O   0  0  0  0  0  0  0  0  0  1  0  0
  -18.8850  -15.5920   28.8282 F   0  0  0  0  0  0  0  0  0  0  0  0
  -23.2425  -13.8305   29.3889 F   0  0  0  0  0  0  0  0  0  0  0  0
  1  2  1  0  0  0  0
  1  5  2  0  0  0  0
  2  6  2  0  0  0  0
  3  8  2  0  0  0  0
  3 16  1  0  0  0  0
  4  9  1  0  0  0  0
  4 16  2  0  0  0  0
  5 18  1  0  0  0  0
  6 20  1  0  0  0  0
  7 10  2  0  0  0  0
  7 19  1  0  0  0  0
  8 24  1  0  0  0  0
  9 24  2  0  0  0  0
 10 25  1  0  0  0  0
 11 12  2  0  0  0  0
 11 26  1  0  0  0  0
 12 27  1  0  0  0  0
 13 21  1  0  0  0  0
 13 25  2  0  0  0  0
 14 22  2  0  0  0  0
 14 30  1  0  0  0  0
 15 27  2  0  0  0  0
 15 28  1  0  0  0  0
 16 29  1  0  0  0  0
 17 29  1  0  0  0  0
 17 32  2  0  0  0  0
 17 33  1  0  0  0  0
 18 20  2  0  0  0  0
 18 38  1  0  0  0  0
 19 21  2  0  0  0  0
 19 39  1  0  0  0  0
 20 49  1  0  0  0  0
 21 41  1  0  0  0  0
 22 23  1  0  0  0  0
 22 40  1  0  0  0  0
 23 31  2  0  0  0  0
 23 50  1  0  0  0  0
 24 79  1  0  0  0  0
 25 80  1  0  0  0  0
 26 28  2  0  0  0  0
 26 79  1  0  0  0  0
 27 81  1  0  0  0  0
 28 82  1  0  0  0  0
 29 63  2  0  0  0  0
 30 59  1  0  0  0  0
 30 64  2  0  0  0  0
 31 53  1  0  0  0  0
 31 64  1  0  0  0  0
 32 65  1  0  0  0  0
 32 68  1  0  0  0  0
 33 69  1  0  0  0  0
 33 74  2  0  0  0  0
 34 51  1  0  0  0  0
 34 70  1  0  0  0  0
 34 75  2  0  0  0  0
 35 60  1  0  0  0  0
 35 66  1  0  0  0  0
 35 76  2  0  0  0  0
 36 61  1  0  0  0  0
 36 71  1  0  0  0  0
 36 77  2  0  0  0  0
 37 67  1  0  0  0  0
 37 72  1  0  0  0  0
 37 78  2  0  0  0  0
 38 42  1  0  0  0  0
 39 51  1  0  0  0  0
 40 43  1  0  0  0  0
 41 66  1  0  0  0  0
 42 45  1  0  0  0  0
 43 50  1  0  0  0  0
 44 46  1  0  0  0  0
 44 47  1  0  0  0  0
 45 49  1  0  0  0  0
 46 52  1  0  0  0  0
 47 67  1  0  0  0  0
 48 52  1  0  0  0  0
 48 67  1  0  0  0  0
 49 70  1  0  0  0  0
 50 72  1  0  0  0  0
 51 66  1  0  0  0  0
 52 65  1  0  0  0  0
 54 61  1  0  0  0  0
 55 62  1  0  0  0  0
 56 62  1  0  0  0  0
 57 62  1  0  0  0  0
 58 73  1  0  0  0  0
 59 80  1  0  0  0  0
 60 62  1  0  0  0  0
 60 71  1  0  0  0  0
 61 73  1  0  0  0  0
 63 65  1  0  0  0  0
M  CHG  1  73   1
M  ISO  4  37 100  59 101  72 100  80 101
M  END
> <Batch ID>
0182

> <Smiles>
CNC(C)C(=O)NC(C(=O)N1Cc2cc([101O:1][101CH2:1]c3cc4c(c(C)n3)C([100NH:0][100C:0](=O)N3CCCC(n5nc(-c6ccc(Oc7ccc(F)cc7F)cc6)c(C(N)=O)c5N)C3)CC4)ccc2CC1C(=O)NC1CCCc2ccccc21)C(C)(C)C

> <Shape>
0.277

> <Color>
0.088

> <Negative vol penalty>
0.000

$$$$

  -OEChem-04052323053D

 83 92  0     1  0  0  0  0  0999 V2000
  -29.5898  -33.0609   25.6251 C   0  0  0  0  0  0  0  0  0  0  0  0
  -29.2953  -31.7579   25.2368 C   0  0  0  0  0  0  0  0  0  0  0  0
  -23.6998   -9.6912   21.3833 C   0  0  0  0  0  0  0  0  0  0  0  0
  -24.3202  -10.7220   23.4784 C   0  0  0  0  0  0  0  0  0  0  0  0
  -28.5704  -34.0080   25.7135 C   0  0  0  0  0  0  0  0  0  0  0  0
  -27.9809  -31.4009   24.9377 C   0  0  0  0  0  0  0  0  0  0  0  0
  -27.6342  -28.6276   20.7148 C   0  0  0  0  0  0  0  0  0  0  0  0
  -23.1694   -8.6028   22.0758 C   0  0  0  0  0  0  0  0  0  0  0  0
  -23.7897   -9.6336   24.1710 C   0  0  0  0  0  0  0  0  0  0  0  0
  -27.9715  -27.2781   20.8097 C   0  0  0  0  0  0  0  0  0  0  0  0
  -24.3284   -5.8253   23.6141 C   0  0  0  0  0  0  0  0  0  0  0  0
  -24.6350   -4.5479   23.1452 C   0  0  0  0  0  0  0  0  0  0  0  0
  -25.6308  -26.7081   20.9345 C   0  0  0  0  0  0  0  0  0  0  0  0
  -29.1783  -22.4323   19.9531 C   0  0  0  0  0  0  0  0  0  0  0  0
  -22.2835   -4.1068   22.8093 C   0  0  0  0  0  0  0  0  0  0  0  0
  -28.6403  -22.5112   22.2713 C   0  0  0  0  0  0  0  0  0  0  0  0
  -24.2753  -10.7508   22.0846 C   0  0  0  0  0  0  0  0  0  0  0  0
  -24.1506  -13.0518   20.9903 C   0  0  0  0  0  0  0  0  0  0  0  0
  -27.2444  -33.6649   25.4059 C   0  0  0  0  0  0  0  0  0  0  0  0
  -26.2908  -29.0290   20.7399 C   0  0  0  0  0  0  0  0  0  0  0  0
  -26.9427  -32.3440   25.0233 C   0  0  0  0  0  0  0  0  0  0  0  0
  -25.2790  -28.0630   20.8371 C   0  0  0  0  0  0  0  0  0  0  0  0
  -28.8368  -23.1818   21.0763 C   0  0  0  0  0  0  0  0  0  0  0  0
  -29.3052  -21.0447   20.0396 C   0  0  0  0  0  0  0  0  0  0  0  0
  -23.2143   -8.5740   23.4696 C   0  0  0  0  0  0  0  0  0  0  0  0
  -26.9699  -26.3184   20.9225 C   0  0  0  0  0  0  0  0  0  0  0  0
  -22.9993   -6.2434   23.6807 C   0  0  0  0  0  0  0  0  0  0  0  0
  -23.6126   -3.6887   22.7427 C   0  0  0  0  0  0  0  0  0  0  0  0
  -21.9769   -5.3842   23.2782 C   0  0  0  0  0  0  0  0  0  0  0  0
  -24.8238  -11.8751   21.3697 C   0  0  0  0  0  0  0  0  0  0  0  0
  -29.1078  -20.4864   21.3002 C   0  0  0  0  0  0  0  0  0  0  0  0
  -25.1035  -13.7987   20.3417 C   0  0  0  0  0  0  0  0  0  0  0  0
  -29.3212  -19.0364   21.4945 C   0  0  0  0  0  0  0  0  0  0  0  0
  -22.7859  -13.4355   21.2051 C   0  0  0  0  0  0  0  0  0  0  0  0
  -24.5270  -30.8416   22.6653 C   0  0  0  0  0  0  0  0  0  0  0  0
  -22.2612  -30.3703   20.3923 C   0  0  0  0  0  0  0  0  0  0  0  0
  -21.0704  -28.4352   17.8459 C   0  0  0  0  0  0  0  0  0  0  0  0
  -30.2862  -15.8405   20.0009 C   0  0  0  0  0  0  0  0  0  0  0  0
  -26.1691  -34.7110   25.5616 C   0  0  0  0  0  0  0  0  0  0  0  0
  -25.9426  -30.4864   20.6096 C   0  0  0  0  0  0  0  0  0  0  0  0
  -23.8210  -28.4403   20.8482 C   0  0  0  0  0  0  0  0  0  0  0  0
  -24.8601  -34.3472   24.8657 C   0  0  0  0  0  0  0  0  0  0  0  0
  -29.7395  -12.5533   18.7470 C   0  0  0  0  0  0  0  0  0  0  0  0
  -24.4716  -32.9057   25.1789 C   0  0  0  0  0  0  0  0  0  0  0  0
  -28.3598  -12.1790   19.2913 C   0  0  0  0  0  0  0  0  0  0  0  0
  -30.5337  -13.3886   19.7487 C   0  0  0  0  0  0  0  0  0  0  0  0
  -29.4071  -18.8528   18.9846 C   0  0  0  0  0  0  0  0  0  0  0  0
  -28.4575  -14.2171   20.7864 C   0  0  0  0  0  0  0  0  0  0  0  0
  -25.5330  -31.9246   24.6668 C   0  0  1  0  0  0  0  0  0  0  0  0
  -29.8866  -18.2705   20.3087 C   0  0  2  0  0  0  0  0  0  0  0  0
  -24.5613  -30.8225   21.1632 C   0  0  1  0  0  0  0  0  0  0  0  0
  -27.5975  -13.4215   19.7895 C   0  0  2  0  0  0  0  0  0  0  0  0
  -19.1786  -28.2859   16.2039 C   0  0  0  0  0  0  0  0  0  0  0  0
  -20.4111  -29.3991   22.6158 C   0  0  0  0  0  0  0  0  0  0  0  0
  -18.9385  -28.3958   20.8571 C   0  0  0  0  0  0  0  0  0  0  0  0
  -19.3134  -30.8615   20.9097 C   0  0  0  0  0  0  0  0  0  0  0  0
  -22.9094  -28.6157   15.5341 C   0  0  0  0  0  0  0  0  0  0  0  0
  -28.6848  -24.6722   20.9922 C   0  0  0  0  0  0  0  0  0  1  0  0
  -21.1849  -29.3391   20.1533 C   0  0  1  0  0  0  0  0  0  0  0  0
  -20.5921  -28.7904   16.4497 C   0  0  2  0  0  0  0  0  0  0  0  0
  -19.9894  -29.4916   21.1357 C   0  0  0  0  0  0  0  0  0  0  0  0
  -28.7715  -21.1757   22.4153 N   0  0  0  0  0  0  0  0  0  0  0  0
  -26.1054  -11.8701   20.9933 N   0  0  0  0  0  0  0  0  0  0  0  0
  -26.2450  -13.0528   20.3705 N   0  0  0  0  0  0  0  0  0  0  0  0
  -29.6427  -20.2826   18.9353 N   0  0  0  0  0  0  0  0  0  0  0  0
  -23.5315  -29.8785   20.7245 N   0  0  0  0  0  0  0  0  0  0  0  0
  -29.7555  -14.5523   20.1801 N   0  0  0  0  0  0  0  0  0  0  0  0
  -25.0679  -15.0140   19.7551 N   0  0  0  0  0  0  0  0  0  0  0  0
  -21.9427  -12.5498   21.8898 N   0  0  0  0  0  0  0  0  0  0  0  0
  -25.4050  -31.7427   23.2367 N   0  0  0  0  0  0  0  0  0  0  0  0
  -20.8191  -29.4496   18.7454 N   0  0  0  0  0  0  0  0  0  0  0  0
  -29.4811  -16.8880   20.4315 N   0  0  0  0  0  0  0  0  0  0  0  0
  -21.4910  -28.1876   15.4252 N   0  3  0  0  0  0  0  0  0  0  0  0
  -29.1223  -18.5349   22.5959 O   0  0  0  0  0  0  0  0  0  0  0  0
  -22.3236  -14.5243   20.7875 O   0  0  0  0  0  0  0  0  0  0  0  0
  -23.7596  -30.0951   23.2616 O   0  0  0  0  0  0  0  0  0  0  0  0
  -21.9868  -31.5678   20.2811 O   0  0  0  0  0  0  0  0  0  0  0  0
  -21.6095  -27.3634   18.1128 O   0  0  0  0  0  0  0  0  0  0  0  0
  -31.3930  -16.0424   19.4899 O   0  0  0  0  0  0  0  0  0  0  0  0
  -22.6966   -7.5122   24.1458 O   0  0  0  0  0  0  0  0  0  0  0  0
  -27.2963  -25.0006   21.0160 O   0  0  0  0  0  0  0  0  0  1  0  0
  -23.9072   -2.4626   22.2910 F   0  0  0  0  0  0  0  0  0  0  0  0
  -20.6983   -5.7807   23.3388 F   0  0  0  0  0  0  0  0  0  0  0  0
  1  2  1  0  0  0  0
  1  5  2  0  0  0  0
  2  6  2  0  0  0  0
  3  8  2  0  0  0  0
  3 17  1  0  0  0  0
  4  9  1  0  0  0  0
  4 17  2  0  0  0  0
  5 19  1  0  0  0  0
  6 21  1  0  0  0  0
  7 10  2  0  0  0  0
  7 20  1  0  0  0  0
  8 25  1  0  0  0  0
  9 25  2  0  0  0  0
 10 26  1  0  0  0  0
 11 12  2  0  0  0  0
 11 27  1  0  0  0  0
 12 28  1  0  0  0  0
 13 22  1  0  0  0  0
 13 26  2  0  0  0  0
 14 23  2  0  0  0  0
 14 24  1  0  0  0  0
 15 28  2  0  0  0  0
 15 29  1  0  0  0  0
 16 23  1  0  0  0  0
 16 62  2  0  0  0  0
 17 30  1  0  0  0  0
 18 30  1  0  0  0  0
 18 32  2  0  0  0  0
 18 34  1  0  0  0  0
 19 21  2  0  0  0  0
 19 39  1  0  0  0  0
 20 22  2  0  0  0  0
 20 40  1  0  0  0  0
 21 49  1  0  0  0  0
 22 41  1  0  0  0  0
 23 58  1  0  0  0  0
 24 31  2  0  0  0  0
 24 65  1  0  0  0  0
 25 80  1  0  0  0  0
 26 81  1  0  0  0  0
 27 29  2  0  0  0  0
 27 80  1  0  0  0  0
 28 82  1  0  0  0  0
 29 83  1  0  0  0  0
 30 63  2  0  0  0  0
 31 33  1  0  0  0  0
 31 62  1  0  0  0  0
 32 64  1  0  0  0  0
 32 68  1  0  0  0  0
 33 50  1  0  0  0  0
 33 74  2  0  0  0  0
 34 69  1  0  0  0  0
 34 75  2  0  0  0  0
 35 51  1  0  0  0  0
 35 70  1  0  0  0  0
 35 76  2  0  0  0  0
 36 59  1  0  0  0  0
 36 66  1  0  0  0  0
 36 77  2  0  0  0  0
 37 60  1  0  0  0  0
 37 71  1  0  0  0  0
 37 78  2  0  0  0  0
 38 67  1  0  0  0  0
 38 72  1  0  0  0  0
 38 79  2  0  0  0  0
 39 42  1  0  0  0  0
 40 51  1  0  0  0  0
 41 66  1  0  0  0  0
 42 44  1  0  0  0  0
 43 45  1  0  0  0  0
 43 46  1  0  0  0  0
 44 49  1  0  0  0  0
 45 52  1  0  0  0  0
 46 67  1  0  0  0  0
 47 50  1  0  0  0  0
 47 65  1  0  0  0  0
 48 52  1  0  0  0  0
 48 67  1  0  0  0  0
 49 70  1  0  0  0  0
 50 72  1  0  0  0  0
 51 66  1  0  0  0  0
 52 64  1  0  0  0  0
 53 60  1  0  0  0  0
 54 61  1  0  0  0  0
 55 61  1  0  0  0  0
 56 61  1  0  0  0  0
 57 73  1  0  0  0  0
 58 81  1  0  0  0  0
 59 61  1  0  0  0  0
 59 71  1  0  0  0  0
 60 73  1  0  0  0  0
 63 64  1  0  0  0  0
M  CHG  1  73   1
M  ISO  4  38 100  58 101  72 100  81 101
M  END
> <Batch ID>
0182

> <Smiles>
CNC(C)C(=O)NC(C(=O)N1Cc2cc([101O:1][101CH2:1]c3cnc4c(c3)NCC([100NH:0][100C:0](=O)N3CCCC(n5nc(-c6ccc(Oc7ccc(F)cc7F)cc6)c(C(N)=O)c5N)C3)C4=O)ccc2CC1C(=O)NC1CCCc2ccccc21)C(C)(C)C

> <Shape>
0.355

> <Color>
0.133

> <Negative vol penalty>
0.000

$$$$

  -OEChem-04052323053D

 84 92  0     1  0  0  0  0  0999 V2000
  -23.3408   -9.4070   22.8733 C   0  0  0  0  0  0  0  0  0  0  0  0
  -24.5413  -10.0990   22.9975 C   0  0  0  0  0  0  0  0  0  0  0  0
  -23.6969  -31.4005   21.6613 C   0  0  0  0  0  0  0  0  0  0  0  0
  -24.0015  -29.0269   21.3296 C   0  0  0  0  0  0  0  0  0  0  0  0
  -22.3676   -9.8563   21.9817 C   0  0  0  0  0  0  0  0  0  0  0  0
  -24.7697  -11.2401   22.2294 C   0  0  0  0  0  0  0  0  0  0  0  0
  -28.1002  -17.5766   22.4986 C   0  0  0  0  0  0  0  0  0  0  0  0
  -22.3157  -31.2385   21.5529 C   0  0  0  0  0  0  0  0  0  0  0  0
  -22.6203  -28.8648   21.2212 C   0  0  0  0  0  0  0  0  0  0  0  0
  -29.0078  -18.3480   21.7740 C   0  0  0  0  0  0  0  0  0  0  0  0
  -19.1526  -27.7724   21.2167 C   0  0  0  0  0  0  0  0  0  0  0  0
  -18.5672  -26.7114   21.9074 C   0  0  0  0  0  0  0  0  0  0  0  0
  -27.2225  -19.0764   20.3245 C   0  0  0  0  0  0  0  0  0  0  0  0
  -19.3760  -27.6232   23.9934 C   0  0  0  0  0  0  0  0  0  0  0  0
  -24.5398  -30.2947   21.5496 C   0  0  0  0  0  0  0  0  0  0  0  0
  -26.6796  -30.9699   22.7633 C   0  0  0  0  0  0  0  0  0  0  0  0
  -22.5802  -11.0090   21.2093 C   0  0  0  0  0  0  0  0  0  0  0  0
  -26.7465  -17.5408   22.1343 C   0  0  0  0  0  0  0  0  0  0  0  0
  -23.7989  -11.7045   21.3257 C   0  0  0  0  0  0  0  0  0  0  0  0
  -26.2992  -18.3058   21.0477 C   0  0  0  0  0  0  0  0  0  0  0  0
  -21.7775  -29.9706   21.3328 C   0  0  0  0  0  0  0  0  0  0  0  0
  -28.5696  -19.0957   20.6851 C   0  0  0  0  0  0  0  0  0  0  0  0
  -19.8498  -28.7589   21.9143 C   0  0  0  0  0  0  0  0  0  0  0  0
  -18.6789  -26.6368   23.2958 C   0  0  0  0  0  0  0  0  0  0  0  0
  -19.9615  -28.6842   23.3027 C   0  0  0  0  0  0  0  0  0  0  0  0
  -25.9666  -30.4616   21.6610 C   0  0  0  0  0  0  0  0  0  0  0  0
  -27.9954  -30.9232   22.3723 C   0  0  0  0  0  0  0  0  0  0  0  0
  -27.4606  -24.4525   18.2875 C   0  0  0  0  0  0  0  0  0  0  0  0
  -28.4671  -23.9762   19.0282 C   0  0  0  0  0  0  0  0  0  0  0  0
  -26.1957  -31.4420   24.0277 C   0  0  0  0  0  0  0  0  0  0  0  0
  -24.7459  -15.2721   21.1574 C   0  0  0  0  0  0  0  0  0  0  0  0
  -22.5491  -17.6457   21.4074 C   0  0  0  0  0  0  0  0  0  0  0  0
  -21.8925  -20.9946   21.4342 C   0  0  0  0  0  0  0  0  0  0  0  0
  -30.9506  -27.5602   18.3962 C   0  0  0  0  0  0  0  0  0  0  0  0
  -21.5179  -11.4292   20.2246 C   0  0  0  0  0  0  0  0  0  0  0  0
  -25.7753  -16.7246   22.9424 C   0  0  0  0  0  0  0  0  0  0  0  0
  -24.8527  -18.3175   20.6281 C   0  0  0  0  0  0  0  0  0  0  0  0
  -21.6863  -12.8603   19.7208 C   0  0  0  0  0  0  0  0  0  0  0  0
  -30.7495  -31.1143   18.4646 C   0  0  0  0  0  0  0  0  0  0  0  0
  -23.1363  -13.1197   19.3247 C   0  0  0  0  0  0  0  0  0  0  0  0
  -29.5652  -31.3959   19.3910 C   0  0  0  0  0  0  0  0  0  0  0  0
  -30.7852  -24.3346   18.1689 C   0  0  0  0  0  0  0  0  0  0  0  0
  -30.5153  -29.8693   17.6119 C   0  0  0  0  0  0  0  0  0  0  0  0
  -28.9789  -28.9370   19.2983 C   0  0  0  0  0  0  0  0  0  0  0  0
  -31.2404  -24.7444   20.7210 C   0  0  0  0  0  0  0  0  0  0  0  0
  -30.6216  -22.3063   20.7067 C   0  0  0  0  0  0  0  0  0  0  0  0
  -24.0737  -12.9607   20.5278 C   0  0  1  0  0  0  0  0  0  0  0  0
  -24.5127  -16.3592   22.1681 C   0  0  1  0  0  0  0  0  0  0  0  0
  -29.1922  -30.1511   20.2185 C   0  0  2  0  0  0  0  0  0  0  0  0
  -31.2650  -25.2663   19.2895 C   0  0  2  0  0  0  0  0  0  0  0  0
  -29.6835  -23.2996   18.4595 C   0  0  1  0  0  0  0  0  0  0  0  0
  -30.1543  -22.0328   19.2592 C   0  0  1  0  0  0  0  0  0  0  0  0
  -31.2767  -21.2853   18.4917 C   0  0  0  0  0  0  0  0  0  0  0  0
  -19.9972  -22.6290   21.6177 C   0  0  0  0  0  0  0  0  0  0  0  0
  -21.7515  -17.0407   18.5251 C   0  0  0  0  0  0  0  0  0  0  0  0
  -20.5795  -19.2521   18.4587 C   0  0  0  0  0  0  0  0  0  0  0  0
  -19.8338  -17.4950   20.0647 C   0  0  0  0  0  0  0  0  0  0  0  0
  -32.5385  -23.1087   22.0717 C   0  0  0  0  0  0  0  0  0  0  0  0
  -23.0123  -22.1941   23.8972 C   0  0  0  0  0  0  0  0  0  0  0  0
  -28.9731  -21.0263   19.3562 C   0  0  0  0  0  0  0  0  0  1  0  0
  -22.0129  -18.7083   20.4787 C   0  0  1  0  0  0  0  0  0  0  0  0
  -21.0629  -21.8509   22.3738 C   0  0  2  0  0  0  0  0  0  0  0  0
  -21.0721  -18.1225   19.3883 C   0  0  0  0  0  0  0  0  0  0  0  0
  -26.7635  -30.1175   20.6458 N   0  0  0  0  0  0  0  0  0  0  0  0
  -27.9908  -30.4101   21.1086 N   0  0  0  0  0  0  0  0  0  0  0  0
  -23.9429  -17.4985   21.4460 N   0  0  0  0  0  0  0  0  0  0  0  0
  -30.1671  -28.7245   18.4570 N   0  0  0  0  0  0  0  0  0  0  0  0
  -29.1444  -31.2715   22.9895 N   0  0  0  0  0  0  0  0  0  0  0  0
  -26.0673  -30.5239   25.0789 N   0  0  0  0  0  0  0  0  0  0  0  0
  -24.0040  -14.1278   21.3806 N   0  0  0  0  0  0  0  0  0  0  0  0
  -21.3878  -19.7158   21.3288 N   0  0  0  0  0  0  0  0  0  0  0  0
  -30.5553  -26.5249   19.2344 N   0  0  0  0  0  0  0  0  0  0  0  0
  -31.7385  -23.3231   20.8074 N   0  3  2  0  0  0  0  0  0  0  0  0
  -21.9334  -22.8235   23.0929 N   0  3  0  0  0  0  0  0  0  0  0  0
  -25.8709  -32.6390   24.2149 O   0  0  0  0  0  0  0  0  0  0  0  0
  -25.5390  -15.4582   20.2420 O   0  0  0  0  0  0  0  0  0  0  0  0
  -21.7607  -16.9760   22.0793 O   0  0  0  0  0  0  0  0  0  0  0  0
  -22.8866  -21.4189   20.8491 O   0  0  0  0  0  0  0  0  0  0  0  0
  -31.9328  -27.4534   17.6542 O   0  0  0  0  0  0  0  0  0  0  0  0
  -20.4298  -29.8120   21.2272 O   0  0  0  0  0  0  0  0  0  0  0  0
  -29.4642  -19.8581   19.9672 O   0  0  0  0  0  0  0  0  0  1  0  0
  -18.1154  -25.6187   23.9591 F   0  0  0  0  0  0  0  0  0  0  0  0
  -20.6290  -29.6295   23.9785 F   0  0  0  0  0  0  0  0  0  0  0  0
  -29.3199  -22.8271   17.2132 F   0  0  0  0  0  0  0  0  0  0  0  0
  1  2  1  0  0  0  0
  1  5  2  0  0  0  0
  2  6  2  0  0  0  0
  3  8  2  0  0  0  0
  3 15  1  0  0  0  0
  4  9  1  0  0  0  0
  4 15  2  0  0  0  0
  5 17  1  0  0  0  0
  6 19  1  0  0  0  0
  7 10  2  0  0  0  0
  7 18  1  0  0  0  0
  8 21  1  0  0  0  0
  9 21  2  0  0  0  0
 10 22  1  0  0  0  0
 11 12  2  0  0  0  0
 11 23  1  0  0  0  0
 12 24  1  0  0  0  0
 13 20  1  0  0  0  0
 13 22  2  0  0  0  0
 14 24  2  0  0  0  0
 14 25  1  0  0  0  0
 15 26  1  0  0  0  0
 16 26  1  0  0  0  0
 16 27  2  0  0  0  0
 16 30  1  0  0  0  0
 17 19  2  0  0  0  0
 17 35  1  0  0  0  0
 18 20  2  0  0  0  0
 18 36  1  0  0  0  0
 19 47  1  0  0  0  0
 20 37  1  0  0  0  0
 21 80  1  0  0  0  0
 22 81  1  0  0  0  0
 23 25  2  0  0  0  0
 23 80  1  0  0  0  0
 24 82  1  0  0  0  0
 25 83  1  0  0  0  0
 26 64  2  0  0  0  0
 27 65  1  0  0  0  0
 27 68  1  0  0  0  0
 28 29  2  0  0  0  0
 29 51  1  0  0  0  0
 30 69  1  0  0  0  0
 30 75  2  0  0  0  0
 31 48  1  0  0  0  0
 31 70  1  0  0  0  0
 31 76  2  0  0  0  0
 32 61  1  0  0  0  0
 32 66  1  0  0  0  0
 32 77  2  0  0  0  0
 33 62  1  0  0  0  0
 33 71  1  0  0  0  0
 33 78  2  0  0  0  0
 34 67  1  0  0  0  0
 34 72  1  0  0  0  0
 34 79  2  0  0  0  0
 35 38  1  0  0  0  0
 36 48  1  0  0  0  0
 37 66  1  0  0  0  0
 38 40  1  0  0  0  0
 39 41  1  0  0  0  0
 39 43  1  0  0  0  0
 40 47  1  0  0  0  0
 41 49  1  0  0  0  0
 42 50  1  0  0  0  0
 42 51  1  0  0  0  0
 43 67  1  0  0  0  0
 44 49  1  0  0  0  0
 44 67  1  0  0  0  0
 45 50  1  0  0  0  0
 45 73  1  0  0  0  0
 46 52  1  0  0  0  0
 46 73  1  0  0  0  0
 47 70  1  0  0  0  0
 48 66  1  0  0  0  0
 49 65  1  0  0  0  0
 50 72  1  0  0  0  0
 51 52  1  0  0  0  0
 51 84  1  0  0  0  0
 52 53  1  0  0  0  0
 52 60  1  0  0  0  0
 54 62  1  0  0  0  0
 55 63  1  0  0  0  0
 56 63  1  0  0  0  0
 57 63  1  0  0  0  0
 58 73  1  0  0  0  0
 59 74  1  0  0  0  0
 60 81  1  0  0  0  0
 61 63  1  0  0  0  0
 61 71  1  0  0  0  0
 62 74  1  0  0  0  0
 64 65  1  0  0  0  0
M  CHG  2  73   1  74   1
M  ISO  4  34 100  60 101  72 100  81 101
M  END
> <Batch ID>
0182

> <Smiles>
C=CC1(F)CC([100NH:0][100C:0](=O)N2CCCC(n3nc(-c4ccc(Oc5ccc(F)cc5F)cc4)c(C(N)=O)c3N)C2)CN(C)CC1(C)[101CH2:1][101O:1]c1ccc2c(c1)CN(C(=O)C(NC(=O)C(C)NC)C(C)(C)C)C(C(=O)NC1CCCc3ccccc31)C2

> <Shape>
0.254

> <Color>
0.051

> <Negative vol penalty>
0.000

$$$$

  -OEChem-04052323053D

 85 94  0     1  0  0  0  0  0999 V2000
  -37.1833  -16.4674   24.1080 C   0  0  0  0  0  0  0  0  0  0  0  0
  -36.3248  -17.1137   23.2245 C   0  0  0  0  0  0  0  0  0  0  0  0
  -22.5028  -28.5232   24.3055 C   0  0  0  0  0  0  0  0  0  0  0  0
  -22.4241  -29.1488   21.9732 C   0  0  0  0  0  0  0  0  0  0  0  0
  -37.0666  -15.0931   24.3118 C   0  0  0  0  0  0  0  0  0  0  0  0
  -35.3497  -16.3859   22.5434 C   0  0  0  0  0  0  0  0  0  0  0  0
  -30.8429  -18.6953   22.5505 C   0  0  0  0  0  0  0  0  0  0  0  0
  -22.9154  -29.8136   24.6377 C   0  0  0  0  0  0  0  0  0  0  0  0
  -22.8366  -30.4392   22.3054 C   0  0  0  0  0  0  0  0  0  0  0  0
  -30.6674  -19.7518   21.6579 C   0  0  0  0  0  0  0  0  0  0  0  0
  -25.7280  -32.0055   23.0912 C   0  0  0  0  0  0  0  0  0  0  0  0
  -26.7262  -32.5880   22.3102 C   0  0  0  0  0  0  0  0  0  0  0  0
  -29.4951  -18.2766   20.1516 C   0  0  0  0  0  0  0  0  0  0  0  0
  -25.2173  -34.3793   21.7174 C   0  0  0  0  0  0  0  0  0  0  0  0
  -22.2572  -28.1908   22.9732 C   0  0  0  0  0  0  0  0  0  0  0  0
  -20.5090  -26.3827   22.5464 C   0  0  0  0  0  0  0  0  0  0  0  0
  -36.0833  -14.3496   23.6402 C   0  0  0  0  0  0  0  0  0  0  0  0
  -30.3545  -17.4168   22.2450 C   0  0  0  0  0  0  0  0  0  0  0  0
  -35.2206  -15.0001   22.7375 C   0  0  0  0  0  0  0  0  0  0  0  0
  -29.6635  -17.2061   21.0432 C   0  0  0  0  0  0  0  0  0  0  0  0
  -29.4788  -24.6354   16.9731 C   0  0  0  0  0  0  0  0  0  0  0  0
  -23.0823  -30.7716   23.6377 C   0  0  0  0  0  0  0  0  0  0  0  0
  -29.9960  -19.5419   20.4570 C   0  0  0  0  0  0  0  0  0  0  0  0
  -24.4744  -32.6099   23.1852 C   0  0  0  0  0  0  0  0  0  0  0  0
  -26.4709  -33.7749   21.6234 C   0  0  0  0  0  0  0  0  0  0  0  0
  -24.2191  -33.7968   22.4984 C   0  0  0  0  0  0  0  0  0  0  0  0
  -21.8316  -26.8579   22.6294 C   0  0  0  0  0  0  0  0  0  0  0  0
  -28.4915  -23.9540   17.6551 C   0  0  0  0  0  0  0  0  0  0  0  0
  -30.7745  -24.3351   17.3408 C   0  0  0  0  0  0  0  0  0  0  0  0
  -20.6401  -25.0635   22.1872 C   0  0  0  0  0  0  0  0  0  0  0  0
  -30.0421  -22.8420   18.8904 C   0  0  0  0  0  0  0  0  0  0  0  0
  -19.2726  -27.0722   22.7735 C   0  0  0  0  0  0  0  0  0  0  0  0
  -31.6728  -14.5582   21.8042 C   0  0  0  0  0  0  0  0  0  0  0  0
  -28.5813  -13.5881   21.6492 C   0  0  0  0  0  0  0  0  0  0  0  0
  -25.3215  -14.3874   21.0315 C   0  0  0  0  0  0  0  0  0  0  0  0
  -25.1148  -22.1151   19.3623 C   0  0  0  0  0  0  0  0  0  0  0  0
  -36.0263  -12.8582   23.8573 C   0  0  0  0  0  0  0  0  0  0  0  0
  -30.5286  -16.2939   23.2305 C   0  0  0  0  0  0  0  0  0  0  0  0
  -29.1021  -15.8573   20.6771 C   0  0  0  0  0  0  0  0  0  0  0  0
  -34.7231  -12.2226   23.3798 C   0  0  0  0  0  0  0  0  0  0  0  0
  -23.6043  -21.3518   22.5301 C   0  0  0  0  0  0  0  0  0  0  0  0
  -34.3587  -12.7323   21.9890 C   0  0  0  0  0  0  0  0  0  0  0  0
  -22.9062  -22.6456   22.9364 C   0  0  0  0  0  0  0  0  0  0  0  0
  -24.8937  -21.6437   21.7745 C   0  0  0  0  0  0  0  0  0  0  0  0
  -26.0502  -22.9040   17.1261 C   0  0  0  0  0  0  0  0  0  0  0  0
  -25.9950  -24.4503   18.5862 C   0  0  0  0  0  0  0  0  0  0  0  0
  -23.9686  -23.7812   20.9208 C   0  0  0  0  0  0  0  0  0  0  0  0
  -34.1340  -14.2492   21.9988 C   0  0  1  0  0  0  0  0  0  0  0  0
  -26.9289  -24.1504   17.3871 C   0  0  0  0  0  0  0  0  0  0  0  0
  -30.4399  -14.9140   22.5858 C   0  0  1  0  0  0  0  0  0  0  0  0
  -22.6661  -23.5352   21.7081 C   0  0  2  0  0  0  0  0  0  0  0  0
  -31.9257  -25.0108   16.6713 C   0  0  0  0  0  0  0  0  0  0  0  0
  -28.3484  -26.8264   16.4481 C   0  0  0  0  0  0  0  0  0  0  0  0
  -28.4157  -24.9959   14.7161 C   0  0  0  0  0  0  0  0  0  0  0  0
  -23.0268  -13.3752   20.9485 C   0  0  0  0  0  0  0  0  0  0  0  0
  -29.2544  -12.2879   18.9722 C   0  0  0  0  0  0  0  0  0  0  0  0
  -26.7990  -12.1395   18.5061 C   0  0  0  0  0  0  0  0  0  0  0  0
  -27.7731  -10.9210   20.4526 C   0  0  0  0  0  0  0  0  0  0  0  0
  -24.3283  -16.1771   23.1691 C   0  0  0  0  0  0  0  0  0  0  0  0
  -30.3570  -21.8398   19.9617 C   0  0  0  0  0  0  0  0  0  1  0  0
  -29.1563  -25.6264   15.9131 C   0  0  0  0  0  0  0  0  0  0  0  0
  -27.5618  -13.4387   20.5460 C   0  0  1  0  0  0  0  0  0  0  0  0
  -24.0494  -14.1009   21.8088 C   0  0  2  0  0  0  0  0  0  0  0  0
  -27.8592  -12.2219   19.6249 C   0  0  0  0  0  0  0  0  0  0  0  0
  -22.7362  -25.9171   22.3459 N   0  0  0  0  0  0  0  0  0  0  0  0
  -28.7383  -23.0472   18.6231 N   0  0  0  0  0  0  0  0  0  0  0  0
  -31.0936  -23.4405   18.2989 N   0  0  0  0  0  0  0  0  0  0  0  0
  -21.9809  -24.8374   22.0814 N   0  0  0  0  0  0  0  0  0  0  0  0
  -29.3035  -14.7897   21.6707 N   0  0  0  0  0  0  0  0  0  0  0  0
  -24.6707  -22.5248   20.6244 N   0  0  0  0  0  0  0  0  0  0  0  0
  -25.5223  -23.0821   18.4717 N   0  0  0  0  0  0  0  0  0  0  0  0
  -19.7380  -24.0864   21.9548 N   0  0  0  0  0  0  0  0  0  0  0  0
  -19.3189  -28.4253   23.1357 N   0  0  0  0  0  0  0  0  0  0  0  0
  -32.8345  -14.5640   22.5525 N   0  0  0  0  0  0  0  0  0  0  0  0
  -26.2581  -13.3893   21.1989 N   0  0  0  0  0  0  0  0  0  0  0  0
  -23.4400  -15.3723   22.2916 N   0  3  0  0  0  0  0  0  0  0  0  0
  -18.1603  -26.5008   22.6747 O   0  0  0  0  0  0  0  0  0  0  0  0
  -31.5771  -14.2962   20.6110 O   0  0  0  0  0  0  0  0  0  0  0  0
  -28.7265  -12.6753   22.4662 O   0  0  0  0  0  0  0  0  0  0  0  0
  -25.4682  -15.3939   20.3416 O   0  0  0  0  0  0  0  0  0  0  0  0
  -25.1762  -20.9191   19.0481 O   0  0  0  0  0  0  0  0  0  0  0  0
  -23.4846  -32.0309   23.9615 O   0  0  0  0  0  0  0  0  0  0  0  0
  -29.8239  -20.5712   19.5836 O   0  0  0  0  0  0  0  0  0  1  0  0
  -27.4301  -34.3349   20.8747 F   0  0  0  0  0  0  0  0  0  0  0  0
  -23.0170  -34.3828   22.5858 F   0  0  0  0  0  0  0  0  0  0  0  0
  1  2  1  0  0  0  0
  1  5  2  0  0  0  0
  2  6  2  0  0  0  0
  3  8  2  0  0  0  0
  3 15  1  0  0  0  0
  4  9  1  0  0  0  0
  4 15  2  0  0  0  0
  5 17  1  0  0  0  0
  6 19  1  0  0  0  0
  7 10  2  0  0  0  0
  7 18  1  0  0  0  0
  8 22  1  0  0  0  0
  9 22  2  0  0  0  0
 10 23  1  0  0  0  0
 11 12  2  0  0  0  0
 11 24  1  0  0  0  0
 12 25  1  0  0  0  0
 13 20  1  0  0  0  0
 13 23  2  0  0  0  0
 14 25  2  0  0  0  0
 14 26  1  0  0  0  0
 15 27  1  0  0  0  0
 16 27  1  0  0  0  0
 16 30  2  0  0  0  0
 16 32  1  0  0  0  0
 17 19  2  0  0  0  0
 17 37  1  0  0  0  0
 18 20  2  0  0  0  0
 18 38  1  0  0  0  0
 19 48  1  0  0  0  0
 20 39  1  0  0  0  0
 21 28  2  0  0  0  0
 21 29  1  0  0  0  0
 21 61  1  0  0  0  0
 22 82  1  0  0  0  0
 23 83  1  0  0  0  0
 24 26  2  0  0  0  0
 24 82  1  0  0  0  0
 25 84  1  0  0  0  0
 26 85  1  0  0  0  0
 27 65  2  0  0  0  0
 28 49  1  0  0  0  0
 28 66  1  0  0  0  0
 29 52  1  0  0  0  0
 29 67  2  0  0  0  0
 30 68  1  0  0  0  0
 30 72  1  0  0  0  0
 31 60  1  0  0  0  0
 31 66  2  0  0  0  0
 31 67  1  0  0  0  0
 32 73  1  0  0  0  0
 32 77  2  0  0  0  0
 33 50  1  0  0  0  0
 33 74  1  0  0  0  0
 33 78  2  0  0  0  0
 34 62  1  0  0  0  0
 34 69  1  0  0  0  0
 34 79  2  0  0  0  0
 35 63  1  0  0  0  0
 35 75  1  0  0  0  0
 35 80  2  0  0  0  0
 36 70  1  0  0  0  0
 36 71  1  0  0  0  0
 36 81  2  0  0  0  0
 37 40  1  0  0  0  0
 38 50  1  0  0  0  0
 39 69  1  0  0  0  0
 40 42  1  0  0  0  0
 41 43  1  0  0  0  0
 41 44  1  0  0  0  0
 42 48  1  0  0  0  0
 43 51  1  0  0  0  0
 44 70  1  0  0  0  0
 45 49  1  0  0  0  0
 45 71  1  0  0  0  0
 46 49  1  0  0  0  0
 46 71  1  0  0  0  0
 47 51  1  0  0  0  0
 47 70  1  0  0  0  0
 48 74  1  0  0  0  0
 50 69  1  0  0  0  0
 51 68  1  0  0  0  0
 53 61  1  0  0  0  0
 54 61  1  0  0  0  0
 55 63  1  0  0  0  0
 56 64  1  0  0  0  0
 57 64  1  0  0  0  0
 58 64  1  0  0  0  0
 59 76  1  0  0  0  0
 60 83  1  0  0  0  0
 62 64  1  0  0  0  0
 62 75  1  0  0  0  0
 63 76  1  0  0  0  0
 65 68  1  0  0  0  0
M  CHG  1  76   1
M  ISO  4  36 100  60 101  71 100  83 101
M  END
> <Batch ID>
0182

> <Smiles>
CNC(C)C(=O)NC(C(=O)N1Cc2cc([101O:1][101CH2:1]c3nc(C)c(C(C)C)c(C4C[100N:0]([100C:0](=O)N5CCCC(n6nc(-c7ccc(Oc8ccc(F)cc8F)cc7)c(C(N)=O)c6N)C5)C4)n3)ccc2CC1C(=O)NC1CCCc2ccccc21)C(C)(C)C

> <Shape>
0.239

> <Color>
0.078

> <Negative vol penalty>
0.000

$$$$

  -OEChem-04052323053D

 84 93  0     1  0  0  0  0  0999 V2000
  -20.2118  -31.1034   21.2054 C   0  0  0  0  0  0  0  0  0  0  0  0
  -20.4254  -30.3691   20.0433 C   0  0  0  0  0  0  0  0  0  0  0  0
  -22.5415  -10.5682   22.0901 C   0  0  0  0  0  0  0  0  0  0  0  0
  -22.8198   -9.9175   19.7801 C   0  0  0  0  0  0  0  0  0  0  0  0
  -21.2851  -31.4155   22.0386 C   0  0  0  0  0  0  0  0  0  0  0  0
  -21.7129  -29.9474   19.7132 C   0  0  0  0  0  0  0  0  0  0  0  0
  -23.2731  -24.7284   16.9142 C   0  0  0  0  0  0  0  0  0  0  0  0
  -22.0491   -9.2978   22.3887 C   0  0  0  0  0  0  0  0  0  0  0  0
  -22.3274   -8.6470   20.0787 C   0  0  0  0  0  0  0  0  0  0  0  0
  -23.5796  -24.4312   15.5870 C   0  0  0  0  0  0  0  0  0  0  0  0
  -23.3032   -6.2068   22.9420 C   0  0  0  0  0  0  0  0  0  0  0  0
  -23.7862   -5.5776   24.0893 C   0  0  0  0  0  0  0  0  0  0  0  0
  -25.9292  -24.6534   16.0860 C   0  0  0  0  0  0  0  0  0  0  0  0
  -21.5428   -5.4808   24.9807 C   0  0  0  0  0  0  0  0  0  0  0  0
  -22.9268  -10.8781   20.7858 C   0  0  0  0  0  0  0  0  0  0  0  0
  -24.7768  -12.6141   20.5188 C   0  0  0  0  0  0  0  0  0  0  0  0
  -22.5850  -30.9892   21.7236 C   0  0  0  0  0  0  0  0  0  0  0  0
  -24.2937  -25.0016   17.8363 C   0  0  0  0  0  0  0  0  0  0  0  0
  -22.8049  -30.2552   20.5423 C   0  0  0  0  0  0  0  0  0  0  0  0
  -25.6332  -24.9514   17.4249 C   0  0  0  0  0  0  0  0  0  0  0  0
  -21.9421   -8.3372   21.3830 C   0  0  0  0  0  0  0  0  0  0  0  0
  -24.9076  -24.3965   15.1720 C   0  0  0  0  0  0  0  0  0  0  0  0
  -21.9400   -6.4732   22.8141 C   0  0  0  0  0  0  0  0  0  0  0  0
  -22.9060   -5.2145   25.1086 C   0  0  0  0  0  0  0  0  0  0  0  0
  -21.0598   -6.1101   23.8334 C   0  0  0  0  0  0  0  0  0  0  0  0
  -23.4350  -12.1904   20.4766 C   0  0  0  0  0  0  0  0  0  0  0  0
  -25.6269  -20.5305   13.6315 C   0  0  0  0  0  0  0  0  0  0  0  0
  -25.2033  -19.3080   13.1587 C   0  0  0  0  0  0  0  0  0  0  0  0
  -25.1424  -19.8724   15.7673 C   0  0  0  0  0  0  0  0  0  0  0  0
  -24.7180  -18.6501   15.2945 C   0  0  0  0  0  0  0  0  0  0  0  0
  -24.7323  -13.9338   20.1407 C   0  0  0  0  0  0  0  0  0  0  0  0
  -25.9580  -11.8803   20.8682 C   0  0  0  0  0  0  0  0  0  0  0  0
  -25.0984  -27.5112   19.6134 C   0  0  0  0  0  0  0  0  0  0  0  0
  -22.8120  -17.8999   16.6952 C   0  0  0  0  0  0  0  0  0  0  0  0
  -27.2839  -25.4510   20.8387 C   0  0  0  0  0  0  0  0  0  0  0  0
  -29.1600  -22.6309   20.4208 C   0  0  0  0  0  0  0  0  0  0  0  0
  -23.7208  -31.3913   22.6308 C   0  0  0  0  0  0  0  0  0  0  0  0
  -23.9478  -25.2943   19.2706 C   0  0  0  0  0  0  0  0  0  0  0  0
  -26.7668  -25.2171   18.3804 C   0  0  0  0  0  0  0  0  0  0  0  0
  -24.9973  -30.5860   22.4021 C   0  0  0  0  0  0  0  0  0  0  0  0
  -20.8163  -17.0687   19.5528 C   0  0  0  0  0  0  0  0  0  0  0  0
  -25.3061  -30.4867   20.9116 C   0  0  0  0  0  0  0  0  0  0  0  0
  -21.4105  -15.7452   20.0330 C   0  0  0  0  0  0  0  0  0  0  0  0
  -27.3483  -21.2449   11.8514 C   0  0  0  0  0  0  0  0  0  0  0  0
  -27.4856  -22.1988   12.9965 C   0  0  0  0  0  0  0  0  0  0  0  0
  -20.8600  -17.1813   18.0321 C   0  0  0  0  0  0  0  0  0  0  0  0
  -22.8194  -15.6742   17.9270 C   0  0  0  0  0  0  0  0  0  0  0  0
  -24.1832  -29.7587   20.1629 C   0  0  1  0  0  0  0  0  0  0  0  0
  -25.0431  -26.0616   20.0047 C   0  0  1  0  0  0  0  0  0  0  0  0
  -22.8228  -15.5330   19.4595 C   0  0  2  0  0  0  0  0  0  0  0  0
  -26.1332  -21.5765   12.6990 C   0  0  0  0  0  0  0  0  0  0  0  0
  -25.2330  -18.9806   11.7050 C   0  0  0  0  0  0  0  0  0  0  0  0
  -25.1120  -20.1964   17.2220 C   0  0  0  0  0  0  0  0  0  0  0  0
  -30.8808  -21.2199   21.5806 C   0  0  0  0  0  0  0  0  0  0  0  0
  -29.4217  -27.5293   20.1902 C   0  0  0  0  0  0  0  0  0  0  0  0
  -31.1487  -25.7384   20.4701 C   0  0  0  0  0  0  0  0  0  0  0  0
  -29.7084  -26.3921   22.3991 C   0  0  0  0  0  0  0  0  0  0  0  0
  -27.3850  -20.2627   20.4231 C   0  0  0  0  0  0  0  0  0  0  0  0
  -24.2088  -17.5947   16.2157 C   0  0  0  0  0  0  0  0  0  0  0  0
  -25.0771  -22.4531   12.0951 C   0  0  0  0  0  0  0  0  0  0  0  0
  -24.3005  -23.2305   13.1495 C   0  0  0  0  0  0  0  0  0  1  0  0
  -28.7030  -25.0682   20.4942 C   0  0  1  0  0  0  0  0  0  0  0  0
  -29.3971  -21.4355   21.3259 C   0  0  2  0  0  0  0  0  0  0  0  0
  -29.7242  -26.1788   20.8697 C   0  0  0  0  0  0  0  0  0  0  0  0
  -22.5990  -13.1622   20.1016 N   0  0  0  0  0  0  0  0  0  0  0  0
  -25.6041  -20.8346   14.9443 N   0  0  0  0  0  0  0  0  0  0  0  0
  -24.7412  -18.3458   13.9817 N   0  0  0  0  0  0  0  0  0  0  0  0
  -23.4176  -14.2097   19.9047 N   0  0  0  0  0  0  0  0  0  0  0  0
  -26.3772  -25.5049   19.7707 N   0  0  0  0  0  0  0  0  0  0  0  0
  -22.2138  -16.9513   17.5248 N   0  0  0  0  0  0  0  0  0  0  0  0
  -25.6898  -14.8735   19.9906 N   0  0  0  0  0  0  0  0  0  0  0  0
  -25.8246  -10.5335   21.2324 N   0  0  0  0  0  0  0  0  0  0  0  0
  -24.2815  -28.3297   20.3698 N   0  0  0  0  0  0  0  0  0  0  0  0
  -28.9491  -23.7856   21.1443 N   0  0  0  0  0  0  0  0  0  0  0  0
  -28.8419  -20.1988   20.7067 N   0  3  0  0  0  0  0  0  0  0  0  0
  -27.0960  -12.4079   20.8738 O   0  0  0  0  0  0  0  0  0  0  0  0
  -25.8294  -27.8614   18.6943 O   0  0  0  0  0  0  0  0  0  0  0  0
  -22.2715  -18.9520   16.3442 O   0  0  0  0  0  0  0  0  0  0  0  0
  -26.9892  -25.6862   22.0131 O   0  0  0  0  0  0  0  0  0  0  0  0
  -29.1653  -22.5493   19.1944 O   0  0  0  0  0  0  0  0  0  0  0  0
  -21.4619   -7.0973   21.6741 O   0  0  0  0  0  0  0  0  0  0  0  0
  -25.2094  -24.1072   13.8770 O   0  0  0  0  0  0  0  0  0  1  0  0
  -23.3698   -4.6088   26.2096 F   0  0  0  0  0  0  0  0  0  0  0  0
  -19.7489   -6.3623   23.7157 F   0  0  0  0  0  0  0  0  0  0  0  0
  1  2  1  0  0  0  0
  1  5  2  0  0  0  0
  2  6  2  0  0  0  0
  3  8  2  0  0  0  0
  3 15  1  0  0  0  0
  4  9  1  0  0  0  0
  4 15  2  0  0  0  0
  5 17  1  0  0  0  0
  6 19  1  0  0  0  0
  7 10  2  0  0  0  0
  7 18  1  0  0  0  0
  8 21  1  0  0  0  0
  9 21  2  0  0  0  0
 10 22  1  0  0  0  0
 11 12  2  0  0  0  0
 11 23  1  0  0  0  0
 12 24  1  0  0  0  0
 13 20  1  0  0  0  0
 13 22  2  0  0  0  0
 14 24  2  0  0  0  0
 14 25  1  0  0  0  0
 15 26  1  0  0  0  0
 16 26  1  0  0  0  0
 16 31  2  0  0  0  0
 16 32  1  0  0  0  0
 17 19  2  0  0  0  0
 17 37  1  0  0  0  0
 18 20  2  0  0  0  0
 18 38  1  0  0  0  0
 19 48  1  0  0  0  0
 20 39  1  0  0  0  0
 21 81  1  0  0  0  0
 22 82  1  0  0  0  0
 23 25  2  0  0  0  0
 23 81  1  0  0  0  0
 24 83  1  0  0  0  0
 25 84  1  0  0  0  0
 26 65  2  0  0  0  0
 27 28  2  0  0  0  0
 27 51  1  0  0  0  0
 27 66  1  0  0  0  0
 28 52  1  0  0  0  0
 28 67  1  0  0  0  0
 29 30  1  0  0  0  0
 29 53  1  0  0  0  0
 29 66  2  0  0  0  0
 30 59  1  0  0  0  0
 30 67  2  0  0  0  0
 31 68  1  0  0  0  0
 31 71  1  0  0  0  0
 32 72  1  0  0  0  0
 32 76  2  0  0  0  0
 33 49  1  0  0  0  0
 33 73  1  0  0  0  0
 33 77  2  0  0  0  0
 34 59  1  0  0  0  0
 34 70  1  0  0  0  0
 34 78  2  0  0  0  0
 35 62  1  0  0  0  0
 35 69  1  0  0  0  0
 35 79  2  0  0  0  0
 36 63  1  0  0  0  0
 36 74  1  0  0  0  0
 36 80  2  0  0  0  0
 37 40  1  0  0  0  0
 38 49  1  0  0  0  0
 39 69  1  0  0  0  0
 40 42  1  0  0  0  0
 41 43  1  0  0  0  0
 41 46  1  0  0  0  0
 42 48  1  0  0  0  0
 43 50  1  0  0  0  0
 44 45  1  0  0  0  0
 44 51  1  0  0  0  0
 45 51  1  0  0  0  0
 46 70  1  0  0  0  0
 47 50  1  0  0  0  0
 47 70  1  0  0  0  0
 48 73  1  0  0  0  0
 49 69  1  0  0  0  0
 50 68  1  0  0  0  0
 51 60  1  0  0  0  0
 54 63  1  0  0  0  0
 55 64  1  0  0  0  0
 56 64  1  0  0  0  0
 57 64  1  0  0  0  0
 58 75  1  0  0  0  0
 60 61  1  0  0  0  0
 61 82  1  0  0  0  0
 62 64  1  0  0  0  0
 62 74  1  0  0  0  0
 63 75  1  0  0  0  0
 65 68  1  0  0  0  0
M  CHG  1  75   1
M  ISO  4  34 100  59 100  61 101  82 101
M  END
> <Batch ID>
0182

> <Smiles>
CNC(C)C(=O)NC(C(=O)N1Cc2cc([101O:1][101CH2:1]CC3(c4nc(C)c([100CH2:0][100C:0](=O)N5CCCC(n6nc(-c7ccc(Oc8ccc(F)cc8F)cc7)c(C(N)=O)c6N)C5)nc4C)CC3)ccc2CC1C(=O)NC1CCCc2ccccc21)C(C)(C)C

> <Shape>
0.219

> <Color>
0.089

> <Negative vol penalty>
0.000

$$$$

  -OEChem-04052323053D

 84 93  0     1  0  0  0  0  0999 V2000
  -19.7447  -13.1599   22.3251 C   0  0  0  0  0  0  0  0  0  0  0  0
  -20.1306  -14.3550   21.7266 C   0  0  0  0  0  0  0  0  0  0  0  0
  -18.2263  -24.5520   22.6495 C   0  0  0  0  0  0  0  0  0  0  0  0
  -19.1322  -24.0018   20.4785 C   0  0  0  0  0  0  0  0  0  0  0  0
  -20.6271  -12.4879   23.1698 C   0  0  0  0  0  0  0  0  0  0  0  0
  -21.3989  -14.8794   21.9735 C   0  0  0  0  0  0  0  0  0  0  0  0
  -26.5939  -18.6549   18.7995 C   0  0  0  0  0  0  0  0  0  0  0  0
  -29.8944  -29.2132   20.3603 C   0  0  0  0  0  0  0  0  0  0  0  0
  -17.2621  -23.5553   22.4998 C   0  0  0  0  0  0  0  0  0  0  0  0
  -18.1681  -23.0050   20.3287 C   0  0  0  0  0  0  0  0  0  0  0  0
  -27.3825  -19.7861   19.0049 C   0  0  0  0  0  0  0  0  0  0  0  0
  -14.8937  -22.8091   19.5096 C   0  0  0  0  0  0  0  0  0  0  0  0
  -14.2325  -22.7259   18.2842 C   0  0  0  0  0  0  0  0  0  0  0  0
  -28.5066  -29.2944   20.3309 C   0  0  0  0  0  0  0  0  0  0  0  0
  -28.8517  -18.4976   20.4192 C   0  0  0  0  0  0  0  0  0  0  0  0
  -15.0582  -20.4743   17.9917 C   0  0  0  0  0  0  0  0  0  0  0  0
  -19.1613  -24.7753   21.6388 C   0  0  0  0  0  0  0  0  0  0  0  0
  -19.9340  -27.1833   21.9740 C   0  0  0  0  0  0  0  0  0  0  0  0
  -21.9103  -12.9993   23.4196 C   0  0  0  0  0  0  0  0  0  0  0  0
  -26.9227  -17.4371   19.4122 C   0  0  0  0  0  0  0  0  0  0  0  0
  -22.2988  -14.2143   22.8235 C   0  0  0  0  0  0  0  0  0  0  0  0
  -28.0671  -17.3517   20.2179 C   0  0  0  0  0  0  0  0  0  0  0  0
  -30.5152  -27.9739   20.2495 C   0  0  0  0  0  0  0  0  0  0  0  0
  -17.2330  -22.7818   21.3394 C   0  0  0  0  0  0  0  0  0  0  0  0
  -28.5100  -19.7083   19.8172 C   0  0  0  0  0  0  0  0  0  0  0  0
  -15.6372  -21.7250   19.9760 C   0  0  0  0  0  0  0  0  0  0  0  0
  -14.3147  -21.5585   17.5253 C   0  0  0  0  0  0  0  0  0  0  0  0
  -15.7194  -20.5575   19.2170 C   0  0  0  0  0  0  0  0  0  0  0  0
  -20.1572  -25.8052   21.7927 C   0  0  0  0  0  0  0  0  0  0  0  0
  -27.7909  -28.1164   20.1900 C   0  0  0  0  0  0  0  0  0  0  0  0
  -29.7096  -26.8550   20.1122 C   0  0  0  0  0  0  0  0  0  0  0  0
  -21.1925  -27.7257   22.0667 C   0  0  0  0  0  0  0  0  0  0  0  0
  -18.6995  -27.9083   22.0518 C   0  0  0  0  0  0  0  0  0  0  0  0
  -26.3236  -28.1428   20.1514 C   0  0  0  0  0  0  0  0  0  0  0  0
  -25.4948  -15.5247   21.5116 C   0  0  0  0  0  0  0  0  0  0  0  0
  -28.0119  -13.5829   20.8669 C   0  0  0  0  0  0  0  0  0  0  0  0
  -31.2299  -13.2779   19.7722 C   0  0  0  0  0  0  0  0  0  0  0  0
  -22.8121  -12.2616   24.3773 C   0  0  0  0  0  0  0  0  0  0  0  0
  -26.0768  -16.2195   19.1590 C   0  0  0  0  0  0  0  0  0  0  0  0
  -28.4748  -16.0630   20.8822 C   0  0  0  0  0  0  0  0  0  0  0  0
  -24.2742  -12.6916   24.2910 C   0  0  0  0  0  0  0  0  0  0  0  0
  -25.7096  -25.5147   22.5768 C   0  0  0  0  0  0  0  0  0  0  0  0
  -24.3831  -14.2129   24.2730 C   0  0  0  0  0  0  0  0  0  0  0  0
  -30.5696  -24.7738   21.3425 C   0  0  0  0  0  0  0  0  0  0  0  0
  -29.8996  -23.4028   21.2332 C   0  0  0  0  0  0  0  0  0  0  0  0
  -24.1813  -25.4606   22.5858 C   0  0  0  0  0  0  0  0  0  0  0  0
  -26.2470  -25.8135   21.1806 C   0  0  0  0  0  0  0  0  0  0  0  0
  -24.1684  -27.0093   20.5782 C   0  0  0  0  0  0  0  0  0  0  0  0
  -23.6751  -14.8023   23.0471 C   0  0  1  0  0  0  0  0  0  0  0  0
  -30.3293  -25.4810   19.9882 C   0  0  1  0  0  0  0  0  0  0  0  0
  -26.2168  -15.1581   20.2459 C   0  0  1  0  0  0  0  0  0  0  0  0
  -29.8502  -23.1248   19.7317 C   0  0  2  0  0  0  0  0  0  0  0  0
  -23.5752  -26.7357   21.9712 C   0  0  1  0  0  0  0  0  0  0  0  0
  -29.4624  -24.4967   19.1854 C   0  0  2  0  0  0  0  0  0  0  0  0
  -32.0015  -27.8805   20.2813 C   0  0  0  0  0  0  0  0  0  0  0  0
  -33.0283  -11.5692   19.3935 C   0  0  0  0  0  0  0  0  0  0  0  0
  -28.5323  -13.4682   23.8713 C   0  0  0  0  0  0  0  0  0  0  0  0
  -30.8174  -12.5760   23.3709 C   0  0  0  0  0  0  0  0  0  0  0  0
  -28.7977  -11.2840   22.6824 C   0  0  0  0  0  0  0  0  0  0  0  0
  -31.3400  -13.8664   16.8738 C   0  0  0  0  0  0  0  0  0  0  0  0
  -28.8764  -22.0150   19.3695 C   0  0  0  0  0  0  0  0  0  1  0  0
  -29.3971  -13.4024   21.4394 C   0  0  1  0  0  0  0  0  0  0  0  0
  -31.8681  -12.3311   18.7719 C   0  0  2  0  0  0  0  0  0  0  0  0
  -29.3776  -12.7076   22.8302 C   0  0  0  0  0  0  0  0  0  0  0  0
  -21.4553  -25.4916   21.7710 N   0  0  0  0  0  0  0  0  0  0  0  0
  -28.3587  -26.8945   20.0795 N   0  0  0  0  0  0  0  0  0  0  0  0
  -22.0592  -26.6802   21.9399 N   0  0  0  0  0  0  0  0  0  0  0  0
  -25.6313  -27.0309   20.6373 N   0  0  0  0  0  0  0  0  0  0  0  0
  -27.6120  -14.9018   20.6091 N   0  0  0  0  0  0  0  0  0  0  0  0
  -21.6312  -28.9901   22.2435 N   0  0  0  0  0  0  0  0  0  0  0  0
  -18.1435  -28.4099   20.8671 N   0  0  0  0  0  0  0  0  0  0  0  0
  -24.4934  -14.6403   21.8645 N   0  0  0  0  0  0  0  0  0  0  0  0
  -30.1679  -12.6900   20.4262 N   0  0  0  0  0  0  0  0  0  0  0  0
  -29.7501  -24.5982   17.7379 N   0  3  0  0  0  0  0  0  0  0  0  0
  -32.3802  -13.0889   17.5952 N   0  3  0  0  0  0  0  0  0  0  0  0
  -18.1155  -28.1196   23.1416 O   0  0  0  0  0  0  0  0  0  0  0  0
  -25.8112  -29.1641   19.6957 O   0  0  0  0  0  0  0  0  0  0  0  0
  -25.8229  -16.5344   22.1236 O   0  0  0  0  0  0  0  0  0  0  0  0
  -27.3133  -12.5897   20.6495 O   0  0  0  0  0  0  0  0  0  0  0  0
  -31.6354  -14.4232   19.9577 O   0  0  0  0  0  0  0  0  0  0  0  0
  -16.2924  -21.8089   21.1931 O   0  0  0  0  0  0  0  0  0  0  0  0
  -29.2811  -20.8111   20.0200 O   0  0  0  0  0  0  0  0  0  1  0  0
  -13.6785  -21.4781   16.3493 F   0  0  0  0  0  0  0  0  0  0  0  0
  -16.4312  -19.5123   19.6604 F   0  0  0  0  0  0  0  0  0  0  0  0
  1  2  1  0  0  0  0
  1  5  2  0  0  0  0
  2  6  2  0  0  0  0
  3  9  2  0  0  0  0
  3 17  1  0  0  0  0
  4 10  1  0  0  0  0
  4 17  2  0  0  0  0
  5 19  1  0  0  0  0
  6 21  1  0  0  0  0
  7 11  2  0  0  0  0
  7 20  1  0  0  0  0
  8 14  2  0  0  0  0
  8 23  1  0  0  0  0
  9 24  1  0  0  0  0
 10 24  2  0  0  0  0
 11 25  1  0  0  0  0
 12 13  2  0  0  0  0
 12 26  1  0  0  0  0
 13 27  1  0  0  0  0
 14 30  1  0  0  0  0
 15 22  1  0  0  0  0
 15 25  2  0  0  0  0
 16 27  2  0  0  0  0
 16 28  1  0  0  0  0
 17 29  1  0  0  0  0
 18 29  1  0  0  0  0
 18 32  2  0  0  0  0
 18 33  1  0  0  0  0
 19 21  2  0  0  0  0
 19 38  1  0  0  0  0
 20 22  2  0  0  0  0
 20 39  1  0  0  0  0
 21 49  1  0  0  0  0
 22 40  1  0  0  0  0
 23 31  2  0  0  0  0
 23 55  1  0  0  0  0
 24 81  1  0  0  0  0
 25 82  1  0  0  0  0
 26 28  2  0  0  0  0
 26 81  1  0  0  0  0
 27 83  1  0  0  0  0
 28 84  1  0  0  0  0
 29 65  2  0  0  0  0
 30 34  1  0  0  0  0
 30 66  2  0  0  0  0
 31 50  1  0  0  0  0
 31 66  1  0  0  0  0
 32 67  1  0  0  0  0
 32 70  1  0  0  0  0
 33 71  1  0  0  0  0
 33 76  2  0  0  0  0
 34 68  1  0  0  0  0
 34 77  2  0  0  0  0
 35 51  1  0  0  0  0
 35 72  1  0  0  0  0
 35 78  2  0  0  0  0
 36 62  1  0  0  0  0
 36 69  1  0  0  0  0
 36 79  2  0  0  0  0
 37 63  1  0  0  0  0
 37 73  1  0  0  0  0
 37 80  2  0  0  0  0
 38 41  1  0  0  0  0
 39 51  1  0  0  0  0
 40 69  1  0  0  0  0
 41 43  1  0  0  0  0
 42 46  1  0  0  0  0
 42 47  1  0  0  0  0
 43 49  1  0  0  0  0
 44 45  1  0  0  0  0
 44 50  1  0  0  0  0
 45 52  1  0  0  0  0
 46 53  1  0  0  0  0
 47 68  1  0  0  0  0
 48 53  1  0  0  0  0
 48 68  1  0  0  0  0
 49 72  1  0  0  0  0
 50 54  1  0  0  0  0
 51 69  1  0  0  0  0
 52 54  1  0  0  0  0
 52 61  1  0  0  0  0
 53 67  1  0  0  0  0
 54 74  1  0  0  0  0
 56 63  1  0  0  0  0
 57 64  1  0  0  0  0
 58 64  1  0  0  0  0
 59 64  1  0  0  0  0
 60 75  1  0  0  0  0
 61 82  1  0  0  0  0
 62 64  1  0  0  0  0
 62 73  1  0  0  0  0
 63 75  1  0  0  0  0
 65 67  1  0  0  0  0
M  CHG  2  74   1  75   1
M  ISO  4  30 100  34 100  61 101  82 101
M  END
> <Batch ID>
0182

> <Smiles>
CNC(C)C(=O)NC(C(=O)N1Cc2cc([101O:1][101CH2:1]C3CCC(c4n[100c:0]([100C:0](=O)N5CCCC(n6nc(-c7ccc(Oc8ccc(F)cc8F)cc7)c(C(N)=O)c6N)C5)ccc4C)C3N)ccc2CC1C(=O)NC1CCCc2ccccc21)C(C)(C)C

> <Shape>
0.239

> <Color>
0.069

> <Negative vol penalty>
0.000

$$$$

  -OEChem-04052323053D

 85 94  0     1  0  0  0  0  0999 V2000
  -36.8602  -21.7501   27.1130 C   0  0  0  0  0  0  0  0  0  0  0  0
  -35.9494  -21.5137   26.0883 C   0  0  0  0  0  0  0  0  0  0  0  0
  -23.0754   -9.8652   19.9450 C   0  0  0  0  0  0  0  0  0  0  0  0
  -23.8340   -9.8795   22.2387 C   0  0  0  0  0  0  0  0  0  0  0  0
  -36.4027  -22.0247   28.4011 C   0  0  0  0  0  0  0  0  0  0  0  0
  -34.5805  -21.5506   26.3515 C   0  0  0  0  0  0  0  0  0  0  0  0
  -30.1600  -23.5040   22.5899 C   0  0  0  0  0  0  0  0  0  0  0  0
  -22.3317   -8.7127   20.1981 C   0  0  0  0  0  0  0  0  0  0  0  0
  -23.0902   -8.7270   22.4919 C   0  0  0  0  0  0  0  0  0  0  0  0
  -29.2798  -22.8280   21.7462 C   0  0  0  0  0  0  0  0  0  0  0  0
  -19.8618   -7.9304   23.0950 C   0  0  0  0  0  0  0  0  0  0  0  0
  -19.1042   -7.8940   24.2656 C   0  0  0  0  0  0  0  0  0  0  0  0
  -27.5913  -22.8901   23.4678 C   0  0  0  0  0  0  0  0  0  0  0  0
  -20.3455   -5.9591   25.0088 C   0  0  0  0  0  0  0  0  0  0  0  0
  -31.4348  -19.3342   22.7374 C   0  0  0  0  0  0  0  0  0  0  0  0
  -23.8267  -10.4486   20.9653 C   0  0  0  0  0  0  0  0  0  0  0  0
  -24.1681  -12.9734   20.8376 C   0  0  0  0  0  0  0  0  0  0  0  0
  -35.0274  -22.0745   28.6781 C   0  0  0  0  0  0  0  0  0  0  0  0
  -29.7655  -23.8691   23.8851 C   0  0  0  0  0  0  0  0  0  0  0  0
  -34.1042  -21.8248   27.6448 C   0  0  0  0  0  0  0  0  0  0  0  0
  -28.4675  -23.5729   24.3252 C   0  0  0  0  0  0  0  0  0  0  0  0
  -22.3390   -8.1436   21.4715 C   0  0  0  0  0  0  0  0  0  0  0  0
  -27.9962  -22.5184   22.1861 C   0  0  0  0  0  0  0  0  0  0  0  0
  -20.8613   -6.9812   22.8813 C   0  0  0  0  0  0  0  0  0  0  0  0
  -19.3460   -6.9084   25.2225 C   0  0  0  0  0  0  0  0  0  0  0  0
  -21.1031   -5.9955   23.8382 C   0  0  0  0  0  0  0  0  0  0  0  0
  -24.5957  -11.6388   20.7043 C   0  0  0  0  0  0  0  0  0  0  0  0
  -32.2175  -18.5404   21.9282 C   0  0  0  0  0  0  0  0  0  0  0  0
  -29.7882  -17.7477   22.7012 C   0  0  0  0  0  0  0  0  0  0  0  0
  -30.5705  -16.9541   21.8914 C   0  0  0  0  0  0  0  0  0  0  0  0
  -25.2603  -13.7220   20.4726 C   0  0  0  0  0  0  0  0  0  0  0  0
  -22.8973  -13.4903   21.2541 C   0  0  0  0  0  0  0  0  0  0  0  0
  -30.7546  -23.1476   26.8185 C   0  0  0  0  0  0  0  0  0  0  0  0
  -28.5867  -25.4005   27.6829 C   0  0  0  0  0  0  0  0  0  0  0  0
  -25.7520  -27.1388   26.9152 C   0  0  0  0  0  0  0  0  0  0  0  0
  -30.7262  -14.7692   20.6472 C   0  0  0  0  0  0  0  0  0  0  0  0
  -34.5812  -22.3286   30.0962 C   0  0  0  0  0  0  0  0  0  0  0  0
  -30.7178  -24.6216   24.7735 C   0  0  0  0  0  0  0  0  0  0  0  0
  -27.9882  -23.9608   25.6994 C   0  0  0  0  0  0  0  0  0  0  0  0
  -33.1100  -22.7192   30.2112 C   0  0  0  0  0  0  0  0  0  0  0  0
  -29.6137  -12.3477   18.2859 C   0  0  0  0  0  0  0  0  0  0  0  0
  -32.2429  -21.7869   29.3710 C   0  0  0  0  0  0  0  0  0  0  0  0
  -28.1738  -12.0572   18.7155 C   0  0  0  0  0  0  0  0  0  0  0  0
  -26.8469  -19.8743   22.7215 C   0  0  0  0  0  0  0  0  0  0  0  0
  -30.5280  -12.5805   19.4873 C   0  0  0  0  0  0  0  0  0  0  0  0
  -28.6201  -13.3089   20.8652 C   0  0  0  0  0  0  0  0  0  0  0  0
  -25.3517  -20.3197   20.9094 C   0  0  0  0  0  0  0  0  0  0  0  0
  -32.6112  -21.8805   27.8854 C   0  0  1  0  0  0  0  0  0  0  0  0
  -30.3824  -24.4903   26.2559 C   0  0  1  0  0  0  0  0  0  0  0  0
  -27.6480  -13.1318   19.6873 C   0  0  2  0  0  0  0  0  0  0  0  0
  -26.1688  -21.0163   21.9819 C   0  0  2  0  0  0  0  0  0  1  0  0
  -27.2416  -18.9220   21.6003 C   0  0  1  0  0  0  0  0  0  0  0  0
  -33.5715  -18.9942   21.5068 C   0  0  0  0  0  0  0  0  0  0  0  0
  -24.2024  -28.8853   27.8349 C   0  0  0  0  0  0  0  0  0  0  0  0
  -27.3641  -23.3257   29.5565 C   0  0  0  0  0  0  0  0  0  0  0  0
  -25.3241  -24.7689   29.7105 C   0  0  0  0  0  0  0  0  0  0  0  0
  -27.5230  -25.6306   30.5138 C   0  0  0  0  0  0  0  0  0  0  0  0
  -26.3104  -28.9832   24.6690 C   0  0  0  0  0  0  0  0  0  0  0  0
  -28.4147  -17.3160   23.1492 C   0  0  0  0  0  0  0  0  0  0  0  0
  -27.3783  -17.4759   22.0324 C   0  0  0  0  0  0  0  0  0  0  0  0
  -27.1174  -25.3930   28.0296 C   0  0  1  0  0  0  0  0  0  0  0  0
  -25.4312  -28.6212   26.9787 C   0  0  2  0  0  0  0  0  0  0  0  0
  -26.8415  -24.7704   29.4273 C   0  0  0  0  0  0  0  0  0  0  0  0
  -30.2061  -18.9521   23.1385 N   0  0  0  0  0  0  0  0  0  0  0  0
  -25.8608  -11.5419   20.2870 N   0  0  0  0  0  0  0  0  0  0  0  0
  -31.7993  -17.3361   21.4907 N   0  0  0  0  0  0  0  0  0  0  0  0
  -26.2375  -12.8251   20.1549 N   0  0  0  0  0  0  0  0  0  0  0  0
  -28.9585  -24.6896   26.5330 N   0  0  0  0  0  0  0  0  0  0  0  0
  -29.9683  -13.6139   20.3612 N   0  0  0  0  0  0  0  0  0  0  0  0
  -25.4705  -15.0532   20.3955 N   0  0  0  0  0  0  0  0  0  0  0  0
  -21.8853  -12.5820   21.5936 N   0  0  0  0  0  0  0  0  0  0  0  0
  -30.0782  -15.6966   21.4624 N   0  0  0  0  0  0  0  0  0  0  0  0
  -32.0481  -23.0781   27.2996 N   0  0  0  0  0  0  0  0  0  0  0  0
  -26.6574  -26.7701   27.8875 N   0  0  0  0  0  0  0  0  0  0  0  0
  -26.1232  -19.0621   20.6027 N   0  3  0  0  0  0  0  0  0  0  0  0
  -25.1745  -29.1547   25.6110 N   0  3  0  0  0  0  0  0  0  0  0  0
  -22.6607  -14.7210   21.3075 O   0  0  0  0  0  0  0  0  0  0  0  0
  -29.9288  -22.2422   26.8176 O   0  0  0  0  0  0  0  0  0  0  0  0
  -29.3745  -26.0205   28.4017 O   0  0  0  0  0  0  0  0  0  0  0  0
  -25.2468  -26.3828   26.0883 O   0  0  0  0  0  0  0  0  0  0  0  0
  -31.8555  -14.9366   20.1798 O   0  0  0  0  0  0  0  0  0  0  0  0
  -21.6131   -7.0191   21.7190 O   0  0  0  0  0  0  0  0  0  0  0  0
  -27.1352  -21.8580   21.3648 O   0  0  0  0  0  0  0  0  0  1  0  0
  -18.6194   -6.8745   26.3473 F   0  0  0  0  0  0  0  0  0  0  0  0
  -22.0627   -5.0816   23.6390 F   0  0  0  0  0  0  0  0  0  0  0  0
  1  2  1  0  0  0  0
  1  5  2  0  0  0  0
  2  6  2  0  0  0  0
  3  8  2  0  0  0  0
  3 16  1  0  0  0  0
  4  9  1  0  0  0  0
  4 16  2  0  0  0  0
  5 18  1  0  0  0  0
  6 20  1  0  0  0  0
  7 10  2  0  0  0  0
  7 19  1  0  0  0  0
  8 22  1  0  0  0  0
  9 22  2  0  0  0  0
 10 23  1  0  0  0  0
 11 12  2  0  0  0  0
 11 24  1  0  0  0  0
 12 25  1  0  0  0  0
 13 21  1  0  0  0  0
 13 23  2  0  0  0  0
 14 25  2  0  0  0  0
 14 26  1  0  0  0  0
 15 28  1  0  0  0  0
 15 64  2  0  0  0  0
 16 27  1  0  0  0  0
 17 27  1  0  0  0  0
 17 31  2  0  0  0  0
 17 32  1  0  0  0  0
 18 20  2  0  0  0  0
 18 37  1  0  0  0  0
 19 21  2  0  0  0  0
 19 38  1  0  0  0  0
 20 48  1  0  0  0  0
 21 39  1  0  0  0  0
 22 82  1  0  0  0  0
 23 83  1  0  0  0  0
 24 26  2  0  0  0  0
 24 82  1  0  0  0  0
 25 84  1  0  0  0  0
 26 85  1  0  0  0  0
 27 65  2  0  0  0  0
 28 53  1  0  0  0  0
 28 66  2  0  0  0  0
 29 30  2  0  0  0  0
 29 59  1  0  0  0  0
 29 64  1  0  0  0  0
 30 66  1  0  0  0  0
 30 72  1  0  0  0  0
 31 67  1  0  0  0  0
 31 70  1  0  0  0  0
 32 71  1  0  0  0  0
 32 77  2  0  0  0  0
 33 49  1  0  0  0  0
 33 73  1  0  0  0  0
 33 78  2  0  0  0  0
 34 61  1  0  0  0  0
 34 68  1  0  0  0  0
 34 79  2  0  0  0  0
 35 62  1  0  0  0  0
 35 74  1  0  0  0  0
 35 80  2  0  0  0  0
 36 69  1  0  0  0  0
 36 72  1  0  0  0  0
 36 81  2  0  0  0  0
 37 40  1  0  0  0  0
 38 49  1  0  0  0  0
 39 68  1  0  0  0  0
 40 42  1  0  0  0  0
 41 43  1  0  0  0  0
 41 45  1  0  0  0  0
 42 48  1  0  0  0  0
 43 50  1  0  0  0  0
 44 51  1  0  0  0  0
 44 52  1  0  0  0  0
 45 69  1  0  0  0  0
 46 50  1  0  0  0  0
 46 69  1  0  0  0  0
 47 51  1  0  0  0  0
 47 75  1  0  0  0  0
 48 73  1  0  0  0  0
 49 68  1  0  0  0  0
 50 67  1  0  0  0  0
 51 83  1  0  0  0  0
 52 60  1  0  0  0  0
 52 75  1  0  0  0  0
 54 62  1  0  0  0  0
 55 63  1  0  0  0  0
 56 63  1  0  0  0  0
 57 63  1  0  0  0  0
 58 76  1  0  0  0  0
 59 60  1  0  0  0  0
 61 63  1  0  0  0  0
 61 74  1  0  0  0  0
 62 76  1  0  0  0  0
 65 67  1  0  0  0  0
M  CHG  2  75   1  76   1
M  ISO  4  36 100  51 101  72 100  83 101
M  END
> <Batch ID>
0182

> <Smiles>
CNC(C)C(=O)NC(C(=O)N1Cc2cc([101O:1][101CH:1]3CNC(CCc4ncc(C)nc4[100NH:0][100C:0](=O)N4CCCC(n5nc(-c6ccc(Oc7ccc(F)cc7F)cc6)c(C(N)=O)c5N)C4)C3)ccc2CC1C(=O)NC1CCCc2ccccc21)C(C)(C)C

> <Shape>
0.193

> <Color>
0.180

> <Negative vol penalty>
0.000

$$$$

  -OEChem-04052323053D

 82 91  0     1  0  0  0  0  0999 V2000
  -17.4860  -31.9405   20.5179 C   0  0  0  0  0  0  0  0  0  0  0  0
  -18.6051  -31.1776   20.2042 C   0  0  0  0  0  0  0  0  0  0  0  0
  -28.3300  -17.1127   20.9091 C   0  0  0  0  0  0  0  0  0  0  0  0
  -30.5843  -17.6203   21.6147 C   0  0  0  0  0  0  0  0  0  0  0  0
  -16.8008  -31.7090   21.7088 C   0  0  0  0  0  0  0  0  0  0  0  0
  -19.0324  -30.1750   21.0754 C   0  0  0  0  0  0  0  0  0  0  0  0
  -22.6823  -27.2670   19.5181 C   0  0  0  0  0  0  0  0  0  0  0  0
  -28.5968  -15.7496   21.0372 C   0  0  0  0  0  0  0  0  0  0  0  0
  -30.8511  -16.2572   21.7429 C   0  0  0  0  0  0  0  0  0  0  0  0
  -24.0011  -27.7057   19.4087 C   0  0  0  0  0  0  0  0  0  0  0  0
  -30.1728  -13.3428   19.2629 C   0  0  0  0  0  0  0  0  0  0  0  0
  -29.7486  -12.5008   18.2351 C   0  0  0  0  0  0  0  0  0  0  0  0
  -24.5555  -26.5263   21.4387 C   0  0  0  0  0  0  0  0  0  0  0  0
  -28.3714  -11.2820   19.8019 C   0  0  0  0  0  0  0  0  0  0  0  0
  -30.6107  -29.5200   19.2680 C   0  0  0  0  0  0  0  0  0  0  0  0
  -29.3238  -18.0480   21.1978 C   0  0  0  0  0  0  0  0  0  0  0  0
  -28.5446  -20.3209   22.0548 C   0  0  0  0  0  0  0  0  0  0  0  0
  -17.2280  -30.7112   22.6004 C   0  0  0  0  0  0  0  0  0  0  0  0
  -22.2870  -26.4622   20.5963 C   0  0  0  0  0  0  0  0  0  0  0  0
  -18.3402  -29.9100   22.2709 C   0  0  0  0  0  0  0  0  0  0  0  0
  -23.2317  -26.0766   21.5581 C   0  0  0  0  0  0  0  0  0  0  0  0
  -29.8573  -15.3218   21.4542 C   0  0  0  0  0  0  0  0  0  0  0  0
  -24.9373  -27.3378   20.3707 C   0  0  0  0  0  0  0  0  0  0  0  0
  -29.6964  -13.1545   20.5603 C   0  0  0  0  0  0  0  0  0  0  0  0
  -28.8479  -11.4703   18.5045 C   0  0  0  0  0  0  0  0  0  0  0  0
  -28.7957  -12.1241   20.8298 C   0  0  0  0  0  0  0  0  0  0  0  0
  -29.0490  -19.4562   21.0650 C   0  0  0  0  0  0  0  0  0  0  0  0
  -30.1183  -28.5900   18.3791 C   0  0  0  0  0  0  0  0  0  0  0  0
  -28.5010  -29.8580   20.0831 C   0  0  0  0  0  0  0  0  0  0  0  0
  -28.0084  -28.9285   19.1937 C   0  0  0  0  0  0  0  0  0  0  0  0
  -28.4645  -21.5436   21.4342 C   0  0  0  0  0  0  0  0  0  0  0  0
  -28.1812  -20.0438   23.4138 C   0  0  0  0  0  0  0  0  0  0  0  0
  -20.2146  -26.7735   22.9863 C   0  0  0  0  0  0  0  0  0  0  0  0
  -21.0287  -23.6897   23.5775 C   0  0  0  0  0  0  0  0  0  0  0  0
  -23.3267  -21.1871   23.2559 C   0  0  0  0  0  0  0  0  0  0  0  0
  -30.7544  -25.4208   18.3001 C   0  0  0  0  0  0  0  0  0  0  0  0
  -16.4448  -30.4979   23.8717 C   0  0  0  0  0  0  0  0  0  0  0  0
  -20.8667  -25.9752   20.6855 C   0  0  0  0  0  0  0  0  0  0  0  0
  -22.8628  -25.1973   22.7240 C   0  0  0  0  0  0  0  0  0  0  0  0
  -17.2264  -29.7248   24.9289 C   0  0  0  0  0  0  0  0  0  0  0  0
  -28.9406  -22.7983   16.5554 C   0  0  0  0  0  0  0  0  0  0  0  0
  -17.8323  -28.4718   24.3145 C   0  0  0  0  0  0  0  0  0  0  0  0
  -28.7623  -21.7625   17.6676 C   0  0  0  0  0  0  0  0  0  0  0  0
  -30.5676  -27.7946   15.8622 C   0  0  0  0  0  0  0  0  0  0  0  0
  -30.2927  -23.4921   16.6713 C   0  0  0  0  0  0  0  0  0  0  0  0
  -30.8366  -26.2915   15.8204 C   0  0  0  0  0  0  0  0  0  0  0  0
  -30.3746  -23.1150   19.0942 C   0  0  0  0  0  0  0  0  0  0  0  0
  -18.8415  -28.8345   23.2177 C   0  0  1  0  0  0  0  0  0  0  0  0
  -31.0118  -27.7936   17.3382 C   0  0  2  0  0  0  0  0  0  0  0  0
  -20.4573  -25.5833   22.1019 C   0  0  1  0  0  0  0  0  0  0  0  0
  -29.0218  -22.3788   19.0554 C   0  0  2  0  0  0  0  0  0  0  0  0
  -27.6060  -30.5689   21.0398 C   0  0  0  0  0  0  0  0  0  0  0  0
  -24.2872  -18.8740   23.4105 C   0  0  0  0  0  0  0  0  0  0  0  0
  -21.6648  -24.5372   26.4388 C   0  0  0  0  0  0  0  0  0  0  0  0
  -22.9250  -22.3922   26.7200 C   0  0  0  0  0  0  0  0  0  0  0  0
  -20.4776  -22.3451   26.2396 C   0  0  0  0  0  0  0  0  0  0  0  0
  -22.2110  -20.4225   20.6235 C   0  0  0  0  0  0  0  0  0  0  0  0
  -26.5479  -28.5881   19.1463 C   0  0  0  0  0  0  0  0  0  1  0  0
  -22.0883  -23.0036   24.4054 C   0  0  1  0  0  0  0  0  0  0  0  0
  -23.1856  -19.7400   22.8196 C   0  0  2  0  0  0  0  0  0  0  0  0
  -21.7957  -23.0877   25.9301 C   0  0  0  0  0  0  0  0  0  0  0  0
  -29.8109  -30.1707   20.1360 N   0  0  0  0  0  0  0  0  0  0  0  0
  -29.2733  -20.0768   19.9037 N   0  0  0  0  0  0  0  0  0  0  0  0
  -28.8083  -28.2776   18.3260 N   0  0  0  0  0  0  0  0  0  0  0  0
  -28.9081  -21.3446   20.1599 N   0  0  0  0  0  0  0  0  0  0  0  0
  -21.4603  -24.7519   22.7706 N   0  0  0  0  0  0  0  0  0  0  0  0
  -30.4531  -24.0902   17.9995 N   0  0  0  0  0  0  0  0  0  0  0  0
  -30.8895  -26.3239   17.2706 N   0  0  0  0  0  0  0  0  0  0  0  0
  -28.0585  -22.7587   21.8596 N   0  0  0  0  0  0  0  0  0  0  0  0
  -28.3262  -18.7337   23.8903 N   0  0  0  0  0  0  0  0  0  0  0  0
  -19.2348  -27.6297   22.5210 N   0  0  0  0  0  0  0  0  0  0  0  0
  -22.1905  -21.6422   23.8908 N   0  0  0  0  0  0  0  0  0  0  0  0
  -23.2530  -19.6378   21.3344 N   0  3  0  0  0  0  0  0  0  0  0  0
  -27.7254  -20.9280   24.1779 O   0  0  0  0  0  0  0  0  0  0  0  0
  -20.8668  -26.9046   24.0154 O   0  0  0  0  0  0  0  0  0  0  0  0
  -19.8623  -23.2929   23.6388 O   0  0  0  0  0  0  0  0  0  0  0  0
  -24.3445  -21.8466   23.0568 O   0  0  0  0  0  0  0  0  0  0  0  0
  -30.8634  -25.8019   19.4741 O   0  0  0  0  0  0  0  0  0  0  0  0
  -30.1179  -13.9918   21.5796 O   0  0  0  0  0  0  0  0  0  0  0  0
  -26.2251  -27.7652   20.2666 O   0  0  0  0  0  0  0  0  0  1  0  0
  -28.4394  -10.6627   17.5171 F   0  0  0  0  0  0  0  0  0  0  0  0
  -28.3336  -11.9389   22.0740 F   0  0  0  0  0  0  0  0  0  0  0  0
  1  2  1  0  0  0  0
  1  5  2  0  0  0  0
  2  6  2  0  0  0  0
  3  8  2  0  0  0  0
  3 16  1  0  0  0  0
  4  9  1  0  0  0  0
  4 16  2  0  0  0  0
  5 18  1  0  0  0  0
  6 20  1  0  0  0  0
  7 10  2  0  0  0  0
  7 19  1  0  0  0  0
  8 22  1  0  0  0  0
  9 22  2  0  0  0  0
 10 23  1  0  0  0  0
 11 12  2  0  0  0  0
 11 24  1  0  0  0  0
 12 25  1  0  0  0  0
 13 21  1  0  0  0  0
 13 23  2  0  0  0  0
 14 25  2  0  0  0  0
 14 26  1  0  0  0  0
 15 28  1  0  0  0  0
 15 62  2  0  0  0  0
 16 27  1  0  0  0  0
 17 27  1  0  0  0  0
 17 31  2  0  0  0  0
 17 32  1  0  0  0  0
 18 20  2  0  0  0  0
 18 37  1  0  0  0  0
 19 21  2  0  0  0  0
 19 38  1  0  0  0  0
 20 48  1  0  0  0  0
 21 39  1  0  0  0  0
 22 79  1  0  0  0  0
 23 80  1  0  0  0  0
 24 26  2  0  0  0  0
 24 79  1  0  0  0  0
 25 81  1  0  0  0  0
 26 82  1  0  0  0  0
 27 63  2  0  0  0  0
 28 49  1  0  0  0  0
 28 64  2  0  0  0  0
 29 30  2  0  0  0  0
 29 52  1  0  0  0  0
 29 62  1  0  0  0  0
 30 58  1  0  0  0  0
 30 64  1  0  0  0  0
 31 65  1  0  0  0  0
 31 69  1  0  0  0  0
 32 70  1  0  0  0  0
 32 74  2  0  0  0  0
 33 50  1  0  0  0  0
 33 71  1  0  0  0  0
 33 75  2  0  0  0  0
 34 59  1  0  0  0  0
 34 66  1  0  0  0  0
 34 76  2  0  0  0  0
 35 60  1  0  0  0  0
 35 72  1  0  0  0  0
 35 77  2  0  0  0  0
 36 67  1  0  0  0  0
 36 68  1  0  0  0  0
 36 78  2  0  0  0  0
 37 40  1  0  0  0  0
 38 50  1  0  0  0  0
 39 66  1  0  0  0  0
 40 42  1  0  0  0  0
 41 43  1  0  0  0  0
 41 45  1  0  0  0  0
 42 48  1  0  0  0  0
 43 51  1  0  0  0  0
 44 46  1  0  0  0  0
 44 49  1  0  0  0  0
 45 67  1  0  0  0  0
 46 68  1  0  0  0  0
 47 51  1  0  0  0  0
 47 67  1  0  0  0  0
 48 71  1  0  0  0  0
 49 68  1  0  0  0  0
 50 66  1  0  0  0  0
 51 65  1  0  0  0  0
 53 60  1  0  0  0  0
 54 61  1  0  0  0  0
 55 61  1  0  0  0  0
 56 61  1  0  0  0  0
 57 73  1  0  0  0  0
 58 80  1  0  0  0  0
 59 61  1  0  0  0  0
 59 72  1  0  0  0  0
 60 73  1  0  0  0  0
 63 65  1  0  0  0  0
M  CHG  1  73   1
M  ISO  4  36 100  58 101  68 100  80 101
M  END
> <Batch ID>
0182

> <Smiles>
CNC(C)C(=O)NC(C(=O)N1Cc2cc([101O:1][101CH2:1]c3nc(C4CC[100N:0]4[100C:0](=O)N4CCCC(n5nc(-c6ccc(Oc7ccc(F)cc7F)cc6)c(C(N)=O)c5N)C4)cnc3C)ccc2CC1C(=O)NC1CCCc2ccccc21)C(C)(C)C

> <Shape>
0.234

> <Color>
0.063

> <Negative vol penalty>
0.000

$$$$

  -OEChem-04052323053D

 80 88  0     1  0  0  0  0  0999 V2000
  -28.4738  -11.3886   19.2131 C   0  0  0  0  0  0  0  0  0  0  0  0
  -27.5966  -12.1109   20.0158 C   0  0  0  0  0  0  0  0  0  0  0  0
  -24.2807  -30.7544   20.0537 C   0  0  0  0  0  0  0  0  0  0  0  0
  -24.8955  -29.1802   21.7802 C   0  0  0  0  0  0  0  0  0  0  0  0
  -29.7446  -11.8937   18.9411 C   0  0  0  0  0  0  0  0  0  0  0  0
  -27.9902  -13.3383   20.5478 C   0  0  0  0  0  0  0  0  0  0  0  0
  -24.4034  -16.8860   20.1078 C   0  0  0  0  0  0  0  0  0  0  0  0
  -25.3842  -31.5428   20.3795 C   0  0  0  0  0  0  0  0  0  0  0  0
  -25.9991  -29.9686   22.1061 C   0  0  0  0  0  0  0  0  0  0  0  0
  -23.3467  -16.8392   21.0161 C   0  0  0  0  0  0  0  0  0  0  0  0
  -28.7754  -31.7491   23.6331 C   0  0  0  0  0  0  0  0  0  0  0  0
  -29.0260  -31.9868   24.9845 C   0  0  0  0  0  0  0  0  0  0  0  0
  -24.3926  -18.5834   22.3134 C   0  0  0  0  0  0  0  0  0  0  0  0
  -26.8618  -33.0388   25.2008 C   0  0  0  0  0  0  0  0  0  0  0  0
  -24.0363  -29.5730   20.7540 C   0  0  0  0  0  0  0  0  0  0  0  0
  -22.6207  -28.1516   19.1783 C   0  0  0  0  0  0  0  0  0  0  0  0
  -30.1504  -13.1324   19.4622 C   0  0  0  0  0  0  0  0  0  0  0  0
  -25.4698  -17.7757   20.3017 C   0  0  0  0  0  0  0  0  0  0  0  0
  -29.2680  -13.8598   20.2836 C   0  0  0  0  0  0  0  0  0  0  0  0
  -25.4603  -18.6413   21.4048 C   0  0  0  0  0  0  0  0  0  0  0  0
  -26.2434  -31.1500   21.4057 C   0  0  0  0  0  0  0  0  0  0  0  0
  -23.3426  -17.6860   22.1207 C   0  0  0  0  0  0  0  0  0  0  0  0
  -27.5680  -32.1563   23.0655 C   0  0  0  0  0  0  0  0  0  0  0  0
  -28.0692  -32.6316   25.7684 C   0  0  0  0  0  0  0  0  0  0  0  0
  -26.6113  -32.8012   23.8493 C   0  0  0  0  0  0  0  0  0  0  0  0
  -22.8963  -28.7584   20.4183 C   0  0  0  0  0  0  0  0  0  0  0  0
  -21.4307  -27.4945   19.3745 C   0  0  0  0  0  0  0  0  0  0  0  0
  -23.3733  -28.1792   17.9582 C   0  0  0  0  0  0  0  0  0  0  0  0
  -28.5968  -17.4597   20.7766 C   0  0  0  0  0  0  0  0  0  0  0  0
  -28.5666  -20.6939   20.5293 C   0  0  0  0  0  0  0  0  0  0  0  0
  -26.8026  -23.6034   20.7935 C   0  0  0  0  0  0  0  0  0  0  0  0
  -18.5743  -24.5438   23.4548 C   0  0  0  0  0  0  0  0  0  0  0  0
  -31.5509  -13.6153   19.1793 C   0  0  0  0  0  0  0  0  0  0  0  0
  -26.5889  -17.8326   19.2984 C   0  0  0  0  0  0  0  0  0  0  0  0
  -26.5713  -19.6289   21.6473 C   0  0  0  0  0  0  0  0  0  0  0  0
  -31.7549  -15.0990   19.4747 C   0  0  0  0  0  0  0  0  0  0  0  0
  -17.7216  -27.8978   22.6183 C   0  0  0  0  0  0  0  0  0  0  0  0
  -31.1615  -15.4594   20.8329 C   0  0  0  0  0  0  0  0  0  0  0  0
  -18.9434  -28.4053   21.8504 C   0  0  0  0  0  0  0  0  0  0  0  0
  -19.7293  -21.4038   21.8710 C   0  0  0  0  0  0  0  0  0  0  0  0
  -19.7257  -21.6143   24.3722 C   0  0  0  0  0  0  0  0  0  0  0  0
  -18.1195  -26.9601   23.7560 C   0  0  0  0  0  0  0  0  0  0  0  0
  -20.1971  -26.3354   22.5870 C   0  0  0  0  0  0  0  0  0  0  0  0
  -19.4798  -19.9097   22.0009 C   0  0  0  0  0  0  0  0  0  0  0  0
  -29.6492  -15.2066   20.8589 C   0  0  1  0  0  0  0  0  0  0  0  0
  -27.8759  -18.4180   19.8713 C   0  0  1  0  0  0  0  0  0  0  0  0
  -19.8428  -27.2405   21.3947 C   0  0  2  0  0  0  0  0  0  0  0  0
  -19.1615  -22.1664   23.0642 C   0  0  1  0  0  0  0  0  0  0  0  0
  -19.4866  -20.1045   24.5162 C   0  0  2  0  0  0  0  0  0  0  0  0
  -20.1398  -19.5977   25.8007 C   0  0  0  0  0  0  0  0  0  0  0  0
  -27.0580  -26.0895   20.5662 C   0  0  0  0  0  0  0  0  0  0  0  0
  -30.0183  -20.7876   23.2114 C   0  0  0  0  0  0  0  0  0  0  0  0
  -29.4035  -23.2087   23.3806 C   0  0  0  0  0  0  0  0  0  0  0  0
  -30.8576  -22.4205   21.5133 C   0  0  0  0  0  0  0  0  0  0  0  0
  -24.7880  -23.7292   18.6292 C   0  0  0  0  0  0  0  0  0  0  0  0
  -19.9460  -17.8908   23.3543 C   0  0  0  0  0  0  0  0  0  0  0  0
  -21.0330  -17.2663   22.5019 C   0  0  0  0  0  0  0  0  0  1  0  0
  -28.3973  -21.8387   21.4987 C   0  0  1  0  0  0  0  0  0  0  0  0
  -26.6807  -24.7956   19.8617 C   0  0  2  0  0  0  0  0  0  0  0  0
  -29.6491  -22.0440   22.3977 C   0  0  0  0  0  0  0  0  0  0  0  0
  -21.9568  -28.5092   21.3344 N   0  0  0  0  0  0  0  0  0  0  0  0
  -21.0792  -27.7386   20.6695 N   0  0  0  0  0  0  0  0  0  0  0  0
  -27.6462  -19.6422   20.6414 N   0  0  0  0  0  0  0  0  0  0  0  0
  -18.9700  -25.8769   23.2568 N   0  0  0  0  0  0  0  0  0  0  0  0
  -20.6610  -26.7376   18.5638 N   0  0  0  0  0  0  0  0  0  0  0  0
  -23.1095  -29.1988   17.0334 N   0  0  0  0  0  0  0  0  0  0  0  0
  -28.9474  -16.2685   20.1703 N   0  0  0  0  0  0  0  0  0  0  0  0
  -28.0404  -23.0037   20.6962 N   0  0  0  0  0  0  0  0  0  0  0  0
  -19.4345  -23.5790   22.9449 N   0  0  0  0  0  0  0  0  0  0  0  0
  -20.0708  -19.3945   23.2979 N   0  3  1  0  0  0  0  0  0  0  0  0
  -25.2820  -24.9225   19.3632 N   0  3  0  0  0  0  0  0  0  0  0  0
  -24.2421  -27.3155   17.6885 O   0  0  0  0  0  0  0  0  0  0  0  0
  -28.8198  -17.7780   21.9388 O   0  0  0  0  0  0  0  0  0  0  0  0
  -29.4774  -20.7348   19.6983 O   0  0  0  0  0  0  0  0  0  0  0  0
  -25.8923  -23.2427   21.5363 O   0  0  0  0  0  0  0  0  0  0  0  0
  -17.5291  -24.2362   24.0378 O   0  0  0  0  0  0  0  0  0  0  0  0
  -27.3204  -31.9190   21.7238 O   0  0  0  0  0  0  0  0  0  0  0  0
  -22.3128  -17.6419   23.0092 O   0  0  0  0  0  0  0  0  0  1  0  0
  -28.3094  -32.8584   27.0665 F   0  0  0  0  0  0  0  0  0  0  0  0
  -25.4490  -33.1936   23.3099 F   0  0  0  0  0  0  0  0  0  0  0  0
  1  2  1  0  0  0  0
  1  5  2  0  0  0  0
  2  6  2  0  0  0  0
  3  8  2  0  0  0  0
  3 15  1  0  0  0  0
  4  9  1  0  0  0  0
  4 15  2  0  0  0  0
  5 17  1  0  0  0  0
  6 19  1  0  0  0  0
  7 10  2  0  0  0  0
  7 18  1  0  0  0  0
  8 21  1  0  0  0  0
  9 21  2  0  0  0  0
 10 22  1  0  0  0  0
 11 12  2  0  0  0  0
 11 23  1  0  0  0  0
 12 24  1  0  0  0  0
 13 20  1  0  0  0  0
 13 22  2  0  0  0  0
 14 24  2  0  0  0  0
 14 25  1  0  0  0  0
 15 26  1  0  0  0  0
 16 26  1  0  0  0  0
 16 27  2  0  0  0  0
 16 28  1  0  0  0  0
 17 19  2  0  0  0  0
 17 33  1  0  0  0  0
 18 20  2  0  0  0  0
 18 34  1  0  0  0  0
 19 45  1  0  0  0  0
 20 35  1  0  0  0  0
 21 77  1  0  0  0  0
 22 78  1  0  0  0  0
 23 25  2  0  0  0  0
 23 77  1  0  0  0  0
 24 79  1  0  0  0  0
 25 80  1  0  0  0  0
 26 61  2  0  0  0  0
 27 62  1  0  0  0  0
 27 65  1  0  0  0  0
 28 66  1  0  0  0  0
 28 72  2  0  0  0  0
 29 46  1  0  0  0  0
 29 67  1  0  0  0  0
 29 73  2  0  0  0  0
 30 58  1  0  0  0  0
 30 63  1  0  0  0  0
 30 74  2  0  0  0  0
 31 59  1  0  0  0  0
 31 68  1  0  0  0  0
 31 75  2  0  0  0  0
 32 64  1  0  0  0  0
 32 69  1  0  0  0  0
 32 76  2  0  0  0  0
 33 36  1  0  0  0  0
 34 46  1  0  0  0  0
 35 63  1  0  0  0  0
 36 38  1  0  0  0  0
 37 39  1  0  0  0  0
 37 42  1  0  0  0  0
 38 45  1  0  0  0  0
 39 47  1  0  0  0  0
 40 44  1  0  0  0  0
 40 48  1  0  0  0  0
 41 48  1  0  0  0  0
 41 49  1  0  0  0  0
 42 64  1  0  0  0  0
 43 47  1  0  0  0  0
 43 64  1  0  0  0  0
 44 70  1  0  0  0  0
 45 67  1  0  0  0  0
 46 63  1  0  0  0  0
 47 62  1  0  0  0  0
 48 69  1  0  0  0  0
 49 50  1  0  0  0  0
 49 70  1  0  0  0  0
 51 59  1  0  0  0  0
 52 60  1  0  0  0  0
 53 60  1  0  0  0  0
 54 60  1  0  0  0  0
 55 71  1  0  0  0  0
 56 57  1  0  0  0  0
 56 70  1  0  0  0  0
 57 78  1  0  0  0  0
 58 60  1  0  0  0  0
 58 68  1  0  0  0  0
 59 71  1  0  0  0  0
 61 62  1  0  0  0  0
M  CHG  2  70   1  71   1
M  ISO  4  32 100  57 101  69 100  78 101
M  END
> <Batch ID>
0182

> <Smiles>
CNC(C)C(=O)NC(C(=O)N1Cc2cc([101O:1][101CH2:1]CN3CCC([100NH:0][100C:0](=O)N4CCCC(n5nc(-c6ccc(Oc7ccc(F)cc7F)cc6)c(C(N)=O)c5N)C4)CC3C)ccc2CC1C(=O)NC1CCCc2ccccc21)C(C)(C)C

> <Shape>
0.240

> <Color>
0.061

> <Negative vol penalty>
0.000

$$$$

  -OEChem-04052323053D

 80 89  0     1  0  0  0  0  0999 V2000
  -30.1484  -35.5723   22.1752 C   0  0  0  0  0  0  0  0  0  0  0  0
  -30.4783  -34.4251   21.4606 C   0  0  0  0  0  0  0  0  0  0  0  0
  -24.6010   -8.7065   21.4501 C   0  0  0  0  0  0  0  0  0  0  0  0
  -22.8128  -10.3020   21.1437 C   0  0  0  0  0  0  0  0  0  0  0  0
  -29.2490  -35.4958   23.2377 C   0  0  0  0  0  0  0  0  0  0  0  0
  -29.9097  -33.2004   21.8090 C   0  0  0  0  0  0  0  0  0  0  0  0
  -27.6959  -27.0425   18.8944 C   0  0  0  0  0  0  0  0  0  0  0  0
  -23.8401   -8.0378   22.4090 C   0  0  0  0  0  0  0  0  0  0  0  0
  -22.0519   -9.6333   22.1026 C   0  0  0  0  0  0  0  0  0  0  0  0
  -27.8576  -25.6649   19.0349 C   0  0  0  0  0  0  0  0  0  0  0  0
  -22.2253   -5.7001   24.6768 C   0  0  0  0  0  0  0  0  0  0  0  0
  -22.1757   -4.3078   24.6099 C   0  0  0  0  0  0  0  0  0  0  0  0
  -26.2555  -25.6668   20.8383 C   0  0  0  0  0  0  0  0  0  0  0  0
  -28.8789  -21.0495   20.6635 C   0  0  0  0  0  0  0  0  0  0  0  0
  -21.2199   -4.4483   22.3954 C   0  0  0  0  0  0  0  0  0  0  0  0
  -27.5682  -19.4028   18.8704 C   0  0  0  0  0  0  0  0  0  0  0  0
  -24.0874   -9.8386   20.8175 C   0  0  0  0  0  0  0  0  0  0  0  0
  -24.8960  -10.2896   18.4404 C   0  0  0  0  0  0  0  0  0  0  0  0
  -28.6617  -34.2713   23.5931 C   0  0  0  0  0  0  0  0  0  0  0  0
  -26.8193  -27.7455   19.7334 C   0  0  0  0  0  0  0  0  0  0  0  0
  -29.0026  -33.1072   22.8782 C   0  0  0  0  0  0  0  0  0  0  0  0
  -26.0825  -27.0529   20.7047 C   0  0  0  0  0  0  0  0  0  0  0  0
  -28.8547  -19.6824   20.8580 C   0  0  0  0  0  0  0  0  0  0  0  0
  -28.1963  -18.8470   19.9628 C   0  0  0  0  0  0  0  0  0  0  0  0
  -22.5655   -8.5012   22.7353 C   0  0  0  0  0  0  0  0  0  0  0  0
  -27.1396  -24.9772   20.0089 C   0  0  0  0  0  0  0  0  0  0  0  0
  -21.7721   -6.4666   23.6031 C   0  0  0  0  0  0  0  0  0  0  0  0
  -21.6730   -3.6818   23.4692 C   0  0  0  0  0  0  0  0  0  0  0  0
  -21.2694   -5.8406   22.4624 C   0  0  0  0  0  0  0  0  0  0  0  0
  -24.8732  -10.5301   19.8273 C   0  0  0  0  0  0  0  0  0  0  0  0
  -28.2244  -21.5211   19.5359 C   0  0  0  0  0  0  0  0  0  0  0  0
  -25.7950  -11.2039   17.9481 C   0  0  0  0  0  0  0  0  0  0  0  0
  -24.1694   -9.3260   17.6664 C   0  0  0  0  0  0  0  0  0  0  0  0
  -27.1452  -30.0763   21.8699 C   0  0  0  0  0  0  0  0  0  0  0  0
  -23.9042  -29.9509   21.9234 C   0  0  0  0  0  0  0  0  0  0  0  0
  -21.0659  -28.1343   21.3847 C   0  0  0  0  0  0  0  0  0  0  0  0
  -27.5102  -16.4650   19.8706 C   0  0  0  0  0  0  0  0  0  0  0  0
  -27.7310  -34.2297   24.7792 C   0  0  0  0  0  0  0  0  0  0  0  0
  -26.6361  -29.2273   19.5513 C   0  0  0  0  0  0  0  0  0  0  0  0
  -29.4121  -18.9110   22.0097 C   0  0  0  0  0  0  0  0  0  0  0  0
  -25.1135  -27.7579   21.6171 C   0  0  0  0  0  0  0  0  0  0  0  0
  -26.8860  -32.9601   24.8462 C   0  0  0  0  0  0  0  0  0  0  0  0
  -29.6792  -13.6860   19.1646 C   0  0  0  0  0  0  0  0  0  0  0  0
  -27.7531  -31.7284   24.6054 C   0  0  0  0  0  0  0  0  0  0  0  0
  -28.6894  -12.5246   19.1659 C   0  0  0  0  0  0  0  0  0  0  0  0
  -29.2140  -17.4627   21.5382 C   0  0  0  0  0  0  0  0  0  0  0  0
  -29.3397  -14.7434   20.2173 C   0  0  0  0  0  0  0  0  0  0  0  0
  -26.9530  -14.0671   20.1363 C   0  0  0  0  0  0  0  0  0  0  0  0
  -28.3878  -31.7648   23.2100 C   0  0  1  0  0  0  0  0  0  0  0  0
  -26.1014  -29.9211   20.8003 C   0  0  1  0  0  0  0  0  0  0  0  0
  -27.2482  -13.0419   19.0329 C   0  0  2  0  0  0  0  0  0  0  0  0
  -18.5668  -28.2882   21.5534 C   0  0  0  0  0  0  0  0  0  0  0  0
  -24.0914  -29.6301   24.9519 C   0  0  0  0  0  0  0  0  0  0  0  0
  -21.7126  -28.8493   24.9462 C   0  0  0  0  0  0  0  0  0  0  0  0
  -22.2682  -31.1556   24.1751 C   0  0  0  0  0  0  0  0  0  0  0  0
  -20.7259  -27.6840   18.4795 C   0  0  0  0  0  0  0  0  0  0  0  0
  -28.2118  -22.9892   19.2647 C   0  0  0  0  0  0  0  0  0  1  0  0
  -22.8771  -29.1813   22.7180 C   0  0  1  0  0  0  0  0  0  0  0  0
  -19.7788  -28.4698   20.6530 C   0  0  2  0  0  0  0  0  0  0  0  0
  -22.7569  -29.6908   24.1821 C   0  0  0  0  0  0  0  0  0  0  0  0
  -27.5716  -20.7368   18.6374 N   0  0  0  0  0  0  0  0  0  0  0  0
  -25.6927  -11.5195   20.1926 N   0  0  0  0  0  0  0  0  0  0  0  0
  -26.2390  -11.9088   19.0280 N   0  0  0  0  0  0  0  0  0  0  0  0
  -28.3071  -17.4998   20.3631 N   0  0  0  0  0  0  0  0  0  0  0  0
  -24.9740  -29.2080   21.4042 N   0  0  0  0  0  0  0  0  0  0  0  0
  -27.9346  -15.1550   20.1363 N   0  0  0  0  0  0  0  0  0  0  0  0
  -26.2411  -11.4656   16.7012 N   0  0  0  0  0  0  0  0  0  0  0  0
  -23.2869   -8.4635   18.3309 N   0  0  0  0  0  0  0  0  0  0  0  0
  -27.4179  -31.3892   22.2037 N   0  0  0  0  0  0  0  0  0  0  0  0
  -21.6347  -29.2526   21.9567 N   0  0  0  0  0  0  0  0  0  0  0  0
  -19.6155  -27.5892   19.4618 N   0  3  0  0  0  0  0  0  0  0  0  0
  -24.3111   -9.2216   16.4244 O   0  0  0  0  0  0  0  0  0  0  0  0
  -27.6637  -29.0787   22.3574 O   0  0  0  0  0  0  0  0  0  0  0  0
  -23.7589  -31.1653   21.7629 O   0  0  0  0  0  0  0  0  0  0  0  0
  -21.5192  -26.9935   21.4462 O   0  0  0  0  0  0  0  0  0  0  0  0
  -26.4397  -16.6750   19.2868 O   0  0  0  0  0  0  0  0  0  0  0  0
  -21.8226   -7.8488   23.6707 O   0  0  0  0  0  0  0  0  0  0  0  0
  -27.2972  -23.6232   20.1496 O   0  0  0  0  0  0  0  0  0  1  0  0
  -21.6269   -2.3447   23.4045 F   0  0  0  0  0  0  0  0  0  0  0  0
  -20.8337   -6.5716   21.4272 F   0  0  0  0  0  0  0  0  0  0  0  0
  1  2  1  0  0  0  0
  1  5  2  0  0  0  0
  2  6  2  0  0  0  0
  3  8  2  0  0  0  0
  3 17  1  0  0  0  0
  4  9  1  0  0  0  0
  4 17  2  0  0  0  0
  5 19  1  0  0  0  0
  6 21  1  0  0  0  0
  7 10  2  0  0  0  0
  7 20  1  0  0  0  0
  8 25  1  0  0  0  0
  9 25  2  0  0  0  0
 10 26  1  0  0  0  0
 11 12  2  0  0  0  0
 11 27  1  0  0  0  0
 12 28  1  0  0  0  0
 13 22  1  0  0  0  0
 13 26  2  0  0  0  0
 14 23  2  0  0  0  0
 14 31  1  0  0  0  0
 15 28  2  0  0  0  0
 15 29  1  0  0  0  0
 16 24  2  0  0  0  0
 16 61  1  0  0  0  0
 17 30  1  0  0  0  0
 18 30  1  0  0  0  0
 18 32  2  0  0  0  0
 18 33  1  0  0  0  0
 19 21  2  0  0  0  0
 19 38  1  0  0  0  0
 20 22  2  0  0  0  0
 20 39  1  0  0  0  0
 21 49  1  0  0  0  0
 22 41  1  0  0  0  0
 23 24  1  0  0  0  0
 23 40  1  0  0  0  0
 24 64  1  0  0  0  0
 25 77  1  0  0  0  0
 26 78  1  0  0  0  0
 27 29  2  0  0  0  0
 27 77  1  0  0  0  0
 28 79  1  0  0  0  0
 29 80  1  0  0  0  0
 30 62  2  0  0  0  0
 31 57  1  0  0  0  0
 31 61  2  0  0  0  0
 32 63  1  0  0  0  0
 32 67  1  0  0  0  0
 33 68  1  0  0  0  0
 33 72  2  0  0  0  0
 34 50  1  0  0  0  0
 34 69  1  0  0  0  0
 34 73  2  0  0  0  0
 35 58  1  0  0  0  0
 35 65  1  0  0  0  0
 35 74  2  0  0  0  0
 36 59  1  0  0  0  0
 36 70  1  0  0  0  0
 36 75  2  0  0  0  0
 37 64  1  0  0  0  0
 37 66  1  0  0  0  0
 37 76  2  0  0  0  0
 38 42  1  0  0  0  0
 39 50  1  0  0  0  0
 40 46  1  0  0  0  0
 41 65  1  0  0  0  0
 42 44  1  0  0  0  0
 43 45  1  0  0  0  0
 43 47  1  0  0  0  0
 44 49  1  0  0  0  0
 45 51  1  0  0  0  0
 46 64  1  0  0  0  0
 47 66  1  0  0  0  0
 48 51  1  0  0  0  0
 48 66  1  0  0  0  0
 49 69  1  0  0  0  0
 50 65  1  0  0  0  0
 51 63  1  0  0  0  0
 52 59  1  0  0  0  0
 53 60  1  0  0  0  0
 54 60  1  0  0  0  0
 55 60  1  0  0  0  0
 56 71  1  0  0  0  0
 57 78  1  0  0  0  0
 58 60  1  0  0  0  0
 58 70  1  0  0  0  0
 59 71  1  0  0  0  0
 62 63  1  0  0  0  0
M  CHG  1  71   1
M  ISO  4  37 100  57 101  64 100  78 101
M  END
> <Batch ID>
0182

> <Smiles>
CNC(C)C(=O)NC(C(=O)N1Cc2cc([101O:1][101CH2:1]c3cc4c(cn3)[100N:0]([100C:0](=O)N3CCCC(n5nc(-c6ccc(Oc7ccc(F)cc7F)cc6)c(C(N)=O)c5N)C3)CC4)ccc2CC1C(=O)NC1CCCc2ccccc21)C(C)(C)C

> <Shape>
0.297

> <Color>
0.083

> <Negative vol penalty>
0.000

$$$$

  -OEChem-04052323053D

 82 91  0     1  0  0  0  0  0999 V2000
  -25.9673  -28.6450    9.3203 C   0  0  0  0  0  0  0  0  0  0  0  0
  -26.4743  -27.5834   10.0629 C   0  0  0  0  0  0  0  0  0  0  0  0
  -23.0473   -9.8936   19.9320 C   0  0  0  0  0  0  0  0  0  0  0  0
  -23.8360   -9.8623   22.2154 C   0  0  0  0  0  0  0  0  0  0  0  0
  -25.5561  -29.8112    9.9643 C   0  0  0  0  0  0  0  0  0  0  0  0
  -26.5713  -27.6879   11.4501 C   0  0  0  0  0  0  0  0  0  0  0  0
  -25.8054  -23.1969   15.5428 C   0  0  0  0  0  0  0  0  0  0  0  0
  -22.2993   -8.7415   20.1745 C   0  0  0  0  0  0  0  0  0  0  0  0
  -23.0880   -8.7102   22.4580 C   0  0  0  0  0  0  0  0  0  0  0  0
  -26.7109  -22.3904   16.2308 C   0  0  0  0  0  0  0  0  0  0  0  0
  -19.8627   -7.9235   23.0897 C   0  0  0  0  0  0  0  0  0  0  0  0
  -19.1203   -7.8710   24.2694 C   0  0  0  0  0  0  0  0  0  0  0  0
  -26.5969  -23.8852   18.1208 C   0  0  0  0  0  0  0  0  0  0  0  0
  -20.3586   -5.9154   24.9617 C   0  0  0  0  0  0  0  0  0  0  0  0
  -29.2185  -19.5760   20.1254 C   0  0  0  0  0  0  0  0  0  0  0  0
  -23.8157  -10.4540   20.9524 C   0  0  0  0  0  0  0  0  0  0  0  0
  -24.1719  -12.9784   20.8649 C   0  0  0  0  0  0  0  0  0  0  0  0
  -25.6391  -29.9263   11.3609 C   0  0  0  0  0  0  0  0  0  0  0  0
  -25.2964  -24.3615   16.1354 C   0  0  0  0  0  0  0  0  0  0  0  0
  -26.1620  -28.8572   12.1132 C   0  0  0  0  0  0  0  0  0  0  0  0
  -25.6832  -24.7034   17.4391 C   0  0  0  0  0  0  0  0  0  0  0  0
  -30.1865  -19.9677   19.2382 C   0  0  0  0  0  0  0  0  0  0  0  0
  -22.3197   -8.1498   21.4375 C   0  0  0  0  0  0  0  0  0  0  0  0
  -27.1090  -22.7360   17.5189 C   0  0  0  0  0  0  0  0  0  0  0  0
  -20.8530   -6.9718   22.8460 C   0  0  0  0  0  0  0  0  0  0  0  0
  -19.3683   -6.8671   25.2054 C   0  0  0  0  0  0  0  0  0  0  0  0
  -21.1010   -5.9678   23.7820 C   0  0  0  0  0  0  0  0  0  0  0  0
  -24.5890  -11.6437   20.7024 C   0  0  0  0  0  0  0  0  0  0  0  0
  -31.3866  -19.2770   19.2864 C   0  0  0  0  0  0  0  0  0  0  0  0
  -25.2642  -13.7264   20.4988 C   0  0  0  0  0  0  0  0  0  0  0  0
  -30.6261  -17.9623   20.9419 C   0  0  0  0  0  0  0  0  0  0  0  0
  -22.9101  -13.4959   21.3074 C   0  0  0  0  0  0  0  0  0  0  0  0
  -25.4208  -27.4637   15.4541 C   0  0  0  0  0  0  0  0  0  0  0  0
  -23.3552  -27.6957   17.9445 C   0  0  0  0  0  0  0  0  0  0  0  0
  -22.1324  -26.3444   20.8299 C   0  0  0  0  0  0  0  0  0  0  0  0
  -30.7562  -14.7089   20.6324 C   0  0  0  0  0  0  0  0  0  0  0  0
  -25.2264  -31.2246   12.0081 C   0  0  0  0  0  0  0  0  0  0  0  0
  -24.2999  -25.2064   15.3902 C   0  0  0  0  0  0  0  0  0  0  0  0
  -25.1504  -25.9324   18.1278 C   0  0  0  0  0  0  0  0  0  0  0  0
  -32.3648  -19.8396   18.2954 C   0  0  0  0  0  0  0  0  0  0  0  0
  -25.0130  -31.1130   13.5155 C   0  0  0  0  0  0  0  0  0  0  0  0
  -31.4157  -20.6003   17.3559 C   0  0  0  0  0  0  0  0  0  0  0  0
  -29.5736  -12.3666   18.2258 C   0  0  0  0  0  0  0  0  0  0  0  0
  -26.1673  -30.3549   14.1633 C   0  0  0  0  0  0  0  0  0  0  0  0
  -28.1398  -12.0754   18.6726 C   0  0  0  0  0  0  0  0  0  0  0  0
  -30.5071  -12.5642   19.4180 C   0  0  0  0  0  0  0  0  0  0  0  0
  -28.6276  -13.2866   20.8391 C   0  0  0  0  0  0  0  0  0  0  0  0
  -30.2226  -21.0626   18.2228 C   0  0  1  0  0  0  0  0  0  0  0  0
  -26.2599  -28.9231   13.6219 C   0  0  1  0  0  0  0  0  0  0  0  0
  -24.2405  -26.6450   15.8946 C   0  0  1  0  0  0  0  0  0  0  0  0
  -27.6376  -13.1352   19.6715 C   0  0  2  0  0  0  0  0  0  0  0  0
  -20.4756  -26.7828   22.6629 C   0  0  0  0  0  0  0  0  0  0  0  0
  -25.2517  -29.7517   19.1636 C   0  0  0  0  0  0  0  0  0  0  0  0
  -24.0735  -29.4388   21.3504 C   0  0  0  0  0  0  0  0  0  0  0  0
  -22.8246  -30.3157   19.3771 C   0  0  0  0  0  0  0  0  0  0  0  0
  -20.6042  -23.8911   20.1936 C   0  0  0  0  0  0  0  0  0  0  0  0
  -30.8512  -16.8406   21.8996 C   0  0  0  0  0  0  0  0  0  0  0  0
  -28.9472  -21.2308   17.4129 C   0  0  0  0  0  0  0  0  0  1  0  0
  -23.4956  -27.8788   19.4364 C   0  0  1  0  0  0  0  0  0  0  0  0
  -20.7112  -26.1208   21.3142 C   0  0  2  0  0  0  0  0  0  0  0  0
  -23.9230  -29.3241   19.8184 C   0  0  0  0  0  0  0  0  0  0  0  0
  -29.4107  -18.5602   20.9953 N   0  0  0  0  0  0  0  0  0  0  0  0
  -25.8478  -11.5463   20.2667 N   0  0  0  0  0  0  0  0  0  0  0  0
  -31.6559  -18.2669   20.1252 N   0  0  0  0  0  0  0  0  0  0  0  0
  -26.2312  -12.8292   20.1523 N   0  0  0  0  0  0  0  0  0  0  0  0
  -24.1833  -26.7297   17.3554 N   0  0  0  0  0  0  0  0  0  0  0  0
  -29.9743  -13.5830   20.3258 N   0  0  0  0  0  0  0  0  0  0  0  0
  -25.4821  -15.0575   20.4425 N   0  0  0  0  0  0  0  0  0  0  0  0
  -21.8968  -12.5881   21.6442 N   0  0  0  0  0  0  0  0  0  0  0  0
  -25.2495  -28.0857   14.2322 N   0  0  0  0  0  0  0  0  0  0  0  0
  -22.2271  -27.4567   20.0205 N   0  0  0  0  0  0  0  0  0  0  0  0
  -30.1736  -15.6289   21.4954 N   0  0  0  0  0  0  0  0  0  0  0  0
  -20.4341  -24.6629   21.4515 N   0  3  0  0  0  0  0  0  0  0  0  0
  -22.6824  -14.7269   21.3856 O   0  0  0  0  0  0  0  0  0  0  0  0
  -26.4130  -27.5277   16.1706 O   0  0  0  0  0  0  0  0  0  0  0  0
  -22.5358  -28.3793   17.3257 O   0  0  0  0  0  0  0  0  0  0  0  0
  -23.0660  -25.6083   21.1416 O   0  0  0  0  0  0  0  0  0  0  0  0
  -31.8874  -14.8840   20.1670 O   0  0  0  0  0  0  0  0  0  0  0  0
  -21.5897   -7.0257   21.6746 O   0  0  0  0  0  0  0  0  0  0  0  0
  -27.9932  -21.9509   18.1924 O   0  0  0  0  0  0  0  0  0  1  0  0
  -18.6563   -6.8177   26.3389 F   0  0  0  0  0  0  0  0  0  0  0  0
  -22.0519   -5.0515   23.5539 F   0  0  0  0  0  0  0  0  0  0  0  0
  1  2  1  0  0  0  0
  1  5  2  0  0  0  0
  2  6  2  0  0  0  0
  3  8  2  0  0  0  0
  3 16  1  0  0  0  0
  4  9  1  0  0  0  0
  4 16  2  0  0  0  0
  5 18  1  0  0  0  0
  6 20  1  0  0  0  0
  7 10  2  0  0  0  0
  7 19  1  0  0  0  0
  8 23  1  0  0  0  0
  9 23  2  0  0  0  0
 10 24  1  0  0  0  0
 11 12  2  0  0  0  0
 11 25  1  0  0  0  0
 12 26  1  0  0  0  0
 13 21  1  0  0  0  0
 13 24  2  0  0  0  0
 14 26  2  0  0  0  0
 14 27  1  0  0  0  0
 15 22  1  0  0  0  0
 15 62  2  0  0  0  0
 16 28  1  0  0  0  0
 17 28  1  0  0  0  0
 17 30  2  0  0  0  0
 17 32  1  0  0  0  0
 18 20  2  0  0  0  0
 18 37  1  0  0  0  0
 19 21  2  0  0  0  0
 19 38  1  0  0  0  0
 20 49  1  0  0  0  0
 21 39  1  0  0  0  0
 22 29  2  0  0  0  0
 22 48  1  0  0  0  0
 23 79  1  0  0  0  0
 24 80  1  0  0  0  0
 25 27  2  0  0  0  0
 25 79  1  0  0  0  0
 26 81  1  0  0  0  0
 27 82  1  0  0  0  0
 28 63  2  0  0  0  0
 29 40  1  0  0  0  0
 29 64  1  0  0  0  0
 30 65  1  0  0  0  0
 30 68  1  0  0  0  0
 31 57  1  0  0  0  0
 31 62  1  0  0  0  0
 31 64  2  0  0  0  0
 32 69  1  0  0  0  0
 32 74  2  0  0  0  0
 33 50  1  0  0  0  0
 33 70  1  0  0  0  0
 33 75  2  0  0  0  0
 34 59  1  0  0  0  0
 34 66  1  0  0  0  0
 34 76  2  0  0  0  0
 35 60  1  0  0  0  0
 35 71  1  0  0  0  0
 35 77  2  0  0  0  0
 36 67  1  0  0  0  0
 36 72  1  0  0  0  0
 36 78  2  0  0  0  0
 37 41  1  0  0  0  0
 38 50  1  0  0  0  0
 39 66  1  0  0  0  0
 40 42  1  0  0  0  0
 41 44  1  0  0  0  0
 42 48  1  0  0  0  0
 43 45  1  0  0  0  0
 43 46  1  0  0  0  0
 44 49  1  0  0  0  0
 45 51  1  0  0  0  0
 46 67  1  0  0  0  0
 47 51  1  0  0  0  0
 47 67  1  0  0  0  0
 48 58  1  0  0  0  0
 49 70  1  0  0  0  0
 50 66  1  0  0  0  0
 51 65  1  0  0  0  0
 52 60  1  0  0  0  0
 53 61  1  0  0  0  0
 54 61  1  0  0  0  0
 55 61  1  0  0  0  0
 56 73  1  0  0  0  0
 57 72  1  0  0  0  0
 58 80  1  0  0  0  0
 59 61  1  0  0  0  0
 59 71  1  0  0  0  0
 60 73  1  0  0  0  0
 63 65  1  0  0  0  0
M  CHG  1  73   1
M  ISO  4  36 100  58 101  72 100  80 101
M  END
> <Batch ID>
0182

> <Smiles>
CNC(C)C(=O)NC(C(=O)N1Cc2cc([101O:1][101CH2:1]C3CCc4nc(C[100NH:0][100C:0](=O)N5CCCC(n6nc(-c7ccc(Oc8ccc(F)cc8F)cc7)c(C(N)=O)c6N)C5)ncc43)ccc2CC1C(=O)NC1CCCc2ccccc21)C(C)(C)C

> <Shape>
0.247

> <Color>
0.194

> <Negative vol penalty>
0.000

$$$$

  -OEChem-04052323052D

  0  0  0     0  0  0  0  0  0999 V2000
M  END
$$$$

  -OEChem-04052323053D

 82 91  0     1  0  0  0  0  0999 V2000
  -22.5625  -34.4819   23.0145 C   0  0  0  0  0  0  0  0  0  0  0  0
  -23.5858  -33.5501   22.8735 C   0  0  0  0  0  0  0  0  0  0  0  0
  -27.0241  -14.7269   21.3670 C   0  0  0  0  0  0  0  0  0  0  0  0
  -27.0861  -15.6472   19.1340 C   0  0  0  0  0  0  0  0  0  0  0  0
  -21.2824  -34.0610   23.3726 C   0  0  0  0  0  0  0  0  0  0  0  0
  -23.3300  -32.1968   23.0918 C   0  0  0  0  0  0  0  0  0  0  0  0
  -25.3751  -29.2341   19.5302 C   0  0  0  0  0  0  0  0  0  0  0  0
  -25.8960  -13.9799   21.0278 C   0  0  0  0  0  0  0  0  0  0  0  0
  -25.9580  -14.9001   18.7948 C   0  0  0  0  0  0  0  0  0  0  0  0
  -26.7435  -28.9824   19.6200 C   0  0  0  0  0  0  0  0  0  0  0  0
  -25.2106  -11.1265   19.3482 C   0  0  0  0  0  0  0  0  0  0  0  0
  -25.1780   -9.7879   19.7389 C   0  0  0  0  0  0  0  0  0  0  0  0
  -26.2772  -26.8348   20.6149 C   0  0  0  0  0  0  0  0  0  0  0  0
  -23.1826  -10.2140   21.0327 C   0  0  0  0  0  0  0  0  0  0  0  0
  -30.2343  -25.6202   17.2520 C   0  0  0  0  0  0  0  0  0  0  0  0
  -27.6191  -15.5606   20.4200 C   0  0  0  0  0  0  0  0  0  0  0  0
  -30.1311  -15.9431   20.6465 C   0  0  0  0  0  0  0  0  0  0  0  0
  -21.0085  -32.7008   23.5859 C   0  0  0  0  0  0  0  0  0  0  0  0
  -24.4462  -28.2910   19.9929 C   0  0  0  0  0  0  0  0  0  0  0  0
  -22.0454  -31.7574   23.4544 C   0  0  0  0  0  0  0  0  0  0  0  0
  -24.8975  -27.0758   20.5275 C   0  0  0  0  0  0  0  0  0  0  0  0
  -25.3630  -14.0665   19.7417 C   0  0  0  0  0  0  0  0  0  0  0  0
  -27.1948  -27.7839   20.1650 C   0  0  0  0  0  0  0  0  0  0  0  0
  -24.2292  -12.0089   19.7998 C   0  0  0  0  0  0  0  0  0  0  0  0
  -24.1641   -9.3317   20.5811 C   0  0  0  0  0  0  0  0  0  0  0  0
  -23.2152  -11.5527   20.6420 C   0  0  0  0  0  0  0  0  0  0  0  0
  -28.7840  -16.3330   20.7699 C   0  0  0  0  0  0  0  0  0  0  0  0
  -29.9377  -24.3159   16.9124 C   0  0  0  0  0  0  0  0  0  0  0  0
  -30.3031  -25.8840   18.6047 C   0  0  0  0  0  0  0  0  0  0  0  0
  -30.8445  -17.0215   21.1097 C   0  0  0  0  0  0  0  0  0  0  0  0
  -29.8184  -23.7197   19.1027 C   0  0  0  0  0  0  0  0  0  0  0  0
  -30.6877  -14.7159   20.1567 C   0  0  0  0  0  0  0  0  0  0  0  0
  -22.2055  -28.2688   22.2474 C   0  0  0  0  0  0  0  0  0  0  0  0
  -21.5042  -25.3688   20.9745 C   0  0  0  0  0  0  0  0  0  0  0  0
  -22.5594  -22.6529   19.1976 C   0  0  0  0  0  0  0  0  0  0  0  0
  -29.6419  -22.8637   21.4654 C   0  0  0  0  0  0  0  0  0  0  0  0
  -19.6204  -32.2988   24.0176 C   0  0  0  0  0  0  0  0  0  0  0  0
  -22.9730  -28.5662   19.8645 C   0  0  0  0  0  0  0  0  0  0  0  0
  -23.9408  -26.0220   21.0198 C   0  0  0  0  0  0  0  0  0  0  0  0
  -19.3436  -30.8054   23.8651 C   0  0  0  0  0  0  0  0  0  0  0  0
  -30.5132  -20.7013   24.1565 C   0  0  0  0  0  0  0  0  0  0  0  0
  -20.5042  -29.9876   24.4230 C   0  0  0  0  0  0  0  0  0  0  0  0
  -28.9005  -24.7121   14.5798 C   0  0  0  0  0  0  0  0  0  0  0  0
  -28.5848  -23.2992   14.9594 C   0  0  0  0  0  0  0  0  0  0  0  0
  -30.2971  -19.3001   23.5803 C   0  0  0  0  0  0  0  0  0  0  0  0
  -29.4658  -21.6910   23.6492 C   0  0  0  0  0  0  0  0  0  0  0  0
  -29.1100  -20.3515   21.6124 C   0  0  0  0  0  0  0  0  0  0  0  0
  -21.8013  -30.2779   23.6584 C   0  0  1  0  0  0  0  0  0  0  0  0
  -29.8446  -23.9477   15.4700 C   0  0  0  0  0  0  0  0  0  0  0  0
  -22.1260  -27.7530   20.8384 C   0  0  1  0  0  0  0  0  0  0  0  0
  -30.1793  -19.3347   22.0439 C   0  0  2  0  0  0  0  0  0  0  0  0
  -21.7722  -20.4255   18.3511 C   0  0  0  0  0  0  0  0  0  0  0  0
  -21.7631  -24.2116   23.7859 C   0  0  0  0  0  0  0  0  0  0  0  0
  -21.9159  -21.9334   22.7588 C   0  0  0  0  0  0  0  0  0  0  0  0
  -19.8518  -23.3009   22.4548 C   0  0  0  0  0  0  0  0  0  0  0  0
  -23.0033  -23.4371   16.3786 C   0  0  0  0  0  0  0  0  0  0  0  0
  -30.6217  -27.2825   19.0746 C   0  0  0  0  0  0  0  0  0  0  0  0
  -29.3684  -28.1301   19.2644 C   0  0  0  0  0  0  0  0  0  1  0  0
  -21.9624  -23.9523   21.2248 C   0  0  1  0  0  0  0  0  0  0  0  0
  -21.9329  -21.9044   18.0350 C   0  0  2  0  0  0  0  0  0  0  0  0
  -21.3916  -23.3700   22.5487 C   0  0  0  0  0  0  0  0  0  0  0  0
  -28.6472  -17.5629   21.2725 N   0  0  0  0  0  0  0  0  0  0  0  0
  -29.7230  -23.3366   17.8152 N   0  0  0  0  0  0  0  0  0  0  0  0
  -30.0998  -24.9543   19.5611 N   0  0  0  0  0  0  0  0  0  0  0  0
  -29.9175  -17.9552   21.4689 N   0  0  0  0  0  0  0  0  0  0  0  0
  -22.5103  -26.3405   20.8785 N   0  0  0  0  0  0  0  0  0  0  0  0
  -29.4135  -21.6721   22.1857 N   0  0  0  0  0  0  0  0  0  0  0  0
  -32.1681  -17.2525   21.2409 N   0  0  0  0  0  0  0  0  0  0  0  0
  -29.8121  -13.7126   19.7197 N   0  0  0  0  0  0  0  0  0  0  0  0
  -29.5991  -22.7168   20.0794 N   0  0  0  0  0  0  0  0  0  0  0  0
  -21.8056  -29.5840   22.3884 N   0  0  0  0  0  0  0  0  0  0  0  0
  -21.6036  -23.1907   20.0333 N   0  0  0  0  0  0  0  0  0  0  0  0
  -22.7817  -22.0351   16.8171 N   0  3  0  0  0  0  0  0  0  0  0  0
  -31.9244  -14.5087   20.1233 O   0  0  0  0  0  0  0  0  0  0  0  0
  -22.5991  -27.5280   23.1407 O   0  0  0  0  0  0  0  0  0  0  0  0
  -20.2985  -25.6032   20.8610 O   0  0  0  0  0  0  0  0  0  0  0  0
  -23.7751  -22.7477   19.3512 O   0  0  0  0  0  0  0  0  0  0  0  0
  -29.8863  -23.9300   22.0357 O   0  0  0  0  0  0  0  0  0  0  0  0
  -24.2624  -13.3374   19.4104 O   0  0  0  0  0  0  0  0  0  0  0  0
  -28.5298  -27.5360   20.2544 O   0  0  0  0  0  0  0  0  0  1  0  0
  -24.1321   -8.0458   20.9549 F   0  0  0  0  0  0  0  0  0  0  0  0
  -22.2690  -12.3954   21.0781 F   0  0  0  0  0  0  0  0  0  0  0  0
  1  2  1  0  0  0  0
  1  5  2  0  0  0  0
  2  6  2  0  0  0  0
  3  8  2  0  0  0  0
  3 16  1  0  0  0  0
  4  9  1  0  0  0  0
  4 16  2  0  0  0  0
  5 18  1  0  0  0  0
  6 20  1  0  0  0  0
  7 10  2  0  0  0  0
  7 19  1  0  0  0  0
  8 22  1  0  0  0  0
  9 22  2  0  0  0  0
 10 23  1  0  0  0  0
 11 12  2  0  0  0  0
 11 24  1  0  0  0  0
 12 25  1  0  0  0  0
 13 21  1  0  0  0  0
 13 23  2  0  0  0  0
 14 25  2  0  0  0  0
 14 26  1  0  0  0  0
 15 28  2  0  0  0  0
 15 29  1  0  0  0  0
 16 27  1  0  0  0  0
 17 27  1  0  0  0  0
 17 30  2  0  0  0  0
 17 32  1  0  0  0  0
 18 20  2  0  0  0  0
 18 37  1  0  0  0  0
 19 21  2  0  0  0  0
 19 38  1  0  0  0  0
 20 48  1  0  0  0  0
 21 39  1  0  0  0  0
 22 79  1  0  0  0  0
 23 80  1  0  0  0  0
 24 26  2  0  0  0  0
 24 79  1  0  0  0  0
 25 81  1  0  0  0  0
 26 82  1  0  0  0  0
 27 62  2  0  0  0  0
 28 49  1  0  0  0  0
 28 63  1  0  0  0  0
 29 57  1  0  0  0  0
 29 64  2  0  0  0  0
 30 65  1  0  0  0  0
 30 68  1  0  0  0  0
 31 63  2  0  0  0  0
 31 64  1  0  0  0  0
 31 70  1  0  0  0  0
 32 69  1  0  0  0  0
 32 74  2  0  0  0  0
 33 50  1  0  0  0  0
 33 71  1  0  0  0  0
 33 75  2  0  0  0  0
 34 59  1  0  0  0  0
 34 66  1  0  0  0  0
 34 76  2  0  0  0  0
 35 60  1  0  0  0  0
 35 72  1  0  0  0  0
 35 77  2  0  0  0  0
 36 67  1  0  0  0  0
 36 70  1  0  0  0  0
 36 78  2  0  0  0  0
 37 40  1  0  0  0  0
 38 50  1  0  0  0  0
 39 66  1  0  0  0  0
 40 42  1  0  0  0  0
 41 45  1  0  0  0  0
 41 46  1  0  0  0  0
 42 48  1  0  0  0  0
 43 44  1  0  0  0  0
 43 49  1  0  0  0  0
 44 49  1  0  0  0  0
 45 51  1  0  0  0  0
 46 67  1  0  0  0  0
 47 51  1  0  0  0  0
 47 67  1  0  0  0  0
 48 71  1  0  0  0  0
 50 66  1  0  0  0  0
 51 65  1  0  0  0  0
 52 60  1  0  0  0  0
 53 61  1  0  0  0  0
 54 61  1  0  0  0  0
 55 61  1  0  0  0  0
 56 73  1  0  0  0  0
 57 58  1  0  0  0  0
 58 80  1  0  0  0  0
 59 61  1  0  0  0  0
 59 72  1  0  0  0  0
 60 73  1  0  0  0  0
 62 65  1  0  0  0  0
M  CHG  1  73   1
M  ISO  4  36 100  58 101  70 100  80 101
M  END
> <Batch ID>
0182

> <Smiles>
CNC(C)C(=O)NC(C(=O)N1Cc2cc([101O:1][101CH2:1]Cc3cc(C4CC4)nc([100NH:0][100C:0](=O)N4CCCC(n5nc(-c6ccc(Oc7ccc(F)cc7F)cc6)c(C(N)=O)c5N)C4)n3)ccc2CC1C(=O)NC1CCCc2ccccc21)C(C)(C)C

> <Shape>
0.249

> <Color>
0.077

> <Negative vol penalty>
0.000

$$$$

  -OEChem-04052323053D

 85 95  0     1  0  0  0  0  0999 V2000
  -19.4994  -29.4574   22.9503 C   0  0  0  0  0  0  0  0  0  0  0  0
  -20.1386  -28.2438   22.7179 C   0  0  0  0  0  0  0  0  0  0  0  0
  -23.0802   -9.8591   19.9424 C   0  0  0  0  0  0  0  0  0  0  0  0
  -23.8369   -9.8768   22.2368 C   0  0  0  0  0  0  0  0  0  0  0  0
  -20.1132  -30.4268   23.7425 C   0  0  0  0  0  0  0  0  0  0  0  0
  -21.3926  -27.9993   23.2768 C   0  0  0  0  0  0  0  0  0  0  0  0
  -23.5400  -22.6310   25.2956 C   0  0  0  0  0  0  0  0  0  0  0  0
  -22.3395   -8.7047   20.1956 C   0  0  0  0  0  0  0  0  0  0  0  0
  -23.0961   -8.7224   22.4900 C   0  0  0  0  0  0  0  0  0  0  0  0
  -24.3763  -21.6776   24.7163 C   0  0  0  0  0  0  0  0  0  0  0  0
  -19.8695   -7.9172   23.0910 C   0  0  0  0  0  0  0  0  0  0  0  0
  -19.1110   -7.8793   24.2610 C   0  0  0  0  0  0  0  0  0  0  0  0
  -26.2669  -22.6545   25.8523 C   0  0  0  0  0  0  0  0  0  0  0  0
  -20.3571   -5.9483   25.0063 C   0  0  0  0  0  0  0  0  0  0  0  0
  -28.5836  -18.4368   24.4372 C   0  0  0  0  0  0  0  0  0  0  0  0
  -23.8290  -10.4452   20.9630 C   0  0  0  0  0  0  0  0  0  0  0  0
  -24.1635  -12.9709   20.8341 C   0  0  0  0  0  0  0  0  0  0  0  0
  -21.3710  -30.1903   24.3192 C   0  0  0  0  0  0  0  0  0  0  0  0
  -24.0635  -23.6116   26.1504 C   0  0  0  0  0  0  0  0  0  0  0  0
  -22.0243  -28.9669   24.0763 C   0  0  0  0  0  0  0  0  0  0  0  0
  -25.4348  -23.6176   26.4432 C   0  0  0  0  0  0  0  0  0  0  0  0
  -22.3473   -8.1363   21.4694 C   0  0  0  0  0  0  0  0  0  0  0  0
  -25.7403  -21.6910   24.9924 C   0  0  0  0  0  0  0  0  0  0  0  0
  -20.8717   -6.9706   22.8786 C   0  0  0  0  0  0  0  0  0  0  0  0
  -19.3548   -6.8949   25.2187 C   0  0  0  0  0  0  0  0  0  0  0  0
  -21.1156   -5.9862   23.8363 C   0  0  0  0  0  0  0  0  0  0  0  0
  -24.5949  -11.6374   20.7019 C   0  0  0  0  0  0  0  0  0  0  0  0
  -29.9464  -17.8105   22.7471 C   0  0  0  0  0  0  0  0  0  0  0  0
  -28.6797  -19.7531   24.0168 C   0  0  0  0  0  0  0  0  0  0  0  0
  -30.0624  -19.1248   22.3200 C   0  0  0  0  0  0  0  0  0  0  0  0
  -25.2539  -13.7223   20.4696 C   0  0  0  0  0  0  0  0  0  0  0  0
  -22.8909  -13.4845   21.2494 C   0  0  0  0  0  0  0  0  0  0  0  0
  -24.2234  -26.7857   26.0911 C   0  0  0  0  0  0  0  0  0  0  0  0
  -25.4306  -26.3919   29.0760 C   0  0  0  0  0  0  0  0  0  0  0  0
  -27.0232  -24.3655   31.3131 C   0  0  0  0  0  0  0  0  0  0  0  0
  -30.7343  -14.7584   20.6618 C   0  0  0  0  0  0  0  0  0  0  0  0
  -22.0158  -31.2868   25.1296 C   0  0  0  0  0  0  0  0  0  0  0  0
  -23.1440  -24.6166   26.7884 C   0  0  0  0  0  0  0  0  0  0  0  0
  -26.0433  -24.6368   27.3703 C   0  0  0  0  0  0  0  0  0  0  0  0
  -23.1788  -30.8033   25.9920 C   0  0  0  0  0  0  0  0  0  0  0  0
  -29.6072  -12.3617   18.2823 C   0  0  0  0  0  0  0  0  0  0  0  0
  -24.1085  -29.9065   25.1805 C   0  0  0  0  0  0  0  0  0  0  0  0
  -28.1700  -12.0653   18.7143 C   0  0  0  0  0  0  0  0  0  0  0  0
  -31.9402  -21.4861   20.6186 C   0  0  0  0  0  0  0  0  0  0  0  0
  -32.1868  -20.5890   19.4432 C   0  0  0  0  0  0  0  0  0  0  0  0
  -30.5219  -12.5897   19.4836 C   0  0  0  0  0  0  0  0  0  0  0  0
  -31.0787  -17.8448   20.6912 C   0  0  0  0  0  0  0  0  0  0  0  0
  -28.6161  -13.3202   20.8649 C   0  0  0  0  0  0  0  0  0  0  0  0
  -23.3740  -28.6548   24.6854 C   0  0  1  0  0  0  0  0  0  0  0  0
  -30.7920  -16.9137   21.8908 C   0  0  2  0  0  0  0  0  0  0  0  0
  -23.8641  -25.8841   27.2382 C   0  0  1  0  0  0  0  0  0  0  0  0
  -27.6441  -13.1384   19.6865 C   0  0  2  0  0  0  0  0  0  0  0  0
  -30.9628  -20.3743   20.3062 C   0  0  0  0  0  0  0  0  0  0  0  0
  -29.6288  -20.7640   19.7307 C   0  0  0  0  0  0  0  0  0  0  0  0
  -27.9066  -24.3350   33.6617 C   0  0  0  0  0  0  0  0  0  0  0  0
  -27.8175  -28.0775   28.1976 C   0  0  0  0  0  0  0  0  0  0  0  0
  -29.0628  -27.2307   30.1977 C   0  0  0  0  0  0  0  0  0  0  0  0
  -26.9823  -28.5728   30.5022 C   0  0  0  0  0  0  0  0  0  0  0  0
  -25.2200  -22.1496   32.0860 C   0  0  0  0  0  0  0  0  0  0  0  0
  -27.9461  -20.8344   24.7544 C   0  0  0  0  0  0  0  0  0  1  0  0
  -26.8118  -26.1974   29.6536 C   0  0  1  0  0  0  0  0  0  0  0  0
  -26.7192  -24.0296   32.7619 C   0  0  2  0  0  0  0  0  0  0  0  0
  -27.6577  -27.5014   29.6187 C   0  0  0  0  0  0  0  0  0  0  0  0
  -29.2243  -17.4284   23.8105 N   0  0  0  0  0  0  0  0  0  0  0  0
  -25.8606  -11.5438   20.2858 N   0  0  0  0  0  0  0  0  0  0  0  0
  -29.4228  -20.1246   22.9500 N   0  0  0  0  0  0  0  0  0  0  0  0
  -26.2339  -12.8280   20.1532 N   0  0  0  0  0  0  0  0  0  0  0  0
  -30.9128  -19.2126   21.1833 N   0  0  1  0  0  0  0  0  0  0  0  0
  -25.1040  -25.6023   27.9643 N   0  0  0  0  0  0  0  0  0  0  0  0
  -29.9671  -13.6198   20.3650 N   0  0  0  0  0  0  0  0  0  0  0  0
  -25.4604  -15.0541   20.3919 N   0  0  0  0  0  0  0  0  0  0  0  0
  -21.8812  -12.5735   21.5886 N   0  0  0  0  0  0  0  0  0  0  0  0
  -23.2356  -27.6927   25.7576 N   0  0  0  0  0  0  0  0  0  0  0  0
  -26.6212  -25.6443   30.9900 N   0  0  0  0  0  0  0  0  0  0  0  0
  -30.1312  -15.6885   21.4996 N   0  0  0  0  0  0  0  0  0  0  0  0
  -26.3849  -22.5838   32.8993 N   0  3  0  0  0  0  0  0  0  0  0  0
  -22.6509  -14.7146   21.3018 O   0  0  0  0  0  0  0  0  0  0  0  0
  -25.3164  -26.6681   25.5496 O   0  0  0  0  0  0  0  0  0  0  0  0
  -24.6670  -27.2089   29.5965 O   0  0  0  0  0  0  0  0  0  0  0  0
  -27.5665  -23.5740   30.5457 O   0  0  0  0  0  0  0  0  0  0  0  0
  -31.8703  -14.9356   20.2091 O   0  0  0  0  0  0  0  0  0  0  0  0
  -21.6244   -7.0100   21.7169 O   0  0  0  0  0  0  0  0  0  0  0  0
  -26.5589  -20.7620   24.4278 O   0  0  0  0  0  0  0  0  0  1  0  0
  -18.6274   -6.8596   26.3429 F   0  0  0  0  0  0  0  0  0  0  0  0
  -22.0779   -5.0748   23.6384 F   0  0  0  0  0  0  0  0  0  0  0  0
  1  2  1  0  0  0  0
  1  5  2  0  0  0  0
  2  6  2  0  0  0  0
  3  8  2  0  0  0  0
  3 16  1  0  0  0  0
  4  9  1  0  0  0  0
  4 16  2  0  0  0  0
  5 18  1  0  0  0  0
  6 20  1  0  0  0  0
  7 10  2  0  0  0  0
  7 19  1  0  0  0  0
  8 22  1  0  0  0  0
  9 22  2  0  0  0  0
 10 23  1  0  0  0  0
 11 12  2  0  0  0  0
 11 24  1  0  0  0  0
 12 25  1  0  0  0  0
 13 21  1  0  0  0  0
 13 23  2  0  0  0  0
 14 25  2  0  0  0  0
 14 26  1  0  0  0  0
 15 29  1  0  0  0  0
 15 64  2  0  0  0  0
 16 27  1  0  0  0  0
 17 27  1  0  0  0  0
 17 31  2  0  0  0  0
 17 32  1  0  0  0  0
 18 20  2  0  0  0  0
 18 37  1  0  0  0  0
 19 21  2  0  0  0  0
 19 38  1  0  0  0  0
 20 49  1  0  0  0  0
 21 39  1  0  0  0  0
 22 82  1  0  0  0  0
 23 83  1  0  0  0  0
 24 26  2  0  0  0  0
 24 82  1  0  0  0  0
 25 84  1  0  0  0  0
 26 85  1  0  0  0  0
 27 65  2  0  0  0  0
 28 30  2  0  0  0  0
 28 50  1  0  0  0  0
 28 64  1  0  0  0  0
 29 60  1  0  0  0  0
 29 66  2  0  0  0  0
 30 66  1  0  0  0  0
 30 68  1  0  0  0  0
 31 67  1  0  0  0  0
 31 71  1  0  0  0  0
 32 72  1  0  0  0  0
 32 77  2  0  0  0  0
 33 51  1  0  0  0  0
 33 73  1  0  0  0  0
 33 78  2  0  0  0  0
 34 61  1  0  0  0  0
 34 69  1  0  0  0  0
 34 79  2  0  0  0  0
 35 62  1  0  0  0  0
 35 74  1  0  0  0  0
 35 80  2  0  0  0  0
 36 70  1  0  0  0  0
 36 75  1  0  0  0  0
 36 81  2  0  0  0  0
 37 40  1  0  0  0  0
 38 51  1  0  0  0  0
 39 69  1  0  0  0  0
 40 42  1  0  0  0  0
 41 43  1  0  0  0  0
 41 46  1  0  0  0  0
 42 49  1  0  0  0  0
 43 52  1  0  0  0  0
 44 45  1  0  0  0  0
 44 53  1  0  0  0  0
 45 53  1  0  0  0  0
 46 70  1  0  0  0  0
 47 50  1  0  0  0  0
 47 68  1  0  0  0  0
 48 52  1  0  0  0  0
 48 70  1  0  0  0  0
 49 73  1  0  0  0  0
 50 75  1  0  0  0  0
 51 69  1  0  0  0  0
 52 67  1  0  0  0  0
 53 54  1  0  0  0  0
 53 68  1  0  0  0  0
 55 62  1  0  0  0  0
 56 63  1  0  0  0  0
 57 63  1  0  0  0  0
 58 63  1  0  0  0  0
 59 76  1  0  0  0  0
 60 83  1  0  0  0  0
 61 63  1  0  0  0  0
 61 74  1  0  0  0  0
 62 76  1  0  0  0  0
 65 67  1  0  0  0  0
M  CHG  1  76   1
M  ISO  4  36 100  60 101  75 100  83 101
M  END
> <Batch ID>
0182

> <Smiles>
CNC(C)C(=O)NC(C(=O)N1Cc2cc([101O:1][101CH2:1]c3cnc4c(n3)N(C3(C)CC3)CC4[100NH:0][100C:0](=O)N3CCCC(n4nc(-c5ccc(Oc6ccc(F)cc6F)cc5)c(C(N)=O)c4N)C3)ccc2CC1C(=O)NC1CCCc2ccccc21)C(C)(C)C

> <Shape>
0.221

> <Color>
0.187

> <Negative vol penalty>
0.000

$$$$

  -OEChem-04052323053D

 85 94  0     1  0  0  0  0  0999 V2000
  -19.8930  -28.1192   22.7722 C   0  0  0  0  0  0  0  0  0  0  0  0
  -21.0482  -27.3511   22.6670 C   0  0  0  0  0  0  0  0  0  0  0  0
  -27.2383  -23.4054   20.1677 C   0  0  0  0  0  0  0  0  0  0  0  0
  -29.4669  -23.6567   21.0663 C   0  0  0  0  0  0  0  0  0  0  0  0
  -18.6421  -27.5057   22.7182 C   0  0  0  0  0  0  0  0  0  0  0  0
  -20.9531  -25.9690   22.5087 C   0  0  0  0  0  0  0  0  0  0  0  0
  -24.2943  -20.4666   19.3659 C   0  0  0  0  0  0  0  0  0  0  0  0
  -27.2446  -24.7445   19.7775 C   0  0  0  0  0  0  0  0  0  0  0  0
  -29.4732  -24.9959   20.6761 C   0  0  0  0  0  0  0  0  0  0  0  0
  -24.8117  -19.2072   19.6659 C   0  0  0  0  0  0  0  0  0  0  0  0
  -26.8023  -27.7640   21.2307 C   0  0  0  0  0  0  0  0  0  0  0  0
  -25.6624  -28.5218   21.4989 C   0  0  0  0  0  0  0  0  0  0  0  0
  -22.5963  -18.2659   19.5064 C   0  0  0  0  0  0  0  0  0  0  0  0
  -25.7723  -12.3182   21.1306 C   0  0  0  0  0  0  0  0  0  0  0  0
  -25.3920  -28.9509   19.1367 C   0  0  0  0  0  0  0  0  0  0  0  0
  -28.3494  -22.8615   20.8122 C   0  0  0  0  0  0  0  0  0  0  0  0
  -27.4470  -20.8565   22.1058 C   0  0  0  0  0  0  0  0  0  0  0  0
  -18.5315  -26.1165   22.5495 C   0  0  0  0  0  0  0  0  0  0  0  0
  -22.9202  -20.6373   19.1443 C   0  0  0  0  0  0  0  0  0  0  0  0
  -19.6996  -25.3362   22.4537 C   0  0  0  0  0  0  0  0  0  0  0  0
  -22.0644  -19.5281   19.2012 C   0  0  0  0  0  0  0  0  0  0  0  0
  -24.4402  -12.3930   21.4924 C   0  0  0  0  0  0  0  0  0  0  0  0
  -23.6754  -13.5155   21.1580 C   0  0  0  0  0  0  0  0  0  0  0  0
  -28.3621  -25.5398   20.0317 C   0  0  0  0  0  0  0  0  0  0  0  0
  -23.9622  -18.1071   19.7390 C   0  0  0  0  0  0  0  0  0  0  0  0
  -27.2372  -27.5997   19.9155 C   0  0  0  0  0  0  0  0  0  0  0  0
  -24.9572  -29.1152   20.4519 C   0  0  0  0  0  0  0  0  0  0  0  0
  -26.5320  -28.1932   18.8686 C   0  0  0  0  0  0  0  0  0  0  0  0
  -28.3433  -21.4784   21.2160 C   0  0  0  0  0  0  0  0  0  0  0  0
  -26.2815  -13.3934   20.4172 C   0  0  0  0  0  0  0  0  0  0  0  0
  -24.2737  -14.5378   20.4531 C   0  0  0  0  0  0  0  0  0  0  0  0
  -27.8627  -19.5483   22.1535 C   0  0  0  0  0  0  0  0  0  0  0  0
  -26.3378  -21.4118   22.8249 C   0  0  0  0  0  0  0  0  0  0  0  0
  -20.6082  -22.2947   20.5625 C   0  0  0  0  0  0  0  0  0  0  0  0
  -18.8477  -21.2459   18.0480 C   0  0  0  0  0  0  0  0  0  0  0  0
  -18.4017  -18.9158   15.5947 C   0  0  0  0  0  0  0  0  0  0  0  0
  -29.6232  -14.9053   19.6063 C   0  0  0  0  0  0  0  0  0  0  0  0
  -17.1583  -25.4929   22.5442 C   0  0  0  0  0  0  0  0  0  0  0  0
  -22.3817  -21.9977   18.7955 C   0  0  0  0  0  0  0  0  0  0  0  0
  -20.5845  -19.6545   18.9516 C   0  0  0  0  0  0  0  0  0  0  0  0
  -17.1388  -24.0673   21.9988 C   0  0  0  0  0  0  0  0  0  0  0  0
  -32.0732  -17.3655   20.3947 C   0  0  0  0  0  0  0  0  0  0  0  0
  -18.2680  -23.2455   22.6123 C   0  0  0  0  0  0  0  0  0  0  0  0
  -31.2476  -18.6045   20.7457 C   0  0  0  0  0  0  0  0  0  0  0  0
  -22.1952  -11.8715   21.9337 C   0  0  0  0  0  0  0  0  0  0  0  0
  -31.4328  -16.5621   19.2648 C   0  0  0  0  0  0  0  0  0  0  0  0
  -29.1987  -17.4272   19.8430 C   0  0  0  0  0  0  0  0  0  0  0  0
  -23.6268  -11.4143   22.2927 C   0  0  1  0  0  0  0  0  0  0  0  0
  -19.6372  -23.8371   22.2563 C   0  0  1  0  0  0  0  0  0  0  0  0
  -20.8931  -22.1459   19.0947 C   0  0  1  0  0  0  0  0  0  0  0  0
  -29.7754  -18.2395   21.0152 C   0  0  2  0  0  0  0  0  0  0  0  0
  -22.2666  -13.4013   21.6791 C   0  0  0  0  0  0  0  0  0  0  0  0
  -23.8633   -9.9496   21.9567 C   0  0  0  0  0  0  0  0  0  0  0  0
  -21.2062  -13.8363   20.6645 C   0  0  0  0  0  0  0  0  0  0  0  0
  -22.1086  -14.1941   22.9831 C   0  0  0  0  0  0  0  0  0  0  0  0
  -16.8524  -18.3030   13.7181 C   0  0  0  0  0  0  0  0  0  0  0  0
  -16.8239  -20.1831   20.0691 C   0  0  0  0  0  0  0  0  0  0  0  0
  -15.8318  -18.7918   18.2393 C   0  0  0  0  0  0  0  0  0  0  0  0
  -15.8150  -21.2799   18.0607 C   0  0  0  0  0  0  0  0  0  0  0  0
  -20.5490  -19.1927   13.5769 C   0  0  0  0  0  0  0  0  0  0  0  0
  -27.7129  -13.3689   19.9930 C   0  0  0  0  0  0  0  0  0  0  0  0
  -23.5371  -15.7938   20.0910 C   0  0  0  0  0  0  0  0  0  1  0  0
  -17.9945  -20.0312   17.7729 C   0  0  1  0  0  0  0  0  0  0  0  0
  -18.1128  -19.0578   14.1112 C   0  0  2  0  0  0  0  0  0  0  0  0
  -16.6439  -20.0691   18.5422 C   0  0  0  0  0  0  0  0  0  0  0  0
  -29.2593  -20.6346   20.7333 N   0  0  0  0  0  0  0  0  0  0  0  0
  -25.5698  -14.4974   20.0685 N   0  0  0  0  0  0  0  0  0  0  0  0
  -28.9409  -19.4693   21.3220 N   0  0  0  0  0  0  0  0  0  0  0  0
  -20.1051  -21.0065   18.6203 N   0  0  0  0  0  0  0  0  0  0  0  0
  -30.0381  -16.2470   19.5836 N   0  0  0  0  0  0  0  0  0  0  0  0
  -27.4075  -18.4695   22.8252 N   0  0  0  0  0  0  0  0  0  0  0  0
  -26.5675  -21.9422   24.1017 N   0  0  0  0  0  0  0  0  0  0  0  0
  -20.0008  -23.4893   20.8994 N   0  0  0  0  0  0  0  0  0  0  0  0
  -17.8543  -19.9508   16.3229 N   0  0  0  0  0  0  0  0  0  0  0  0
  -28.2869  -14.6942   19.9236 N   0  0  0  0  0  0  0  0  0  0  0  0
  -19.2496  -18.5244   13.3087 N   0  3  0  0  0  0  0  0  0  0  0  0
  -25.1744  -21.4221   22.3560 O   0  0  0  0  0  0  0  0  0  0  0  0
  -20.9153  -21.3920   21.3322 O   0  0  0  0  0  0  0  0  0  0  0  0
  -18.4173  -22.3652   17.7591 O   0  0  0  0  0  0  0  0  0  0  0  0
  -19.0452  -17.9784   16.0612 O   0  0  0  0  0  0  0  0  0  0  0  0
  -30.3882  -13.9648   19.3671 O   0  0  0  0  0  0  0  0  0  0  0  0
  -28.3686  -26.8465   19.6509 O   0  0  0  0  0  0  0  0  0  0  0  0
  -24.4645  -16.8768   20.0323 O   0  0  0  0  0  0  0  0  0  1  0  0
  -23.8617  -29.8416   20.7095 F   0  0  0  0  0  0  0  0  0  0  0  0
  -26.9442  -28.0379   17.6029 F   0  0  0  0  0  0  0  0  0  0  0  0
  1  2  1  0  0  0  0
  1  5  2  0  0  0  0
  2  6  2  0  0  0  0
  3  8  2  0  0  0  0
  3 16  1  0  0  0  0
  4  9  1  0  0  0  0
  4 16  2  0  0  0  0
  5 18  1  0  0  0  0
  6 20  1  0  0  0  0
  7 10  2  0  0  0  0
  7 19  1  0  0  0  0
  8 24  1  0  0  0  0
  9 24  2  0  0  0  0
 10 25  1  0  0  0  0
 11 12  2  0  0  0  0
 11 26  1  0  0  0  0
 12 27  1  0  0  0  0
 13 21  1  0  0  0  0
 13 25  2  0  0  0  0
 14 22  2  0  0  0  0
 14 30  1  0  0  0  0
 15 27  2  0  0  0  0
 15 28  1  0  0  0  0
 16 29  1  0  0  0  0
 17 29  1  0  0  0  0
 17 32  2  0  0  0  0
 17 33  1  0  0  0  0
 18 20  2  0  0  0  0
 18 38  1  0  0  0  0
 19 21  2  0  0  0  0
 19 39  1  0  0  0  0
 20 49  1  0  0  0  0
 21 40  1  0  0  0  0
 22 23  1  0  0  0  0
 22 48  1  0  0  0  0
 23 31  2  0  0  0  0
 23 52  1  0  0  0  0
 24 82  1  0  0  0  0
 25 83  1  0  0  0  0
 26 28  2  0  0  0  0
 26 82  1  0  0  0  0
 27 84  1  0  0  0  0
 28 85  1  0  0  0  0
 29 66  2  0  0  0  0
 30 61  1  0  0  0  0
 30 67  2  0  0  0  0
 31 62  1  0  0  0  0
 31 67  1  0  0  0  0
 32 68  1  0  0  0  0
 32 71  1  0  0  0  0
 33 72  1  0  0  0  0
 33 77  2  0  0  0  0
 34 50  1  0  0  0  0
 34 73  1  0  0  0  0
 34 78  2  0  0  0  0
 35 63  1  0  0  0  0
 35 69  1  0  0  0  0
 35 79  2  0  0  0  0
 36 64  1  0  0  0  0
 36 74  1  0  0  0  0
 36 80  2  0  0  0  0
 37 70  1  0  0  0  0
 37 75  1  0  0  0  0
 37 81  2  0  0  0  0
 38 41  1  0  0  0  0
 39 50  1  0  0  0  0
 40 69  1  0  0  0  0
 41 43  1  0  0  0  0
 42 44  1  0  0  0  0
 42 46  1  0  0  0  0
 43 49  1  0  0  0  0
 44 51  1  0  0  0  0
 45 48  1  0  0  0  0
 45 52  1  0  0  0  0
 46 70  1  0  0  0  0
 47 51  1  0  0  0  0
 47 70  1  0  0  0  0
 48 53  1  0  0  0  0
 49 73  1  0  0  0  0
 50 69  1  0  0  0  0
 51 68  1  0  0  0  0
 52 54  1  0  0  0  0
 52 55  1  0  0  0  0
 56 64  1  0  0  0  0
 57 65  1  0  0  0  0
 58 65  1  0  0  0  0
 59 65  1  0  0  0  0
 60 76  1  0  0  0  0
 61 75  1  0  0  0  0
 62 83  1  0  0  0  0
 63 65  1  0  0  0  0
 63 74  1  0  0  0  0
 64 76  1  0  0  0  0
 66 68  1  0  0  0  0
M  CHG  1  76   1
M  ISO  4  37 100  62 101  75 100  83 101
M  END
> <Batch ID>
0182

> <Smiles>
CNC(C)C(=O)NC(C(=O)N1Cc2cc([101O:1][101CH2:1]c3nc(C[100NH:0][100C:0](=O)N4CCCC(n5nc(-c6ccc(Oc7ccc(F)cc7F)cc6)c(C(N)=O)c5N)C4)cc4c3C(C)(C)CC4C)ccc2CC1C(=O)NC1CCCc2ccccc21)C(C)(C)C

> <Shape>
0.212

> <Color>
0.072

> <Negative vol penalty>
0.000

$$$$
