
  -OEChem-04052323073D

 83 92  0     1  0  0  0  0  0999 V2000
  -20.1649  -30.7620   23.4534 C   0  0  0  0  0  0  0  0  0  0  0  0
  -21.4316  -30.2076   23.3001 C   0  0  0  0  0  0  0  0  0  0  0  0
  -25.5118  -13.7629   21.2043 C   0  0  0  0  0  0  0  0  0  0  0  0
  -26.1195  -13.5701   18.8740 C   0  0  0  0  0  0  0  0  0  0  0  0
  -19.0319  -29.9715   23.2654 C   0  0  0  0  0  0  0  0  0  0  0  0
  -21.5661  -28.8621   22.9597 C   0  0  0  0  0  0  0  0  0  0  0  0
  -25.0268  -28.1104   19.3399 C   0  0  0  0  0  0  0  0  0  0  0  0
  -24.4932  -12.8287   21.0160 C   0  0  0  0  0  0  0  0  0  0  0  0
  -25.1010  -12.6359   18.6856 C   0  0  0  0  0  0  0  0  0  0  0  0
  -26.3667  -28.1396   19.7240 C   0  0  0  0  0  0  0  0  0  0  0  0
  -24.2114   -9.4693   20.7559 C   0  0  0  0  0  0  0  0  0  0  0  0
  -24.0745   -8.4588   21.7076 C   0  0  0  0  0  0  0  0  0  0  0  0
  -26.4064  -25.7278   19.7474 C   0  0  0  0  0  0  0  0  0  0  0  0
  -21.8289   -9.2120   22.1843 C   0  0  0  0  0  0  0  0  0  0  0  0
  -31.0605  -25.3905   16.9348 C   0  0  0  0  0  0  0  0  0  0  0  0
  -26.3249  -14.1337   20.1333 C   0  0  0  0  0  0  0  0  0  0  0  0
  -28.7105  -14.8406   20.6960 C   0  0  0  0  0  0  0  0  0  0  0  0
  -19.1524  -28.6180   22.9131 C   0  0  0  0  0  0  0  0  0  0  0  0
  -24.3625  -26.8876   19.1669 C   0  0  0  0  0  0  0  0  0  0  0  0
  -20.4336  -28.0524   22.7681 C   0  0  0  0  0  0  0  0  0  0  0  0
  -25.0588  -25.6857   19.3585 C   0  0  0  0  0  0  0  0  0  0  0  0
  -24.2879  -12.2652   19.7567 C   0  0  0  0  0  0  0  0  0  0  0  0
  -27.0559  -26.9483   19.9307 C   0  0  0  0  0  0  0  0  0  0  0  0
  -23.1571  -10.3512   20.5184 C   0  0  0  0  0  0  0  0  0  0  0  0
  -22.8832   -8.3302   22.4218 C   0  0  0  0  0  0  0  0  0  0  0  0
  -21.9658  -10.2225   21.2325 C   0  0  0  0  0  0  0  0  0  0  0  0
  -27.3768  -15.0991   20.3270 C   0  0  0  0  0  0  0  0  0  0  0  0
  -30.8353  -26.6594   17.4099 C   0  0  0  0  0  0  0  0  0  0  0  0
  -31.1698  -24.5958   18.0916 C   0  0  0  0  0  0  0  0  0  0  0  0
  -29.2994  -16.0804   20.7462 C   0  0  0  0  0  0  0  0  0  0  0  0
  -29.3591  -13.5914   20.9690 C   0  0  0  0  0  0  0  0  0  0  0  0
  -21.8667  -25.4769   20.5396 C   0  0  0  0  0  0  0  0  0  0  0  0
  -22.3266  -23.2691   18.2080 C   0  0  0  0  0  0  0  0  0  0  0  0
  -24.4637  -21.8015   15.9886 C   0  0  0  0  0  0  0  0  0  0  0  0
  -30.2307  -20.9971   18.5313 C   0  0  0  0  0  0  0  0  0  0  0  0
  -17.8993  -27.7916   22.7667 C   0  0  0  0  0  0  0  0  0  0  0  0
  -22.9244  -26.8729   18.7263 C   0  0  0  0  0  0  0  0  0  0  0  0
  -24.3970  -24.3465   19.1663 C   0  0  0  0  0  0  0  0  0  0  0  0
  -18.1240  -26.4679   22.0404 C   0  0  0  0  0  0  0  0  0  0  0  0
  -27.2588  -20.7062   20.5759 C   0  0  0  0  0  0  0  0  0  0  0  0
  -19.3578  -25.7596   22.5909 C   0  0  0  0  0  0  0  0  0  0  0  0
  -27.1378  -19.1883   20.7225 C   0  0  0  0  0  0  0  0  0  0  0  0
  -31.7843  -28.3448   15.6533 C   0  0  0  0  0  0  0  0  0  0  0  0
  -31.5313  -29.1264   16.9044 C   0  0  0  0  0  0  0  0  0  0  0  0
  -27.7489  -21.0898   19.1828 C   0  0  0  0  0  0  0  0  0  0  0  0
  -28.9163  -18.9341   18.9302 C   0  0  0  0  0  0  0  0  0  0  0  0
  -20.6202  -26.6030   22.3752 C   0  0  1  0  0  0  0  0  0  0  0  0
  -22.2047  -25.5748   19.0789 C   0  0  1  0  0  0  0  0  0  0  0  0
  -28.4467  -18.4809   20.3246 C   0  0  2  0  0  0  0  0  0  0  0  0
  -30.6414  -27.9246   16.5799 C   0  0  0  0  0  0  0  0  0  0  0  0
  -29.2357  -28.2248   16.1101 C   0  0  0  0  0  0  0  0  0  0  0  0
  -24.5608  -19.9998   14.2445 C   0  0  0  0  0  0  0  0  0  0  0  0
  -22.4134  -21.1518   20.4034 C   0  0  0  0  0  0  0  0  0  0  0  0
  -23.4375  -19.5774   18.7480 C   0  0  0  0  0  0  0  0  0  0  0  0
  -21.1453  -20.4797   18.3554 C   0  0  0  0  0  0  0  0  0  0  0  0
  -25.1491  -23.7390   13.8591 C   0  0  0  0  0  0  0  0  0  0  0  0
  -31.4160  -23.1456   18.1627 C   0  0  0  0  0  0  0  0  0  0  0  0
  -30.6102  -27.6710   19.7594 C   0  0  0  0  0  0  0  0  0  0  0  0
  -29.1454  -28.0820   19.8620 C   0  0  0  0  0  0  0  0  0  1  0  0
  -23.1421  -22.0054   18.0782 C   0  0  1  0  0  0  0  0  0  0  0  0
  -24.3167  -21.4767   14.5130 C   0  0  2  0  0  0  0  0  0  0  0  0
  -22.5468  -20.8286   18.9018 C   0  0  0  0  0  0  0  0  0  0  0  0
  -27.1325  -16.4009   20.1551 N   0  0  0  0  0  0  0  0  0  0  0  0
  -31.0261  -25.3008   19.2170 N   0  0  0  0  0  0  0  0  0  0  0  0
  -30.8242  -26.5518   18.7695 N   0  0  0  0  0  0  0  0  0  0  0  0
  -28.3206  -16.9715   20.4173 N   0  0  0  0  0  0  0  0  0  0  0  0
  -22.9880  -24.3845   18.7412 N   0  0  0  0  0  0  0  0  0  0  0  0
  -29.0075  -20.3969   18.8732 N   0  0  0  0  0  0  0  0  0  0  0  0
  -30.5537  -16.4844   21.0392 N   0  0  0  0  0  0  0  0  0  0  0  0
  -28.6071  -12.4127   20.8712 N   0  0  0  0  0  0  0  0  0  0  0  0
  -21.0657  -26.5037   21.0018 N   0  0  0  0  0  0  0  0  0  0  0  0
  -23.2547  -21.7373   16.6486 N   0  0  0  0  0  0  0  0  0  0  0  0
  -30.2307  -22.3860   18.4928 N   0  0  0  0  0  0  0  0  0  0  0  0
  -25.2907  -22.2678   13.7090 N   0  3  0  0  0  0  0  0  0  0  0  0
  -30.5655  -13.5238   21.3061 O   0  0  0  0  0  0  0  0  0  0  0  0
  -22.2992  -24.5384   21.1983 O   0  0  0  0  0  0  0  0  0  0  0  0
  -21.1483  -23.2686   17.8430 O   0  0  0  0  0  0  0  0  0  0  0  0
  -25.5436  -22.0803   16.5050 O   0  0  0  0  0  0  0  0  0  0  0  0
  -31.2498  -20.3434   18.2836 O   0  0  0  0  0  0  0  0  0  0  0  0
  -23.2943  -11.3534   19.5726 O   0  0  0  0  0  0  0  0  0  0  0  0
  -28.3636  -26.9740   20.3064 O   0  0  0  0  0  0  0  0  0  1  0  0
  -22.7514   -7.3588   23.3346 F   0  0  0  0  0  0  0  0  0  0  0  0
  -20.9490  -11.0660   21.0079 F   0  0  0  0  0  0  0  0  0  0  0  0
  1  2  1  0  0  0  0
  1  5  2  0  0  0  0
  2  6  2  0  0  0  0
  3  8  2  0  0  0  0
  3 16  1  0  0  0  0
  4  9  1  0  0  0  0
  4 16  2  0  0  0  0
  5 18  1  0  0  0  0
  6 20  1  0  0  0  0
  7 10  2  0  0  0  0
  7 19  1  0  0  0  0
  8 22  1  0  0  0  0
  9 22  2  0  0  0  0
 10 23  1  0  0  0  0
 11 12  2  0  0  0  0
 11 24  1  0  0  0  0
 12 25  1  0  0  0  0
 13 21  1  0  0  0  0
 13 23  2  0  0  0  0
 14 25  2  0  0  0  0
 14 26  1  0  0  0  0
 15 28  2  0  0  0  0
 15 29  1  0  0  0  0
 16 27  1  0  0  0  0
 17 27  1  0  0  0  0
 17 30  2  0  0  0  0
 17 31  1  0  0  0  0
 18 20  2  0  0  0  0
 18 36  1  0  0  0  0
 19 21  2  0  0  0  0
 19 37  1  0  0  0  0
 20 47  1  0  0  0  0
 21 38  1  0  0  0  0
 22 80  1  0  0  0  0
 23 81  1  0  0  0  0
 24 26  2  0  0  0  0
 24 80  1  0  0  0  0
 25 82  1  0  0  0  0
 26 83  1  0  0  0  0
 27 63  2  0  0  0  0
 28 50  1  0  0  0  0
 28 65  1  0  0  0  0
 29 57  1  0  0  0  0
 29 64  2  0  0  0  0
 30 66  1  0  0  0  0
 30 69  1  0  0  0  0
 31 70  1  0  0  0  0
 31 75  2  0  0  0  0
 32 48  1  0  0  0  0
 32 71  1  0  0  0  0
 32 76  2  0  0  0  0
 33 60  1  0  0  0  0
 33 67  1  0  0  0  0
 33 77  2  0  0  0  0
 34 61  1  0  0  0  0
 34 72  1  0  0  0  0
 34 78  2  0  0  0  0
 35 68  1  0  0  0  0
 35 73  1  0  0  0  0
 35 79  2  0  0  0  0
 36 39  1  0  0  0  0
 37 48  1  0  0  0  0
 38 67  1  0  0  0  0
 39 41  1  0  0  0  0
 40 42  1  0  0  0  0
 40 45  1  0  0  0  0
 41 47  1  0  0  0  0
 42 49  1  0  0  0  0
 43 44  1  0  0  0  0
 43 50  1  0  0  0  0
 44 50  1  0  0  0  0
 45 68  1  0  0  0  0
 46 49  1  0  0  0  0
 46 68  1  0  0  0  0
 47 71  1  0  0  0  0
 48 67  1  0  0  0  0
 49 66  1  0  0  0  0
 50 51  1  0  0  0  0
 52 61  1  0  0  0  0
 53 62  1  0  0  0  0
 54 62  1  0  0  0  0
 55 62  1  0  0  0  0
 56 74  1  0  0  0  0
 57 73  1  0  0  0  0
 58 59  1  0  0  0  0
 58 65  1  0  0  0  0
 59 81  1  0  0  0  0
 60 62  1  0  0  0  0
 60 72  1  0  0  0  0
 61 74  1  0  0  0  0
 63 66  1  0  0  0  0
 64 65  1  0  0  0  0
M  CHG  1  74   1
M  ISO  4  35 100  59 101  73 100  81 101
M  END
> <Batch ID>
0183

> <Smiles>
CNC(C)C(=O)NC(C(=O)N1Cc2cc([101O:1][101CH2:1]Cn3nc(C[100NH:0][100C:0](=O)N4CCCC(n5nc(-c6ccc(Oc7ccc(F)cc7F)cc6)c(C(N)=O)c5N)C4)cc3C3(C)CC3)ccc2CC1C(=O)NC1CCCc2ccccc21)C(C)(C)C

> <Shape>
0.278

> <Color>
0.081

> <Negative vol penalty>
0.000

$$$$

  -OEChem-04052323073D

 89 98  0     1  0  0  0  0  0999 V2000
  -27.5167  -11.9579   17.3477 C   0  0  0  0  0  0  0  0  0  0  0  0
  -26.3705  -12.6062   16.8989 C   0  0  0  0  0  0  0  0  0  0  0  0
  -27.4316  -21.9816   21.5692 C   0  0  0  0  0  0  0  0  0  0  0  0
  -29.4926  -23.0437   20.8901 C   0  0  0  0  0  0  0  0  0  0  0  0
  -27.7028  -11.7378   18.7118 C   0  0  0  0  0  0  0  0  0  0  0  0
  -25.4091  -13.0336   17.8140 C   0  0  0  0  0  0  0  0  0  0  0  0
  -22.4278  -20.1606   18.9739 C   0  0  0  0  0  0  0  0  0  0  0  0
  -27.9433  -20.7424   21.1841 C   0  0  0  0  0  0  0  0  0  0  0  0
  -30.0043  -21.8045   20.5050 C   0  0  0  0  0  0  0  0  0  0  0  0
  -21.9415  -21.4039   19.3788 C   0  0  0  0  0  0  0  0  0  0  0  0
  -28.4061  -19.0231   18.3112 C   0  0  0  0  0  0  0  0  0  0  0  0
  -27.5745  -18.1800   17.5742 C   0  0  0  0  0  0  0  0  0  0  0  0
  -22.0201  -28.9596   21.0289 C   0  0  0  0  0  0  0  0  0  0  0  0
  -21.5880  -20.5498   21.6134 C   0  0  0  0  0  0  0  0  0  0  0  0
  -27.7391  -16.5036   19.3061 C   0  0  0  0  0  0  0  0  0  0  0  0
  -28.2063  -23.1322   21.4221 C   0  0  0  0  0  0  0  0  0  0  0  0
  -23.1886  -29.6779   21.2572 C   0  0  0  0  0  0  0  0  0  0  0  0
  -27.2480  -24.7933   23.1045 C   0  0  0  0  0  0  0  0  0  0  0  0
  -26.7477  -12.1714   19.6448 C   0  0  0  0  0  0  0  0  0  0  0  0
  -22.5105  -19.1103   19.8923 C   0  0  0  0  0  0  0  0  0  0  0  0
  -25.5819  -12.8179   19.1918 C   0  0  0  0  0  0  0  0  0  0  0  0
  -22.0859  -19.3058   21.2168 C   0  0  0  0  0  0  0  0  0  0  0  0
  -23.5109  -30.0779   22.5493 C   0  0  0  0  0  0  0  0  0  0  0  0
  -29.2296  -20.6539   20.6521 C   0  0  0  0  0  0  0  0  0  0  0  0
  -21.5224  -21.5978   20.6953 C   0  0  0  0  0  0  0  0  0  0  0  0
  -28.9044  -18.6064   19.5456 C   0  0  0  0  0  0  0  0  0  0  0  0
  -27.2409  -16.9203   18.0717 C   0  0  0  0  0  0  0  0  0  0  0  0
  -28.5709  -17.3467   20.0431 C   0  0  0  0  0  0  0  0  0  0  0  0
  -27.6781  -24.4127   21.8192 C   0  0  0  0  0  0  0  0  0  0  0  0
  -21.2143  -28.6689   22.1179 C   0  0  0  0  0  0  0  0  0  0  0  0
  -22.6384  -29.7372   23.5704 C   0  0  0  0  0  0  0  0  0  0  0  0
  -26.8394  -26.0964   22.9579 C   0  0  0  0  0  0  0  0  0  0  0  0
  -24.0599  -29.9985   20.1193 C   0  0  0  0  0  0  0  0  0  0  0  0
  -27.2204  -24.0366   24.3220 C   0  0  0  0  0  0  0  0  0  0  0  0
  -23.4704  -15.5396   20.5284 C   0  0  0  0  0  0  0  0  0  0  0  0
  -24.3536  -17.1509   22.9848 C   0  0  0  0  0  0  0  0  0  0  0  0
  -25.8285  -19.2739   24.7793 C   0  0  0  0  0  0  0  0  0  0  0  0
  -26.9703  -11.8687   21.1055 C   0  0  0  0  0  0  0  0  0  0  0  0
  -22.9701  -17.7367   19.4849 C   0  0  0  0  0  0  0  0  0  0  0  0
  -22.1606  -18.1374   22.1614 C   0  0  0  0  0  0  0  0  0  0  0  0
  -26.0813  -12.6861   22.0392 C   0  0  0  0  0  0  0  0  0  0  0  0
  -27.4190  -29.3307   19.1134 C   0  0  0  0  0  0  0  0  0  0  0  0
  -24.6383  -12.6786   21.5446 C   0  0  0  0  0  0  0  0  0  0  0  0
  -27.7471  -28.0123   19.8165 C   0  0  0  0  0  0  0  0  0  0  0  0
  -18.5659  -26.4549   23.3383 C   0  0  0  0  0  0  0  0  0  0  0  0
  -25.9608  -29.3823   18.6644 C   0  0  0  0  0  0  0  0  0  0  0  0
  -18.2269  -27.9145   23.5819 C   0  0  0  0  0  0  0  0  0  0  0  0
  -25.3055  -27.7985   20.4440 C   0  0  0  0  0  0  0  0  0  0  0  0
  -24.5280  -13.3185   20.1554 C   0  0  1  0  0  0  0  0  0  0  0  0
  -19.9283  -27.8849   21.9062 C   0  0  1  0  0  0  0  0  0  0  0  0
  -23.7572  -17.0111   20.5908 C   0  0  1  0  0  0  0  0  0  0  0  0
  -26.7529  -27.7263   20.9577 C   0  0  1  0  0  0  0  0  0  0  0  0
  -19.9260  -26.5412   22.6627 C   0  0  2  0  0  0  0  0  0  0  0  0
  -24.7574  -30.8497   22.8275 C   0  0  0  0  0  0  0  0  0  0  0  0
  -22.9313  -30.1391   24.9789 C   0  0  0  0  0  0  0  0  0  0  0  0
  -27.0829  -20.6413   26.4688 C   0  0  0  0  0  0  0  0  0  0  0  0
  -17.3389  -30.4240   23.0435 C   0  0  0  0  0  0  0  0  0  0  0  0
  -18.6314  -30.4598   20.8816 C   0  0  0  0  0  0  0  0  0  0  0  0
  -21.8795  -16.1824   24.4830 C   0  0  0  0  0  0  0  0  0  0  0  0
  -22.8455  -17.1684   26.5718 C   0  0  0  0  0  0  0  0  0  0  0  0
  -24.0488  -15.3304   25.3900 C   0  0  0  0  0  0  0  0  0  0  0  0
  -28.4457  -18.4984   23.6356 C   0  0  0  0  0  0  0  0  0  0  0  0
  -21.5214  -25.1604   21.3380 C   0  0  0  0  0  0  0  0  0  0  0  0
  -21.5820  -23.9591   20.4154 C   0  0  0  0  0  0  0  0  0  1  0  0
  -24.0059  -17.6421   24.3673 C   0  0  1  0  0  0  0  0  0  0  0  0
  -27.1315  -19.4374   25.5409 C   0  0  2  0  0  0  0  0  0  0  0  0
  -18.6034  -29.9770   22.3243 C   0  0  0  0  0  0  0  0  0  0  0  0
  -23.1907  -16.5970   25.1800 C   0  0  0  0  0  0  0  0  0  0  0  0
  -27.5541  -25.3945   20.9222 N   0  0  0  0  0  0  0  0  0  0  0  0
  -21.4944  -29.0405   23.3873 N   0  0  0  0  0  0  0  0  0  0  0  0
  -27.0414  -26.4049   21.6448 N   0  0  0  0  0  0  0  0  0  0  0  0
  -25.0646  -29.0884   19.7821 N   0  0  0  0  0  0  0  0  0  0  0  0
  -23.4279  -17.4154   21.9682 N   0  0  0  0  0  0  0  0  0  0  0  0
  -18.6695  -28.5299   22.3361 N   0  0  2  0  0  0  0  0  0  0  0  0
  -26.3306  -26.9969   23.8254 N   0  0  0  0  0  0  0  0  0  0  0  0
  -28.3464  -24.0712   25.1558 N   0  0  0  0  0  0  0  0  0  0  0  0
  -24.5796  -14.7611   20.2580 N   0  0  0  0  0  0  0  0  0  0  0  0
  -25.2658  -18.0329   24.9905 N   0  0  0  0  0  0  0  0  0  0  0  0
  -20.1112  -25.4041   21.7332 N   0  3  0  0  0  0  0  0  0  0  0  0
  -28.2664  -19.6206   24.5924 N   0  3  0  0  0  0  0  0  0  0  0  0
  -23.8401  -31.0669   19.5507 O   0  0  0  0  0  0  0  0  0  0  0  0
  -26.2330  -23.3372   24.6525 O   0  0  0  0  0  0  0  0  0  0  0  0
  -22.3273  -15.1384   20.7134 O   0  0  0  0  0  0  0  0  0  0  0  0
  -25.4138  -16.5438   22.8094 O   0  0  0  0  0  0  0  0  0  0  0  0
  -25.3552  -20.1599   24.0711 O   0  0  0  0  0  0  0  0  0  0  0  0
  -29.7293  -19.4448   20.2764 O   0  0  0  0  0  0  0  0  0  0  0  0
  -21.0530  -22.8154   21.0850 O   0  0  0  0  0  0  0  0  0  1  0  0
  -26.4410  -16.1114   17.3646 F   0  0  0  0  0  0  0  0  0  0  0  0
  -29.0455  -16.9413   21.2289 F   0  0  0  0  0  0  0  0  0  0  0  0
  1  2  1  0  0  0  0
  1  5  2  0  0  0  0
  2  6  2  0  0  0  0
  3  8  2  0  0  0  0
  3 16  1  0  0  0  0
  4  9  1  0  0  0  0
  4 16  2  0  0  0  0
  5 19  1  0  0  0  0
  6 21  1  0  0  0  0
  7 10  2  0  0  0  0
  7 20  1  0  0  0  0
  8 24  1  0  0  0  0
  9 24  2  0  0  0  0
 10 25  1  0  0  0  0
 11 12  2  0  0  0  0
 11 26  1  0  0  0  0
 12 27  1  0  0  0  0
 13 17  2  0  0  0  0
 13 30  1  0  0  0  0
 14 22  1  0  0  0  0
 14 25  2  0  0  0  0
 15 27  2  0  0  0  0
 15 28  1  0  0  0  0
 16 29  1  0  0  0  0
 17 23  1  0  0  0  0
 17 33  1  0  0  0  0
 18 29  1  0  0  0  0
 18 32  2  0  0  0  0
 18 34  1  0  0  0  0
 19 21  2  0  0  0  0
 19 38  1  0  0  0  0
 20 22  2  0  0  0  0
 20 39  1  0  0  0  0
 21 49  1  0  0  0  0
 22 40  1  0  0  0  0
 23 31  2  0  0  0  0
 23 54  1  0  0  0  0
 24 86  1  0  0  0  0
 25 87  1  0  0  0  0
 26 28  2  0  0  0  0
 26 86  1  0  0  0  0
 27 88  1  0  0  0  0
 28 89  1  0  0  0  0
 29 69  2  0  0  0  0
 30 50  1  0  0  0  0
 30 70  2  0  0  0  0
 31 55  1  0  0  0  0
 31 70  1  0  0  0  0
 32 71  1  0  0  0  0
 32 75  1  0  0  0  0
 33 72  1  0  0  0  0
 33 81  2  0  0  0  0
 34 76  1  0  0  0  0
 34 82  2  0  0  0  0
 35 51  1  0  0  0  0
 35 77  1  0  0  0  0
 35 83  2  0  0  0  0
 36 65  1  0  0  0  0
 36 73  1  0  0  0  0
 36 84  2  0  0  0  0
 37 66  1  0  0  0  0
 37 78  1  0  0  0  0
 37 85  2  0  0  0  0
 38 41  1  0  0  0  0
 39 51  1  0  0  0  0
 40 73  1  0  0  0  0
 41 43  1  0  0  0  0
 42 44  1  0  0  0  0
 42 46  1  0  0  0  0
 43 49  1  0  0  0  0
 44 52  1  0  0  0  0
 45 47  1  0  0  0  0
 45 53  1  0  0  0  0
 46 72  1  0  0  0  0
 47 74  1  0  0  0  0
 48 52  1  0  0  0  0
 48 72  1  0  0  0  0
 49 77  1  0  0  0  0
 50 53  1  0  0  0  0
 50 74  1  0  0  0  0
 51 73  1  0  0  0  0
 52 71  1  0  0  0  0
 53 79  1  0  0  0  0
 56 66  1  0  0  0  0
 57 67  1  0  0  0  0
 58 67  1  0  0  0  0
 59 68  1  0  0  0  0
 60 68  1  0  0  0  0
 61 68  1  0  0  0  0
 62 80  1  0  0  0  0
 63 64  1  0  0  0  0
 63 79  1  0  0  0  0
 64 87  1  0  0  0  0
 65 68  1  0  0  0  0
 65 78  1  0  0  0  0
 66 80  1  0  0  0  0
 67 74  1  0  0  0  0
 69 71  1  0  0  0  0
M  CHG  2  79   1  80   1
M  ISO  4  17 100  33 100  64 101  87 101
M  END
> <Batch ID>
0183

> <Smiles>
CNC(C)C(=O)NC(C(=O)N1Cc2cc([101O:1][101CH2:1]CNC3CCN(C(C)C)C3c3c[100c:0]([100C:0](=O)N4CCCC(n5nc(-c6ccc(Oc7ccc(F)cc7F)cc6)c(C(N)=O)c5N)C4)c(C)c(C)n3)ccc2CC1C(=O)NC1CCCc2ccccc21)C(C)(C)C

> <Shape>
0.221

> <Color>
0.070

> <Negative vol penalty>
0.000

$$$$

  -OEChem-04052323073D

 87 96  0     1  0  0  0  0  0999 V2000
  -20.2830  -34.5329   21.8008 C   0  0  0  0  0  0  0  0  0  0  0  0
  -21.4848  -33.9897   21.3580 C   0  0  0  0  0  0  0  0  0  0  0  0
  -23.5586  -10.1652   20.1950 C   0  0  0  0  0  0  0  0  0  0  0  0
  -23.9715   -9.7555   22.5400 C   0  0  0  0  0  0  0  0  0  0  0  0
  -19.5625  -33.8975   22.8113 C   0  0  0  0  0  0  0  0  0  0  0  0
  -21.9674  -32.8113   21.9264 C   0  0  0  0  0  0  0  0  0  0  0  0
  -25.0889  -28.3677   19.0951 C   0  0  0  0  0  0  0  0  0  0  0  0
  -23.1945   -8.8294   20.0257 C   0  0  0  0  0  0  0  0  0  0  0  0
  -23.6073   -8.4197   22.3706 C   0  0  0  0  0  0  0  0  0  0  0  0
  -26.4506  -28.0775   19.0229 C   0  0  0  0  0  0  0  0  0  0  0  0
  -20.7514   -6.6330   22.1021 C   0  0  0  0  0  0  0  0  0  0  0  0
  -19.9009   -6.0692   23.0530 C   0  0  0  0  0  0  0  0  0  0  0  0
  -26.2048  -26.5020   20.8329 C   0  0  0  0  0  0  0  0  0  0  0  0
  -21.5873   -4.4230   23.5852 C   0  0  0  0  0  0  0  0  0  0  0  0
  -23.9472  -10.6282   21.4522 C   0  0  0  0  0  0  0  0  0  0  0  0
  -23.4802  -13.0833   21.9642 C   0  0  0  0  0  0  0  0  0  0  0  0
  -20.0317  -32.7056   23.3855 C   0  0  0  0  0  0  0  0  0  0  0  0
  -24.2756  -27.7341   20.0457 C   0  0  0  0  0  0  0  0  0  0  0  0
  -21.2532  -32.1601   22.9464 C   0  0  0  0  0  0  0  0  0  0  0  0
  -24.8326  -26.7839   20.9135 C   0  0  0  0  0  0  0  0  0  0  0  0
  -29.9056  -22.3087   19.0628 C   0  0  0  0  0  0  0  0  0  0  0  0
  -23.2188   -7.9567   21.1135 C   0  0  0  0  0  0  0  0  0  0  0  0
  -27.0094  -27.1467   19.8938 C   0  0  0  0  0  0  0  0  0  0  0  0
  -22.0199   -6.0918   21.8926 C   0  0  0  0  0  0  0  0  0  0  0  0
  -20.3189   -4.9642   23.7946 C   0  0  0  0  0  0  0  0  0  0  0  0
  -22.4378   -4.9868   22.6342 C   0  0  0  0  0  0  0  0  0  0  0  0
  -24.3240  -12.0079   21.6276 C   0  0  0  0  0  0  0  0  0  0  0  0
  -30.7421  -21.2167   18.9520 C   0  0  0  0  0  0  0  0  0  0  0  0
  -30.3744  -23.4792   18.5020 C   0  0  0  0  0  0  0  0  0  0  0  0
  -24.3146  -14.1734   22.0087 C   0  0  0  0  0  0  0  0  0  0  0  0
  -32.2898  -22.4522   17.8360 C   0  0  0  0  0  0  0  0  0  0  0  0
  -22.0685  -13.0958   22.2145 C   0  0  0  0  0  0  0  0  0  0  0  0
  -22.5165  -28.7161   22.5043 C   0  0  0  0  0  0  0  0  0  0  0  0
  -21.6055  -25.6041   22.5936 C   0  0  0  0  0  0  0  0  0  0  0  0
  -22.3179  -22.3539   21.8350 C   0  0  0  0  0  0  0  0  0  0  0  0
  -28.2662  -17.1810   19.6895 C   0  0  0  0  0  0  0  0  0  0  0  0
  -19.2416  -32.0804   24.5079 C   0  0  0  0  0  0  0  0  0  0  0  0
  -22.8033  -28.0384   20.0930 C   0  0  0  0  0  0  0  0  0  0  0  0
  -23.9988  -26.0611   21.9385 C   0  0  0  0  0  0  0  0  0  0  0  0
  -19.6347  -30.6340   24.7975 C   0  0  0  0  0  0  0  0  0  0  0  0
  -29.3402  -14.4981   21.9452 C   0  0  0  0  0  0  0  0  0  0  0  0
  -21.1525  -30.4958   24.8610 C   0  0  0  0  0  0  0  0  0  0  0  0
  -28.0656  -13.6661   22.0381 C   0  0  0  0  0  0  0  0  0  0  0  0
  -30.3817  -18.3961   17.3813 C   0  0  0  0  0  0  0  0  0  0  0  0
  -29.5176  -15.1387   20.5680 C   0  0  0  0  0  0  0  0  0  0  0  0
  -30.4041  -17.0931   18.1864 C   0  0  0  0  0  0  0  0  0  0  0  0
  -27.0620  -15.0915   20.2201 C   0  0  0  0  0  0  0  0  0  0  0  0
  -21.7971  -30.8701   23.5209 C   0  0  1  0  0  0  0  0  0  0  0  0
  -22.1689  -27.7124   21.4415 C   0  0  1  0  0  0  0  0  0  0  0  0
  -26.8464  -14.5019   21.6210 C   0  0  1  0  0  0  0  0  0  0  0  0
  -29.5781  -19.0379   18.5226 C   0  0  2  0  0  0  0  0  0  0  0  0
  -33.6137  -22.5318   17.1547 C   0  0  0  0  0  0  0  0  0  0  0  0
  -28.6103  -22.8263   21.1463 C   0  0  0  0  0  0  0  0  0  0  0  0
  -21.4000  -20.0300   22.0677 C   0  0  0  0  0  0  0  0  0  0  0  0
  -22.4160  -25.5812   25.5351 C   0  0  0  0  0  0  0  0  0  0  0  0
  -22.3853  -23.0791   25.4520 C   0  0  0  0  0  0  0  0  0  0  0  0
  -20.2901  -24.3651   25.0293 C   0  0  0  0  0  0  0  0  0  0  0  0
  -22.1984  -21.9824   18.9013 C   0  0  0  0  0  0  0  0  0  0  0  0
  -28.5852  -22.2192   19.7448 C   0  0  0  0  0  0  0  0  0  0  0  0
  -30.3379  -19.8823   19.5267 C   0  0  0  0  0  0  0  0  0  0  0  0
  -30.0802  -25.9558   18.4285 C   0  0  0  0  0  0  0  0  0  0  0  0
  -28.9642  -26.9798   18.5496 C   0  0  0  0  0  0  0  0  0  1  0  0
  -22.1156  -24.3601   23.2801 C   0  0  1  0  0  0  0  0  0  0  0  0
  -21.4836  -21.2652   21.1845 C   0  0  2  0  0  0  0  0  0  0  0  0
  -21.8181  -24.3612   24.8062 C   0  0  0  0  0  0  0  0  0  0  0  0
  -25.5967  -12.3809   21.4692 N   0  0  0  0  0  0  0  0  0  0  0  0
  -31.9454  -21.2530   18.3430 N   0  0  0  0  0  0  0  0  0  0  0  0
  -31.5661  -23.5871   17.8789 N   0  0  0  0  0  0  0  0  0  0  0  0
  -25.5588  -13.7030   21.7073 N   0  0  0  0  0  0  0  0  0  0  0  0
  -22.5655  -26.3977   21.9498 N   0  0  0  0  0  0  0  0  0  0  0  0
  -28.3117  -15.8565   20.1381 N   0  0  0  0  0  0  0  0  0  0  0  0
  -29.3618  -17.6767   19.0181 N   0  0  0  0  0  0  0  0  0  0  0  0
  -24.0980  -15.4789   22.2757 N   0  0  0  0  0  0  0  0  0  0  0  0
  -21.3637  -11.8875   22.1267 N   0  0  0  0  0  0  0  0  0  0  0  0
  -29.5606  -24.6361   18.5833 N   0  0  0  0  0  0  0  0  0  0  0  0
  -21.6489  -29.7897   22.5695 N   0  0  0  0  0  0  0  0  0  0  0  0
  -21.5384  -23.2304   22.5597 N   0  0  0  0  0  0  0  0  0  0  0  0
  -22.0782  -20.8685   19.8769 N   0  3  0  0  0  0  0  0  0  0  0  0
  -21.4476  -14.1500   22.4912 O   0  0  0  0  0  0  0  0  0  0  0  0
  -23.4982  -28.5295   23.2136 O   0  0  0  0  0  0  0  0  0  0  0  0
  -20.3988  -25.8584   22.6212 O   0  0  0  0  0  0  0  0  0  0  0  0
  -23.5394  -22.4180   21.7154 O   0  0  0  0  0  0  0  0  0  0  0  0
  -27.2670  -17.8931   19.8544 O   0  0  0  0  0  0  0  0  0  0  0  0
  -22.8634   -6.6532   20.9487 O   0  0  0  0  0  0  0  0  0  0  0  0
  -28.3477  -26.8602   19.8253 O   0  0  0  0  0  0  0  0  0  1  0  0
  -19.5026   -4.4238   24.7089 F   0  0  0  0  0  0  0  0  0  0  0  0
  -23.6557   -4.4632   22.4383 F   0  0  0  0  0  0  0  0  0  0  0  0
  1  2  1  0  0  0  0
  1  5  2  0  0  0  0
  2  6  2  0  0  0  0
  3  8  2  0  0  0  0
  3 15  1  0  0  0  0
  4  9  1  0  0  0  0
  4 15  2  0  0  0  0
  5 17  1  0  0  0  0
  6 19  1  0  0  0  0
  7 10  2  0  0  0  0
  7 18  1  0  0  0  0
  8 22  1  0  0  0  0
  9 22  2  0  0  0  0
 10 23  1  0  0  0  0
 11 12  2  0  0  0  0
 11 24  1  0  0  0  0
 12 25  1  0  0  0  0
 13 20  1  0  0  0  0
 13 23  2  0  0  0  0
 14 25  2  0  0  0  0
 14 26  1  0  0  0  0
 15 27  1  0  0  0  0
 16 27  1  0  0  0  0
 16 30  2  0  0  0  0
 16 32  1  0  0  0  0
 17 19  2  0  0  0  0
 17 37  1  0  0  0  0
 18 20  2  0  0  0  0
 18 38  1  0  0  0  0
 19 48  1  0  0  0  0
 20 39  1  0  0  0  0
 21 28  1  0  0  0  0
 21 29  2  0  0  0  0
 21 59  1  0  0  0  0
 22 84  1  0  0  0  0
 23 85  1  0  0  0  0
 24 26  2  0  0  0  0
 24 84  1  0  0  0  0
 25 86  1  0  0  0  0
 26 87  1  0  0  0  0
 27 66  2  0  0  0  0
 28 60  1  0  0  0  0
 28 67  2  0  0  0  0
 29 68  1  0  0  0  0
 29 75  1  0  0  0  0
 30 69  1  0  0  0  0
 30 73  1  0  0  0  0
 31 52  1  0  0  0  0
 31 67  1  0  0  0  0
 31 68  2  0  0  0  0
 32 74  1  0  0  0  0
 32 79  2  0  0  0  0
 33 49  1  0  0  0  0
 33 76  1  0  0  0  0
 33 80  2  0  0  0  0
 34 63  1  0  0  0  0
 34 70  1  0  0  0  0
 34 81  2  0  0  0  0
 35 64  1  0  0  0  0
 35 77  1  0  0  0  0
 35 82  2  0  0  0  0
 36 71  1  0  0  0  0
 36 72  1  0  0  0  0
 36 83  2  0  0  0  0
 37 40  1  0  0  0  0
 38 49  1  0  0  0  0
 39 70  1  0  0  0  0
 40 42  1  0  0  0  0
 41 43  1  0  0  0  0
 41 45  1  0  0  0  0
 42 48  1  0  0  0  0
 43 50  1  0  0  0  0
 44 46  1  0  0  0  0
 44 51  1  0  0  0  0
 45 71  1  0  0  0  0
 46 72  1  0  0  0  0
 47 50  1  0  0  0  0
 47 71  1  0  0  0  0
 48 76  1  0  0  0  0
 49 70  1  0  0  0  0
 50 69  1  0  0  0  0
 51 60  1  0  0  0  0
 51 72  1  0  0  0  0
 53 59  1  0  0  0  0
 54 64  1  0  0  0  0
 55 65  1  0  0  0  0
 56 65  1  0  0  0  0
 57 65  1  0  0  0  0
 58 78  1  0  0  0  0
 61 62  1  0  0  0  0
 61 75  1  0  0  0  0
 62 85  1  0  0  0  0
 63 65  1  0  0  0  0
 63 77  1  0  0  0  0
 64 78  1  0  0  0  0
 66 69  1  0  0  0  0
M  CHG  1  78   1
M  ISO  4  36 100  62 101  72 100  85 101
M  END
> <Batch ID>
0183

> <Smiles>
CCc1c(CC2CC[100N:0]2[100C:0](=O)N2CCCC(n3nc(-c4ccc(Oc5ccc(F)cc5F)cc4)c(C(N)=O)c3N)C2)nc(C)nc1NC[101CH2:1][101O:1]c1ccc2c(c1)CN(C(=O)C(NC(=O)C(C)NC)C(C)(C)C)C(C(=O)NC1CCCc3ccccc31)C2

> <Shape>
0.257

> <Color>
0.097

> <Negative vol penalty>
0.000

$$$$

  -OEChem-04052323073D

 81 90  0     1  0  0  0  0  0999 V2000
  -16.9239  -28.1918   24.0041 C   0  0  0  0  0  0  0  0  0  0  0  0
  -17.7149  -27.3014   23.2852 C   0  0  0  0  0  0  0  0  0  0  0  0
  -24.8805  -14.4606   23.5756 C   0  0  0  0  0  0  0  0  0  0  0  0
  -23.7835  -15.7000   21.8156 C   0  0  0  0  0  0  0  0  0  0  0  0
  -17.1824  -29.5604   23.9401 C   0  0  0  0  0  0  0  0  0  0  0  0
  -18.7643  -27.7791   22.5010 C   0  0  0  0  0  0  0  0  0  0  0  0
  -23.0053  -25.0712   23.0721 C   0  0  0  0  0  0  0  0  0  0  0  0
  -24.5129  -15.4421   24.4960 C   0  0  0  0  0  0  0  0  0  0  0  0
  -23.4158  -16.6816   22.7360 C   0  0  0  0  0  0  0  0  0  0  0  0
  -23.0743  -23.8481   22.4064 C   0  0  0  0  0  0  0  0  0  0  0  0
  -21.8782  -19.3348   24.6891 C   0  0  0  0  0  0  0  0  0  0  0  0
  -20.5681  -19.8112   24.6417 C   0  0  0  0  0  0  0  0  0  0  0  0
  -24.4022  -24.8733   20.6730 C   0  0  0  0  0  0  0  0  0  0  0  0
  -19.7419  -17.5815   25.0695 C   0  0  0  0  0  0  0  0  0  0  0  0
  -24.5158  -14.5896   22.2354 C   0  0  0  0  0  0  0  0  0  0  0  0
  -24.1650  -12.4265   20.9295 C   0  0  0  0  0  0  0  0  0  0  0  0
  -18.2415  -30.0544   23.1624 C   0  0  0  0  0  0  0  0  0  0  0  0
  -23.6261  -26.2089   22.5367 C   0  0  0  0  0  0  0  0  0  0  0  0
  -19.0364  -29.1557   22.4255 C   0  0  0  0  0  0  0  0  0  0  0  0
  -24.3418  -26.1090   21.3351 C   0  0  0  0  0  0  0  0  0  0  0  0
  -23.7805  -16.5526   24.0762 C   0  0  0  0  0  0  0  0  0  0  0  0
  -23.7704  -23.7497   21.2052 C   0  0  0  0  0  0  0  0  0  0  0  0
  -22.1202  -17.9817   24.9266 C   0  0  0  0  0  0  0  0  0  0  0  0
  -19.5000  -18.9346   24.8319 C   0  0  0  0  0  0  0  0  0  0  0  0
  -21.0520  -17.1051   25.1168 C   0  0  0  0  0  0  0  0  0  0  0  0
  -24.8957  -13.5763   21.2841 C   0  0  0  0  0  0  0  0  0  0  0  0
  -24.9496  -11.7957   19.9951 C   0  0  0  0  0  0  0  0  0  0  0  0
  -22.8910  -11.9694   21.4023 C   0  0  0  0  0  0  0  0  0  0  0  0
  -22.6159  -29.0445   21.5156 C   0  0  0  0  0  0  0  0  0  0  0  0
  -25.7925  -29.6470   21.2545 C   0  0  0  0  0  0  0  0  0  0  0  0
  -28.9543  -28.4161   20.8875 C   0  0  0  0  0  0  0  0  0  0  0  0
  -28.9794  -15.5474   19.6138 C   0  0  0  0  0  0  0  0  0  0  0  0
  -18.4528  -31.5458   23.0871 C   0  0  0  0  0  0  0  0  0  0  0  0
  -23.5650  -27.5148   23.2806 C   0  0  0  0  0  0  0  0  0  0  0  0
  -25.0428  -27.2961   20.7285 C   0  0  0  0  0  0  0  0  0  0  0  0
  -19.8177  -31.9403   22.5288 C   0  0  0  0  0  0  0  0  0  0  0  0
  -29.2202  -12.1026   20.5316 C   0  0  0  0  0  0  0  0  0  0  0  0
  -29.0297  -17.7392   16.7254 C   0  0  0  0  0  0  0  0  0  0  0  0
  -20.1343  -31.1338   21.2733 C   0  0  0  0  0  0  0  0  0  0  0  0
  -28.2709  -11.3783   19.5835 C   0  0  0  0  0  0  0  0  0  0  0  0
  -28.2854  -18.6437   17.6975 C   0  0  0  0  0  0  0  0  0  0  0  0
  -24.6916  -20.1703   20.3388 C   0  0  0  0  0  0  0  0  0  0  0  0
  -25.9706  -21.4907   21.4241 C   0  0  0  0  0  0  0  0  0  0  0  0
  -29.8987  -13.2661   19.8253 C   0  0  0  0  0  0  0  0  0  0  0  0
  -28.6629  -16.3481   17.2184 C   0  0  0  0  0  0  0  0  0  0  0  0
  -27.9151  -13.5995   18.3622 C   0  0  0  0  0  0  0  0  0  0  0  0
  -20.1994  -29.6334   21.5832 C   0  0  1  0  0  0  0  0  0  0  0  0
  -23.8007  -28.7255   22.3828 C   0  0  1  0  0  0  0  0  0  0  0  0
  -27.2499  -12.3262   18.9340 C   0  0  2  0  0  0  0  0  0  0  0  0
  -26.0172  -19.9825   21.1047 C   0  0  0  0  0  0  0  0  0  0  0  0
  -24.4387  -21.4210   21.2140 C   0  0  0  0  0  0  0  0  0  1  0  0
  -28.4184  -17.9081   19.0339 C   0  0  1  0  0  0  0  0  0  0  0  0
  -31.3426  -29.1545   20.6684 C   0  0  0  0  0  0  0  0  0  0  0  0
  -25.2732  -30.4592   18.3595 C   0  0  0  0  0  0  0  0  0  0  0  0
  -27.7331  -30.2639   17.9366 C   0  0  0  0  0  0  0  0  0  0  0  0
  -26.8812  -31.9322   19.5839 C   0  0  0  0  0  0  0  0  0  0  0  0
  -29.7438  -26.9883   23.3568 C   0  0  0  0  0  0  0  0  0  0  0  0
  -27.2204  -18.1561   19.9415 C   0  0  0  0  0  0  0  0  0  0  0  0
  -26.8280  -29.4734   20.1697 C   0  0  1  0  0  0  0  0  0  0  0  0
  -30.2452  -28.7188   21.6268 C   0  0  2  0  0  0  0  0  0  0  0  0
  -26.6642  -30.5100   19.0226 C   0  0  0  0  0  0  0  0  0  0  0  0
  -26.0554  -13.6728   20.6285 N   0  0  0  0  0  0  0  0  0  0  0  0
  -26.0595  -12.5755   19.8526 N   0  0  0  0  0  0  0  0  0  0  0  0
  -24.9487  -28.5524   21.4904 N   0  0  0  0  0  0  0  0  0  0  0  0
  -28.9285  -14.1949   19.2450 N   0  0  0  0  0  0  0  0  0  0  0  0
  -28.5689  -16.4935   18.6719 N   0  0  0  0  0  0  0  0  0  0  0  0
  -24.7916  -10.6556   19.2897 N   0  0  0  0  0  0  0  0  0  0  0  0
  -22.2199  -12.7382   22.3631 N   0  0  0  0  0  0  0  0  0  0  0  0
  -21.4559  -29.3030   22.2207 N   0  0  0  0  0  0  0  0  0  0  0  0
  -28.1262  -29.5172   20.8339 N   0  0  0  0  0  0  0  0  0  0  0  0
  -27.1415  -19.6008   20.2445 N   0  3  0  0  0  0  0  0  0  0  0  0
  -30.7160  -27.5114   22.3627 N   0  3  0  0  0  0  0  0  0  0  0  0
  -22.3709  -10.9022   20.9974 O   0  0  0  0  0  0  0  0  0  0  0  0
  -22.7448  -29.0567   20.2970 O   0  0  0  0  0  0  0  0  0  0  0  0
  -25.7391  -30.7120   21.8746 O   0  0  0  0  0  0  0  0  0  0  0  0
  -28.7070  -27.3141   20.4027 O   0  0  0  0  0  0  0  0  0  0  0  0
  -29.3832  -15.8954   20.7313 O   0  0  0  0  0  0  0  0  0  0  0  0
  -23.4215  -17.5104   24.9741 O   0  0  0  0  0  0  0  0  0  0  0  0
  -23.8395  -22.5434   20.5456 O   0  0  0  0  0  0  0  0  0  1  0  0
  -18.2420  -19.3925   24.7880 F   0  0  0  0  0  0  0  0  0  0  0  0
  -21.2782  -15.8044   25.3465 F   0  0  0  0  0  0  0  0  0  0  0  0
  1  2  1  0  0  0  0
  1  5  2  0  0  0  0
  2  6  2  0  0  0  0
  3  8  2  0  0  0  0
  3 15  1  0  0  0  0
  4  9  1  0  0  0  0
  4 15  2  0  0  0  0
  5 17  1  0  0  0  0
  6 19  1  0  0  0  0
  7 10  2  0  0  0  0
  7 18  1  0  0  0  0
  8 21  1  0  0  0  0
  9 21  2  0  0  0  0
 10 22  1  0  0  0  0
 11 12  2  0  0  0  0
 11 23  1  0  0  0  0
 12 24  1  0  0  0  0
 13 20  1  0  0  0  0
 13 22  2  0  0  0  0
 14 24  2  0  0  0  0
 14 25  1  0  0  0  0
 15 26  1  0  0  0  0
 16 26  1  0  0  0  0
 16 27  2  0  0  0  0
 16 28  1  0  0  0  0
 17 19  2  0  0  0  0
 17 33  1  0  0  0  0
 18 20  2  0  0  0  0
 18 34  1  0  0  0  0
 19 47  1  0  0  0  0
 20 35  1  0  0  0  0
 21 78  1  0  0  0  0
 22 79  1  0  0  0  0
 23 25  2  0  0  0  0
 23 78  1  0  0  0  0
 24 80  1  0  0  0  0
 25 81  1  0  0  0  0
 26 62  2  0  0  0  0
 27 63  1  0  0  0  0
 27 67  1  0  0  0  0
 28 68  1  0  0  0  0
 28 73  2  0  0  0  0
 29 48  1  0  0  0  0
 29 69  1  0  0  0  0
 29 74  2  0  0  0  0
 30 59  1  0  0  0  0
 30 64  1  0  0  0  0
 30 75  2  0  0  0  0
 31 60  1  0  0  0  0
 31 70  1  0  0  0  0
 31 76  2  0  0  0  0
 32 65  1  0  0  0  0
 32 66  1  0  0  0  0
 32 77  2  0  0  0  0
 33 36  1  0  0  0  0
 34 48  1  0  0  0  0
 35 64  1  0  0  0  0
 36 39  1  0  0  0  0
 37 40  1  0  0  0  0
 37 44  1  0  0  0  0
 38 41  1  0  0  0  0
 38 45  1  0  0  0  0
 39 47  1  0  0  0  0
 40 49  1  0  0  0  0
 41 52  1  0  0  0  0
 42 50  1  0  0  0  0
 42 51  1  0  0  0  0
 43 50  1  0  0  0  0
 43 51  1  0  0  0  0
 44 65  1  0  0  0  0
 45 66  1  0  0  0  0
 46 49  1  0  0  0  0
 46 65  1  0  0  0  0
 47 69  1  0  0  0  0
 48 64  1  0  0  0  0
 49 63  1  0  0  0  0
 50 71  1  0  0  0  0
 51 79  1  0  0  0  0
 52 58  1  0  0  0  0
 52 66  1  0  0  0  0
 53 60  1  0  0  0  0
 54 61  1  0  0  0  0
 55 61  1  0  0  0  0
 56 61  1  0  0  0  0
 57 72  1  0  0  0  0
 58 71  1  0  0  0  0
 59 61  1  0  0  0  0
 59 70  1  0  0  0  0
 60 72  1  0  0  0  0
 62 63  1  0  0  0  0
M  CHG  2  71   1  72   1
M  ISO  4  32 100  51 101  66 100  79 101
M  END
> <Batch ID>
0183

> <Smiles>
CNC(C)C(=O)NC(C(=O)N1Cc2cc([101O:1][101CH:1]3CC(NCC4CCC[100N:0]4[100C:0](=O)N4CCCC(n5nc(-c6ccc(Oc7ccc(F)cc7F)cc6)c(C(N)=O)c5N)C4)C3)ccc2CC1C(=O)NC1CCCc2ccccc21)C(C)(C)C

> <Shape>
0.217

> <Color>
0.094

> <Negative vol penalty>
0.000

$$$$

  -OEChem-04052323073D

 84 94  0     1  0  0  0  0  0999 V2000
  -25.9885  -10.7832   21.5313 C   0  0  0  0  0  0  0  0  0  0  0  0
  -26.9915  -11.7467   21.5661 C   0  0  0  0  0  0  0  0  0  0  0  0
  -19.7310  -28.5821   23.6605 C   0  0  0  0  0  0  0  0  0  0  0  0
  -20.7570  -27.0945   22.0570 C   0  0  0  0  0  0  0  0  0  0  0  0
  -24.8243  -11.0167   20.8005 C   0  0  0  0  0  0  0  0  0  0  0  0
  -26.8312  -12.9439   20.8693 C   0  0  0  0  0  0  0  0  0  0  0  0
  -28.5355  -19.8917   21.2419 C   0  0  0  0  0  0  0  0  0  0  0  0
  -18.5120  -28.4604   22.9936 C   0  0  0  0  0  0  0  0  0  0  0  0
  -19.5380  -26.9727   21.3900 C   0  0  0  0  0  0  0  0  0  0  0  0
  -29.1233  -20.8990   20.4779 C   0  0  0  0  0  0  0  0  0  0  0  0
  -16.6433  -25.2741   21.7852 C   0  0  0  0  0  0  0  0  0  0  0  0
  -16.2423  -23.9950   21.3995 C   0  0  0  0  0  0  0  0  0  0  0  0
  -27.0358  -21.2258   19.3139 C   0  0  0  0  0  0  0  0  0  0  0  0
  -16.2094  -24.7019   19.0894 C   0  0  0  0  0  0  0  0  0  0  0  0
  -30.2271  -26.0818   19.1699 C   0  0  0  0  0  0  0  0  0  0  0  0
  -20.8535  -27.8992   23.1922 C   0  0  0  0  0  0  0  0  0  0  0  0
  -22.5913  -27.2208   24.9322 C   0  0  0  0  0  0  0  0  0  0  0  0
  -24.6455  -12.2213   20.1023 C   0  0  0  0  0  0  0  0  0  0  0  0
  -27.1943  -19.5358   21.0398 C   0  0  0  0  0  0  0  0  0  0  0  0
  -25.6640  -13.1931   20.1274 C   0  0  0  0  0  0  0  0  0  0  0  0
  -26.4327  -20.2154   20.0784 C   0  0  0  0  0  0  0  0  0  0  0  0
  -29.3310  -27.0822   18.8825 C   0  0  0  0  0  0  0  0  0  0  0  0
  -18.4155  -27.6556   21.8583 C   0  0  0  0  0  0  0  0  0  0  0  0
  -28.3742  -21.5643   19.5117 C   0  0  0  0  0  0  0  0  0  0  0  0
  -16.8273  -26.2672   20.8230 C   0  0  0  0  0  0  0  0  0  0  0  0
  -16.0254  -23.7089   20.0516 C   0  0  0  0  0  0  0  0  0  0  0  0
  -16.6103  -25.9810   19.4751 C   0  0  0  0  0  0  0  0  0  0  0  0
  -22.1131  -28.0251   23.8804 C   0  0  0  0  0  0  0  0  0  0  0  0
  -28.6943  -26.6557   17.7016 C   0  0  0  0  0  0  0  0  0  0  0  0
  -23.8243  -27.7459   25.2328 C   0  0  0  0  0  0  0  0  0  0  0  0
  -21.9759  -26.0993   25.5796 C   0  0  0  0  0  0  0  0  0  0  0  0
  -25.6885  -16.8880   20.1313 C   0  0  0  0  0  0  0  0  0  0  0  0
  -23.0375  -18.6223   20.8289 C   0  0  0  0  0  0  0  0  0  0  0  0
  -21.6005  -21.6955   21.1996 C   0  0  0  0  0  0  0  0  0  0  0  0
  -28.3402  -30.2180   22.4246 C   0  0  0  0  0  0  0  0  0  0  0  0
  -23.3901  -12.4088   19.2877 C   0  0  0  0  0  0  0  0  0  0  0  0
  -26.5676  -18.4654   21.8906 C   0  0  0  0  0  0  0  0  0  0  0  0
  -24.9833  -19.8850   19.8365 C   0  0  0  0  0  0  0  0  0  0  0  0
  -23.1377  -13.8588   18.8826 C   0  0  0  0  0  0  0  0  0  0  0  0
  -26.0635  -32.0675   24.5051 C   0  0  0  0  0  0  0  0  0  0  0  0
  -24.4148  -14.4911   18.3384 C   0  0  0  0  0  0  0  0  0  0  0  0
  -26.1618  -27.2717   17.4200 C   0  0  0  0  0  0  0  0  0  0  0  0
  -26.6069  -26.6884   16.1154 C   0  0  0  0  0  0  0  0  0  0  0  0
  -24.8362  -31.1686   24.6133 C   0  0  0  0  0  0  0  0  0  0  0  0
  -26.7164  -31.9342   23.1358 C   0  0  0  0  0  0  0  0  0  0  0  0
  -27.7417  -28.5945   20.4583 C   0  0  0  0  0  0  0  0  0  0  0  0
  -29.7668  -28.5793   21.0843 C   0  0  0  0  0  0  0  0  0  0  0  0
  -25.9143  -29.5961   22.9261 C   0  0  0  0  0  0  0  0  0  0  0  0
  -29.0831  -28.4129   19.7076 C   0  0  0  0  0  0  0  0  0  0  0  0
  -25.5166  -14.5145   19.4048 C   0  0  1  0  0  0  0  0  0  0  0  0
  -27.6008  -27.4411   16.9766 C   0  0  0  0  0  0  0  0  0  0  0  0
  -25.3381  -17.8330   21.2457 C   0  0  1  0  0  0  0  0  0  0  0  0
  -25.2060  -29.7138   24.2903 C   0  0  2  0  0  0  0  0  0  0  0  0
  -19.4088  -22.7934   21.7369 C   0  0  0  0  0  0  0  0  0  0  0  0
  -22.0280  -17.9747   18.0233 C   0  0  0  0  0  0  0  0  0  0  0  0
  -20.3582  -19.8233   18.2729 C   0  0  0  0  0  0  0  0  0  0  0  0
  -20.2835  -17.8614   19.8117 C   0  0  0  0  0  0  0  0  0  0  0  0
  -22.7191  -23.0185   23.5990 C   0  0  0  0  0  0  0  0  0  0  0  0
  -30.8098  -23.9156   18.0526 C   0  0  0  0  0  0  0  0  0  0  0  0
  -30.3161  -22.8467   19.0216 C   0  0  0  0  0  0  0  0  0  1  0  0
  -22.1399  -19.5599   20.0581 C   0  0  1  0  0  0  0  0  0  0  0  0
  -20.7231  -22.2715   22.2964 C   0  0  2  0  0  0  0  0  0  0  0  0
  -21.2302  -18.8100   19.0445 C   0  0  0  0  0  0  0  0  0  0  0  0
  -22.9723  -28.9881   23.5361 N   0  0  0  0  0  0  0  0  0  0  0  0
  -29.1476  -25.4764   17.2684 N   0  0  0  0  0  0  0  0  0  0  0  0
  -30.0788  -25.1533   18.1819 N   0  0  0  0  0  0  0  0  0  0  0  0
  -24.0027  -28.7923   24.3764 N   0  0  0  0  0  0  0  0  0  0  0  0
  -24.4176  -18.8266   20.6893 N   0  0  0  0  0  0  0  0  0  0  0  0
  -27.0340  -30.5407   22.8091 N   0  0  0  0  0  0  0  0  0  0  0  0
  -28.5200  -29.1871   21.5327 N   0  0  0  0  0  0  0  0  0  0  0  0
  -24.7625  -27.4101   26.1436 N   0  0  0  0  0  0  0  0  0  0  0  0
  -20.7067  -25.6917   25.1468 N   0  0  0  0  0  0  0  0  0  0  0  0
  -25.2826  -15.5853   20.3498 N   0  0  0  0  0  0  0  0  0  0  0  0
  -21.4105  -20.3375   21.0540 N   0  0  0  0  0  0  0  0  0  0  0  0
  -21.4216  -23.3956   22.9816 N   0  3  0  0  0  0  0  0  0  0  0  0
  -22.5279  -25.4872   26.5252 O   0  0  0  0  0  0  0  0  0  0  0  0
  -26.2819  -17.3098   19.1455 O   0  0  0  0  0  0  0  0  0  0  0  0
  -22.5327  -17.7456   21.5347 O   0  0  0  0  0  0  0  0  0  0  0  0
  -22.3740  -22.3821   20.5357 O   0  0  0  0  0  0  0  0  0  0  0  0
  -29.3191  -30.8510   22.8419 O   0  0  0  0  0  0  0  0  0  0  0  0
  -17.2261  -27.5363   21.2074 O   0  0  0  0  0  0  0  0  0  0  0  0
  -28.9496  -22.5543   18.7589 O   0  0  0  0  0  0  0  0  0  1  0  0
  -15.6418  -22.4802   19.6812 F   0  0  0  0  0  0  0  0  0  0  0  0
  -16.7866  -26.9306   18.5461 F   0  0  0  0  0  0  0  0  0  0  0  0
  1  2  1  0  0  0  0
  1  5  2  0  0  0  0
  2  6  2  0  0  0  0
  3  8  2  0  0  0  0
  3 16  1  0  0  0  0
  4  9  1  0  0  0  0
  4 16  2  0  0  0  0
  5 18  1  0  0  0  0
  6 20  1  0  0  0  0
  7 10  2  0  0  0  0
  7 19  1  0  0  0  0
  8 23  1  0  0  0  0
  9 23  2  0  0  0  0
 10 24  1  0  0  0  0
 11 12  2  0  0  0  0
 11 25  1  0  0  0  0
 12 26  1  0  0  0  0
 13 21  1  0  0  0  0
 13 24  2  0  0  0  0
 14 26  2  0  0  0  0
 14 27  1  0  0  0  0
 15 22  2  0  0  0  0
 15 66  1  0  0  0  0
 16 28  1  0  0  0  0
 17 28  1  0  0  0  0
 17 30  2  0  0  0  0
 17 31  1  0  0  0  0
 18 20  2  0  0  0  0
 18 36  1  0  0  0  0
 19 21  2  0  0  0  0
 19 37  1  0  0  0  0
 20 50  1  0  0  0  0
 21 38  1  0  0  0  0
 22 29  1  0  0  0  0
 22 49  1  0  0  0  0
 23 81  1  0  0  0  0
 24 82  1  0  0  0  0
 25 27  2  0  0  0  0
 25 81  1  0  0  0  0
 26 83  1  0  0  0  0
 27 84  1  0  0  0  0
 28 64  2  0  0  0  0
 29 51  1  0  0  0  0
 29 65  2  0  0  0  0
 30 67  1  0  0  0  0
 30 71  1  0  0  0  0
 31 72  1  0  0  0  0
 31 76  2  0  0  0  0
 32 52  1  0  0  0  0
 32 73  1  0  0  0  0
 32 77  2  0  0  0  0
 33 61  1  0  0  0  0
 33 68  1  0  0  0  0
 33 78  2  0  0  0  0
 34 62  1  0  0  0  0
 34 74  1  0  0  0  0
 34 79  2  0  0  0  0
 35 69  1  0  0  0  0
 35 70  1  0  0  0  0
 35 80  2  0  0  0  0
 36 39  1  0  0  0  0
 37 52  1  0  0  0  0
 38 68  1  0  0  0  0
 39 41  1  0  0  0  0
 40 44  1  0  0  0  0
 40 45  1  0  0  0  0
 41 50  1  0  0  0  0
 42 43  1  0  0  0  0
 42 51  1  0  0  0  0
 43 51  1  0  0  0  0
 44 53  1  0  0  0  0
 45 69  1  0  0  0  0
 46 49  1  0  0  0  0
 46 70  1  0  0  0  0
 47 49  1  0  0  0  0
 47 70  1  0  0  0  0
 48 53  1  0  0  0  0
 48 69  1  0  0  0  0
 50 73  1  0  0  0  0
 52 68  1  0  0  0  0
 53 67  1  0  0  0  0
 54 62  1  0  0  0  0
 55 63  1  0  0  0  0
 56 63  1  0  0  0  0
 57 63  1  0  0  0  0
 58 75  1  0  0  0  0
 59 60  1  0  0  0  0
 59 66  1  0  0  0  0
 60 82  1  0  0  0  0
 61 63  1  0  0  0  0
 61 74  1  0  0  0  0
 62 75  1  0  0  0  0
 64 67  1  0  0  0  0
 65 66  1  0  0  0  0
M  CHG  1  75   1
M  ISO  4  35 100  60 101  70 100  82 101
M  END
> <Batch ID>
0183

> <Smiles>
CNC(C)C(=O)NC(C(=O)N1Cc2cc([101O:1][101CH2:1]Cn3cc(C4C[100N:0]([100C:0](=O)N5CCCC(n6nc(-c7ccc(Oc8ccc(F)cc8F)cc7)c(C(N)=O)c6N)C5)C4)c(C4CC4)n3)ccc2CC1C(=O)NC1CCCc2ccccc21)C(C)(C)C

> <Shape>
0.211

> <Color>
0.074

> <Negative vol penalty>
0.000

$$$$

  -OEChem-04052323073D

 83 92  0     1  0  0  0  0  0999 V2000
  -27.2168  -33.1089   27.5478 C   0  0  0  0  0  0  0  0  0  0  0  0
  -27.6745  -32.1728   26.6261 C   0  0  0  0  0  0  0  0  0  0  0  0
  -22.4944  -10.6348   21.2576 C   0  0  0  0  0  0  0  0  0  0  0  0
  -24.1202   -9.5819   22.7016 C   0  0  0  0  0  0  0  0  0  0  0  0
  -25.8587  -33.1760   27.8557 C   0  0  0  0  0  0  0  0  0  0  0  0
  -26.7743  -31.3024   26.0124 C   0  0  0  0  0  0  0  0  0  0  0  0
  -27.0534  -29.1546   20.2840 C   0  0  0  0  0  0  0  0  0  0  0  0
  -21.9591   -9.3844   20.9486 C   0  0  0  0  0  0  0  0  0  0  0  0
  -23.5849   -8.3315   22.3926 C   0  0  0  0  0  0  0  0  0  0  0  0
  -27.5145  -27.9496   19.7555 C   0  0  0  0  0  0  0  0  0  0  0  0
  -20.9121   -6.4743   23.3022 C   0  0  0  0  0  0  0  0  0  0  0  0
  -20.6986   -5.5843   24.3548 C   0  0  0  0  0  0  0  0  0  0  0  0
  -25.2623  -27.0857   19.7760 C   0  0  0  0  0  0  0  0  0  0  0  0
  -22.2021   -4.0008   23.3209 C   0  0  0  0  0  0  0  0  0  0  0  0
  -29.0220  -24.1463   16.7976 C   0  0  0  0  0  0  0  0  0  0  0  0
  -23.5750  -10.7336   22.1341 C   0  0  0  0  0  0  0  0  0  0  0  0
  -23.7459  -12.8774   23.5062 C   0  0  0  0  0  0  0  0  0  0  0  0
  -24.9401  -32.3125   27.2383 C   0  0  0  0  0  0  0  0  0  0  0  0
  -25.6926  -29.3305   20.5732 C   0  0  0  0  0  0  0  0  0  0  0  0
  -25.4028  -31.3571   26.3133 C   0  0  0  0  0  0  0  0  0  0  0  0
  -24.7861  -28.2947   20.3058 C   0  0  0  0  0  0  0  0  0  0  0  0
  -22.5043   -8.2327   21.5161 C   0  0  0  0  0  0  0  0  0  0  0  0
  -26.6193  -26.9140   19.5041 C   0  0  0  0  0  0  0  0  0  0  0  0
  -21.7705   -6.1275   22.2589 C   0  0  0  0  0  0  0  0  0  0  0  0
  -21.3436   -4.3476   24.3642 C   0  0  0  0  0  0  0  0  0  0  0  0
  -22.4156   -4.8907   22.2683 C   0  0  0  0  0  0  0  0  0  0  0  0
  -24.1288  -12.0249   22.4533 C   0  0  0  0  0  0  0  0  0  0  0  0
  -29.0037  -22.0245   18.4177 C   0  0  0  0  0  0  0  0  0  0  0  0
  -28.7548  -24.2811   18.1422 C   0  0  0  0  0  0  0  0  0  0  0  0
  -29.2701  -21.8898   17.0729 C   0  0  0  0  0  0  0  0  0  0  0  0
  -24.5679  -13.9704   23.3791 C   0  0  0  0  0  0  0  0  0  0  0  0
  -22.7376  -12.6972   24.5094 C   0  0  0  0  0  0  0  0  0  0  0  0
  -24.0160  -29.9032   23.2123 C   0  0  0  0  0  0  0  0  0  0  0  0
  -21.5494  -30.1620   21.1216 C   0  0  0  0  0  0  0  0  0  0  0  0
  -20.2407  -29.3657   18.0720 C   0  0  0  0  0  0  0  0  0  0  0  0
  -26.7712  -17.8523   20.1497 C   0  0  0  0  0  0  0  0  0  0  0  0
  -23.4880  -32.3909   27.6384 C   0  0  0  0  0  0  0  0  0  0  0  0
  -25.2072  -30.6458   21.1181 C   0  0  0  0  0  0  0  0  0  0  0  0
  -23.3122  -28.4403   20.5797 C   0  0  0  0  0  0  0  0  0  0  0  0
  -22.5489  -31.6834   26.6649 C   0  0  0  0  0  0  0  0  0  0  0  0
  -28.6674  -14.7116   20.5414 C   0  0  0  0  0  0  0  0  0  0  0  0
  -23.0926  -30.3042   26.3056 C   0  0  0  0  0  0  0  0  0  0  0  0
  -27.5942  -13.7905   21.1142 C   0  0  0  0  0  0  0  0  0  0  0  0
  -28.1912  -20.8863   20.5896 C   0  0  0  0  0  0  0  0  0  0  0  0
  -28.0860  -15.7288   19.5604 C   0  0  0  0  0  0  0  0  0  0  0  0
  -25.8897  -15.6072   20.7029 C   0  0  0  0  0  0  0  0  0  0  0  0
  -24.4539  -30.4124   25.6081 C   0  0  1  0  0  0  0  0  0  0  0  0
  -28.9953  -20.8356   19.3186 C   0  0  1  0  0  0  0  0  0  0  0  0
  -23.8762  -30.5326   21.8551 C   0  0  1  0  0  0  0  0  0  0  0  0
  -26.4483  -14.6090   21.7285 C   0  0  1  0  0  0  0  0  0  0  0  0
  -27.7250  -20.0281   19.4510 C   0  0  1  0  0  0  0  0  0  0  0  0
  -28.3645  -20.0017   15.6939 C   0  0  0  0  0  0  0  0  0  0  0  0
  -18.1900  -29.6911   16.6626 C   0  0  0  0  0  0  0  0  0  0  0  0
  -20.0623  -28.1050   22.8149 C   0  0  0  0  0  0  0  0  0  0  0  0
  -18.4864  -27.7698   20.8985 C   0  0  0  0  0  0  0  0  0  0  0  0
  -18.6509  -30.0019   22.0000 C   0  0  0  0  0  0  0  0  0  0  0  0
  -21.7746  -30.7515   15.9541 C   0  0  0  0  0  0  0  0  0  0  0  0
  -29.5588  -20.5601   16.4638 C   0  0  0  0  0  0  0  0  0  0  0  0
  -28.4662  -25.6312   18.7297 C   0  0  0  0  0  0  0  0  0  1  0  0
  -20.5455  -29.2031   20.5287 C   0  0  1  0  0  0  0  0  0  0  0  0
  -19.5737  -30.2189   17.0082 C   0  0  2  0  0  0  0  0  0  0  0  0
  -19.4643  -28.7662   21.5570 C   0  0  0  0  0  0  0  0  0  0  0  0
  -29.2844  -22.9483   16.2388 N   0  0  0  0  0  0  0  0  0  0  0  0
  -25.1169  -12.5328   21.7119 N   0  0  0  0  0  0  0  0  0  0  0  0
  -28.7409  -23.2225   18.9764 N   0  0  0  0  0  0  0  0  0  0  0  0
  -25.3619  -13.7163   22.2997 N   0  0  0  0  0  0  0  0  0  0  0  0
  -22.8874  -29.7430   21.1182 N   0  0  0  0  0  0  0  0  0  0  0  0
  -26.9494  -16.4570   20.1460 N   0  0  0  0  0  0  0  0  0  0  0  0
  -24.6816  -15.1146   24.0865 N   0  0  0  0  0  0  0  0  0  0  0  0
  -21.9842  -11.5155   24.4948 N   0  0  0  0  0  0  0  0  0  0  0  0
  -24.2836  -30.8041   24.2254 N   0  0  0  0  0  0  0  0  0  0  0  0
  -20.0096  -29.8568   19.3396 N   0  0  0  0  0  0  0  0  0  0  0  0
  -27.7725  -18.5925   19.5313 N   0  0  0  0  0  0  0  0  0  0  0  0
  -20.3954  -30.2328   15.7650 N   0  3  0  0  0  0  0  0  0  0  0  0
  -22.5002  -13.5659   25.3827 O   0  0  0  0  0  0  0  0  0  0  0  0
  -23.8890  -28.6903   23.3319 O   0  0  0  0  0  0  0  0  0  0  0  0
  -21.1617  -31.2459   21.5648 O   0  0  0  0  0  0  0  0  0  0  0  0
  -20.8976  -28.3618   17.8055 O   0  0  0  0  0  0  0  0  0  0  0  0
  -25.7888  -18.4007   20.6614 O   0  0  0  0  0  0  0  0  0  0  0  0
  -21.9821   -7.0124   21.2150 O   0  0  0  0  0  0  0  0  0  0  0  0
  -27.0669  -25.7366   18.9888 O   0  0  0  0  0  0  0  0  0  1  0  0
  -21.1396   -3.4937   25.3758 F   0  0  0  0  0  0  0  0  0  0  0  0
  -23.2423   -4.5525   21.2694 F   0  0  0  0  0  0  0  0  0  0  0  0
  1  2  1  0  0  0  0
  1  5  2  0  0  0  0
  2  6  2  0  0  0  0
  3  8  2  0  0  0  0
  3 16  1  0  0  0  0
  4  9  1  0  0  0  0
  4 16  2  0  0  0  0
  5 18  1  0  0  0  0
  6 20  1  0  0  0  0
  7 10  2  0  0  0  0
  7 19  1  0  0  0  0
  8 22  1  0  0  0  0
  9 22  2  0  0  0  0
 10 23  1  0  0  0  0
 11 12  2  0  0  0  0
 11 24  1  0  0  0  0
 12 25  1  0  0  0  0
 13 21  1  0  0  0  0
 13 23  2  0  0  0  0
 14 25  2  0  0  0  0
 14 26  1  0  0  0  0
 15 29  1  0  0  0  0
 15 63  2  0  0  0  0
 16 27  1  0  0  0  0
 17 27  1  0  0  0  0
 17 31  2  0  0  0  0
 17 32  1  0  0  0  0
 18 20  2  0  0  0  0
 18 37  1  0  0  0  0
 19 21  2  0  0  0  0
 19 38  1  0  0  0  0
 20 47  1  0  0  0  0
 21 39  1  0  0  0  0
 22 80  1  0  0  0  0
 23 81  1  0  0  0  0
 24 26  2  0  0  0  0
 24 80  1  0  0  0  0
 25 82  1  0  0  0  0
 26 83  1  0  0  0  0
 27 64  2  0  0  0  0
 28 30  2  0  0  0  0
 28 48  1  0  0  0  0
 28 65  1  0  0  0  0
 29 59  1  0  0  0  0
 29 65  2  0  0  0  0
 30 58  1  0  0  0  0
 30 63  1  0  0  0  0
 31 66  1  0  0  0  0
 31 69  1  0  0  0  0
 32 70  1  0  0  0  0
 32 75  2  0  0  0  0
 33 49  1  0  0  0  0
 33 71  1  0  0  0  0
 33 76  2  0  0  0  0
 34 60  1  0  0  0  0
 34 67  1  0  0  0  0
 34 77  2  0  0  0  0
 35 61  1  0  0  0  0
 35 72  1  0  0  0  0
 35 78  2  0  0  0  0
 36 68  1  0  0  0  0
 36 73  1  0  0  0  0
 36 79  2  0  0  0  0
 37 40  1  0  0  0  0
 38 49  1  0  0  0  0
 39 67  1  0  0  0  0
 40 42  1  0  0  0  0
 41 43  1  0  0  0  0
 41 45  1  0  0  0  0
 42 47  1  0  0  0  0
 43 50  1  0  0  0  0
 44 48  1  0  0  0  0
 44 51  1  0  0  0  0
 45 68  1  0  0  0  0
 46 50  1  0  0  0  0
 46 68  1  0  0  0  0
 47 71  1  0  0  0  0
 48 51  1  0  0  0  0
 49 67  1  0  0  0  0
 50 66  1  0  0  0  0
 51 73  1  0  0  0  0
 52 58  1  0  0  0  0
 53 61  1  0  0  0  0
 54 62  1  0  0  0  0
 55 62  1  0  0  0  0
 56 62  1  0  0  0  0
 57 74  1  0  0  0  0
 59 81  1  0  0  0  0
 60 62  1  0  0  0  0
 60 72  1  0  0  0  0
 61 74  1  0  0  0  0
 64 66  1  0  0  0  0
M  CHG  1  74   1
M  ISO  4  36 100  59 101  73 100  81 101
M  END
> <Batch ID>
0183

> <Smiles>
CCc1ncc([101CH2:1][101O:1]c2ccc3c(c2)CN(C(=O)C(NC(=O)C(C)NC)C(C)(C)C)C(C(=O)NC2CCCc4ccccc42)C3)nc1C1CC1[100NH:0][100C:0](=O)N1CCCC(n2nc(-c3ccc(Oc4ccc(F)cc4F)cc3)c(C(N)=O)c2N)C1

> <Shape>
0.291

> <Color>
0.110

> <Negative vol penalty>
0.000

$$$$

  -OEChem-04052323073D

 83 92  0     1  0  0  0  0  0999 V2000
  -27.1907  -31.3722   24.9890 C   0  0  0  0  0  0  0  0  0  0  0  0
  -27.2915  -30.0069   25.2363 C   0  0  0  0  0  0  0  0  0  0  0  0
  -23.0133   -9.8896   19.9912 C   0  0  0  0  0  0  0  0  0  0  0  0
  -23.7752   -9.9464   22.2832 C   0  0  0  0  0  0  0  0  0  0  0  0
  -25.9468  -31.9996   25.0450 C   0  0  0  0  0  0  0  0  0  0  0  0
  -26.1485  -29.2684   25.5408 C   0  0  0  0  0  0  0  0  0  0  0  0
  -25.9473  -24.8759   23.0287 C   0  0  0  0  0  0  0  0  0  0  0  0
  -29.6381  -19.9008   25.1646 C   0  0  0  0  0  0  0  0  0  0  0  0
  -22.2640   -8.7463   20.2685 C   0  0  0  0  0  0  0  0  0  0  0  0
  -23.0259   -8.8030   22.5606 C   0  0  0  0  0  0  0  0  0  0  0  0
  -26.7397  -23.8327   23.5058 C   0  0  0  0  0  0  0  0  0  0  0  0
  -23.3002   -5.4676   22.0807 C   0  0  0  0  0  0  0  0  0  0  0  0
  -23.9114   -4.4563   22.8219 C   0  0  0  0  0  0  0  0  0  0  0  0
  -30.2634  -18.9273   24.3935 C   0  0  0  0  0  0  0  0  0  0  0  0
  -24.8119  -22.8740   24.5938 C   0  0  0  0  0  0  0  0  0  0  0  0
  -22.2123   -4.6780   24.5252 C   0  0  0  0  0  0  0  0  0  0  0  0
  -23.7689  -10.4897   20.9985 C   0  0  0  0  0  0  0  0  0  0  0  0
  -24.1229  -13.0096   20.8193 C   0  0  0  0  0  0  0  0  0  0  0  0
  -24.7868  -31.2666   25.3408 C   0  0  0  0  0  0  0  0  0  0  0  0
  -24.5811  -24.9319   23.3403 C   0  0  0  0  0  0  0  0  0  0  0  0
  -24.8882  -29.8869   25.6021 C   0  0  0  0  0  0  0  0  0  0  0  0
  -24.0038  -23.9176   24.1174 C   0  0  0  0  0  0  0  0  0  0  0  0
  -28.4719  -19.5898   25.8550 C   0  0  0  0  0  0  0  0  0  0  0  0
  -22.2703   -8.2030   21.5532 C   0  0  0  0  0  0  0  0  0  0  0  0
  -26.1726  -22.8331   24.2909 C   0  0  0  0  0  0  0  0  0  0  0  0
  -22.1452   -6.0841   22.5618 C   0  0  0  0  0  0  0  0  0  0  0  0
  -23.3674   -4.0615   24.0442 C   0  0  0  0  0  0  0  0  0  0  0  0
  -21.6012   -5.6893   23.7840 C   0  0  0  0  0  0  0  0  0  0  0  0
  -24.5435  -11.6705   20.7124 C   0  0  0  0  0  0  0  0  0  0  0  0
  -29.6870  -17.6683   24.3461 C   0  0  0  0  0  0  0  0  0  0  0  0
  -27.9755  -18.3012   25.7420 C   0  0  0  0  0  0  0  0  0  0  0  0
  -25.2183  -13.7451   20.4378 C   0  0  0  0  0  0  0  0  0  0  0  0
  -22.8553  -13.5413   21.2270 C   0  0  0  0  0  0  0  0  0  0  0  0
  -22.7203  -26.9759   24.9098 C   0  0  0  0  0  0  0  0  0  0  0  0
  -20.3523  -25.0252   23.8562 C   0  0  0  0  0  0  0  0  0  0  0  0
  -19.4202  -21.9302   22.7613 C   0  0  0  0  0  0  0  0  0  0  0  0
  -30.7866  -14.6062   20.7717 C   0  0  0  0  0  0  0  0  0  0  0  0
  -23.4709  -31.9975   25.4365 C   0  0  0  0  0  0  0  0  0  0  0  0
  -23.7345  -26.0496   22.7957 C   0  0  0  0  0  0  0  0  0  0  0  0
  -22.5380  -23.9207   24.4633 C   0  0  0  0  0  0  0  0  0  0  0  0
  -22.2566  -31.0733   25.3976 C   0  0  0  0  0  0  0  0  0  0  0  0
  -29.5407  -12.3584   18.2562 C   0  0  0  0  0  0  0  0  0  0  0  0
  -22.4578  -29.8877   26.3361 C   0  0  0  0  0  0  0  0  0  0  0  0
  -28.1174  -12.0428   18.7038 C   0  0  0  0  0  0  0  0  0  0  0  0
  -30.4597  -12.5446   19.4561 C   0  0  0  0  0  0  0  0  0  0  0  0
  -29.3418  -15.5081   22.7615 C   0  0  0  0  0  0  0  0  0  0  0  0
  -30.9229  -16.7676   22.1233 C   0  0  0  0  0  0  0  0  0  0  0  0
  -28.5664  -13.3457   20.8444 C   0  0  0  0  0  0  0  0  0  0  0  0
  -23.6679  -29.0470   25.9114 C   0  0  1  0  0  0  0  0  0  0  0  0
  -30.2983  -16.4708   23.5061 C   0  0  0  0  0  0  0  0  0  0  0  0
  -22.4608  -26.2820   23.6026 C   0  0  1  0  0  0  0  0  0  0  0  0
  -27.6026  -13.1272   19.6612 C   0  0  2  0  0  0  0  0  0  0  0  0
  -26.7261  -17.9107   26.4613 C   0  0  0  0  0  0  0  0  0  0  0  0
  -17.4098  -20.6286   22.0122 C   0  0  0  0  0  0  0  0  0  0  0  0
  -19.4287  -24.7884   26.7546 C   0  0  0  0  0  0  0  0  0  0  0  0
  -18.0735  -22.7920   26.0866 C   0  0  0  0  0  0  0  0  0  0  0  0
  -17.5802  -25.0235   25.0866 C   0  0  0  0  0  0  0  0  0  0  0  0
  -20.5881  -21.4433   20.0859 C   0  0  0  0  0  0  0  0  0  0  0  0
  -27.7886  -20.6424   26.6938 C   0  0  0  0  0  0  0  0  0  0  0  0
  -26.5624  -21.2287   26.0025 C   0  0  0  0  0  0  0  0  0  1  0  0
  -19.6716  -23.7869   24.3874 C   0  0  1  0  0  0  0  0  0  0  0  0
  -18.5824  -21.4920   21.5737 C   0  0  2  0  0  0  0  0  0  0  0  0
  -18.7166  -24.0984   25.5741 C   0  0  0  0  0  0  0  0  0  0  0  0
  -25.8075  -11.5587   20.2955 N   0  0  0  0  0  0  0  0  0  0  0  0
  -28.5551  -17.3289   25.0028 N   0  0  0  0  0  0  0  0  0  0  0  0
  -26.1906  -12.8371   20.1370 N   0  0  0  0  0  0  0  0  0  0  0  0
  -21.7532  -25.0380   23.9125 N   0  0  0  0  0  0  0  0  0  0  0  0
  -29.9491  -13.5516   20.3914 N   0  0  0  0  0  0  0  0  0  0  0  0
  -30.3066  -15.5248   21.6752 N   0  0  0  0  0  0  0  0  0  0  0  0
  -25.4351  -15.0735   20.3336 N   0  0  0  0  0  0  0  0  0  0  0  0
  -21.8393  -12.6452   21.5862 N   0  0  0  0  0  0  0  0  0  0  0  0
  -23.3296  -28.2094   24.7807 N   0  0  0  0  0  0  0  0  0  0  0  0
  -19.0189  -23.1578   23.2443 N   0  0  0  0  0  0  0  0  0  0  0  0
  -19.4118  -20.7070   20.6161 N   0  3  0  0  0  0  0  0  0  0  0  0
  -22.6250  -14.7740   21.2558 O   0  0  0  0  0  0  0  0  0  0  0  0
  -22.3908  -26.4330   25.9578 O   0  0  0  0  0  0  0  0  0  0  0  0
  -19.6667  -25.9443   23.4014 O   0  0  0  0  0  0  0  0  0  0  0  0
  -20.3365  -21.2498   23.2175 O   0  0  0  0  0  0  0  0  0  0  0  0
  -31.9426  -14.7103   20.3406 O   0  0  0  0  0  0  0  0  0  0  0  0
  -21.5391   -7.0874   21.8243 O   0  0  0  0  0  0  0  0  0  0  0  0
  -26.9439  -21.8141   24.7583 O   0  0  0  0  0  0  0  0  0  1  0  0
  -23.9535   -3.0893   24.7551 F   0  0  0  0  0  0  0  0  0  0  0  0
  -20.4910   -6.2771   24.2507 F   0  0  0  0  0  0  0  0  0  0  0  0
  1  2  1  0  0  0  0
  1  5  2  0  0  0  0
  2  6  2  0  0  0  0
  3  9  2  0  0  0  0
  3 17  1  0  0  0  0
  4 10  1  0  0  0  0
  4 17  2  0  0  0  0
  5 19  1  0  0  0  0
  6 21  1  0  0  0  0
  7 11  2  0  0  0  0
  7 20  1  0  0  0  0
  8 14  2  0  0  0  0
  8 23  1  0  0  0  0
  9 24  1  0  0  0  0
 10 24  2  0  0  0  0
 11 25  1  0  0  0  0
 12 13  2  0  0  0  0
 12 26  1  0  0  0  0
 13 27  1  0  0  0  0
 14 30  1  0  0  0  0
 15 22  1  0  0  0  0
 15 25  2  0  0  0  0
 16 27  2  0  0  0  0
 16 28  1  0  0  0  0
 17 29  1  0  0  0  0
 18 29  1  0  0  0  0
 18 32  2  0  0  0  0
 18 33  1  0  0  0  0
 19 21  2  0  0  0  0
 19 38  1  0  0  0  0
 20 22  2  0  0  0  0
 20 39  1  0  0  0  0
 21 49  1  0  0  0  0
 22 40  1  0  0  0  0
 23 31  2  0  0  0  0
 23 59  1  0  0  0  0
 24 80  1  0  0  0  0
 25 81  1  0  0  0  0
 26 28  2  0  0  0  0
 26 80  1  0  0  0  0
 27 82  1  0  0  0  0
 28 83  1  0  0  0  0
 29 64  2  0  0  0  0
 30 50  1  0  0  0  0
 30 65  2  0  0  0  0
 31 53  1  0  0  0  0
 31 65  1  0  0  0  0
 32 66  1  0  0  0  0
 32 70  1  0  0  0  0
 33 71  1  0  0  0  0
 33 75  2  0  0  0  0
 34 51  1  0  0  0  0
 34 72  1  0  0  0  0
 34 76  2  0  0  0  0
 35 61  1  0  0  0  0
 35 67  1  0  0  0  0
 35 77  2  0  0  0  0
 36 62  1  0  0  0  0
 36 73  1  0  0  0  0
 36 78  2  0  0  0  0
 37 68  1  0  0  0  0
 37 69  1  0  0  0  0
 37 79  2  0  0  0  0
 38 41  1  0  0  0  0
 39 51  1  0  0  0  0
 40 67  1  0  0  0  0
 41 43  1  0  0  0  0
 42 44  1  0  0  0  0
 42 45  1  0  0  0  0
 43 49  1  0  0  0  0
 44 52  1  0  0  0  0
 45 68  1  0  0  0  0
 46 50  1  0  0  0  0
 46 69  1  0  0  0  0
 47 50  1  0  0  0  0
 47 69  1  0  0  0  0
 48 52  1  0  0  0  0
 48 68  1  0  0  0  0
 49 72  1  0  0  0  0
 51 67  1  0  0  0  0
 52 66  1  0  0  0  0
 54 62  1  0  0  0  0
 55 63  1  0  0  0  0
 56 63  1  0  0  0  0
 57 63  1  0  0  0  0
 58 74  1  0  0  0  0
 59 60  1  0  0  0  0
 60 81  1  0  0  0  0
 61 63  1  0  0  0  0
 61 73  1  0  0  0  0
 62 74  1  0  0  0  0
 64 66  1  0  0  0  0
M  CHG  1  74   1
M  ISO  4  37 100  60 101  69 100  81 101
M  END
> <Batch ID>
0183

> <Smiles>
CNC(C)C(=O)NC(C(=O)N1Cc2cc([101O:1][101CH2:1]Cc3ccc(C4C[100N:0]([100C:0](=O)N5CCCC(n6nc(-c7ccc(Oc8ccc(F)cc8F)cc7)c(C(N)=O)c6N)C5)C4)nc3C)ccc2CC1C(=O)NC1CCCc2ccccc21)C(C)(C)C

> <Shape>
0.225

> <Color>
0.200

> <Negative vol penalty>
0.000

$$$$

  -OEChem-04052323073D

 83 92  0     1  0  0  0  0  0999 V2000
  -17.3849  -13.9215   22.1798 C   0  0  0  0  0  0  0  0  0  0  0  0
  -18.1856  -15.0012   21.8212 C   0  0  0  0  0  0  0  0  0  0  0  0
  -23.1520  -31.2249   22.3981 C   0  0  0  0  0  0  0  0  0  0  0  0
  -23.0678  -29.0119   23.3638 C   0  0  0  0  0  0  0  0  0  0  0  0
  -17.9427  -12.8337   22.8502 C   0  0  0  0  0  0  0  0  0  0  0  0
  -19.5445  -14.9941   22.1339 C   0  0  0  0  0  0  0  0  0  0  0  0
  -24.0995  -17.3829   18.8094 C   0  0  0  0  0  0  0  0  0  0  0  0
  -21.8573  -31.0596   21.9062 C   0  0  0  0  0  0  0  0  0  0  0  0
  -21.7730  -28.8465   22.8719 C   0  0  0  0  0  0  0  0  0  0  0  0
  -24.7907  -18.5905   18.8964 C   0  0  0  0  0  0  0  0  0  0  0  0
  -18.6478  -29.8190   23.7129 C   0  0  0  0  0  0  0  0  0  0  0  0
  -17.6933  -29.2777   24.5740 C   0  0  0  0  0  0  0  0  0  0  0  0
  -26.5302  -17.4969   20.1602 C   0  0  0  0  0  0  0  0  0  0  0  0
  -26.5413  -23.2913   19.8416 C   0  0  0  0  0  0  0  0  0  0  0  0
  -17.3550  -27.4394   23.0433 C   0  0  0  0  0  0  0  0  0  0  0  0
  -28.2632  -22.1412   18.6809 C   0  0  0  0  0  0  0  0  0  0  0  0
  -23.7573  -30.2010   23.1268 C   0  0  0  0  0  0  0  0  0  0  0  0
  -25.4690  -30.9016   24.8838 C   0  0  0  0  0  0  0  0  0  0  0  0
  -19.3110  -12.8090   23.1627 C   0  0  0  0  0  0  0  0  0  0  0  0
  -24.6140  -16.2236   19.4076 C   0  0  0  0  0  0  0  0  0  0  0  0
  -20.1209  -13.9055   22.8103 C   0  0  0  0  0  0  0  0  0  0  0  0
  -25.8448  -16.2753   20.0773 C   0  0  0  0  0  0  0  0  0  0  0  0
  -26.9774  -22.1453   19.1862 C   0  0  0  0  0  0  0  0  0  0  0  0
  -27.3828  -24.3998   19.9719 C   0  0  0  0  0  0  0  0  0  0  0  0
  -21.1678  -29.8704   22.1432 C   0  0  0  0  0  0  0  0  0  0  0  0
  -26.0049  -18.6483   19.5743 C   0  0  0  0  0  0  0  0  0  0  0  0
  -18.9559  -29.1706   22.5170 C   0  0  0  0  0  0  0  0  0  0  0  0
  -17.0469  -28.0879   24.2392 C   0  0  0  0  0  0  0  0  0  0  0  0
  -18.3095  -27.9807   22.1822 C   0  0  0  0  0  0  0  0  0  0  0  0
  -25.0950  -30.3710   23.6347 C   0  0  0  0  0  0  0  0  0  0  0  0
  -28.6708  -24.2833   19.4422 C   0  0  0  0  0  0  0  0  0  0  0  0
  -26.8414  -30.8479   24.8827 C   0  0  0  0  0  0  0  0  0  0  0  0
  -24.6491  -31.3985   25.9500 C   0  0  0  0  0  0  0  0  0  0  0  0
  -30.1456  -27.6403   20.6002 C   0  0  0  0  0  0  0  0  0  0  0  0
  -23.6280  -14.2562   21.7013 C   0  0  0  0  0  0  0  0  0  0  0  0
  -26.2355  -12.5426   20.8142 C   0  0  0  0  0  0  0  0  0  0  0  0
  -29.3236  -12.5091   19.3618 C   0  0  0  0  0  0  0  0  0  0  0  0
  -19.8592  -11.6321   23.9302 C   0  0  0  0  0  0  0  0  0  0  0  0
  -23.8692  -14.9229   19.2819 C   0  0  0  0  0  0  0  0  0  0  0  0
  -26.4502  -15.0547   20.7192 C   0  0  0  0  0  0  0  0  0  0  0  0
  -29.6417  -25.4330   19.5523 C   0  0  0  0  0  0  0  0  0  0  0  0
  -21.3823  -11.5364   23.8925 C   0  0  0  0  0  0  0  0  0  0  0  0
  -30.6390  -30.9606   21.9702 C   0  0  0  0  0  0  0  0  0  0  0  0
  -22.0099  -12.8978   24.1748 C   0  0  0  0  0  0  0  0  0  0  0  0
  -29.2078  -31.2382   22.4418 C   0  0  0  0  0  0  0  0  0  0  0  0
  -31.0213  -29.4827   21.9970 C   0  0  0  0  0  0  0  0  0  0  0  0
  -28.6370  -28.7919   22.2633 C   0  0  0  0  0  0  0  0  0  0  0  0
  -21.6041  -13.9239   23.1099 C   0  0  1  0  0  0  0  0  0  0  0  0
  -24.2351  -13.9173   20.3692 C   0  0  1  0  0  0  0  0  0  0  0  0
  -28.5959  -30.0337   23.1714 C   0  0  2  0  0  0  0  0  0  0  0  0
  -27.7635  -26.7521   20.6636 C   0  0  1  0  0  0  0  0  0  0  0  0
  -29.2766  -26.4088   20.6896 C   0  0  2  0  0  0  0  0  0  0  0  0
  -27.3272  -27.6380   19.4916 C   0  0  0  0  0  0  0  0  0  0  0  0
  -29.6146  -25.7724   22.0219 C   0  0  0  0  0  0  0  0  0  0  0  0
  -31.2275  -10.9678   18.8166 C   0  0  0  0  0  0  0  0  0  0  0  0
  -27.1006  -12.5803   23.7400 C   0  0  0  0  0  0  0  0  0  0  0  0
  -29.3914  -11.8938   22.9991 C   0  0  0  0  0  0  0  0  0  0  0  0
  -27.4443  -10.3923   22.5786 C   0  0  0  0  0  0  0  0  0  0  0  0
  -29.0470  -13.0065   16.4574 C   0  0  0  0  0  0  0  0  0  0  0  0
  -26.0879  -20.9629   19.0341 C   0  0  0  0  0  0  0  0  0  1  0  0
  -27.6875  -12.5148   21.2266 C   0  0  1  0  0  0  0  0  0  0  0  0
  -29.9351  -11.5940   18.3162 C   0  0  2  0  0  0  0  0  0  0  0  0
  -27.8939  -11.8689   22.6257 C   0  0  0  0  0  0  0  0  0  0  0  0
  -29.1184  -23.1797   18.7913 N   0  0  0  0  0  0  0  0  0  0  0  0
  -26.1450  -30.0071   22.8937 N   0  0  0  0  0  0  0  0  0  0  0  0
  -27.1924  -30.3097   23.6796 N   0  0  0  0  0  0  0  0  0  0  0  0
  -26.9595  -25.5331   20.6426 N   0  0  0  0  0  0  0  0  0  0  0  0
  -29.9207  -28.6228   21.5679 N   0  0  0  0  0  0  0  0  0  0  0  0
  -25.6808  -13.8078   20.5744 N   0  0  0  0  0  0  0  0  0  0  0  0
  -27.7702  -31.2091   25.7933 N   0  0  0  0  0  0  0  0  0  0  0  0
  -23.2573  -31.3809   25.7863 N   0  0  0  0  0  0  0  0  0  0  0  0
  -22.3684  -13.7230   21.8974 N   0  0  0  0  0  0  0  0  0  0  0  0
  -28.4055  -11.8451   20.1475 N   0  0  0  0  0  0  0  0  0  0  0  0
  -30.2337  -12.3568   17.0712 N   0  3  0  0  0  0  0  0  0  0  0  0
  -25.1369  -31.8600   27.0095 O   0  0  0  0  0  0  0  0  0  0  0  0
  -30.9855  -27.7277   19.7017 O   0  0  0  0  0  0  0  0  0  0  0  0
  -24.2566  -14.9488   22.4931 O   0  0  0  0  0  0  0  0  0  0  0  0
  -25.6183  -11.4805   20.7018 O   0  0  0  0  0  0  0  0  0  0  0  0
  -29.6324  -13.6935   19.4729 O   0  0  0  0  0  0  0  0  0  0  0  0
  -19.9043  -29.7089   21.6635 O   0  0  0  0  0  0  0  0  0  0  0  0
  -26.6857  -19.8335   19.6618 O   0  0  0  0  0  0  0  0  0  1  0  0
  -16.1314  -27.5674   25.0669 F   0  0  0  0  0  0  0  0  0  0  0  0
  -18.6021  -27.3526   21.0352 F   0  0  0  0  0  0  0  0  0  0  0  0
  1  2  1  0  0  0  0
  1  5  2  0  0  0  0
  2  6  2  0  0  0  0
  3  8  2  0  0  0  0
  3 17  1  0  0  0  0
  4  9  1  0  0  0  0
  4 17  2  0  0  0  0
  5 19  1  0  0  0  0
  6 21  1  0  0  0  0
  7 10  2  0  0  0  0
  7 20  1  0  0  0  0
  8 25  1  0  0  0  0
  9 25  2  0  0  0  0
 10 26  1  0  0  0  0
 11 12  2  0  0  0  0
 11 27  1  0  0  0  0
 12 28  1  0  0  0  0
 13 22  1  0  0  0  0
 13 26  2  0  0  0  0
 14 23  2  0  0  0  0
 14 24  1  0  0  0  0
 15 28  2  0  0  0  0
 15 29  1  0  0  0  0
 16 23  1  0  0  0  0
 16 64  2  0  0  0  0
 17 30  1  0  0  0  0
 18 30  1  0  0  0  0
 18 32  2  0  0  0  0
 18 33  1  0  0  0  0
 19 21  2  0  0  0  0
 19 38  1  0  0  0  0
 20 22  2  0  0  0  0
 20 39  1  0  0  0  0
 21 48  1  0  0  0  0
 22 40  1  0  0  0  0
 23 60  1  0  0  0  0
 24 31  2  0  0  0  0
 24 67  1  0  0  0  0
 25 80  1  0  0  0  0
 26 81  1  0  0  0  0
 27 29  2  0  0  0  0
 27 80  1  0  0  0  0
 28 82  1  0  0  0  0
 29 83  1  0  0  0  0
 30 65  2  0  0  0  0
 31 41  1  0  0  0  0
 31 64  1  0  0  0  0
 32 66  1  0  0  0  0
 32 70  1  0  0  0  0
 33 71  1  0  0  0  0
 33 75  2  0  0  0  0
 34 52  1  0  0  0  0
 34 68  1  0  0  0  0
 34 76  2  0  0  0  0
 35 49  1  0  0  0  0
 35 72  1  0  0  0  0
 35 77  2  0  0  0  0
 36 61  1  0  0  0  0
 36 69  1  0  0  0  0
 36 78  2  0  0  0  0
 37 62  1  0  0  0  0
 37 73  1  0  0  0  0
 37 79  2  0  0  0  0
 38 42  1  0  0  0  0
 39 49  1  0  0  0  0
 40 69  1  0  0  0  0
 41 52  1  0  0  0  0
 42 44  1  0  0  0  0
 43 45  1  0  0  0  0
 43 46  1  0  0  0  0
 44 48  1  0  0  0  0
 45 50  1  0  0  0  0
 46 68  1  0  0  0  0
 47 50  1  0  0  0  0
 47 68  1  0  0  0  0
 48 72  1  0  0  0  0
 49 69  1  0  0  0  0
 50 66  1  0  0  0  0
 51 52  1  0  0  0  0
 51 53  1  0  0  0  0
 51 67  1  0  0  0  0
 52 54  1  0  0  0  0
 55 62  1  0  0  0  0
 56 63  1  0  0  0  0
 57 63  1  0  0  0  0
 58 63  1  0  0  0  0
 59 74  1  0  0  0  0
 60 81  1  0  0  0  0
 61 63  1  0  0  0  0
 61 73  1  0  0  0  0
 62 74  1  0  0  0  0
 65 66  1  0  0  0  0
M  CHG  1  74   1
M  ISO  4  34 100  52 100  60 101  81 101
M  END
> <Batch ID>
0183

> <Smiles>
CNC(C)C(=O)NC(C(=O)N1Cc2cc([101O:1][101CH2:1]c3cnc4c(c3)NC(C)[100C:0](C)([100C:0](=O)N3CCCC(n5nc(-c6ccc(Oc7ccc(F)cc7F)cc6)c(C(N)=O)c5N)C3)C4)ccc2CC1C(=O)NC1CCCc2ccccc21)C(C)(C)C

> <Shape>
0.282

> <Color>
0.052

> <Negative vol penalty>
0.000

$$$$

  -OEChem-04052323073D

 85 95  0     1  0  0  0  0  0999 V2000
  -25.4668  -11.0971   20.6794 C   0  0  0  0  0  0  0  0  0  0  0  0
  -26.4962  -11.9210   20.2356 C   0  0  0  0  0  0  0  0  0  0  0  0
  -18.8073  -26.8812   21.5375 C   0  0  0  0  0  0  0  0  0  0  0  0
  -20.0688  -25.5594   19.9568 C   0  0  0  0  0  0  0  0  0  0  0  0
  -24.2057  -11.6346   20.9335 C   0  0  0  0  0  0  0  0  0  0  0  0
  -26.2647  -13.2828   20.0447 C   0  0  0  0  0  0  0  0  0  0  0  0
  -29.5635  -19.6249   20.5056 C   0  0  0  0  0  0  0  0  0  0  0  0
  -17.6190  -26.4655   20.9367 C   0  0  0  0  0  0  0  0  0  0  0  0
  -18.8805  -25.1437   19.3561 C   0  0  0  0  0  0  0  0  0  0  0  0
  -29.8110  -20.7679   19.7466 C   0  0  0  0  0  0  0  0  0  0  0  0
  -16.4362  -22.8921   19.9694 C   0  0  0  0  0  0  0  0  0  0  0  0
  -16.3058  -21.5375   19.6633 C   0  0  0  0  0  0  0  0  0  0  0  0
  -27.6137  -21.5996   20.2936 C   0  0  0  0  0  0  0  0  0  0  0  0
  -31.4388  -26.0594   18.9981 C   0  0  0  0  0  0  0  0  0  0  0  0
  -16.0351  -22.0914   17.3272 C   0  0  0  0  0  0  0  0  0  0  0  0
  -20.0322  -26.4281   21.0475 C   0  0  0  0  0  0  0  0  0  0  0  0
  -21.9391  -26.2335   22.7308 C   0  0  0  0  0  0  0  0  0  0  0  0
  -23.9612  -13.0053   20.7549 C   0  0  0  0  0  0  0  0  0  0  0  0
  -28.3330  -19.4554   21.1565 C   0  0  0  0  0  0  0  0  0  0  0  0
  -24.9988  -13.8388   20.2954 C   0  0  0  0  0  0  0  0  0  0  0  0
  -27.3540  -20.4548   21.0623 C   0  0  0  0  0  0  0  0  0  0  0  0
  -31.2851  -27.1605   19.8375 C   0  0  0  0  0  0  0  0  0  0  0  0
  -30.0074  -27.6328   20.0527 C   0  0  0  0  0  0  0  0  0  0  0  0
  -17.6556  -25.5968   19.8461 C   0  0  0  0  0  0  0  0  0  0  0  0
  -28.8350  -21.7541   19.6381 C   0  0  0  0  0  0  0  0  0  0  0  0
  -16.3659  -23.8464   18.9544 C   0  0  0  0  0  0  0  0  0  0  0  0
  -16.1053  -21.1372   18.3422 C   0  0  0  0  0  0  0  0  0  0  0  0
  -16.1654  -23.4461   17.6334 C   0  0  0  0  0  0  0  0  0  0  0  0
  -21.2600  -26.8576   21.6672 C   0  0  0  0  0  0  0  0  0  0  0  0
  -28.9379  -26.9988   19.4328 C   0  0  0  0  0  0  0  0  0  0  0  0
  -30.3012  -25.4920   18.4221 C   0  0  0  0  0  0  0  0  0  0  0  0
  -23.0405  -27.0251   22.9465 C   0  0  0  0  0  0  0  0  0  0  0  0
  -21.6042  -25.0444   23.4585 C   0  0  0  0  0  0  0  0  0  0  0  0
  -25.9673  -17.3409   20.9663 C   0  0  0  0  0  0  0  0  0  0  0  0
  -24.8167  -18.9826   23.5165 C   0  0  0  0  0  0  0  0  0  0  0  0
  -24.7355  -21.8983   25.2881 C   0  0  0  0  0  0  0  0  0  0  0  0
  -27.3475  -29.9571   20.9368 C   0  0  0  0  0  0  0  0  0  0  0  0
  -22.5689  -13.5320   20.9973 C   0  0  0  0  0  0  0  0  0  0  0  0
  -28.0916  -18.2290   21.9933 C   0  0  0  0  0  0  0  0  0  0  0  0
  -26.0241  -20.3302   21.7583 C   0  0  0  0  0  0  0  0  0  0  0  0
  -29.5370  -28.7762   20.8793 C   0  0  0  0  0  0  0  0  0  0  0  0
  -27.6474  -27.6526   19.8309 C   0  0  0  0  0  0  0  0  0  0  0  0
  -22.5069  -15.0516   21.1287 C   0  0  0  0  0  0  0  0  0  0  0  0
  -24.2226  -31.6008   21.1993 C   0  0  0  0  0  0  0  0  0  0  0  0
  -33.4029  -26.9552   21.3026 C   0  0  0  0  0  0  0  0  0  0  0  0
  -32.5080  -27.9504   21.9727 C   0  0  0  0  0  0  0  0  0  0  0  0
  -23.3131  -15.7169   20.0177 C   0  0  0  0  0  0  0  0  0  0  0  0
  -23.2175  -30.4688   21.3917 C   0  0  0  0  0  0  0  0  0  0  0  0
  -25.3238  -31.1855   20.2336 C   0  0  0  0  0  0  0  0  0  0  0  0
  -25.0859  -28.8057   20.8999 C   0  0  0  0  0  0  0  0  0  0  0  0
  -32.4689  -27.7995   20.4728 C   0  0  0  0  0  0  0  0  0  0  0  0
  -24.7934  -15.3254   20.1001 C   0  0  1  0  0  0  0  0  0  0  0  0
  -26.6102  -17.9240   22.1929 C   0  0  1  0  0  0  0  0  0  0  0  0
  -23.9300  -29.1865   21.8479 C   0  0  2  0  0  0  0  0  0  0  0  0
  -24.1698  -23.4700   27.1609 C   0  0  0  0  0  0  0  0  0  0  0  0
  -22.2059  -19.3072   21.9710 C   0  0  0  0  0  0  0  0  0  0  0  0
  -21.5615  -21.1168   23.5767 C   0  0  0  0  0  0  0  0  0  0  0  0
  -21.9221  -18.7903   24.4014 C   0  0  0  0  0  0  0  0  0  0  0  0
  -27.1185  -21.0866   26.8441 C   0  0  0  0  0  0  0  0  0  0  0  0
  -30.3434  -22.9687   18.2578 C   0  0  0  0  0  0  0  0  0  1  0  0
  -30.4579  -24.3115   17.5213 C   0  0  1  0  0  0  0  0  0  0  0  0
  -23.9146  -20.1792   23.6991 C   0  0  1  0  0  0  0  0  0  0  0  0
  -24.8732  -22.1785   26.7737 C   0  0  2  0  0  0  0  0  0  0  0  0
  -22.4253  -19.8501   23.3972 C   0  0  0  0  0  0  0  0  0  0  0  0
  -21.8783  -27.9608   21.2373 N   0  0  0  0  0  0  0  0  0  0  0  0
  -29.0360  -25.9348   18.6202 N   0  0  0  0  0  0  0  0  0  0  0  0
  -22.9573  -28.0361   22.0349 N   0  0  0  0  0  0  0  0  0  0  0  0
  -25.8333  -19.1099   22.5594 N   0  0  0  0  0  0  0  0  0  0  0  0
  -28.0803  -28.8021   20.6538 N   0  0  0  0  0  0  0  0  0  0  0  0
  -25.9779  -29.9445   20.6512 N   0  0  0  0  0  0  0  0  0  0  0  0
  -24.0624  -26.9481   23.8253 N   0  0  0  0  0  0  0  0  0  0  0  0
  -20.4372  -24.3523   23.1071 N   0  0  0  0  0  0  0  0  0  0  0  0
  -25.4557  -16.0704   21.1493 N   0  0  0  0  0  0  0  0  0  0  0  0
  -24.1559  -20.6697   25.0517 N   0  0  0  0  0  0  0  0  0  0  0  0
  -26.3110  -22.2961   27.1476 N   0  3  0  0  0  0  0  0  0  0  0  0
  -22.3100  -24.6176   24.4036 O   0  0  0  0  0  0  0  0  0  0  0  0
  -25.9363  -17.9959   19.9311 O   0  0  0  0  0  0  0  0  0  0  0  0
  -24.6307  -17.9747   24.2030 O   0  0  0  0  0  0  0  0  0  0  0  0
  -25.1018  -22.6917   24.4239 O   0  0  0  0  0  0  0  0  0  0  0  0
  -27.9009  -30.9728   21.3787 O   0  0  0  0  0  0  0  0  0  0  0  0
  -29.4596  -24.3592   16.4951 O   0  0  0  0  0  0  0  0  0  0  0  0
  -16.4963  -25.1908   19.2598 O   0  0  0  0  0  0  0  0  0  0  0  0
  -29.0756  -22.8788   18.8918 O   0  0  0  0  0  0  0  0  0  1  0  0
  -15.9817  -19.8362   18.0482 F   0  0  0  0  0  0  0  0  0  0  0  0
  -16.0982  -24.3581   16.6539 F   0  0  0  0  0  0  0  0  0  0  0  0
  1  2  1  0  0  0  0
  1  5  2  0  0  0  0
  2  6  2  0  0  0  0
  3  8  2  0  0  0  0
  3 16  1  0  0  0  0
  4  9  1  0  0  0  0
  4 16  2  0  0  0  0
  5 18  1  0  0  0  0
  6 20  1  0  0  0  0
  7 10  2  0  0  0  0
  7 19  1  0  0  0  0
  8 24  1  0  0  0  0
  9 24  2  0  0  0  0
 10 25  1  0  0  0  0
 11 12  2  0  0  0  0
 11 26  1  0  0  0  0
 12 27  1  0  0  0  0
 13 21  1  0  0  0  0
 13 25  2  0  0  0  0
 14 22  2  0  0  0  0
 14 31  1  0  0  0  0
 15 27  2  0  0  0  0
 15 28  1  0  0  0  0
 16 29  1  0  0  0  0
 17 29  1  0  0  0  0
 17 32  2  0  0  0  0
 17 33  1  0  0  0  0
 18 20  2  0  0  0  0
 18 38  1  0  0  0  0
 19 21  2  0  0  0  0
 19 39  1  0  0  0  0
 20 52  1  0  0  0  0
 21 40  1  0  0  0  0
 22 23  1  0  0  0  0
 22 51  1  0  0  0  0
 23 30  2  0  0  0  0
 23 41  1  0  0  0  0
 24 82  1  0  0  0  0
 25 83  1  0  0  0  0
 26 28  2  0  0  0  0
 26 82  1  0  0  0  0
 27 84  1  0  0  0  0
 28 85  1  0  0  0  0
 29 65  2  0  0  0  0
 30 42  1  0  0  0  0
 30 66  1  0  0  0  0
 31 61  1  0  0  0  0
 31 66  2  0  0  0  0
 32 67  1  0  0  0  0
 32 71  1  0  0  0  0
 33 72  1  0  0  0  0
 33 76  2  0  0  0  0
 34 53  1  0  0  0  0
 34 73  1  0  0  0  0
 34 77  2  0  0  0  0
 35 62  1  0  0  0  0
 35 68  1  0  0  0  0
 35 78  2  0  0  0  0
 36 63  1  0  0  0  0
 36 74  1  0  0  0  0
 36 79  2  0  0  0  0
 37 69  1  0  0  0  0
 37 70  1  0  0  0  0
 37 80  2  0  0  0  0
 38 43  1  0  0  0  0
 39 53  1  0  0  0  0
 40 68  1  0  0  0  0
 41 69  1  0  0  0  0
 42 69  1  0  0  0  0
 43 47  1  0  0  0  0
 44 48  1  0  0  0  0
 44 49  1  0  0  0  0
 45 46  1  0  0  0  0
 45 51  1  0  0  0  0
 46 51  1  0  0  0  0
 47 52  1  0  0  0  0
 48 54  1  0  0  0  0
 49 70  1  0  0  0  0
 50 54  1  0  0  0  0
 50 70  1  0  0  0  0
 52 73  1  0  0  0  0
 53 68  1  0  0  0  0
 54 67  1  0  0  0  0
 55 63  1  0  0  0  0
 56 64  1  0  0  0  0
 57 64  1  0  0  0  0
 58 64  1  0  0  0  0
 59 75  1  0  0  0  0
 60 61  1  0  0  0  0
 60 83  1  0  0  0  0
 61 81  1  0  0  0  0
 62 64  1  0  0  0  0
 62 74  1  0  0  0  0
 63 75  1  0  0  0  0
 65 67  1  0  0  0  0
M  CHG  1  75   1
M  ISO  4  37 100  60 101  69 100  83 101
M  END
> <Batch ID>
0183

> <Smiles>
CNC(C)C(=O)NC(C(=O)N1Cc2cc([101O:1][101CH2:1]C(O)c3cc(C4CC4)c4c(n3)C[100N:0]([100C:0](=O)N3CCCC(n5nc(-c6ccc(Oc7ccc(F)cc7F)cc6)c(C(N)=O)c5N)C3)C4)ccc2CC1C(=O)NC1CCCc2ccccc21)C(C)(C)C

> <Shape>
0.232

> <Color>
0.060

> <Negative vol penalty>
0.000

$$$$

  -OEChem-04052323073D

 81 90  0     1  0  0  0  0  0999 V2000
  -30.0966  -31.9232   23.6371 C   0  0  0  0  0  0  0  0  0  0  0  0
  -29.9405  -30.5840   23.9804 C   0  0  0  0  0  0  0  0  0  0  0  0
  -23.0396  -10.0143   19.9409 C   0  0  0  0  0  0  0  0  0  0  0  0
  -23.8247   -9.9519   22.2249 C   0  0  0  0  0  0  0  0  0  0  0  0
  -29.6215  -32.3874   22.4113 C   0  0  0  0  0  0  0  0  0  0  0  0
  -29.3082  -29.7085   23.0983 C   0  0  0  0  0  0  0  0  0  0  0  0
  -31.7652  -25.3045   22.6370 C   0  0  0  0  0  0  0  0  0  0  0  0
  -22.2550   -8.8860   20.1797 C   0  0  0  0  0  0  0  0  0  0  0  0
  -23.0401   -8.8236   22.4638 C   0  0  0  0  0  0  0  0  0  0  0  0
  -31.6043  -24.3751   23.6636 C   0  0  0  0  0  0  0  0  0  0  0  0
  -19.2949   -8.1764   21.6517 C   0  0  0  0  0  0  0  0  0  0  0  0
  -17.9819   -8.1884   21.1812 C   0  0  0  0  0  0  0  0  0  0  0  0
  -29.9849  -23.1879   22.3267 C   0  0  0  0  0  0  0  0  0  0  0  0
  -18.4522   -6.2492   19.8191 C   0  0  0  0  0  0  0  0  0  0  0  0
  -23.8244  -10.5472   20.9635 C   0  0  0  0  0  0  0  0  0  0  0  0
  -24.2611  -13.0593   20.8830 C   0  0  0  0  0  0  0  0  0  0  0  0
  -28.9916  -31.5150   21.5096 C   0  0  0  0  0  0  0  0  0  0  0  0
  -31.0279  -25.1886   21.4499 C   0  0  0  0  0  0  0  0  0  0  0  0
  -28.8230  -30.1618   21.8598 C   0  0  0  0  0  0  0  0  0  0  0  0
  -30.1402  -24.1158   21.2856 C   0  0  0  0  0  0  0  0  0  0  0  0
  -22.2553   -8.2906   21.4411 C   0  0  0  0  0  0  0  0  0  0  0  0
  -30.7119  -23.3182   23.5098 C   0  0  0  0  0  0  0  0  0  0  0  0
  -20.1866   -7.2008   21.2059 C   0  0  0  0  0  0  0  0  0  0  0  0
  -17.5605   -7.2248   20.2649 C   0  0  0  0  0  0  0  0  0  0  0  0
  -19.7653   -6.2372   20.2896 C   0  0  0  0  0  0  0  0  0  0  0  0
  -24.6355  -11.7124   20.7173 C   0  0  0  0  0  0  0  0  0  0  0  0
  -25.3769  -13.7731   20.5199 C   0  0  0  0  0  0  0  0  0  0  0  0
  -23.0159  -13.6155   21.3258 C   0  0  0  0  0  0  0  0  0  0  0  0
  -29.2982  -19.3505   22.7084 C   0  0  0  0  0  0  0  0  0  0  0  0
  -28.8750  -26.9922   19.9613 C   0  0  0  0  0  0  0  0  0  0  0  0
  -29.1722  -24.7465   17.6395 C   0  0  0  0  0  0  0  0  0  0  0  0
  -29.4514  -21.1533   17.4717 C   0  0  0  0  0  0  0  0  0  0  0  0
  -31.0045  -14.2578   21.1076 C   0  0  0  0  0  0  0  0  0  0  0  0
  -28.4523  -32.0730   20.2164 C   0  0  0  0  0  0  0  0  0  0  0  0
  -31.2327  -26.1844   20.3413 C   0  0  0  0  0  0  0  0  0  0  0  0
  -29.3398  -23.9350   20.0225 C   0  0  0  0  0  0  0  0  0  0  0  0
  -28.1280  -31.0012   19.1789 C   0  0  0  0  0  0  0  0  0  0  0  0
  -29.6480  -12.3252   18.2500 C   0  0  0  0  0  0  0  0  0  0  0  0
  -27.3445  -29.8591   19.8182 C   0  0  0  0  0  0  0  0  0  0  0  0
  -28.2141  -12.0423   18.6952 C   0  0  0  0  0  0  0  0  0  0  0  0
  -29.8617  -20.0739   25.1047 C   0  0  0  0  0  0  0  0  0  0  0  0
  -30.5900  -12.4849   19.4396 C   0  0  0  0  0  0  0  0  0  0  0  0
  -28.7516  -17.2021   21.6123 C   0  0  0  0  0  0  0  0  0  0  0  0
  -30.5858  -17.2385   23.2812 C   0  0  0  0  0  0  0  0  0  0  0  0
  -29.6019  -16.3175   20.7114 C   0  0  0  0  0  0  0  0  0  0  0  0
  -31.4182  -16.3331   22.3781 C   0  0  0  0  0  0  0  0  0  0  0  0
  -28.7121  -13.2282   20.8687 C   0  0  0  0  0  0  0  0  0  0  0  0
  -28.1646  -29.1759   20.9192 C   0  0  1  0  0  0  0  0  0  0  0  0
  -30.1769  -20.1127   23.6472 C   0  0  2  0  0  0  0  0  0  0  0  0
  -30.0508  -26.2596   19.3797 C   0  0  1  0  0  0  0  0  0  0  0  0
  -27.7309  -13.1087   19.6933 C   0  0  2  0  0  0  0  0  0  0  0  0
  -29.6163  -21.3255   24.3144 C   0  0  2  0  0  0  0  0  0  1  0  0
  -30.5194  -19.6787   15.7448 C   0  0  0  0  0  0  0  0  0  0  0  0
  -26.3694  -24.6112   16.4412 C   0  0  0  0  0  0  0  0  0  0  0  0
  -26.7884  -22.2006   15.9103 C   0  0  0  0  0  0  0  0  0  0  0  0
  -28.2073  -23.9696   14.8712 C   0  0  0  0  0  0  0  0  0  0  0  0
  -31.1599  -19.8276   19.4922 C   0  0  0  0  0  0  0  0  0  0  0  0
  -28.4913  -23.4361   17.3262 C   0  0  1  0  0  0  0  0  0  0  0  0
  -30.6865  -20.3542   17.0970 C   0  0  2  0  0  0  0  0  0  0  0  0
  -27.4664  -23.5639   16.1639 C   0  0  0  0  0  0  0  0  0  0  0  0
  -25.8910  -11.5760   20.2825 N   0  0  0  0  0  0  0  0  0  0  0  0
  -26.3152  -12.8464   20.1719 N   0  0  0  0  0  0  0  0  0  0  0  0
  -29.5816  -17.9928   22.5226 N   0  0  0  0  0  0  0  0  0  0  0  0
  -29.5706  -24.9383   18.9701 N   0  0  0  0  0  0  0  0  0  0  0  0
  -30.0846  -13.4674   20.3985 N   0  0  0  0  0  0  0  0  0  0  0  0
  -30.5758  -15.5402   21.4858 N   0  0  0  0  0  0  0  0  0  0  0  0
  -25.6372  -15.0967   20.4674 N   0  0  0  0  0  0  0  0  0  0  0  0
  -21.9739  -12.7396   21.6592 N   0  0  0  0  0  0  0  0  0  0  0  0
  -29.1527  -28.2922   20.3387 N   0  0  0  0  0  0  0  0  0  0  0  0
  -29.5571  -22.4710   17.0796 N   0  0  0  0  0  0  0  0  0  0  0  0
  -30.9523  -19.3020   18.1183 N   0  3  0  0  0  0  0  0  0  0  0  0
  -22.8275  -14.8530   21.4071 O   0  0  0  0  0  0  0  0  0  0  0  0
  -28.3838  -19.9572   22.1565 O   0  0  0  0  0  0  0  0  0  0  0  0
  -27.7953  -26.4209   20.0591 O   0  0  0  0  0  0  0  0  0  0  0  0
  -29.3507  -25.5666   16.7355 O   0  0  0  0  0  0  0  0  0  0  0  0
  -28.4875  -20.6572   18.0508 O   0  0  0  0  0  0  0  0  0  0  0  0
  -32.1363  -13.8437   21.3876 O   0  0  0  0  0  0  0  0  0  0  0  0
  -21.4897   -7.1898   21.6745 O   0  0  0  0  0  0  0  0  0  0  0  0
  -30.5501  -22.3967   24.5251 O   0  0  0  0  0  0  0  0  0  1  0  0
  -16.2991   -7.2356   19.8143 F   0  0  0  0  0  0  0  0  0  0  0  0
  -20.6171   -5.2968   19.8586 F   0  0  0  0  0  0  0  0  0  0  0  0
  1  2  1  0  0  0  0
  1  5  2  0  0  0  0
  2  6  2  0  0  0  0
  3  8  2  0  0  0  0
  3 15  1  0  0  0  0
  4  9  1  0  0  0  0
  4 15  2  0  0  0  0
  5 17  1  0  0  0  0
  6 19  1  0  0  0  0
  7 10  2  0  0  0  0
  7 18  1  0  0  0  0
  8 21  1  0  0  0  0
  9 21  2  0  0  0  0
 10 22  1  0  0  0  0
 11 12  2  0  0  0  0
 11 23  1  0  0  0  0
 12 24  1  0  0  0  0
 13 20  1  0  0  0  0
 13 22  2  0  0  0  0
 14 24  2  0  0  0  0
 14 25  1  0  0  0  0
 15 26  1  0  0  0  0
 16 26  1  0  0  0  0
 16 27  2  0  0  0  0
 16 28  1  0  0  0  0
 17 19  2  0  0  0  0
 17 34  1  0  0  0  0
 18 20  2  0  0  0  0
 18 35  1  0  0  0  0
 19 48  1  0  0  0  0
 20 36  1  0  0  0  0
 21 78  1  0  0  0  0
 22 79  1  0  0  0  0
 23 25  2  0  0  0  0
 23 78  1  0  0  0  0
 24 80  1  0  0  0  0
 25 81  1  0  0  0  0
 26 61  2  0  0  0  0
 27 62  1  0  0  0  0
 27 67  1  0  0  0  0
 28 68  1  0  0  0  0
 28 72  2  0  0  0  0
 29 49  1  0  0  0  0
 29 63  1  0  0  0  0
 29 73  2  0  0  0  0
 30 50  1  0  0  0  0
 30 69  1  0  0  0  0
 30 74  2  0  0  0  0
 31 58  1  0  0  0  0
 31 64  1  0  0  0  0
 31 75  2  0  0  0  0
 32 59  1  0  0  0  0
 32 70  1  0  0  0  0
 32 76  2  0  0  0  0
 33 65  1  0  0  0  0
 33 66  1  0  0  0  0
 33 77  2  0  0  0  0
 34 37  1  0  0  0  0
 35 50  1  0  0  0  0
 36 64  1  0  0  0  0
 37 39  1  0  0  0  0
 38 40  1  0  0  0  0
 38 42  1  0  0  0  0
 39 48  1  0  0  0  0
 40 51  1  0  0  0  0
 41 49  1  0  0  0  0
 41 52  1  0  0  0  0
 42 65  1  0  0  0  0
 43 45  1  0  0  0  0
 43 63  1  0  0  0  0
 44 46  1  0  0  0  0
 44 63  1  0  0  0  0
 45 66  1  0  0  0  0
 46 66  1  0  0  0  0
 47 51  1  0  0  0  0
 47 65  1  0  0  0  0
 48 69  1  0  0  0  0
 49 52  1  0  0  0  0
 50 64  1  0  0  0  0
 51 62  1  0  0  0  0
 52 79  1  0  0  0  0
 53 59  1  0  0  0  0
 54 60  1  0  0  0  0
 55 60  1  0  0  0  0
 56 60  1  0  0  0  0
 57 71  1  0  0  0  0
 58 60  1  0  0  0  0
 58 70  1  0  0  0  0
 59 71  1  0  0  0  0
 61 62  1  0  0  0  0
M  CHG  1  71   1
M  ISO  4  33 100  52 101  66 100  79 101
M  END
> <Batch ID>
0183

> <Smiles>
CNC(C)C(=O)NC(C(=O)N1Cc2cc([101O:1][101CH:1]3CC3C(=O)N3CC[100N:0]([100C:0](=O)N4CCCC(n5nc(-c6ccc(Oc7ccc(F)cc7F)cc6)c(C(N)=O)c5N)C4)CC3)ccc2CC1C(=O)NC1CCCc2ccccc21)C(C)(C)C

> <Shape>
0.249

> <Color>
0.189

> <Negative vol penalty>
0.000

$$$$

  -OEChem-04052323073D

 83 92  0     1  0  0  0  0  0999 V2000
  -18.4296  -29.6031   22.5260 C   0  0  0  0  0  0  0  0  0  0  0  0
  -19.7013  -29.0419   22.5812 C   0  0  0  0  0  0  0  0  0  0  0  0
  -23.0644   -9.8729   19.9662 C   0  0  0  0  0  0  0  0  0  0  0  0
  -23.8080   -9.9187   22.2645 C   0  0  0  0  0  0  0  0  0  0  0  0
  -17.3217  -28.8571   22.9259 C   0  0  0  0  0  0  0  0  0  0  0  0
  -19.8661  -27.7346   23.0374 C   0  0  0  0  0  0  0  0  0  0  0  0
  -23.9783  -23.6418   21.0767 C   0  0  0  0  0  0  0  0  0  0  0  0
  -22.3072   -8.7325   20.2340 C   0  0  0  0  0  0  0  0  0  0  0  0
  -23.0507   -8.7783   22.5323 C   0  0  0  0  0  0  0  0  0  0  0  0
  -25.2152  -23.2403   21.5793 C   0  0  0  0  0  0  0  0  0  0  0  0
  -19.8937   -6.0192   20.4001 C   0  0  0  0  0  0  0  0  0  0  0  0
  -18.5911   -5.9743   19.9033 C   0  0  0  0  0  0  0  0  0  0  0  0
  -24.1549  -21.3754   22.6823 C   0  0  0  0  0  0  0  0  0  0  0  0
  -18.0362   -7.9490   21.1799 C   0  0  0  0  0  0  0  0  0  0  0  0
  -30.6470  -22.0582   24.5024 C   0  0  0  0  0  0  0  0  0  0  0  0
  -23.8149  -10.4660   20.9815 C   0  0  0  0  0  0  0  0  0  0  0  0
  -24.1830  -12.9847   20.8131 C   0  0  0  0  0  0  0  0  0  0  0  0
  -17.4718  -27.5366   23.3781 C   0  0  0  0  0  0  0  0  0  0  0  0
  -22.8168  -22.9181   21.3826 C   0  0  0  0  0  0  0  0  0  0  0  0
  -18.7593  -26.9706   23.4450 C   0  0  0  0  0  0  0  0  0  0  0  0
  -22.9048  -21.7683   22.1803 C   0  0  0  0  0  0  0  0  0  0  0  0
  -22.3003   -8.1852   21.5169 C   0  0  0  0  0  0  0  0  0  0  0  0
  -25.3032  -22.1086   22.3846 C   0  0  0  0  0  0  0  0  0  0  0  0
  -20.2675   -7.0289   21.2869 C   0  0  0  0  0  0  0  0  0  0  0  0
  -17.6623   -6.9392   20.2932 C   0  0  0  0  0  0  0  0  0  0  0  0
  -19.3388   -7.9938   21.6768 C   0  0  0  0  0  0  0  0  0  0  0  0
  -24.5978  -11.6437   20.7055 C   0  0  0  0  0  0  0  0  0  0  0  0
  -25.2852  -13.7158   20.4428 C   0  0  0  0  0  0  0  0  0  0  0  0
  -28.8719  -21.8996   23.1384 C   0  0  0  0  0  0  0  0  0  0  0  0
  -30.2786  -20.1644   23.3556 C   0  0  0  0  0  0  0  0  0  0  0  0
  -22.9149  -13.5215   21.2122 C   0  0  0  0  0  0  0  0  0  0  0  0
  -20.1015  -23.5714   22.9005 C   0  0  0  0  0  0  0  0  0  0  0  0
  -19.2736  -20.6045   21.8832 C   0  0  0  0  0  0  0  0  0  0  0  0
  -20.2778  -17.5094   20.8545 C   0  0  0  0  0  0  0  0  0  0  0  0
  -30.7775  -14.6839   20.6507 C   0  0  0  0  0  0  0  0  0  0  0  0
  -16.2499  -26.7857   23.8444 C   0  0  0  0  0  0  0  0  0  0  0  0
  -21.4941  -23.3491   20.8107 C   0  0  0  0  0  0  0  0  0  0  0  0
  -21.6906  -20.9450   22.5215 C   0  0  0  0  0  0  0  0  0  0  0  0
  -16.4685  -25.2794   23.9614 C   0  0  0  0  0  0  0  0  0  0  0  0
  -29.6329  -12.2630   18.3042 C   0  0  0  0  0  0  0  0  0  0  0  0
  -17.7782  -24.9847   24.6857 C   0  0  0  0  0  0  0  0  0  0  0  0
  -28.1895  -11.9924   18.7325 C   0  0  0  0  0  0  0  0  0  0  0  0
  -31.6325  -16.7398   23.1488 C   0  0  0  0  0  0  0  0  0  0  0  0
  -30.5437  -12.4989   19.5071 C   0  0  0  0  0  0  0  0  0  0  0  0
  -31.8210  -18.1975   23.5681 C   0  0  0  0  0  0  0  0  0  0  0  0
  -28.6396  -13.2768   20.8647 C   0  0  0  0  0  0  0  0  0  0  0  0
  -29.8942  -18.0163   22.1147 C   0  0  0  0  0  0  0  0  0  0  0  0
  -18.9759  -25.5471   23.9106 C   0  0  1  0  0  0  0  0  0  0  0  0
  -20.3011  -22.8312   21.6082 C   0  0  1  0  0  0  0  0  0  0  0  0
  -27.6721  -13.0881   19.6838 C   0  0  2  0  0  0  0  0  0  0  0  0
  -30.8562  -16.8582   21.8444 C   0  0  2  0  0  0  0  0  0  0  0  0
  -19.3716  -15.2848   20.1282 C   0  0  0  0  0  0  0  0  0  0  0  0
  -18.6033  -19.9335   24.7832 C   0  0  0  0  0  0  0  0  0  0  0  0
  -18.6295  -17.5100   24.1555 C   0  0  0  0  0  0  0  0  0  0  0  0
  -16.9730  -19.0509   23.1046 C   0  0  0  0  0  0  0  0  0  0  0  0
  -21.5562  -17.7267   18.1942 C   0  0  0  0  0  0  0  0  0  0  0  0
  -27.6433  -22.5078   22.5286 C   0  0  0  0  0  0  0  0  0  1  0  0
  -19.4072  -19.2076   22.4396 C   0  0  1  0  0  0  0  0  0  0  0  0
  -19.8543  -16.6536   19.6743 C   0  0  2  0  0  0  0  0  0  0  0  0
  -18.4260  -18.9419   23.6161 C   0  0  0  0  0  0  0  0  0  0  0  0
  -29.5623  -22.6673   23.9966 N   0  0  0  0  0  0  0  0  0  0  0  0
  -31.0664  -20.8121   24.2290 N   0  0  0  0  0  0  0  0  0  0  0  0
  -25.8645  -11.5269   20.2985 N   0  0  0  0  0  0  0  0  0  0  0  0
  -29.1686  -20.6427   22.7707 N   0  0  0  0  0  0  0  0  0  0  0  0
  -26.2553  -12.8038   20.1470 N   0  0  0  0  0  0  0  0  0  0  0  0
  -30.6456  -18.8769   23.0269 N   0  0  3  0  0  0  0  0  0  0  0  0
  -20.4191  -21.4107   21.9436 N   0  0  0  0  0  0  0  0  0  0  0  0
  -29.9972  -13.5506   20.3681 N   0  0  0  0  0  0  0  0  0  0  0  0
  -25.5096  -15.0433   20.3445 N   0  0  0  0  0  0  0  0  0  0  0  0
  -21.8915  -12.6294   21.5604 N   0  0  0  0  0  0  0  0  0  0  0  0
  -19.2994  -24.6911   22.7894 N   0  0  0  0  0  0  0  0  0  0  0  0
  -19.2438  -18.3004   21.3088 N   0  0  0  0  0  0  0  0  0  0  0  0
  -30.1818  -15.6354   21.4694 N   0  0  0  0  0  0  0  0  0  0  0  0
  -20.9970  -16.4620   18.7370 N   0  3  0  0  0  0  0  0  0  0  0  0
  -22.6906  -14.7553   21.2430 O   0  0  0  0  0  0  0  0  0  0  0  0
  -20.6345  -23.1564   23.9230 O   0  0  0  0  0  0  0  0  0  0  0  0
  -18.1947  -20.9647   21.4059 O   0  0  0  0  0  0  0  0  0  0  0  0
  -21.4112  -17.4764   21.3285 O   0  0  0  0  0  0  0  0  0  0  0  0
  -31.9184  -14.8388   20.2020 O   0  0  0  0  0  0  0  0  0  0  0  0
  -21.5613   -7.0726   21.7786 O   0  0  0  0  0  0  0  0  0  0  0  0
  -26.5092  -21.7148   22.8770 O   0  0  0  0  0  0  0  0  0  1  0  0
  -16.4119   -6.8968   19.8148 F   0  0  0  0  0  0  0  0  0  0  0  0
  -19.6924   -8.9670   22.5274 F   0  0  0  0  0  0  0  0  0  0  0  0
  1  2  1  0  0  0  0
  1  5  2  0  0  0  0
  2  6  2  0  0  0  0
  3  8  2  0  0  0  0
  3 16  1  0  0  0  0
  4  9  1  0  0  0  0
  4 16  2  0  0  0  0
  5 18  1  0  0  0  0
  6 20  1  0  0  0  0
  7 10  2  0  0  0  0
  7 19  1  0  0  0  0
  8 22  1  0  0  0  0
  9 22  2  0  0  0  0
 10 23  1  0  0  0  0
 11 12  2  0  0  0  0
 11 24  1  0  0  0  0
 12 25  1  0  0  0  0
 13 21  1  0  0  0  0
 13 23  2  0  0  0  0
 14 25  2  0  0  0  0
 14 26  1  0  0  0  0
 15 61  2  0  0  0  0
 15 62  1  0  0  0  0
 16 27  1  0  0  0  0
 17 27  1  0  0  0  0
 17 28  2  0  0  0  0
 17 31  1  0  0  0  0
 18 20  2  0  0  0  0
 18 36  1  0  0  0  0
 19 21  2  0  0  0  0
 19 37  1  0  0  0  0
 20 48  1  0  0  0  0
 21 38  1  0  0  0  0
 22 80  1  0  0  0  0
 23 81  1  0  0  0  0
 24 26  2  0  0  0  0
 24 80  1  0  0  0  0
 25 82  1  0  0  0  0
 26 83  1  0  0  0  0
 27 63  2  0  0  0  0
 28 65  1  0  0  0  0
 28 69  1  0  0  0  0
 29 57  1  0  0  0  0
 29 61  1  0  0  0  0
 29 64  2  0  0  0  0
 30 62  2  0  0  0  0
 30 64  1  0  0  0  0
 30 66  1  0  0  0  0
 31 70  1  0  0  0  0
 31 75  2  0  0  0  0
 32 49  1  0  0  0  0
 32 71  1  0  0  0  0
 32 76  2  0  0  0  0
 33 58  1  0  0  0  0
 33 67  1  0  0  0  0
 33 77  2  0  0  0  0
 34 59  1  0  0  0  0
 34 72  1  0  0  0  0
 34 78  2  0  0  0  0
 35 68  1  0  0  0  0
 35 73  1  0  0  0  0
 35 79  2  0  0  0  0
 36 39  1  0  0  0  0
 37 49  1  0  0  0  0
 38 67  1  0  0  0  0
 39 41  1  0  0  0  0
 40 42  1  0  0  0  0
 40 44  1  0  0  0  0
 41 48  1  0  0  0  0
 42 50  1  0  0  0  0
 43 45  1  0  0  0  0
 43 51  1  0  0  0  0
 44 68  1  0  0  0  0
 45 66  1  0  0  0  0
 46 50  1  0  0  0  0
 46 68  1  0  0  0  0
 47 51  1  0  0  0  0
 47 66  1  0  0  0  0
 48 71  1  0  0  0  0
 49 67  1  0  0  0  0
 50 65  1  0  0  0  0
 51 73  1  0  0  0  0
 52 59  1  0  0  0  0
 53 60  1  0  0  0  0
 54 60  1  0  0  0  0
 55 60  1  0  0  0  0
 56 74  1  0  0  0  0
 57 81  1  0  0  0  0
 58 60  1  0  0  0  0
 58 72  1  0  0  0  0
 59 74  1  0  0  0  0
 63 65  1  0  0  0  0
M  CHG  1  74   1
M  ISO  4  35 100  57 101  73 100  81 101
M  END
> <Batch ID>
0183

> <Smiles>
CNC(C)C(=O)NC(C(=O)N1Cc2cc([101O:1][101CH2:1]c3ncnc(N4CCC([100NH:0][100C:0](=O)N5CCCC(n6nc(-c7ccc(Oc8ccc(F)cc8F)cc7)c(C(N)=O)c6N)C5)C4)n3)ccc2CC1C(=O)NC1CCCc2ccccc21)C(C)(C)C

> <Shape>
0.197

> <Color>
0.193

> <Negative vol penalty>
0.000

$$$$

  -OEChem-04052323073D

 85 95  0     1  0  0  0  0  0999 V2000
  -21.0968  -33.3396   14.9039 C   0  0  0  0  0  0  0  0  0  0  0  0
  -21.8865  -32.2128   15.1091 C   0  0  0  0  0  0  0  0  0  0  0  0
  -23.6045  -10.6563   22.0267 C   0  0  0  0  0  0  0  0  0  0  0  0
  -24.7765   -9.1327   20.5631 C   0  0  0  0  0  0  0  0  0  0  0  0
  -21.3042  -34.4842   15.6726 C   0  0  0  0  0  0  0  0  0  0  0  0
  -22.8849  -32.2303   16.0824 C   0  0  0  0  0  0  0  0  0  0  0  0
  -24.6847  -27.5475   19.5950 C   0  0  0  0  0  0  0  0  0  0  0  0
  -22.4935   -9.8132   22.0148 C   0  0  0  0  0  0  0  0  0  0  0  0
  -23.6654   -8.2895   20.5512 C   0  0  0  0  0  0  0  0  0  0  0  0
  -25.7547  -26.6591   19.4976 C   0  0  0  0  0  0  0  0  0  0  0  0
  -21.2692   -5.5582   20.4250 C   0  0  0  0  0  0  0  0  0  0  0  0
  -21.4906   -4.1902   20.5839 C   0  0  0  0  0  0  0  0  0  0  0  0
  -27.0333  -28.0433   21.0037 C   0  0  0  0  0  0  0  0  0  0  0  0
  -22.4957   -4.6036   22.7417 C   0  0  0  0  0  0  0  0  0  0  0  0
  -24.7461  -10.3161   21.3008 C   0  0  0  0  0  0  0  0  0  0  0  0
  -26.9763  -11.1551   22.2119 C   0  0  0  0  0  0  0  0  0  0  0  0
  -22.2992  -34.5125   16.6624 C   0  0  0  0  0  0  0  0  0  0  0  0
  -24.7850  -28.6982   20.3902 C   0  0  0  0  0  0  0  0  0  0  0  0
  -23.1067  -33.3768   16.8641 C   0  0  0  0  0  0  0  0  0  0  0  0
  -25.9622  -28.9435   21.1115 C   0  0  0  0  0  0  0  0  0  0  0  0
  -28.9722  -22.6924   19.1580 C   0  0  0  0  0  0  0  0  0  0  0  0
  -22.5239   -8.6297   21.2771 C   0  0  0  0  0  0  0  0  0  0  0  0
  -26.9303  -26.9084   20.1998 C   0  0  0  0  0  0  0  0  0  0  0  0
  -21.6612   -6.4489   21.4243 C   0  0  0  0  0  0  0  0  0  0  0  0
  -22.1038   -3.7129   21.7423 C   0  0  0  0  0  0  0  0  0  0  0  0
  -22.2744   -5.9716   22.5827 C   0  0  0  0  0  0  0  0  0  0  0  0
  -25.8939  -11.1870   21.3123 C   0  0  0  0  0  0  0  0  0  0  0  0
  -30.1754  -22.0197   19.2234 C   0  0  0  0  0  0  0  0  0  0  0  0
  -29.0437  -24.0608   19.3212 C   0  0  0  0  0  0  0  0  0  0  0  0
  -27.7949  -12.1785   21.8007 C   0  0  0  0  0  0  0  0  0  0  0  0
  -31.3004  -23.9633   19.5752 C   0  0  0  0  0  0  0  0  0  0  0  0
  -27.2200  -10.2787   23.3201 C   0  0  0  0  0  0  0  0  0  0  0  0
  -24.6605  -31.8257   19.8361 C   0  0  0  0  0  0  0  0  0  0  0  0
  -24.7858  -32.0094   23.0723 C   0  0  0  0  0  0  0  0  0  0  0  0
  -25.6821  -30.5505   26.0244 C   0  0  0  0  0  0  0  0  0  0  0  0
  -28.3447  -17.4472   20.2873 C   0  0  0  0  0  0  0  0  0  0  0  0
  -22.5175  -35.7886   17.4360 C   0  0  0  0  0  0  0  0  0  0  0  0
  -23.6122  -29.6328   20.5057 C   0  0  0  0  0  0  0  0  0  0  0  0
  -26.1132  -30.1538   21.9950 C   0  0  0  0  0  0  0  0  0  0  0  0
  -23.3477  -35.5985   18.7029 C   0  0  0  0  0  0  0  0  0  0  0  0
  -27.7325  -14.9815   17.6118 C   0  0  0  0  0  0  0  0  0  0  0  0
  -27.5297  -21.1106   17.7121 C   0  0  0  0  0  0  0  0  0  0  0  0
  -26.8060  -22.4192   17.7755 C   0  0  0  0  0  0  0  0  0  0  0  0
  -24.5804  -34.7487   18.4108 C   0  0  0  0  0  0  0  0  0  0  0  0
  -27.2357  -13.7874   18.4214 C   0  0  0  0  0  0  0  0  0  0  0  0
  -30.8589  -19.6986   20.1279 C   0  0  0  0  0  0  0  0  0  0  0  0
  -27.3082  -16.3118   18.2326 C   0  0  0  0  0  0  0  0  0  0  0  0
  -27.2068  -15.2577   20.4738 C   0  0  0  0  0  0  0  0  0  0  0  0
  -27.6791  -21.9902   18.9266 C   0  0  0  0  0  0  0  0  0  0  0  0
  -24.1833  -33.3487   17.9273 C   0  0  1  0  0  0  0  0  0  0  0  0
  -30.2107  -20.5346   19.0596 C   0  0  1  0  0  0  0  0  0  0  0  0
  -24.0101  -31.0402   20.9396 C   0  0  1  0  0  0  0  0  0  0  0  0
  -27.6653  -13.9121   19.8912 C   0  0  1  0  0  0  0  0  0  0  0  0
  -29.3667  -19.6811   19.9751 C   0  0  1  0  0  0  0  0  0  0  0  0
  -32.5934  -24.6691   19.8066 C   0  0  0  0  0  0  0  0  0  0  0  0
  -25.6928  -30.9591   28.5004 C   0  0  0  0  0  0  0  0  0  0  0  0
  -27.1619  -33.8960   22.7482 C   0  0  0  0  0  0  0  0  0  0  0  0
  -27.7072  -33.5115   25.1613 C   0  0  0  0  0  0  0  0  0  0  0  0
  -25.5356  -34.5627   24.5272 C   0  0  0  0  0  0  0  0  0  0  0  0
  -23.9365  -28.2156   26.5345 C   0  0  0  0  0  0  0  0  0  0  0  0
  -27.8009  -24.9000   19.2701 C   0  0  0  0  0  0  0  0  0  1  0  0
  -25.8918  -32.0971   24.0961 C   0  0  1  0  0  0  0  0  0  0  0  0
  -24.9260  -30.3674   27.3280 C   0  0  2  0  0  0  0  0  0  0  0  0
  -26.5723  -33.4949   24.1151 C   0  0  0  0  0  0  0  0  0  0  0  0
  -26.0112  -12.1542   20.3986 N   0  0  0  0  0  0  0  0  0  0  0  0
  -31.3627  -22.6258   19.4314 N   0  0  0  0  0  0  0  0  0  0  0  0
  -30.1951  -24.7315   19.5325 N   0  0  0  0  0  0  0  0  0  0  0  0
  -27.1770  -12.7395   20.7220 N   0  0  0  0  0  0  0  0  0  0  0  0
  -24.9408  -31.0411   22.0702 N   0  0  0  0  0  0  0  0  0  0  0  0
  -27.6721  -16.3850   19.6564 N   0  0  0  0  0  0  0  0  0  0  0  0
  -28.9757  -12.6442   22.2602 N   0  0  0  0  0  0  0  0  0  0  0  0
  -26.2765   -9.2818   23.6036 N   0  0  0  0  0  0  0  0  0  0  0  0
  -23.7707  -32.5263   19.0444 N   0  0  0  0  0  0  0  0  0  0  0  0
  -25.3007  -31.7028   25.3703 N   0  0  0  0  0  0  0  0  0  0  0  0
  -28.6824  -18.5206   19.4707 N   0  0  0  0  0  0  0  0  0  0  0  0
  -24.7004  -28.9190   27.5969 N   0  3  0  0  0  0  0  0  0  0  0  0
  -28.2360  -10.3871   24.0478 O   0  0  0  0  0  0  0  0  0  0  0  0
  -25.8794  -31.7993   19.7130 O   0  0  0  0  0  0  0  0  0  0  0  0
  -23.8166  -32.7671   23.1627 O   0  0  0  0  0  0  0  0  0  0  0  0
  -26.5292  -29.7531   25.6281 O   0  0  0  0  0  0  0  0  0  0  0  0
  -28.6204  -17.4441   21.4921 O   0  0  0  0  0  0  0  0  0  0  0  0
  -21.4400   -7.8066   21.2654 O   0  0  0  0  0  0  0  0  0  0  0  0
  -27.9764  -26.0431   20.1060 O   0  0  0  0  0  0  0  0  0  1  0  0
  -22.3149   -2.3991   21.8954 F   0  0  0  0  0  0  0  0  0  0  0  0
  -22.6520   -6.8223   23.5468 F   0  0  0  0  0  0  0  0  0  0  0  0
  1  2  1  0  0  0  0
  1  5  2  0  0  0  0
  2  6  2  0  0  0  0
  3  8  2  0  0  0  0
  3 15  1  0  0  0  0
  4  9  1  0  0  0  0
  4 15  2  0  0  0  0
  5 17  1  0  0  0  0
  6 19  1  0  0  0  0
  7 10  2  0  0  0  0
  7 18  1  0  0  0  0
  8 22  1  0  0  0  0
  9 22  2  0  0  0  0
 10 23  1  0  0  0  0
 11 12  2  0  0  0  0
 11 24  1  0  0  0  0
 12 25  1  0  0  0  0
 13 20  1  0  0  0  0
 13 23  2  0  0  0  0
 14 25  2  0  0  0  0
 14 26  1  0  0  0  0
 15 27  1  0  0  0  0
 16 27  1  0  0  0  0
 16 30  2  0  0  0  0
 16 32  1  0  0  0  0
 17 19  2  0  0  0  0
 17 37  1  0  0  0  0
 18 20  2  0  0  0  0
 18 38  1  0  0  0  0
 19 50  1  0  0  0  0
 20 39  1  0  0  0  0
 21 28  1  0  0  0  0
 21 29  2  0  0  0  0
 21 49  1  0  0  0  0
 22 82  1  0  0  0  0
 23 83  1  0  0  0  0
 24 26  2  0  0  0  0
 24 82  1  0  0  0  0
 25 84  1  0  0  0  0
 26 85  1  0  0  0  0
 27 65  2  0  0  0  0
 28 51  1  0  0  0  0
 28 66  2  0  0  0  0
 29 61  1  0  0  0  0
 29 67  1  0  0  0  0
 30 68  1  0  0  0  0
 30 71  1  0  0  0  0
 31 55  1  0  0  0  0
 31 66  1  0  0  0  0
 31 67  2  0  0  0  0
 32 72  1  0  0  0  0
 32 77  2  0  0  0  0
 33 52  1  0  0  0  0
 33 73  1  0  0  0  0
 33 78  2  0  0  0  0
 34 62  1  0  0  0  0
 34 69  1  0  0  0  0
 34 79  2  0  0  0  0
 35 63  1  0  0  0  0
 35 74  1  0  0  0  0
 35 80  2  0  0  0  0
 36 70  1  0  0  0  0
 36 75  1  0  0  0  0
 36 81  2  0  0  0  0
 37 40  1  0  0  0  0
 38 52  1  0  0  0  0
 39 69  1  0  0  0  0
 40 44  1  0  0  0  0
 41 45  1  0  0  0  0
 41 47  1  0  0  0  0
 42 43  1  0  0  0  0
 42 49  1  0  0  0  0
 43 49  1  0  0  0  0
 44 50  1  0  0  0  0
 45 53  1  0  0  0  0
 46 51  1  0  0  0  0
 46 54  1  0  0  0  0
 47 70  1  0  0  0  0
 48 53  1  0  0  0  0
 48 70  1  0  0  0  0
 50 73  1  0  0  0  0
 51 54  1  0  0  0  0
 52 69  1  0  0  0  0
 53 68  1  0  0  0  0
 54 75  1  0  0  0  0
 56 63  1  0  0  0  0
 57 64  1  0  0  0  0
 58 64  1  0  0  0  0
 59 64  1  0  0  0  0
 60 76  1  0  0  0  0
 61 83  1  0  0  0  0
 62 64  1  0  0  0  0
 62 74  1  0  0  0  0
 63 76  1  0  0  0  0
 65 68  1  0  0  0  0
M  CHG  1  76   1
M  ISO  4  36 100  61 101  75 100  83 101
M  END
> <Batch ID>
0183

> <Smiles>
CNC(C)C(=O)NC(C(=O)N1Cc2cc([101O:1][101CH2:1]c3nc(C)nc(C4CC4[100NH:0][100C:0](=O)N4CCCC(n5nc(-c6ccc(Oc7ccc(F)cc7F)cc6)c(C(N)=O)c5N)C4)c3C3CC3)ccc2CC1C(=O)NC1CCCc2ccccc21)C(C)(C)C

> <Shape>
0.296

> <Color>
0.100

> <Negative vol penalty>
0.000

$$$$

  -OEChem-04052323073D

 87 96  0     1  0  0  0  0  0999 V2000
  -17.7945  -27.1924   23.1117 C   0  0  0  0  0  0  0  0  0  0  0  0
  -18.7557  -26.6491   22.2654 C   0  0  0  0  0  0  0  0  0  0  0  0
  -23.5937   -8.7405   20.2497 C   0  0  0  0  0  0  0  0  0  0  0  0
  -23.1280  -10.6049   21.7140 C   0  0  0  0  0  0  0  0  0  0  0  0
  -17.8718  -28.5344   23.4819 C   0  0  0  0  0  0  0  0  0  0  0  0
  -19.7943  -27.4478   21.7879 C   0  0  0  0  0  0  0  0  0  0  0  0
  -24.2961  -25.1438   22.0521 C   0  0  0  0  0  0  0  0  0  0  0  0
  -22.6892   -7.9541   20.9632 C   0  0  0  0  0  0  0  0  0  0  0  0
  -22.2235   -9.8185   22.4275 C   0  0  0  0  0  0  0  0  0  0  0  0
  -24.5845  -24.1954   21.0717 C   0  0  0  0  0  0  0  0  0  0  0  0
  -22.6388   -6.2349   23.8729 C   0  0  0  0  0  0  0  0  0  0  0  0
  -23.0312   -4.9390   24.2075 C   0  0  0  0  0  0  0  0  0  0  0  0
  -25.9051  -25.8301   19.8873 C   0  0  0  0  0  0  0  0  0  0  0  0
  -21.1644   -4.0508   22.9571 C   0  0  0  0  0  0  0  0  0  0  0  0
  -23.8131  -10.0659   20.6251 C   0  0  0  0  0  0  0  0  0  0  0  0
  -24.4731  -11.6884   18.7706 C   0  0  0  0  0  0  0  0  0  0  0  0
  -18.9172  -29.3475   23.0165 C   0  0  0  0  0  0  0  0  0  0  0  0
  -24.8020  -26.4478   21.9516 C   0  0  0  0  0  0  0  0  0  0  0  0
  -19.8848  -28.8023   22.1512 C   0  0  0  0  0  0  0  0  0  0  0  0
  -25.6238  -26.7925   20.8690 C   0  0  0  0  0  0  0  0  0  0  0  0
  -27.1270  -21.8829   18.2563 C   0  0  0  0  0  0  0  0  0  0  0  0
  -22.0041   -8.4931   22.0521 C   0  0  0  0  0  0  0  0  0  0  0  0
  -25.3867  -24.5393   19.9876 C   0  0  0  0  0  0  0  0  0  0  0  0
  -21.5091   -6.4389   23.0805 C   0  0  0  0  0  0  0  0  0  0  0  0
  -22.2941   -3.8469   23.7496 C   0  0  0  0  0  0  0  0  0  0  0  0
  -20.7720   -5.3469   22.6226 C   0  0  0  0  0  0  0  0  0  0  0  0
  -24.7478  -10.8785   19.8888 C   0  0  0  0  0  0  0  0  0  0  0  0
  -28.2691  -21.1530   18.5151 C   0  0  0  0  0  0  0  0  0  0  0  0
  -26.7982  -22.8325   19.2021 C   0  0  0  0  0  0  0  0  0  1  0  0
  -25.6849  -12.2474   18.4456 C   0  0  0  0  0  0  0  0  0  0  0  0
  -28.6130  -22.2844   20.4564 C   0  0  0  0  0  0  0  0  0  0  0  0
  -23.2335  -11.9152   18.0868 C   0  0  0  0  0  0  0  0  0  0  0  0
  -23.5110  -29.3406   21.6886 C   0  0  0  0  0  0  0  0  0  0  0  0
  -26.5889  -30.3160   22.0013 C   0  0  0  0  0  0  0  0  0  0  0  0
  -29.9067  -29.5858   21.6764 C   0  0  0  0  0  0  0  0  0  0  0  0
  -30.4515  -14.7385   19.9353 C   0  0  0  0  0  0  0  0  0  0  0  0
  -18.9323  -30.8044   23.4062 C   0  0  0  0  0  0  0  0  0  0  0  0
  -24.5036  -27.4516   23.0313 C   0  0  0  0  0  0  0  0  0  0  0  0
  -26.2082  -28.1731   20.7251 C   0  0  0  0  0  0  0  0  0  0  0  0
  -20.2744  -31.4877   23.1570 C   0  0  0  0  0  0  0  0  0  0  0  0
  -30.3486  -11.1830   20.0898 C   0  0  0  0  0  0  0  0  0  0  0  0
  -20.8014  -31.1388   21.7687 C   0  0  0  0  0  0  0  0  0  0  0  0
  -28.8598  -10.8544   19.9654 C   0  0  0  0  0  0  0  0  0  0  0  0
  -30.4810  -16.9785   17.4685 C   0  0  0  0  0  0  0  0  0  0  0  0
  -30.5794  -12.4590   20.8963 C   0  0  0  0  0  0  0  0  0  0  0  0
  -28.3470  -13.3099   20.2912 C   0  0  0  0  0  0  0  0  0  0  0  0
  -30.5970  -18.4528   17.1143 C   0  0  0  0  0  0  0  0  0  0  0  0
  -29.1649  -18.1254   19.0702 C   0  0  0  0  0  0  0  0  0  0  0  0
  -21.0404  -29.6302   21.6324 C   0  0  1  0  0  0  0  0  0  0  0  0
  -24.6502  -28.8957   22.5616 C   0  0  1  0  0  0  0  0  0  0  0  0
  -28.0612  -12.0618   19.4386 C   0  0  2  0  0  0  0  0  0  0  0  0
  -30.1590  -16.9869   18.9530 C   0  0  1  0  0  0  0  0  0  0  0  0
  -29.4385  -22.5076   21.6779 C   0  0  0  0  0  0  0  0  0  0  0  0
  -25.1834  -20.6472   17.2699 C   0  0  0  0  0  0  0  0  0  0  0  0
  -32.1844  -30.5964   21.9732 C   0  0  0  0  0  0  0  0  0  0  0  0
  -26.2125  -31.9136   19.4292 C   0  0  0  0  0  0  0  0  0  0  0  0
  -28.7033  -32.1093   19.2686 C   0  0  0  0  0  0  0  0  0  0  0  0
  -27.4991  -33.1003   21.2155 C   0  0  0  0  0  0  0  0  0  0  0  0
  -30.6684  -27.5625   23.6976 C   0  0  0  0  0  0  0  0  0  0  0  0
  -28.7235  -20.0971   17.5619 C   0  0  0  0  0  0  0  0  0  0  0  0
  -26.3008  -21.6648   17.0391 C   0  0  1  0  0  0  0  0  0  0  0  0
  -27.7264  -30.5879   21.0468 C   0  0  1  0  0  0  0  0  0  0  0  0
  -31.0781  -29.7795   22.6224 C   0  0  2  0  0  0  0  0  0  0  0  0
  -27.5229  -31.9022   20.2415 C   0  0  0  0  0  0  0  0  0  0  0  0
  -26.0331  -10.9166   20.2498 N   0  0  0  0  0  0  0  0  0  0  0  0
  -29.0388  -21.3281   19.6093 N   0  0  0  0  0  0  0  0  0  0  0  0
  -27.5213  -23.0608   20.3180 N   0  0  0  0  0  0  0  0  0  0  0  0
  -26.5770  -11.7572   19.3533 N   0  0  0  0  0  0  0  0  0  0  0  0
  -25.8824  -29.1211   21.8033 N   0  0  0  0  0  0  0  0  0  0  0  0
  -29.7949  -13.5660   20.3441 N   0  0  0  0  0  0  0  0  0  0  0  0
  -26.0637  -13.1055   17.4747 N   0  0  0  0  0  0  0  0  0  0  0  0
  -22.0844  -11.2617   18.5523 N   0  0  0  0  0  0  0  0  0  0  0  0
  -22.2714  -29.2519   22.2927 N   0  0  0  0  0  0  0  0  0  0  0  0
  -28.9460  -30.5601   21.8469 N   0  0  0  0  0  0  0  0  0  0  0  0
  -29.6345  -15.7361   19.4176 N   0  0  0  0  0  0  0  0  0  0  0  0
  -29.7454  -19.1744   18.1441 N   0  3  2  0  0  0  0  0  0  0  0  0
  -31.6424  -28.4602   23.0249 N   0  3  0  0  0  0  0  0  0  0  0  0
  -23.1506  -12.6622   17.0825 O   0  0  0  0  0  0  0  0  0  0  0  0
  -23.7399  -29.7365   20.5517 O   0  0  0  0  0  0  0  0  0  0  0  0
  -26.3409  -31.1301   22.8942 O   0  0  0  0  0  0  0  0  0  0  0  0
  -29.8513  -28.6646   20.8647 O   0  0  0  0  0  0  0  0  0  0  0  0
  -31.6757  -14.8834   20.0200 O   0  0  0  0  0  0  0  0  0  0  0  0
  -21.1212   -7.7262   22.7485 O   0  0  0  0  0  0  0  0  0  0  0  0
  -25.6692  -23.6157   19.0290 O   0  0  0  0  0  0  0  0  0  1  0  0
  -22.6719   -2.6023   24.0697 F   0  0  0  0  0  0  0  0  0  0  0  0
  -19.6865   -5.5365   21.8600 F   0  0  0  0  0  0  0  0  0  0  0  0
  -25.7009  -22.8108   16.5751 F   0  0  0  0  0  0  0  0  0  0  0  0
  1  2  1  0  0  0  0
  1  5  2  0  0  0  0
  2  6  2  0  0  0  0
  3  8  2  0  0  0  0
  3 15  1  0  0  0  0
  4  9  1  0  0  0  0
  4 15  2  0  0  0  0
  5 17  1  0  0  0  0
  6 19  1  0  0  0  0
  7 10  2  0  0  0  0
  7 18  1  0  0  0  0
  8 22  1  0  0  0  0
  9 22  2  0  0  0  0
 10 23  1  0  0  0  0
 11 12  2  0  0  0  0
 11 24  1  0  0  0  0
 12 25  1  0  0  0  0
 13 20  1  0  0  0  0
 13 23  2  0  0  0  0
 14 25  2  0  0  0  0
 14 26  1  0  0  0  0
 15 27  1  0  0  0  0
 16 27  1  0  0  0  0
 16 30  2  0  0  0  0
 16 32  1  0  0  0  0
 17 19  2  0  0  0  0
 17 37  1  0  0  0  0
 18 20  2  0  0  0  0
 18 38  1  0  0  0  0
 19 49  1  0  0  0  0
 20 39  1  0  0  0  0
 21 28  1  0  0  0  0
 21 29  2  0  0  0  0
 21 61  1  0  0  0  0
 22 83  1  0  0  0  0
 23 84  1  0  0  0  0
 24 26  2  0  0  0  0
 24 83  1  0  0  0  0
 25 85  1  0  0  0  0
 26 86  1  0  0  0  0
 27 65  2  0  0  0  0
 28 60  1  0  0  0  0
 28 66  2  0  0  0  0
 29 67  1  0  0  0  0
 29 84  1  0  0  0  0
 30 68  1  0  0  0  0
 30 71  1  0  0  0  0
 31 53  1  0  0  0  0
 31 66  1  0  0  0  0
 31 67  2  0  0  0  0
 32 72  1  0  0  0  0
 32 78  2  0  0  0  0
 33 50  1  0  0  0  0
 33 73  1  0  0  0  0
 33 79  2  0  0  0  0
 34 62  1  0  0  0  0
 34 69  1  0  0  0  0
 34 80  2  0  0  0  0
 35 63  1  0  0  0  0
 35 74  1  0  0  0  0
 35 81  2  0  0  0  0
 36 70  1  0  0  0  0
 36 75  1  0  0  0  0
 36 82  2  0  0  0  0
 37 40  1  0  0  0  0
 38 50  1  0  0  0  0
 39 69  1  0  0  0  0
 40 42  1  0  0  0  0
 41 43  1  0  0  0  0
 41 45  1  0  0  0  0
 42 49  1  0  0  0  0
 43 51  1  0  0  0  0
 44 47  1  0  0  0  0
 44 52  1  0  0  0  0
 45 70  1  0  0  0  0
 46 51  1  0  0  0  0
 46 70  1  0  0  0  0
 47 76  1  0  0  0  0
 48 52  1  0  0  0  0
 48 76  1  0  0  0  0
 49 73  1  0  0  0  0
 50 69  1  0  0  0  0
 51 68  1  0  0  0  0
 52 75  1  0  0  0  0
 54 61  1  0  0  0  0
 55 63  1  0  0  0  0
 56 64  1  0  0  0  0
 57 64  1  0  0  0  0
 58 64  1  0  0  0  0
 59 77  1  0  0  0  0
 60 76  1  0  0  0  0
 61 87  1  0  0  0  0
 62 64  1  0  0  0  0
 62 74  1  0  0  0  0
 63 77  1  0  0  0  0
 65 68  1  0  0  0  0
M  CHG  2  76   1  77   1
M  ISO  4  29 101  36 100  75 100  84 101
M  END
> <Batch ID>
0183

> <Smiles>
CNC(C)C(=O)NC(C(=O)N1Cc2cc([101O:1][101c:1]3nc(C)nc(CN4CCC([100NH:0][100C:0](=O)N5CCCC(n6nc(-c7ccc(Oc8ccc(F)cc8F)cc7)c(C(N)=O)c6N)C5)C4)c3C(C)F)ccc2CC1C(=O)NC1CCCc2ccccc21)C(C)(C)C

> <Shape>
0.279

> <Color>
0.102

> <Negative vol penalty>
0.000

$$$$

  -OEChem-04052323073D

 86 96  0     1  0  0  0  0  0999 V2000
  -27.5811  -24.9323   16.3862 C   0  0  0  0  0  0  0  0  0  0  0  0
  -26.4127  -25.1734   17.1018 C   0  0  0  0  0  0  0  0  0  0  0  0
  -25.3208  -10.9187   24.2115 C   0  0  0  0  0  0  0  0  0  0  0  0
  -24.8493   -9.7162   22.1697 C   0  0  0  0  0  0  0  0  0  0  0  0
  -28.8114  -25.3297   16.9082 C   0  0  0  0  0  0  0  0  0  0  0  0
  -26.4740  -25.8109   18.3405 C   0  0  0  0  0  0  0  0  0  0  0  0
  -22.9450  -29.4068   18.8512 C   0  0  0  0  0  0  0  0  0  0  0  0
  -25.5080   -9.7092   24.8806 C   0  0  0  0  0  0  0  0  0  0  0  0
  -25.0366   -8.5067   22.8388 C   0  0  0  0  0  0  0  0  0  0  0  0
  -21.6466  -28.9883   19.1390 C   0  0  0  0  0  0  0  0  0  0  0  0
  -25.0368   -5.0955   24.0933 C   0  0  0  0  0  0  0  0  0  0  0  0
  -24.1061   -4.0807   23.8709 C   0  0  0  0  0  0  0  0  0  0  0  0
  -18.3035  -25.4951   21.6831 C   0  0  0  0  0  0  0  0  0  0  0  0
  -21.9971  -29.5207   21.4656 C   0  0  0  0  0  0  0  0  0  0  0  0
  -22.3489   -5.5070   24.7165 C   0  0  0  0  0  0  0  0  0  0  0  0
  -20.6496  -25.2373   21.3883 C   0  0  0  0  0  0  0  0  0  0  0  0
  -24.9914  -10.9222   22.8560 C   0  0  0  0  0  0  0  0  0  0  0  0
  -25.7730  -12.9309   21.4915 C   0  0  0  0  0  0  0  0  0  0  0  0
  -28.8869  -25.9811   18.1494 C   0  0  0  0  0  0  0  0  0  0  0  0
  -23.7843  -29.8759   19.8720 C   0  0  0  0  0  0  0  0  0  0  0  0
  -27.7066  -26.2162   18.8801 C   0  0  0  0  0  0  0  0  0  0  0  0
  -18.4411  -26.8399   21.3578 C   0  0  0  0  0  0  0  0  0  0  0  0
  -23.3049  -29.9469   21.1877 C   0  0  0  0  0  0  0  0  0  0  0  0
  -19.4240  -24.6719   21.7014 C   0  0  0  0  0  0  0  0  0  0  0  0
  -25.3659   -8.5032   24.1943 C   0  0  0  0  0  0  0  0  0  0  0  0
  -21.1734  -29.0425   20.4468 C   0  0  0  0  0  0  0  0  0  0  0  0
  -24.6236   -6.3161   24.6273 C   0  0  0  0  0  0  0  0  0  0  0  0
  -22.7621   -4.2864   24.1824 C   0  0  0  0  0  0  0  0  0  0  0  0
  -23.2797   -6.5218   24.9389 C   0  0  0  0  0  0  0  0  0  0  0  0
  -24.7973  -12.1712   22.1644 C   0  0  0  0  0  0  0  0  0  0  0  0
  -19.7106  -27.3087   21.0604 C   0  0  0  0  0  0  0  0  0  1  0  0
  -25.0880  -14.0187   21.0080 C   0  0  0  0  0  0  0  0  0  0  0  0
  -27.1733  -12.6759   21.3188 C   0  0  0  0  0  0  0  0  0  0  0  0
  -26.5608  -28.9369   21.1022 C   0  0  0  0  0  0  0  0  0  0  0  0
  -26.3071  -31.7008   22.7811 C   0  0  0  0  0  0  0  0  0  0  0  0
  -24.2904  -34.1373   24.0630 C   0  0  0  0  0  0  0  0  0  0  0  0
  -21.4492  -18.1109   22.1506 C   0  0  0  0  0  0  0  0  0  0  0  0
  -30.2440  -26.3496   18.6945 C   0  0  0  0  0  0  0  0  0  0  0  0
  -25.1733  -30.3487   19.5408 C   0  0  0  0  0  0  0  0  0  0  0  0
  -24.1592  -30.4615   22.3164 C   0  0  0  0  0  0  0  0  0  0  0  0
  -30.1871  -27.3549   19.8418 C   0  0  0  0  0  0  0  0  0  0  0  0
  -20.1253  -14.9439   20.7461 C   0  0  0  0  0  0  0  0  0  0  0  0
  -29.1230  -26.9478   20.8560 C   0  0  0  0  0  0  0  0  0  0  0  0
  -21.3031  -13.9967   20.9795 C   0  0  0  0  0  0  0  0  0  0  0  0
  -19.3128  -20.0546   19.8770 C   0  0  0  0  0  0  0  0  0  0  0  0
  -20.0672  -16.0173   21.8252 C   0  0  0  0  0  0  0  0  0  0  0  0
  -19.6300  -18.6697   20.4323 C   0  0  0  0  0  0  0  0  0  0  0  0
  -22.5000  -15.8779   22.1978 C   0  0  0  0  0  0  0  0  0  0  0  0
  -20.3783  -20.3410   21.9899 C   0  0  0  0  0  0  0  0  0  0  0  0
  -17.2045  -28.9385   22.2574 C   0  0  0  0  0  0  0  0  0  0  0  0
  -27.7298  -26.9273   20.2157 C   0  0  1  0  0  0  0  0  0  0  0  0
  -17.2488  -27.7324   21.3352 C   0  0  2  0  0  0  0  0  0  0  0  0
  -26.1144  -30.3255   20.7413 C   0  0  1  0  0  0  0  0  0  0  0  0
  -22.6224  -14.7755   21.1309 C   0  0  1  0  0  0  0  0  0  0  0  0
  -19.2408  -20.8886   21.1474 C   0  0  1  0  0  0  0  0  0  0  0  0
  -24.3679  -36.2465   25.4205 C   0  0  0  0  0  0  0  0  0  0  0  0
  -26.7091  -30.0514   25.3164 C   0  0  0  0  0  0  0  0  0  0  0  0
  -25.8433  -31.9956   26.6350 C   0  0  0  0  0  0  0  0  0  0  0  0
  -27.9290  -32.2344   25.2877 C   0  0  0  0  0  0  0  0  0  0  0  0
  -23.1612  -35.7423   21.8476 C   0  0  0  0  0  0  0  0  0  0  0  0
  -19.3093  -23.2169   22.0488 C   0  0  0  0  0  0  0  0  0  0  0  0
  -25.6987  -32.0954   24.1052 C   0  0  1  0  0  0  0  0  0  0  0  0
  -24.3886  -35.6516   24.0211 C   0  0  2  0  0  0  0  0  0  0  0  0
  -26.5293  -31.5826   25.3153 C   0  0  0  0  0  0  0  0  0  0  0  0
  -20.8222  -26.5392   21.0669 N   0  0  0  0  0  0  0  0  0  0  0  0
  -23.5849  -12.7293   22.1152 N   0  0  0  0  0  0  0  0  0  0  0  0
  -23.7941  -13.8513   21.4056 N   0  0  0  0  0  0  0  0  0  0  0  0
  -25.5121  -30.9063   21.9430 N   0  0  0  0  0  0  0  0  0  0  0  0
  -21.3418  -16.7332   21.9297 N   0  0  0  0  0  0  0  0  0  0  0  0
  -20.4547  -18.9294   21.6170 N   0  0  0  0  0  0  0  0  0  0  0  0
  -25.4722  -15.0927   20.2860 N   0  0  0  0  0  0  0  0  0  0  0  0
  -27.7147  -11.5115   21.8805 N   0  0  0  0  0  0  0  0  0  0  0  0
  -27.2152  -28.2733   20.0820 N   0  0  0  0  0  0  0  0  0  0  0  0
  -25.5353  -33.5445   24.0637 N   0  0  0  0  0  0  0  0  0  0  0  0
  -16.4189  -27.7576   22.5254 N   0  3  0  0  0  0  0  0  0  0  0  0
  -19.4230  -22.3208   20.8599 N   0  3  0  0  0  0  0  0  0  0  0  0
  -23.2485  -36.2235   23.2504 N   0  3  0  0  0  0  0  0  0  0  0  0
  -27.9255  -13.4657   20.6993 O   0  0  0  0  0  0  0  0  0  0  0  0
  -26.3299  -28.5004   22.2237 O   0  0  0  0  0  0  0  0  0  0  0  0
  -27.4430  -32.0894   22.4978 O   0  0  0  0  0  0  0  0  0  0  0  0
  -23.2167  -33.5401   24.0960 O   0  0  0  0  0  0  0  0  0  0  0  0
  -22.4158  -18.5933   22.7556 O   0  0  0  0  0  0  0  0  0  0  0  0
  -25.5488   -7.3228   24.8468 O   0  0  0  0  0  0  0  0  0  0  0  0
  -19.8886  -28.6282   20.7346 O   0  0  0  0  0  0  0  0  0  1  0  0
  -21.8682   -3.3124   23.9674 F   0  0  0  0  0  0  0  0  0  0  0  0
  -22.8766   -7.6927   25.4512 F   0  0  0  0  0  0  0  0  0  0  0  0
  1  2  1  0  0  0  0
  1  5  2  0  0  0  0
  2  6  2  0  0  0  0
  3  8  2  0  0  0  0
  3 17  1  0  0  0  0
  4  9  1  0  0  0  0
  4 17  2  0  0  0  0
  5 19  1  0  0  0  0
  6 21  1  0  0  0  0
  7 10  2  0  0  0  0
  7 20  1  0  0  0  0
  8 25  1  0  0  0  0
  9 25  2  0  0  0  0
 10 26  1  0  0  0  0
 11 12  2  0  0  0  0
 11 27  1  0  0  0  0
 12 28  1  0  0  0  0
 13 22  1  0  0  0  0
 13 24  2  0  0  0  0
 14 23  1  0  0  0  0
 14 26  2  0  0  0  0
 15 28  2  0  0  0  0
 15 29  1  0  0  0  0
 16 24  1  0  0  0  0
 16 65  2  0  0  0  0
 17 30  1  0  0  0  0
 18 30  1  0  0  0  0
 18 32  2  0  0  0  0
 18 33  1  0  0  0  0
 19 21  2  0  0  0  0
 19 38  1  0  0  0  0
 20 23  2  0  0  0  0
 20 39  1  0  0  0  0
 21 51  1  0  0  0  0
 22 31  2  0  0  0  0
 22 52  1  0  0  0  0
 23 40  1  0  0  0  0
 24 61  1  0  0  0  0
 25 83  1  0  0  0  0
 26 84  1  0  0  0  0
 27 29  2  0  0  0  0
 27 83  1  0  0  0  0
 28 85  1  0  0  0  0
 29 86  1  0  0  0  0
 30 66  2  0  0  0  0
 31 65  1  0  0  0  0
 31 84  1  0  0  0  0
 32 67  1  0  0  0  0
 32 71  1  0  0  0  0
 33 72  1  0  0  0  0
 33 78  2  0  0  0  0
 34 53  1  0  0  0  0
 34 73  1  0  0  0  0
 34 79  2  0  0  0  0
 35 62  1  0  0  0  0
 35 68  1  0  0  0  0
 35 80  2  0  0  0  0
 36 63  1  0  0  0  0
 36 74  1  0  0  0  0
 36 81  2  0  0  0  0
 37 69  1  0  0  0  0
 37 70  1  0  0  0  0
 37 82  2  0  0  0  0
 38 41  1  0  0  0  0
 39 53  1  0  0  0  0
 40 68  1  0  0  0  0
 41 43  1  0  0  0  0
 42 44  1  0  0  0  0
 42 46  1  0  0  0  0
 43 51  1  0  0  0  0
 44 54  1  0  0  0  0
 45 47  1  0  0  0  0
 45 55  1  0  0  0  0
 46 69  1  0  0  0  0
 47 70  1  0  0  0  0
 48 54  1  0  0  0  0
 48 69  1  0  0  0  0
 49 55  1  0  0  0  0
 49 70  1  0  0  0  0
 50 52  1  0  0  0  0
 50 75  1  0  0  0  0
 51 73  1  0  0  0  0
 52 75  1  0  0  0  0
 53 68  1  0  0  0  0
 54 67  1  0  0  0  0
 55 76  1  0  0  0  0
 56 63  1  0  0  0  0
 57 64  1  0  0  0  0
 58 64  1  0  0  0  0
 59 64  1  0  0  0  0
 60 77  1  0  0  0  0
 61 76  1  0  0  0  0
 62 64  1  0  0  0  0
 62 74  1  0  0  0  0
 63 77  1  0  0  0  0
 66 67  1  0  0  0  0
M  CHG  3  75   1  76   1  77   1
M  ISO  4  31 101  37 100  70 100  84 101
M  END
> <Batch ID>
0183

> <Smiles>
CNC(C)C(=O)NC(C(=O)N1Cc2cc([101O:1][101c:1]3ncc(CNC4CC[100N:0]([100C:0](=O)N5CCCC(n6nc(-c7ccc(Oc8ccc(F)cc8F)cc7)c(C(N)=O)c6N)C5)C4)cc3C3CN3)ccc2CC1C(=O)NC1CCCc2ccccc21)C(C)(C)C

> <Shape>
0.297

> <Color>
0.093

> <Negative vol penalty>
0.000

$$$$

  -OEChem-04052323073D

 83 92  0     1  0  0  0  0  0999 V2000
  -39.9996  -27.3217    8.8725 C   0  0  0  0  0  0  0  0  0  0  0  0
  -38.8912  -26.5055    9.0745 C   0  0  0  0  0  0  0  0  0  0  0  0
  -23.0610   -9.8443   19.9454 C   0  0  0  0  0  0  0  0  0  0  0  0
  -23.8250   -9.8593   22.2374 C   0  0  0  0  0  0  0  0  0  0  0  0
  -40.6839  -27.8493    9.9667 C   0  0  0  0  0  0  0  0  0  0  0  0
  -38.4672  -26.2155   10.3709 C   0  0  0  0  0  0  0  0  0  0  0  0
  -32.5143  -24.9199   14.1393 C   0  0  0  0  0  0  0  0  0  0  0  0
  -29.1376  -21.3966   18.2924 C   0  0  0  0  0  0  0  0  0  0  0  0
  -28.6516  -20.5849   19.3228 C   0  0  0  0  0  0  0  0  0  0  0  0
  -22.3222   -8.6888   20.1992 C   0  0  0  0  0  0  0  0  0  0  0  0
  -23.0861   -8.7038   22.4913 C   0  0  0  0  0  0  0  0  0  0  0  0
  -31.9821  -23.9828   15.0238 C   0  0  0  0  0  0  0  0  0  0  0  0
  -19.8622   -7.8945   23.1013 C   0  0  0  0  0  0  0  0  0  0  0  0
  -19.1075   -7.8542   24.2736 C   0  0  0  0  0  0  0  0  0  0  0  0
  -33.1942  -25.0145   16.8365 C   0  0  0  0  0  0  0  0  0  0  0  0
  -31.2987  -20.2758   18.3300 C   0  0  0  0  0  0  0  0  0  0  0  0
  -20.3579   -5.9233   25.0121 C   0  0  0  0  0  0  0  0  0  0  0  0
  -23.8125  -10.4296   20.9645 C   0  0  0  0  0  0  0  0  0  0  0  0
  -24.1441  -12.9558   20.8384 C   0  0  0  0  0  0  0  0  0  0  0  0
  -40.2624  -27.5735   11.2769 C   0  0  0  0  0  0  0  0  0  0  0  0
  -33.4005  -25.9063   14.5955 C   0  0  0  0  0  0  0  0  0  0  0  0
  -39.1474  -26.7388   11.4836 C   0  0  0  0  0  0  0  0  0  0  0  0
  -33.7342  -25.9645   15.9562 C   0  0  0  0  0  0  0  0  0  0  0  0
  -30.4373  -21.2465   17.8033 C   0  0  0  0  0  0  0  0  0  0  0  0
  -30.8270  -19.4518   19.3657 C   0  0  0  0  0  0  0  0  0  0  0  0
  -29.5269  -19.6252   19.8320 C   0  0  0  0  0  0  0  0  0  0  0  0
  -22.3347   -8.1185   21.4721 C   0  0  0  0  0  0  0  0  0  0  0  0
  -32.3243  -24.0283   16.3721 C   0  0  0  0  0  0  0  0  0  0  0  0
  -20.8647   -6.9492   22.8843 C   0  0  0  0  0  0  0  0  0  0  0  0
  -19.3553   -6.8686   25.2290 C   0  0  0  0  0  0  0  0  0  0  0  0
  -21.1126   -5.9636   23.8397 C   0  0  0  0  0  0  0  0  0  0  0  0
  -24.5764  -11.6229   20.7028 C   0  0  0  0  0  0  0  0  0  0  0  0
  -25.2326  -13.7088   20.4715 C   0  0  0  0  0  0  0  0  0  0  0  0
  -30.5707  -17.9991   20.9096 C   0  0  0  0  0  0  0  0  0  0  0  0
  -22.8723  -13.4675   21.2584 C   0  0  0  0  0  0  0  0  0  0  0  0
  -36.4274  -26.6592   13.9831 C   0  0  0  0  0  0  0  0  0  0  0  0
  -35.7740  -29.1992   15.8919 C   0  0  0  0  0  0  0  0  0  0  0  0
  -33.8605  -30.5361   18.3815 C   0  0  0  0  0  0  0  0  0  0  0  0
  -30.7126  -14.7499   20.6478 C   0  0  0  0  0  0  0  0  0  0  0  0
  -41.0624  -28.1282   12.4289 C   0  0  0  0  0  0  0  0  0  0  0  0
  -33.9450  -26.9262   13.6333 C   0  0  0  0  0  0  0  0  0  0  0  0
  -34.6654  -27.0160   16.5000 C   0  0  0  0  0  0  0  0  0  0  0  0
  -40.3239  -28.0772   13.7639 C   0  0  0  0  0  0  0  0  0  0  0  0
  -29.5802  -12.3557   18.2683 C   0  0  0  0  0  0  0  0  0  0  0  0
  -39.6800  -26.7092   13.9658 C   0  0  0  0  0  0  0  0  0  0  0  0
  -28.1447  -12.0573   18.7045 C   0  0  0  0  0  0  0  0  0  0  0  0
  -30.4986  -12.5828   19.4671 C   0  0  0  0  0  0  0  0  0  0  0  0
  -28.5965  -13.3094   20.8555 C   0  0  0  0  0  0  0  0  0  0  0  0
  -38.6420  -26.4215   12.8743 C   0  0  1  0  0  0  0  0  0  0  0  0
  -35.2406  -27.5711   14.1160 C   0  0  1  0  0  0  0  0  0  0  0  0
  -27.6209  -13.1284   19.6800 C   0  0  2  0  0  0  0  0  0  0  0  0
  -33.5888  -32.6190   19.7545 C   0  0  0  0  0  0  0  0  0  0  0  0
  -38.2139  -28.4212   17.5507 C   0  0  0  0  0  0  0  0  0  0  0  0
  -37.3550  -29.8992   19.3798 C   0  0  0  0  0  0  0  0  0  0  0  0
  -37.9549  -30.8786   17.1654 C   0  0  0  0  0  0  0  0  0  0  0  0
  -28.2078  -18.4568   21.6191 C   0  0  0  0  0  0  0  0  0  0  0  0
  -31.1126  -30.9799   17.3758 C   0  0  0  0  0  0  0  0  0  0  0  0
  -30.9194  -22.1369   16.6960 C   0  0  0  0  0  0  0  0  0  1  0  0
  -30.7721  -16.9034   21.8799 C   0  0  0  0  0  0  0  0  0  0  0  0
  -35.8631  -29.4740   17.3737 C   0  0  1  0  0  0  0  0  0  0  0  0
  -33.1550  -31.8749   18.5011 C   0  0  2  0  0  0  0  0  0  0  0  0
  -37.3307  -29.6471   17.8571 C   0  0  0  0  0  0  0  0  0  0  0  0
  -31.4598  -18.4372   20.0467 N   0  0  0  0  0  0  0  0  0  0  0  0
  -25.8409  -11.5312   20.2825 N   0  0  0  0  0  0  0  0  0  0  0  0
  -29.3903  -18.6830   20.8190 N   0  0  0  0  0  0  0  0  0  0  0  0
  -26.2125  -12.8159   20.1507 N   0  0  0  0  0  0  0  0  0  0  0  0
  -35.1766  -27.9870   15.5185 N   0  0  0  0  0  0  0  0  0  0  0  0
  -29.9456  -13.6111   20.3518 N   0  0  0  0  0  0  0  0  0  0  0  0
  -25.4376  -15.0409   20.3952 N   0  0  0  0  0  0  0  0  0  0  0  0
  -21.8646  -12.5551   21.5995 N   0  0  0  0  0  0  0  0  0  0  0  0
  -37.4140  -27.1386   13.1429 N   0  0  0  0  0  0  0  0  0  0  0  0
  -35.0104  -30.6304   17.6264 N   0  0  0  0  0  0  0  0  0  0  0  0
  -30.1113  -15.6782   21.4889 N   0  0  0  0  0  0  0  0  0  0  0  0
  -31.6787  -31.6793   18.5579 N   0  3  0  0  0  0  0  0  0  0  0  0
  -22.6313  -14.6973   21.3135 O   0  0  0  0  0  0  0  0  0  0  0  0
  -36.4471  -25.5997   14.5986 O   0  0  0  0  0  0  0  0  0  0  0  0
  -36.2117  -30.0328   15.0949 O   0  0  0  0  0  0  0  0  0  0  0  0
  -33.4361  -29.5101   18.9085 O   0  0  0  0  0  0  0  0  0  0  0  0
  -31.8471  -14.9289   20.1918 O   0  0  0  0  0  0  0  0  0  0  0  0
  -21.6136   -6.9911   21.7202 O   0  0  0  0  0  0  0  0  0  0  0  0
  -31.8068  -23.1144   17.2376 O   0  0  0  0  0  0  0  0  0  1  0  0
  -18.6316   -6.8309   26.3555 F   0  0  0  0  0  0  0  0  0  0  0  0
  -22.0751   -5.0535   23.6374 F   0  0  0  0  0  0  0  0  0  0  0  0
  1  2  1  0  0  0  0
  1  5  2  0  0  0  0
  2  6  2  0  0  0  0
  3 10  2  0  0  0  0
  3 18  1  0  0  0  0
  4 11  1  0  0  0  0
  4 18  2  0  0  0  0
  5 20  1  0  0  0  0
  6 22  1  0  0  0  0
  7 12  2  0  0  0  0
  7 21  1  0  0  0  0
  8  9  2  0  0  0  0
  8 24  1  0  0  0  0
  9 26  1  0  0  0  0
 10 27  1  0  0  0  0
 11 27  2  0  0  0  0
 12 28  1  0  0  0  0
 13 14  2  0  0  0  0
 13 29  1  0  0  0  0
 14 30  1  0  0  0  0
 15 23  1  0  0  0  0
 15 28  2  0  0  0  0
 16 24  2  0  0  0  0
 16 25  1  0  0  0  0
 17 30  2  0  0  0  0
 17 31  1  0  0  0  0
 18 32  1  0  0  0  0
 19 32  1  0  0  0  0
 19 33  2  0  0  0  0
 19 35  1  0  0  0  0
 20 22  2  0  0  0  0
 20 40  1  0  0  0  0
 21 23  2  0  0  0  0
 21 41  1  0  0  0  0
 22 49  1  0  0  0  0
 23 42  1  0  0  0  0
 24 58  1  0  0  0  0
 25 26  2  0  0  0  0
 25 63  1  0  0  0  0
 26 65  1  0  0  0  0
 27 80  1  0  0  0  0
 28 81  1  0  0  0  0
 29 31  2  0  0  0  0
 29 80  1  0  0  0  0
 30 82  1  0  0  0  0
 31 83  1  0  0  0  0
 32 64  2  0  0  0  0
 33 66  1  0  0  0  0
 33 69  1  0  0  0  0
 34 59  1  0  0  0  0
 34 63  2  0  0  0  0
 34 65  1  0  0  0  0
 35 70  1  0  0  0  0
 35 75  2  0  0  0  0
 36 50  1  0  0  0  0
 36 71  1  0  0  0  0
 36 76  2  0  0  0  0
 37 60  1  0  0  0  0
 37 67  1  0  0  0  0
 37 77  2  0  0  0  0
 38 61  1  0  0  0  0
 38 72  1  0  0  0  0
 38 78  2  0  0  0  0
 39 68  1  0  0  0  0
 39 73  1  0  0  0  0
 39 79  2  0  0  0  0
 40 43  1  0  0  0  0
 41 50  1  0  0  0  0
 42 67  1  0  0  0  0
 43 45  1  0  0  0  0
 44 46  1  0  0  0  0
 44 47  1  0  0  0  0
 45 49  1  0  0  0  0
 46 51  1  0  0  0  0
 47 68  1  0  0  0  0
 48 51  1  0  0  0  0
 48 68  1  0  0  0  0
 49 71  1  0  0  0  0
 50 67  1  0  0  0  0
 51 66  1  0  0  0  0
 52 61  1  0  0  0  0
 53 62  1  0  0  0  0
 54 62  1  0  0  0  0
 55 62  1  0  0  0  0
 56 65  1  0  0  0  0
 57 74  1  0  0  0  0
 58 81  1  0  0  0  0
 59 73  1  0  0  0  0
 60 62  1  0  0  0  0
 60 72  1  0  0  0  0
 61 74  1  0  0  0  0
 64 66  1  0  0  0  0
M  CHG  1  74   1
M  ISO  4  39 100  58 101  73 100  81 101
M  END
> <Batch ID>
0183

> <Smiles>
CNC(C)C(=O)NC(C(=O)N1Cc2cc([101O:1][101CH2:1]c3ccc4c(c3)nc(C[100NH:0][100C:0](=O)N3CCCC(n5nc(-c6ccc(Oc7ccc(F)cc7F)cc6)c(C(N)=O)c5N)C3)n4C)ccc2CC1C(=O)NC1CCCc2ccccc21)C(C)(C)C

> <Shape>
0.201

> <Color>
0.191

> <Negative vol penalty>
0.000

$$$$

  -OEChem-04052323073D

 85 94  0     1  0  0  0  0  0999 V2000
  -23.7993  -34.9397   14.5015 C   0  0  0  0  0  0  0  0  0  0  0  0
  -24.3529  -33.6902   14.7617 C   0  0  0  0  0  0  0  0  0  0  0  0
  -24.4722   -9.1137   22.0016 C   0  0  0  0  0  0  0  0  0  0  0  0
  -23.4302   -9.4451   19.8472 C   0  0  0  0  0  0  0  0  0  0  0  0
  -23.8770  -35.9488   15.4605 C   0  0  0  0  0  0  0  0  0  0  0  0
  -24.9856  -33.4494   15.9808 C   0  0  0  0  0  0  0  0  0  0  0  0
  -25.0451  -28.1928   19.1224 C   0  0  0  0  0  0  0  0  0  0  0  0
  -23.4565   -8.2260   22.3564 C   0  0  0  0  0  0  0  0  0  0  0  0
  -22.4145   -8.5573   20.2019 C   0  0  0  0  0  0  0  0  0  0  0  0
  -25.9852  -27.1676   19.2178 C   0  0  0  0  0  0  0  0  0  0  0  0
  -22.6437   -5.0002   21.7510 C   0  0  0  0  0  0  0  0  0  0  0  0
  -23.0136   -3.8041   22.3658 C   0  0  0  0  0  0  0  0  0  0  0  0
  -26.8637  -28.1686   21.2291 C   0  0  0  0  0  0  0  0  0  0  0  0
  -21.7031   -4.3966   24.3071 C   0  0  0  0  0  0  0  0  0  0  0  0
  -28.7836  -23.4156   20.8215 C   0  0  0  0  0  0  0  0  0  0  0  0
  -24.4590   -9.7233   20.7470 C   0  0  0  0  0  0  0  0  0  0  0  0
  -26.7245  -10.3308   19.7438 C   0  0  0  0  0  0  0  0  0  0  0  0
  -24.5025  -35.7172   16.6957 C   0  0  0  0  0  0  0  0  0  0  0  0
  -25.0143  -29.2212   20.0752 C   0  0  0  0  0  0  0  0  0  0  0  0
  -25.0729  -34.4567   16.9567 C   0  0  0  0  0  0  0  0  0  0  0  0
  -25.9206  -29.2043   21.1450 C   0  0  0  0  0  0  0  0  0  0  0  0
  -22.4277   -7.9477   21.4565 C   0  0  0  0  0  0  0  0  0  0  0  0
  -26.8966  -27.1570   20.2696 C   0  0  0  0  0  0  0  0  0  0  0  0
  -21.8035   -5.8946   22.4143 C   0  0  0  0  0  0  0  0  0  0  0  0
  -22.5433   -3.5022   23.6438 C   0  0  0  0  0  0  0  0  0  0  0  0
  -21.3332   -5.5928   23.6923 C   0  0  0  0  0  0  0  0  0  0  0  0
  -25.5077  -10.6409   20.3802 C   0  0  0  0  0  0  0  0  0  0  0  0
  -29.7868  -22.4855   21.0024 C   0  0  0  0  0  0  0  0  0  0  0  0
  -28.8333  -24.1250   19.6389 C   0  0  0  0  0  0  0  0  0  0  0  0
  -27.3646  -11.5396   19.6192 C   0  0  0  0  0  0  0  0  0  0  0  0
  -30.7067  -23.0122   18.9916 C   0  0  0  0  0  0  0  0  0  0  0  0
  -29.2520  -20.4940   22.3303 C   0  0  0  0  0  0  0  0  0  0  0  0
  -29.8282  -21.6969   22.1956 C   0  0  0  0  0  0  0  0  0  0  0  0
  -27.2308   -9.0634   19.3045 C   0  0  0  0  0  0  0  0  0  0  0  0
  -25.4195  -32.3727   19.9881 C   0  0  0  0  0  0  0  0  0  0  0  0
  -24.5292  -32.1816   23.1015 C   0  0  0  0  0  0  0  0  0  0  0  0
  -24.2732  -30.2905   25.9308 C   0  0  0  0  0  0  0  0  0  0  0  0
  -28.8720  -16.2503   22.3051 C   0  0  0  0  0  0  0  0  0  0  0  0
  -24.6035  -36.8533   17.6825 C   0  0  0  0  0  0  0  0  0  0  0  0
  -23.9767  -30.3053   19.9730 C   0  0  0  0  0  0  0  0  0  0  0  0
  -25.9160  -30.2740   22.2052 C   0  0  0  0  0  0  0  0  0  0  0  0
  -29.3219  -19.6990   23.6074 C   0  0  0  0  0  0  0  0  0  0  0  0
  -28.5105  -19.8182   21.2067 C   0  0  0  0  0  0  0  0  0  0  0  0
  -24.9615  -36.4021   19.0962 C   0  0  0  0  0  0  0  0  0  0  0  0
  -25.6972  -16.2514   20.3205 C   0  0  0  0  0  0  0  0  0  0  0  0
  -26.1209  -35.4114   19.0629 C   0  0  0  0  0  0  0  0  0  0  0  0
  -25.4428  -14.7517   20.1791 C   0  0  0  0  0  0  0  0  0  0  0  0
  -29.8260  -18.2805   23.3414 C   0  0  0  0  0  0  0  0  0  0  0  0
  -29.0426  -18.4024   20.9934 C   0  0  0  0  0  0  0  0  0  0  0  0
  -26.4726  -16.5627   21.5950 C   0  0  0  0  0  0  0  0  0  0  0  0
  -27.5186  -14.3200   21.5705 C   0  0  0  0  0  0  0  0  0  0  0  0
  -25.7456  -34.1493   18.2769 C   0  0  1  0  0  0  0  0  0  0  0  0
  -24.3693  -31.5799   20.7136 C   0  0  1  0  0  0  0  0  0  0  0  0
  -26.7569  -13.9594   20.2845 C   0  0  1  0  0  0  0  0  0  0  0  0
  -31.7739  -22.7871   17.9749 C   0  0  0  0  0  0  0  0  0  0  0  0
  -23.5415  -30.4206   28.3277 C   0  0  0  0  0  0  0  0  0  0  0  0
  -27.0786  -33.7082   23.7943 C   0  0  0  0  0  0  0  0  0  0  0  0
  -26.7824  -32.9847   26.1728 C   0  0  0  0  0  0  0  0  0  0  0  0
  -25.0556  -34.4171   25.0824 C   0  0  0  0  0  0  0  0  0  0  0  0
  -22.2087  -28.2072   25.5347 C   0  0  0  0  0  0  0  0  0  0  0  0
  -27.7902  -25.1527   19.3530 C   0  0  0  0  0  0  0  0  0  1  0  0
  -25.2549  -31.9878   24.4110 C   0  0  1  0  0  0  0  0  0  0  0  0
  -23.1265  -30.0838   26.9039 C   0  0  2  0  0  0  0  0  0  0  0  0
  -26.0445  -33.2552   24.8442 C   0  0  0  0  0  0  0  0  0  0  0  0
  -25.3802  -11.9445   20.6418 N   0  0  0  0  0  0  0  0  0  0  0  0
  -30.7678  -22.2570   20.1048 N   0  0  0  0  0  0  0  0  0  0  0  0
  -29.7842  -23.9484   18.6982 N   0  0  0  0  0  0  0  0  0  0  0  0
  -26.5252  -12.4642   20.1674 N   0  0  0  0  0  0  0  0  0  0  0  0
  -24.8864  -31.3160   22.0580 N   0  0  0  0  0  0  0  0  0  0  0  0
  -29.0876  -17.6374   22.2505 N   0  0  0  0  0  0  0  0  0  0  0  0
  -27.7039  -15.7676   21.6915 N   0  0  0  0  0  0  0  0  0  0  0  0
  -28.5581  -11.8911   19.0952 N   0  0  0  0  0  0  0  0  0  0  0  0
  -26.4441   -7.9219   19.5103 N   0  0  0  0  0  0  0  0  0  0  0  0
  -24.9109  -33.2827   19.0811 N   0  0  0  0  0  0  0  0  0  0  0  0
  -24.2496  -31.5518   25.3742 N   0  0  0  0  0  0  0  0  0  0  0  0
  -22.6682  -28.6662   26.8709 N   0  3  0  0  0  0  0  0  0  0  0  0
  -28.3550   -8.9443   18.7608 O   0  0  0  0  0  0  0  0  0  0  0  0
  -26.6035  -32.1745   20.2341 O   0  0  0  0  0  0  0  0  0  0  0  0
  -23.6718  -33.0637   23.0101 O   0  0  0  0  0  0  0  0  0  0  0  0
  -25.1085  -29.4213   25.6914 O   0  0  0  0  0  0  0  0  0  0  0  0
  -29.6718  -15.4911   22.8660 O   0  0  0  0  0  0  0  0  0  0  0  0
  -21.4365   -7.0814   21.8022 O   0  0  0  0  0  0  0  0  0  0  0  0
  -27.8220  -26.1510   20.3654 O   0  0  0  0  0  0  0  0  0  1  0  0
  -22.8974   -2.3528   24.2335 F   0  0  0  0  0  0  0  0  0  0  0  0
  -20.5248   -6.4475   24.3340 F   0  0  0  0  0  0  0  0  0  0  0  0
  1  2  1  0  0  0  0
  1  5  2  0  0  0  0
  2  6  2  0  0  0  0
  3  8  2  0  0  0  0
  3 16  1  0  0  0  0
  4  9  1  0  0  0  0
  4 16  2  0  0  0  0
  5 18  1  0  0  0  0
  6 20  1  0  0  0  0
  7 10  2  0  0  0  0
  7 19  1  0  0  0  0
  8 22  1  0  0  0  0
  9 22  2  0  0  0  0
 10 23  1  0  0  0  0
 11 12  2  0  0  0  0
 11 24  1  0  0  0  0
 12 25  1  0  0  0  0
 13 21  1  0  0  0  0
 13 23  2  0  0  0  0
 14 25  2  0  0  0  0
 14 26  1  0  0  0  0
 15 28  2  0  0  0  0
 15 29  1  0  0  0  0
 16 27  1  0  0  0  0
 17 27  1  0  0  0  0
 17 30  2  0  0  0  0
 17 34  1  0  0  0  0
 18 20  2  0  0  0  0
 18 39  1  0  0  0  0
 19 21  2  0  0  0  0
 19 40  1  0  0  0  0
 20 52  1  0  0  0  0
 21 41  1  0  0  0  0
 22 82  1  0  0  0  0
 23 83  1  0  0  0  0
 24 26  2  0  0  0  0
 24 82  1  0  0  0  0
 25 84  1  0  0  0  0
 26 85  1  0  0  0  0
 27 65  2  0  0  0  0
 28 33  1  0  0  0  0
 28 66  1  0  0  0  0
 29 61  1  0  0  0  0
 29 67  2  0  0  0  0
 30 68  1  0  0  0  0
 30 72  1  0  0  0  0
 31 55  1  0  0  0  0
 31 66  2  0  0  0  0
 31 67  1  0  0  0  0
 32 33  2  0  0  0  0
 32 42  1  0  0  0  0
 32 43  1  0  0  0  0
 34 73  1  0  0  0  0
 34 77  2  0  0  0  0
 35 53  1  0  0  0  0
 35 74  1  0  0  0  0
 35 78  2  0  0  0  0
 36 62  1  0  0  0  0
 36 69  1  0  0  0  0
 36 79  2  0  0  0  0
 37 63  1  0  0  0  0
 37 75  1  0  0  0  0
 37 80  2  0  0  0  0
 38 70  1  0  0  0  0
 38 71  1  0  0  0  0
 38 81  2  0  0  0  0
 39 44  1  0  0  0  0
 40 53  1  0  0  0  0
 41 69  1  0  0  0  0
 42 48  1  0  0  0  0
 43 49  1  0  0  0  0
 44 46  1  0  0  0  0
 45 47  1  0  0  0  0
 45 50  1  0  0  0  0
 46 52  1  0  0  0  0
 47 54  1  0  0  0  0
 48 70  1  0  0  0  0
 49 70  1  0  0  0  0
 50 71  1  0  0  0  0
 51 54  1  0  0  0  0
 51 71  1  0  0  0  0
 52 74  1  0  0  0  0
 53 69  1  0  0  0  0
 54 68  1  0  0  0  0
 56 63  1  0  0  0  0
 57 64  1  0  0  0  0
 58 64  1  0  0  0  0
 59 64  1  0  0  0  0
 60 76  1  0  0  0  0
 61 83  1  0  0  0  0
 62 64  1  0  0  0  0
 62 75  1  0  0  0  0
 63 76  1  0  0  0  0
 65 68  1  0  0  0  0
M  CHG  1  76   1
M  ISO  4  38 100  61 101  70 100  83 101
M  END
> <Batch ID>
0183

> <Smiles>
CNC(C)C(=O)NC(C(=O)N1Cc2cc([101O:1][101CH2:1]c3cc(C=C4CC[100N:0]([100C:0](=O)N5CCCC(n6nc(-c7ccc(Oc8ccc(F)cc8F)cc7)c(C(N)=O)c6N)C5)CC4)nc(C)n3)ccc2CC1C(=O)NC1CCCc2ccccc21)C(C)(C)C

> <Shape>
0.306

> <Color>
0.110

> <Negative vol penalty>
0.000

$$$$

  -OEChem-04052323073D

 82 91  0     1  0  0  0  0  0999 V2000
  -22.2982  -10.8726   20.5248 C   0  0  0  0  0  0  0  0  0  0  0  0
  -21.8268  -12.1449   20.8322 C   0  0  0  0  0  0  0  0  0  0  0  0
  -25.0548  -27.9082   19.7614 C   0  0  0  0  0  0  0  0  0  0  0  0
  -26.3168  -28.8911   21.5720 C   0  0  0  0  0  0  0  0  0  0  0  0
  -23.6706  -10.6376   20.4524 C   0  0  0  0  0  0  0  0  0  0  0  0
  -22.7277  -13.1827   21.0684 C   0  0  0  0  0  0  0  0  0  0  0  0
  -21.4101  -17.4714   18.7197 C   0  0  0  0  0  0  0  0  0  0  0  0
  -26.2372  -27.6947   19.0531 C   0  0  0  0  0  0  0  0  0  0  0  0
  -27.4993  -28.6776   20.8636 C   0  0  0  0  0  0  0  0  0  0  0  0
  -20.3950  -18.2298   19.3011 C   0  0  0  0  0  0  0  0  0  0  0  0
  -30.8841  -28.0635   19.6871 C   0  0  0  0  0  0  0  0  0  0  0  0
  -31.9711  -27.5342   20.3827 C   0  0  0  0  0  0  0  0  0  0  0  0
  -22.0504  -19.6989   20.2606 C   0  0  0  0  0  0  0  0  0  0  0  0
  -19.7471  -22.7066   24.1519 C   0  0  0  0  0  0  0  0  0  0  0  0
  -30.6732  -25.5669   20.9139 C   0  0  0  0  0  0  0  0  0  0  0  0
  -18.5293  -21.7738   26.3982 C   0  0  0  0  0  0  0  0  0  0  0  0
  -25.0946  -28.5065   21.0209 C   0  0  0  0  0  0  0  0  0  0  0  0
  -22.7707  -29.5055   21.3514 C   0  0  0  0  0  0  0  0  0  0  0  0
  -24.5886  -11.6753   20.6785 C   0  0  0  0  0  0  0  0  0  0  0  0
  -22.7557  -17.8152   18.9136 C   0  0  0  0  0  0  0  0  0  0  0  0
  -24.1137  -12.9611   21.0004 C   0  0  0  0  0  0  0  0  0  0  0  0
  -23.0806  -18.9447   19.6784 C   0  0  0  0  0  0  0  0  0  0  0  0
  -18.9572  -21.5541   24.0469 C   0  0  0  0  0  0  0  0  0  0  0  0
  -18.3033  -21.0925   25.2024 C   0  0  0  0  0  0  0  0  0  0  0  0
  -27.4595  -28.0794   19.6041 C   0  0  0  0  0  0  0  0  0  0  0  0
  -20.7152  -19.3421   20.0741 C   0  0  0  0  0  0  0  0  0  0  0  0
  -29.6916  -27.3445   19.6050 C   0  0  0  0  0  0  0  0  0  0  0  0
  -31.8657  -26.2859   20.9961 C   0  0  0  0  0  0  0  0  0  0  0  0
  -29.5862  -26.0962   20.2183 C   0  0  0  0  0  0  0  0  0  0  0  0
  -23.8734  -28.7278   21.7529 C   0  0  0  0  0  0  0  0  0  0  0  0
  -19.8917  -23.3127   25.3910 C   0  0  0  0  0  0  0  0  0  0  0  0
  -21.8768  -29.3947   22.3883 C   0  0  0  0  0  0  0  0  0  0  0  0
  -22.5721  -30.2603   20.1487 C   0  0  0  0  0  0  0  0  0  0  0  0
  -25.2664  -16.3888   20.2422 C   0  0  0  0  0  0  0  0  0  0  0  0
  -26.8567  -18.9619   19.0706 C   0  0  0  0  0  0  0  0  0  0  0  0
  -26.7424  -22.2075   18.0219 C   0  0  0  0  0  0  0  0  0  0  0  0
  -20.9909  -25.2375   26.5881 C   0  0  0  0  0  0  0  0  0  0  0  0
  -26.0633  -11.3621   20.6356 C   0  0  0  0  0  0  0  0  0  0  0  0
  -23.8380  -17.0024   18.2575 C   0  0  0  0  0  0  0  0  0  0  0  0
  -17.4178  -19.8778   25.2003 C   0  0  0  0  0  0  0  0  0  0  0  0
  -24.5089  -19.3680   19.9003 C   0  0  0  0  0  0  0  0  0  0  0  0
  -26.9467  -12.6026   20.5311 C   0  0  0  0  0  0  0  0  0  0  0  0
  -16.9324  -19.5086   23.8034 C   0  0  0  0  0  0  0  0  0  0  0  0
  -21.7008  -28.6855   27.1212 C   0  0  0  0  0  0  0  0  0  0  0  0
  -18.1073  -19.4798   22.8366 C   0  0  0  0  0  0  0  0  0  0  0  0
  -26.4952  -13.6651   21.5282 C   0  0  0  0  0  0  0  0  0  0  0  0
  -22.2324  -29.1599   25.7668 C   0  0  0  0  0  0  0  0  0  0  0  0
  -22.1529  -27.2617   27.4409 C   0  0  0  0  0  0  0  0  0  0  0  0
  -22.3927  -26.7434   25.0444 C   0  0  0  0  0  0  0  0  0  0  0  0
  -18.7477  -20.8742   22.7011 C   0  0  2  0  0  0  0  0  0  0  0  0
  -25.0591  -14.1184   21.2388 C   0  0  1  0  0  0  0  0  0  0  0  0
  -25.1921  -17.1444   18.9456 C   0  0  1  0  0  0  0  0  0  0  0  0
  -21.9100  -28.1486   24.6493 C   0  0  2  0  0  0  0  0  0  0  0  0
  -28.2091  -24.0514   17.1582 C   0  0  0  0  0  0  0  0  0  0  0  0
  -27.9315  -19.4236   21.8887 C   0  0  0  0  0  0  0  0  0  0  0  0
  -28.5791  -21.7381   21.1873 C   0  0  0  0  0  0  0  0  0  0  0  0
  -29.6080  -19.7626   20.0643 C   0  0  0  0  0  0  0  0  0  0  0  0
  -25.2445  -22.3629   15.4741 C   0  0  0  0  0  0  0  0  0  0  0  0
  -20.0325  -20.7399   21.8730 C   0  0  0  0  0  0  0  0  0  1  0  0
  -27.1924  -20.3389   19.5904 C   0  0  1  0  0  0  0  0  0  0  0  0
  -27.3042  -22.8872   16.7862 C   0  0  2  0  0  0  0  0  0  0  0  0
  -28.3008  -20.3070   20.6803 C   0  0  0  0  0  0  0  0  0  0  0  0
  -19.3077  -22.8700   26.5217 N   0  0  0  0  0  0  0  0  0  0  0  0
  -23.6983  -28.1648   22.9514 N   0  0  0  0  0  0  0  0  0  0  0  0
  -22.4752  -28.5892   23.3120 N   0  0  0  0  0  0  0  0  0  0  0  0
  -25.5316  -18.5374   19.2432 N   0  0  0  0  0  0  0  0  0  0  0  0
  -21.8104  -26.3589   26.3398 N   0  0  0  0  0  0  0  0  0  0  0  0
  -20.6451  -29.9089   22.5910 N   0  0  0  0  0  0  0  0  0  0  0  0
  -22.9810  -31.6007   20.1260 N   0  0  0  0  0  0  0  0  0  0  0  0
  -20.7060  -24.4703   25.4590 N   0  0  0  0  0  0  0  0  0  0  0  0
  -25.0340  -15.0324   20.1170 N   0  0  0  0  0  0  0  0  0  0  0  0
  -27.5264  -21.1460   18.4219 N   0  0  0  0  0  0  0  0  0  0  0  0
  -26.1983  -23.4056   15.9323 N   0  3  0  0  0  0  0  0  0  0  0  0
  -22.0327  -29.7656   19.1300 O   0  0  0  0  0  0  0  0  0  0  0  0
  -25.5176  -16.9915   21.2792 O   0  0  0  0  0  0  0  0  0  0  0  0
  -27.7360  -18.2905   18.5250 O   0  0  0  0  0  0  0  0  0  0  0  0
  -25.7132  -22.5830   18.5789 O   0  0  0  0  0  0  0  0  0  0  0  0
  -20.5504  -24.9923   27.7140 O   0  0  0  0  0  0  0  0  0  0  0  0
  -28.6136  -27.8710   18.9133 O   0  0  0  0  0  0  0  0  0  0  0  0
  -19.7263  -20.0837   20.6433 O   0  0  0  0  0  0  0  0  0  1  0  0
  -32.9101  -25.7770   21.6627 F   0  0  0  0  0  0  0  0  0  0  0  0
  -28.4435  -25.4003   20.1419 F   0  0  0  0  0  0  0  0  0  0  0  0
  1  2  1  0  0  0  0
  1  5  2  0  0  0  0
  2  6  2  0  0  0  0
  3  8  2  0  0  0  0
  3 17  1  0  0  0  0
  4  9  1  0  0  0  0
  4 17  2  0  0  0  0
  5 19  1  0  0  0  0
  6 21  1  0  0  0  0
  7 10  2  0  0  0  0
  7 20  1  0  0  0  0
  8 25  1  0  0  0  0
  9 25  2  0  0  0  0
 10 26  1  0  0  0  0
 11 12  2  0  0  0  0
 11 27  1  0  0  0  0
 12 28  1  0  0  0  0
 13 22  1  0  0  0  0
 13 26  2  0  0  0  0
 14 23  1  0  0  0  0
 14 31  2  0  0  0  0
 15 28  2  0  0  0  0
 15 29  1  0  0  0  0
 16 24  1  0  0  0  0
 16 63  2  0  0  0  0
 17 30  1  0  0  0  0
 18 30  1  0  0  0  0
 18 32  2  0  0  0  0
 18 33  1  0  0  0  0
 19 21  2  0  0  0  0
 19 38  1  0  0  0  0
 20 22  2  0  0  0  0
 20 39  1  0  0  0  0
 21 51  1  0  0  0  0
 22 41  1  0  0  0  0
 23 24  2  0  0  0  0
 23 50  1  0  0  0  0
 24 40  1  0  0  0  0
 25 79  1  0  0  0  0
 26 80  1  0  0  0  0
 27 29  2  0  0  0  0
 27 79  1  0  0  0  0
 28 81  1  0  0  0  0
 29 82  1  0  0  0  0
 30 64  2  0  0  0  0
 31 63  1  0  0  0  0
 31 70  1  0  0  0  0
 32 65  1  0  0  0  0
 32 68  1  0  0  0  0
 33 69  1  0  0  0  0
 33 74  2  0  0  0  0
 34 52  1  0  0  0  0
 34 71  1  0  0  0  0
 34 75  2  0  0  0  0
 35 60  1  0  0  0  0
 35 66  1  0  0  0  0
 35 76  2  0  0  0  0
 36 61  1  0  0  0  0
 36 72  1  0  0  0  0
 36 77  2  0  0  0  0
 37 67  1  0  0  0  0
 37 70  1  0  0  0  0
 37 78  2  0  0  0  0
 38 42  1  0  0  0  0
 39 52  1  0  0  0  0
 40 43  1  0  0  0  0
 41 66  1  0  0  0  0
 42 46  1  0  0  0  0
 43 45  1  0  0  0  0
 44 47  1  0  0  0  0
 44 48  1  0  0  0  0
 45 50  1  0  0  0  0
 46 51  1  0  0  0  0
 47 53  1  0  0  0  0
 48 67  1  0  0  0  0
 49 53  1  0  0  0  0
 49 67  1  0  0  0  0
 50 59  1  0  0  0  0
 51 71  1  0  0  0  0
 52 66  1  0  0  0  0
 53 65  1  0  0  0  0
 54 61  1  0  0  0  0
 55 62  1  0  0  0  0
 56 62  1  0  0  0  0
 57 62  1  0  0  0  0
 58 73  1  0  0  0  0
 59 80  1  0  0  0  0
 60 62  1  0  0  0  0
 60 72  1  0  0  0  0
 61 73  1  0  0  0  0
 64 65  1  0  0  0  0
M  CHG  1  73   1
M  ISO  4  37 100  59 101  70 100  80 101
M  END
> <Batch ID>
0183

> <Smiles>
CNC(C)C(=O)NC(C(=O)N1Cc2cc([101O:1][101CH2:1]C3CCCc4cnc([100NH:0][100C:0](=O)N5CCCC(n6nc(-c7ccc(Oc8ccc(F)cc8F)cc7)c(C(N)=O)c6N)C5)cc43)ccc2CC1C(=O)NC1CCCc2ccccc21)C(C)(C)C

> <Shape>
0.193

> <Color>
0.068

> <Negative vol penalty>
0.000

$$$$

  -OEChem-04052323073D

 82 90  0     1  0  0  0  0  0999 V2000
  -18.1387  -25.6509   25.6029 C   0  0  0  0  0  0  0  0  0  0  0  0
  -18.6278  -24.5701   24.8763 C   0  0  0  0  0  0  0  0  0  0  0  0
  -25.6331  -16.2738   21.6803 C   0  0  0  0  0  0  0  0  0  0  0  0
  -25.4933  -16.6456   19.2972 C   0  0  0  0  0  0  0  0  0  0  0  0
  -18.3177  -26.9486   25.1255 C   0  0  0  0  0  0  0  0  0  0  0  0
  -19.2953  -24.7863   23.6712 C   0  0  0  0  0  0  0  0  0  0  0  0
  -24.5784  -22.0908   19.6538 C   0  0  0  0  0  0  0  0  0  0  0  0
  -24.3527  -15.7205   21.6691 C   0  0  0  0  0  0  0  0  0  0  0  0
  -24.2130  -16.0923   19.2859 C   0  0  0  0  0  0  0  0  0  0  0  0
  -24.8293  -21.6612   18.3514 C   0  0  0  0  0  0  0  0  0  0  0  0
  -21.0505  -14.4479   18.5695 C   0  0  0  0  0  0  0  0  0  0  0  0
  -20.7464  -13.5356   17.5592 C   0  0  0  0  0  0  0  0  0  0  0  0
  -25.1494  -23.9513   17.6642 C   0  0  0  0  0  0  0  0  0  0  0  0
  -22.5274  -12.0938   18.3249 C   0  0  0  0  0  0  0  0  0  0  0  0
  -26.2034  -16.7365   20.4943 C   0  0  0  0  0  0  0  0  0  0  0  0
  -28.7468  -16.6310   20.3278 C   0  0  0  0  0  0  0  0  0  0  0  0
  -18.9962  -27.1814   23.9188 C   0  0  0  0  0  0  0  0  0  0  0  0
  -24.6004  -23.4570   19.9694 C   0  0  0  0  0  0  0  0  0  0  0  0
  -19.4823  -26.0882   23.1766 C   0  0  0  0  0  0  0  0  0  0  0  0
  -24.9010  -24.3955   18.9719 C   0  0  0  0  0  0  0  0  0  0  0  0
  -23.6427  -15.6297   20.4719 C   0  0  0  0  0  0  0  0  0  0  0  0
  -25.1120  -22.5917   17.3557 C   0  0  0  0  0  0  0  0  0  0  0  0
  -22.0932  -14.1832   19.4575 C   0  0  0  0  0  0  0  0  0  0  0  0
  -21.4848  -12.3585   17.4369 C   0  0  0  0  0  0  0  0  0  0  0  0
  -22.8315  -13.0061   19.3353 C   0  0  0  0  0  0  0  0  0  0  0  0
  -27.5257  -17.3087   20.5054 C   0  0  0  0  0  0  0  0  0  0  0  0
  -28.5421  -22.1533   13.4426 C   0  0  0  0  0  0  0  0  0  0  0  0
  -29.8514  -23.6385   14.5869 C   0  0  0  0  0  0  0  0  0  0  0  0
  -27.8676  -21.8521   14.6052 C   0  0  0  0  0  0  0  0  0  0  0  0
  -29.1764  -23.3379   15.7495 C   0  0  0  0  0  0  0  0  0  0  0  0
  -29.7018  -17.6133   20.4242 C   0  0  0  0  0  0  0  0  0  0  0  0
  -28.9954  -15.2380   20.0964 C   0  0  0  0  0  0  0  0  0  0  0  0
  -22.4648  -25.5407   21.0652 C   0  0  0  0  0  0  0  0  0  0  0  0
  -25.0304  -27.5229   21.1698 C   0  0  0  0  0  0  0  0  0  0  0  0
  -28.0674  -27.8562   20.4110 C   0  0  0  0  0  0  0  0  0  0  0  0
  -29.5813  -23.5244   19.4779 C   0  0  0  0  0  0  0  0  0  0  0  0
  -19.1238  -28.5988   23.4196 C   0  0  0  0  0  0  0  0  0  0  0  0
  -24.3540  -23.9022   21.3848 C   0  0  0  0  0  0  0  0  0  0  0  0
  -24.9567  -25.8721   19.2633 C   0  0  0  0  0  0  0  0  0  0  0  0
  -20.1704  -28.7657   22.3210 C   0  0  0  0  0  0  0  0  0  0  0  0
  -30.5156  -21.8557   22.4811 C   0  0  0  0  0  0  0  0  0  0  0  0
  -20.0170  -27.6737   21.2671 C   0  0  0  0  0  0  0  0  0  0  0  0
  -29.9654  -20.4400   22.2993 C   0  0  0  0  0  0  0  0  0  0  0  0
  -29.5851  -22.9048   21.8763 C   0  0  0  0  0  0  0  0  0  0  0  0
  -28.6771  -21.2590   20.2823 C   0  0  0  0  0  0  0  0  0  0  0  0
  -20.2334  -26.2837   21.8774 C   0  0  1  0  0  0  0  0  0  0  0  0
  -23.8959  -25.3540   21.4833 C   0  0  1  0  0  0  0  0  0  0  0  0
  -29.6081  -20.1621   20.8267 C   0  0  2  0  0  0  0  0  0  0  0  0
  -28.1955  -21.4970   12.1501 C   0  0  0  0  0  0  0  0  0  0  0  0
  -30.9603  -24.6344   14.5674 C   0  0  0  0  0  0  0  0  0  0  0  0
  -30.4552  -28.5019   19.9881 C   0  0  0  0  0  0  0  0  0  0  0  0
  -23.4078  -29.5065   19.5137 C   0  0  0  0  0  0  0  0  0  0  0  0
  -25.5401  -30.7124   18.9968 C   0  0  0  0  0  0  0  0  0  0  0  0
  -24.7489  -30.5370   21.3560 C   0  0  0  0  0  0  0  0  0  0  0  0
  -28.8889  -27.0544   23.1388 C   0  0  0  0  0  0  0  0  0  0  0  0
  -26.7456  -20.8426   14.6251 C   0  0  0  0  0  0  0  0  0  0  0  0
  -29.5232  -23.9946   17.0418 C   0  0  0  0  0  0  0  0  0  0  0  0
  -25.9489  -20.8867   15.9245 C   0  0  0  0  0  0  0  0  0  1  0  0
  -25.6770  -28.4866   20.2042 C   0  0  1  0  0  0  0  0  0  0  0  0
  -29.3709  -28.3167   21.0382 C   0  0  2  0  0  0  0  0  0  0  0  0
  -24.8406  -29.7830   20.0114 C   0  0  0  0  0  0  0  0  0  0  0  0
  -27.6874  -18.6202   20.7000 N   0  0  0  0  0  0  0  0  0  0  0  0
  -29.5462  -23.0519   13.4126 N   0  0  0  0  0  0  0  0  0  0  0  0
  -28.1726  -22.4390   15.7796 N   0  0  0  0  0  0  0  0  0  0  0  0
  -29.0213  -18.7744   20.6454 N   0  0  0  0  0  0  0  0  0  0  0  0
  -24.7024  -26.2582   20.6610 N   0  0  0  0  0  0  0  0  0  0  0  0
  -29.2867  -22.5837   20.4785 N   0  0  0  0  0  0  0  0  0  0  0  0
  -31.0490  -17.5885   20.3406 N   0  0  0  0  0  0  0  0  0  0  0  0
  -27.9001  -14.3666   20.0254 N   0  0  0  0  0  0  0  0  0  0  0  0
  -21.6455  -26.0285   22.0653 N   0  0  0  0  0  0  0  0  0  0  0  0
  -27.0294  -28.7163   20.7008 N   0  0  0  0  0  0  0  0  0  0  0  0
  -29.2729  -23.1379   18.1793 N   0  0  0  0  0  0  0  0  0  0  0  0
  -29.8479  -27.3168   22.0349 N   0  3  0  0  0  0  0  0  0  0  0  0
  -30.1556  -14.7772   19.9730 O   0  0  0  0  0  0  0  0  0  0  0  0
  -22.1291  -25.2642   19.9195 O   0  0  0  0  0  0  0  0  0  0  0  0
  -24.8305  -27.8767   22.3345 O   0  0  0  0  0  0  0  0  0  0  0  0
  -27.9797  -26.8376   19.7289 O   0  0  0  0  0  0  0  0  0  0  0  0
  -30.0869  -24.6249   19.7230 O   0  0  0  0  0  0  0  0  0  0  0  0
  -22.3934  -15.0896   20.4605 O   0  0  0  0  0  0  0  0  0  0  0  0
  -25.3566  -22.1752   16.0835 O   0  0  0  0  0  0  0  0  0  1  0  0
  -21.1915  -11.4818   16.4676 F   0  0  0  0  0  0  0  0  0  0  0  0
  -23.8335  -12.7458   20.1861 F   0  0  0  0  0  0  0  0  0  0  0  0
  1  2  1  0  0  0  0
  1  5  2  0  0  0  0
  2  6  2  0  0  0  0
  3  8  2  0  0  0  0
  3 15  1  0  0  0  0
  4  9  1  0  0  0  0
  4 15  2  0  0  0  0
  5 17  1  0  0  0  0
  6 19  1  0  0  0  0
  7 10  2  0  0  0  0
  7 18  1  0  0  0  0
  8 21  1  0  0  0  0
  9 21  2  0  0  0  0
 10 22  1  0  0  0  0
 11 12  2  0  0  0  0
 11 23  1  0  0  0  0
 12 24  1  0  0  0  0
 13 20  1  0  0  0  0
 13 22  2  0  0  0  0
 14 24  2  0  0  0  0
 14 25  1  0  0  0  0
 15 26  1  0  0  0  0
 16 26  1  0  0  0  0
 16 31  2  0  0  0  0
 16 32  1  0  0  0  0
 17 19  2  0  0  0  0
 17 37  1  0  0  0  0
 18 20  2  0  0  0  0
 18 38  1  0  0  0  0
 19 46  1  0  0  0  0
 20 39  1  0  0  0  0
 21 79  1  0  0  0  0
 22 80  1  0  0  0  0
 23 25  2  0  0  0  0
 23 79  1  0  0  0  0
 24 81  1  0  0  0  0
 25 82  1  0  0  0  0
 26 62  2  0  0  0  0
 27 29  2  0  0  0  0
 27 49  1  0  0  0  0
 27 63  1  0  0  0  0
 28 30  1  0  0  0  0
 28 50  1  0  0  0  0
 28 63  2  0  0  0  0
 29 56  1  0  0  0  0
 29 64  1  0  0  0  0
 30 57  1  0  0  0  0
 30 64  2  0  0  0  0
 31 65  1  0  0  0  0
 31 68  1  0  0  0  0
 32 69  1  0  0  0  0
 32 74  2  0  0  0  0
 33 47  1  0  0  0  0
 33 70  1  0  0  0  0
 33 75  2  0  0  0  0
 34 59  1  0  0  0  0
 34 66  1  0  0  0  0
 34 76  2  0  0  0  0
 35 60  1  0  0  0  0
 35 71  1  0  0  0  0
 35 77  2  0  0  0  0
 36 67  1  0  0  0  0
 36 72  1  0  0  0  0
 36 78  2  0  0  0  0
 37 40  1  0  0  0  0
 38 47  1  0  0  0  0
 39 66  1  0  0  0  0
 40 42  1  0  0  0  0
 41 43  1  0  0  0  0
 41 44  1  0  0  0  0
 42 46  1  0  0  0  0
 43 48  1  0  0  0  0
 44 67  1  0  0  0  0
 45 48  1  0  0  0  0
 45 67  1  0  0  0  0
 46 70  1  0  0  0  0
 47 66  1  0  0  0  0
 48 65  1  0  0  0  0
 51 60  1  0  0  0  0
 52 61  1  0  0  0  0
 53 61  1  0  0  0  0
 54 61  1  0  0  0  0
 55 73  1  0  0  0  0
 56 58  1  0  0  0  0
 57 72  1  0  0  0  0
 58 80  1  0  0  0  0
 59 61  1  0  0  0  0
 59 71  1  0  0  0  0
 60 73  1  0  0  0  0
 62 65  1  0  0  0  0
M  CHG  1  73   1
M  ISO  4  36 100  58 101  72 100  80 101
M  END
> <Batch ID>
0183

> <Smiles>
CNC(C)C(=O)NC(C(=O)N1Cc2cc([101O:1][101CH2:1]Cc3nc(C[100NH:0][100C:0](=O)N4CCCC(n5nc(-c6ccc(Oc7ccc(F)cc7F)cc6)c(C(N)=O)c5N)C4)c(C)nc3C)ccc2CC1C(=O)NC1CCCc2ccccc21)C(C)(C)C

> <Shape>
0.210

> <Color>
0.064

> <Negative vol penalty>
0.000

$$$$

  -OEChem-04052323073D

 87 96  0     1  0  0  0  0  0999 V2000
  -31.7152  -34.2349   21.1382 C   0  0  0  0  0  0  0  0  0  0  0  0
  -31.3121  -32.9942   20.6550 C   0  0  0  0  0  0  0  0  0  0  0  0
  -23.4174  -10.4418   21.7284 C   0  0  0  0  0  0  0  0  0  0  0  0
  -24.9198   -8.5638   21.9580 C   0  0  0  0  0  0  0  0  0  0  0  0
  -31.1850  -34.7226   22.3320 C   0  0  0  0  0  0  0  0  0  0  0  0
  -30.3794  -32.2398   21.3659 C   0  0  0  0  0  0  0  0  0  0  0  0
  -26.0665  -28.5699   19.0342 C   0  0  0  0  0  0  0  0  0  0  0  0
  -22.3439   -9.5644   21.5758 C   0  0  0  0  0  0  0  0  0  0  0  0
  -23.8462   -7.6863   21.8055 C   0  0  0  0  0  0  0  0  0  0  0  0
  -26.0113  -27.1898   18.8449 C   0  0  0  0  0  0  0  0  0  0  0  0
  -21.4487   -4.9534   21.8370 C   0  0  0  0  0  0  0  0  0  0  0  0
  -21.3661   -3.8702   22.7119 C   0  0  0  0  0  0  0  0  0  0  0  0
  -24.8239  -26.9570   20.9318 C   0  0  0  0  0  0  0  0  0  0  0  0
  -21.2450   -5.3920   24.5845 C   0  0  0  0  0  0  0  0  0  0  0  0
  -24.7054   -9.9415   21.9195 C   0  0  0  0  0  0  0  0  0  0  0  0
  -26.3071  -11.3880   23.2796 C   0  0  0  0  0  0  0  0  0  0  0  0
  -30.2381  -33.9781   23.0529 C   0  0  0  0  0  0  0  0  0  0  0  0
  -25.5094  -29.1539   20.1810 C   0  0  0  0  0  0  0  0  0  0  0  0
  -29.8370  -32.7174   22.5711 C   0  0  0  0  0  0  0  0  0  0  0  0
  -24.8711  -28.3451   21.1320 C   0  0  0  0  0  0  0  0  0  0  0  0
  -26.5001  -22.2055   19.1841 C   0  0  0  0  0  0  0  0  0  0  0  0
  -22.5583   -8.1867   21.6144 C   0  0  0  0  0  0  0  0  0  0  0  0
  -25.3925  -26.3828   19.7951 C   0  0  0  0  0  0  0  0  0  0  0  0
  -21.4296   -6.2559   22.3358 C   0  0  0  0  0  0  0  0  0  0  0  0
  -21.2642   -4.0895   24.0856 C   0  0  0  0  0  0  0  0  0  0  0  0
  -21.3277   -6.4752   23.7095 C   0  0  0  0  0  0  0  0  0  0  0  0
  -25.8148  -10.8474   22.0766 C   0  0  0  0  0  0  0  0  0  0  0  0
  -25.7455  -23.0337   18.3786 C   0  0  0  0  0  0  0  0  0  0  0  0
  -26.2439  -20.8553   19.0586 C   0  0  0  0  0  0  0  0  0  0  0  0
  -27.3596  -12.1817   22.8939 C   0  0  0  0  0  0  0  0  0  0  0  0
  -24.6540  -21.2521   17.4833 C   0  0  0  0  0  0  0  0  0  0  0  0
  -25.8535  -11.1903   24.6253 C   0  0  0  0  0  0  0  0  0  0  0  0
  -26.6521  -30.8447   22.6180 C   0  0  0  0  0  0  0  0  0  0  0  0
  -23.5146  -31.1125   23.3969 C   0  0  0  0  0  0  0  0  0  0  0  0
  -20.3545  -29.8442   23.1694 C   0  0  0  0  0  0  0  0  0  0  0  0
  -28.6394  -15.6863   18.3512 C   0  0  0  0  0  0  0  0  0  0  0  0
  -29.7286  -34.5256   24.3626 C   0  0  0  0  0  0  0  0  0  0  0  0
  -25.5537  -30.6470   20.3574 C   0  0  0  0  0  0  0  0  0  0  0  0
  -24.2398  -28.9248   22.3705 C   0  0  0  0  0  0  0  0  0  0  0  0
  -28.4648  -33.8308   24.8628 C   0  0  0  0  0  0  0  0  0  0  0  0
  -30.2638  -12.4412   18.9019 C   0  0  0  0  0  0  0  0  0  0  0  0
  -28.6112  -32.3161   24.7579 C   0  0  0  0  0  0  0  0  0  0  0  0
  -29.2971  -11.7358   19.8541 C   0  0  0  0  0  0  0  0  0  0  0  0
  -27.4013  -17.8678   21.0392 C   0  0  0  0  0  0  0  0  0  0  0  0
  -29.5434  -13.4205   17.9780 C   0  0  0  0  0  0  0  0  0  0  0  0
  -27.5789  -16.4297   20.5633 C   0  0  0  0  0  0  0  0  0  0  0  0
  -27.7267  -13.6950   19.6203 C   0  0  0  0  0  0  0  0  0  0  0  0
  -27.5803  -17.9042   18.6684 C   0  0  0  0  0  0  0  0  0  0  0  0
  -28.8088  -31.8805   23.3009 C   0  0  1  0  0  0  0  0  0  0  0  0
  -25.4061  -31.0814   21.8124 C   0  0  1  0  0  0  0  0  0  0  0  0
  -28.4230  -12.7526   20.6118 C   0  0  1  0  0  0  0  0  0  0  0  0
  -26.8030  -18.5426   19.8097 C   0  0  2  0  0  0  0  0  0  0  0  0
  -23.6289  -20.7226   16.5387 C   0  0  0  0  0  0  0  0  0  0  0  0
  -28.9464  -22.2600   19.7893 C   0  0  0  0  0  0  0  0  0  0  0  0
  -27.1968  -22.4242   21.5968 C   0  0  0  0  0  0  0  0  0  0  0  0
  -18.0040  -30.2614   23.9431 C   0  0  0  0  0  0  0  0  0  0  0  0
  -24.2403  -30.0533   26.1649 C   0  0  0  0  0  0  0  0  0  0  0  0
  -21.8090  -29.5974   26.5513 C   0  0  0  0  0  0  0  0  0  0  0  0
  -22.5922  -31.9344   26.1668 C   0  0  0  0  0  0  0  0  0  0  0  0
  -19.3720  -30.1504   20.3945 C   0  0  0  0  0  0  0  0  0  0  0  0
  -25.9341  -24.5144   18.4270 C   0  0  0  0  0  0  0  0  0  1  0  0
  -27.5216  -22.7435   20.1242 C   0  0  0  0  0  0  0  0  0  0  0  0
  -22.5479  -30.3078   24.2317 C   0  0  1  0  0  0  0  0  0  0  0  0
  -19.0260  -30.5023   22.8430 C   0  0  2  0  0  0  0  0  0  0  0  0
  -22.8108  -30.4618   25.7564 C   0  0  0  0  0  0  0  0  0  0  0  0
  -26.4983  -11.2627   21.0068 N   0  0  0  0  0  0  0  0  0  0  0  0
  -24.8104  -22.5893   17.5135 N   0  0  0  0  0  0  0  0  0  0  0  0
  -25.3245  -20.3419   18.2152 N   0  0  0  0  0  0  0  0  0  0  0  0
  -27.4307  -12.0728   21.5363 N   0  0  0  0  0  0  0  0  0  0  0  0
  -24.3146  -30.3894   22.5009 N   0  0  0  0  0  0  0  0  0  0  0  0
  -28.7064  -14.3449   18.7433 N   0  0  0  0  0  0  0  0  0  0  0  0
  -27.8747  -16.5509   19.1334 N   0  0  0  0  0  0  0  0  0  0  0  0
  -28.2218  -12.9553   23.5871 N   0  0  0  0  0  0  0  0  0  0  0  0
  -24.7591  -10.3425   24.8437 N   0  0  0  0  0  0  0  0  0  0  0  0
  -26.9719  -19.9713   19.8436 N   0  0  0  0  0  0  0  0  0  0  0  0
  -27.5468  -31.8974   22.5928 N   0  0  0  0  0  0  0  0  0  0  0  0
  -21.2107  -30.7132   23.8121 N   0  0  0  0  0  0  0  0  0  0  0  0
  -18.4794  -29.9608   21.5668 N   0  3  0  0  0  0  0  0  0  0  0  0
  -26.3922  -11.7619   25.6034 O   0  0  0  0  0  0  0  0  0  0  0  0
  -26.7908  -29.7860   23.2193 O   0  0  0  0  0  0  0  0  0  0  0  0
  -23.5534  -32.3383   23.5297 O   0  0  0  0  0  0  0  0  0  0  0  0
  -20.6060  -28.6750   22.8862 O   0  0  0  0  0  0  0  0  0  0  0  0
  -29.2726  -16.1038   17.3725 O   0  0  0  0  0  0  0  0  0  0  0  0
  -21.5109   -7.3302   21.4658 O   0  0  0  0  0  0  0  0  0  0  0  0
  -25.3375  -25.0257   19.6118 O   0  0  0  0  0  0  0  0  0  1  0  0
  -21.1833   -3.0493   24.9256 F   0  0  0  0  0  0  0  0  0  0  0  0
  -21.3076   -7.7243   24.1945 F   0  0  0  0  0  0  0  0  0  0  0  0
  1  2  1  0  0  0  0
  1  5  2  0  0  0  0
  2  6  2  0  0  0  0
  3  8  2  0  0  0  0
  3 15  1  0  0  0  0
  4  9  1  0  0  0  0
  4 15  2  0  0  0  0
  5 17  1  0  0  0  0
  6 19  1  0  0  0  0
  7 10  2  0  0  0  0
  7 18  1  0  0  0  0
  8 22  1  0  0  0  0
  9 22  2  0  0  0  0
 10 23  1  0  0  0  0
 11 12  2  0  0  0  0
 11 24  1  0  0  0  0
 12 25  1  0  0  0  0
 13 20  1  0  0  0  0
 13 23  2  0  0  0  0
 14 25  2  0  0  0  0
 14 26  1  0  0  0  0
 15 27  1  0  0  0  0
 16 27  1  0  0  0  0
 16 30  2  0  0  0  0
 16 32  1  0  0  0  0
 17 19  2  0  0  0  0
 17 37  1  0  0  0  0
 18 20  2  0  0  0  0
 18 38  1  0  0  0  0
 19 49  1  0  0  0  0
 20 39  1  0  0  0  0
 21 28  2  0  0  0  0
 21 29  1  0  0  0  0
 21 62  1  0  0  0  0
 22 84  1  0  0  0  0
 23 85  1  0  0  0  0
 24 26  2  0  0  0  0
 24 84  1  0  0  0  0
 25 86  1  0  0  0  0
 26 87  1  0  0  0  0
 27 66  2  0  0  0  0
 28 61  1  0  0  0  0
 28 67  1  0  0  0  0
 29 68  2  0  0  0  0
 29 75  1  0  0  0  0
 30 69  1  0  0  0  0
 30 73  1  0  0  0  0
 31 53  1  0  0  0  0
 31 67  2  0  0  0  0
 31 68  1  0  0  0  0
 32 74  1  0  0  0  0
 32 79  2  0  0  0  0
 33 50  1  0  0  0  0
 33 76  1  0  0  0  0
 33 80  2  0  0  0  0
 34 63  1  0  0  0  0
 34 70  1  0  0  0  0
 34 81  2  0  0  0  0
 35 64  1  0  0  0  0
 35 77  1  0  0  0  0
 35 82  2  0  0  0  0
 36 71  1  0  0  0  0
 36 72  1  0  0  0  0
 36 83  2  0  0  0  0
 37 40  1  0  0  0  0
 38 50  1  0  0  0  0
 39 70  1  0  0  0  0
 40 42  1  0  0  0  0
 41 43  1  0  0  0  0
 41 45  1  0  0  0  0
 42 49  1  0  0  0  0
 43 51  1  0  0  0  0
 44 46  1  0  0  0  0
 44 52  1  0  0  0  0
 45 71  1  0  0  0  0
 46 72  1  0  0  0  0
 47 51  1  0  0  0  0
 47 71  1  0  0  0  0
 48 52  1  0  0  0  0
 48 72  1  0  0  0  0
 49 76  1  0  0  0  0
 50 70  1  0  0  0  0
 51 69  1  0  0  0  0
 52 75  1  0  0  0  0
 54 62  1  0  0  0  0
 55 62  1  0  0  0  0
 56 64  1  0  0  0  0
 57 65  1  0  0  0  0
 58 65  1  0  0  0  0
 59 65  1  0  0  0  0
 60 78  1  0  0  0  0
 61 85  1  0  0  0  0
 63 65  1  0  0  0  0
 63 77  1  0  0  0  0
 64 78  1  0  0  0  0
 66 69  1  0  0  0  0
M  CHG  1  78   1
M  ISO  4  36 100  61 101  72 100  85 101
M  END
> <Batch ID>
0183

> <Smiles>
CNC(C)C(=O)NC(C(=O)N1Cc2cc([101O:1][101CH2:1]c3nc(C)nc(NC4CC[100N:0]([100C:0](=O)N5CCCC(n6nc(-c7ccc(Oc8ccc(F)cc8F)cc7)c(C(N)=O)c6N)C5)C4)c3C(C)C)ccc2CC1C(=O)NC1CCCc2ccccc21)C(C)(C)C

> <Shape>
0.264

> <Color>
0.109

> <Negative vol penalty>
0.000

$$$$

  -OEChem-04052323073D

 80 89  0     1  0  0  0  0  0999 V2000
  -17.2099  -31.9944   22.5764 C   0  0  0  0  0  0  0  0  0  0  0  0
  -18.3658  -32.1968   21.8292 C   0  0  0  0  0  0  0  0  0  0  0  0
  -26.6083  -13.4612   19.0725 C   0  0  0  0  0  0  0  0  0  0  0  0
  -24.8607  -14.1130   20.6081 C   0  0  0  0  0  0  0  0  0  0  0  0
  -17.2352  -31.1440   23.6810 C   0  0  0  0  0  0  0  0  0  0  0  0
  -19.5481  -31.5498   22.1869 C   0  0  0  0  0  0  0  0  0  0  0  0
  -25.4559  -28.7137   19.2937 C   0  0  0  0  0  0  0  0  0  0  0  0
  -26.5365  -12.1514   19.5466 C   0  0  0  0  0  0  0  0  0  0  0  0
  -24.7887  -12.8031   21.0822 C   0  0  0  0  0  0  0  0  0  0  0  0
  -26.8444  -28.7717   19.4054 C   0  0  0  0  0  0  0  0  0  0  0  0
  -23.4392   -9.8677   20.0909 C   0  0  0  0  0  0  0  0  0  0  0  0
  -22.1720   -9.3097   20.2594 C   0  0  0  0  0  0  0  0  0  0  0  0
  -26.7501  -27.2637   21.2859 C   0  0  0  0  0  0  0  0  0  0  0  0
  -22.6234   -8.9952   22.6120 C   0  0  0  0  0  0  0  0  0  0  0  0
  -25.7705  -14.4420   19.6033 C   0  0  0  0  0  0  0  0  0  0  0  0
  -25.1160  -16.3551   18.0478 C   0  0  0  0  0  0  0  0  0  0  0  0
  -18.4160  -30.4787   24.0467 C   0  0  0  0  0  0  0  0  0  0  0  0
  -24.7019  -27.9376   20.1856 C   0  0  0  0  0  0  0  0  0  0  0  0
  -19.5896  -30.6908   23.2983 C   0  0  0  0  0  0  0  0  0  0  0  0
  -25.3524  -27.1956   21.1818 C   0  0  0  0  0  0  0  0  0  0  0  0
  -25.6267  -11.8223   20.5514 C   0  0  0  0  0  0  0  0  0  0  0  0
  -27.4915  -28.0489   20.4033 C   0  0  0  0  0  0  0  0  0  0  0  0
  -24.2986   -9.9894   21.1829 C   0  0  0  0  0  0  0  0  0  0  0  0
  -21.7641   -8.8735   21.5199 C   0  0  0  0  0  0  0  0  0  0  0  0
  -23.8906   -9.5532   22.4434 C   0  0  0  0  0  0  0  0  0  0  0  0
  -25.8446  -15.7954   19.1144 C   0  0  0  0  0  0  0  0  0  0  0  0
  -25.5455  -17.6582   17.9850 C   0  0  0  0  0  0  0  0  0  0  0  0
  -24.1382  -15.7511   17.1906 C   0  0  0  0  0  0  0  0  0  0  0  0
  -22.4449  -28.5511   22.3381 C   0  0  0  0  0  0  0  0  0  0  0  0
  -22.3150  -25.3168   22.5504 C   0  0  0  0  0  0  0  0  0  0  0  0
  -23.8915  -22.3199   22.1261 C   0  0  0  0  0  0  0  0  0  0  0  0
  -29.7369  -21.2319   17.8730 C   0  0  0  0  0  0  0  0  0  0  0  0
  -18.4064  -29.6060   25.2767 C   0  0  0  0  0  0  0  0  0  0  0  0
  -23.2071  -27.8646   20.0351 C   0  0  0  0  0  0  0  0  0  0  0  0
  -24.5905  -26.3312   22.1517 C   0  0  0  0  0  0  0  0  0  0  0  0
  -19.6064  -28.6667   25.3665 C   0  0  0  0  0  0  0  0  0  0  0  0
  -28.3428  -20.3743   21.1796 C   0  0  0  0  0  0  0  0  0  0  0  0
  -20.8979  -29.4202   25.0646 C   0  0  0  0  0  0  0  0  0  0  0  0
  -27.5497  -19.1143   20.8457 C   0  0  0  0  0  0  0  0  0  0  0  0
  -32.3091  -23.0141   16.5820 C   0  0  0  0  0  0  0  0  0  0  0  0
  -29.6060  -20.4991   20.3288 C   0  0  0  0  0  0  0  0  0  0  0  0
  -28.5511  -19.1613   18.5284 C   0  0  0  0  0  0  0  0  0  0  0  0
  -31.0018  -26.1312   19.2383 C   0  0  0  0  0  0  0  0  0  0  0  0
  -31.8916  -27.7372   18.2419 C   0  0  0  0  0  0  0  0  0  0  0  0
  -20.8853  -29.9877   23.6400 C   0  0  1  0  0  0  0  0  0  0  0  0
  -22.4970  -27.4478   21.3194 C   0  0  1  0  0  0  0  0  0  0  0  0
  -32.2841  -24.0620   17.6585 C   0  0  2  0  0  0  0  0  0  0  0  0
  -30.9451  -27.6577   19.4585 C   0  0  0  0  0  0  0  0  0  0  0  0
  -27.2520  -19.0437   19.3401 C   0  0  1  0  0  0  0  0  0  0  0  0
  -31.0377  -23.2727   17.3483 C   0  0  2  0  0  0  0  0  0  0  0  0
  -23.5440  -19.8522   22.4209 C   0  0  0  0  0  0  0  0  0  0  0  0
  -22.7068  -25.6237   25.5608 C   0  0  0  0  0  0  0  0  0  0  0  0
  -23.2972  -23.1928   25.6614 C   0  0  0  0  0  0  0  0  0  0  0  0
  -21.0277  -23.8927   24.8984 C   0  0  0  0  0  0  0  0  0  0  0  0
  -24.2586  -21.8053   19.2348 C   0  0  0  0  0  0  0  0  0  0  0  0
  -32.3662  -25.5286   17.2955 C   0  0  0  0  0  0  0  0  0  0  0  0
  -29.5888  -28.3206   19.3155 C   0  0  0  0  0  0  0  0  0  1  0  0
  -23.0161  -24.2711   23.3834 C   0  0  1  0  0  0  0  0  0  0  0  0
  -23.4417  -21.0299   21.4642 C   0  0  2  0  0  0  0  0  0  0  0  0
  -22.5264  -24.2628   24.8591 C   0  0  0  0  0  0  0  0  0  0  0  0
  -26.6743  -16.6712   19.6877 N   0  0  0  0  0  0  0  0  0  0  0  0
  -26.4696  -17.7944   18.9788 N   0  0  0  0  0  0  0  0  0  0  0  0
  -23.1301  -26.2976   21.9677 N   0  0  0  0  0  0  0  0  0  0  0  0
  -29.3077  -20.3651   18.8942 N   0  0  0  0  0  0  0  0  0  0  0  0
  -25.2192  -18.6893   17.1770 N   0  0  0  0  0  0  0  0  0  0  0  0
  -23.8141  -14.4026   17.3929 N   0  0  0  0  0  0  0  0  0  0  0  0
  -21.1641  -28.9434   22.6775 N   0  0  0  0  0  0  0  0  0  0  0  0
  -22.8326  -23.0030   22.6858 N   0  0  0  0  0  0  0  0  0  0  0  0
  -30.5203  -22.3061   18.2797 N   0  0  0  0  0  0  0  0  0  0  0  0
  -32.2800  -26.3411   18.5284 N   0  3  0  0  0  0  0  0  0  0  0  0
  -24.2839  -20.7396   20.2696 N   0  3  0  0  0  0  0  0  0  0  0  0
  -23.5807  -16.3839   16.2619 O   0  0  0  0  0  0  0  0  0  0  0  0
  -23.4893  -29.0113   22.7843 O   0  0  0  0  0  0  0  0  0  0  0  0
  -21.0901  -25.2613   22.4156 O   0  0  0  0  0  0  0  0  0  0  0  0
  -25.0654  -22.6833   22.1479 O   0  0  0  0  0  0  0  0  0  0  0  0
  -29.4490  -21.0599   16.6833 O   0  0  0  0  0  0  0  0  0  0  0  0
  -25.5561  -10.5442   21.0141 O   0  0  0  0  0  0  0  0  0  0  0  0
  -28.8466  -28.1043   20.5149 O   0  0  0  0  0  0  0  0  0  1  0  0
  -20.5465   -8.3392   21.6819 F   0  0  0  0  0  0  0  0  0  0  0  0
  -24.7113   -9.6686   23.4965 F   0  0  0  0  0  0  0  0  0  0  0  0
  1  2  1  0  0  0  0
  1  5  2  0  0  0  0
  2  6  2  0  0  0  0
  3  8  2  0  0  0  0
  3 15  1  0  0  0  0
  4  9  1  0  0  0  0
  4 15  2  0  0  0  0
  5 17  1  0  0  0  0
  6 19  1  0  0  0  0
  7 10  2  0  0  0  0
  7 18  1  0  0  0  0
  8 21  1  0  0  0  0
  9 21  2  0  0  0  0
 10 22  1  0  0  0  0
 11 12  2  0  0  0  0
 11 23  1  0  0  0  0
 12 24  1  0  0  0  0
 13 20  1  0  0  0  0
 13 22  2  0  0  0  0
 14 24  2  0  0  0  0
 14 25  1  0  0  0  0
 15 26  1  0  0  0  0
 16 26  1  0  0  0  0
 16 27  2  0  0  0  0
 16 28  1  0  0  0  0
 17 19  2  0  0  0  0
 17 33  1  0  0  0  0
 18 20  2  0  0  0  0
 18 34  1  0  0  0  0
 19 45  1  0  0  0  0
 20 35  1  0  0  0  0
 21 77  1  0  0  0  0
 22 78  1  0  0  0  0
 23 25  2  0  0  0  0
 23 77  1  0  0  0  0
 24 79  1  0  0  0  0
 25 80  1  0  0  0  0
 26 61  2  0  0  0  0
 27 62  1  0  0  0  0
 27 65  1  0  0  0  0
 28 66  1  0  0  0  0
 28 72  2  0  0  0  0
 29 46  1  0  0  0  0
 29 67  1  0  0  0  0
 29 73  2  0  0  0  0
 30 58  1  0  0  0  0
 30 63  1  0  0  0  0
 30 74  2  0  0  0  0
 31 59  1  0  0  0  0
 31 68  1  0  0  0  0
 31 75  2  0  0  0  0
 32 64  1  0  0  0  0
 32 69  1  0  0  0  0
 32 76  2  0  0  0  0
 33 36  1  0  0  0  0
 34 46  1  0  0  0  0
 35 63  1  0  0  0  0
 36 38  1  0  0  0  0
 37 39  1  0  0  0  0
 37 41  1  0  0  0  0
 38 45  1  0  0  0  0
 39 49  1  0  0  0  0
 40 47  1  0  0  0  0
 40 50  1  0  0  0  0
 41 64  1  0  0  0  0
 42 49  1  0  0  0  0
 42 64  1  0  0  0  0
 43 48  1  0  0  0  0
 43 70  1  0  0  0  0
 44 48  1  0  0  0  0
 44 70  1  0  0  0  0
 45 67  1  0  0  0  0
 46 63  1  0  0  0  0
 47 50  1  0  0  0  0
 47 56  1  0  0  0  0
 48 57  1  0  0  0  0
 49 62  1  0  0  0  0
 50 69  1  0  0  0  0
 51 59  1  0  0  0  0
 52 60  1  0  0  0  0
 53 60  1  0  0  0  0
 54 60  1  0  0  0  0
 55 71  1  0  0  0  0
 56 70  1  0  0  0  0
 57 78  1  0  0  0  0
 58 60  1  0  0  0  0
 58 68  1  0  0  0  0
 59 71  1  0  0  0  0
 61 62  1  0  0  0  0
M  CHG  2  70   1  71   1
M  ISO  4  32 100  57 101  69 100  78 101
M  END
> <Batch ID>
0183

> <Smiles>
CNC(C)C(=O)NC(C(=O)N1Cc2cc([101O:1][101CH2:1]C3CN(CC4CC4[100NH:0][100C:0](=O)N4CCCC(n5nc(-c6ccc(Oc7ccc(F)cc7F)cc6)c(C(N)=O)c5N)C4)C3)ccc2CC1C(=O)NC1CCCc2ccccc21)C(C)(C)C

> <Shape>
0.216

> <Color>
0.079

> <Negative vol penalty>
0.000

$$$$

  -OEChem-04052323073D

 80 89  0     1  0  0  0  0  0999 V2000
  -23.7195   -8.8295   22.2856 C   0  0  0  0  0  0  0  0  0  0  0  0
  -24.8556   -9.6078   22.4829 C   0  0  0  0  0  0  0  0  0  0  0  0
  -23.1035  -27.7869   20.3943 C   0  0  0  0  0  0  0  0  0  0  0  0
  -24.3442  -26.6076   22.0993 C   0  0  0  0  0  0  0  0  0  0  0  0
  -22.7320   -9.2524   21.3969 C   0  0  0  0  0  0  0  0  0  0  0  0
  -25.0054  -10.8089   21.7907 C   0  0  0  0  0  0  0  0  0  0  0  0
  -27.7936  -17.3664   22.5268 C   0  0  0  0  0  0  0  0  0  0  0  0
  -21.9095  -27.3006   20.9267 C   0  0  0  0  0  0  0  0  0  0  0  0
  -23.1502  -26.1212   22.6317 C   0  0  0  0  0  0  0  0  0  0  0  0
  -28.6498  -18.2522   21.8741 C   0  0  0  0  0  0  0  0  0  0  0  0
  -19.8734  -28.0072   23.5321 C   0  0  0  0  0  0  0  0  0  0  0  0
  -18.8186  -28.9067   23.6865 C   0  0  0  0  0  0  0  0  0  0  0  0
  -26.8421  -18.9212   20.4237 C   0  0  0  0  0  0  0  0  0  0  0  0
  -17.4569  -27.5630   22.2109 C   0  0  0  0  0  0  0  0  0  0  0  0
  -24.3209  -27.4404   20.9806 C   0  0  0  0  0  0  0  0  0  0  0  0
  -26.2157  -29.1360   20.7758 C   0  0  0  0  0  0  0  0  0  0  0  0
  -22.8652  -10.4641   20.7007 C   0  0  0  0  0  0  0  0  0  0  0  0
  -26.4558  -17.2432   22.1251 C   0  0  0  0  0  0  0  0  0  0  0  0
  -24.0193  -11.2478   20.8908 C   0  0  0  0  0  0  0  0  0  0  0  0
  -25.9704  -18.0350   21.0746 C   0  0  0  0  0  0  0  0  0  0  0  0
  -21.9329  -26.4677   22.0454 C   0  0  0  0  0  0  0  0  0  0  0  0
  -28.1749  -19.0277   20.8205 C   0  0  0  0  0  0  0  0  0  0  0  0
  -19.7200  -26.8856   22.7170 C   0  0  0  0  0  0  0  0  0  0  0  0
  -17.6103  -28.6846   23.0259 C   0  0  0  0  0  0  0  0  0  0  0  0
  -18.5117  -26.6635   22.0565 C   0  0  0  0  0  0  0  0  0  0  0  0
  -25.5546  -27.9420   20.4307 C   0  0  0  0  0  0  0  0  0  0  0  0
  -27.3325  -29.1535   19.9764 C   0  0  0  0  0  0  0  0  0  0  0  0
  -25.8529  -30.1396   21.7334 C   0  0  0  0  0  0  0  0  0  0  0  0
  -24.6713  -14.8841   20.9614 C   0  0  0  0  0  0  0  0  0  0  0  0
  -22.2808  -17.0514   21.2941 C   0  0  0  0  0  0  0  0  0  0  0  0
  -21.3490  -20.3278   21.5035 C   0  0  0  0  0  0  0  0  0  0  0  0
  -30.5139  -24.8510   17.3063 C   0  0  0  0  0  0  0  0  0  0  0  0
  -21.7933  -10.8566   19.7149 C   0  0  0  0  0  0  0  0  0  0  0  0
  -25.5382  -16.3025   22.8568 C   0  0  0  0  0  0  0  0  0  0  0  0
  -24.5373  -17.9550   20.6180 C   0  0  0  0  0  0  0  0  0  0  0  0
  -21.8536  -12.3250   19.3022 C   0  0  0  0  0  0  0  0  0  0  0  0
  -28.9258  -27.6116   15.7351 C   0  0  0  0  0  0  0  0  0  0  0  0
  -23.2854  -12.7254   18.9611 C   0  0  0  0  0  0  0  0  0  0  0  0
  -27.9442  -28.1214   16.7917 C   0  0  0  0  0  0  0  0  0  0  0  0
  -32.7214  -24.2145   20.1808 C   0  0  0  0  0  0  0  0  0  0  0  0
  -32.9059  -22.7544   20.6466 C   0  0  0  0  0  0  0  0  0  0  0  0
  -30.1503  -19.6909   18.0712 C   0  0  0  0  0  0  0  0  0  0  0  0
  -29.0350  -26.0885   15.7546 C   0  0  0  0  0  0  0  0  0  0  0  0
  -28.3737  -26.0153   18.1260 C   0  0  0  0  0  0  0  0  0  0  0  0
  -30.6348  -21.1289   18.0567 C   0  0  0  0  0  0  0  0  0  0  0  0
  -31.4223  -19.9954   20.0872 C   0  0  0  0  0  0  0  0  0  0  0  0
  -24.2065  -12.5690   20.1771 C   0  0  1  0  0  0  0  0  0  0  0  0
  -24.3272  -15.8842   22.0287 C   0  0  1  0  0  0  0  0  0  0  0  0
  -28.2714  -27.5491   18.1843 C   0  0  2  0  0  0  0  0  0  0  0  0
  -31.9217  -23.6555   18.9794 C   0  0  1  0  0  0  0  0  0  0  0  0
  -31.6141  -22.4232   19.8666 C   0  0  1  0  0  0  0  0  0  0  0  0
  -30.1611  -19.3367   19.5495 C   0  0  1  0  0  0  0  0  0  1  0  0
  -19.3214  -21.7883   21.7338 C   0  0  0  0  0  0  0  0  0  0  0  0
  -21.5986  -16.5628   18.3605 C   0  0  0  0  0  0  0  0  0  0  0  0
  -20.2494  -18.6715   18.3952 C   0  0  0  0  0  0  0  0  0  0  0  0
  -19.6170  -16.7638   19.8729 C   0  0  0  0  0  0  0  0  0  0  0  0
  -22.3121  -21.4599   24.0627 C   0  0  0  0  0  0  0  0  0  0  0  0
  -21.6788  -18.1222   20.4167 C   0  0  1  0  0  0  0  0  0  0  0  0
  -20.4312  -21.0542   22.4701 C   0  0  2  0  0  0  0  0  0  0  0  0
  -20.8135  -17.5304   19.2684 C   0  0  0  0  0  0  0  0  0  0  0  0
  -26.1976  -27.2512   19.4856 N   0  0  0  0  0  0  0  0  0  0  0  0
  -27.2745  -28.0135   19.2300 N   0  0  0  0  0  0  0  0  0  0  0  0
  -23.6809  -17.0159   21.3610 N   0  0  0  0  0  0  0  0  0  0  0  0
  -29.3527  -25.6133   17.1036 N   0  0  0  0  0  0  0  0  0  0  0  0
  -28.3486  -30.0327   19.8462 N   0  0  0  0  0  0  0  0  0  0  0  0
  -24.6733  -29.9649   22.4699 N   0  0  0  0  0  0  0  0  0  0  0  0
  -24.0220  -13.6718   21.0960 N   0  0  0  0  0  0  0  0  0  0  0  0
  -20.9542  -19.0211   21.3085 N   0  0  0  0  0  0  0  0  0  0  0  0
  -30.7540  -24.4433   18.6144 N   0  0  0  0  0  0  0  0  0  0  0  0
  -31.6829  -21.1501   19.1402 N   0  3  2  0  0  0  0  0  0  0  0  0
  -21.2025  -22.0480   23.2691 N   0  3  0  0  0  0  0  0  0  0  0  0
  -26.5454  -31.1690   21.9184 O   0  0  0  0  0  0  0  0  0  0  0  0
  -25.4659  -15.1903   20.0802 O   0  0  0  0  0  0  0  0  0  0  0  0
  -21.5361  -16.2796   21.9035 O   0  0  0  0  0  0  0  0  0  0  0  0
  -22.3170  -20.8668   20.9715 O   0  0  0  0  0  0  0  0  0  0  0  0
  -31.2914  -24.5571   16.3918 O   0  0  0  0  0  0  0  0  0  0  0  0
  -20.7680  -25.9932   22.5654 O   0  0  0  0  0  0  0  0  0  0  0  0
  -29.0086  -19.8926   20.1813 O   0  0  0  0  0  0  0  0  0  1  0  0
  -16.5969  -29.5476   23.1755 F   0  0  0  0  0  0  0  0  0  0  0  0
  -18.3580  -25.5872   21.2730 F   0  0  0  0  0  0  0  0  0  0  0  0
  1  2  1  0  0  0  0
  1  5  2  0  0  0  0
  2  6  2  0  0  0  0
  3  8  2  0  0  0  0
  3 15  1  0  0  0  0
  4  9  1  0  0  0  0
  4 15  2  0  0  0  0
  5 17  1  0  0  0  0
  6 19  1  0  0  0  0
  7 10  2  0  0  0  0
  7 18  1  0  0  0  0
  8 21  1  0  0  0  0
  9 21  2  0  0  0  0
 10 22  1  0  0  0  0
 11 12  2  0  0  0  0
 11 23  1  0  0  0  0
 12 24  1  0  0  0  0
 13 20  1  0  0  0  0
 13 22  2  0  0  0  0
 14 24  2  0  0  0  0
 14 25  1  0  0  0  0
 15 26  1  0  0  0  0
 16 26  1  0  0  0  0
 16 27  2  0  0  0  0
 16 28  1  0  0  0  0
 17 19  2  0  0  0  0
 17 33  1  0  0  0  0
 18 20  2  0  0  0  0
 18 34  1  0  0  0  0
 19 47  1  0  0  0  0
 20 35  1  0  0  0  0
 21 77  1  0  0  0  0
 22 78  1  0  0  0  0
 23 25  2  0  0  0  0
 23 77  1  0  0  0  0
 24 79  1  0  0  0  0
 25 80  1  0  0  0  0
 26 61  2  0  0  0  0
 27 62  1  0  0  0  0
 27 65  1  0  0  0  0
 28 66  1  0  0  0  0
 28 72  2  0  0  0  0
 29 48  1  0  0  0  0
 29 67  1  0  0  0  0
 29 73  2  0  0  0  0
 30 58  1  0  0  0  0
 30 63  1  0  0  0  0
 30 74  2  0  0  0  0
 31 59  1  0  0  0  0
 31 68  1  0  0  0  0
 31 75  2  0  0  0  0
 32 64  1  0  0  0  0
 32 69  1  0  0  0  0
 32 76  2  0  0  0  0
 33 36  1  0  0  0  0
 34 48  1  0  0  0  0
 35 63  1  0  0  0  0
 36 38  1  0  0  0  0
 37 39  1  0  0  0  0
 37 43  1  0  0  0  0
 38 47  1  0  0  0  0
 39 49  1  0  0  0  0
 40 41  1  0  0  0  0
 40 50  1  0  0  0  0
 41 51  1  0  0  0  0
 42 45  1  0  0  0  0
 42 52  1  0  0  0  0
 43 64  1  0  0  0  0
 44 49  1  0  0  0  0
 44 64  1  0  0  0  0
 45 70  1  0  0  0  0
 46 52  1  0  0  0  0
 46 70  1  0  0  0  0
 47 67  1  0  0  0  0
 48 63  1  0  0  0  0
 49 62  1  0  0  0  0
 50 51  1  0  0  0  0
 50 69  1  0  0  0  0
 51 70  1  0  0  0  0
 52 78  1  0  0  0  0
 53 59  1  0  0  0  0
 54 60  1  0  0  0  0
 55 60  1  0  0  0  0
 56 60  1  0  0  0  0
 57 71  1  0  0  0  0
 58 60  1  0  0  0  0
 58 68  1  0  0  0  0
 59 71  1  0  0  0  0
 61 62  1  0  0  0  0
M  CHG  2  70   1  71   1
M  ISO  4  32 100  52 101  69 100  78 101
M  END
> <Batch ID>
0183

> <Smiles>
CNC(C)C(=O)NC(C(=O)N1Cc2cc([101O:1][101CH:1]3CCN(C4CCC4[100NH:0][100C:0](=O)N4CCCC(n5nc(-c6ccc(Oc7ccc(F)cc7F)cc6)c(C(N)=O)c5N)C4)C3)ccc2CC1C(=O)NC1CCCc2ccccc21)C(C)(C)C

> <Shape>
0.225

> <Color>
0.059

> <Negative vol penalty>
0.000

$$$$

  -OEChem-04052323073D

 86 95  0     1  0  0  0  0  0999 V2000
  -28.6100  -37.4900   21.6731 C   0  0  0  0  0  0  0  0  0  0  0  0
  -28.9591  -36.1827   21.3498 C   0  0  0  0  0  0  0  0  0  0  0  0
  -24.0455  -10.0826   22.3433 C   0  0  0  0  0  0  0  0  0  0  0  0
  -24.1910   -8.6403   20.4106 C   0  0  0  0  0  0  0  0  0  0  0  0
  -27.5735  -37.7310   22.5740 C   0  0  0  0  0  0  0  0  0  0  0  0
  -28.2726  -35.1156   21.9281 C   0  0  0  0  0  0  0  0  0  0  0  0
  -26.9564  -29.7356   19.3149 C   0  0  0  0  0  0  0  0  0  0  0  0
  -22.8465   -9.4712   22.7095 C   0  0  0  0  0  0  0  0  0  0  0  0
  -22.9920   -8.0287   20.7767 C   0  0  0  0  0  0  0  0  0  0  0  0
  -27.5665  -28.4840   19.3862 C   0  0  0  0  0  0  0  0  0  0  0  0
  -21.9630   -5.6973   22.9963 C   0  0  0  0  0  0  0  0  0  0  0  0
  -21.9037   -4.3049   22.9393 C   0  0  0  0  0  0  0  0  0  0  0  0
  -26.0037  -27.8266   21.1022 C   0  0  0  0  0  0  0  0  0  0  0  0
  -20.0966   -4.4474   21.3420 C   0  0  0  0  0  0  0  0  0  0  0  0
  -29.0185  -23.7071   18.7151 C   0  0  0  0  0  0  0  0  0  0  0  0
  -24.7177   -9.6673   21.1939 C   0  0  0  0  0  0  0  0  0  0  0  0
  -27.2564   -9.9180   21.1968 C   0  0  0  0  0  0  0  0  0  0  0  0
  -26.8676  -36.6664   23.1562 C   0  0  0  0  0  0  0  0  0  0  0  0
  -25.8704  -30.0464   20.1459 C   0  0  0  0  0  0  0  0  0  0  0  0
  -27.2266  -35.3426   22.8386 C   0  0  0  0  0  0  0  0  0  0  0  0
  -25.3800  -29.0819   21.0378 C   0  0  0  0  0  0  0  0  0  0  0  0
  -29.2857  -24.6825   19.6541 C   0  0  0  0  0  0  0  0  0  0  0  0
  -22.3197   -8.4442   21.9262 C   0  0  0  0  0  0  0  0  0  0  0  0
  -27.0920  -27.5303   20.2819 C   0  0  0  0  0  0  0  0  0  0  0  0
  -21.0891   -6.4648   22.2262 C   0  0  0  0  0  0  0  0  0  0  0  0
  -20.9705   -3.6799   22.1122 C   0  0  0  0  0  0  0  0  0  0  0  0
  -20.1560   -5.8398   21.3990 C   0  0  0  0  0  0  0  0  0  0  0  0
  -25.9560  -10.2989   20.8148 C   0  0  0  0  0  0  0  0  0  0  0  0
  -30.0314  -24.2759   20.7417 C   0  0  0  0  0  0  0  0  0  0  0  0
  -28.0768  -10.8291   20.5776 C   0  0  0  0  0  0  0  0  0  0  0  0
  -30.1601  -22.1583   19.9255 C   0  0  0  0  0  0  0  0  0  0  0  0
  -27.6844   -8.8373   22.0361 C   0  0  0  0  0  0  0  0  0  0  0  0
  -25.3324  -32.1973   22.4236 C   0  0  0  0  0  0  0  0  0  0  0  0
  -22.3210  -30.9975   22.3035 C   0  0  0  0  0  0  0  0  0  0  0  0
  -20.2734  -28.3824   21.5189 C   0  0  0  0  0  0  0  0  0  0  0  0
  -29.4502  -15.8100   19.1248 C   0  0  0  0  0  0  0  0  0  0  0  0
  -25.7859  -36.9758   24.1607 C   0  0  0  0  0  0  0  0  0  0  0  0
  -25.2064  -31.3917   20.0380 C   0  0  0  0  0  0  0  0  0  0  0  0
  -24.2042  -29.3588   21.9373 C   0  0  0  0  0  0  0  0  0  0  0  0
  -24.8609  -35.7947   24.4429 C   0  0  0  0  0  0  0  0  0  0  0  0
  -27.0936  -14.2783   17.0202 C   0  0  0  0  0  0  0  0  0  0  0  0
  -25.6726  -34.5237   24.6717 C   0  0  0  0  0  0  0  0  0  0  0  0
  -26.6854  -13.0644   17.8544 C   0  0  0  0  0  0  0  0  0  0  0  0
  -28.9236  -19.2861   19.2898 C   0  0  0  0  0  0  0  0  0  0  0  0
  -31.3749  -18.6879   19.2601 C   0  0  0  0  0  0  0  0  0  0  0  0
  -27.2608  -15.5336   17.8784 C   0  0  0  0  0  0  0  0  0  0  0  0
  -28.6386  -18.0915   18.3748 C   0  0  0  0  0  0  0  0  0  0  0  0
  -31.0464  -17.5263   18.3264 C   0  0  0  0  0  0  0  0  0  0  0  0
  -27.7711  -14.1440   19.8601 C   0  0  0  0  0  0  0  0  0  0  0  0
  -26.4892  -34.1588   23.4261 C   0  0  1  0  0  0  0  0  0  0  0  0
  -24.4332  -31.7789   21.2948 C   0  0  1  0  0  0  0  0  0  0  0  0
  -27.6521  -12.8542   19.0335 C   0  0  1  0  0  0  0  0  0  0  0  0
  -30.3483  -19.8122   19.1005 C   0  0  0  0  0  0  0  0  0  0  0  0
  -29.5207  -25.0686   23.0649 C   0  0  0  0  0  0  0  0  0  0  0  0
  -17.8636  -27.6840   21.5674 C   0  0  0  0  0  0  0  0  0  0  0  0
  -22.5150  -30.5461   25.3149 C   0  0  0  0  0  0  0  0  0  0  0  0
  -20.5371  -29.0208   25.1433 C   0  0  0  0  0  0  0  0  0  0  0  0
  -20.3098  -31.4286   24.5322 C   0  0  0  0  0  0  0  0  0  0  0  0
  -20.1904  -28.0492   18.5793 C   0  0  0  0  0  0  0  0  0  0  0  0
  -28.7916  -26.0722   19.4810 C   0  0  0  0  0  0  0  0  0  1  0  0
  -30.3846  -25.2467   21.8199 C   0  0  0  0  0  0  0  0  0  0  0  0
  -21.5883  -29.8763   23.0000 C   0  0  1  0  0  0  0  0  0  0  0  0
  -18.9707  -28.3210   20.7420 C   0  0  2  0  0  0  0  0  0  0  0  0
  -21.2609  -30.2131   24.4821 C   0  0  0  0  0  0  0  0  0  0  0  0
  -29.4418  -22.4303   18.8194 N   0  0  0  0  0  0  0  0  0  0  0  0
  -25.9460  -11.3687   20.0151 N   0  0  0  0  0  0  0  0  0  0  0  0
  -30.4865  -23.0170   20.9102 N   0  0  0  0  0  0  0  0  0  0  0  0
  -27.2502  -11.6678   19.8895 N   0  0  0  0  0  0  0  0  0  0  0  0
  -23.5928  -30.6910   21.7991 N   0  0  0  0  0  0  0  0  0  0  0  0
  -28.1590  -15.2730   19.0119 N   0  0  0  0  0  0  0  0  0  0  0  0
  -29.6742  -17.0596   18.5281 N   0  0  0  0  0  0  0  0  0  0  0  0
  -29.4174  -10.9866   20.5601 N   0  0  0  0  0  0  0  0  0  0  0  0
  -26.7103   -7.9963   22.5913 N   0  0  0  0  0  0  0  0  0  0  0  0
  -30.6113  -20.8577   20.0647 N   0  0  0  0  0  0  0  0  0  0  0  0
  -25.6407  -33.5443   22.4277 N   0  0  0  0  0  0  0  0  0  0  0  0
  -20.4171  -29.5833   22.1810 N   0  0  0  0  0  0  0  0  0  0  0  0
  -19.1475  -27.5219   19.4965 N   0  3  0  0  0  0  0  0  0  0  0  0
  -28.8938   -8.6336   22.2996 O   0  0  0  0  0  0  0  0  0  0  0  0
  -25.7168  -31.3603   23.2318 O   0  0  0  0  0  0  0  0  0  0  0  0
  -21.7817  -32.1024   22.2041 O   0  0  0  0  0  0  0  0  0  0  0  0
  -21.0810  -27.4561   21.5395 O   0  0  0  0  0  0  0  0  0  0  0  0
  -30.3503  -15.2083   19.7239 O   0  0  0  0  0  0  0  0  0  0  0  0
  -21.1499   -7.8471   22.2833 O   0  0  0  0  0  0  0  0  0  0  0  0
  -27.6898  -26.3005   20.3544 O   0  0  0  0  0  0  0  0  0  1  0  0
  -20.9146   -2.3428   22.0564 F   0  0  0  0  0  0  0  0  0  0  0  0
  -19.3146   -6.5718   20.6560 F   0  0  0  0  0  0  0  0  0  0  0  0
  1  2  1  0  0  0  0
  1  5  2  0  0  0  0
  2  6  2  0  0  0  0
  3  8  2  0  0  0  0
  3 16  1  0  0  0  0
  4  9  1  0  0  0  0
  4 16  2  0  0  0  0
  5 18  1  0  0  0  0
  6 20  1  0  0  0  0
  7 10  2  0  0  0  0
  7 19  1  0  0  0  0
  8 23  1  0  0  0  0
  9 23  2  0  0  0  0
 10 24  1  0  0  0  0
 11 12  2  0  0  0  0
 11 25  1  0  0  0  0
 12 26  1  0  0  0  0
 13 21  1  0  0  0  0
 13 24  2  0  0  0  0
 14 26  2  0  0  0  0
 14 27  1  0  0  0  0
 15 22  1  0  0  0  0
 15 65  2  0  0  0  0
 16 28  1  0  0  0  0
 17 28  1  0  0  0  0
 17 30  2  0  0  0  0
 17 32  1  0  0  0  0
 18 20  2  0  0  0  0
 18 37  1  0  0  0  0
 19 21  2  0  0  0  0
 19 38  1  0  0  0  0
 20 50  1  0  0  0  0
 21 39  1  0  0  0  0
 22 29  2  0  0  0  0
 22 60  1  0  0  0  0
 23 83  1  0  0  0  0
 24 84  1  0  0  0  0
 25 27  2  0  0  0  0
 25 83  1  0  0  0  0
 26 85  1  0  0  0  0
 27 86  1  0  0  0  0
 28 66  2  0  0  0  0
 29 61  1  0  0  0  0
 29 67  1  0  0  0  0
 30 68  1  0  0  0  0
 30 72  1  0  0  0  0
 31 65  1  0  0  0  0
 31 67  2  0  0  0  0
 31 74  1  0  0  0  0
 32 73  1  0  0  0  0
 32 78  2  0  0  0  0
 33 51  1  0  0  0  0
 33 75  1  0  0  0  0
 33 79  2  0  0  0  0
 34 62  1  0  0  0  0
 34 69  1  0  0  0  0
 34 80  2  0  0  0  0
 35 63  1  0  0  0  0
 35 76  1  0  0  0  0
 35 81  2  0  0  0  0
 36 70  1  0  0  0  0
 36 71  1  0  0  0  0
 36 82  2  0  0  0  0
 37 40  1  0  0  0  0
 38 51  1  0  0  0  0
 39 69  1  0  0  0  0
 40 42  1  0  0  0  0
 41 43  1  0  0  0  0
 41 46  1  0  0  0  0
 42 50  1  0  0  0  0
 43 52  1  0  0  0  0
 44 47  1  0  0  0  0
 44 53  1  0  0  0  0
 45 48  1  0  0  0  0
 45 53  1  0  0  0  0
 46 70  1  0  0  0  0
 47 71  1  0  0  0  0
 48 71  1  0  0  0  0
 49 52  1  0  0  0  0
 49 70  1  0  0  0  0
 50 75  1  0  0  0  0
 51 69  1  0  0  0  0
 52 68  1  0  0  0  0
 53 74  1  0  0  0  0
 54 61  1  0  0  0  0
 55 63  1  0  0  0  0
 56 64  1  0  0  0  0
 57 64  1  0  0  0  0
 58 64  1  0  0  0  0
 59 77  1  0  0  0  0
 60 84  1  0  0  0  0
 62 64  1  0  0  0  0
 62 76  1  0  0  0  0
 63 77  1  0  0  0  0
 66 68  1  0  0  0  0
M  CHG  1  77   1
M  ISO  4  36 100  60 101  71 100  84 101
M  END
> <Batch ID>
0183

> <Smiles>
CCc1nc(NC2CC[100N:0]([100C:0](=O)N3CCCC(n4nc(-c5ccc(Oc6ccc(F)cc6F)cc5)c(C(N)=O)c4N)C3)CC2)ncc1[101CH2:1][101O:1]c1ccc2c(c1)CN(C(=O)C(NC(=O)C(C)NC)C(C)(C)C)C(C(=O)NC1CCCc3ccccc31)C2

> <Shape>
0.310

> <Color>
0.088

> <Negative vol penalty>
0.000

$$$$

  -OEChem-04052323073D

 81 90  0     1  0  0  0  0  0999 V2000
  -22.7461  -27.3887   21.4830 C   0  0  0  0  0  0  0  0  0  0  0  0
  -22.8539  -26.2720   20.6603 C   0  0  0  0  0  0  0  0  0  0  0  0
  -21.1262  -22.7714   22.0506 C   0  0  0  0  0  0  0  0  0  0  0  0
  -19.2138  -22.0636   20.7549 C   0  0  0  0  0  0  0  0  0  0  0  0
  -23.7796  -28.3235   21.5263 C   0  0  0  0  0  0  0  0  0  0  0  0
  -23.9949  -26.0900   19.8797 C   0  0  0  0  0  0  0  0  0  0  0  0
  -28.0663  -20.1890   20.5823 C   0  0  0  0  0  0  0  0  0  0  0  0
  -20.3616  -23.7871   22.6244 C   0  0  0  0  0  0  0  0  0  0  0  0
  -18.4491  -23.0792   21.3288 C   0  0  0  0  0  0  0  0  0  0  0  0
  -28.7786  -18.9917   20.5089 C   0  0  0  0  0  0  0  0  0  0  0  0
  -16.0910  -25.7096   22.1833 C   0  0  0  0  0  0  0  0  0  0  0  0
  -15.2786  -26.4657   21.3384 C   0  0  0  0  0  0  0  0  0  0  0  0
  -30.2676  -19.9656   18.8711 C   0  0  0  0  0  0  0  0  0  0  0  0
  -28.6048  -13.1998   20.1615 C   0  0  0  0  0  0  0  0  0  0  0  0
  -27.2897  -15.1904   20.4659 C   0  0  0  0  0  0  0  0  0  0  0  0
  -17.2269  -27.1696   20.0950 C   0  0  0  0  0  0  0  0  0  0  0  0
  -20.5524  -21.9096   21.1158 C   0  0  0  0  0  0  0  0  0  0  0  0
  -22.5140  -21.0083   19.7567 C   0  0  0  0  0  0  0  0  0  0  0  0
  -24.9380  -28.1479   20.7531 C   0  0  0  0  0  0  0  0  0  0  0  0
  -28.4618  -21.2853   19.8108 C   0  0  0  0  0  0  0  0  0  0  0  0
  -25.0443  -27.0240   19.9117 C   0  0  0  0  0  0  0  0  0  0  0  0
  -29.5656  -21.1713   18.9497 C   0  0  0  0  0  0  0  0  0  0  0  0
  -28.5265  -14.5831   20.2789 C   0  0  0  0  0  0  0  0  0  0  0  0
  -19.0230  -23.9410   22.2635 C   0  0  0  0  0  0  0  0  0  0  0  0
  -29.8764  -18.8803   19.6552 C   0  0  0  0  0  0  0  0  0  0  0  0
  -17.4714  -25.6836   21.9842 C   0  0  0  0  0  0  0  0  0  0  0  0
  -15.8465  -27.1957   20.2943 C   0  0  0  0  0  0  0  0  0  0  0  0
  -18.0393  -26.4136   20.9400 C   0  0  0  0  0  0  0  0  0  0  0  0
  -21.3419  -20.8606   20.5223 C   0  0  0  0  0  0  0  0  0  0  0  0
  -27.4265  -12.4748   20.2374 C   0  0  0  0  0  0  0  0  0  0  0  0
  -26.1703  -14.3762   20.5279 C   0  0  0  0  0  0  0  0  0  0  0  0
  -22.8753  -19.7239   19.4307 C   0  0  0  0  0  0  0  0  0  0  0  0
  -23.2136  -22.1999   19.3744 C   0  0  0  0  0  0  0  0  0  0  0  0
  -27.8487  -24.8616   18.8571 C   0  0  0  0  0  0  0  0  0  0  0  0
  -30.8872  -24.5098   19.0898 C   0  0  0  0  0  0  0  0  0  0  0  0
  -34.1369  -23.8146   19.8600 C   0  0  0  0  0  0  0  0  0  0  0  0
  -23.6670  -14.3878   20.8102 C   0  0  0  0  0  0  0  0  0  0  0  0
  -26.0083  -29.2096   20.7976 C   0  0  0  0  0  0  0  0  0  0  0  0
  -27.6869  -22.5750   19.8119 C   0  0  0  0  0  0  0  0  0  0  0  0
  -29.9338  -22.3658   18.1127 C   0  0  0  0  0  0  0  0  0  0  0  0
  -27.3458  -28.7507   20.2224 C   0  0  0  0  0  0  0  0  0  0  0  0
  -20.3554  -15.3635   19.9393 C   0  0  0  0  0  0  0  0  0  0  0  0
  -27.1373  -28.0357   18.8912 C   0  0  0  0  0  0  0  0  0  0  0  0
  -20.4132  -16.8928   19.9504 C   0  0  0  0  0  0  0  0  0  0  0  0
  -30.6658  -15.2747   19.0058 C   0  0  0  0  0  0  0  0  0  0  0  0
  -21.2203  -14.7552   21.0419 C   0  0  0  0  0  0  0  0  0  0  0  0
  -22.6724  -16.7451   21.0736 C   0  0  0  0  0  0  0  0  0  0  0  0
  -29.7567  -15.4068   20.2053 C   0  0  1  0  0  0  0  0  0  0  0  0
  -26.2770  -26.7788   19.0688 C   0  0  1  0  0  0  0  0  0  0  0  0
  -28.5814  -23.8166   19.6460 C   0  0  1  0  0  0  0  0  0  0  0  0
  -21.8680  -17.4018   19.9397 C   0  0  2  0  0  0  0  0  0  0  0  0
  -29.8443  -16.5154   19.1793 C   0  0  1  0  0  0  0  0  0  1  0  0
  -27.4730  -10.9881   20.1161 C   0  0  0  0  0  0  0  0  0  0  0  0
  -36.4133  -24.8683   19.9308 C   0  0  0  0  0  0  0  0  0  0  0  0
  -31.0741  -24.3013   16.0524 C   0  0  0  0  0  0  0  0  0  0  0  0
  -33.5650  -24.4321   16.2676 C   0  0  0  0  0  0  0  0  0  0  0  0
  -32.1475  -26.3393   17.0265 C   0  0  0  0  0  0  0  0  0  0  0  0
  -34.3809  -23.3670   22.7754 C   0  0  0  0  0  0  0  0  0  0  0  0
  -32.1832  -24.2053   18.3819 C   0  0  1  0  0  0  0  0  0  0  0  0
  -35.1497  -24.5534   20.7161 C   0  0  2  0  0  0  0  0  0  0  0  0
  -32.2278  -24.7992   16.9457 C   0  0  0  0  0  0  0  0  0  0  0  0
  -20.9824  -19.5831   20.6736 N   0  0  0  0  0  0  0  0  0  0  0  0
  -26.2069  -13.0293   20.4182 N   0  0  0  0  0  0  0  0  0  0  0  0
  -21.9341  -18.9164   19.9985 N   0  0  0  0  0  0  0  0  0  0  0  0
  -29.8433  -23.5922   18.9204 N   0  0  0  0  0  0  0  0  0  0  0  0
  -22.5854  -15.2803   20.9668 N   0  0  0  0  0  0  0  0  0  0  0  0
  -23.9031  -19.2177   18.7166 N   0  0  0  0  0  0  0  0  0  0  0  0
  -22.8609  -22.8247   18.1704 N   0  0  0  0  0  0  0  0  0  0  0  0
  -24.9145  -15.0042   20.7182 N   0  0  0  0  0  0  0  0  0  0  0  0
  -27.0657  -25.7011   19.6263 N   0  0  0  0  0  0  0  0  0  0  0  0
  -33.2484  -24.6804   19.2583 N   0  0  0  0  0  0  0  0  0  0  0  0
  -35.5253  -23.7304   21.9005 N   0  3  0  0  0  0  0  0  0  0  0  0
  -24.1359  -22.6868   20.0715 O   0  0  0  0  0  0  0  0  0  0  0  0
  -27.9842  -24.9053   17.6399 O   0  0  0  0  0  0  0  0  0  0  0  0
  -30.7983  -25.5355   19.7704 O   0  0  0  0  0  0  0  0  0  0  0  0
  -34.1365  -22.5920   19.7344 O   0  0  0  0  0  0  0  0  0  0  0  0
  -23.4963  -13.1684   20.7338 O   0  0  0  0  0  0  0  0  0  0  0  0
  -18.2765  -24.9319   22.8234 O   0  0  0  0  0  0  0  0  0  0  0  0
  -30.5700  -17.7100   19.5919 O   0  0  0  0  0  0  0  0  0  1  0  0
  -15.0661  -27.9205   19.4820 F   0  0  0  0  0  0  0  0  0  0  0  0
  -19.3646  -26.3915   20.7430 F   0  0  0  0  0  0  0  0  0  0  0  0
  1  2  1  0  0  0  0
  1  5  2  0  0  0  0
  2  6  2  0  0  0  0
  3  8  2  0  0  0  0
  3 17  1  0  0  0  0
  4  9  1  0  0  0  0
  4 17  2  0  0  0  0
  5 19  1  0  0  0  0
  6 21  1  0  0  0  0
  7 10  2  0  0  0  0
  7 20  1  0  0  0  0
  8 24  1  0  0  0  0
  9 24  2  0  0  0  0
 10 25  1  0  0  0  0
 11 12  2  0  0  0  0
 11 26  1  0  0  0  0
 12 27  1  0  0  0  0
 13 22  1  0  0  0  0
 13 25  2  0  0  0  0
 14 23  1  0  0  0  0
 14 30  2  0  0  0  0
 15 23  2  0  0  0  0
 15 31  1  0  0  0  0
 16 27  2  0  0  0  0
 16 28  1  0  0  0  0
 17 29  1  0  0  0  0
 18 29  1  0  0  0  0
 18 32  2  0  0  0  0
 18 33  1  0  0  0  0
 19 21  2  0  0  0  0
 19 38  1  0  0  0  0
 20 22  2  0  0  0  0
 20 39  1  0  0  0  0
 21 49  1  0  0  0  0
 22 40  1  0  0  0  0
 23 48  1  0  0  0  0
 24 78  1  0  0  0  0
 25 79  1  0  0  0  0
 26 28  2  0  0  0  0
 26 78  1  0  0  0  0
 27 80  1  0  0  0  0
 28 81  1  0  0  0  0
 29 62  2  0  0  0  0
 30 53  1  0  0  0  0
 30 63  1  0  0  0  0
 31 63  2  0  0  0  0
 31 69  1  0  0  0  0
 32 64  1  0  0  0  0
 32 67  1  0  0  0  0
 33 68  1  0  0  0  0
 33 73  2  0  0  0  0
 34 50  1  0  0  0  0
 34 70  1  0  0  0  0
 34 74  2  0  0  0  0
 35 59  1  0  0  0  0
 35 65  1  0  0  0  0
 35 75  2  0  0  0  0
 36 60  1  0  0  0  0
 36 71  1  0  0  0  0
 36 76  2  0  0  0  0
 37 66  1  0  0  0  0
 37 69  1  0  0  0  0
 37 77  2  0  0  0  0
 38 41  1  0  0  0  0
 39 50  1  0  0  0  0
 40 65  1  0  0  0  0
 41 43  1  0  0  0  0
 42 44  1  0  0  0  0
 42 46  1  0  0  0  0
 43 49  1  0  0  0  0
 44 51  1  0  0  0  0
 45 48  1  0  0  0  0
 45 52  1  0  0  0  0
 46 66  1  0  0  0  0
 47 51  1  0  0  0  0
 47 66  1  0  0  0  0
 48 52  1  0  0  0  0
 49 70  1  0  0  0  0
 50 65  1  0  0  0  0
 51 64  1  0  0  0  0
 52 79  1  0  0  0  0
 54 60  1  0  0  0  0
 55 61  1  0  0  0  0
 56 61  1  0  0  0  0
 57 61  1  0  0  0  0
 58 72  1  0  0  0  0
 59 61  1  0  0  0  0
 59 71  1  0  0  0  0
 60 72  1  0  0  0  0
 62 64  1  0  0  0  0
M  CHG  1  72   1
M  ISO  4  37 100  52 101  69 100  79 101
M  END
> <Batch ID>
0183

> <Smiles>
CNC(C)C(=O)NC(C(=O)N1Cc2cc([101O:1][101CH:1]3CC3c3cc(C)nc([100NH:0][100C:0](=O)N4CCCC(n5nc(-c6ccc(Oc7ccc(F)cc7F)cc6)c(C(N)=O)c5N)C4)c3)ccc2CC1C(=O)NC1CCCc2ccccc21)C(C)(C)C

> <Shape>
0.195

> <Color>
0.068

> <Negative vol penalty>
0.000

$$$$

  -OEChem-04052323073D

 82 90  0     1  0  0  0  0  0999 V2000
  -23.7072  -29.0424   24.7617 C   0  0  0  0  0  0  0  0  0  0  0  0
  -24.0923  -27.7511   24.4157 C   0  0  0  0  0  0  0  0  0  0  0  0
  -20.4462  -23.2483   21.8757 C   0  0  0  0  0  0  0  0  0  0  0  0
  -22.2147  -23.7099   20.2958 C   0  0  0  0  0  0  0  0  0  0  0  0
  -24.0540  -30.1153   23.9416 C   0  0  0  0  0  0  0  0  0  0  0  0
  -24.8236  -27.5319   23.2488 C   0  0  0  0  0  0  0  0  0  0  0  0
  -29.1843  -23.3221   22.3729 C   0  0  0  0  0  0  0  0  0  0  0  0
  -20.5086  -24.5654   22.3305 C   0  0  0  0  0  0  0  0  0  0  0  0
  -22.2772  -25.0271   20.7505 C   0  0  0  0  0  0  0  0  0  0  0  0
  -29.1653  -22.0619   21.7767 C   0  0  0  0  0  0  0  0  0  0  0  0
  -19.9547  -27.9038   23.6586 C   0  0  0  0  0  0  0  0  0  0  0  0
  -18.7509  -28.5828   23.8464 C   0  0  0  0  0  0  0  0  0  0  0  0
  -29.9433  -23.0342   19.7107 C   0  0  0  0  0  0  0  0  0  0  0  0
  -18.2176  -28.2839   21.5090 C   0  0  0  0  0  0  0  0  0  0  0  0
  -28.2216  -18.0778   18.9036 C   0  0  0  0  0  0  0  0  0  0  0  0
  -21.2992  -22.8205   20.8584 C   0  0  0  0  0  0  0  0  0  0  0  0
  -20.4350  -20.9573   19.3453 C   0  0  0  0  0  0  0  0  0  0  0  0
  -24.7981  -29.9103   22.7691 C   0  0  0  0  0  0  0  0  0  0  0  0
  -29.5732  -24.4513   21.6380 C   0  0  0  0  0  0  0  0  0  0  0  0
  -25.1795  -28.6030   22.4116 C   0  0  0  0  0  0  0  0  0  0  0  0
  -29.9689  -24.3072   20.3006 C   0  0  0  0  0  0  0  0  0  0  0  0
  -21.4241  -25.4548   21.7679 C   0  0  0  0  0  0  0  0  0  0  0  0
  -29.5420  -21.9182   20.4446 C   0  0  0  0  0  0  0  0  0  0  0  0
  -20.2900  -27.4148   22.3959 C   0  0  0  0  0  0  0  0  0  0  0  0
  -17.8823  -28.7728   22.7716 C   0  0  0  0  0  0  0  0  0  0  0  0
  -19.4215  -27.6049   21.3212 C   0  0  0  0  0  0  0  0  0  0  0  0
  -21.2356  -21.4599   20.3885 C   0  0  0  0  0  0  0  0  0  0  0  0
  -29.1829  -18.3297   19.8610 C   0  0  0  0  0  0  0  0  0  0  0  0
  -28.3678  -16.8954   18.2074 C   0  0  0  0  0  0  0  0  0  0  0  0
  -20.7391  -19.6189   19.2934 C   0  0  0  0  0  0  0  0  0  0  0  0
  -30.2444  -16.3778   19.3811 C   0  0  0  0  0  0  0  0  0  0  0  0
  -19.5002  -21.6394   18.4988 C   0  0  0  0  0  0  0  0  0  0  0  0
  -28.1516  -27.1556   20.7610 C   0  0  0  0  0  0  0  0  0  0  0  0
  -31.1131  -27.9014   19.6674 C   0  0  0  0  0  0  0  0  0  0  0  0
  -34.1561  -26.8123   18.5716 C   0  0  0  0  0  0  0  0  0  0  0  0
  -25.2306  -16.0271   19.9557 C   0  0  0  0  0  0  0  0  0  0  0  0
  -25.1088  -31.0957   21.8899 C   0  0  0  0  0  0  0  0  0  0  0  0
  -29.6139  -25.7997   22.3034 C   0  0  0  0  0  0  0  0  0  0  0  0
  -30.4140  -25.4849   19.4740 C   0  0  0  0  0  0  0  0  0  0  0  0
  -26.2067  -30.8228   20.8650 C   0  0  0  0  0  0  0  0  0  0  0  0
  -22.7155  -16.3698   22.4524 C   0  0  0  0  0  0  0  0  0  0  0  0
  -25.9646  -29.4890   20.1656 C   0  0  0  0  0  0  0  0  0  0  0  0
  -22.0031  -17.6706   22.0777 C   0  0  0  0  0  0  0  0  0  0  0  0
  -24.2153  -16.4479   22.1757 C   0  0  0  0  0  0  0  0  0  0  0  0
  -23.8591  -18.1470   20.4264 C   0  0  0  0  0  0  0  0  0  0  0  0
  -25.9947  -28.3278   21.1667 C   0  0  1  0  0  0  0  0  0  0  0  0
  -29.5350  -26.9573   21.3129 C   0  0  1  0  0  0  0  0  0  0  0  0
  -22.3359  -18.0968   20.6352 C   0  0  2  0  0  0  0  0  0  0  0  0
  -31.3655  -15.4314   19.6483 C   0  0  0  0  0  0  0  0  0  0  0  0
  -36.3578  -27.6558   17.7124 C   0  0  0  0  0  0  0  0  0  0  0  0
  -29.8298  -28.4881   16.9620 C   0  0  0  0  0  0  0  0  0  0  0  0
  -32.1118  -28.3910   15.9368 C   0  0  0  0  0  0  0  0  0  0  0  0
  -31.5918  -30.1211   17.6570 C   0  0  0  0  0  0  0  0  0  0  0  0
  -35.6344  -25.5973   20.8293 C   0  0  0  0  0  0  0  0  0  0  0  0
  -29.1078  -19.5909   20.6704 C   0  0  0  0  0  0  0  0  0  1  0  0
  -26.1727  -15.7402   17.6777 C   0  0  0  0  0  0  0  0  0  0  0  0
  -27.3752  -16.5358   17.1529 C   0  0  1  0  0  0  0  0  0  0  0  0
  -31.8519  -27.7081   18.3651 C   0  0  1  0  0  0  0  0  0  0  0  0
  -35.5681  -27.2302   18.9404 C   0  0  2  0  0  0  0  0  0  0  0  0
  -31.3361  -28.6550   17.2450 C   0  0  0  0  0  0  0  0  0  0  0  0
  -21.9913  -20.5174   20.9584 N   0  0  0  0  0  0  0  0  0  0  0  0
  -30.2118  -17.4984   20.1270 N   0  0  0  0  0  0  0  0  0  0  0  0
  -29.3709  -16.0188   18.4209 N   0  0  0  0  0  0  0  0  0  0  0  0
  -21.6669  -19.4092   20.2708 N   0  0  0  0  0  0  0  0  0  0  0  0
  -30.4307  -26.7834   20.1677 N   0  0  0  0  0  0  0  0  0  0  0  0
  -24.4628  -16.8555   20.7906 N   0  0  0  0  0  0  0  0  0  0  0  0
  -20.3006  -18.6127   18.5074 N   0  0  0  0  0  0  0  0  0  0  0  0
  -19.3085  -23.0149   18.6872 N   0  0  0  0  0  0  0  0  0  0  0  0
  -27.3595  -27.9981   21.5175 N   0  0  0  0  0  0  0  0  0  0  0  0
  -33.2694  -27.8634   18.6731 N   0  0  0  0  0  0  0  0  0  0  0  0
  -25.4117  -16.4846   18.6562 N   0  0  0  0  0  0  0  0  0  0  0  0
  -36.2883  -26.1011   19.5942 N   0  3  0  0  0  0  0  0  0  0  0  0
  -18.8419  -21.0435   17.6128 O   0  0  0  0  0  0  0  0  0  0  0  0
  -27.8274  -26.5877   19.7246 O   0  0  0  0  0  0  0  0  0  0  0  0
  -31.1463  -29.0017   20.2239 O   0  0  0  0  0  0  0  0  0  0  0  0
  -33.8691  -25.6688   18.2243 O   0  0  0  0  0  0  0  0  0  0  0  0
  -25.7142  -14.9563   20.3383 O   0  0  0  0  0  0  0  0  0  0  0  0
  -21.4852  -26.7402   22.2112 O   0  0  0  0  0  0  0  0  0  0  0  0
  -29.5238  -20.6894   19.8601 O   0  0  0  0  0  0  0  0  0  1  0  0
  -16.7256  -29.4236   22.9525 F   0  0  0  0  0  0  0  0  0  0  0  0
  -19.7376  -27.1364   20.1061 F   0  0  0  0  0  0  0  0  0  0  0  0
  -26.8750  -17.6213   16.4749 F   0  0  0  0  0  0  0  0  0  0  0  0
  1  2  1  0  0  0  0
  1  5  2  0  0  0  0
  2  6  2  0  0  0  0
  3  8  2  0  0  0  0
  3 16  1  0  0  0  0
  4  9  1  0  0  0  0
  4 16  2  0  0  0  0
  5 18  1  0  0  0  0
  6 20  1  0  0  0  0
  7 10  2  0  0  0  0
  7 19  1  0  0  0  0
  8 22  1  0  0  0  0
  9 22  2  0  0  0  0
 10 23  1  0  0  0  0
 11 12  2  0  0  0  0
 11 24  1  0  0  0  0
 12 25  1  0  0  0  0
 13 21  1  0  0  0  0
 13 23  2  0  0  0  0
 14 25  2  0  0  0  0
 14 26  1  0  0  0  0
 15 28  1  0  0  0  0
 15 29  2  0  0  0  0
 16 27  1  0  0  0  0
 17 27  1  0  0  0  0
 17 30  2  0  0  0  0
 17 32  1  0  0  0  0
 18 20  2  0  0  0  0
 18 37  1  0  0  0  0
 19 21  2  0  0  0  0
 19 38  1  0  0  0  0
 20 46  1  0  0  0  0
 21 39  1  0  0  0  0
 22 78  1  0  0  0  0
 23 79  1  0  0  0  0
 24 26  2  0  0  0  0
 24 78  1  0  0  0  0
 25 80  1  0  0  0  0
 26 81  1  0  0  0  0
 27 61  2  0  0  0  0
 28 55  1  0  0  0  0
 28 62  2  0  0  0  0
 29 57  1  0  0  0  0
 29 63  1  0  0  0  0
 30 64  1  0  0  0  0
 30 67  1  0  0  0  0
 31 49  1  0  0  0  0
 31 62  1  0  0  0  0
 31 63  2  0  0  0  0
 32 68  1  0  0  0  0
 32 73  2  0  0  0  0
 33 47  1  0  0  0  0
 33 69  1  0  0  0  0
 33 74  2  0  0  0  0
 34 58  1  0  0  0  0
 34 65  1  0  0  0  0
 34 75  2  0  0  0  0
 35 59  1  0  0  0  0
 35 70  1  0  0  0  0
 35 76  2  0  0  0  0
 36 66  1  0  0  0  0
 36 71  1  0  0  0  0
 36 77  2  0  0  0  0
 37 40  1  0  0  0  0
 38 47  1  0  0  0  0
 39 65  1  0  0  0  0
 40 42  1  0  0  0  0
 41 43  1  0  0  0  0
 41 44  1  0  0  0  0
 42 46  1  0  0  0  0
 43 48  1  0  0  0  0
 44 66  1  0  0  0  0
 45 48  1  0  0  0  0
 45 66  1  0  0  0  0
 46 69  1  0  0  0  0
 47 65  1  0  0  0  0
 48 64  1  0  0  0  0
 50 59  1  0  0  0  0
 51 60  1  0  0  0  0
 52 60  1  0  0  0  0
 53 60  1  0  0  0  0
 54 72  1  0  0  0  0
 55 79  1  0  0  0  0
 56 57  1  0  0  0  0
 56 71  1  0  0  0  0
 57 82  1  0  0  0  0
 58 60  1  0  0  0  0
 58 70  1  0  0  0  0
 59 72  1  0  0  0  0
 61 64  1  0  0  0  0
M  CHG  1  72   1
M  ISO  4  36 100  55 101  71 100  79 101
M  END
> <Batch ID>
0183

> <Smiles>
CNC(C)C(=O)NC(C(=O)N1Cc2cc([101O:1][101CH2:1]c3cc(C(F)C[100NH:0][100C:0](=O)N4CCCC(n5nc(-c6ccc(Oc7ccc(F)cc7F)cc6)c(C(N)=O)c5N)C4)nc(C)n3)ccc2CC1C(=O)NC1CCCc2ccccc21)C(C)(C)C

> <Shape>
0.203

> <Color>
0.086

> <Negative vol penalty>
0.000

$$$$

  -OEChem-04052323073D

 86 95  0     1  0  0  0  0  0999 V2000
  -18.1146  -31.0307   25.9172 C   0  0  0  0  0  0  0  0  0  0  0  0
  -18.7217  -29.7793   25.9451 C   0  0  0  0  0  0  0  0  0  0  0  0
  -30.7827  -19.6444   19.3197 C   0  0  0  0  0  0  0  0  0  0  0  0
  -28.8829  -19.8438   20.7990 C   0  0  0  0  0  0  0  0  0  0  0  0
  -18.0825  -31.7624   24.7308 C   0  0  0  0  0  0  0  0  0  0  0  0
  -19.2962  -29.2583   24.7863 C   0  0  0  0  0  0  0  0  0  0  0  0
  -24.3028  -25.7508   24.4151 C   0  0  0  0  0  0  0  0  0  0  0  0
  -30.5157  -20.9134   18.8058 C   0  0  0  0  0  0  0  0  0  0  0  0
  -28.6159  -21.1128   20.2851 C   0  0  0  0  0  0  0  0  0  0  0  0
  -24.4757  -24.3727   24.2938 C   0  0  0  0  0  0  0  0  0  0  0  0
  -31.0036  -24.1288   19.7310 C   0  0  0  0  0  0  0  0  0  0  0  0
  -32.0790  -25.0025   19.5704 C   0  0  0  0  0  0  0  0  0  0  0  0
  -24.6907  -24.6163   21.9034 C   0  0  0  0  0  0  0  0  0  0  0  0
  -31.6258  -25.1246   17.2004 C   0  0  0  0  0  0  0  0  0  0  0  0
  -24.1335  -17.4523   22.3806 C   0  0  0  0  0  0  0  0  0  0  0  0
  -29.9662  -19.1096   20.3162 C   0  0  0  0  0  0  0  0  0  0  0  0
  -31.0627  -17.4813   21.9453 C   0  0  0  0  0  0  0  0  0  0  0  0
  -18.6653  -31.2542   23.5591 C   0  0  0  0  0  0  0  0  0  0  0  0
  -24.3116  -26.5721   23.2785 C   0  0  0  0  0  0  0  0  0  0  0  0
  -19.2706  -29.9832   23.5827 C   0  0  0  0  0  0  0  0  0  0  0  0
  -24.5202  -26.0048   22.0133 C   0  0  0  0  0  0  0  0  0  0  0  0
  -24.4178  -18.0477   23.5853 C   0  0  0  0  0  0  0  0  0  0  0  0
  -29.4323  -21.6476   19.2885 C   0  0  0  0  0  0  0  0  0  0  0  0
  -24.6668  -23.8049   23.0375 C   0  0  0  0  0  0  0  0  0  0  0  0
  -30.2394  -23.7529   18.6263 C   0  0  0  0  0  0  0  0  0  0  0  0
  -32.3901  -25.5005   18.3051 C   0  0  0  0  0  0  0  0  0  0  0  0
  -30.5505  -24.2508   17.3610 C   0  0  0  0  0  0  0  0  0  0  0  0
  -30.2411  -17.7986   20.8471 C   0  0  0  0  0  0  0  0  0  0  0  0
  -25.0753  -17.0471   24.3258 C   0  0  0  0  0  0  0  0  0  0  0  0
  -30.9934  -16.1129   22.0419 C   0  0  0  0  0  0  0  0  0  0  0  0
  -25.0196  -20.2483   23.7291 C   0  0  0  0  0  0  0  0  0  0  0  0
  -31.8208  -18.3461   22.8016 C   0  0  0  0  0  0  0  0  0  0  0  0
  -22.2032  -28.5037   21.8903 C   0  0  0  0  0  0  0  0  0  0  0  0
  -24.7191  -29.2374   19.9788 C   0  0  0  0  0  0  0  0  0  0  0  0
  -27.7245  -28.3027   18.6592 C   0  0  0  0  0  0  0  0  0  0  0  0
  -26.6725  -12.3429   20.0460 C   0  0  0  0  0  0  0  0  0  0  0  0
  -18.5642  -32.0613   22.2890 C   0  0  0  0  0  0  0  0  0  0  0  0
  -24.1504  -28.0600   23.4290 C   0  0  0  0  0  0  0  0  0  0  0  0
  -24.5583  -26.8451   20.7639 C   0  0  0  0  0  0  0  0  0  0  0  0
  -19.5253  -31.6003   21.1963 C   0  0  0  0  0  0  0  0  0  0  0  0
  -30.2915  -12.1895   19.3846 C   0  0  0  0  0  0  0  0  0  0  0  0
  -19.4842  -30.0821   21.0548 C   0  0  0  0  0  0  0  0  0  0  0  0
  -30.7467  -13.6078   19.7357 C   0  0  0  0  0  0  0  0  0  0  0  0
  -28.8470  -12.1568   18.8898 C   0  0  0  0  0  0  0  0  0  0  0  0
  -24.3380  -12.8293   20.7474 C   0  0  0  0  0  0  0  0  0  0  0  0
  -28.3351  -14.2287   20.1218 C   0  0  0  0  0  0  0  0  0  0  0  0
  -25.9311  -14.6210   20.9403 C   0  0  0  0  0  0  0  0  0  0  0  0
  -19.9265  -29.3949   22.3523 C   0  0  1  0  0  0  0  0  0  0  0  0
  -23.6635  -28.7402   22.1532 C   0  0  1  0  0  0  0  0  0  0  0  0
  -23.8371  -13.8169   21.8011 C   0  0  1  0  0  0  0  0  0  0  0  0
  -29.7555  -14.2890   20.6989 C   0  0  2  0  0  0  0  0  0  0  0  0
  -24.5533  -15.1191   21.3979 C   0  0  1  0  0  0  0  0  0  0  0  0
  -25.6050  -17.1396   25.6979 C   0  0  0  0  0  0  0  0  0  0  0  0
  -29.5231  -29.0958   17.0993 C   0  0  0  0  0  0  0  0  0  0  0  0
  -22.9387  -28.5726   17.5917 C   0  0  0  0  0  0  0  0  0  0  0  0
  -25.0001  -28.4552   16.1756 C   0  0  0  0  0  0  0  0  0  0  0  0
  -24.3749  -30.5976   17.2900 C   0  0  0  0  0  0  0  0  0  0  0  0
  -29.7649  -28.2561   20.8024 C   0  0  0  0  0  0  0  0  0  0  0  0
  -24.8069  -21.6842   24.1048 C   0  0  0  0  0  0  0  0  0  1  0  0
  -22.3204  -13.9366   21.8171 C   0  0  0  0  0  0  0  0  0  0  0  0
  -25.2744  -28.6910   18.6857 C   0  0  1  0  0  0  0  0  0  0  0  0
  -29.0463  -29.0400   18.5423 C   0  0  2  0  0  0  0  0  0  0  0  0
  -24.3944  -29.0628   17.4589 C   0  0  0  0  0  0  0  0  0  0  0  0
  -29.6904  -16.7188   20.2861 N   0  0  0  0  0  0  0  0  0  0  0  0
  -25.2012  -15.9029   23.6484 N   0  0  0  0  0  0  0  0  0  0  0  0
  -24.1212  -19.3418   23.9834 N   0  0  0  0  0  0  0  0  0  0  0  0
  -24.6188  -16.1808   22.4695 N   0  0  0  0  0  0  0  0  0  0  0  0
  -30.1669  -15.7095   21.0348 N   0  0  0  0  0  0  0  0  0  0  0  0
  -24.3895  -28.2941   20.9623 N   0  0  0  0  0  0  0  0  0  0  0  0
  -27.9605  -12.8426   19.8276 N   0  0  0  0  0  0  0  0  0  0  0  0
  -25.6971  -13.2631   20.4379 N   0  0  0  0  0  0  0  0  0  0  0  0
  -31.5594  -15.2275   22.8893 N   0  0  0  0  0  0  0  0  0  0  0  0
  -31.7802  -19.7264   22.5622 N   0  0  0  0  0  0  0  0  0  0  0  0
  -21.3677  -29.4337   22.4789 N   0  0  0  0  0  0  0  0  0  0  0  0
  -26.6511  -29.1661   18.5995 N   0  0  0  0  0  0  0  0  0  0  0  0
  -21.7360  -12.6023   22.0732 N   0  3  0  0  0  0  0  0  0  0  0  0
  -30.0925  -28.3599   19.3571 N   0  3  0  0  0  0  0  0  0  0  0  0
  -32.5266  -17.9063   23.7407 O   0  0  0  0  0  0  0  0  0  0  0  0
  -21.8599  -27.5490   21.2030 O   0  0  0  0  0  0  0  0  0  0  0  0
  -24.5896  -30.4566   20.1140 O   0  0  0  0  0  0  0  0  0  0  0  0
  -27.6514  -27.0825   18.7867 O   0  0  0  0  0  0  0  0  0  0  0  0
  -26.4256  -11.1348   19.9465 O   0  0  0  0  0  0  0  0  0  0  0  0
  -29.1717  -22.8859   18.7875 O   0  0  0  0  0  0  0  0  0  0  0  0
  -24.8368  -22.4468   22.9150 O   0  0  0  0  0  0  0  0  0  1  0  0
  -33.4218  -26.3408   18.1513 F   0  0  0  0  0  0  0  0  0  0  0  0
  -29.8192  -23.8942   16.2962 F   0  0  0  0  0  0  0  0  0  0  0  0
  1  2  1  0  0  0  0
  1  5  2  0  0  0  0
  2  6  2  0  0  0  0
  3  8  2  0  0  0  0
  3 16  1  0  0  0  0
  4  9  1  0  0  0  0
  4 16  2  0  0  0  0
  5 18  1  0  0  0  0
  6 20  1  0  0  0  0
  7 10  2  0  0  0  0
  7 19  1  0  0  0  0
  8 23  1  0  0  0  0
  9 23  2  0  0  0  0
 10 24  1  0  0  0  0
 11 12  2  0  0  0  0
 11 25  1  0  0  0  0
 12 26  1  0  0  0  0
 13 21  1  0  0  0  0
 13 24  2  0  0  0  0
 14 26  2  0  0  0  0
 14 27  1  0  0  0  0
 15 22  2  0  0  0  0
 15 67  1  0  0  0  0
 16 28  1  0  0  0  0
 17 28  1  0  0  0  0
 17 30  2  0  0  0  0
 17 32  1  0  0  0  0
 18 20  2  0  0  0  0
 18 37  1  0  0  0  0
 19 21  2  0  0  0  0
 19 38  1  0  0  0  0
 20 48  1  0  0  0  0
 21 39  1  0  0  0  0
 22 29  1  0  0  0  0
 22 66  1  0  0  0  0
 23 83  1  0  0  0  0
 24 84  1  0  0  0  0
 25 27  2  0  0  0  0
 25 83  1  0  0  0  0
 26 85  1  0  0  0  0
 27 86  1  0  0  0  0
 28 64  2  0  0  0  0
 29 53  1  0  0  0  0
 29 65  2  0  0  0  0
 30 68  1  0  0  0  0
 30 72  1  0  0  0  0
 31 59  1  0  0  0  0
 31 66  2  0  0  0  0
 32 73  1  0  0  0  0
 32 78  2  0  0  0  0
 33 49  1  0  0  0  0
 33 74  1  0  0  0  0
 33 79  2  0  0  0  0
 34 61  1  0  0  0  0
 34 69  1  0  0  0  0
 34 80  2  0  0  0  0
 35 62  1  0  0  0  0
 35 75  1  0  0  0  0
 35 81  2  0  0  0  0
 36 70  1  0  0  0  0
 36 71  1  0  0  0  0
 36 82  2  0  0  0  0
 37 40  1  0  0  0  0
 38 49  1  0  0  0  0
 39 69  1  0  0  0  0
 40 42  1  0  0  0  0
 41 43  1  0  0  0  0
 41 44  1  0  0  0  0
 42 48  1  0  0  0  0
 43 51  1  0  0  0  0
 44 70  1  0  0  0  0
 45 50  1  0  0  0  0
 45 71  1  0  0  0  0
 46 51  1  0  0  0  0
 46 70  1  0  0  0  0
 47 52  1  0  0  0  0
 47 71  1  0  0  0  0
 48 74  1  0  0  0  0
 49 69  1  0  0  0  0
 50 52  1  0  0  0  0
 50 60  1  0  0  0  0
 51 68  1  0  0  0  0
 52 67  1  0  0  0  0
 54 62  1  0  0  0  0
 55 63  1  0  0  0  0
 56 63  1  0  0  0  0
 57 63  1  0  0  0  0
 58 77  1  0  0  0  0
 59 84  1  0  0  0  0
 60 76  1  0  0  0  0
 61 63  1  0  0  0  0
 61 75  1  0  0  0  0
 62 77  1  0  0  0  0
 64 68  1  0  0  0  0
 65 67  1  0  0  0  0
M  CHG  2  76   1  77   1
M  ISO  4  36 100  59 101  71 100  84 101
M  END
> <Batch ID>
0183

> <Smiles>
CNC(C)C(=O)NC(C(=O)N1Cc2cc([101O:1][101CH:1]=CNc3cn(C4C[100N:0]([100C:0](=O)N5CCCC(n6nc(-c7ccc(Oc8ccc(F)cc8F)cc7)c(C(N)=O)c6N)C5)CC4CN)nc3C)ccc2CC1C(=O)NC1CCCc2ccccc21)C(C)(C)C

> <Shape>
0.260

> <Color>
0.082

> <Negative vol penalty>
0.000

$$$$

  -OEChem-04052323073D

 84 93  0     1  0  0  0  0  0999 V2000
  -19.9688  -27.0454   31.0858 C   0  0  0  0  0  0  0  0  0  0  0  0
  -20.3230  -26.3253   29.9495 C   0  0  0  0  0  0  0  0  0  0  0  0
  -23.1368   -9.7750   19.9954 C   0  0  0  0  0  0  0  0  0  0  0  0
  -23.7162  -10.0148   22.3286 C   0  0  0  0  0  0  0  0  0  0  0  0
  -19.6741  -28.4044   30.9847 C   0  0  0  0  0  0  0  0  0  0  0  0
  -20.3816  -26.9635   28.7111 C   0  0  0  0  0  0  0  0  0  0  0  0
  -24.5246  -25.7189   26.0783 C   0  0  0  0  0  0  0  0  0  0  0  0
  -22.4081   -8.6239   20.2947 C   0  0  0  0  0  0  0  0  0  0  0  0
  -22.9875   -8.8637   22.6279 C   0  0  0  0  0  0  0  0  0  0  0  0
  -24.5216  -24.4830   25.4331 C   0  0  0  0  0  0  0  0  0  0  0  0
  -23.4129   -5.5171   22.4033 C   0  0  0  0  0  0  0  0  0  0  0  0
  -23.9991   -4.5827   23.2569 C   0  0  0  0  0  0  0  0  0  0  0  0
  -23.9787  -25.5771   23.3528 C   0  0  0  0  0  0  0  0  0  0  0  0
  -22.1664   -4.8500   24.8083 C   0  0  0  0  0  0  0  0  0  0  0  0
  -27.3664  -22.3995   22.1915 C   0  0  0  0  0  0  0  0  0  0  0  0
  -23.7909  -10.4704   21.0124 C   0  0  0  0  0  0  0  0  0  0  0  0
  -24.0707  -12.9849   20.6854 C   0  0  0  0  0  0  0  0  0  0  0  0
  -19.7385  -29.0618   29.7461 C   0  0  0  0  0  0  0  0  0  0  0  0
  -24.2435  -26.8941   25.3666 C   0  0  0  0  0  0  0  0  0  0  0  0
  -20.0862  -28.3323   28.5931 C   0  0  0  0  0  0  0  0  0  0  0  0
  -23.9813  -26.8270   23.9908 C   0  0  0  0  0  0  0  0  0  0  0  0
  -22.3334   -8.1682   21.6109 C   0  0  0  0  0  0  0  0  0  0  0  0
  -24.2457  -24.4117   24.0707 C   0  0  0  0  0  0  0  0  0  0  0  0
  -22.2034   -6.1182   22.7522 C   0  0  0  0  0  0  0  0  0  0  0  0
  -23.3759   -4.2490   24.4593 C   0  0  0  0  0  0  0  0  0  0  0  0
  -21.5802   -5.7845   23.9547 C   0  0  0  0  0  0  0  0  0  0  0  0
  -24.5443  -11.6593   20.7038 C   0  0  0  0  0  0  0  0  0  0  0  0
  -25.1665  -13.7361   20.3369 C   0  0  0  0  0  0  0  0  0  0  0  0
  -25.4335  -22.7623   22.8912 C   0  0  0  0  0  0  0  0  0  1  0  0
  -22.7578  -13.4918   20.9588 C   0  0  0  0  0  0  0  0  0  0  0  0
  -21.9883  -29.1284   25.5270 C   0  0  0  0  0  0  0  0  0  0  0  0
  -23.8131  -30.5797   23.2717 C   0  0  0  0  0  0  0  0  0  0  0  0
  -26.1355  -30.2777   20.7893 C   0  0  0  0  0  0  0  0  0  0  0  0
  -30.5887  -14.9579   20.8390 C   0  0  0  0  0  0  0  0  0  0  0  0
  -19.3652  -30.5215   29.6786 C   0  0  0  0  0  0  0  0  0  0  0  0
  -24.2770  -28.2222   26.0718 C   0  0  0  0  0  0  0  0  0  0  0  0
  -23.6932  -28.0613   23.1773 C   0  0  0  0  0  0  0  0  0  0  0  0
  -19.8149  -31.2063   28.3906 C   0  0  0  0  0  0  0  0  0  0  0  0
  -29.7062  -12.3301   18.6046 C   0  0  0  0  0  0  0  0  0  0  0  0
  -19.4653  -30.3476   27.1793 C   0  0  0  0  0  0  0  0  0  0  0  0
  -28.2482  -12.0268   18.9544 C   0  0  0  0  0  0  0  0  0  0  0  0
  -30.5210  -12.6899   19.8451 C   0  0  0  0  0  0  0  0  0  0  0  0
  -28.4980  -13.4763   21.0123 C   0  0  0  0  0  0  0  0  0  0  0  0
  -28.3924  -19.1234   19.3246 C   0  0  0  0  0  0  0  0  0  0  0  0
  -28.2153  -19.3703   21.7568 C   0  0  0  0  0  0  0  0  0  0  0  0
  -20.1850  -28.9947   27.2360 C   0  0  1  0  0  0  0  0  0  0  0  0
  -23.4709  -29.3004   25.3540 C   0  0  1  0  0  0  0  0  0  0  0  0
  -27.7027  -20.4346   19.6920 C   0  0  2  0  0  0  0  0  0  0  0  0
  -27.6232  -13.1626   19.7865 C   0  0  2  0  0  0  0  0  0  0  0  0
  -27.0873  -20.1303   21.0646 C   0  0  2  0  0  0  0  0  0  0  0  0
  -26.6845  -20.8660   18.6470 C   0  0  0  0  0  0  0  0  0  0  0  0
  -27.4026  -31.6353   19.1015 C   0  0  0  0  0  0  0  0  0  0  0  0
  -21.3069  -30.7629   21.5411 C   0  0  0  0  0  0  0  0  0  0  0  0
  -22.7839  -31.2280   19.5737 C   0  0  0  0  0  0  0  0  0  0  0  0
  -22.7502  -32.8049   21.5063 C   0  0  0  0  0  0  0  0  0  0  0  0
  -28.7429  -29.5272   21.9714 C   0  0  0  0  0  0  0  0  0  0  0  0
  -30.4987  -17.2121   21.8733 C   0  0  0  0  0  0  0  0  0  0  0  0
  -30.2600  -18.2538   20.7963 C   0  0  0  0  0  0  0  0  0  0  0  0
  -23.8706  -30.5531   21.7634 C   0  0  1  0  0  0  0  0  0  0  0  0
  -27.4117  -31.0489   20.5047 C   0  0  2  0  0  0  0  0  0  0  0  0
  -22.6814  -31.3136   21.1116 C   0  0  0  0  0  0  0  0  0  0  0  0
  -26.6217  -23.3203   22.8713 N   0  0  0  0  0  0  0  0  0  0  0  0
  -25.8399  -11.5702   20.3918 N   0  0  0  0  0  0  0  0  0  0  0  0
  -25.4798  -21.5640   22.2494 N   0  0  0  0  0  0  0  0  0  0  0  0
  -26.7138  -21.3068   21.7894 N   0  0  0  0  0  0  0  0  0  0  0  0
  -26.1898  -12.8493   20.1738 N   0  0  0  0  0  0  0  0  0  0  0  0
  -23.7314  -29.3358   23.9134 N   0  0  0  0  0  0  0  0  0  0  0  0
  -29.8751  -13.7742   20.5886 N   0  0  0  0  0  0  0  0  0  0  0  0
  -25.3449  -15.0621   20.1570 N   0  0  0  0  0  0  0  0  0  0  0  0
  -21.7484  -12.5821   21.3022 N   0  0  0  0  0  0  0  0  0  0  0  0
  -21.5702  -29.1422   26.8440 N   0  0  0  0  0  0  0  0  0  0  0  0
  -25.1842  -31.0705   21.3958 N   0  0  0  0  0  0  0  0  0  0  0  0
  -29.9005  -15.9374   21.5445 N   0  0  0  0  0  0  0  0  0  0  0  0
  -28.7928  -18.5067   20.6531 N   0  3  2  0  0  0  0  0  0  0  0  0
  -28.5968  -30.1545   20.6326 N   0  3  0  0  0  0  0  0  0  0  0  0
  -22.4837  -14.7137   20.8844 O   0  0  0  0  0  0  0  0  0  0  0  0
  -21.2762  -28.9946   24.5387 O   0  0  0  0  0  0  0  0  0  0  0  0
  -23.8468  -31.6638   23.8592 O   0  0  0  0  0  0  0  0  0  0  0  0
  -25.9951  -29.0917   20.4991 O   0  0  0  0  0  0  0  0  0  0  0  0
  -31.7511  -15.1312   20.4572 O   0  0  0  0  0  0  0  0  0  0  0  0
  -21.6223   -7.0452   21.9033 O   0  0  0  0  0  0  0  0  0  0  0  0
  -24.2415  -23.2065   23.4386 O   0  0  0  0  0  0  0  0  0  1  0  0
  -23.9382   -3.3505   25.2782 F   0  0  0  0  0  0  0  0  0  0  0  0
  -20.4176   -6.3577   24.2947 F   0  0  0  0  0  0  0  0  0  0  0  0
  1  2  1  0  0  0  0
  1  5  2  0  0  0  0
  2  6  2  0  0  0  0
  3  8  2  0  0  0  0
  3 16  1  0  0  0  0
  4  9  1  0  0  0  0
  4 16  2  0  0  0  0
  5 18  1  0  0  0  0
  6 20  1  0  0  0  0
  7 10  2  0  0  0  0
  7 19  1  0  0  0  0
  8 22  1  0  0  0  0
  9 22  2  0  0  0  0
 10 23  1  0  0  0  0
 11 12  2  0  0  0  0
 11 24  1  0  0  0  0
 12 25  1  0  0  0  0
 13 21  1  0  0  0  0
 13 23  2  0  0  0  0
 14 25  2  0  0  0  0
 14 26  1  0  0  0  0
 15 62  2  0  0  0  0
 15 65  1  0  0  0  0
 16 27  1  0  0  0  0
 17 27  1  0  0  0  0
 17 28  2  0  0  0  0
 17 30  1  0  0  0  0
 18 20  2  0  0  0  0
 18 35  1  0  0  0  0
 19 21  2  0  0  0  0
 19 36  1  0  0  0  0
 20 46  1  0  0  0  0
 21 37  1  0  0  0  0
 22 81  1  0  0  0  0
 23 82  1  0  0  0  0
 24 26  2  0  0  0  0
 24 81  1  0  0  0  0
 25 83  1  0  0  0  0
 26 84  1  0  0  0  0
 27 63  2  0  0  0  0
 28 66  1  0  0  0  0
 28 69  1  0  0  0  0
 29 62  1  0  0  0  0
 29 64  2  0  0  0  0
 29 82  1  0  0  0  0
 30 70  1  0  0  0  0
 30 76  2  0  0  0  0
 31 47  1  0  0  0  0
 31 71  1  0  0  0  0
 31 77  2  0  0  0  0
 32 59  1  0  0  0  0
 32 67  1  0  0  0  0
 32 78  2  0  0  0  0
 33 60  1  0  0  0  0
 33 72  1  0  0  0  0
 33 79  2  0  0  0  0
 34 68  1  0  0  0  0
 34 73  1  0  0  0  0
 34 80  2  0  0  0  0
 35 38  1  0  0  0  0
 36 47  1  0  0  0  0
 37 67  1  0  0  0  0
 38 40  1  0  0  0  0
 39 41  1  0  0  0  0
 39 42  1  0  0  0  0
 40 46  1  0  0  0  0
 41 49  1  0  0  0  0
 42 68  1  0  0  0  0
 43 49  1  0  0  0  0
 43 68  1  0  0  0  0
 44 48  1  0  0  0  0
 44 74  1  0  0  0  0
 45 50  1  0  0  0  0
 45 74  1  0  0  0  0
 46 71  1  0  0  0  0
 47 67  1  0  0  0  0
 48 50  1  0  0  0  0
 48 51  1  0  0  0  0
 49 66  1  0  0  0  0
 50 65  1  0  0  0  0
 52 60  1  0  0  0  0
 53 61  1  0  0  0  0
 54 61  1  0  0  0  0
 55 61  1  0  0  0  0
 56 75  1  0  0  0  0
 57 58  1  0  0  0  0
 57 73  1  0  0  0  0
 58 74  1  0  0  0  0
 59 61  1  0  0  0  0
 59 72  1  0  0  0  0
 60 75  1  0  0  0  0
 63 66  1  0  0  0  0
 64 65  1  0  0  0  0
M  CHG  2  74   1  75   1
M  ISO  4  29 101  34 100  73 100  82 101
M  END
> <Batch ID>
0183

> <Smiles>
CNC(C)C(=O)NC(C(=O)N1Cc2cc([101O:1][101c:1]3ncn(C4CN(CC[100NH:0][100C:0](=O)N5CCCC(n6nc(-c7ccc(Oc8ccc(F)cc8F)cc7)c(C(N)=O)c6N)C5)CC4C)n3)ccc2CC1C(=O)NC1CCCc2ccccc21)C(C)(C)C

> <Shape>
0.276

> <Color>
0.193

> <Negative vol penalty>
0.000

$$$$

  -OEChem-04052323073D

 82 91  0     1  0  0  0  0  0999 V2000
  -28.5627  -32.6099   24.1676 C   0  0  0  0  0  0  0  0  0  0  0  0
  -27.4816  -31.7865   23.8698 C   0  0  0  0  0  0  0  0  0  0  0  0
  -23.3625  -14.1336   20.9089 C   0  0  0  0  0  0  0  0  0  0  0  0
  -25.2246  -15.6726   20.8722 C   0  0  0  0  0  0  0  0  0  0  0  0
  -29.7809  -32.4218   23.5161 C   0  0  0  0  0  0  0  0  0  0  0  0
  -27.6179  -30.7751   22.9195 C   0  0  0  0  0  0  0  0  0  0  0  0
  -25.5821  -26.3943   24.4391 C   0  0  0  0  0  0  0  0  0  0  0  0
  -24.2512  -13.0591   20.9442 C   0  0  0  0  0  0  0  0  0  0  0  0
  -26.1133  -14.5981   20.9075 C   0  0  0  0  0  0  0  0  0  0  0  0
  -24.1955  -26.2743   24.3575 C   0  0  0  0  0  0  0  0  0  0  0  0
  -27.3660  -12.3287   18.7369 C   0  0  0  0  0  0  0  0  0  0  0  0
  -28.4550  -12.3595   17.8658 C   0  0  0  0  0  0  0  0  0  0  0  0
  -24.4303  -25.0276   22.3057 C   0  0  0  0  0  0  0  0  0  0  0  0
  -29.9647  -12.2815   19.7505 C   0  0  0  0  0  0  0  0  0  0  0  0
  -20.8600  -24.6926   20.4256 C   0  0  0  0  0  0  0  0  0  0  0  0
  -19.7875  -26.0844   19.0956 C   0  0  0  0  0  0  0  0  0  0  0  0
  -23.8492  -15.4404   20.8728 C   0  0  0  0  0  0  0  0  0  0  0  0
  -22.3849  -17.2388   21.9355 C   0  0  0  0  0  0  0  0  0  0  0  0
  -29.9350  -31.4015   22.5643 C   0  0  0  0  0  0  0  0  0  0  0  0
  -26.4041  -25.8403   23.4473 C   0  0  0  0  0  0  0  0  0  0  0  0
  -28.8389  -30.5741   22.2537 C   0  0  0  0  0  0  0  0  0  0  0  0
  -25.8271  -25.1398   22.3784 C   0  0  0  0  0  0  0  0  0  0  0  0
  -25.6266  -13.2913   20.9435 C   0  0  0  0  0  0  0  0  0  0  0  0
  -23.6192  -25.5934   23.2891 C   0  0  0  0  0  0  0  0  0  0  0  0
  -27.5763  -12.2744   20.1148 C   0  0  0  0  0  0  0  0  0  0  0  0
  -29.7543  -12.3359   18.3726 C   0  0  0  0  0  0  0  0  0  0  0  0
  -28.8756  -12.2508   20.6216 C   0  0  0  0  0  0  0  0  0  0  0  0
  -22.9317  -16.5507   20.8358 C   0  0  0  0  0  0  0  0  0  0  0  0
  -20.5852  -24.1143   19.2088 C   0  0  0  0  0  0  0  0  0  0  0  0
  -21.5806  -18.1999   21.3738 C   0  0  0  0  0  0  0  0  0  0  0  0
  -22.5862  -17.0279   23.3393 C   0  0  0  0  0  0  0  0  0  0  0  0
  -28.4877  -27.0086   21.3502 C   0  0  0  0  0  0  0  0  0  0  0  0
  -29.0432  -23.8709   20.7427 C   0  0  0  0  0  0  0  0  0  0  0  0
  -27.8974  -20.6573   20.8230 C   0  0  0  0  0  0  0  0  0  0  0  0
  -20.6636  -22.1832   17.5929 C   0  0  0  0  0  0  0  0  0  0  0  0
  -31.2575  -31.2670   21.8519 C   0  0  0  0  0  0  0  0  0  0  0  0
  -27.8993  -25.9555   23.5640 C   0  0  0  0  0  0  0  0  0  0  0  0
  -26.6664  -24.5093   21.2983 C   0  0  0  0  0  0  0  0  0  0  0  0
  -31.4275  -29.9328   21.1299 C   0  0  0  0  0  0  0  0  0  0  0  0
  -20.0403  -18.8235   16.5925 C   0  0  0  0  0  0  0  0  0  0  0  0
  -30.1740  -29.5959   20.3285 C   0  0  0  0  0  0  0  0  0  0  0  0
  -20.6920  -17.9893   17.6977 C   0  0  0  0  0  0  0  0  0  0  0  0
  -19.1674  -28.0213   21.6709 C   0  0  0  0  0  0  0  0  0  0  0  0
  -19.4823  -28.0279   23.1775 C   0  0  0  0  0  0  0  0  0  0  0  0
  -20.8487  -20.0815   16.2800 C   0  0  0  0  0  0  0  0  0  0  0  0
  -21.8125  -20.0893   18.5472 C   0  0  0  0  0  0  0  0  0  0  0  0
  -28.9546  -29.4503   21.2468 C   0  0  1  0  0  0  0  0  0  0  0  0
  -28.6170  -25.7955   22.2273 C   0  0  1  0  0  0  0  0  0  0  0  0
  -21.0004  -18.8450   18.9420 C   0  0  2  0  0  0  0  0  0  0  0  0
  -20.3815  -27.0681   21.4720 C   0  0  1  0  0  0  0  0  0  0  0  0
  -20.1852  -26.6513   22.9839 C   0  0  2  0  0  0  0  0  0  0  0  0
  -19.2605  -25.4619   23.2583 C   0  0  0  0  0  0  0  0  0  0  0  0
  -28.5629  -18.3131   20.2238 C   0  0  0  0  0  0  0  0  0  0  0  0
  -28.5166  -24.4766   17.7989 C   0  0  0  0  0  0  0  0  0  0  0  0
  -28.2546  -22.0170   17.4117 C   0  0  0  0  0  0  0  0  0  0  0  0
  -30.4332  -22.9257   18.2183 C   0  0  0  0  0  0  0  0  0  0  0  0
  -27.6964  -19.7575   23.6353 C   0  0  0  0  0  0  0  0  0  0  0  0
  -21.4865  -26.5276   23.7738 C   0  0  0  0  0  0  0  0  0  1  0  0
  -28.4621  -22.8454   19.7995 C   0  0  1  0  0  0  0  0  0  0  0  0
  -28.5373  -19.3717   21.3153 C   0  0  2  0  0  0  0  0  0  0  0  0
  -28.9005  -23.0796   18.3263 C   0  0  0  0  0  0  0  0  0  0  0  0
  -19.9177  -24.9860   18.3853 N   0  0  0  0  0  0  0  0  0  0  0  0
  -22.5101  -17.0336   19.6640 N   0  0  0  0  0  0  0  0  0  0  0  0
  -20.3433  -25.9545   20.3379 N   0  0  0  0  0  0  0  0  0  0  0  0
  -21.6899  -18.0354   20.0243 N   0  0  0  0  0  0  0  0  0  0  0  0
  -28.1232  -24.6545   21.4536 N   0  0  0  0  0  0  0  0  0  0  0  0
  -21.0989  -20.8440   17.5052 N   0  0  0  0  0  0  0  0  0  0  0  0
  -20.7974  -19.1613   21.9075 N   0  0  0  0  0  0  0  0  0  0  0  0
  -23.4453  -15.9970   23.7437 N   0  0  0  0  0  0  0  0  0  0  0  0
  -20.9281  -22.7964   18.8171 N   0  0  0  0  0  0  0  0  0  0  0  0
  -28.9781  -28.1687   21.9187 N   0  0  0  0  0  0  0  0  0  0  0  0
  -28.8365  -21.5407   20.3341 N   0  0  0  0  0  0  0  0  0  0  0  0
  -27.7807  -18.8289   22.4788 N   0  3  0  0  0  0  0  0  0  0  0  0
  -22.0083  -17.7223   24.2096 O   0  0  0  0  0  0  0  0  0  0  0  0
  -27.9819  -26.8998   20.2393 O   0  0  0  0  0  0  0  0  0  0  0  0
  -30.2682  -23.9681   20.8502 O   0  0  0  0  0  0  0  0  0  0  0  0
  -26.6853  -20.8563   20.8644 O   0  0  0  0  0  0  0  0  0  0  0  0
  -20.0737  -22.7362   16.6611 O   0  0  0  0  0  0  0  0  0  0  0  0
  -26.4941  -12.2431   20.9782 O   0  0  0  0  0  0  0  0  0  0  0  0
  -22.2660  -25.4754   23.2067 O   0  0  0  0  0  0  0  0  0  1  0  0
  -30.8000  -12.3639   17.5360 F   0  0  0  0  0  0  0  0  0  0  0  0
  -29.0840  -12.1974   21.9443 F   0  0  0  0  0  0  0  0  0  0  0  0
  1  2  1  0  0  0  0
  1  5  2  0  0  0  0
  2  6  2  0  0  0  0
  3  8  2  0  0  0  0
  3 17  1  0  0  0  0
  4  9  1  0  0  0  0
  4 17  2  0  0  0  0
  5 19  1  0  0  0  0
  6 21  1  0  0  0  0
  7 10  2  0  0  0  0
  7 20  1  0  0  0  0
  8 23  1  0  0  0  0
  9 23  2  0  0  0  0
 10 24  1  0  0  0  0
 11 12  2  0  0  0  0
 11 25  1  0  0  0  0
 12 26  1  0  0  0  0
 13 22  1  0  0  0  0
 13 24  2  0  0  0  0
 14 26  2  0  0  0  0
 14 27  1  0  0  0  0
 15 29  2  0  0  0  0
 15 64  1  0  0  0  0
 16 62  2  0  0  0  0
 16 64  1  0  0  0  0
 17 28  1  0  0  0  0
 18 28  1  0  0  0  0
 18 30  2  0  0  0  0
 18 31  1  0  0  0  0
 19 21  2  0  0  0  0
 19 36  1  0  0  0  0
 20 22  2  0  0  0  0
 20 37  1  0  0  0  0
 21 47  1  0  0  0  0
 22 38  1  0  0  0  0
 23 79  1  0  0  0  0
 24 80  1  0  0  0  0
 25 27  2  0  0  0  0
 25 79  1  0  0  0  0
 26 81  1  0  0  0  0
 27 82  1  0  0  0  0
 28 63  2  0  0  0  0
 29 62  1  0  0  0  0
 29 70  1  0  0  0  0
 30 65  1  0  0  0  0
 30 68  1  0  0  0  0
 31 69  1  0  0  0  0
 31 74  2  0  0  0  0
 32 48  1  0  0  0  0
 32 71  1  0  0  0  0
 32 75  2  0  0  0  0
 33 59  1  0  0  0  0
 33 66  1  0  0  0  0
 33 76  2  0  0  0  0
 34 60  1  0  0  0  0
 34 72  1  0  0  0  0
 34 77  2  0  0  0  0
 35 67  1  0  0  0  0
 35 70  1  0  0  0  0
 35 78  2  0  0  0  0
 36 39  1  0  0  0  0
 37 48  1  0  0  0  0
 38 66  1  0  0  0  0
 39 41  1  0  0  0  0
 40 42  1  0  0  0  0
 40 45  1  0  0  0  0
 41 47  1  0  0  0  0
 42 49  1  0  0  0  0
 43 44  1  0  0  0  0
 43 50  1  0  0  0  0
 44 51  1  0  0  0  0
 45 67  1  0  0  0  0
 46 49  1  0  0  0  0
 46 67  1  0  0  0  0
 47 71  1  0  0  0  0
 48 66  1  0  0  0  0
 49 65  1  0  0  0  0
 50 51  1  0  0  0  0
 50 64  1  0  0  0  0
 51 52  1  0  0  0  0
 51 58  1  0  0  0  0
 53 60  1  0  0  0  0
 54 61  1  0  0  0  0
 55 61  1  0  0  0  0
 56 61  1  0  0  0  0
 57 73  1  0  0  0  0
 58 80  1  0  0  0  0
 59 61  1  0  0  0  0
 59 72  1  0  0  0  0
 60 73  1  0  0  0  0
 63 65  1  0  0  0  0
M  CHG  1  73   1
M  ISO  4  35 100  58 101  70 100  80 101
M  END
> <Batch ID>
0183

> <Smiles>
CNC(C)C(=O)NC(C(=O)N1Cc2cc([101O:1][101CH2:1]C3(C)CCC3n3cnc([100NH:0][100C:0](=O)N4CCCC(n5nc(-c6ccc(Oc7ccc(F)cc7F)cc6)c(C(N)=O)c5N)C4)c3)ccc2CC1C(=O)NC1CCCc2ccccc21)C(C)(C)C

> <Shape>
0.205

> <Color>
0.049

> <Negative vol penalty>
0.000

$$$$

  -OEChem-04052323073D

 87 96  0     1  0  0  0  0  0999 V2000
  -30.5595  -13.7195   19.1854 C   0  0  0  0  0  0  0  0  0  0  0  0
  -30.1207  -14.9985   19.5127 C   0  0  0  0  0  0  0  0  0  0  0  0
  -28.1442  -24.8841   23.0112 C   0  0  0  0  0  0  0  0  0  0  0  0
  -29.8798  -26.3506   22.1902 C   0  0  0  0  0  0  0  0  0  0  0  0
  -29.6368  -12.7377   18.8267 C   0  0  0  0  0  0  0  0  0  0  0  0
  -28.7589  -15.2967   19.4804 C   0  0  0  0  0  0  0  0  0  0  0  0
  -25.6951  -19.1151   23.2790 C   0  0  0  0  0  0  0  0  0  0  0  0
  -28.9243  -23.7760   22.6811 C   0  0  0  0  0  0  0  0  0  0  0  0
  -30.6600  -25.2425   21.8601 C   0  0  0  0  0  0  0  0  0  0  0  0
  -25.2702  -20.4382   23.1674 C   0  0  0  0  0  0  0  0  0  0  0  0
  -30.3102  -20.5533   21.7233 C   0  0  0  0  0  0  0  0  0  0  0  0
  -29.6858  -19.4892   21.0727 C   0  0  0  0  0  0  0  0  0  0  0  0
  -21.5136  -27.1187   20.5999 C   0  0  0  0  0  0  0  0  0  0  0  0
  -20.7633  -27.3512   23.2768 C   0  0  0  0  0  0  0  0  0  0  0  0
  -23.1134  -19.6747   22.4033 C   0  0  0  0  0  0  0  0  0  0  0  0
  -29.0866  -20.9561   19.2488 C   0  0  0  0  0  0  0  0  0  0  0  0
  -28.6219  -26.1715   22.7657 C   0  0  0  0  0  0  0  0  0  0  0  0
  -21.6310  -28.3455   21.2531 C   0  0  0  0  0  0  0  0  0  0  0  0
  -27.8046  -28.0149   24.3282 C   0  0  0  0  0  0  0  0  0  0  0  0
  -28.2622  -13.0214   18.7994 C   0  0  0  0  0  0  0  0  0  0  0  0
  -24.8346  -18.0598   22.9432 C   0  0  0  0  0  0  0  0  0  0  0  0
  -27.8171  -14.3182   19.1198 C   0  0  0  0  0  0  0  0  0  0  0  0
  -20.6459  -26.1243   22.6236 C   0  0  0  0  0  0  0  0  0  0  0  0
  -23.5283  -18.3391   22.5162 C   0  0  0  0  0  0  0  0  0  0  0  0
  -21.0210  -26.0081   21.2852 C   0  0  0  0  0  0  0  0  0  0  0  0
  -21.2558  -28.4617   22.5915 C   0  0  0  0  0  0  0  0  0  0  0  0
  -30.1823  -23.9551   22.1056 C   0  0  0  0  0  0  0  0  0  0  0  0
  -23.9799  -20.7182   22.7273 C   0  0  0  0  0  0  0  0  0  0  0  0
  -30.3228  -21.8188   21.1367 C   0  0  0  0  0  0  0  0  0  0  0  0
  -29.0739  -19.6906   19.8354 C   0  0  0  0  0  0  0  0  0  0  0  0
  -29.7110  -22.0202   19.8995 C   0  0  0  0  0  0  0  0  0  0  0  0
  -27.8162  -27.3166   23.1059 C   0  0  0  0  0  0  0  0  0  0  0  0
  -26.8773  -29.0115   24.1454 C   0  0  0  0  0  0  0  0  0  0  0  0
  -22.1517  -29.4988   20.5077 C   0  0  0  0  0  0  0  0  0  0  0  0
  -28.5642  -27.7835   25.5220 C   0  0  0  0  0  0  0  0  0  0  0  0
  -24.8267  -15.6581   20.8273 C   0  0  0  0  0  0  0  0  0  0  0  0
  -22.0788  -14.8646   22.5221 C   0  0  0  0  0  0  0  0  0  0  0  0
  -22.0961  -11.8024   21.0180 C   0  0  0  0  0  0  0  0  0  0  0  0
  -27.3065  -11.9407   18.3596 C   0  0  0  0  0  0  0  0  0  0  0  0
  -25.3027  -16.6383   23.0997 C   0  0  0  0  0  0  0  0  0  0  0  0
  -22.5659  -17.2425   22.1476 C   0  0  0  0  0  0  0  0  0  0  0  0
  -25.8508  -12.2342   18.7130 C   0  0  0  0  0  0  0  0  0  0  0  0
  -24.9209  -31.7397   20.7343 C   0  0  0  0  0  0  0  0  0  0  0  0
  -25.4897  -13.6686   18.3404 C   0  0  0  0  0  0  0  0  0  0  0  0
  -25.9851  -30.9197   21.4658 C   0  0  0  0  0  0  0  0  0  0  0  0
  -24.0827  -30.8702   19.8005 C   0  0  0  0  0  0  0  0  0  0  0  0
  -18.6857  -25.1236   23.9200 C   0  0  0  0  0  0  0  0  0  0  0  0
  -24.5283  -28.8709   21.1820 C   0  0  0  0  0  0  0  0  0  0  0  0
  -19.8563  -24.0373   25.6397 C   0  0  0  0  0  0  0  0  0  0  0  0
  -20.1079  -24.9357   23.3852 C   0  0  2  0  0  0  0  0  0  0  0  0
  -26.3460  -14.6735   19.1205 C   0  0  1  0  0  0  0  0  0  0  0  0
  -24.4850  -15.6340   22.2902 C   0  0  1  0  0  0  0  0  0  0  0  0
  -25.3622  -29.7007   22.1719 C   0  0  1  0  0  0  0  0  0  0  0  0
  -20.8921  -24.5814   24.6549 C   0  0  2  0  0  0  0  0  0  0  0  0
  -20.9069  -24.7042   20.5660 C   0  0  0  0  0  0  0  0  0  0  0  0
  -21.3676  -29.7647   23.3141 C   0  0  0  0  0  0  0  0  0  0  0  0
  -20.9731   -9.5598   21.1027 C   0  0  0  0  0  0  0  0  0  0  0  0
  -23.6769  -14.1625   25.0239 C   0  0  0  0  0  0  0  0  0  0  0  0
  -23.2825  -11.7438   24.5113 C   0  0  0  0  0  0  0  0  0  0  0  0
  -21.3493  -13.2486   24.9818 C   0  0  0  0  0  0  0  0  0  0  0  0
  -17.4274  -24.1301   25.7465 C   0  0  0  0  0  0  0  0  0  0  0  0
  -21.1019  -12.0661   18.2429 C   0  0  0  0  0  0  0  0  0  0  0  0
  -23.1627  -24.0930   23.7489 C   0  0  0  0  0  0  0  0  0  0  0  0
  -24.1382  -22.9561   23.5166 C   0  0  0  0  0  0  0  0  0  1  0  0
  -22.5869  -13.4696   22.7883 C   0  0  1  0  0  0  0  0  0  0  0  0
  -20.9713  -10.9427   20.4700 C   0  0  2  0  0  0  0  0  0  0  0  0
  -22.7364  -13.1731   24.3072 C   0  0  0  0  0  0  0  0  0  0  0  0
  -26.9638  -27.8262   22.2127 N   0  0  0  0  0  0  0  0  0  0  0  0
  -26.4078  -28.8553   22.8744 N   0  0  0  0  0  0  0  0  0  0  0  0
  -23.5306  -29.7224   20.5190 N   0  0  0  0  0  0  0  0  0  0  0  0
  -23.0406  -15.8753   22.3976 N   0  0  0  0  0  0  0  0  0  0  0  0
  -18.5964  -24.0270   24.8870 N   0  0  1  0  0  0  0  0  0  0  0  0
  -26.4257  -29.9973   24.9496 N   0  0  0  0  0  0  0  0  0  0  0  0
  -29.4729  -26.7166   25.5394 N   0  0  0  0  0  0  0  0  0  0  0  0
  -25.8581  -14.8080   20.4763 N   0  0  0  0  0  0  0  0  0  0  0  0
  -21.6808  -12.5648   22.0892 N   0  0  0  0  0  0  0  0  0  0  0  0
  -21.9176  -23.5549   24.3525 N   0  3  0  0  0  0  0  0  0  0  0  0
  -21.1117  -10.7848   18.9948 N   0  3  0  0  0  0  0  0  0  0  0  0
  -21.3172  -30.1956   19.9323 O   0  0  0  0  0  0  0  0  0  0  0  0
  -28.4289  -28.4915   26.5486 O   0  0  0  0  0  0  0  0  0  0  0  0
  -24.2001  -16.3924   20.0725 O   0  0  0  0  0  0  0  0  0  0  0  0
  -20.8628  -15.0568   22.4342 O   0  0  0  0  0  0  0  0  0  0  0  0
  -23.2307  -11.7952   20.5457 O   0  0  0  0  0  0  0  0  0  0  0  0
  -30.9439  -22.8741   21.7836 O   0  0  0  0  0  0  0  0  0  0  0  0
  -23.5624  -22.0089   22.6180 O   0  0  0  0  0  0  0  0  0  1  0  0
  -28.4756  -18.6683   19.2100 F   0  0  0  0  0  0  0  0  0  0  0  0
  -29.7209  -23.2334   19.3305 F   0  0  0  0  0  0  0  0  0  0  0  0
  1  2  1  0  0  0  0
  1  5  2  0  0  0  0
  2  6  2  0  0  0  0
  3  8  2  0  0  0  0
  3 17  1  0  0  0  0
  4  9  1  0  0  0  0
  4 17  2  0  0  0  0
  5 20  1  0  0  0  0
  6 22  1  0  0  0  0
  7 10  2  0  0  0  0
  7 21  1  0  0  0  0
  8 27  1  0  0  0  0
  9 27  2  0  0  0  0
 10 28  1  0  0  0  0
 11 12  2  0  0  0  0
 11 29  1  0  0  0  0
 12 30  1  0  0  0  0
 13 18  2  0  0  0  0
 13 25  1  0  0  0  0
 14 23  1  0  0  0  0
 14 26  2  0  0  0  0
 15 24  1  0  0  0  0
 15 28  2  0  0  0  0
 16 30  2  0  0  0  0
 16 31  1  0  0  0  0
 17 32  1  0  0  0  0
 18 26  1  0  0  0  0
 18 34  1  0  0  0  0
 19 32  1  0  0  0  0
 19 33  2  0  0  0  0
 19 35  1  0  0  0  0
 20 22  2  0  0  0  0
 20 39  1  0  0  0  0
 21 24  2  0  0  0  0
 21 40  1  0  0  0  0
 22 51  1  0  0  0  0
 23 25  2  0  0  0  0
 23 50  1  0  0  0  0
 24 41  1  0  0  0  0
 25 55  1  0  0  0  0
 26 56  1  0  0  0  0
 27 84  1  0  0  0  0
 28 85  1  0  0  0  0
 29 31  2  0  0  0  0
 29 84  1  0  0  0  0
 30 86  1  0  0  0  0
 31 87  1  0  0  0  0
 32 68  2  0  0  0  0
 33 69  1  0  0  0  0
 33 73  1  0  0  0  0
 34 70  1  0  0  0  0
 34 79  2  0  0  0  0
 35 74  1  0  0  0  0
 35 80  2  0  0  0  0
 36 52  1  0  0  0  0
 36 75  1  0  0  0  0
 36 81  2  0  0  0  0
 37 65  1  0  0  0  0
 37 71  1  0  0  0  0
 37 82  2  0  0  0  0
 38 66  1  0  0  0  0
 38 76  1  0  0  0  0
 38 83  2  0  0  0  0
 39 42  1  0  0  0  0
 40 52  1  0  0  0  0
 41 71  1  0  0  0  0
 42 44  1  0  0  0  0
 43 45  1  0  0  0  0
 43 46  1  0  0  0  0
 44 51  1  0  0  0  0
 45 53  1  0  0  0  0
 46 70  1  0  0  0  0
 47 50  1  0  0  0  0
 47 72  1  0  0  0  0
 48 53  1  0  0  0  0
 48 70  1  0  0  0  0
 49 54  1  0  0  0  0
 49 72  1  0  0  0  0
 50 54  1  0  0  0  0
 51 75  1  0  0  0  0
 52 71  1  0  0  0  0
 53 69  1  0  0  0  0
 54 77  1  0  0  0  0
 57 66  1  0  0  0  0
 58 67  1  0  0  0  0
 59 67  1  0  0  0  0
 60 67  1  0  0  0  0
 61 72  1  0  0  0  0
 62 78  1  0  0  0  0
 63 64  1  0  0  0  0
 63 77  1  0  0  0  0
 64 85  1  0  0  0  0
 65 67  1  0  0  0  0
 65 76  1  0  0  0  0
 66 78  1  0  0  0  0
 68 69  1  0  0  0  0
M  CHG  2  77   1  78   1
M  ISO  4  18 100  34 100  64 101  85 101
M  END
> <Batch ID>
0183

> <Smiles>
CNC(C)C(=O)NC(C(=O)N1Cc2cc([101O:1][101CH2:1]CNC3CN(C)CC3c3cc(C)[100c:0]([100C:0](=O)N4CCCC(n5nc(-c6ccc(Oc7ccc(F)cc7F)cc6)c(C(N)=O)c5N)C4)cc3C)ccc2CC1C(=O)NC1CCCc2ccccc21)C(C)(C)C

> <Shape>
0.220

> <Color>
0.050

> <Negative vol penalty>
0.000

$$$$

  -OEChem-04052323073D

 84 93  0     1  0  0  0  0  0999 V2000
  -28.8538  -36.6786   18.9423 C   0  0  0  0  0  0  0  0  0  0  0  0
  -28.9735  -35.3202   18.6665 C   0  0  0  0  0  0  0  0  0  0  0  0
  -22.6915  -11.3389   19.2239 C   0  0  0  0  0  0  0  0  0  0  0  0
  -23.2684   -9.9301   21.0999 C   0  0  0  0  0  0  0  0  0  0  0  0
  -28.4299  -37.0982   20.2025 C   0  0  0  0  0  0  0  0  0  0  0  0
  -28.6704  -34.3807   19.6513 C   0  0  0  0  0  0  0  0  0  0  0  0
  -26.1424  -28.8644   18.8232 C   0  0  0  0  0  0  0  0  0  0  0  0
  -21.6770  -10.4501   18.8684 C   0  0  0  0  0  0  0  0  0  0  0  0
  -22.2538   -9.0413   20.7445 C   0  0  0  0  0  0  0  0  0  0  0  0
  -26.6893  -27.5845   18.7431 C   0  0  0  0  0  0  0  0  0  0  0  0
  -21.7771   -6.5850   18.4707 C   0  0  0  0  0  0  0  0  0  0  0  0
  -22.0767   -5.2227   18.4788 C   0  0  0  0  0  0  0  0  0  0  0  0
  -26.2231  -27.2454   21.0856 C   0  0  0  0  0  0  0  0  0  0  0  0
  -20.3515   -4.8532   20.1294 C   0  0  0  0  0  0  0  0  0  0  0  0
  -29.2131  -23.1903   21.2064 C   0  0  0  0  0  0  0  0  0  0  0  0
  -23.4873  -11.0789   20.3396 C   0  0  0  0  0  0  0  0  0  0  0  0
  -24.4328  -13.1035   21.5703 C   0  0  0  0  0  0  0  0  0  0  0  0
  -28.1121  -36.1631   21.2001 C   0  0  0  0  0  0  0  0  0  0  0  0
  -25.6408  -29.3494   20.0396 C   0  0  0  0  0  0  0  0  0  0  0  0
  -28.2431  -34.7882   20.9265 C   0  0  0  0  0  0  0  0  0  0  0  0
  -25.6681  -28.5309   21.1778 C   0  0  0  0  0  0  0  0  0  0  0  0
  -27.9346  -23.4443   20.7534 C   0  0  0  0  0  0  0  0  0  0  0  0
  -21.4581   -9.3014   19.6287 C   0  0  0  0  0  0  0  0  0  0  0  0
  -26.7323  -26.7758   19.8751 C   0  0  0  0  0  0  0  0  0  0  0  0
  -20.7648   -7.0814   19.2921 C   0  0  0  0  0  0  0  0  0  0  0  0
  -21.3639   -4.3568   19.3081 C   0  0  0  0  0  0  0  0  0  0  0  0
  -20.0520   -6.2155   20.1214 C   0  0  0  0  0  0  0  0  0  0  0  0
  -24.5358  -11.9963   20.7070 C   0  0  0  0  0  0  0  0  0  0  0  0
  -27.3275  -22.4111   20.0690 C   0  0  0  0  0  0  0  0  0  0  0  0
  -25.6956  -13.6434   21.5885 C   0  0  0  0  0  0  0  0  0  0  0  0
  -29.1609  -21.0932   20.3310 C   0  0  0  0  0  0  0  0  0  0  0  0
  -23.2972  -13.5995   22.2914 C   0  0  0  0  0  0  0  0  0  0  0  0
  -26.3718  -31.7745   21.9601 C   0  0  0  0  0  0  0  0  0  0  0  0
  -23.7140  -30.8083   23.5491 C   0  0  0  0  0  0  0  0  0  0  0  0
  -21.5268  -28.2911   24.2747 C   0  0  0  0  0  0  0  0  0  0  0  0
  -30.1724  -15.3090   18.5783 C   0  0  0  0  0  0  0  0  0  0  0  0
  -27.7034  -36.6655   22.5622 C   0  0  0  0  0  0  0  0  0  0  0  0
  -25.0299  -30.7223   20.1032 C   0  0  0  0  0  0  0  0  0  0  0  0
  -25.1243  -28.9968   22.5028 C   0  0  0  0  0  0  0  0  0  0  0  0
  -27.0423  -35.5990   23.4316 C   0  0  0  0  0  0  0  0  0  0  0  0
  -30.0822  -11.8559   19.8195 C   0  0  0  0  0  0  0  0  0  0  0  0
  -27.8429  -34.3014   23.3859 C   0  0  0  0  0  0  0  0  0  0  0  0
  -28.6095  -11.6659   20.1856 C   0  0  0  0  0  0  0  0  0  0  0  0
  -28.2850  -17.9482   20.3071 C   0  0  0  0  0  0  0  0  0  0  0  0
  -30.2625  -12.8445   18.6698 C   0  0  0  0  0  0  0  0  0  0  0  0
  -28.2004  -16.6259   19.5520 C   0  0  0  0  0  0  0  0  0  0  0  0
  -28.1377  -13.9554   19.2394 C   0  0  0  0  0  0  0  0  0  0  0  0
  -30.2327  -17.7574   18.9567 C   0  0  0  0  0  0  0  0  0  0  0  0
  -27.8998  -33.7382   21.9607 C   0  0  1  0  0  0  0  0  0  0  0  0
  -25.0162  -31.3056   21.5128 C   0  0  1  0  0  0  0  0  0  0  0  0
  -27.9206  -13.0202   20.4371 C   0  0  1  0  0  0  0  0  0  0  0  0
  -29.1962  -18.7757   19.4072 C   0  0  2  0  0  0  0  0  0  0  0  0
  -25.9422  -22.5710   19.5352 C   0  0  0  0  0  0  0  0  0  0  0  0
  -19.4770  -27.7932   25.6339 C   0  0  0  0  0  0  0  0  0  0  0  0
  -25.4226  -30.6790   26.0738 C   0  0  0  0  0  0  0  0  0  0  0  0
  -23.6215  -29.3037   27.1383 C   0  0  0  0  0  0  0  0  0  0  0  0
  -23.1379  -31.6395   26.4084 C   0  0  0  0  0  0  0  0  0  0  0  0
  -19.9421  -27.6423   21.8608 C   0  0  0  0  0  0  0  0  0  0  0  0
  -27.2772  -24.7528   21.0004 C   0  0  0  0  0  0  0  0  0  1  0  0
  -23.4314  -29.8320   24.6653 C   0  0  1  0  0  0  0  0  0  0  0  0
  -20.0095  -28.2464   24.2834 C   0  0  2  0  0  0  0  0  0  0  0  0
  -23.9154  -30.3552   26.0471 C   0  0  0  0  0  0  0  0  0  0  0  0
  -29.8589  -22.0217   21.0122 N   0  0  0  0  0  0  0  0  0  0  0  0
  -25.7668  -11.8409   20.2124 N   0  0  0  0  0  0  0  0  0  0  0  0
  -27.9137  -21.2179   19.8387 N   0  0  0  0  0  0  0  0  0  0  0  0
  -26.4488  -12.8576   20.7667 N   0  0  0  0  0  0  0  0  0  0  0  0
  -24.5428  -30.3493   22.5156 N   0  0  0  0  0  0  0  0  0  0  0  0
  -29.5673  -14.1020   18.9453 N   0  0  0  0  0  0  0  0  0  0  0  0
  -29.5070  -16.4905   18.9029 N   0  0  0  0  0  0  0  0  0  0  0  0
  -26.2240  -14.7090   22.2271 N   0  0  0  0  0  0  0  0  0  0  0  0
  -22.0756  -12.9252   22.1598 N   0  0  0  0  0  0  0  0  0  0  0  0
  -29.7949  -19.8774   20.1134 N   0  0  0  0  0  0  0  0  0  0  0  0
  -26.6525  -33.0854   21.6251 N   0  0  0  0  0  0  0  0  0  0  0  0
  -22.0028  -29.5429   24.6028 N   0  0  0  0  0  0  0  0  0  0  0  0
  -19.5130  -27.3031   23.2420 N   0  3  0  0  0  0  0  0  0  0  0  0
  -23.3598  -14.6203   23.0177 O   0  0  0  0  0  0  0  0  0  0  0  0
  -27.1080  -31.0044   22.5657 O   0  0  0  0  0  0  0  0  0  0  0  0
  -23.2119  -31.9344   23.5891 O   0  0  0  0  0  0  0  0  0  0  0  0
  -22.2205  -27.3124   24.0073 O   0  0  0  0  0  0  0  0  0  0  0  0
  -31.2808  -15.3324   18.0269 O   0  0  0  0  0  0  0  0  0  0  0  0
  -20.4680   -8.4340   19.2823 O   0  0  0  0  0  0  0  0  0  0  0  0
  -27.2694  -25.5186   19.7994 O   0  0  0  0  0  0  0  0  0  1  0  0
  -21.6506   -3.0484   19.3146 F   0  0  0  0  0  0  0  0  0  0  0  0
  -19.0776   -6.6863   20.9117 F   0  0  0  0  0  0  0  0  0  0  0  0
  1  2  1  0  0  0  0
  1  5  2  0  0  0  0
  2  6  2  0  0  0  0
  3  8  2  0  0  0  0
  3 16  1  0  0  0  0
  4  9  1  0  0  0  0
  4 16  2  0  0  0  0
  5 18  1  0  0  0  0
  6 20  1  0  0  0  0
  7 10  2  0  0  0  0
  7 19  1  0  0  0  0
  8 23  1  0  0  0  0
  9 23  2  0  0  0  0
 10 24  1  0  0  0  0
 11 12  2  0  0  0  0
 11 25  1  0  0  0  0
 12 26  1  0  0  0  0
 13 21  1  0  0  0  0
 13 24  2  0  0  0  0
 14 26  2  0  0  0  0
 14 27  1  0  0  0  0
 15 22  1  0  0  0  0
 15 63  2  0  0  0  0
 16 28  1  0  0  0  0
 17 28  1  0  0  0  0
 17 30  2  0  0  0  0
 17 32  1  0  0  0  0
 18 20  2  0  0  0  0
 18 37  1  0  0  0  0
 19 21  2  0  0  0  0
 19 38  1  0  0  0  0
 20 49  1  0  0  0  0
 21 39  1  0  0  0  0
 22 29  2  0  0  0  0
 22 59  1  0  0  0  0
 23 81  1  0  0  0  0
 24 82  1  0  0  0  0
 25 27  2  0  0  0  0
 25 81  1  0  0  0  0
 26 83  1  0  0  0  0
 27 84  1  0  0  0  0
 28 64  2  0  0  0  0
 29 53  1  0  0  0  0
 29 65  1  0  0  0  0
 30 66  1  0  0  0  0
 30 70  1  0  0  0  0
 31 63  1  0  0  0  0
 31 65  2  0  0  0  0
 31 72  1  0  0  0  0
 32 71  1  0  0  0  0
 32 76  2  0  0  0  0
 33 50  1  0  0  0  0
 33 73  1  0  0  0  0
 33 77  2  0  0  0  0
 34 60  1  0  0  0  0
 34 67  1  0  0  0  0
 34 78  2  0  0  0  0
 35 61  1  0  0  0  0
 35 74  1  0  0  0  0
 35 79  2  0  0  0  0
 36 68  1  0  0  0  0
 36 69  1  0  0  0  0
 36 80  2  0  0  0  0
 37 40  1  0  0  0  0
 38 50  1  0  0  0  0
 39 67  1  0  0  0  0
 40 42  1  0  0  0  0
 41 43  1  0  0  0  0
 41 45  1  0  0  0  0
 42 49  1  0  0  0  0
 43 51  1  0  0  0  0
 44 46  1  0  0  0  0
 44 52  1  0  0  0  0
 45 68  1  0  0  0  0
 46 69  1  0  0  0  0
 47 51  1  0  0  0  0
 47 68  1  0  0  0  0
 48 52  1  0  0  0  0
 48 69  1  0  0  0  0
 49 73  1  0  0  0  0
 50 67  1  0  0  0  0
 51 66  1  0  0  0  0
 52 72  1  0  0  0  0
 54 61  1  0  0  0  0
 55 62  1  0  0  0  0
 56 62  1  0  0  0  0
 57 62  1  0  0  0  0
 58 75  1  0  0  0  0
 59 82  1  0  0  0  0
 60 62  1  0  0  0  0
 60 74  1  0  0  0  0
 61 75  1  0  0  0  0
 64 66  1  0  0  0  0
M  CHG  1  75   1
M  ISO  4  36 100  59 101  69 100  82 101
M  END
> <Batch ID>
0183

> <Smiles>
CNC(C)C(=O)NC(C(=O)N1Cc2cc([101O:1][101CH2:1]c3cnc(NC4CC[100N:0]([100C:0](=O)N5CCCC(n6nc(-c7ccc(Oc8ccc(F)cc8F)cc7)c(C(N)=O)c6N)C5)C4)nc3C)ccc2CC1C(=O)NC1CCCc2ccccc21)C(C)(C)C

> <Shape>
0.287

> <Color>
0.126

> <Negative vol penalty>
0.000

$$$$

  -OEChem-04052323073D

 82 91  0     1  0  0  0  0  0999 V2000
  -18.9729  -33.4076   21.0937 C   0  0  0  0  0  0  0  0  0  0  0  0
  -20.2380  -33.0683   20.6250 C   0  0  0  0  0  0  0  0  0  0  0  0
  -26.2776  -14.2146   22.0445 C   0  0  0  0  0  0  0  0  0  0  0  0
  -25.6063  -13.6245   19.7999 C   0  0  0  0  0  0  0  0  0  0  0  0
  -18.4866  -32.8293   22.2655 C   0  0  0  0  0  0  0  0  0  0  0  0
  -21.0181  -32.1512   21.3284 C   0  0  0  0  0  0  0  0  0  0  0  0
  -24.9080  -28.0520   18.9681 C   0  0  0  0  0  0  0  0  0  0  0  0
  -25.2802  -13.3871   22.5604 C   0  0  0  0  0  0  0  0  0  0  0  0
  -24.6089  -12.7970   20.3158 C   0  0  0  0  0  0  0  0  0  0  0  0
  -26.2925  -28.0591   18.8038 C   0  0  0  0  0  0  0  0  0  0  0  0
  -22.1194  -10.2496   21.0449 C   0  0  0  0  0  0  0  0  0  0  0  0
  -21.9718   -8.9821   20.4817 C   0  0  0  0  0  0  0  0  0  0  0  0
  -26.5375  -26.8331   20.8668 C   0  0  0  0  0  0  0  0  0  0  0  0
  -24.2411   -8.4393   21.1085 C   0  0  0  0  0  0  0  0  0  0  0  0
  -29.9691  -23.1683   18.1608 C   0  0  0  0  0  0  0  0  0  0  0  0
  -26.4406  -14.3333   20.6643 C   0  0  0  0  0  0  0  0  0  0  0  0
  -30.2553  -22.8026   19.4604 C   0  0  0  0  0  0  0  0  0  0  0  0
  -28.7981  -14.8323   19.8271 C   0  0  0  0  0  0  0  0  0  0  0  0
  -19.2572  -31.8974   22.9784 C   0  0  0  0  0  0  0  0  0  0  0  0
  -24.3275  -27.4439   20.0905 C   0  0  0  0  0  0  0  0  0  0  0  0
  -20.5422  -31.5609   22.5115 C   0  0  0  0  0  0  0  0  0  0  0  0
  -25.1453  -26.8175   21.0418 C   0  0  0  0  0  0  0  0  0  0  0  0
  -24.4458  -12.6783   21.6960 C   0  0  0  0  0  0  0  0  0  0  0  0
  -27.1076  -27.4521   19.7547 C   0  0  0  0  0  0  0  0  0  0  0  0
  -23.3279  -10.6121   21.6397 C   0  0  0  0  0  0  0  0  0  0  0  0
  -23.0326   -8.0769   20.5136 C   0  0  0  0  0  0  0  0  0  0  0  0
  -24.3887   -9.7069   21.6716 C   0  0  0  0  0  0  0  0  0  0  0  0
  -27.4704  -15.1883   20.1308 C   0  0  0  0  0  0  0  0  0  0  0  0
  -30.5507  -23.8400   20.3212 C   0  0  0  0  0  0  0  0  0  0  0  0
  -29.3640  -15.9903   19.3525 C   0  0  0  0  0  0  0  0  0  0  0  0
  -30.2720  -25.3653   18.6591 C   0  0  0  0  0  0  0  0  0  0  0  0
  -30.2364  -21.3897   19.8585 C   0  0  0  0  0  0  0  0  0  0  0  0
  -29.4605  -13.5680   19.9618 C   0  0  0  0  0  0  0  0  0  0  0  0
  -22.5464  -28.4567   22.5206 C   0  0  0  0  0  0  0  0  0  0  0  0
  -22.3972  -25.2931   23.2219 C   0  0  0  0  0  0  0  0  0  0  0  0
  -23.8016  -22.1950   22.9457 C   0  0  0  0  0  0  0  0  0  0  0  0
  -18.7082  -31.3345   24.2654 C   0  0  0  0  0  0  0  0  0  0  0  0
  -22.8310  -27.4216   20.2395 C   0  0  0  0  0  0  0  0  0  0  0  0
  -24.5705  -26.1332   22.2541 C   0  0  0  0  0  0  0  0  0  0  0  0
  -19.4466  -30.0892   24.7495 C   0  0  0  0  0  0  0  0  0  0  0  0
  -27.2597  -20.3944   18.0377 C   0  0  0  0  0  0  0  0  0  0  0  0
  -20.9554  -30.3012   24.6767 C   0  0  0  0  0  0  0  0  0  0  0  0
  -27.1520  -18.9166   18.4162 C   0  0  0  0  0  0  0  0  0  0  0  0
  -31.2429  -27.1803   17.1081 C   0  0  0  0  0  0  0  0  0  0  0  0
  -31.5166  -27.6173   18.5131 C   0  0  0  0  0  0  0  0  0  0  0  0
  -27.7795  -21.2302   19.2034 C   0  0  0  0  0  0  0  0  0  0  0  0
  -28.9784  -19.2798   20.1371 C   0  0  0  0  0  0  0  0  0  0  0  0
  -21.4084  -30.5515   23.2332 C   0  0  1  0  0  0  0  0  0  0  0  0
  -22.3771  -27.2214   21.6821 C   0  0  1  0  0  0  0  0  0  0  0  0
  -28.4820  -18.3890   18.9850 C   0  0  1  0  0  0  0  0  0  0  0  0
  -30.2808  -26.7875   18.2147 C   0  0  0  0  0  0  0  0  0  0  0  0
  -23.4700  -19.8114   23.6570 C   0  0  0  0  0  0  0  0  0  0  0  0
  -23.3749  -25.9963   26.0254 C   0  0  0  0  0  0  0  0  0  0  0  0
  -23.9258  -23.5776   26.3643 C   0  0  0  0  0  0  0  0  0  0  0  0
  -21.5652  -24.2716   25.9536 C   0  0  0  0  0  0  0  0  0  0  0  0
  -31.1753  -24.5270   22.6371 C   0  0  0  0  0  0  0  0  0  0  0  0
  -23.5871  -21.2670   20.1436 C   0  0  0  0  0  0  0  0  0  0  0  0
  -28.9572  -27.4703   18.2598 C   0  0  0  0  0  0  0  0  0  1  0  0
  -23.2268  -24.3412   24.0493 C   0  0  1  0  0  0  0  0  0  0  0  0
  -23.2060  -20.8484   22.5764 C   0  0  2  0  0  0  0  0  0  0  0  0
  -23.0344  -24.5612   25.5764 C   0  0  0  0  0  0  0  0  0  0  0  0
  -29.9682  -24.4449   17.7242 N   0  0  0  0  0  0  0  0  0  0  0  0
  -27.2084  -16.4721   19.8711 N   0  0  0  0  0  0  0  0  0  0  0  0
  -30.5684  -25.1378   19.9529 N   0  0  0  0  0  0  0  0  0  0  0  0
  -28.3794  -16.9329   19.3993 N   0  0  0  0  0  0  0  0  0  0  0  0
  -29.0417  -20.6801   19.7139 N   0  0  0  0  0  0  0  0  0  0  0  0
  -23.1020  -26.1437   22.3583 N   0  0  0  0  0  0  0  0  0  0  0  0
  -30.6030  -16.2841   18.9039 N   0  0  0  0  0  0  0  0  0  0  0  0
  -28.7317  -12.4822   20.4660 N   0  0  0  0  0  0  0  0  0  0  0  0
  -30.8551  -23.5287   21.6695 N   0  0  0  0  0  0  0  0  0  0  0  0
  -21.4575  -29.3071   22.4960 N   0  0  0  0  0  0  0  0  0  0  0  0
  -22.8858  -22.9987   23.5914 N   0  0  0  0  0  0  0  0  0  0  0  0
  -23.7931  -20.3554   21.2984 N   0  3  0  0  0  0  0  0  0  0  0  0
  -31.2954  -20.9323   20.2857 O   0  0  0  0  0  0  0  0  0  0  0  0
  -30.6678  -13.4099   19.6599 O   0  0  0  0  0  0  0  0  0  0  0  0
  -23.5874  -28.6251   23.1449 O   0  0  0  0  0  0  0  0  0  0  0  0
  -21.1687  -25.2775   23.3322 O   0  0  0  0  0  0  0  0  0  0  0  0
  -24.9640  -22.5018   22.6906 O   0  0  0  0  0  0  0  0  0  0  0  0
  -23.4726  -11.8706   22.1991 O   0  0  0  0  0  0  0  0  0  0  0  0
  -28.4593  -27.4581   19.5971 O   0  0  0  0  0  0  0  0  0  1  0  0
  -22.8901   -6.8592   19.9741 F   0  0  0  0  0  0  0  0  0  0  0  0
  -25.5517  -10.0490   22.2427 F   0  0  0  0  0  0  0  0  0  0  0  0
  1  2  1  0  0  0  0
  1  5  2  0  0  0  0
  2  6  2  0  0  0  0
  3  8  2  0  0  0  0
  3 16  1  0  0  0  0
  4  9  1  0  0  0  0
  4 16  2  0  0  0  0
  5 19  1  0  0  0  0
  6 21  1  0  0  0  0
  7 10  2  0  0  0  0
  7 20  1  0  0  0  0
  8 23  1  0  0  0  0
  9 23  2  0  0  0  0
 10 24  1  0  0  0  0
 11 12  2  0  0  0  0
 11 25  1  0  0  0  0
 12 26  1  0  0  0  0
 13 22  1  0  0  0  0
 13 24  2  0  0  0  0
 14 26  2  0  0  0  0
 14 27  1  0  0  0  0
 15 17  1  0  0  0  0
 15 62  2  0  0  0  0
 16 28  1  0  0  0  0
 17 29  2  0  0  0  0
 17 32  1  0  0  0  0
 18 28  1  0  0  0  0
 18 30  2  0  0  0  0
 18 33  1  0  0  0  0
 19 21  2  0  0  0  0
 19 37  1  0  0  0  0
 20 22  2  0  0  0  0
 20 38  1  0  0  0  0
 21 48  1  0  0  0  0
 22 39  1  0  0  0  0
 23 79  1  0  0  0  0
 24 80  1  0  0  0  0
 25 27  2  0  0  0  0
 25 79  1  0  0  0  0
 26 81  1  0  0  0  0
 27 82  1  0  0  0  0
 28 63  2  0  0  0  0
 29 64  1  0  0  0  0
 29 70  1  0  0  0  0
 30 65  1  0  0  0  0
 30 68  1  0  0  0  0
 31 51  1  0  0  0  0
 31 62  1  0  0  0  0
 31 64  2  0  0  0  0
 32 66  1  0  0  0  0
 32 74  2  0  0  0  0
 33 69  1  0  0  0  0
 33 75  2  0  0  0  0
 34 49  1  0  0  0  0
 34 71  1  0  0  0  0
 34 76  2  0  0  0  0
 35 59  1  0  0  0  0
 35 67  1  0  0  0  0
 35 77  2  0  0  0  0
 36 60  1  0  0  0  0
 36 72  1  0  0  0  0
 36 78  2  0  0  0  0
 37 40  1  0  0  0  0
 38 49  1  0  0  0  0
 39 67  1  0  0  0  0
 40 42  1  0  0  0  0
 41 43  1  0  0  0  0
 41 46  1  0  0  0  0
 42 48  1  0  0  0  0
 43 50  1  0  0  0  0
 44 45  1  0  0  0  0
 44 51  1  0  0  0  0
 45 51  1  0  0  0  0
 46 66  1  0  0  0  0
 47 50  1  0  0  0  0
 47 66  1  0  0  0  0
 48 71  1  0  0  0  0
 49 67  1  0  0  0  0
 50 65  1  0  0  0  0
 51 58  1  0  0  0  0
 52 60  1  0  0  0  0
 53 61  1  0  0  0  0
 54 61  1  0  0  0  0
 55 61  1  0  0  0  0
 56 70  1  0  0  0  0
 57 73  1  0  0  0  0
 58 80  1  0  0  0  0
 59 61  1  0  0  0  0
 59 72  1  0  0  0  0
 60 73  1  0  0  0  0
 63 65  1  0  0  0  0
M  CHG  1  73   1
M  ISO  4  17 100  32 100  58 101  80 101
M  END
> <Batch ID>
0183

> <Smiles>
CNc1nc(C2([101CH2:1][101O:1]c3ccc4c(c3)CN(C(=O)C(NC(=O)C(C)NC)C(C)(C)C)C(C(=O)NC3CCCc5ccccc53)C4)CC2)nc[100c:0]1[100C:0](=O)N1CCCC(n2nc(-c3ccc(Oc4ccc(F)cc4F)cc3)c(C(N)=O)c2N)C1

> <Shape>
0.248

> <Color>
0.099

> <Negative vol penalty>
0.000

$$$$

  -OEChem-04052323072D

  0  0  0     0  0  0  0  0  0999 V2000
M  END
$$$$

  -OEChem-04052323073D

 86 96  0     1  0  0  0  0  0999 V2000
  -19.5395  -26.1252   25.3303 C   0  0  0  0  0  0  0  0  0  0  0  0
  -20.5087  -25.8376   24.3746 C   0  0  0  0  0  0  0  0  0  0  0  0
  -24.6415   -9.2225   22.0564 C   0  0  0  0  0  0  0  0  0  0  0  0
  -23.7285   -9.4479   19.8309 C   0  0  0  0  0  0  0  0  0  0  0  0
  -18.7644  -27.2779   25.2104 C   0  0  0  0  0  0  0  0  0  0  0  0
  -20.7026  -26.7021   23.2978 C   0  0  0  0  0  0  0  0  0  0  0  0
  -25.6019  -27.6064   22.3902 C   0  0  0  0  0  0  0  0  0  0  0  0
  -23.4614   -8.6104   22.4785 C   0  0  0  0  0  0  0  0  0  0  0  0
  -22.5484   -8.8357   20.2531 C   0  0  0  0  0  0  0  0  0  0  0  0
  -26.3176  -26.6179   21.7162 C   0  0  0  0  0  0  0  0  0  0  0  0
  -22.0277   -5.5552   22.2709 C   0  0  0  0  0  0  0  0  0  0  0  0
  -22.1377   -4.4075   23.0560 C   0  0  0  0  0  0  0  0  0  0  0  0
  -26.0884  -27.8613   19.6618 C   0  0  0  0  0  0  0  0  0  0  0  0
  -20.9367   -5.5116   24.8381 C   0  0  0  0  0  0  0  0  0  0  0  0
  -24.7750   -9.6413   20.7325 C   0  0  0  0  0  0  0  0  0  0  0  0
  -27.1349   -9.6450   19.7638 C   0  0  0  0  0  0  0  0  0  0  0  0
  -18.9555  -28.1620   24.1368 C   0  0  0  0  0  0  0  0  0  0  0  0
  -25.1138  -28.7264   21.7018 C   0  0  0  0  0  0  0  0  0  0  0  0
  -19.9284  -27.8670   23.1627 C   0  0  0  0  0  0  0  0  0  0  0  0
  -25.3690  -28.8639   20.3299 C   0  0  0  0  0  0  0  0  0  0  0  0
  -22.4148   -8.4169   21.5769 C   0  0  0  0  0  0  0  0  0  0  0  0
  -26.5585  -26.7438   20.3512 C   0  0  0  0  0  0  0  0  0  0  0  0
  -21.3723   -6.6811   22.7694 C   0  0  0  0  0  0  0  0  0  0  0  0
  -21.5922   -4.3857   24.3396 C   0  0  0  0  0  0  0  0  0  0  0  0
  -20.8268   -6.6592   24.0530 C   0  0  0  0  0  0  0  0  0  0  0  0
  -25.9936  -10.2742   20.2960 C   0  0  0  0  0  0  0  0  0  0  0  0
  -28.0074  -10.6747   19.5092 C   0  0  0  0  0  0  0  0  0  0  0  0
  -30.2264  -23.3494   18.2217 C   0  0  0  0  0  0  0  0  0  0  0  0
  -28.4877  -23.7387   19.5863 C   0  0  0  0  0  0  0  0  0  0  0  0
  -28.7658  -21.7067   18.6749 C   0  0  0  0  0  0  0  0  0  0  0  0
  -27.3841   -8.2540   19.5211 C   0  0  0  0  0  0  0  0  0  0  0  0
  -22.2254  -29.9207   21.1233 C   0  0  0  0  0  0  0  0  0  0  0  0
  -23.9223  -32.3707   19.8425 C   0  0  0  0  0  0  0  0  0  0  0  0
  -26.8361  -33.4513   18.4324 C   0  0  0  0  0  0  0  0  0  0  0  0
  -27.3420  -16.2809   18.2619 C   0  0  0  0  0  0  0  0  0  0  0  0
  -18.0612  -29.3712   24.0241 C   0  0  0  0  0  0  0  0  0  0  0  0
  -24.3665  -29.7970   22.4486 C   0  0  0  0  0  0  0  0  0  0  0  0
  -24.8841  -30.0568   19.5487 C   0  0  0  0  0  0  0  0  0  0  0  0
  -18.5851  -30.4280   23.0552 C   0  0  0  0  0  0  0  0  0  0  0  0
  -29.1717  -15.0624   21.0018 C   0  0  0  0  0  0  0  0  0  0  0  0
  -19.0366  -29.7792   21.7506 C   0  0  0  0  0  0  0  0  0  0  0  0
  -31.3652  -25.0433   16.6381 C   0  0  0  0  0  0  0  0  0  0  0  0
  -31.5516  -23.6888   16.0292 C   0  0  0  0  0  0  0  0  0  0  0  0
  -28.6718  -13.6204   21.0838 C   0  0  0  0  0  0  0  0  0  0  0  0
  -28.0417  -16.0435   20.6856 C   0  0  0  0  0  0  0  0  0  0  0  0
  -29.1114  -19.4814   17.6470 C   0  0  0  0  0  0  0  0  0  0  0  0
  -27.5958  -19.7621   19.6143 C   0  0  0  0  0  0  0  0  0  0  0  0
  -28.2627  -18.2999   17.1850 C   0  0  0  0  0  0  0  0  0  0  0  0
  -26.7676  -18.5850   19.1111 C   0  0  0  0  0  0  0  0  0  0  0  0
  -26.7630  -14.2511   19.5587 C   0  0  0  0  0  0  0  0  0  0  0  0
  -20.1854  -28.7930   21.9936 C   0  0  1  0  0  0  0  0  0  0  0  0
  -31.4551  -23.8299   17.5255 C   0  0  0  0  0  0  0  0  0  0  0  0
  -23.4735  -30.6427   21.5461 C   0  0  1  0  0  0  0  0  0  0  0  0
  -27.8865  -13.2352   19.8175 C   0  0  2  0  0  0  0  0  0  0  0  0
  -27.9109  -35.4967   17.4532 C   0  0  0  0  0  0  0  0  0  0  0  0
  -22.2811  -32.0108   17.2956 C   0  0  0  0  0  0  0  0  0  0  0  0
  -23.9921  -33.3784   16.0830 C   0  0  0  0  0  0  0  0  0  0  0  0
  -22.6834  -34.3909   17.9498 C   0  0  0  0  0  0  0  0  0  0  0  0
  -28.9758  -33.4476   20.4770 C   0  0  0  0  0  0  0  0  0  0  0  0
  -27.7122  -24.6669   20.4578 C   0  0  0  0  0  0  0  0  0  1  0  0
  -24.4763  -32.6872   18.4744 C   0  0  1  0  0  0  0  0  0  0  0  0
  -27.6993  -34.6686   18.7111 C   0  0  2  0  0  0  0  0  0  0  0  0
  -23.3658  -33.0933   17.4647 C   0  0  0  0  0  0  0  0  0  0  0  0
  -26.1261  -11.6009   20.3754 N   0  0  0  0  0  0  0  0  0  0  0  0
  -29.5813  -24.2412   18.9910 N   0  0  0  0  0  0  0  0  0  0  0  0
  -29.8787  -22.0686   18.0166 N   0  0  0  0  0  0  0  0  0  0  0  0
  -28.0198  -22.4850   19.4754 N   0  0  0  0  0  0  0  0  0  0  0  0
  -27.3610  -11.8138   19.8899 N   0  0  0  0  0  0  0  0  0  0  0  0
  -28.3396  -20.3827   18.5095 N   0  0  0  0  0  0  0  0  0  0  0  0
  -24.1527  -31.0736   20.3225 N   0  0  0  0  0  0  0  0  0  0  0  0
  -27.2965  -15.6133   19.4949 N   0  0  0  0  0  0  0  0  0  0  0  0
  -27.5672  -17.6660   18.2985 N   0  0  0  0  0  0  0  0  0  0  0  0
  -29.2569  -10.7079   18.9991 N   0  0  0  0  0  0  0  0  0  0  0  0
  -26.3800   -7.3298   19.8403 N   0  0  0  0  0  0  0  0  0  0  0  0
  -21.4324  -29.5045   22.1757 N   0  0  0  0  0  0  0  0  0  0  0  0
  -25.5026  -33.7045   18.6749 N   0  0  0  0  0  0  0  0  0  0  0  0
  -29.0329  -34.2504   19.2283 N   0  3  0  0  0  0  0  0  0  0  0  0
  -28.4714   -7.8414   19.0510 O   0  0  0  0  0  0  0  0  0  0  0  0
  -21.9980  -29.7548   19.9307 O   0  0  0  0  0  0  0  0  0  0  0  0
  -23.3138  -33.2444   20.4655 O   0  0  0  0  0  0  0  0  0  0  0  0
  -27.2981  -32.3839   18.0354 O   0  0  0  0  0  0  0  0  0  0  0  0
  -27.1940  -15.6777   17.1919 O   0  0  0  0  0  0  0  0  0  0  0  0
  -21.2633   -7.8194   21.9885 O   0  0  0  0  0  0  0  0  0  0  0  0
  -27.2610  -25.7735   19.6862 O   0  0  0  0  0  0  0  0  0  1  0  0
  -21.6965   -3.2830   25.0928 F   0  0  0  0  0  0  0  0  0  0  0  0
  -20.1950   -7.7374   24.5369 F   0  0  0  0  0  0  0  0  0  0  0  0
  1  2  1  0  0  0  0
  1  5  2  0  0  0  0
  2  6  2  0  0  0  0
  3  8  2  0  0  0  0
  3 15  1  0  0  0  0
  4  9  1  0  0  0  0
  4 15  2  0  0  0  0
  5 17  1  0  0  0  0
  6 19  1  0  0  0  0
  7 10  2  0  0  0  0
  7 18  1  0  0  0  0
  8 21  1  0  0  0  0
  9 21  2  0  0  0  0
 10 22  1  0  0  0  0
 11 12  2  0  0  0  0
 11 23  1  0  0  0  0
 12 24  1  0  0  0  0
 13 20  1  0  0  0  0
 13 22  2  0  0  0  0
 14 24  2  0  0  0  0
 14 25  1  0  0  0  0
 15 26  1  0  0  0  0
 16 26  1  0  0  0  0
 16 27  2  0  0  0  0
 16 31  1  0  0  0  0
 17 19  2  0  0  0  0
 17 36  1  0  0  0  0
 18 20  2  0  0  0  0
 18 37  1  0  0  0  0
 19 51  1  0  0  0  0
 20 38  1  0  0  0  0
 21 83  1  0  0  0  0
 22 84  1  0  0  0  0
 23 25  2  0  0  0  0
 23 83  1  0  0  0  0
 24 85  1  0  0  0  0
 25 86  1  0  0  0  0
 26 64  2  0  0  0  0
 27 68  1  0  0  0  0
 27 73  1  0  0  0  0
 28 52  1  0  0  0  0
 28 65  2  0  0  0  0
 28 66  1  0  0  0  0
 29 60  1  0  0  0  0
 29 65  1  0  0  0  0
 29 67  2  0  0  0  0
 30 66  2  0  0  0  0
 30 67  1  0  0  0  0
 30 69  1  0  0  0  0
 31 74  1  0  0  0  0
 31 78  2  0  0  0  0
 32 53  1  0  0  0  0
 32 75  1  0  0  0  0
 32 79  2  0  0  0  0
 33 61  1  0  0  0  0
 33 70  1  0  0  0  0
 33 80  2  0  0  0  0
 34 62  1  0  0  0  0
 34 76  1  0  0  0  0
 34 81  2  0  0  0  0
 35 71  1  0  0  0  0
 35 72  1  0  0  0  0
 35 82  2  0  0  0  0
 36 39  1  0  0  0  0
 37 53  1  0  0  0  0
 38 70  1  0  0  0  0
 39 41  1  0  0  0  0
 40 44  1  0  0  0  0
 40 45  1  0  0  0  0
 41 51  1  0  0  0  0
 42 43  1  0  0  0  0
 42 52  1  0  0  0  0
 43 52  1  0  0  0  0
 44 54  1  0  0  0  0
 45 71  1  0  0  0  0
 46 48  1  0  0  0  0
 46 69  1  0  0  0  0
 47 49  1  0  0  0  0
 47 69  1  0  0  0  0
 48 72  1  0  0  0  0
 49 72  1  0  0  0  0
 50 54  1  0  0  0  0
 50 71  1  0  0  0  0
 51 75  1  0  0  0  0
 53 70  1  0  0  0  0
 54 68  1  0  0  0  0
 55 62  1  0  0  0  0
 56 63  1  0  0  0  0
 57 63  1  0  0  0  0
 58 63  1  0  0  0  0
 59 77  1  0  0  0  0
 60 84  1  0  0  0  0
 61 63  1  0  0  0  0
 61 76  1  0  0  0  0
 62 77  1  0  0  0  0
 64 68  1  0  0  0  0
M  CHG  1  77   1
M  ISO  4  35 100  60 101  72 100  84 101
M  END
> <Batch ID>
0183

> <Smiles>
CNC(C)C(=O)NC(C(=O)N1Cc2cc([101O:1][101CH2:1]c3nc(C4CC4)nc(N4CC[100N:0]([100C:0](=O)N5CCCC(n6nc(-c7ccc(Oc8ccc(F)cc8F)cc7)c(C(N)=O)c6N)C5)CC4)n3)ccc2CC1C(=O)NC1CCCc2ccccc21)C(C)(C)C

> <Shape>
0.275

> <Color>
0.116

> <Negative vol penalty>
0.000

$$$$

  -OEChem-04052323073D

 79 88  0     1  0  0  0  0  0999 V2000
  -37.9652  -25.3524   12.5981 C   0  0  0  0  0  0  0  0  0  0  0  0
  -37.5189  -24.7333   13.7613 C   0  0  0  0  0  0  0  0  0  0  0  0
  -23.1133   -9.9122   20.0195 C   0  0  0  0  0  0  0  0  0  0  0  0
  -23.9824   -9.9809   22.2727 C   0  0  0  0  0  0  0  0  0  0  0  0
  -37.6799  -26.6985   12.3728 C   0  0  0  0  0  0  0  0  0  0  0  0
  -36.7879  -25.4601   14.7003 C   0  0  0  0  0  0  0  0  0  0  0  0
  -32.7500  -22.9237   16.4052 C   0  0  0  0  0  0  0  0  0  0  0  0
  -22.4129   -8.7454   20.3252 C   0  0  0  0  0  0  0  0  0  0  0  0
  -23.2819   -8.8140   22.5784 C   0  0  0  0  0  0  0  0  0  0  0  0
  -32.9768  -21.9328   17.3594 C   0  0  0  0  0  0  0  0  0  0  0  0
  -20.1086   -7.9458   23.3510 C   0  0  0  0  0  0  0  0  0  0  0  0
  -19.4103   -7.9084   24.5578 C   0  0  0  0  0  0  0  0  0  0  0  0
  -32.2905  -23.4581   19.0977 C   0  0  0  0  0  0  0  0  0  0  0  0
  -20.7362   -6.0170   25.2663 C   0  0  0  0  0  0  0  0  0  0  0  0
  -23.8982  -10.5299   20.9932 C   0  0  0  0  0  0  0  0  0  0  0  0
  -24.1674  -13.0603   20.8132 C   0  0  0  0  0  0  0  0  0  0  0  0
  -36.9368  -27.4397   13.3050 C   0  0  0  0  0  0  0  0  0  0  0  0
  -32.3014  -24.1948   16.7918 C   0  0  0  0  0  0  0  0  0  0  0  0
  -36.4936  -26.8177   14.4878 C   0  0  0  0  0  0  0  0  0  0  0  0
  -32.0564  -24.4626   18.1462 C   0  0  0  0  0  0  0  0  0  0  0  0
  -22.4972   -8.1963   21.6046 C   0  0  0  0  0  0  0  0  0  0  0  0
  -32.7498  -22.2008   18.7061 C   0  0  0  0  0  0  0  0  0  0  0  0
  -21.1207   -7.0188   23.1017 C   0  0  0  0  0  0  0  0  0  0  0  0
  -19.7241   -6.9440   25.5155 C   0  0  0  0  0  0  0  0  0  0  0  0
  -21.4345   -6.0544   24.0594 C   0  0  0  0  0  0  0  0  0  0  0  0
  -24.6224  -11.7350   20.6779 C   0  0  0  0  0  0  0  0  0  0  0  0
  -25.2208  -13.8304   20.3844 C   0  0  0  0  0  0  0  0  0  0  0  0
  -22.9055  -13.5514   21.2845 C   0  0  0  0  0  0  0  0  0  0  0  0
  -33.4673  -27.1445   16.5826 C   0  0  0  0  0  0  0  0  0  0  0  0
  -30.5570  -27.9600   17.7605 C   0  0  0  0  0  0  0  0  0  0  0  0
  -27.7857  -27.0415   19.5276 C   0  0  0  0  0  0  0  0  0  0  0  0
  -30.7876  -14.7705   20.6504 C   0  0  0  0  0  0  0  0  0  0  0  0
  -36.6937  -28.9043   13.0399 C   0  0  0  0  0  0  0  0  0  0  0  0
  -32.0360  -25.2444   15.7476 C   0  0  0  0  0  0  0  0  0  0  0  0
  -31.5552  -25.8047   18.6111 C   0  0  0  0  0  0  0  0  0  0  0  0
  -35.5926  -29.5062   13.9091 C   0  0  0  0  0  0  0  0  0  0  0  0
  -29.4994  -12.5564   18.0098 C   0  0  0  0  0  0  0  0  0  0  0  0
  -35.7737  -29.0888   15.3650 C   0  0  0  0  0  0  0  0  0  0  0  0
  -28.0956  -12.2161   18.5123 C   0  0  0  0  0  0  0  0  0  0  0  0
  -29.0670  -18.0468   20.5220 C   0  0  0  0  0  0  0  0  0  0  0  0
  -32.1143  -17.5860   20.1180 C   0  0  0  0  0  0  0  0  0  0  0  0
  -30.4657  -12.8336   19.1590 C   0  0  0  0  0  0  0  0  0  0  0  0
  -28.9199  -16.5389   20.6907 C   0  0  0  0  0  0  0  0  0  0  0  0
  -28.5992  -13.5067   20.6191 C   0  0  0  0  0  0  0  0  0  0  0  0
  -35.6766  -27.5661   15.5186 C   0  0  1  0  0  0  0  0  0  0  0  0
  -32.0710  -26.6641   16.3051 C   0  0  1  0  0  0  0  0  0  0  0  0
  -27.5815  -13.2884   19.4910 C   0  0  2  0  0  0  0  0  0  0  0  0
  -31.1749  -17.1547   21.2424 C   0  0  1  0  0  0  0  0  0  0  0  0
  -30.2557  -18.3554   21.4248 C   0  0  1  0  0  0  0  0  0  0  0  0
  -32.3576  -19.0565   20.4297 C   0  0  1  0  0  0  0  0  0  0  0  0
  -25.5919  -27.9351   20.3559 C   0  0  0  0  0  0  0  0  0  0  0  0
  -32.0153  -29.5000   19.9541 C   0  0  0  0  0  0  0  0  0  0  0  0
  -29.8706  -29.5553   21.2445 C   0  0  0  0  0  0  0  0  0  0  0  0
  -30.0121  -30.6666   19.0156 C   0  0  0  0  0  0  0  0  0  0  0  0
  -26.2528  -25.0397   17.9777 C   0  0  0  0  0  0  0  0  0  0  0  0
  -32.7882  -19.8825   19.2349 C   0  0  0  0  0  0  0  0  0  1  0  0
  -29.9754  -28.1418   19.1416 C   0  0  1  0  0  0  0  0  0  0  0  0
  -26.3049  -27.1988   19.2325 C   0  0  2  0  0  0  0  0  0  0  0  0
  -30.4796  -29.4411   19.8307 C   0  0  0  0  0  0  0  0  0  0  0  0
  -25.8677  -11.6636   20.2003 N   0  0  0  0  0  0  0  0  0  0  0  0
  -26.2042  -12.9537   20.0317 N   0  0  0  0  0  0  0  0  0  0  0  0
  -31.3168  -26.8000   17.5529 N   0  0  0  0  0  0  0  0  0  0  0  0
  -29.9199  -13.8364   20.0735 N   0  0  0  0  0  0  0  0  0  0  0  0
  -30.2865  -16.0477   20.9009 N   0  0  0  0  0  0  0  0  0  0  0  0
  -25.3924  -15.1652   20.2783 N   0  0  0  0  0  0  0  0  0  0  0  0
  -21.9352  -12.6232   21.6862 N   0  0  0  0  0  0  0  0  0  0  0  0
  -34.2940  -27.1409   15.4753 N   0  0  0  0  0  0  0  0  0  0  0  0
  -28.5264  -28.0711   18.9869 N   0  0  0  0  0  0  0  0  0  0  0  0
  -31.0245  -19.5396   20.9390 N   0  3  0  0  0  0  0  0  0  0  0  0
  -25.6653  -25.8631   19.0657 N   0  3  0  0  0  0  0  0  0  0  0  0
  -22.6401  -14.7764   21.3320 O   0  0  0  0  0  0  0  0  0  0  0  0
  -33.7718  -27.4940   17.7170 O   0  0  0  0  0  0  0  0  0  0  0  0
  -30.3392  -28.8121   16.8956 O   0  0  0  0  0  0  0  0  0  0  0  0
  -28.2394  -26.1014   20.1764 O   0  0  0  0  0  0  0  0  0  0  0  0
  -31.9717  -14.4887   20.8755 O   0  0  0  0  0  0  0  0  0  0  0  0
  -21.8136   -7.0578   21.9034 O   0  0  0  0  0  0  0  0  0  0  0  0
  -32.9727  -21.2280   19.6470 O   0  0  0  0  0  0  0  0  0  1  0  0
  -19.0544   -6.9091   26.6750 F   0  0  0  0  0  0  0  0  0  0  0  0
  -22.4066   -5.1620   23.8261 F   0  0  0  0  0  0  0  0  0  0  0  0
  1  2  1  0  0  0  0
  1  5  2  0  0  0  0
  2  6  2  0  0  0  0
  3  8  2  0  0  0  0
  3 15  1  0  0  0  0
  4  9  1  0  0  0  0
  4 15  2  0  0  0  0
  5 17  1  0  0  0  0
  6 19  1  0  0  0  0
  7 10  2  0  0  0  0
  7 18  1  0  0  0  0
  8 21  1  0  0  0  0
  9 21  2  0  0  0  0
 10 22  1  0  0  0  0
 11 12  2  0  0  0  0
 11 23  1  0  0  0  0
 12 24  1  0  0  0  0
 13 20  1  0  0  0  0
 13 22  2  0  0  0  0
 14 24  2  0  0  0  0
 14 25  1  0  0  0  0
 15 26  1  0  0  0  0
 16 26  1  0  0  0  0
 16 27  2  0  0  0  0
 16 28  1  0  0  0  0
 17 19  2  0  0  0  0
 17 33  1  0  0  0  0
 18 20  2  0  0  0  0
 18 34  1  0  0  0  0
 19 45  1  0  0  0  0
 20 35  1  0  0  0  0
 21 76  1  0  0  0  0
 22 77  1  0  0  0  0
 23 25  2  0  0  0  0
 23 76  1  0  0  0  0
 24 78  1  0  0  0  0
 25 79  1  0  0  0  0
 26 60  2  0  0  0  0
 27 61  1  0  0  0  0
 27 65  1  0  0  0  0
 28 66  1  0  0  0  0
 28 71  2  0  0  0  0
 29 46  1  0  0  0  0
 29 67  1  0  0  0  0
 29 72  2  0  0  0  0
 30 57  1  0  0  0  0
 30 62  1  0  0  0  0
 30 73  2  0  0  0  0
 31 58  1  0  0  0  0
 31 68  1  0  0  0  0
 31 74  2  0  0  0  0
 32 63  1  0  0  0  0
 32 64  1  0  0  0  0
 32 75  2  0  0  0  0
 33 36  1  0  0  0  0
 34 46  1  0  0  0  0
 35 62  1  0  0  0  0
 36 38  1  0  0  0  0
 37 39  1  0  0  0  0
 37 42  1  0  0  0  0
 38 45  1  0  0  0  0
 39 47  1  0  0  0  0
 40 43  1  0  0  0  0
 40 49  1  0  0  0  0
 41 48  1  0  0  0  0
 41 50  1  0  0  0  0
 42 63  1  0  0  0  0
 43 64  1  0  0  0  0
 44 47  1  0  0  0  0
 44 63  1  0  0  0  0
 45 67  1  0  0  0  0
 46 62  1  0  0  0  0
 47 61  1  0  0  0  0
 48 49  1  0  0  0  0
 48 64  1  0  0  0  0
 49 69  1  0  0  0  0
 50 56  1  0  0  0  0
 50 69  1  0  0  0  0
 51 58  1  0  0  0  0
 52 59  1  0  0  0  0
 53 59  1  0  0  0  0
 54 59  1  0  0  0  0
 55 70  1  0  0  0  0
 56 77  1  0  0  0  0
 57 59  1  0  0  0  0
 57 68  1  0  0  0  0
 58 70  1  0  0  0  0
 60 61  1  0  0  0  0
M  CHG  2  69   1  70   1
M  ISO  4  32 100  56 101  64 100  77 101
M  END
> <Batch ID>
0183

> <Smiles>
CNC(C)C(=O)NC(C(=O)N1Cc2cc([101O:1][101CH2:1]C3CC4C(CC[100N:0]4[100C:0](=O)N4CCCC(n5nc(-c6ccc(Oc7ccc(F)cc7F)cc6)c(C(N)=O)c5N)C4)N3)ccc2CC1C(=O)NC1CCCc2ccccc21)C(C)(C)C

> <Shape>
0.239

> <Color>
0.189

> <Negative vol penalty>
0.000

$$$$

  -OEChem-04052323073D

 84 93  0     1  0  0  0  0  0999 V2000
  -31.4419  -33.0132   27.1664 C   0  0  0  0  0  0  0  0  0  0  0  0
  -31.4607  -31.8808   26.3585 C   0  0  0  0  0  0  0  0  0  0  0  0
  -22.7781  -11.9153   18.7747 C   0  0  0  0  0  0  0  0  0  0  0  0
  -23.2565  -10.0707   20.2599 C   0  0  0  0  0  0  0  0  0  0  0  0
  -30.2758  -33.3645   27.8451 C   0  0  0  0  0  0  0  0  0  0  0  0
  -30.3137  -31.0985   26.2296 C   0  0  0  0  0  0  0  0  0  0  0  0
  -28.4578  -28.0805   21.2342 C   0  0  0  0  0  0  0  0  0  0  0  0
  -21.7567  -11.1731   18.1819 C   0  0  0  0  0  0  0  0  0  0  0  0
  -22.2350   -9.3285   19.6671 C   0  0  0  0  0  0  0  0  0  0  0  0
  -28.5760  -26.7466   20.8462 C   0  0  0  0  0  0  0  0  0  0  0  0
  -18.5604  -10.3262   18.8885 C   0  0  0  0  0  0  0  0  0  0  0  0
  -17.3431  -10.9671   18.6584 C   0  0  0  0  0  0  0  0  0  0  0  0
  -26.3676  -26.3057   21.7110 C   0  0  0  0  0  0  0  0  0  0  0  0
  -17.5654  -10.5394   16.2910 C   0  0  0  0  0  0  0  0  0  0  0  0
  -28.9236  -21.7465   20.6469 C   0  0  0  0  0  0  0  0  0  0  0  0
  -28.5480  -21.1287   18.0770 C   0  0  0  0  0  0  0  0  0  0  0  0
  -23.5281  -11.3640   19.8137 C   0  0  0  0  0  0  0  0  0  0  0  0
  -24.4757  -12.9929   21.5331 C   0  0  0  0  0  0  0  0  0  0  0  0
  -29.1110  -32.5915   27.7169 C   0  0  0  0  0  0  0  0  0  0  0  0
  -27.2961  -28.5353   21.8744 C   0  0  0  0  0  0  0  0  0  0  0  0
  -29.1313  -31.4391   26.9083 C   0  0  0  0  0  0  0  0  0  0  0  0
  -26.2362  -27.6464   22.1038 C   0  0  0  0  0  0  0  0  0  0  0  0
  -21.4851   -9.8797   18.6281 C   0  0  0  0  0  0  0  0  0  0  0  0
  -27.5320  -25.8583   21.0872 C   0  0  0  0  0  0  0  0  0  0  0  0
  -19.2803   -9.7920   17.8198 C   0  0  0  0  0  0  0  0  0  0  0  0
  -16.8455  -11.0737   17.3597 C   0  0  0  0  0  0  0  0  0  0  0  0
  -18.7828   -9.8986   16.5211 C   0  0  0  0  0  0  0  0  0  0  0  0
  -24.5837  -12.1300   20.4261 C   0  0  0  0  0  0  0  0  0  0  0  0
  -28.7945  -22.7299   19.6910 C   0  0  0  0  0  0  0  0  0  0  0  0
  -28.6779  -20.1452   19.0327 C   0  0  0  0  0  0  0  0  0  0  0  0
  -25.7491  -13.4726   21.7201 C   0  0  0  0  0  0  0  0  0  0  0  0
  -23.3271  -13.3307   22.3219 C   0  0  0  0  0  0  0  0  0  0  0  0
  -26.6495  -29.7926   24.7213 C   0  0  0  0  0  0  0  0  0  0  0  0
  -23.6858  -30.1566   23.4540 C   0  0  0  0  0  0  0  0  0  0  0  0
  -21.3716  -29.1437   21.1592 C   0  0  0  0  0  0  0  0  0  0  0  0
  -30.2498  -14.9661   18.1969 C   0  0  0  0  0  0  0  0  0  0  0  0
  -27.8882  -32.9846   28.5074 C   0  0  0  0  0  0  0  0  0  0  0  0
  -27.1734  -29.9833   22.2626 C   0  0  0  0  0  0  0  0  0  0  0  0
  -24.9597  -28.0893   22.7694 C   0  0  0  0  0  0  0  0  0  0  0  0
  -26.6068  -32.3122   28.0215 C   0  0  0  0  0  0  0  0  0  0  0  0
  -30.2790  -12.0015   20.4094 C   0  0  0  0  0  0  0  0  0  0  0  0
  -26.8369  -30.8203   27.8020 C   0  0  0  0  0  0  0  0  0  0  0  0
  -28.7917  -11.7758   20.6802 C   0  0  0  0  0  0  0  0  0  0  0  0
  -30.5156  -12.6698   19.0578 C   0  0  0  0  0  0  0  0  0  0  0  0
  -29.0551  -18.4470   17.2804 C   0  0  0  0  0  0  0  0  0  0  0  0
  -30.0151  -17.2659   17.3699 C   0  0  0  0  0  0  0  0  0  0  0  0
  -28.2747  -13.7051   19.1371 C   0  0  0  0  0  0  0  0  0  0  0  0
  -28.2211  -16.3644   18.8348 C   0  0  0  0  0  0  0  0  0  0  0  0
  -27.8999  -30.5789   26.7235 C   0  0  1  0  0  0  0  0  0  0  0  0
  -26.1512  -30.2205   23.3699 C   0  0  1  0  0  0  0  0  0  0  0  0
  -27.9985  -13.0841   20.5140 C   0  0  1  0  0  0  0  0  0  0  0  0
  -28.2022  -17.7335   19.5440 C   0  0  2  0  0  0  0  0  0  0  0  0
  -26.7859  -17.9703   20.0826 C   0  0  0  0  0  0  0  0  0  0  0  0
  -19.0277  -29.6040   20.3902 C   0  0  0  0  0  0  0  0  0  0  0  0
  -22.5983  -28.6781   25.8915 C   0  0  0  0  0  0  0  0  0  0  0  0
  -20.4567  -28.3348   24.6409 C   0  0  0  0  0  0  0  0  0  0  0  0
  -21.2333  -30.6455   25.1700 C   0  0  0  0  0  0  0  0  0  0  0  0
  -22.2855  -29.8960   18.4467 C   0  0  0  0  0  0  0  0  0  0  0  0
  -28.8614  -24.1676   20.0723 C   0  0  0  0  0  0  0  0  0  1  0  0
  -22.4376  -29.3096   23.3932 C   0  0  1  0  0  0  0  0  0  0  0  0
  -20.5007  -29.9271   20.1937 C   0  0  2  0  0  0  0  0  0  0  0  0
  -21.7062  -29.2329   24.7631 C   0  0  0  0  0  0  0  0  0  0  0  0
  -28.6040  -22.4387   18.3889 N   0  0  0  0  0  0  0  0  0  0  0  0
  -28.8679  -20.4365   20.3349 N   0  0  0  0  0  0  0  0  0  0  0  0
  -25.8274  -12.0634   19.9436 N   0  0  0  0  0  0  0  0  0  0  0  0
  -26.5126  -12.8907   20.7512 N   0  0  0  0  0  0  0  0  0  0  0  0
  -28.6083  -18.8141   18.6256 N   0  0  3  0  0  0  0  0  0  0  0  0
  -24.8904  -29.5134   23.1361 N   0  0  0  0  0  0  0  0  0  0  0  0
  -29.7161  -13.8867   18.9164 N   0  0  0  0  0  0  0  0  0  0  0  0
  -29.4653  -16.1268   18.0970 N   0  0  0  0  0  0  0  0  0  0  0  0
  -26.2789  -14.3312   22.6170 N   0  0  0  0  0  0  0  0  0  0  0  0
  -22.0958  -12.7475   21.9930 N   0  0  0  0  0  0  0  0  0  0  0  0
  -27.3366  -30.7772   25.4053 N   0  0  0  0  0  0  0  0  0  0  0  0
  -21.6253  -29.8567   22.3119 N   0  0  0  0  0  0  0  0  0  0  0  0
  -20.8688  -29.6051   18.7860 N   0  3  0  0  0  0  0  0  0  0  0  0
  -23.3874  -14.1387   23.2795 O   0  0  0  0  0  0  0  0  0  0  0  0
  -26.4258  -28.6539   25.1150 O   0  0  0  0  0  0  0  0  0  0  0  0
  -23.5944  -31.3468   23.7648 O   0  0  0  0  0  0  0  0  0  0  0  0
  -21.7825  -28.0111   20.9168 O   0  0  0  0  0  0  0  0  0  0  0  0
  -31.3755  -14.9048   17.6852 O   0  0  0  0  0  0  0  0  0  0  0  0
  -20.4883   -9.1553   18.0500 O   0  0  0  0  0  0  0  0  0  0  0  0
  -27.6458  -24.5471   20.7076 O   0  0  0  0  0  0  0  0  0  1  0  0
  -15.6758  -11.6878   17.1390 F   0  0  0  0  0  0  0  0  0  0  0  0
  -19.4693   -9.3863   15.4905 F   0  0  0  0  0  0  0  0  0  0  0  0
  1  2  1  0  0  0  0
  1  5  2  0  0  0  0
  2  6  2  0  0  0  0
  3  8  2  0  0  0  0
  3 17  1  0  0  0  0
  4  9  1  0  0  0  0
  4 17  2  0  0  0  0
  5 19  1  0  0  0  0
  6 21  1  0  0  0  0
  7 10  2  0  0  0  0
  7 20  1  0  0  0  0
  8 23  1  0  0  0  0
  9 23  2  0  0  0  0
 10 24  1  0  0  0  0
 11 12  2  0  0  0  0
 11 25  1  0  0  0  0
 12 26  1  0  0  0  0
 13 22  1  0  0  0  0
 13 24  2  0  0  0  0
 14 26  2  0  0  0  0
 14 27  1  0  0  0  0
 15 29  1  0  0  0  0
 15 64  2  0  0  0  0
 16 30  2  0  0  0  0
 16 63  1  0  0  0  0
 17 28  1  0  0  0  0
 18 28  1  0  0  0  0
 18 31  2  0  0  0  0
 18 32  1  0  0  0  0
 19 21  2  0  0  0  0
 19 37  1  0  0  0  0
 20 22  2  0  0  0  0
 20 38  1  0  0  0  0
 21 49  1  0  0  0  0
 22 39  1  0  0  0  0
 23 81  1  0  0  0  0
 24 82  1  0  0  0  0
 25 27  2  0  0  0  0
 25 81  1  0  0  0  0
 26 83  1  0  0  0  0
 27 84  1  0  0  0  0
 28 65  2  0  0  0  0
 29 59  1  0  0  0  0
 29 63  2  0  0  0  0
 30 64  1  0  0  0  0
 30 67  1  0  0  0  0
 31 66  1  0  0  0  0
 31 71  1  0  0  0  0
 32 72  1  0  0  0  0
 32 76  2  0  0  0  0
 33 50  1  0  0  0  0
 33 73  1  0  0  0  0
 33 77  2  0  0  0  0
 34 60  1  0  0  0  0
 34 68  1  0  0  0  0
 34 78  2  0  0  0  0
 35 61  1  0  0  0  0
 35 74  1  0  0  0  0
 35 79  2  0  0  0  0
 36 69  1  0  0  0  0
 36 70  1  0  0  0  0
 36 80  2  0  0  0  0
 37 40  1  0  0  0  0
 38 50  1  0  0  0  0
 39 68  1  0  0  0  0
 40 42  1  0  0  0  0
 41 43  1  0  0  0  0
 41 44  1  0  0  0  0
 42 49  1  0  0  0  0
 43 51  1  0  0  0  0
 44 69  1  0  0  0  0
 45 46  1  0  0  0  0
 45 67  1  0  0  0  0
 46 70  1  0  0  0  0
 47 51  1  0  0  0  0
 47 69  1  0  0  0  0
 48 52  1  0  0  0  0
 48 70  1  0  0  0  0
 49 73  1  0  0  0  0
 50 68  1  0  0  0  0
 51 66  1  0  0  0  0
 52 53  1  0  0  0  0
 52 67  1  0  0  0  0
 54 61  1  0  0  0  0
 55 62  1  0  0  0  0
 56 62  1  0  0  0  0
 57 62  1  0  0  0  0
 58 75  1  0  0  0  0
 59 82  1  0  0  0  0
 60 62  1  0  0  0  0
 60 74  1  0  0  0  0
 61 75  1  0  0  0  0
 65 66  1  0  0  0  0
M  CHG  1  75   1
M  ISO  4  36 100  59 101  70 100  82 101
M  END
> <Batch ID>
0183

> <Smiles>
CNC(C)C(=O)NC(C(=O)N1Cc2cc([101O:1][101CH2:1]c3cnc(N4CC[100N:0]([100C:0](=O)N5CCCC(n6nc(-c7ccc(Oc8ccc(F)cc8F)cc7)c(C(N)=O)c6N)C5)CC4C)cn3)ccc2CC1C(=O)NC1CCCc2ccccc21)C(C)(C)C

> <Shape>
0.243

> <Color>
0.117

> <Negative vol penalty>
0.000

$$$$

  -OEChem-04052323073D

 84 93  0     1  0  0  0  0  0999 V2000
  -27.6322  -32.5808   27.1214 C   0  0  0  0  0  0  0  0  0  0  0  0
  -27.8781  -31.5645   26.2037 C   0  0  0  0  0  0  0  0  0  0  0  0
  -25.5989  -12.9446   19.4389 C   0  0  0  0  0  0  0  0  0  0  0  0
  -24.9012  -14.2097   21.3753 C   0  0  0  0  0  0  0  0  0  0  0  0
  -26.3281  -32.8381   27.5421 C   0  0  0  0  0  0  0  0  0  0  0  0
  -26.8199  -30.8041   25.7070 C   0  0  0  0  0  0  0  0  0  0  0  0
  -27.0987  -30.1265   20.6962 C   0  0  0  0  0  0  0  0  0  0  0  0
  -25.3555  -11.7563   20.1275 C   0  0  0  0  0  0  0  0  0  0  0  0
  -24.6577  -13.0214   22.0639 C   0  0  0  0  0  0  0  0  0  0  0  0
  -27.9969  -29.1663   20.2325 C   0  0  0  0  0  0  0  0  0  0  0  0
  -22.2415  -10.6615   22.1791 C   0  0  0  0  0  0  0  0  0  0  0  0
  -21.0532  -10.5656   22.9031 C   0  0  0  0  0  0  0  0  0  0  0  0
  -26.1796  -27.6016   19.9707 C   0  0  0  0  0  0  0  0  0  0  0  0
  -22.3176  -10.2252   24.9334 C   0  0  0  0  0  0  0  0  0  0  0  0
  -31.0450  -26.2539   17.4883 C   0  0  0  0  0  0  0  0  0  0  0  0
  -25.3719  -14.1714   20.0628 C   0  0  0  0  0  0  0  0  0  0  0  0
  -24.7161  -16.1210   18.5539 C   0  0  0  0  0  0  0  0  0  0  0  0
  -25.2524  -32.0868   27.0430 C   0  0  0  0  0  0  0  0  0  0  0  0
  -25.7335  -29.8275   20.8111 C   0  0  0  0  0  0  0  0  0  0  0  0
  -25.5004  -31.0507   26.1225 C   0  0  0  0  0  0  0  0  0  0  0  0
  -25.2658  -28.5607   20.4336 C   0  0  0  0  0  0  0  0  0  0  0  0
  -24.8848  -11.7947   21.4400 C   0  0  0  0  0  0  0  0  0  0  0  0
  -27.5378  -27.9027   19.8724 C   0  0  0  0  0  0  0  0  0  0  0  0
  -23.4680  -10.5391   22.8322 C   0  0  0  0  0  0  0  0  0  0  0  0
  -21.0912  -10.3475   24.2803 C   0  0  0  0  0  0  0  0  0  0  0  0
  -23.5060  -10.3210   24.2094 C   0  0  0  0  0  0  0  0  0  0  0  0
  -25.6237  -15.3992   19.3522 C   0  0  0  0  0  0  0  0  0  0  0  0
  -31.5687  -24.1685   19.0707 C   0  0  0  0  0  0  0  0  0  0  0  0
  -30.5878  -26.2148   18.7871 C   0  0  0  0  0  0  0  0  0  0  0  0
  -32.0251  -24.2073   17.7716 C   0  0  0  0  0  0  0  0  0  0  0  0
  -25.4359  -17.2023   18.1077 C   0  0  0  0  0  0  0  0  0  0  0  0
  -23.3451  -15.8391   18.2434 C   0  0  0  0  0  0  0  0  0  0  0  0
  -23.6593  -29.7023   23.2164 C   0  0  0  0  0  0  0  0  0  0  0  0
  -21.5174  -29.2092   20.8307 C   0  0  0  0  0  0  0  0  0  0  0  0
  -20.9260  -28.1464   17.6421 C   0  0  0  0  0  0  0  0  0  0  0  0
  -30.3595  -19.6263   20.7263 C   0  0  0  0  0  0  0  0  0  0  0  0
  -23.8655  -32.3707   27.5633 C   0  0  0  0  0  0  0  0  0  0  0  0
  -24.7737  -30.8830   21.2877 C   0  0  0  0  0  0  0  0  0  0  0  0
  -23.8069  -28.1961   20.5191 C   0  0  0  0  0  0  0  0  0  0  0  0
  -22.7574  -31.7660   26.7049 C   0  0  0  0  0  0  0  0  0  0  0  0
  -30.1587  -17.9682   17.3381 C   0  0  0  0  0  0  0  0  0  0  0  0
  -23.0815  -30.3163   26.3583 C   0  0  0  0  0  0  0  0  0  0  0  0
  -28.6704  -17.6558   17.1965 C   0  0  0  0  0  0  0  0  0  0  0  0
  -30.4151  -19.1877   18.2178 C   0  0  0  0  0  0  0  0  0  0  0  0
  -31.3234  -21.6514   19.4442 C   0  0  0  0  0  0  0  0  0  0  0  0
  -28.7636  -18.0583   19.7073 C   0  0  0  0  0  0  0  0  0  0  0  0
  -31.2855  -21.6318   21.8458 C   0  0  0  0  0  0  0  0  0  0  0  0
  -24.3762  -30.2205   25.5421 C   0  0  1  0  0  0  0  0  0  0  0  0
  -31.8605  -22.9939   19.9726 C   0  0  2  0  0  0  0  0  0  0  0  0
  -23.4798  -30.3034   21.8511 C   0  0  1  0  0  0  0  0  0  0  0  0
  -27.8658  -17.9999   18.4630 C   0  0  2  0  0  0  0  0  0  0  0  0
  -31.2330  -23.0713   21.3655 C   0  0  2  0  0  0  0  0  0  0  0  0
  -32.8284  -23.0912   17.1963 C   0  0  0  0  0  0  0  0  0  0  0  0
  -19.0691  -27.8269   15.9846 C   0  0  0  0  0  0  0  0  0  0  0  0
  -20.6153  -26.7078   22.3272 C   0  0  0  0  0  0  0  0  0  0  0  0
  -19.4841  -25.9447   20.2281 C   0  0  0  0  0  0  0  0  0  0  0  0
  -18.7576  -28.0579   21.3368 C   0  0  0  0  0  0  0  0  0  0  0  0
  -22.1478  -30.0481   15.7317 C   0  0  0  0  0  0  0  0  0  0  0  0
  -29.7866  -27.3409   19.3400 C   0  0  0  0  0  0  0  0  0  1  0  0
  -20.9718  -27.9955   20.1179 C   0  0  1  0  0  0  0  0  0  0  0  0
  -20.1438  -28.7710   16.5009 C   0  0  2  0  0  0  0  0  0  0  0  0
  -19.9850  -27.1824   21.0026 C   0  0  0  0  0  0  0  0  0  0  0  0
  -31.7718  -25.2508   16.9572 N   0  0  0  0  0  0  0  0  0  0  0  0
  -26.8281  -15.9736   19.4115 N   0  0  0  0  0  0  0  0  0  0  0  0
  -30.8415  -25.1714   19.6017 N   0  0  0  0  0  0  0  0  0  0  0  0
  -26.6824  -17.0677   18.6447 N   0  0  0  0  0  0  0  0  0  0  0  0
  -22.9087  -29.2602   20.9970 N   0  0  0  0  0  0  0  0  0  0  0  0
  -29.8352  -19.0526   19.5592 N   0  0  0  0  0  0  0  0  0  0  0  0
  -31.0322  -20.8453   20.6377 N   0  0  0  0  0  0  0  0  0  0  0  0
  -25.1178  -18.2457   17.3124 N   0  0  0  0  0  0  0  0  0  0  0  0
  -22.7607  -14.6861   18.7852 N   0  0  0  0  0  0  0  0  0  0  0  0
  -24.1332  -30.5895   24.1639 N   0  0  0  0  0  0  0  0  0  0  0  0
  -20.3939  -28.4809   18.8694 N   0  0  0  0  0  0  0  0  0  0  0  0
  -32.0089  -23.9538   22.2588 N   0  3  0  0  0  0  0  0  0  0  0  0
  -21.0556  -29.1079   15.3712 N   0  3  0  0  0  0  0  0  0  0  0  0
  -22.6632  -16.5788   17.4941 O   0  0  0  0  0  0  0  0  0  0  0  0
  -23.3865  -28.5214   23.3973 O   0  0  0  0  0  0  0  0  0  0  0  0
  -20.7386  -30.0834   21.2192 O   0  0  0  0  0  0  0  0  0  0  0  0
  -21.9085  -27.4300   17.4626 O   0  0  0  0  0  0  0  0  0  0  0  0
  -30.1974  -19.0732   21.8242 O   0  0  0  0  0  0  0  0  0  0  0  0
  -24.6469  -10.6353   22.1122 O   0  0  0  0  0  0  0  0  0  0  0  0
  -28.4182  -26.9572   19.4172 O   0  0  0  0  0  0  0  0  0  1  0  0
  -19.9500  -10.2570   24.9756 F   0  0  0  0  0  0  0  0  0  0  0  0
  -24.6812  -10.2039   24.8426 F   0  0  0  0  0  0  0  0  0  0  0  0
  1  2  1  0  0  0  0
  1  5  2  0  0  0  0
  2  6  2  0  0  0  0
  3  8  2  0  0  0  0
  3 16  1  0  0  0  0
  4  9  1  0  0  0  0
  4 16  2  0  0  0  0
  5 18  1  0  0  0  0
  6 20  1  0  0  0  0
  7 10  2  0  0  0  0
  7 19  1  0  0  0  0
  8 22  1  0  0  0  0
  9 22  2  0  0  0  0
 10 23  1  0  0  0  0
 11 12  2  0  0  0  0
 11 24  1  0  0  0  0
 12 25  1  0  0  0  0
 13 21  1  0  0  0  0
 13 23  2  0  0  0  0
 14 25  2  0  0  0  0
 14 26  1  0  0  0  0
 15 29  1  0  0  0  0
 15 63  2  0  0  0  0
 16 27  1  0  0  0  0
 17 27  1  0  0  0  0
 17 31  2  0  0  0  0
 17 32  1  0  0  0  0
 18 20  2  0  0  0  0
 18 37  1  0  0  0  0
 19 21  2  0  0  0  0
 19 38  1  0  0  0  0
 20 48  1  0  0  0  0
 21 39  1  0  0  0  0
 22 81  1  0  0  0  0
 23 82  1  0  0  0  0
 24 26  2  0  0  0  0
 24 81  1  0  0  0  0
 25 83  1  0  0  0  0
 26 84  1  0  0  0  0
 27 64  2  0  0  0  0
 28 30  2  0  0  0  0
 28 49  1  0  0  0  0
 28 65  1  0  0  0  0
 29 59  1  0  0  0  0
 29 65  2  0  0  0  0
 30 53  1  0  0  0  0
 30 63  1  0  0  0  0
 31 66  1  0  0  0  0
 31 70  1  0  0  0  0
 32 71  1  0  0  0  0
 32 76  2  0  0  0  0
 33 50  1  0  0  0  0
 33 72  1  0  0  0  0
 33 77  2  0  0  0  0
 34 60  1  0  0  0  0
 34 67  1  0  0  0  0
 34 78  2  0  0  0  0
 35 61  1  0  0  0  0
 35 73  1  0  0  0  0
 35 79  2  0  0  0  0
 36 68  1  0  0  0  0
 36 69  1  0  0  0  0
 36 80  2  0  0  0  0
 37 40  1  0  0  0  0
 38 50  1  0  0  0  0
 39 67  1  0  0  0  0
 40 42  1  0  0  0  0
 41 43  1  0  0  0  0
 41 44  1  0  0  0  0
 42 48  1  0  0  0  0
 43 51  1  0  0  0  0
 44 68  1  0  0  0  0
 45 49  1  0  0  0  0
 45 69  1  0  0  0  0
 46 51  1  0  0  0  0
 46 68  1  0  0  0  0
 47 52  1  0  0  0  0
 47 69  1  0  0  0  0
 48 72  1  0  0  0  0
 49 52  1  0  0  0  0
 50 67  1  0  0  0  0
 51 66  1  0  0  0  0
 52 74  1  0  0  0  0
 54 61  1  0  0  0  0
 55 62  1  0  0  0  0
 56 62  1  0  0  0  0
 57 62  1  0  0  0  0
 58 75  1  0  0  0  0
 59 82  1  0  0  0  0
 60 62  1  0  0  0  0
 60 73  1  0  0  0  0
 61 75  1  0  0  0  0
 64 66  1  0  0  0  0
M  CHG  2  74   1  75   1
M  ISO  4  36 100  59 101  69 100  82 101
M  END
> <Batch ID>
0183

> <Smiles>
CNC(C)C(=O)NC(C(=O)N1Cc2cc([101O:1][101CH2:1]c3cnc(C)c(C4C[100N:0]([100C:0](=O)N5CCCC(n6nc(-c7ccc(Oc8ccc(F)cc8F)cc7)c(C(N)=O)c6N)C5)CC4N)n3)ccc2CC1C(=O)NC1CCCc2ccccc21)C(C)(C)C

> <Shape>
0.250

> <Color>
0.084

> <Negative vol penalty>
0.000

$$$$

  -OEChem-04052323073D

 79 87  0     1  0  0  0  0  0999 V2000
  -29.5321  -11.3490   19.2118 C   0  0  0  0  0  0  0  0  0  0  0  0
  -29.1458  -12.1920   18.1747 C   0  0  0  0  0  0  0  0  0  0  0  0
  -24.1651  -29.8287   20.7887 C   0  0  0  0  0  0  0  0  0  0  0  0
  -24.3743  -28.6986   22.9139 C   0  0  0  0  0  0  0  0  0  0  0  0
  -29.4796  -11.7987   20.5304 C   0  0  0  0  0  0  0  0  0  0  0  0
  -28.7056  -13.4849   18.4558 C   0  0  0  0  0  0  0  0  0  0  0  0
  -29.5868  -18.4963   15.0477 C   0  0  0  0  0  0  0  0  0  0  0  0
  -23.9419  -31.0351   21.4522 C   0  0  0  0  0  0  0  0  0  0  0  0
  -24.1511  -29.9051   23.5774 C   0  0  0  0  0  0  0  0  0  0  0  0
  -28.7751  -19.1606   14.1292 C   0  0  0  0  0  0  0  0  0  0  0  0
  -23.9948  -32.7535   25.8313 C   0  0  0  0  0  0  0  0  0  0  0  0
  -24.8241  -33.0650   26.9086 C   0  0  0  0  0  0  0  0  0  0  0  0
  -28.0715  -20.6842   15.8620 C   0  0  0  0  0  0  0  0  0  0  0  0
  -26.7484  -32.9875   25.4498 C   0  0  0  0  0  0  0  0  0  0  0  0
  -24.3812  -28.6604   21.5195 C   0  0  0  0  0  0  0  0  0  0  0  0
  -25.8504  -26.8820   20.4302 C   0  0  0  0  0  0  0  0  0  0  0  0
  -29.0478  -13.1011   20.8271 C   0  0  0  0  0  0  0  0  0  0  0  0
  -29.6386  -18.9149   16.3850 C   0  0  0  0  0  0  0  0  0  0  0  0
  -28.6461  -13.9520   19.7798 C   0  0  0  0  0  0  0  0  0  0  0  0
  -28.8865  -20.0251   16.7949 C   0  0  0  0  0  0  0  0  0  0  0  0
  -23.9350  -31.0733   22.8466 C   0  0  0  0  0  0  0  0  0  0  0  0
  -28.0151  -20.2530   14.5369 C   0  0  0  0  0  0  0  0  0  0  0  0
  -24.5422  -32.5589   24.5631 C   0  0  0  0  0  0  0  0  0  0  0  0
  -26.2009  -33.1820   26.7179 C   0  0  0  0  0  0  0  0  0  0  0  0
  -25.9190  -32.6759   24.3724 C   0  0  0  0  0  0  0  0  0  0  0  0
  -24.6113  -27.4137   20.8347 C   0  0  0  0  0  0  0  0  0  0  0  0
  -25.5322  -25.6892   19.8282 C   0  0  0  0  0  0  0  0  0  0  0  0
  -27.1711  -27.4184   20.5849 C   0  0  0  0  0  0  0  0  0  0  0  0
  -23.5073  -19.7346   13.4180 C   0  0  0  0  0  0  0  0  0  0  0  0
  -28.9108  -17.5885   19.1805 C   0  0  0  0  0  0  0  0  0  0  0  0
  -30.2158  -20.3096   20.3699 C   0  0  0  0  0  0  0  0  0  0  0  0
  -31.0290  -23.5876   19.8798 C   0  0  0  0  0  0  0  0  0  0  0  0
  -22.4142  -22.9179   16.2295 C   0  0  0  0  0  0  0  0  0  0  0  0
  -28.9632  -13.5265   22.2716 C   0  0  0  0  0  0  0  0  0  0  0  0
  -30.5396  -18.2042   17.3573 C   0  0  0  0  0  0  0  0  0  0  0  0
  -28.9224  -20.5267   18.2146 C   0  0  0  0  0  0  0  0  0  0  0  0
  -28.8406  -15.0369   22.4556 C   0  0  0  0  0  0  0  0  0  0  0  0
  -21.2131  -23.0931   19.7136 C   0  0  0  0  0  0  0  0  0  0  0  0
  -27.7923  -15.6071   21.5054 C   0  0  0  0  0  0  0  0  0  0  0  0
  -22.0658  -24.2339   20.2609 C   0  0  0  0  0  0  0  0  0  0  0  0
  -21.1195  -19.8629   14.3456 C   0  0  0  0  0  0  0  0  0  0  0  0
  -20.8640  -23.2941   18.2396 C   0  0  0  0  0  0  0  0  0  0  0  0
  -22.9097  -24.6567   17.9191 C   0  0  0  0  0  0  0  0  0  0  0  0
  -28.1864  -15.3697   20.0426 C   0  0  1  0  0  0  0  0  0  0  0  0
  -22.5897  -19.9737   14.5709 C   0  0  2  0  0  0  0  0  0  0  0  0
  -30.1212  -18.3986   18.8115 C   0  0  1  0  0  0  0  0  0  0  0  0
  -23.3114  -24.4475   19.3872 C   0  0  1  0  0  0  0  0  0  0  0  0
  -21.7467  -21.2109   14.5644 C   0  0  2  0  0  0  0  0  0  0  0  0
  -32.0515  -25.5594   21.0476 C   0  0  0  0  0  0  0  0  0  0  0  0
  -27.6387  -20.7040   21.9551 C   0  0  0  0  0  0  0  0  0  0  0  0
  -28.3150  -23.0855   22.3285 C   0  0  0  0  0  0  0  0  0  0  0  0
  -29.7314  -21.2344   23.2174 C   0  0  0  0  0  0  0  0  0  0  0  0
  -33.2227  -23.7688   17.9015 C   0  0  0  0  0  0  0  0  0  0  0  0
  -25.3709  -20.7418   12.1162 C   0  0  0  0  0  0  0  0  0  0  0  0
  -26.6846  -20.1304   12.5695 C   0  0  0  0  0  0  0  0  0  1  0  0
  -29.6910  -21.6788   20.7289 C   0  0  1  0  0  0  0  0  0  0  0  0
  -32.3081  -24.3593   20.1495 C   0  0  2  0  0  0  0  0  0  0  0  0
  -28.8417  -21.6653   22.0311 C   0  0  0  0  0  0  0  0  0  0  0  0
  -23.5825  -26.6236   20.5163 N   0  0  0  0  0  0  0  0  0  0  0  0
  -24.1746  -25.5833   19.9053 N   0  0  0  0  0  0  0  0  0  0  0  0
  -29.8139  -19.7946   19.1293 N   0  0  0  0  0  0  0  0  0  0  0  0
  -22.0639  -23.5605   17.4307 N   0  0  0  0  0  0  0  0  0  0  0  0
  -26.2840  -24.7313   19.2455 N   0  0  0  0  0  0  0  0  0  0  0  0
  -27.3188  -28.6553   21.2273 N   0  0  0  0  0  0  0  0  0  0  0  0
  -29.2021  -16.3157   19.6329 N   0  0  0  0  0  0  0  0  0  0  0  0
  -24.3987  -20.7673   13.1765 N   0  0  0  0  0  0  0  0  0  0  0  0
  -30.8525  -22.5600   20.7821 N   0  0  0  0  0  0  0  0  0  0  0  0
  -21.5257  -21.9477   15.7800 N   0  0  0  0  0  0  0  0  0  0  0  0
  -32.8983  -24.8468   18.8709 N   0  3  0  0  0  0  0  0  0  0  0  0
  -28.1884  -26.8263   20.1514 O   0  0  0  0  0  0  0  0  0  0  0  0
  -23.4225  -18.6886   12.7852 O   0  0  0  0  0  0  0  0  0  0  0  0
  -27.7951  -18.0821   19.0647 O   0  0  0  0  0  0  0  0  0  0  0  0
  -30.9608  -19.7218   21.1580 O   0  0  0  0  0  0  0  0  0  0  0  0
  -30.2611  -23.8705   18.9628 O   0  0  0  0  0  0  0  0  0  0  0  0
  -23.4411  -23.1915   15.5983 O   0  0  0  0  0  0  0  0  0  0  0  0
  -23.7175  -32.2505   23.4944 O   0  0  0  0  0  0  0  0  0  0  0  0
  -27.2215  -20.9028   13.6426 O   0  0  0  0  0  0  0  0  0  1  0  0
  -26.9970  -33.4827   27.7523 F   0  0  0  0  0  0  0  0  0  0  0  0
  -26.4507  -32.4912   23.1562 F   0  0  0  0  0  0  0  0  0  0  0  0
  1  2  1  0  0  0  0
  1  5  2  0  0  0  0
  2  6  2  0  0  0  0
  3  8  2  0  0  0  0
  3 15  1  0  0  0  0
  4  9  1  0  0  0  0
  4 15  2  0  0  0  0
  5 17  1  0  0  0  0
  6 19  1  0  0  0  0
  7 10  2  0  0  0  0
  7 18  1  0  0  0  0
  8 21  1  0  0  0  0
  9 21  2  0  0  0  0
 10 22  1  0  0  0  0
 11 12  2  0  0  0  0
 11 23  1  0  0  0  0
 12 24  1  0  0  0  0
 13 20  1  0  0  0  0
 13 22  2  0  0  0  0
 14 24  2  0  0  0  0
 14 25  1  0  0  0  0
 15 26  1  0  0  0  0
 16 26  1  0  0  0  0
 16 27  2  0  0  0  0
 16 28  1  0  0  0  0
 17 19  2  0  0  0  0
 17 34  1  0  0  0  0
 18 20  2  0  0  0  0
 18 35  1  0  0  0  0
 19 44  1  0  0  0  0
 20 36  1  0  0  0  0
 21 76  1  0  0  0  0
 22 77  1  0  0  0  0
 23 25  2  0  0  0  0
 23 76  1  0  0  0  0
 24 78  1  0  0  0  0
 25 79  1  0  0  0  0
 26 59  2  0  0  0  0
 27 60  1  0  0  0  0
 27 63  1  0  0  0  0
 28 64  1  0  0  0  0
 28 70  2  0  0  0  0
 29 45  1  0  0  0  0
 29 66  1  0  0  0  0
 29 71  2  0  0  0  0
 30 46  1  0  0  0  0
 30 65  1  0  0  0  0
 30 72  2  0  0  0  0
 31 56  1  0  0  0  0
 31 61  1  0  0  0  0
 31 73  2  0  0  0  0
 32 57  1  0  0  0  0
 32 67  1  0  0  0  0
 32 74  2  0  0  0  0
 33 62  1  0  0  0  0
 33 68  1  0  0  0  0
 33 75  2  0  0  0  0
 34 37  1  0  0  0  0
 35 46  1  0  0  0  0
 36 61  1  0  0  0  0
 37 39  1  0  0  0  0
 38 40  1  0  0  0  0
 38 42  1  0  0  0  0
 39 44  1  0  0  0  0
 40 47  1  0  0  0  0
 41 45  1  0  0  0  0
 41 48  1  0  0  0  0
 42 62  1  0  0  0  0
 43 47  1  0  0  0  0
 43 62  1  0  0  0  0
 44 65  1  0  0  0  0
 45 48  1  0  0  0  0
 46 61  1  0  0  0  0
 47 60  1  0  0  0  0
 48 68  1  0  0  0  0
 49 57  1  0  0  0  0
 50 58  1  0  0  0  0
 51 58  1  0  0  0  0
 52 58  1  0  0  0  0
 53 69  1  0  0  0  0
 54 55  1  0  0  0  0
 54 66  1  0  0  0  0
 55 77  1  0  0  0  0
 56 58  1  0  0  0  0
 56 67  1  0  0  0  0
 57 69  1  0  0  0  0
 59 60  1  0  0  0  0
M  CHG  1  69   1
M  ISO  4  33 100  55 101  68 100  77 101
M  END
> <Batch ID>
0183

> <Smiles>
CNC(C)C(=O)NC(C(=O)N1Cc2cc([101O:1][101CH2:1]CNC(=O)C3CC3[100NH:0][100C:0](=O)N3CCCC(n4nc(-c5ccc(Oc6ccc(F)cc6F)cc5)c(C(N)=O)c4N)C3)ccc2CC1C(=O)NC1CCCc2ccccc21)C(C)(C)C

> <Shape>
0.206

> <Color>
0.061

> <Negative vol penalty>
0.000

$$$$

  -OEChem-04052323073D

 85 94  0     1  0  0  0  0  0999 V2000
  -29.8007  -33.7905   15.8427 C   0  0  0  0  0  0  0  0  0  0  0  0
  -30.0192  -32.4514   16.1497 C   0  0  0  0  0  0  0  0  0  0  0  0
  -25.3933  -13.8605   23.3302 C   0  0  0  0  0  0  0  0  0  0  0  0
  -25.0028  -15.3242   21.4481 C   0  0  0  0  0  0  0  0  0  0  0  0
  -29.0972  -34.6024   16.7315 C   0  0  0  0  0  0  0  0  0  0  0  0
  -29.5352  -31.9235   17.3462 C   0  0  0  0  0  0  0  0  0  0  0  0
  -27.4196  -26.2526   18.2792 C   0  0  0  0  0  0  0  0  0  0  0  0
  -25.4821  -14.9682   24.1732 C   0  0  0  0  0  0  0  0  0  0  0  0
  -25.0916  -16.4319   22.2911 C   0  0  0  0  0  0  0  0  0  0  0  0
  -28.0091  -25.1076   18.8132 C   0  0  0  0  0  0  0  0  0  0  0  0
  -27.7756  -17.3242   24.9563 C   0  0  0  0  0  0  0  0  0  0  0  0
  -28.8190  -17.3515   25.8816 C   0  0  0  0  0  0  0  0  0  0  0  0
  -27.0492  -25.6241   20.9651 C   0  0  0  0  0  0  0  0  0  0  0  0
  -27.2160  -17.4560   27.6862 C   0  0  0  0  0  0  0  0  0  0  0  0
  -30.6282  -19.5486   21.8322 C   0  0  0  0  0  0  0  0  0  0  0  0
  -30.7355  -21.7939   21.4119 C   0  0  0  0  0  0  0  0  0  0  0  0
  -25.1537  -14.0385   21.9676 C   0  0  0  0  0  0  0  0  0  0  0  0
  -23.9035  -12.1654   20.7692 C   0  0  0  0  0  0  0  0  0  0  0  0
  -28.5960  -34.0819   17.9350 C   0  0  0  0  0  0  0  0  0  0  0  0
  -26.6481  -27.0993   19.0882 C   0  0  0  0  0  0  0  0  0  0  0  0
  -28.8255  -32.7295   18.2525 C   0  0  0  0  0  0  0  0  0  0  0  0
  -26.4488  -26.7779   20.4384 C   0  0  0  0  0  0  0  0  0  0  0  0
  -25.3312  -16.2539   23.6537 C   0  0  0  0  0  0  0  0  0  0  0  0
  -27.8264  -24.7947   20.1570 C   0  0  0  0  0  0  0  0  0  0  0  0
  -26.4524  -17.3630   25.3959 C   0  0  0  0  0  0  0  0  0  0  0  0
  -28.5392  -17.4174   27.2465 C   0  0  0  0  0  0  0  0  0  0  0  0
  -26.1726  -17.4288   26.7608 C   0  0  0  0  0  0  0  0  0  0  0  0
  -25.0624  -12.8947   21.0961 C   0  0  0  0  0  0  0  0  0  0  0  0
  -29.5836  -19.4319   20.9419 C   0  0  0  0  0  0  0  0  0  0  0  0
  -29.6913  -21.6772   20.5211 C   0  0  0  0  0  0  0  0  0  0  0  0
  -24.3445  -11.1850   19.9143 C   0  0  0  0  0  0  0  0  0  0  0  0
  -22.5494  -12.3570   21.1998 C   0  0  0  0  0  0  0  0  0  0  0  0
  -26.8646  -30.1348   20.0060 C   0  0  0  0  0  0  0  0  0  0  0  0
  -23.9527  -29.5426   21.3068 C   0  0  0  0  0  0  0  0  0  0  0  0
  -21.7366  -27.2526   22.5282 C   0  0  0  0  0  0  0  0  0  0  0  0
  -29.6318  -12.7211   19.5334 C   0  0  0  0  0  0  0  0  0  0  0  0
  -27.8824  -35.0099   18.8859 C   0  0  0  0  0  0  0  0  0  0  0  0
  -25.9969  -28.3164   18.4907 C   0  0  0  0  0  0  0  0  0  0  0  0
  -25.6128  -27.6432   21.3444 C   0  0  0  0  0  0  0  0  0  0  0  0
  -27.0787  -34.2813   19.9599 C   0  0  0  0  0  0  0  0  0  0  0  0
  -28.2909   -9.6050   20.6555 C   0  0  0  0  0  0  0  0  0  0  0  0
  -30.7172  -14.4434   16.5325 C   0  0  0  0  0  0  0  0  0  0  0  0
  -27.9086  -33.1618   20.5802 C   0  0  0  0  0  0  0  0  0  0  0  0
  -27.1391   -9.3091   19.7014 C   0  0  0  0  0  0  0  0  0  0  0  0
  -30.4334  -15.6531   17.4118 C   0  0  0  0  0  0  0  0  0  0  0  0
  -29.4323  -10.2913   19.9211 C   0  0  0  0  0  0  0  0  0  0  0  0
  -29.7578  -13.3998   17.0834 C   0  0  0  0  0  0  0  0  0  0  0  0
  -27.8380  -11.3607   18.3398 C   0  0  0  0  0  0  0  0  0  0  0  0
  -28.2949  -32.1141   19.5291 C   0  0  1  0  0  0  0  0  0  0  0  0
  -25.6556  -29.3815   19.5282 C   0  0  1  0  0  0  0  0  0  0  0  0
  -26.6624  -10.5605   18.9468 C   0  0  2  0  0  0  0  0  0  0  0  0
  -30.1953  -15.0358   18.7927 C   0  0  1  0  0  0  0  0  0  0  0  0
  -19.4538  -27.0736   23.5549 C   0  0  0  0  0  0  0  0  0  0  0  0
  -25.0666  -30.5674   23.9561 C   0  0  0  0  0  0  0  0  0  0  0  0
  -23.1178  -29.4989   25.1089 C   0  0  0  0  0  0  0  0  0  0  0  0
  -22.7363  -31.3173   23.4444 C   0  0  0  0  0  0  0  0  0  0  0  0
  -20.7426  -25.5680   20.3071 C   0  0  0  0  0  0  0  0  0  0  0  0
  -28.9451  -18.0984   20.6869 C   0  0  0  0  0  0  0  0  0  0  0  0
  -29.1788  -22.8721   19.7960 C   0  0  0  0  0  0  0  0  0  1  0  0
  -29.2142  -15.8556   19.6209 C   0  0  0  0  0  0  0  0  0  0  0  0
  -23.4609  -29.0326   22.6399 C   0  0  1  0  0  0  0  0  0  0  0  0
  -20.2566  -27.0426   22.2637 C   0  0  2  0  0  0  0  0  0  0  0  0
  -23.6128  -30.0886   23.7710 C   0  0  0  0  0  0  0  0  0  0  0  0
  -31.2229  -20.7318   22.0832 N   0  0  0  0  0  0  0  0  0  0  0  0
  -26.1574  -12.4182   20.4978 N   0  0  0  0  0  0  0  0  0  0  0  0
  -29.0964  -20.4941   20.2703 N   0  0  0  0  0  0  0  0  0  0  0  0
  -25.6885  -11.3790   19.7863 N   0  0  0  0  0  0  0  0  0  0  0  0
  -25.0022  -28.8257   20.7149 N   0  0  0  0  0  0  0  0  0  0  0  0
  -28.9911  -11.5083   19.2394 N   0  0  0  0  0  0  0  0  0  0  0  0
  -29.7070  -13.6788   18.5195 N   0  0  0  0  0  0  0  0  0  0  0  0
  -23.7099  -10.1846   19.2670 N   0  0  0  0  0  0  0  0  0  0  0  0
  -22.2709  -13.4122   22.0791 N   0  0  0  0  0  0  0  0  0  0  0  0
  -27.1724  -31.2460   19.2445 N   0  0  0  0  0  0  0  0  0  0  0  0
  -22.0906  -28.5812   22.4240 N   0  0  0  0  0  0  0  0  0  0  0  0
  -20.0304  -25.7270   21.6011 N   0  3  0  0  0  0  0  0  0  0  0  0
  -29.7814  -17.2034   19.8374 N   0  3  0  0  0  0  0  0  0  0  0  0
  -21.6168  -11.6045   20.8290 O   0  0  0  0  0  0  0  0  0  0  0  0
  -27.4724  -29.7381   20.9935 O   0  0  0  0  0  0  0  0  0  0  0  0
  -23.4202  -30.5361   20.8057 O   0  0  0  0  0  0  0  0  0  0  0  0
  -22.5014  -26.3308   22.8036 O   0  0  0  0  0  0  0  0  0  0  0  0
  -30.1240  -12.9355   20.6491 O   0  0  0  0  0  0  0  0  0  0  0  0
  -25.4176  -17.3350   24.4761 O   0  0  0  0  0  0  0  0  0  0  0  0
  -28.4050  -23.6707   20.6843 O   0  0  0  0  0  0  0  0  0  1  0  0
  -29.5413  -17.4420   28.1350 F   0  0  0  0  0  0  0  0  0  0  0  0
  -24.9033  -17.4650   27.1892 F   0  0  0  0  0  0  0  0  0  0  0  0
  1  2  1  0  0  0  0
  1  5  2  0  0  0  0
  2  6  2  0  0  0  0
  3  8  2  0  0  0  0
  3 17  1  0  0  0  0
  4  9  1  0  0  0  0
  4 17  2  0  0  0  0
  5 19  1  0  0  0  0
  6 21  1  0  0  0  0
  7 10  2  0  0  0  0
  7 20  1  0  0  0  0
  8 23  1  0  0  0  0
  9 23  2  0  0  0  0
 10 24  1  0  0  0  0
 11 12  2  0  0  0  0
 11 25  1  0  0  0  0
 12 26  1  0  0  0  0
 13 22  1  0  0  0  0
 13 24  2  0  0  0  0
 14 26  2  0  0  0  0
 14 27  1  0  0  0  0
 15 29  2  0  0  0  0
 15 64  1  0  0  0  0
 16 30  1  0  0  0  0
 16 64  2  0  0  0  0
 17 28  1  0  0  0  0
 18 28  1  0  0  0  0
 18 31  2  0  0  0  0
 18 32  1  0  0  0  0
 19 21  2  0  0  0  0
 19 37  1  0  0  0  0
 20 22  2  0  0  0  0
 20 38  1  0  0  0  0
 21 49  1  0  0  0  0
 22 39  1  0  0  0  0
 23 82  1  0  0  0  0
 24 83  1  0  0  0  0
 25 27  2  0  0  0  0
 25 82  1  0  0  0  0
 26 84  1  0  0  0  0
 27 85  1  0  0  0  0
 28 65  2  0  0  0  0
 29 58  1  0  0  0  0
 29 66  1  0  0  0  0
 30 59  1  0  0  0  0
 30 66  2  0  0  0  0
 31 67  1  0  0  0  0
 31 71  1  0  0  0  0
 32 72  1  0  0  0  0
 32 77  2  0  0  0  0
 33 50  1  0  0  0  0
 33 73  1  0  0  0  0
 33 78  2  0  0  0  0
 34 61  1  0  0  0  0
 34 68  1  0  0  0  0
 34 79  2  0  0  0  0
 35 62  1  0  0  0  0
 35 74  1  0  0  0  0
 35 80  2  0  0  0  0
 36 69  1  0  0  0  0
 36 70  1  0  0  0  0
 36 81  2  0  0  0  0
 37 40  1  0  0  0  0
 38 50  1  0  0  0  0
 39 68  1  0  0  0  0
 40 43  1  0  0  0  0
 41 44  1  0  0  0  0
 41 46  1  0  0  0  0
 42 45  1  0  0  0  0
 42 47  1  0  0  0  0
 43 49  1  0  0  0  0
 44 51  1  0  0  0  0
 45 52  1  0  0  0  0
 46 69  1  0  0  0  0
 47 70  1  0  0  0  0
 48 51  1  0  0  0  0
 48 69  1  0  0  0  0
 49 73  1  0  0  0  0
 50 68  1  0  0  0  0
 51 67  1  0  0  0  0
 52 60  1  0  0  0  0
 52 70  1  0  0  0  0
 53 62  1  0  0  0  0
 54 63  1  0  0  0  0
 55 63  1  0  0  0  0
 56 63  1  0  0  0  0
 57 75  1  0  0  0  0
 58 76  1  0  0  0  0
 59 83  1  0  0  0  0
 60 76  1  0  0  0  0
 61 63  1  0  0  0  0
 61 74  1  0  0  0  0
 62 75  1  0  0  0  0
 65 67  1  0  0  0  0
M  CHG  2  75   1  76   1
M  ISO  4  36 100  59 101  70 100  83 101
M  END
> <Batch ID>
0183

> <Smiles>
CNC(C)C(=O)NC(C(=O)N1Cc2cc([101O:1][101CH2:1]c3cncc(CNCC4CCC[100N:0]4[100C:0](=O)N4CCCC(n5nc(-c6ccc(Oc7ccc(F)cc7F)cc6)c(C(N)=O)c5N)C4)n3)ccc2CC1C(=O)NC1CCCc2ccccc21)C(C)(C)C

> <Shape>
0.238

> <Color>
0.072

> <Negative vol penalty>
0.000

$$$$

  -OEChem-04052323073D

 83 92  0     1  0  0  0  0  0999 V2000
  -26.2818  -18.4175   23.8829 C   0  0  0  0  0  0  0  0  0  0  0  0
  -26.6934  -19.4822   23.0877 C   0  0  0  0  0  0  0  0  0  0  0  0
  -24.8540  -13.4307   19.3079 C   0  0  0  0  0  0  0  0  0  0  0  0
  -25.4376  -14.4508   21.4188 C   0  0  0  0  0  0  0  0  0  0  0  0
  -24.9258  -18.2299   24.1475 C   0  0  0  0  0  0  0  0  0  0  0  0
  -25.7490  -20.3594   22.5556 C   0  0  0  0  0  0  0  0  0  0  0  0
  -27.1215  -25.2111   23.0271 C   0  0  0  0  0  0  0  0  0  0  0  0
  -24.8509  -12.1752   19.9155 C   0  0  0  0  0  0  0  0  0  0  0  0
  -25.4345  -13.1953   22.0264 C   0  0  0  0  0  0  0  0  0  0  0  0
  -28.0685  -25.6954   22.1258 C   0  0  0  0  0  0  0  0  0  0  0  0
  -24.3357   -8.7406   20.9897 C   0  0  0  0  0  0  0  0  0  0  0  0
  -23.2768   -7.8812   20.6971 C   0  0  0  0  0  0  0  0  0  0  0  0
  -31.1099  -25.3770   18.8165 C   0  0  0  0  0  0  0  0  0  0  0  0
  -26.3055  -26.7051   20.8252 C   0  0  0  0  0  0  0  0  0  0  0  0
  -21.7178   -9.5005   21.5829 C   0  0  0  0  0  0  0  0  0  0  0  0
  -29.5710  -24.4759   17.2428 C   0  0  0  0  0  0  0  0  0  0  0  0
  -25.1474  -14.5686   20.0595 C   0  0  0  0  0  0  0  0  0  0  0  0
  -24.0647  -16.7516   19.3048 C   0  0  0  0  0  0  0  0  0  0  0  0
  -23.9651  -19.1109   23.6264 C   0  0  0  0  0  0  0  0  0  0  0  0
  -25.7562  -25.4614   22.8280 C   0  0  0  0  0  0  0  0  0  0  0  0
  -24.3788  -20.1827   22.8124 C   0  0  0  0  0  0  0  0  0  0  0  0
  -30.0142  -25.5617   17.9806 C   0  0  0  0  0  0  0  0  0  0  0  0
  -25.3434  -26.2250   21.7269 C   0  0  0  0  0  0  0  0  0  0  0  0
  -31.7204  -24.1298   18.8879 C   0  0  0  0  0  0  0  0  0  0  0  0
  -25.1411  -12.0574   21.2748 C   0  0  0  0  0  0  0  0  0  0  0  0
  -27.6604  -26.4400   21.0231 C   0  0  0  0  0  0  0  0  0  0  0  0
  -24.0857   -9.9800   21.5789 C   0  0  0  0  0  0  0  0  0  0  0  0
  -21.9678   -8.2611   20.9937 C   0  0  0  0  0  0  0  0  0  0  0  0
  -22.7767  -10.3599   21.8755 C   0  0  0  0  0  0  0  0  0  0  0  0
  -25.1513  -15.8657   19.4323 C   0  0  0  0  0  0  0  0  0  0  0  0
  -31.2007  -23.1080   18.1096 C   0  0  0  0  0  0  0  0  0  0  0  0
  -24.5819  -17.8358   18.6388 C   0  0  0  0  0  0  0  0  0  0  0  0
  -22.7090  -16.6074   19.7488 C   0  0  0  0  0  0  0  0  0  0  0  0
  -23.1926  -23.6489   22.3315 C   0  0  0  0  0  0  0  0  0  0  0  0
  -21.6250  -26.4774   22.5860 C   0  0  0  0  0  0  0  0  0  0  0  0
  -21.7287  -29.8796   22.3397 C   0  0  0  0  0  0  0  0  0  0  0  0
  -30.0666  -19.9940   18.2996 C   0  0  0  0  0  0  0  0  0  0  0  0
  -22.5071  -18.8401   23.9010 C   0  0  0  0  0  0  0  0  0  0  0  0
  -24.7494  -24.9546   23.8240 C   0  0  0  0  0  0  0  0  0  0  0  0
  -23.8913  -26.5387   21.4790 C   0  0  0  0  0  0  0  0  0  0  0  0
  -21.6003  -20.0324   23.6073 C   0  0  0  0  0  0  0  0  0  0  0  0
  -27.9920  -19.0234   15.4975 C   0  0  0  0  0  0  0  0  0  0  0  0
  -21.9458  -20.6453   22.2538 C   0  0  0  0  0  0  0  0  0  0  0  0
  -26.9190  -18.1818   16.1907 C   0  0  0  0  0  0  0  0  0  0  0  0
  -29.2940  -27.5612   16.5227 C   0  0  0  0  0  0  0  0  0  0  0  0
  -30.1973  -28.1019   17.5865 C   0  0  0  0  0  0  0  0  0  0  0  0
  -29.3615  -18.8070   16.1348 C   0  0  0  0  0  0  0  0  0  0  0  0
  -28.3338  -18.2220   18.2970 C   0  0  0  0  0  0  0  0  0  0  0  0
  -23.3865  -21.1701   22.2375 C   0  0  1  0  0  0  0  0  0  0  0  0
  -23.3437  -24.8333   23.2436 C   0  0  1  0  0  0  0  0  0  0  0  0
  -26.9221  -18.4134   17.7134 C   0  0  2  0  0  0  0  0  0  0  0  0
  -29.3379  -26.8857   17.8815 C   0  0  0  0  0  0  0  0  0  0  0  0
  -32.8944  -23.9255   19.7814 C   0  0  0  0  0  0  0  0  0  0  0  0
  -20.2811  -31.9164   22.5706 C   0  0  0  0  0  0  0  0  0  0  0  0
  -20.3282  -25.8578   19.8944 C   0  0  0  0  0  0  0  0  0  0  0  0
  -19.6718  -28.2686   19.7344 C   0  0  0  0  0  0  0  0  0  0  0  0
  -18.7854  -26.8570   21.5904 C   0  0  0  0  0  0  0  0  0  0  0  0
  -23.4098  -30.9700   24.5177 C   0  0  0  0  0  0  0  0  0  0  0  0
  -31.8158  -21.7472   18.1464 C   0  0  0  0  0  0  0  0  0  0  0  0
  -28.1665  -27.0645   18.7848 C   0  0  0  0  0  0  0  0  0  1  0  0
  -21.2132  -27.5621   21.6202 C   0  0  1  0  0  0  0  0  0  0  0  0
  -21.2433  -30.9725   23.2748 C   0  0  2  0  0  0  0  0  0  0  0  0
  -20.0269  -27.1290   20.7132 C   0  0  0  0  0  0  0  0  0  0  0  0
  -30.1381  -23.2494   17.2858 N   0  0  0  0  0  0  0  0  0  0  0  0
  -26.2740  -16.3455   18.8906 N   0  0  0  0  0  0  0  0  0  0  0  0
  -25.8956  -17.5446   18.4162 N   0  0  0  0  0  0  0  0  0  0  0  0
  -22.9445  -26.0158   22.4777 N   0  0  0  0  0  0  0  0  0  0  0  0
  -29.3000  -19.0616   17.5810 N   0  0  0  0  0  0  0  0  0  0  0  0
  -24.0365  -19.0002   18.2277 N   0  0  0  0  0  0  0  0  0  0  0  0
  -22.3465  -15.4301   20.4172 N   0  0  0  0  0  0  0  0  0  0  0  0
  -23.4711  -22.4364   22.9330 N   0  0  0  0  0  0  0  0  0  0  0  0
  -20.9463  -28.7476   22.4274 N   0  0  0  0  0  0  0  0  0  0  0  0
  -30.9629  -20.7443   17.5483 N   0  0  0  0  0  0  0  0  0  0  0  0
  -22.3957  -31.7691   23.7829 N   0  3  0  0  0  0  0  0  0  0  0  0
  -21.8408  -17.4893   19.5440 O   0  0  0  0  0  0  0  0  0  0  0  0
  -22.8473  -23.8221   21.1686 O   0  0  0  0  0  0  0  0  0  0  0  0
  -20.8082  -26.0602   23.4109 O   0  0  0  0  0  0  0  0  0  0  0  0
  -22.7021  -30.0177   21.6022 O   0  0  0  0  0  0  0  0  0  0  0  0
  -29.9567  -20.1502   19.5205 O   0  0  0  0  0  0  0  0  0  0  0  0
  -25.1380  -10.8325   21.8681 O   0  0  0  0  0  0  0  0  0  0  0  0
  -28.5826  -26.9134   20.1414 O   0  0  0  0  0  0  0  0  0  1  0  0
  -20.9509   -7.4363   20.7112 F   0  0  0  0  0  0  0  0  0  0  0  0
  -22.5302  -11.5498   22.4405 F   0  0  0  0  0  0  0  0  0  0  0  0
  1  2  1  0  0  0  0
  1  5  2  0  0  0  0
  2  6  2  0  0  0  0
  3  8  2  0  0  0  0
  3 17  1  0  0  0  0
  4  9  1  0  0  0  0
  4 17  2  0  0  0  0
  5 19  1  0  0  0  0
  6 21  1  0  0  0  0
  7 10  2  0  0  0  0
  7 20  1  0  0  0  0
  8 25  1  0  0  0  0
  9 25  2  0  0  0  0
 10 26  1  0  0  0  0
 11 12  2  0  0  0  0
 11 27  1  0  0  0  0
 12 28  1  0  0  0  0
 13 22  2  0  0  0  0
 13 24  1  0  0  0  0
 14 23  1  0  0  0  0
 14 26  2  0  0  0  0
 15 28  2  0  0  0  0
 15 29  1  0  0  0  0
 16 22  1  0  0  0  0
 16 64  2  0  0  0  0
 17 30  1  0  0  0  0
 18 30  1  0  0  0  0
 18 32  2  0  0  0  0
 18 33  1  0  0  0  0
 19 21  2  0  0  0  0
 19 38  1  0  0  0  0
 20 23  2  0  0  0  0
 20 39  1  0  0  0  0
 21 49  1  0  0  0  0
 22 52  1  0  0  0  0
 23 40  1  0  0  0  0
 24 31  2  0  0  0  0
 24 53  1  0  0  0  0
 25 80  1  0  0  0  0
 26 81  1  0  0  0  0
 27 29  2  0  0  0  0
 27 80  1  0  0  0  0
 28 82  1  0  0  0  0
 29 83  1  0  0  0  0
 30 65  2  0  0  0  0
 31 59  1  0  0  0  0
 31 64  1  0  0  0  0
 32 66  1  0  0  0  0
 32 69  1  0  0  0  0
 33 70  1  0  0  0  0
 33 75  2  0  0  0  0
 34 50  1  0  0  0  0
 34 71  1  0  0  0  0
 34 76  2  0  0  0  0
 35 61  1  0  0  0  0
 35 67  1  0  0  0  0
 35 77  2  0  0  0  0
 36 62  1  0  0  0  0
 36 72  1  0  0  0  0
 36 78  2  0  0  0  0
 37 68  1  0  0  0  0
 37 73  1  0  0  0  0
 37 79  2  0  0  0  0
 38 41  1  0  0  0  0
 39 50  1  0  0  0  0
 40 67  1  0  0  0  0
 41 43  1  0  0  0  0
 42 44  1  0  0  0  0
 42 47  1  0  0  0  0
 43 49  1  0  0  0  0
 44 51  1  0  0  0  0
 45 46  1  0  0  0  0
 45 52  1  0  0  0  0
 46 52  1  0  0  0  0
 47 68  1  0  0  0  0
 48 51  1  0  0  0  0
 48 68  1  0  0  0  0
 49 71  1  0  0  0  0
 50 67  1  0  0  0  0
 51 66  1  0  0  0  0
 52 60  1  0  0  0  0
 54 62  1  0  0  0  0
 55 63  1  0  0  0  0
 56 63  1  0  0  0  0
 57 63  1  0  0  0  0
 58 74  1  0  0  0  0
 59 73  1  0  0  0  0
 60 81  1  0  0  0  0
 61 63  1  0  0  0  0
 61 72  1  0  0  0  0
 62 74  1  0  0  0  0
 65 66  1  0  0  0  0
M  CHG  1  74   1
M  ISO  4  37 100  60 101  73 100  81 101
M  END
> <Batch ID>
0183

> <Smiles>
CNC(C)C(=O)NC(C(=O)N1Cc2cc([101O:1][101CH2:1]C3(c4cnc(C[100NH:0][100C:0](=O)N5CCCC(n6nc(-c7ccc(Oc8ccc(F)cc8F)cc7)c(C(N)=O)c6N)C5)c(C)c4)CC3)ccc2CC1C(=O)NC1CCCc2ccccc21)C(C)(C)C

> <Shape>
0.189

> <Color>
0.072

> <Negative vol penalty>
0.000

$$$$

  -OEChem-04052323073D

 85 94  0     1  0  0  0  0  0999 V2000
  -28.9335  -36.8688   18.5666 C   0  0  0  0  0  0  0  0  0  0  0  0
  -28.9186  -35.5077   18.2790 C   0  0  0  0  0  0  0  0  0  0  0  0
  -24.6304   -8.3862   20.5821 C   0  0  0  0  0  0  0  0  0  0  0  0
  -23.0361  -10.2001   20.5128 C   0  0  0  0  0  0  0  0  0  0  0  0
  -28.6785  -37.3085   19.8649 C   0  0  0  0  0  0  0  0  0  0  0  0
  -28.6499  -34.5855   19.2898 C   0  0  0  0  0  0  0  0  0  0  0  0
  -25.6320  -29.2859   18.7310 C   0  0  0  0  0  0  0  0  0  0  0  0
  -23.6176   -7.5109   20.9742 C   0  0  0  0  0  0  0  0  0  0  0  0
  -22.0232   -9.3249   20.9049 C   0  0  0  0  0  0  0  0  0  0  0  0
  -26.0673  -27.9687   18.5926 C   0  0  0  0  0  0  0  0  0  0  0  0
  -21.9473   -6.7460   23.8114 C   0  0  0  0  0  0  0  0  0  0  0  0
  -22.2221   -5.8649   24.8571 C   0  0  0  0  0  0  0  0  0  0  0  0
  -25.8265  -27.6457   20.9711 C   0  0  0  0  0  0  0  0  0  0  0  0
  -21.7969   -3.9923   23.3909 C   0  0  0  0  0  0  0  0  0  0  0  0
  -28.5740  -23.6286   18.8145 C   0  0  0  0  0  0  0  0  0  0  0  0
  -24.3397   -9.7308   20.3515 C   0  0  0  0  0  0  0  0  0  0  0  0
  -25.7865  -10.9379   18.6318 C   0  0  0  0  0  0  0  0  0  0  0  0
  -28.3970  -36.3918   20.8901 C   0  0  0  0  0  0  0  0  0  0  0  0
  -25.3005  -29.7971   19.9940 C   0  0  0  0  0  0  0  0  0  0  0  0
  -28.3922  -35.0133   20.6033 C   0  0  0  0  0  0  0  0  0  0  0  0
  -25.3848  -28.9690   21.1224 C   0  0  0  0  0  0  0  0  0  0  0  0
  -22.3140   -7.9803   21.1356 C   0  0  0  0  0  0  0  0  0  0  0  0
  -26.1674  -27.1492   19.7132 C   0  0  0  0  0  0  0  0  0  0  0  0
  -21.5972   -6.2503   22.5554 C   0  0  0  0  0  0  0  0  0  0  0  0
  -22.1470   -4.4880   24.6469 C   0  0  0  0  0  0  0  0  0  0  0  0
  -21.5221   -4.8735   22.3452 C   0  0  0  0  0  0  0  0  0  0  0  0
  -25.3856  -10.6355   19.9470 C   0  0  0  0  0  0  0  0  0  0  0  0
  -27.3356  -23.9789   18.3234 C   0  0  0  0  0  0  0  0  0  0  0  0
  -26.8610  -21.7736   17.9475 C   0  0  0  0  0  0  0  0  0  0  0  0
  -28.0997  -21.4234   18.4379 C   0  0  0  0  0  0  0  0  0  0  0  0
  -26.8084  -11.8430   18.7838 C   0  0  0  0  0  0  0  0  0  0  0  0
  -25.2804  -10.4448   17.3842 C   0  0  0  0  0  0  0  0  0  0  0  0
  -26.4145  -32.1424   21.8276 C   0  0  0  0  0  0  0  0  0  0  0  0
  -23.8730  -31.3682   23.6888 C   0  0  0  0  0  0  0  0  0  0  0  0
  -21.5877  -29.0191   24.6405 C   0  0  0  0  0  0  0  0  0  0  0  0
  -28.9724  -16.3770   21.2139 C   0  0  0  0  0  0  0  0  0  0  0  0
  -28.1742  -36.9120   22.2881 C   0  0  0  0  0  0  0  0  0  0  0  0
  -24.8070  -31.2121   20.1228 C   0  0  0  0  0  0  0  0  0  0  0  0
  -25.0214  -29.4635   22.4979 C   0  0  0  0  0  0  0  0  0  0  0  0
  -27.5287  -35.8915   23.2220 C   0  0  0  0  0  0  0  0  0  0  0  0
  -29.3524  -13.2727   22.9155 C   0  0  0  0  0  0  0  0  0  0  0  0
  -28.2178  -34.5370   23.0910 C   0  0  0  0  0  0  0  0  0  0  0  0
  -28.3832  -12.3372   22.1906 C   0  0  0  0  0  0  0  0  0  0  0  0
  -28.7960  -14.6909   23.0201 C   0  0  0  0  0  0  0  0  0  0  0  0
  -27.4057  -14.3517   21.0136 C   0  0  0  0  0  0  0  0  0  0  0  0
  -28.2005  -19.2097   19.6222 C   0  0  0  0  0  0  0  0  0  0  0  0
  -29.1377  -19.3886   17.3924 C   0  0  0  0  0  0  0  0  0  0  0  0
  -28.0804  -33.9836   21.6675 C   0  0  1  0  0  0  0  0  0  0  0  0
  -24.9872  -31.7823   21.5262 C   0  0  1  0  0  0  0  0  0  0  0  0
  -27.9472  -12.9230   20.8342 C   0  0  2  0  0  0  0  0  0  0  0  0
  -29.0500  -17.9724   19.3144 C   0  0  2  0  0  0  0  0  0  0  0  0
  -29.0064  -17.9214   17.7943 C   0  0  2  0  0  0  0  0  0  0  0  0
  -25.8911  -20.7512   17.4589 C   0  0  0  0  0  0  0  0  0  0  0  0
  -19.6607  -28.6675   26.2091 C   0  0  0  0  0  0  0  0  0  0  0  0
  -25.8236  -31.0867   26.0181 C   0  0  0  0  0  0  0  0  0  0  0  0
  -24.0447  -29.8438   27.2667 C   0  0  0  0  0  0  0  0  0  0  0  0
  -23.6677  -32.2160   26.5935 C   0  0  0  0  0  0  0  0  0  0  0  0
  -19.7117  -28.5144   22.4078 C   0  0  0  0  0  0  0  0  0  0  0  0
  -26.9197  -25.4193   18.2649 C   0  0  0  0  0  0  0  0  0  1  0  0
  -23.6357  -30.4066   24.8280 C   0  0  1  0  0  0  0  0  0  0  0  0
  -20.0808  -29.0904   24.8101 C   0  0  2  0  0  0  0  0  0  0  0  0
  -24.3017  -30.8792   26.1511 C   0  0  0  0  0  0  0  0  0  0  0  0
  -28.9783  -22.3446   18.8806 N   0  0  0  0  0  0  0  0  0  0  0  0
  -26.0950  -11.2948   20.8667 N   0  0  0  0  0  0  0  0  0  0  0  0
  -26.4568  -23.0576   17.8811 N   0  0  0  0  0  0  0  0  0  0  0  0
  -26.9521  -12.0205   20.1285 N   0  0  0  0  0  0  0  0  0  0  0  0
  -28.4554  -20.0924   18.4807 N   0  0  3  0  0  0  0  0  0  0  0  0
  -24.5503  -30.8563   22.5730 N   0  0  0  0  0  0  0  0  0  0  0  0
  -28.4028  -15.1884   21.6996 N   0  0  0  0  0  0  0  0  0  0  0  0
  -27.5891  -12.4962   17.8972 N   0  0  0  0  0  0  0  0  0  0  0  0
  -24.2278   -9.5197   17.4090 N   0  0  0  0  0  0  0  0  0  0  0  0
  -26.7582  -33.4309   21.4655 N   0  0  0  0  0  0  0  0  0  0  0  0
  -22.1905  -30.2280   24.9171 N   0  0  0  0  0  0  0  0  0  0  0  0
  -28.5497  -16.7745   19.9513 N   0  0  0  0  0  0  0  0  0  0  0  0
  -30.1116  -17.1156   17.2458 N   0  3  0  0  0  0  0  0  0  0  0  0
  -19.4061  -28.1969   23.8265 N   0  3  0  0  0  0  0  0  0  0  0  0
  -25.7586  -10.8013   16.2807 O   0  0  0  0  0  0  0  0  0  0  0  0
  -27.1491  -31.3131   22.3514 O   0  0  0  0  0  0  0  0  0  0  0  0
  -23.4660  -32.5289   23.7824 O   0  0  0  0  0  0  0  0  0  0  0  0
  -22.1719  -27.9927   24.3006 O   0  0  0  0  0  0  0  0  0  0  0  0
  -29.8005  -17.0324   21.8555 O   0  0  0  0  0  0  0  0  0  0  0  0
  -21.3254   -7.1265   21.5180 O   0  0  0  0  0  0  0  0  0  0  0  0
  -26.5927  -25.8633   19.5810 O   0  0  0  0  0  0  0  0  0  1  0  0
  -22.4124   -3.6419   25.6508 F   0  0  0  0  0  0  0  0  0  0  0  0
  -21.1874   -4.3913   21.1404 F   0  0  0  0  0  0  0  0  0  0  0  0
  1  2  1  0  0  0  0
  1  5  2  0  0  0  0
  2  6  2  0  0  0  0
  3  8  2  0  0  0  0
  3 16  1  0  0  0  0
  4  9  1  0  0  0  0
  4 16  2  0  0  0  0
  5 18  1  0  0  0  0
  6 20  1  0  0  0  0
  7 10  2  0  0  0  0
  7 19  1  0  0  0  0
  8 22  1  0  0  0  0
  9 22  2  0  0  0  0
 10 23  1  0  0  0  0
 11 12  2  0  0  0  0
 11 24  1  0  0  0  0
 12 25  1  0  0  0  0
 13 21  1  0  0  0  0
 13 23  2  0  0  0  0
 14 25  2  0  0  0  0
 14 26  1  0  0  0  0
 15 28  1  0  0  0  0
 15 63  2  0  0  0  0
 16 27  1  0  0  0  0
 17 27  1  0  0  0  0
 17 31  2  0  0  0  0
 17 32  1  0  0  0  0
 18 20  2  0  0  0  0
 18 37  1  0  0  0  0
 19 21  2  0  0  0  0
 19 38  1  0  0  0  0
 20 48  1  0  0  0  0
 21 39  1  0  0  0  0
 22 82  1  0  0  0  0
 23 83  1  0  0  0  0
 24 26  2  0  0  0  0
 24 82  1  0  0  0  0
 25 84  1  0  0  0  0
 26 85  1  0  0  0  0
 27 64  2  0  0  0  0
 28 59  1  0  0  0  0
 28 65  2  0  0  0  0
 29 30  2  0  0  0  0
 29 53  1  0  0  0  0
 29 65  1  0  0  0  0
 30 63  1  0  0  0  0
 30 67  1  0  0  0  0
 31 66  1  0  0  0  0
 31 70  1  0  0  0  0
 32 71  1  0  0  0  0
 32 77  2  0  0  0  0
 33 49  1  0  0  0  0
 33 72  1  0  0  0  0
 33 78  2  0  0  0  0
 34 60  1  0  0  0  0
 34 68  1  0  0  0  0
 34 79  2  0  0  0  0
 35 61  1  0  0  0  0
 35 73  1  0  0  0  0
 35 80  2  0  0  0  0
 36 69  1  0  0  0  0
 36 74  1  0  0  0  0
 36 81  2  0  0  0  0
 37 40  1  0  0  0  0
 38 49  1  0  0  0  0
 39 68  1  0  0  0  0
 40 42  1  0  0  0  0
 41 43  1  0  0  0  0
 41 44  1  0  0  0  0
 42 48  1  0  0  0  0
 43 50  1  0  0  0  0
 44 69  1  0  0  0  0
 45 50  1  0  0  0  0
 45 69  1  0  0  0  0
 46 51  1  0  0  0  0
 46 67  1  0  0  0  0
 47 52  1  0  0  0  0
 47 67  1  0  0  0  0
 48 72  1  0  0  0  0
 49 68  1  0  0  0  0
 50 66  1  0  0  0  0
 51 52  1  0  0  0  0
 51 74  1  0  0  0  0
 52 75  1  0  0  0  0
 54 61  1  0  0  0  0
 55 62  1  0  0  0  0
 56 62  1  0  0  0  0
 57 62  1  0  0  0  0
 58 76  1  0  0  0  0
 59 83  1  0  0  0  0
 60 62  1  0  0  0  0
 60 73  1  0  0  0  0
 61 76  1  0  0  0  0
 64 66  1  0  0  0  0
M  CHG  2  75   1  76   1
M  ISO  4  36 100  59 101  74 100  83 101
M  END
> <Batch ID>
0183

> <Smiles>
CNC(C)C(=O)NC(C(=O)N1Cc2cc([101O:1][101CH2:1]c3cnc(N4CC(N)C([100NH:0][100C:0](=O)N5CCCC(n6nc(-c7ccc(Oc8ccc(F)cc8F)cc7)c(C(N)=O)c6N)C5)C4)c(C)n3)ccc2CC1C(=O)NC1CCCc2ccccc21)C(C)(C)C

> <Shape>
0.285

> <Color>
0.123

> <Negative vol penalty>
0.000

$$$$

  -OEChem-04052323073D

 79 88  0     1  0  0  0  0  0999 V2000
  -27.0290  -34.5049   25.4977 C   0  0  0  0  0  0  0  0  0  0  0  0
  -27.3959  -33.2881   24.9317 C   0  0  0  0  0  0  0  0  0  0  0  0
  -26.4397  -10.6611   21.0946 C   0  0  0  0  0  0  0  0  0  0  0  0
  -25.7481  -11.5887   18.9737 C   0  0  0  0  0  0  0  0  0  0  0  0
  -25.7058  -34.7246   25.8783 C   0  0  0  0  0  0  0  0  0  0  0  0
  -26.4399  -32.2899   24.7469 C   0  0  0  0  0  0  0  0  0  0  0  0
  -26.7664  -30.1070   20.1891 C   0  0  0  0  0  0  0  0  0  0  0  0
  -25.1666  -10.1199   21.2731 C   0  0  0  0  0  0  0  0  0  0  0  0
  -24.4750  -11.0475   19.1521 C   0  0  0  0  0  0  0  0  0  0  0  0
  -27.7765  -29.1636   20.0059 C   0  0  0  0  0  0  0  0  0  0  0  0
  -23.4183   -7.4468   20.1636 C   0  0  0  0  0  0  0  0  0  0  0  0
  -23.3312   -6.1275   20.6081 C   0  0  0  0  0  0  0  0  0  0  0  0
  -26.1720  -27.3917   20.3302 C   0  0  0  0  0  0  0  0  0  0  0  0
  -22.1178   -6.8661   22.5625 C   0  0  0  0  0  0  0  0  0  0  0  0
  -26.7305  -11.3956   19.9449 C   0  0  0  0  0  0  0  0  0  0  0  0
  -29.1485  -11.3455   19.1336 C   0  0  0  0  0  0  0  0  0  0  0  0
  -24.7312  -33.7321   25.6892 C   0  0  0  0  0  0  0  0  0  0  0  0
  -25.4514  -29.6993   20.4556 C   0  0  0  0  0  0  0  0  0  0  0  0
  -25.1027  -32.4961   25.1265 C   0  0  0  0  0  0  0  0  0  0  0  0
  -25.1466  -28.3319   20.5139 C   0  0  0  0  0  0  0  0  0  0  0  0
  -24.1842  -10.3131   20.3018 C   0  0  0  0  0  0  0  0  0  0  0  0
  -27.4799  -27.8058   20.0793 C   0  0  0  0  0  0  0  0  0  0  0  0
  -22.8552   -8.4758   20.9186 C   0  0  0  0  0  0  0  0  0  0  0  0
  -22.6809   -5.8372   21.8075 C   0  0  0  0  0  0  0  0  0  0  0  0
  -22.2050   -8.1854   22.1180 C   0  0  0  0  0  0  0  0  0  0  0  0
  -28.0452  -11.9553   19.7603 C   0  0  0  0  0  0  0  0  0  0  0  0
  -30.1504  -12.2815   19.2153 C   0  0  0  0  0  0  0  0  0  0  0  0
  -29.2579  -10.0490   18.5314 C   0  0  0  0  0  0  0  0  0  0  0  0
  -23.4278  -30.0923   22.8751 C   0  0  0  0  0  0  0  0  0  0  0  0
  -21.3491  -28.6219   20.8652 C   0  0  0  0  0  0  0  0  0  0  0  0
  -20.8750  -26.5466   18.1978 C   0  0  0  0  0  0  0  0  0  0  0  0
  -29.8144  -18.2200   19.6861 C   0  0  0  0  0  0  0  0  0  0  0  0
  -23.3232  -33.9983   26.1598 C   0  0  0  0  0  0  0  0  0  0  0  0
  -24.3682  -30.7291   20.6243 C   0  0  0  0  0  0  0  0  0  0  0  0
  -23.7469  -27.8420   20.7772 C   0  0  0  0  0  0  0  0  0  0  0  0
  -22.2952  -33.0269   25.5856 C   0  0  0  0  0  0  0  0  0  0  0  0
  -31.6872  -15.9141   21.8894 C   0  0  0  0  0  0  0  0  0  0  0  0
  -22.7992  -31.5912   25.6929 C   0  0  0  0  0  0  0  0  0  0  0  0
  -31.0084  -14.5869   21.5664 C   0  0  0  0  0  0  0  0  0  0  0  0
  -27.8451  -24.4364   19.7200 C   0  0  0  0  0  0  0  0  0  0  0  0
  -29.6887  -24.8226   20.7243 C   0  0  0  0  0  0  0  0  0  0  0  0
  -30.7173  -17.0922   21.8056 C   0  0  0  0  0  0  0  0  0  0  0  0
  -29.3197  -15.8471   20.1773 C   0  0  0  0  0  0  0  0  0  0  0  0
  -30.7340  -21.9057   20.1242 C   0  0  0  0  0  0  0  0  0  0  0  0
  -28.8943  -21.2899   19.3642 C   0  0  0  0  0  0  0  0  0  0  0  0
  -24.0895  -31.3978   24.8872 C   0  0  1  0  0  0  0  0  0  0  0  0
  -23.1631  -30.2070   21.4005 C   0  0  1  0  0  0  0  0  0  0  0  0
  -30.2953  -14.6610   20.2080 C   0  0  2  0  0  0  0  0  0  0  0  0
  -30.2895  -20.6444   19.3662 C   0  0  0  0  0  0  0  0  0  0  0  0
  -28.8760  -23.5431   20.4398 C   0  0  0  0  0  0  0  0  0  0  0  0
  -28.3684  -25.6161   20.5737 C   0  0  0  0  0  0  0  0  0  1  0  0
  -19.0621  -25.5031   16.8116 C   0  0  0  0  0  0  0  0  0  0  0  0
  -20.7846  -26.6305   23.1070 C   0  0  0  0  0  0  0  0  0  0  0  0
  -19.7449  -25.1163   21.4057 C   0  0  0  0  0  0  0  0  0  0  0  0
  -18.7626  -27.3690   21.8340 C   0  0  0  0  0  0  0  0  0  0  0  0
  -21.8301  -27.8811   15.7348 C   0  0  0  0  0  0  0  0  0  0  0  0
  -20.9577  -27.1897   20.5924 C   0  0  1  0  0  0  0  0  0  0  0  0
  -20.0111  -26.6824   16.9569 C   0  0  2  0  0  0  0  0  0  0  0  0
  -20.0893  -26.5853   21.7317 C   0  0  0  0  0  0  0  0  0  0  0  0
  -28.3201  -13.1836   20.2073 N   0  0  0  0  0  0  0  0  0  0  0  0
  -29.6076  -13.3531   19.8611 N   0  0  0  0  0  0  0  0  0  0  0  0
  -22.7236  -28.8877   20.9416 N   0  0  0  0  0  0  0  0  0  0  0  0
  -29.9868  -17.1069   20.5283 N   0  0  0  0  0  0  0  0  0  0  0  0
  -31.4339  -12.2841   18.7971 N   0  0  0  0  0  0  0  0  0  0  0  0
  -28.1322   -9.2139   18.5340 N   0  0  0  0  0  0  0  0  0  0  0  0
  -23.7914  -31.2824   23.4757 N   0  0  0  0  0  0  0  0  0  0  0  0
  -20.3135  -27.1849   19.2834 N   0  0  0  0  0  0  0  0  0  0  0  0
  -30.3900  -19.4085   20.1247 N   0  0  0  0  0  0  0  0  0  0  0  0
  -29.5594  -22.6017   19.5474 N   0  3  0  0  0  0  0  0  0  0  0  0
  -20.8642  -26.7523   15.7370 N   0  3  0  0  0  0  0  0  0  0  0  0
  -30.3270   -9.6366   18.0210 O   0  0  0  0  0  0  0  0  0  0  0  0
  -23.3093  -29.0048   23.4274 O   0  0  0  0  0  0  0  0  0  0  0  0
  -20.4679  -29.4748   20.9983 O   0  0  0  0  0  0  0  0  0  0  0  0
  -21.9396  -25.9324   18.2043 O   0  0  0  0  0  0  0  0  0  0  0  0
  -29.1878  -18.1673   18.6223 O   0  0  0  0  0  0  0  0  0  0  0  0
  -22.9419   -9.7849   20.4755 O   0  0  0  0  0  0  0  0  0  0  0  0
  -28.4640  -26.8828   19.9015 O   0  0  0  0  0  0  0  0  0  1  0  0
  -22.5960   -4.5701   22.2335 F   0  0  0  0  0  0  0  0  0  0  0  0
  -21.6611   -9.1696   22.8469 F   0  0  0  0  0  0  0  0  0  0  0  0
  1  2  1  0  0  0  0
  1  5  2  0  0  0  0
  2  6  2  0  0  0  0
  3  8  2  0  0  0  0
  3 15  1  0  0  0  0
  4  9  1  0  0  0  0
  4 15  2  0  0  0  0
  5 17  1  0  0  0  0
  6 19  1  0  0  0  0
  7 10  2  0  0  0  0
  7 18  1  0  0  0  0
  8 21  1  0  0  0  0
  9 21  2  0  0  0  0
 10 22  1  0  0  0  0
 11 12  2  0  0  0  0
 11 23  1  0  0  0  0
 12 24  1  0  0  0  0
 13 20  1  0  0  0  0
 13 22  2  0  0  0  0
 14 24  2  0  0  0  0
 14 25  1  0  0  0  0
 15 26  1  0  0  0  0
 16 26  1  0  0  0  0
 16 27  2  0  0  0  0
 16 28  1  0  0  0  0
 17 19  2  0  0  0  0
 17 33  1  0  0  0  0
 18 20  2  0  0  0  0
 18 34  1  0  0  0  0
 19 46  1  0  0  0  0
 20 35  1  0  0  0  0
 21 76  1  0  0  0  0
 22 77  1  0  0  0  0
 23 25  2  0  0  0  0
 23 76  1  0  0  0  0
 24 78  1  0  0  0  0
 25 79  1  0  0  0  0
 26 60  2  0  0  0  0
 27 61  1  0  0  0  0
 27 64  1  0  0  0  0
 28 65  1  0  0  0  0
 28 71  2  0  0  0  0
 29 47  1  0  0  0  0
 29 66  1  0  0  0  0
 29 72  2  0  0  0  0
 30 57  1  0  0  0  0
 30 62  1  0  0  0  0
 30 73  2  0  0  0  0
 31 58  1  0  0  0  0
 31 67  1  0  0  0  0
 31 74  2  0  0  0  0
 32 63  1  0  0  0  0
 32 68  1  0  0  0  0
 32 75  2  0  0  0  0
 33 36  1  0  0  0  0
 34 47  1  0  0  0  0
 35 62  1  0  0  0  0
 36 38  1  0  0  0  0
 37 39  1  0  0  0  0
 37 42  1  0  0  0  0
 38 46  1  0  0  0  0
 39 48  1  0  0  0  0
 40 50  1  0  0  0  0
 40 51  1  0  0  0  0
 41 50  1  0  0  0  0
 41 51  1  0  0  0  0
 42 63  1  0  0  0  0
 43 48  1  0  0  0  0
 43 63  1  0  0  0  0
 44 49  1  0  0  0  0
 44 69  1  0  0  0  0
 45 49  1  0  0  0  0
 45 69  1  0  0  0  0
 46 66  1  0  0  0  0
 47 62  1  0  0  0  0
 48 61  1  0  0  0  0
 49 68  1  0  0  0  0
 50 69  1  0  0  0  0
 51 77  1  0  0  0  0
 52 58  1  0  0  0  0
 53 59  1  0  0  0  0
 54 59  1  0  0  0  0
 55 59  1  0  0  0  0
 56 70  1  0  0  0  0
 57 59  1  0  0  0  0
 57 67  1  0  0  0  0
 58 70  1  0  0  0  0
 60 61  1  0  0  0  0
M  CHG  2  69   1  70   1
M  ISO  4  32 100  51 101  68 100  77 101
M  END
> <Batch ID>
0183

> <Smiles>
CNC(C)C(=O)NC(C(=O)N1Cc2cc([101O:1][101CH:1]3CC(N4CC([100NH:0][100C:0](=O)N5CCCC(n6nc(-c7ccc(Oc8ccc(F)cc8F)cc7)c(C(N)=O)c6N)C5)C4)C3)ccc2CC1C(=O)NC1CCCc2ccccc21)C(C)(C)C

> <Shape>
0.340

> <Color>
0.072

> <Negative vol penalty>
0.000

$$$$

  -OEChem-04052323073D

 87 96  0     1  0  0  0  0  0999 V2000
  -27.3636  -27.9594   28.9919 C   0  0  0  0  0  0  0  0  0  0  0  0
  -27.4263  -27.3777   27.7297 C   0  0  0  0  0  0  0  0  0  0  0  0
  -26.5929  -10.6823   20.6774 C   0  0  0  0  0  0  0  0  0  0  0  0
  -25.6913  -12.1540   18.9867 C   0  0  0  0  0  0  0  0  0  0  0  0
  -26.2908  -28.7853   29.3251 C   0  0  0  0  0  0  0  0  0  0  0  0
  -26.4156  -27.6208   26.8003 C   0  0  0  0  0  0  0  0  0  0  0  0
  -27.0387  -28.1114   20.7276 C   0  0  0  0  0  0  0  0  0  0  0  0
  -25.3548  -10.0492   20.7866 C   0  0  0  0  0  0  0  0  0  0  0  0
  -24.4532  -11.5209   19.0959 C   0  0  0  0  0  0  0  0  0  0  0  0
  -26.8301  -27.2071   19.6872 C   0  0  0  0  0  0  0  0  0  0  0  0
  -23.5818   -7.7334   19.0759 C   0  0  0  0  0  0  0  0  0  0  0  0
  -23.5678   -6.3392   19.1155 C   0  0  0  0  0  0  0  0  0  0  0  0
  -24.6198  -28.1130   19.3510 C   0  0  0  0  0  0  0  0  0  0  0  0
  -26.8808  -21.2640   18.5462 C   0  0  0  0  0  0  0  0  0  0  0  0
  -22.5161   -6.4115   21.2894 C   0  0  0  0  0  0  0  0  0  0  0  0
  -26.7611  -11.7348   19.7775 C   0  0  0  0  0  0  0  0  0  0  0  0
  -26.7169  -19.5231   20.1759 C   0  0  0  0  0  0  0  0  0  0  0  0
  -29.0974  -12.0461   18.8014 C   0  0  0  0  0  0  0  0  0  0  0  0
  -25.2714  -29.0463   28.3960 C   0  0  0  0  0  0  0  0  0  0  0  0
  -26.0336  -29.0175   21.0953 C   0  0  0  0  0  0  0  0  0  0  0  0
  -25.3275  -28.4499   27.1218 C   0  0  0  0  0  0  0  0  0  0  0  0
  -24.8190  -29.0295   20.3947 C   0  0  0  0  0  0  0  0  0  0  0  0
  -27.4945  -20.3833   19.4161 C   0  0  0  0  0  0  0  0  0  0  0  0
  -24.2849  -10.4685   19.9958 C   0  0  0  0  0  0  0  0  0  0  0  0
  -25.6195  -27.2058   19.0006 C   0  0  0  0  0  0  0  0  0  0  0  0
  -23.0629   -8.4667   20.1431 C   0  0  0  0  0  0  0  0  0  0  0  0
  -23.0350   -5.6782   20.2222 C   0  0  0  0  0  0  0  0  0  0  0  0
  -22.5301   -7.8057   21.2498 C   0  0  0  0  0  0  0  0  0  0  0  0
  -28.0397  -12.3895   19.6646 C   0  0  0  0  0  0  0  0  0  0  0  0
  -25.4924  -21.2209   18.4975 C   0  0  0  0  0  0  0  0  0  0  0  0
  -25.3472  -19.5378   20.0774 C   0  0  0  0  0  0  0  0  0  0  0  0
  -30.0788  -12.9664   19.0779 C   0  0  0  0  0  0  0  0  0  0  0  0
  -27.5886  -18.6906   20.9969 C   0  0  0  0  0  0  0  0  0  0  0  0
  -29.1848  -10.9898   17.8359 C   0  0  0  0  0  0  0  0  0  0  0  0
  -24.3358  -29.5359   23.7321 C   0  0  0  0  0  0  0  0  0  0  0  0
  -23.2453  -32.0922   22.0594 C   0  0  0  0  0  0  0  0  0  0  0  0
  -22.6850  -33.5413   19.0208 C   0  0  0  0  0  0  0  0  0  0  0  0
  -30.0743  -18.4552   21.2241 C   0  0  0  0  0  0  0  0  0  0  0  0
  -24.1077  -29.9078   28.8181 C   0  0  0  0  0  0  0  0  0  0  0  0
  -26.2841  -30.0046   22.2023 C   0  0  0  0  0  0  0  0  0  0  0  0
  -23.7155  -29.9956   20.7371 C   0  0  0  0  0  0  0  0  0  0  0  0
  -23.2692  -30.4150   27.6476 C   0  0  0  0  0  0  0  0  0  0  0  0
  -31.7480  -15.7309   22.6020 C   0  0  0  0  0  0  0  0  0  0  0  0
  -22.9704  -29.2798   26.6735 C   0  0  0  0  0  0  0  0  0  0  0  0
  -31.0956  -14.5234   21.9287 C   0  0  0  0  0  0  0  0  0  0  0  0
  -30.7091  -16.7907   22.9511 C   0  0  0  0  0  0  0  0  0  0  0  0
  -29.2422  -16.0542   21.1009 C   0  0  0  0  0  0  0  0  0  0  0  0
  -24.2631  -28.7093   26.0778 C   0  0  1  0  0  0  0  0  0  0  0  0
  -24.9997  -30.5373   22.8299 C   0  0  1  0  0  0  0  0  0  0  0  0
  -30.2521  -14.9550   20.7157 C   0  0  2  0  0  0  0  0  0  0  0  0
  -28.9575  -20.1878   19.7310 C   0  0  0  0  0  0  0  0  0  0  0  0
  -24.4870  -18.6232   20.8770 C   0  0  0  0  0  0  0  0  0  0  0  0
  -29.4948  -21.4471   20.4290 C   0  0  0  0  0  0  0  0  0  0  0  0
  -29.7666  -19.8759   18.4670 C   0  0  0  0  0  0  0  0  0  0  0  0
  -21.7470  -35.6193   17.9722 C   0  0  0  0  0  0  0  0  0  0  0  0
  -20.4167  -31.0988   22.6269 C   0  0  0  0  0  0  0  0  0  0  0  0
  -19.5950  -32.6141   20.8112 C   0  0  0  0  0  0  0  0  0  0  0  0
  -20.7122  -33.5743   22.8244 C   0  0  0  0  0  0  0  0  0  0  0  0
  -25.2776  -34.2167   17.7632 C   0  0  0  0  0  0  0  0  0  0  0  0
  -24.7726  -22.1508   17.5769 C   0  0  0  0  0  0  0  0  0  0  0  0
  -24.0744  -24.5089   17.1399 C   0  0  0  0  0  0  0  0  0  0  0  0
  -24.0728  -25.8919   17.7607 C   0  0  0  0  0  0  0  0  0  1  0  0
  -22.0982  -32.3377   21.1092 C   0  0  1  0  0  0  0  0  0  0  0  0
  -22.9982  -34.9302   18.4941 C   0  0  2  0  0  0  0  0  0  0  0  0
  -20.7254  -32.3866   21.8375 C   0  0  0  0  0  0  0  0  0  0  0  0
  -28.3226  -13.4454   20.4322 N   0  0  0  0  0  0  0  0  0  0  0  0
  -24.7123  -20.3848   19.2380 N   0  0  0  0  0  0  0  0  0  0  0  0
  -29.5693  -13.7733   20.0522 N   0  0  0  0  0  0  0  0  0  0  0  0
  -28.9202  -19.0039   20.6347 N   0  0  0  0  0  0  0  0  0  0  0  0
  -24.0061  -30.9369   21.8312 N   0  0  0  0  0  0  0  0  0  0  0  0
  -29.9289  -17.1683   21.7726 N   0  0  0  0  0  0  0  0  0  0  0  0
  -31.3193  -13.1558   18.5803 N   0  0  0  0  0  0  0  0  0  0  0  0
  -28.0852  -10.1350   17.6792 N   0  0  0  0  0  0  0  0  0  0  0  0
  -24.7714  -29.5837   25.0426 N   0  0  0  0  0  0  0  0  0  0  0  0
  -22.4291  -33.5546   20.3756 N   0  0  0  0  0  0  0  0  0  0  0  0
  -23.9893  -34.8518   17.3838 N   0  3  0  0  0  0  0  0  0  0  0  0
  -24.7367  -23.5552   18.0681 N   0  3  0  0  0  0  0  0  0  0  0  0
  -27.1681  -17.8992   21.8225 O   0  0  0  0  0  0  0  0  0  0  0  0
  -30.2140  -10.7992   17.1444 O   0  0  0  0  0  0  0  0  0  0  0  0
  -23.4899  -28.7770   23.2736 O   0  0  0  0  0  0  0  0  0  0  0  0
  -23.4627  -32.8997   22.9662 O   0  0  0  0  0  0  0  0  0  0  0  0
  -22.6655  -32.5449   18.3016 O   0  0  0  0  0  0  0  0  0  0  0  0
  -31.1351  -19.0833   21.2971 O   0  0  0  0  0  0  0  0  0  0  0  0
  -23.0767   -9.8508   20.1019 O   0  0  0  0  0  0  0  0  0  0  0  0
  -25.4116  -26.3174   17.9778 O   0  0  0  0  0  0  0  0  0  1  0  0
  -23.0203   -4.3394   20.2594 F   0  0  0  0  0  0  0  0  0  0  0  0
  -22.0291   -8.5047   22.2775 F   0  0  0  0  0  0  0  0  0  0  0  0
  1  2  1  0  0  0  0
  1  5  2  0  0  0  0
  2  6  2  0  0  0  0
  3  8  2  0  0  0  0
  3 16  1  0  0  0  0
  4  9  1  0  0  0  0
  4 16  2  0  0  0  0
  5 19  1  0  0  0  0
  6 21  1  0  0  0  0
  7 10  2  0  0  0  0
  7 20  1  0  0  0  0
  8 24  1  0  0  0  0
  9 24  2  0  0  0  0
 10 25  1  0  0  0  0
 11 12  2  0  0  0  0
 11 26  1  0  0  0  0
 12 27  1  0  0  0  0
 13 22  1  0  0  0  0
 13 25  2  0  0  0  0
 14 23  2  0  0  0  0
 14 30  1  0  0  0  0
 15 27  2  0  0  0  0
 15 28  1  0  0  0  0
 16 29  1  0  0  0  0
 17 23  1  0  0  0  0
 17 31  2  0  0  0  0
 17 33  1  0  0  0  0
 18 29  1  0  0  0  0
 18 32  2  0  0  0  0
 18 34  1  0  0  0  0
 19 21  2  0  0  0  0
 19 39  1  0  0  0  0
 20 22  2  0  0  0  0
 20 40  1  0  0  0  0
 21 48  1  0  0  0  0
 22 41  1  0  0  0  0
 23 51  1  0  0  0  0
 24 84  1  0  0  0  0
 25 85  1  0  0  0  0
 26 28  2  0  0  0  0
 26 84  1  0  0  0  0
 27 86  1  0  0  0  0
 28 87  1  0  0  0  0
 29 66  2  0  0  0  0
 30 60  1  0  0  0  0
 30 67  2  0  0  0  0
 31 52  1  0  0  0  0
 31 67  1  0  0  0  0
 32 68  1  0  0  0  0
 32 72  1  0  0  0  0
 33 69  1  0  0  0  0
 33 78  2  0  0  0  0
 34 73  1  0  0  0  0
 34 79  2  0  0  0  0
 35 49  1  0  0  0  0
 35 74  1  0  0  0  0
 35 80  2  0  0  0  0
 36 63  1  0  0  0  0
 36 70  1  0  0  0  0
 36 81  2  0  0  0  0
 37 64  1  0  0  0  0
 37 75  1  0  0  0  0
 37 82  2  0  0  0  0
 38 69  1  0  0  0  0
 38 71  1  0  0  0  0
 38 83  2  0  0  0  0
 39 42  1  0  0  0  0
 40 49  1  0  0  0  0
 41 70  1  0  0  0  0
 42 44  1  0  0  0  0
 43 45  1  0  0  0  0
 43 46  1  0  0  0  0
 44 48  1  0  0  0  0
 45 50  1  0  0  0  0
 46 71  1  0  0  0  0
 47 50  1  0  0  0  0
 47 71  1  0  0  0  0
 48 74  1  0  0  0  0
 49 70  1  0  0  0  0
 50 68  1  0  0  0  0
 51 53  1  0  0  0  0
 51 54  1  0  0  0  0
 51 69  1  0  0  0  0
 55 64  1  0  0  0  0
 56 65  1  0  0  0  0
 57 65  1  0  0  0  0
 58 65  1  0  0  0  0
 59 76  1  0  0  0  0
 60 77  1  0  0  0  0
 61 62  1  0  0  0  0
 61 77  1  0  0  0  0
 62 85  1  0  0  0  0
 63 65  1  0  0  0  0
 63 75  1  0  0  0  0
 64 76  1  0  0  0  0
 66 68  1  0  0  0  0
M  CHG  2  76   1  77   1
M  ISO  4  38 100  62 101  69 100  85 101
M  END
> <Batch ID>
0183

> <Smiles>
CNC(C)C(=O)NC(C(=O)N1Cc2cc([101O:1][101CH2:1]CNCc3cc4c(c(C)n3)C(=O)[100N:0]([100C:0](=O)N3CCCC(n5nc(-c6ccc(Oc7ccc(F)cc7F)cc6)c(C(N)=O)c5N)C3)C4(C)C)ccc2CC1C(=O)NC1CCCc2ccccc21)C(C)(C)C

> <Shape>
0.238

> <Color>
0.072

> <Negative vol penalty>
0.000

$$$$

  -OEChem-04052323073D

 82 91  0     1  0  0  0  0  0999 V2000
  -26.4705  -35.7481   18.6851 C   0  0  0  0  0  0  0  0  0  0  0  0
  -27.2272  -34.6114   18.4189 C   0  0  0  0  0  0  0  0  0  0  0  0
  -24.7416   -9.5180   20.8316 C   0  0  0  0  0  0  0  0  0  0  0  0
  -22.6457  -10.6943   20.5863 C   0  0  0  0  0  0  0  0  0  0  0  0
  -25.8290  -35.8846   19.9155 C   0  0  0  0  0  0  0  0  0  0  0  0
  -27.3438  -33.6111   19.3834 C   0  0  0  0  0  0  0  0  0  0  0  0
  -27.7419  -27.5792   18.4021 C   0  0  0  0  0  0  0  0  0  0  0  0
  -30.1489  -20.3811   20.7016 C   0  0  0  0  0  0  0  0  0  0  0  0
  -24.0627   -8.4171   21.3538 C   0  0  0  0  0  0  0  0  0  0  0  0
  -21.9667   -9.5934   21.1085 C   0  0  0  0  0  0  0  0  0  0  0  0
  -28.8276  -26.7057   18.3582 C   0  0  0  0  0  0  0  0  0  0  0  0
  -22.2324   -5.8303   20.1743 C   0  0  0  0  0  0  0  0  0  0  0  0
  -22.5839   -4.5668   19.6992 C   0  0  0  0  0  0  0  0  0  0  0  0
  -30.9696  -21.2574   20.0023 C   0  0  0  0  0  0  0  0  0  0  0  0
  -28.4426  -26.1208   20.6666 C   0  0  0  0  0  0  0  0  0  0  0  0
  -23.1951   -3.8949   21.9379 C   0  0  0  0  0  0  0  0  0  0  0  0
  -24.0331  -10.6566   20.4479 C   0  0  0  0  0  0  0  0  0  0  0  0
  -25.0332  -12.0460   18.5565 C   0  0  0  0  0  0  0  0  0  0  0  0
  -25.9298  -34.8811   20.8919 C   0  0  0  0  0  0  0  0  0  0  0  0
  -27.0038  -27.7385   19.5837 C   0  0  0  0  0  0  0  0  0  0  0  0
  -26.7041  -33.7350   20.6285 C   0  0  0  0  0  0  0  0  0  0  0  0
  -28.7601  -20.4691   20.5746 C   0  0  0  0  0  0  0  0  0  0  0  0
  -27.3464  -26.9950   20.7222 C   0  0  0  0  0  0  0  0  0  0  0  0
  -22.6753   -8.4548   21.4922 C   0  0  0  0  0  0  0  0  0  0  0  0
  -29.1799  -25.9785   19.4914 C   0  0  0  0  0  0  0  0  0  0  0  0
  -22.3624   -6.1261   21.5313 C   0  0  0  0  0  0  0  0  0  0  0  0
  -23.0652   -3.5991   20.5810 C   0  0  0  0  0  0  0  0  0  0  0  0
  -22.8437   -5.1584   22.4131 C   0  0  0  0  0  0  0  0  0  0  0  0
  -24.7339  -11.7944   19.9089 C   0  0  0  0  0  0  0  0  0  0  0  0
  -28.2450  -21.4707   19.7448 C   0  0  0  0  0  0  0  0  0  0  0  0
  -30.3653  -22.2042   19.1954 C   0  0  0  0  0  0  0  0  0  0  0  0
  -25.7034  -13.2448   18.5704 C   0  0  0  0  0  0  0  0  0  0  0  0
  -24.7321  -11.2658   17.3918 C   0  0  0  0  0  0  0  0  0  0  0  0
  -26.4052  -30.1678   21.5443 C   0  0  0  0  0  0  0  0  0  0  0  0
  -24.4232  -28.0270   22.9623 C   0  0  0  0  0  0  0  0  0  0  0  0
  -23.6308  -24.7600   23.5501 C   0  0  0  0  0  0  0  0  0  0  0  0
  -25.6996  -18.5173   20.5042 C   0  0  0  0  0  0  0  0  0  0  0  0
  -25.2572  -35.0950   22.2248 C   0  0  0  0  0  0  0  0  0  0  0  0
  -25.8190  -28.6648   19.6070 C   0  0  0  0  0  0  0  0  0  0  0  0
  -27.8683  -19.5337   21.3523 C   0  0  0  0  0  0  0  0  0  0  0  0
  -26.5738  -27.1147   22.0095 C   0  0  0  0  0  0  0  0  0  0  0  0
  -26.7577  -21.6088   19.5482 C   0  0  0  0  0  0  0  0  0  0  0  0
  -25.1239  -33.8186   23.0515 C   0  0  0  0  0  0  0  0  0  0  0  0
  -27.6049  -15.9244   22.4040 C   0  0  0  0  0  0  0  0  0  0  0  0
  -26.4397  -33.0470   23.0580 C   0  0  0  0  0  0  0  0  0  0  0  0
  -26.9911  -14.6418   21.8442 C   0  0  0  0  0  0  0  0  0  0  0  0
  -25.9724  -20.9704   20.6883 C   0  0  0  0  0  0  0  0  0  0  0  0
  -26.6053  -17.0743   22.3700 C   0  0  0  0  0  0  0  0  0  0  0  0
  -25.4207  -16.0644   20.4489 C   0  0  0  0  0  0  0  0  0  0  0  0
  -26.8340  -32.6169   21.6399 C   0  0  1  0  0  0  0  0  0  0  0  0
  -25.4542  -29.1333   21.0123 C   0  0  1  0  0  0  0  0  0  0  0  0
  -26.4009  -14.8793   20.4436 C   0  0  2  0  0  0  0  0  0  0  0  0
  -21.9789  -23.3236   24.7770 C   0  0  0  0  0  0  0  0  0  0  0  0
  -25.8478  -28.6378   25.5905 C   0  0  0  0  0  0  0  0  0  0  0  0
  -24.8425  -26.5506   26.5399 C   0  0  0  0  0  0  0  0  0  0  0  0
  -23.3644  -28.4102   25.7784 C   0  0  0  0  0  0  0  0  0  0  0  0
  -22.6733  -23.5161   21.0411 C   0  0  0  0  0  0  0  0  0  0  0  0
  -31.2151  -23.1603   18.4269 C   0  0  0  0  0  0  0  0  0  0  0  0
  -30.5343  -24.5128   18.1977 C   0  0  0  0  0  0  0  0  0  1  0  0
  -24.5676  -27.0000   24.0593 C   0  0  1  0  0  0  0  0  0  0  0  0
  -22.3130  -24.0116   23.4625 C   0  0  2  0  0  0  0  0  0  0  0  0
  -24.6715  -27.6486   25.4685 C   0  0  0  0  0  0  0  0  0  0  0  0
  -25.1778  -12.7560   20.7227 N   0  0  0  0  0  0  0  0  0  0  0  0
  -29.0282  -22.3307   19.0477 N   0  0  0  0  0  0  0  0  0  0  0  0
  -25.7629  -13.6234   19.8793 N   0  0  0  0  0  0  0  0  0  0  0  0
  -25.4274  -28.0381   21.9840 N   0  0  0  0  0  0  0  0  0  0  0  0
  -26.4601  -19.6148   20.9361 N   0  0  0  0  0  0  0  0  0  0  0  0
  -26.0388  -17.2594   21.0277 N   0  0  0  0  0  0  0  0  0  0  0  0
  -26.2418  -14.0013   17.5905 N   0  0  0  0  0  0  0  0  0  0  0  0
  -24.0370  -10.0601   17.5567 N   0  0  0  0  0  0  0  0  0  0  0  0
  -26.0584  -31.4671   21.2264 N   0  0  0  0  0  0  0  0  0  0  0  0
  -23.4464  -26.0791   23.9065 N   0  0  0  0  0  0  0  0  0  0  0  0
  -22.3754  -22.9761   22.3926 N   0  3  0  0  0  0  0  0  0  0  0  0
  -25.0840  -11.6192   16.2408 O   0  0  0  0  0  0  0  0  0  0  0  0
  -27.3805  -29.8136   22.1962 O   0  0  0  0  0  0  0  0  0  0  0  0
  -23.4512  -28.7865   22.9692 O   0  0  0  0  0  0  0  0  0  0  0  0
  -24.7157  -24.2266   23.3283 O   0  0  0  0  0  0  0  0  0  0  0  0
  -24.7799  -18.6493   19.6867 O   0  0  0  0  0  0  0  0  0  0  0  0
  -22.0124   -7.3807   22.0016 O   0  0  0  0  0  0  0  0  0  0  0  0
  -30.2470  -25.1196   19.4512 O   0  0  0  0  0  0  0  0  0  1  0  0
  -23.4011   -2.3854   20.1248 F   0  0  0  0  0  0  0  0  0  0  0  0
  -22.9697   -5.4364   23.7179 F   0  0  0  0  0  0  0  0  0  0  0  0
  1  2  1  0  0  0  0
  1  5  2  0  0  0  0
  2  6  2  0  0  0  0
  3  9  2  0  0  0  0
  3 17  1  0  0  0  0
  4 10  1  0  0  0  0
  4 17  2  0  0  0  0
  5 19  1  0  0  0  0
  6 21  1  0  0  0  0
  7 11  2  0  0  0  0
  7 20  1  0  0  0  0
  8 14  2  0  0  0  0
  8 22  1  0  0  0  0
  9 24  1  0  0  0  0
 10 24  2  0  0  0  0
 11 25  1  0  0  0  0
 12 13  2  0  0  0  0
 12 26  1  0  0  0  0
 13 27  1  0  0  0  0
 14 31  1  0  0  0  0
 15 23  1  0  0  0  0
 15 25  2  0  0  0  0
 16 27  2  0  0  0  0
 16 28  1  0  0  0  0
 17 29  1  0  0  0  0
 18 29  1  0  0  0  0
 18 32  2  0  0  0  0
 18 33  1  0  0  0  0
 19 21  2  0  0  0  0
 19 38  1  0  0  0  0
 20 23  2  0  0  0  0
 20 39  1  0  0  0  0
 21 50  1  0  0  0  0
 22 30  2  0  0  0  0
 22 40  1  0  0  0  0
 23 41  1  0  0  0  0
 24 79  1  0  0  0  0
 25 80  1  0  0  0  0
 26 28  2  0  0  0  0
 26 79  1  0  0  0  0
 27 81  1  0  0  0  0
 28 82  1  0  0  0  0
 29 63  2  0  0  0  0
 30 42  1  0  0  0  0
 30 64  1  0  0  0  0
 31 58  1  0  0  0  0
 31 64  2  0  0  0  0
 32 65  1  0  0  0  0
 32 69  1  0  0  0  0
 33 70  1  0  0  0  0
 33 74  2  0  0  0  0
 34 51  1  0  0  0  0
 34 71  1  0  0  0  0
 34 75  2  0  0  0  0
 35 60  1  0  0  0  0
 35 66  1  0  0  0  0
 35 76  2  0  0  0  0
 36 61  1  0  0  0  0
 36 72  1  0  0  0  0
 36 77  2  0  0  0  0
 37 67  1  0  0  0  0
 37 68  1  0  0  0  0
 37 78  2  0  0  0  0
 38 43  1  0  0  0  0
 39 51  1  0  0  0  0
 40 67  1  0  0  0  0
 41 66  1  0  0  0  0
 42 47  1  0  0  0  0
 43 45  1  0  0  0  0
 44 46  1  0  0  0  0
 44 48  1  0  0  0  0
 45 50  1  0  0  0  0
 46 52  1  0  0  0  0
 47 67  1  0  0  0  0
 48 68  1  0  0  0  0
 49 52  1  0  0  0  0
 49 68  1  0  0  0  0
 50 71  1  0  0  0  0
 51 66  1  0  0  0  0
 52 65  1  0  0  0  0
 53 61  1  0  0  0  0
 54 62  1  0  0  0  0
 55 62  1  0  0  0  0
 56 62  1  0  0  0  0
 57 73  1  0  0  0  0
 58 59  1  0  0  0  0
 59 80  1  0  0  0  0
 60 62  1  0  0  0  0
 60 72  1  0  0  0  0
 61 73  1  0  0  0  0
 63 65  1  0  0  0  0
M  CHG  1  73   1
M  ISO  4  37 100  59 101  67 100  80 101
M  END
> <Batch ID>
0183

> <Smiles>
CNC(C)C(=O)NC(C(=O)N1Cc2cc([101O:1][101CH2:1]Cc3ccc4c(n3)CC[100N:0]([100C:0](=O)N3CCCC(n5nc(-c6ccc(Oc7ccc(F)cc7F)cc6)c(C(N)=O)c5N)C3)C4)ccc2CC1C(=O)NC1CCCc2ccccc21)C(C)(C)C

> <Shape>
0.216

> <Color>
0.091

> <Negative vol penalty>
0.000

$$$$

  -OEChem-04052323073D

 81 90  0     1  0  0  0  0  0999 V2000
  -18.1931  -33.1555   22.8443 C   0  0  0  0  0  0  0  0  0  0  0  0
  -19.3658  -33.1589   22.0959 C   0  0  0  0  0  0  0  0  0  0  0  0
  -25.0159  -14.4212   19.2537 C   0  0  0  0  0  0  0  0  0  0  0  0
  -27.2902  -14.2684   20.0547 C   0  0  0  0  0  0  0  0  0  0  0  0
  -18.0254  -32.2274   23.8710 C   0  0  0  0  0  0  0  0  0  0  0  0
  -20.3721  -32.2347   22.3746 C   0  0  0  0  0  0  0  0  0  0  0  0
  -25.4949  -28.4132   19.1389 C   0  0  0  0  0  0  0  0  0  0  0  0
  -24.8190  -13.0738   19.5558 C   0  0  0  0  0  0  0  0  0  0  0  0
  -27.0932  -12.9210   20.3569 C   0  0  0  0  0  0  0  0  0  0  0  0
  -26.8607  -28.1486   19.2293 C   0  0  0  0  0  0  0  0  0  0  0  0
  -24.2016  -11.2015   22.3029 C   0  0  0  0  0  0  0  0  0  0  0  0
  -23.0212  -10.8498   22.9576 C   0  0  0  0  0  0  0  0  0  0  0  0
  -26.4278  -26.5407   20.9747 C   0  0  0  0  0  0  0  0  0  0  0  0
  -22.4236   -9.4139   21.1088 C   0  0  0  0  0  0  0  0  0  0  0  0
  -26.2516  -15.0185   19.5030 C   0  0  0  0  0  0  0  0  0  0  0  0
  -26.2323  -17.5130   20.0364 C   0  0  0  0  0  0  0  0  0  0  0  0
  -19.0260  -31.2850   24.1562 C   0  0  0  0  0  0  0  0  0  0  0  0
  -24.5847  -27.7503   19.9748 C   0  0  0  0  0  0  0  0  0  0  0  0
  -20.2182  -31.2939   23.4071 C   0  0  0  0  0  0  0  0  0  0  0  0
  -25.0506  -26.7968   20.8912 C   0  0  0  0  0  0  0  0  0  0  0  0
  -30.1329  -23.9939   17.8987 C   0  0  0  0  0  0  0  0  0  0  0  0
  -25.8576  -12.3237   20.1075 C   0  0  0  0  0  0  0  0  0  0  0  0
  -27.3277  -27.2144   20.1493 C   0  0  0  0  0  0  0  0  0  0  0  0
  -24.4930  -10.6594   21.0511 C   0  0  0  0  0  0  0  0  0  0  0  0
  -22.1323   -9.9560   22.3605 C   0  0  0  0  0  0  0  0  0  0  0  0
  -23.6040   -9.7656   20.4540 C   0  0  0  0  0  0  0  0  0  0  0  0
  -26.4559  -16.4101   19.1905 C   0  0  0  0  0  0  0  0  0  0  0  0
  -30.9332  -24.7229   18.7632 C   0  0  0  0  0  0  0  0  0  0  0  0
  -28.8056  -24.3318   17.8589 C   0  0  0  0  0  0  0  0  0  0  0  0
  -26.5744  -18.6042   19.2755 C   0  0  0  0  0  0  0  0  0  0  0  0
  -29.1759  -25.9468   19.4424 C   0  0  0  0  0  0  0  0  0  1  0  0
  -25.7578  -17.5481   21.3889 C   0  0  0  0  0  0  0  0  0  0  0  0
  -22.5207  -28.6620   22.2136 C   0  0  0  0  0  0  0  0  0  0  0  0
  -21.6671  -25.5331   22.1496 C   0  0  0  0  0  0  0  0  0  0  0  0
  -22.5303  -22.3085   21.4400 C   0  0  0  0  0  0  0  0  0  0  0  0
  -30.0257  -21.1659   15.7158 C   0  0  0  0  0  0  0  0  0  0  0  0
  -18.8191  -30.3320   25.3067 C   0  0  0  0  0  0  0  0  0  0  0  0
  -23.1119  -28.0274   19.8464 C   0  0  0  0  0  0  0  0  0  0  0  0
  -24.1127  -26.0431   21.7972 C   0  0  0  0  0  0  0  0  0  0  0  0
  -32.3665  -24.2849   18.6574 C   0  0  0  0  0  0  0  0  0  0  0  0
  -19.7772  -29.1437   25.2931 C   0  0  0  0  0  0  0  0  0  0  0  0
  -32.1996  -22.9070   17.9944 C   0  0  0  0  0  0  0  0  0  0  0  0
  -27.5726  -18.9881   14.3316 C   0  0  0  0  0  0  0  0  0  0  0  0
  -21.2053  -29.6123   25.0330 C   0  0  0  0  0  0  0  0  0  0  0  0
  -27.0499  -18.2104   15.5407 C   0  0  0  0  0  0  0  0  0  0  0  0
  -29.0698  -19.2670   14.4443 C   0  0  0  0  0  0  0  0  0  0  0  0
  -28.9609  -19.1530   16.9037 C   0  0  0  0  0  0  0  0  0  0  0  0
  -21.3223  -30.2911   23.6629 C   0  0  1  0  0  0  0  0  0  0  0  0
  -30.9279  -22.9978   17.1263 C   0  0  1  0  0  0  0  0  0  0  0  0
  -22.3247  -27.6690   21.1031 C   0  0  1  0  0  0  0  0  0  0  0  0
  -27.4448  -18.8966   16.8622 C   0  0  2  0  0  0  0  0  0  0  0  0
  -27.8555  -23.6493   16.9374 C   0  0  0  0  0  0  0  0  0  0  0  0
  -21.6368  -19.9651   21.5281 C   0  0  0  0  0  0  0  0  0  0  0  0
  -22.1142  -25.4786   25.1674 C   0  0  0  0  0  0  0  0  0  0  0  0
  -22.1431  -22.9780   25.0477 C   0  0  0  0  0  0  0  0  0  0  0  0
  -20.0899  -24.2327   24.3900 C   0  0  0  0  0  0  0  0  0  0  0  0
  -22.7757  -21.9810   18.5089 C   0  0  0  0  0  0  0  0  0  0  0  0
  -22.1143  -24.2879   22.8765 C   0  0  1  0  0  0  0  0  0  0  0  0
  -21.8028  -21.2153   20.6782 C   0  0  2  0  0  0  0  0  0  0  0  0
  -21.6335  -24.2597   24.3548 C   0  0  0  0  0  0  0  0  0  0  0  0
  -26.9051  -16.7679   17.9846 N   0  0  0  0  0  0  0  0  0  0  0  0
  -30.5001  -25.7135   19.5552 N   0  0  0  0  0  0  0  0  0  0  0  0
  -28.2917  -25.3115   18.6345 N   0  0  0  0  0  0  0  0  0  0  0  0
  -26.9666  -18.1078   18.0672 N   0  0  0  0  0  0  0  0  0  0  0  0
  -22.6824  -26.3538   21.6382 N   0  0  0  0  0  0  0  0  0  0  0  0
  -29.3773  -19.9199   15.7191 N   0  0  0  0  0  0  0  0  0  0  0  0
  -26.5750  -19.9301   19.5289 N   0  0  0  0  0  0  0  0  0  0  0  0
  -25.4527  -16.3352   22.0215 N   0  0  0  0  0  0  0  0  0  0  0  0
  -21.3605  -29.2998   22.6093 N   0  0  0  0  0  0  0  0  0  0  0  0
  -21.6513  -23.1595   22.0760 N   0  0  0  0  0  0  0  0  0  0  0  0
  -30.2740  -21.7180   16.9665 N   0  0  0  0  0  0  0  0  0  0  0  0
  -22.5597  -20.8500   19.4476 N   0  3  0  0  0  0  0  0  0  0  0  0
  -25.5931  -18.6241   22.0123 O   0  0  0  0  0  0  0  0  0  0  0  0
  -23.6413  -28.8355   22.6782 O   0  0  0  0  0  0  0  0  0  0  0  0
  -20.4612  -25.7654   22.0333 O   0  0  0  0  0  0  0  0  0  0  0  0
  -23.7558  -22.3963   21.4711 O   0  0  0  0  0  0  0  0  0  0  0  0
  -30.3538  -21.7460   14.6753 O   0  0  0  0  0  0  0  0  0  0  0  0
  -25.6656  -11.0089   20.4027 O   0  0  0  0  0  0  0  0  0  0  0  0
  -28.6604  -26.9548   20.2400 O   0  0  0  0  0  0  0  0  0  1  0  0
  -20.9995   -9.6172   22.9901 F   0  0  0  0  0  0  0  0  0  0  0  0
  -23.8790   -9.2406   19.2521 F   0  0  0  0  0  0  0  0  0  0  0  0
  1  2  1  0  0  0  0
  1  5  2  0  0  0  0
  2  6  2  0  0  0  0
  3  8  2  0  0  0  0
  3 15  1  0  0  0  0
  4  9  1  0  0  0  0
  4 15  2  0  0  0  0
  5 17  1  0  0  0  0
  6 19  1  0  0  0  0
  7 10  2  0  0  0  0
  7 18  1  0  0  0  0
  8 22  1  0  0  0  0
  9 22  2  0  0  0  0
 10 23  1  0  0  0  0
 11 12  2  0  0  0  0
 11 24  1  0  0  0  0
 12 25  1  0  0  0  0
 13 20  1  0  0  0  0
 13 23  2  0  0  0  0
 14 25  2  0  0  0  0
 14 26  1  0  0  0  0
 15 27  1  0  0  0  0
 16 27  1  0  0  0  0
 16 30  2  0  0  0  0
 16 32  1  0  0  0  0
 17 19  2  0  0  0  0
 17 37  1  0  0  0  0
 18 20  2  0  0  0  0
 18 38  1  0  0  0  0
 19 48  1  0  0  0  0
 20 39  1  0  0  0  0
 21 28  2  0  0  0  0
 21 29  1  0  0  0  0
 21 49  1  0  0  0  0
 22 78  1  0  0  0  0
 23 79  1  0  0  0  0
 24 26  2  0  0  0  0
 24 78  1  0  0  0  0
 25 80  1  0  0  0  0
 26 81  1  0  0  0  0
 27 61  2  0  0  0  0
 28 40  1  0  0  0  0
 28 62  1  0  0  0  0
 29 52  1  0  0  0  0
 29 63  2  0  0  0  0
 30 64  1  0  0  0  0
 30 67  1  0  0  0  0
 31 62  2  0  0  0  0
 31 63  1  0  0  0  0
 31 79  1  0  0  0  0
 32 68  1  0  0  0  0
 32 73  2  0  0  0  0
 33 50  1  0  0  0  0
 33 69  1  0  0  0  0
 33 74  2  0  0  0  0
 34 58  1  0  0  0  0
 34 65  1  0  0  0  0
 34 75  2  0  0  0  0
 35 59  1  0  0  0  0
 35 70  1  0  0  0  0
 35 76  2  0  0  0  0
 36 66  1  0  0  0  0
 36 71  1  0  0  0  0
 36 77  2  0  0  0  0
 37 41  1  0  0  0  0
 38 50  1  0  0  0  0
 39 65  1  0  0  0  0
 40 42  1  0  0  0  0
 41 44  1  0  0  0  0
 42 49  1  0  0  0  0
 43 45  1  0  0  0  0
 43 46  1  0  0  0  0
 44 48  1  0  0  0  0
 45 51  1  0  0  0  0
 46 66  1  0  0  0  0
 47 51  1  0  0  0  0
 47 66  1  0  0  0  0
 48 69  1  0  0  0  0
 49 71  1  0  0  0  0
 50 65  1  0  0  0  0
 51 64  1  0  0  0  0
 53 59  1  0  0  0  0
 54 60  1  0  0  0  0
 55 60  1  0  0  0  0
 56 60  1  0  0  0  0
 57 72  1  0  0  0  0
 58 60  1  0  0  0  0
 58 70  1  0  0  0  0
 59 72  1  0  0  0  0
 61 64  1  0  0  0  0
M  CHG  1  72   1
M  ISO  4  31 101  36 100  71 100  79 101
M  END
> <Batch ID>
0183

> <Smiles>
CNC(C)C(=O)NC(C(=O)N1Cc2cc([101O:1][101c:1]3nc(C)c4c(n3)CCC4[100NH:0][100C:0](=O)N3CCCC(n4nc(-c5ccc(Oc6ccc(F)cc6F)cc5)c(C(N)=O)c4N)C3)ccc2CC1C(=O)NC1CCCc2ccccc21)C(C)(C)C

> <Shape>
0.186

> <Color>
0.090

> <Negative vol penalty>
0.000

$$$$

  -OEChem-04052323073D

 84 93  0     1  0  0  0  0  0999 V2000
  -28.3333  -36.6792   21.6551 C   0  0  0  0  0  0  0  0  0  0  0  0
  -28.4619  -35.3817   22.1403 C   0  0  0  0  0  0  0  0  0  0  0  0
  -24.2900   -9.5688   22.1340 C   0  0  0  0  0  0  0  0  0  0  0  0
  -24.4630   -8.6803   19.8940 C   0  0  0  0  0  0  0  0  0  0  0  0
  -27.0755  -37.2774   21.5926 C   0  0  0  0  0  0  0  0  0  0  0  0
  -27.3327  -34.6820   22.5643 C   0  0  0  0  0  0  0  0  0  0  0  0
  -27.2521  -29.9116   20.8668 C   0  0  0  0  0  0  0  0  0  0  0  0
  -23.1334   -8.8177   22.3426 C   0  0  0  0  0  0  0  0  0  0  0  0
  -23.3063   -7.9291   20.1026 C   0  0  0  0  0  0  0  0  0  0  0  0
  -28.0628  -28.9878   21.5249 C   0  0  0  0  0  0  0  0  0  0  0  0
  -20.3372   -6.8581   23.5903 C   0  0  0  0  0  0  0  0  0  0  0  0
  -20.2203   -6.1693   24.7975 C   0  0  0  0  0  0  0  0  0  0  0  0
  -26.1465  -28.1914   22.7549 C   0  0  0  0  0  0  0  0  0  0  0  0
  -22.2245   -4.9230   24.2806 C   0  0  0  0  0  0  0  0  0  0  0  0
  -29.3481  -23.8891   22.5957 C   0  0  0  0  0  0  0  0  0  0  0  0
  -24.9549   -9.5001   20.9096 C   0  0  0  0  0  0  0  0  0  0  0  0
  -27.4765   -9.8837   20.9512 C   0  0  0  0  0  0  0  0  0  0  0  0
  -25.9291  -36.5812   22.0071 C   0  0  0  0  0  0  0  0  0  0  0  0
  -25.8822  -29.9897   21.1562 C   0  0  0  0  0  0  0  0  0  0  0  0
  -26.0585  -35.2719   22.5086 C   0  0  0  0  0  0  0  0  0  0  0  0
  -25.3201  -29.1153   22.0972 C   0  0  0  0  0  0  0  0  0  0  0  0
  -28.7224  -23.5570   21.4114 C   0  0  0  0  0  0  0  0  0  0  0  0
  -22.6415   -7.9979   21.3270 C   0  0  0  0  0  0  0  0  0  0  0  0
  -27.5106  -28.1295   22.4712 C   0  0  0  0  0  0  0  0  0  0  0  0
  -21.3978   -6.5794   22.7281 C   0  0  0  0  0  0  0  0  0  0  0  0
  -21.1639   -5.2018   25.1427 C   0  0  0  0  0  0  0  0  0  0  0  0
  -22.3414   -5.6118   23.0733 C   0  0  0  0  0  0  0  0  0  0  0  0
  -26.1494  -10.2762   20.6933 C   0  0  0  0  0  0  0  0  0  0  0  0
  -27.9473  -24.5494   20.8469 C   0  0  0  0  0  0  0  0  0  0  0  0
  -28.2337  -10.9674   20.5789 C   0  0  0  0  0  0  0  0  0  0  0  0
  -28.4495  -25.9764   22.5435 C   0  0  0  0  0  0  0  0  0  1  0  0
  -27.9798   -8.6497   21.4801 C   0  0  0  0  0  0  0  0  0  0  0  0
  -23.9620  -32.2346   22.3298 C   0  0  0  0  0  0  0  0  0  0  0  0
  -21.6477  -30.0737   21.6248 C   0  0  0  0  0  0  0  0  0  0  0  0
  -20.7945  -26.8131   21.0889 C   0  0  0  0  0  0  0  0  0  0  0  0
  -26.8590  -16.7264   20.3104 C   0  0  0  0  0  0  0  0  0  0  0  0
  -24.5966  -37.2865   21.9650 C   0  0  0  0  0  0  0  0  0  0  0  0
  -25.0163  -30.9736   20.4182 C   0  0  0  0  0  0  0  0  0  0  0  0
  -23.8513  -29.1452   22.4292 C   0  0  0  0  0  0  0  0  0  0  0  0
  -23.4034  -36.3417   22.0835 C   0  0  0  0  0  0  0  0  0  0  0  0
  -28.2598  -14.6883   17.6042 C   0  0  0  0  0  0  0  0  0  0  0  0
  -23.6218  -35.3455   23.2177 C   0  0  0  0  0  0  0  0  0  0  0  0
  -27.9374  -13.2825   18.0997 C   0  0  0  0  0  0  0  0  0  0  0  0
  -25.3131  -19.6258   19.6156 C   0  0  0  0  0  0  0  0  0  0  0  0
  -27.1856  -15.7036   17.9961 C   0  0  0  0  0  0  0  0  0  0  0  0
  -25.6622  -18.4283   18.7266 C   0  0  0  0  0  0  0  0  0  0  0  0
  -26.5599  -14.3025   19.9451 C   0  0  0  0  0  0  0  0  0  0  0  0
  -24.8541  -34.4716   22.9548 C   0  0  1  0  0  0  0  0  0  0  0  0
  -23.7302  -31.3149   21.1644 C   0  0  1  0  0  0  0  0  0  0  0  0
  -27.6681  -13.2939   19.6117 C   0  0  1  0  0  0  0  0  0  0  0  0
  -26.4980  -19.2478   20.5175 C   0  0  2  0  0  0  0  0  0  0  0  0
  -27.2226  -24.3028   19.5650 C   0  0  0  0  0  0  0  0  0  0  0  0
  -18.8204  -25.3530   20.5707 C   0  0  0  0  0  0  0  0  0  0  0  0
  -20.7021  -30.3307   24.5144 C   0  0  0  0  0  0  0  0  0  0  0  0
  -19.3977  -28.2166   24.2023 C   0  0  0  0  0  0  0  0  0  0  0  0
  -18.8648  -30.2244   22.8211 C   0  0  0  0  0  0  0  0  0  0  0  0
  -21.9979  -25.8891   18.5479 C   0  0  0  0  0  0  0  0  0  0  0  0
  -28.8897  -22.1976   20.7990 C   0  0  0  0  0  0  0  0  0  0  0  0
  -27.7979  -20.0026   20.3206 C   0  0  0  0  0  0  0  0  0  0  0  0
  -20.9895  -28.9330   22.3627 C   0  0  1  0  0  0  0  0  0  0  0  0
  -19.9777  -26.1527   19.9929 C   0  0  2  0  0  0  0  0  0  0  0  0
  -20.0166  -29.4267   23.4705 C   0  0  0  0  0  0  0  0  0  0  0  0
  -29.2331  -25.0939   23.1920 N   0  0  0  0  0  0  0  0  0  0  0  0
  -26.0650  -11.5128   20.1957 N   0  0  0  0  0  0  0  0  0  0  0  0
  -27.7880  -25.7750   21.3879 N   0  0  0  0  0  0  0  0  0  0  0  0
  -27.3485  -11.9068   20.1381 N   0  0  0  0  0  0  0  0  0  0  0  0
  -23.0473  -30.1290   21.6855 N   0  0  0  0  0  0  0  0  0  0  0  0
  -26.8684  -15.6409   19.4278 N   0  0  0  0  0  0  0  0  0  0  0  0
  -26.5097  -17.9628   19.8147 N   0  0  0  0  0  0  0  0  0  0  0  0
  -29.5636  -11.1990   20.5889 N   0  0  0  0  0  0  0  0  0  0  0  0
  -27.0641   -7.6413   21.8102 N   0  0  0  0  0  0  0  0  0  0  0  0
  -24.5451  -33.4398   21.9881 N   0  0  0  0  0  0  0  0  0  0  0  0
  -20.3616  -28.0969   21.3452 N   0  0  0  0  0  0  0  0  0  0  0  0
  -20.8332  -25.2306   19.1936 N   0  3  0  0  0  0  0  0  0  0  0  0
  -27.6915  -21.3292   20.9695 N   0  3  0  0  0  0  0  0  0  0  0  0
  -29.2041   -8.4533   21.6701 O   0  0  0  0  0  0  0  0  0  0  0  0
  -23.6346  -31.8777   23.4555 O   0  0  0  0  0  0  0  0  0  0  0  0
  -20.9462  -30.8818   21.0110 O   0  0  0  0  0  0  0  0  0  0  0  0
  -21.7211  -26.2455   21.6630 O   0  0  0  0  0  0  0  0  0  0  0  0
  -27.1241  -16.5938   21.5125 O   0  0  0  0  0  0  0  0  0  0  0  0
  -21.5130   -7.2646   21.5303 O   0  0  0  0  0  0  0  0  0  0  0  0
  -28.3097  -27.2158   23.1237 O   0  0  0  0  0  0  0  0  0  1  0  0
  -21.0523   -4.5415   26.3027 F   0  0  0  0  0  0  0  0  0  0  0  0
  -23.3631   -5.3405   22.2497 F   0  0  0  0  0  0  0  0  0  0  0  0
  1  2  1  0  0  0  0
  1  5  2  0  0  0  0
  2  6  2  0  0  0  0
  3  8  2  0  0  0  0
  3 16  1  0  0  0  0
  4  9  1  0  0  0  0
  4 16  2  0  0  0  0
  5 18  1  0  0  0  0
  6 20  1  0  0  0  0
  7 10  2  0  0  0  0
  7 19  1  0  0  0  0
  8 23  1  0  0  0  0
  9 23  2  0  0  0  0
 10 24  1  0  0  0  0
 11 12  2  0  0  0  0
 11 25  1  0  0  0  0
 12 26  1  0  0  0  0
 13 21  1  0  0  0  0
 13 24  2  0  0  0  0
 14 26  2  0  0  0  0
 14 27  1  0  0  0  0
 15 22  1  0  0  0  0
 15 63  2  0  0  0  0
 16 28  1  0  0  0  0
 17 28  1  0  0  0  0
 17 30  2  0  0  0  0
 17 32  1  0  0  0  0
 18 20  2  0  0  0  0
 18 37  1  0  0  0  0
 19 21  2  0  0  0  0
 19 38  1  0  0  0  0
 20 48  1  0  0  0  0
 21 39  1  0  0  0  0
 22 29  2  0  0  0  0
 22 58  1  0  0  0  0
 23 81  1  0  0  0  0
 24 82  1  0  0  0  0
 25 27  2  0  0  0  0
 25 81  1  0  0  0  0
 26 83  1  0  0  0  0
 27 84  1  0  0  0  0
 28 64  2  0  0  0  0
 29 52  1  0  0  0  0
 29 65  1  0  0  0  0
 30 66  1  0  0  0  0
 30 70  1  0  0  0  0
 31 63  1  0  0  0  0
 31 65  2  0  0  0  0
 31 82  1  0  0  0  0
 32 71  1  0  0  0  0
 32 76  2  0  0  0  0
 33 49  1  0  0  0  0
 33 72  1  0  0  0  0
 33 77  2  0  0  0  0
 34 60  1  0  0  0  0
 34 67  1  0  0  0  0
 34 78  2  0  0  0  0
 35 61  1  0  0  0  0
 35 73  1  0  0  0  0
 35 79  2  0  0  0  0
 36 68  1  0  0  0  0
 36 69  1  0  0  0  0
 36 80  2  0  0  0  0
 37 40  1  0  0  0  0
 38 49  1  0  0  0  0
 39 67  1  0  0  0  0
 40 42  1  0  0  0  0
 41 43  1  0  0  0  0
 41 45  1  0  0  0  0
 42 48  1  0  0  0  0
 43 50  1  0  0  0  0
 44 46  1  0  0  0  0
 44 51  1  0  0  0  0
 45 68  1  0  0  0  0
 46 69  1  0  0  0  0
 47 50  1  0  0  0  0
 47 68  1  0  0  0  0
 48 72  1  0  0  0  0
 49 67  1  0  0  0  0
 50 66  1  0  0  0  0
 51 59  1  0  0  0  0
 51 69  1  0  0  0  0
 53 61  1  0  0  0  0
 54 62  1  0  0  0  0
 55 62  1  0  0  0  0
 56 62  1  0  0  0  0
 57 74  1  0  0  0  0
 58 75  1  0  0  0  0
 59 75  1  0  0  0  0
 60 62  1  0  0  0  0
 60 73  1  0  0  0  0
 61 74  1  0  0  0  0
 64 66  1  0  0  0  0
M  CHG  2  74   1  75   1
M  ISO  4  31 101  36 100  69 100  82 101
M  END
> <Batch ID>
0183

> <Smiles>
CNC(C)C(=O)NC(C(=O)N1Cc2cc([101O:1][101c:1]3ncc(CNCC4CC[100N:0]4[100C:0](=O)N4CCCC(n5nc(-c6ccc(Oc7ccc(F)cc7F)cc6)c(C(N)=O)c5N)C4)c(C)n3)ccc2CC1C(=O)NC1CCCc2ccccc21)C(C)(C)C

> <Shape>
0.276

> <Color>
0.081

> <Negative vol penalty>
0.000

$$$$

  -OEChem-04052323073D

 86 96  0     1  0  0  0  0  0999 V2000
  -29.5983  -33.7560   24.6389 C   0  0  0  0  0  0  0  0  0  0  0  0
  -29.4215  -32.3762   24.6473 C   0  0  0  0  0  0  0  0  0  0  0  0
  -23.4206   -9.6307   21.3144 C   0  0  0  0  0  0  0  0  0  0  0  0
  -24.0808  -10.5841   23.4339 C   0  0  0  0  0  0  0  0  0  0  0  0
  -28.5778  -34.5856   24.1760 C   0  0  0  0  0  0  0  0  0  0  0  0
  -28.2236  -31.8251   24.1939 C   0  0  0  0  0  0  0  0  0  0  0  0
  -28.9460  -27.8328   21.1632 C   0  0  0  0  0  0  0  0  0  0  0  0
  -22.7902   -8.5812   21.9828 C   0  0  0  0  0  0  0  0  0  0  0  0
  -23.4503   -9.5346   24.1023 C   0  0  0  0  0  0  0  0  0  0  0  0
  -29.2647  -26.6201   21.7728 C   0  0  0  0  0  0  0  0  0  0  0  0
  -19.8828   -8.0665   23.6305 C   0  0  0  0  0  0  0  0  0  0  0  0
  -18.6087   -7.6963   23.2002 C   0  0  0  0  0  0  0  0  0  0  0  0
  -26.9706  -25.9099   21.5458 C   0  0  0  0  0  0  0  0  0  0  0  0
  -19.4200   -5.4738   22.7107 C   0  0  0  0  0  0  0  0  0  0  0  0
  -29.7022  -22.4245   24.7830 C   0  0  0  0  0  0  0  0  0  0  0  0
  -24.0660  -10.6321   22.0399 C   0  0  0  0  0  0  0  0  0  0  0  0
  -24.1499  -12.9478   20.9731 C   0  0  0  0  0  0  0  0  0  0  0  0
  -27.3704  -34.0439   23.7076 C   0  0  0  0  0  0  0  0  0  0  0  0
  -27.6326  -28.0979   20.7496 C   0  0  0  0  0  0  0  0  0  0  0  0
  -27.1854  -32.6482   23.7255 C   0  0  0  0  0  0  0  0  0  0  0  0
  -26.6383  -27.1257   20.9290 C   0  0  0  0  0  0  0  0  0  0  0  0
  -22.8050   -8.5332   23.3767 C   0  0  0  0  0  0  0  0  0  0  0  0
  -28.2764  -25.6596   21.9668 C   0  0  0  0  0  0  0  0  0  0  0  0
  -20.9255   -7.1405   23.6009 C   0  0  0  0  0  0  0  0  0  0  0  0
  -18.3773   -6.3999   22.7403 C   0  0  0  0  0  0  0  0  0  0  0  0
  -20.6941   -5.8441   23.1411 C   0  0  0  0  0  0  0  0  0  0  0  0
  -24.7179  -11.7161   21.3500 C   0  0  0  0  0  0  0  0  0  0  0  0
  -30.0839  -22.9176   23.5673 C   0  0  0  0  0  0  0  0  0  0  0  0
  -25.1728  -13.6220   20.3522 C   0  0  0  0  0  0  0  0  0  0  0  0
  -30.6761  -20.7865   23.6567 C   0  0  0  0  0  0  0  0  0  0  0  0
  -22.8167  -13.4387   21.1671 C   0  0  0  0  0  0  0  0  0  0  0  0
  -25.4333  -30.2614   21.5151 C   0  0  0  0  0  0  0  0  0  0  0  0
  -23.7945  -28.8882   19.0756 C   0  0  0  0  0  0  0  0  0  0  0  0
  -23.2809  -26.1440   17.1129 C   0  0  0  0  0  0  0  0  0  0  0  0
  -30.5095  -15.2399   20.1355 C   0  0  0  0  0  0  0  0  0  0  0  0
  -26.2782  -34.9832   23.2610 C   0  0  0  0  0  0  0  0  0  0  0  0
  -27.3107  -29.4003   20.0694 C   0  0  0  0  0  0  0  0  0  0  0  0
  -25.2173  -27.3532   20.4844 C   0  0  0  0  0  0  0  0  0  0  0  0
  -25.1821  -34.2999   22.4474 C   0  0  0  0  0  0  0  0  0  0  0  0
  -29.7234  -12.0223   18.8294 C   0  0  0  0  0  0  0  0  0  0  0  0
  -24.7449  -33.0041   23.1231 C   0  0  0  0  0  0  0  0  0  0  0  0
  -28.3074  -11.7551   19.3427 C   0  0  0  0  0  0  0  0  0  0  0  0
  -30.3615  -20.5451   27.3051 C   0  0  0  0  0  0  0  0  0  0  0  0
  -31.0198  -19.4431   26.5356 C   0  0  0  0  0  0  0  0  0  0  0  0
  -30.1779  -18.3373   22.9856 C   0  0  0  0  0  0  0  0  0  0  0  0
  -30.5627  -12.7790   19.8566 C   0  0  0  0  0  0  0  0  0  0  0  0
  -28.5402  -13.7616   20.8654 C   0  0  0  0  0  0  0  0  0  0  0  0
  -25.9097  -32.0114   23.2185 C   0  0  1  0  0  0  0  0  0  0  0  0
  -31.2489  -19.4293   23.2637 C   0  0  1  0  0  0  0  0  0  0  0  0
  -25.8326  -29.7686   20.1530 C   0  0  1  0  0  0  0  0  0  0  0  0
  -29.8672  -20.2009   25.9195 C   0  0  0  0  0  0  0  0  0  0  0  0
  -27.6385  -13.0498   19.8424 C   0  0  2  0  0  0  0  0  0  0  0  0
  -31.0457  -17.9795   21.7558 C   0  0  1  0  0  0  0  0  0  0  0  0
  -21.8476  -25.3093   15.2297 C   0  0  0  0  0  0  0  0  0  0  0  0
  -21.4694  -28.5117   21.0153 C   0  0  0  0  0  0  0  0  0  0  0  0
  -20.4805  -26.8720   19.4023 C   0  0  0  0  0  0  0  0  0  0  0  0
  -20.8043  -29.2494   18.7201 C   0  0  0  0  0  0  0  0  0  0  0  0
  -33.0163  -19.3829   21.5956 C   0  0  0  0  0  0  0  0  0  0  0  0
  -25.6254  -25.7452   15.3513 C   0  0  0  0  0  0  0  0  0  0  0  0
  -29.9407  -24.2835   22.9631 C   0  0  0  0  0  0  0  0  0  1  0  0
  -30.3020  -17.6906   20.4668 C   0  0  0  0  0  0  0  0  0  0  0  0
  -22.8201  -27.7416   18.9541 C   0  0  1  0  0  0  0  0  0  0  0  0
  -23.1531  -25.9916   15.6080 C   0  0  2  0  0  0  0  0  0  0  0  0
  -21.4198  -28.0898   19.5332 C   0  0  0  0  0  0  0  0  0  0  0  0
  -26.0020  -11.6113   20.9978 N   0  0  0  0  0  0  0  0  0  0  0  0
  -30.0806  -21.1039   24.8109 N   0  0  0  0  0  0  0  0  0  0  0  0
  -26.2493  -12.7857   20.3930 N   0  0  0  0  0  0  0  0  0  0  0  0
  -30.6840  -21.8827   22.8914 N   0  3  0  0  0  0  0  0  0  0  0  0
  -24.9510  -28.6449   19.8301 N   0  0  0  0  0  0  0  0  0  0  0  0
  -29.8729  -13.9971   20.2881 N   0  0  0  0  0  0  0  0  0  0  0  0
  -31.5714  -19.3722   21.8022 N   0  0  2  0  0  0  0  0  0  0  0  0
  -25.2474  -14.8428   19.7807 N   0  0  0  0  0  0  0  0  0  0  0  0
  -21.8911  -12.6167   21.8243 N   0  0  0  0  0  0  0  0  0  0  0  0
  -26.1358  -31.3731   21.9394 N   0  0  0  0  0  0  0  0  0  0  0  0
  -22.8070  -27.3647   17.5447 N   0  0  0  0  0  0  0  0  0  0  0  0
  -29.7836  -16.3443   20.5642 N   0  0  0  0  0  0  0  0  0  0  0  0
  -24.2810  -25.1781   15.0721 N   0  3  0  0  0  0  0  0  0  0  0  0
  -22.4525  -14.5660   20.7548 O   0  0  0  0  0  0  0  0  0  0  0  0
  -24.5520  -29.6772   22.1346 O   0  0  0  0  0  0  0  0  0  0  0  0
  -23.5423  -29.9580   18.5157 O   0  0  0  0  0  0  0  0  0  0  0  0
  -23.7505  -25.2663   17.8338 O   0  0  0  0  0  0  0  0  0  0  0  0
  -31.6390  -15.3569   19.6481 O   0  0  0  0  0  0  0  0  0  0  0  0
  -22.1897   -7.5094   24.0293 O   0  0  0  0  0  0  0  0  0  0  0  0
  -28.5847  -24.4753   22.5621 O   0  0  0  0  0  0  0  0  0  1  0  0
  -17.1534   -6.0440   22.3285 F   0  0  0  0  0  0  0  0  0  0  0  0
  -21.6916   -4.9497   23.1114 F   0  0  0  0  0  0  0  0  0  0  0  0
  1  2  1  0  0  0  0
  1  5  2  0  0  0  0
  2  6  2  0  0  0  0
  3  8  2  0  0  0  0
  3 16  1  0  0  0  0
  4  9  1  0  0  0  0
  4 16  2  0  0  0  0
  5 18  1  0  0  0  0
  6 20  1  0  0  0  0
  7 10  2  0  0  0  0
  7 19  1  0  0  0  0
  8 22  1  0  0  0  0
  9 22  2  0  0  0  0
 10 23  1  0  0  0  0
 11 12  2  0  0  0  0
 11 24  1  0  0  0  0
 12 25  1  0  0  0  0
 13 21  1  0  0  0  0
 13 23  2  0  0  0  0
 14 25  2  0  0  0  0
 14 26  1  0  0  0  0
 15 28  2  0  0  0  0
 15 66  1  0  0  0  0
 16 27  1  0  0  0  0
 17 27  1  0  0  0  0
 17 29  2  0  0  0  0
 17 31  1  0  0  0  0
 18 20  2  0  0  0  0
 18 36  1  0  0  0  0
 19 21  2  0  0  0  0
 19 37  1  0  0  0  0
 20 48  1  0  0  0  0
 21 38  1  0  0  0  0
 22 83  1  0  0  0  0
 23 84  1  0  0  0  0
 24 26  2  0  0  0  0
 24 83  1  0  0  0  0
 25 85  1  0  0  0  0
 26 86  1  0  0  0  0
 27 65  2  0  0  0  0
 28 60  1  0  0  0  0
 28 68  1  0  0  0  0
 29 67  1  0  0  0  0
 29 72  1  0  0  0  0
 30 49  1  0  0  0  0
 30 66  1  0  0  0  0
 30 68  2  0  0  0  0
 31 73  1  0  0  0  0
 31 78  2  0  0  0  0
 32 50  1  0  0  0  0
 32 74  1  0  0  0  0
 32 79  2  0  0  0  0
 33 62  1  0  0  0  0
 33 69  1  0  0  0  0
 33 80  2  0  0  0  0
 34 63  1  0  0  0  0
 34 75  1  0  0  0  0
 34 81  2  0  0  0  0
 35 70  1  0  0  0  0
 35 76  1  0  0  0  0
 35 82  2  0  0  0  0
 36 39  1  0  0  0  0
 37 50  1  0  0  0  0
 38 69  1  0  0  0  0
 39 41  1  0  0  0  0
 40 42  1  0  0  0  0
 40 46  1  0  0  0  0
 41 48  1  0  0  0  0
 42 52  1  0  0  0  0
 43 44  1  0  0  0  0
 43 51  1  0  0  0  0
 44 51  1  0  0  0  0
 45 49  1  0  0  0  0
 45 53  1  0  0  0  0
 46 70  1  0  0  0  0
 47 52  1  0  0  0  0
 47 70  1  0  0  0  0
 48 74  1  0  0  0  0
 49 71  1  0  0  0  0
 50 69  1  0  0  0  0
 51 66  1  0  0  0  0
 52 67  1  0  0  0  0
 53 61  1  0  0  0  0
 53 71  1  0  0  0  0
 54 63  1  0  0  0  0
 55 64  1  0  0  0  0
 56 64  1  0  0  0  0
 57 64  1  0  0  0  0
 58 71  1  0  0  0  0
 59 77  1  0  0  0  0
 60 84  1  0  0  0  0
 61 76  1  0  0  0  0
 62 64  1  0  0  0  0
 62 75  1  0  0  0  0
 63 77  1  0  0  0  0
 65 67  1  0  0  0  0
M  CHG  2  68   1  77   1
M  ISO  4  35 100  60 101  76 100  84 101
M  END
> <Batch ID>
0183

> <Smiles>
CNC(C)C(=O)NC(C(=O)N1Cc2cc([101O:1][101CH2:1]c3cn(C4CC4)c(C4CC(C[100NH:0][100C:0](=O)N5CCCC(n6nc(-c7ccc(Oc8ccc(F)cc8F)cc7)c(C(N)=O)c6N)C5)N4C)n3)ccc2CC1C(=O)NC1CCCc2ccccc21)C(C)(C)C

> <Shape>
0.272

> <Color>
0.144

> <Negative vol penalty>
0.000

$$$$

  -OEChem-04052323073D

 81 89  0     1  0  0  0  0  0999 V2000
  -21.6555  -11.8391   20.7986 C   0  0  0  0  0  0  0  0  0  0  0  0
  -21.5533  -13.1777   21.1634 C   0  0  0  0  0  0  0  0  0  0  0  0
  -27.8062  -25.8933   20.2460 C   0  0  0  0  0  0  0  0  0  0  0  0
  -29.1860  -26.1847   22.2077 C   0  0  0  0  0  0  0  0  0  0  0  0
  -22.9096  -11.2722   20.5756 C   0  0  0  0  0  0  0  0  0  0  0  0
  -22.7055  -13.9500   21.3065 C   0  0  0  0  0  0  0  0  0  0  0  0
  -22.2704  -18.5075   19.1421 C   0  0  0  0  0  0  0  0  0  0  0  0
  -28.9329  -26.0230   19.4342 C   0  0  0  0  0  0  0  0  0  0  0  0
  -30.3128  -26.3143   21.3959 C   0  0  0  0  0  0  0  0  0  0  0  0
  -21.5444  -19.4750   19.8355 C   0  0  0  0  0  0  0  0  0  0  0  0
  -31.3949  -26.6366   16.8292 C   0  0  0  0  0  0  0  0  0  0  0  0
  -31.2942  -27.4534   15.7030 C   0  0  0  0  0  0  0  0  0  0  0  0
  -23.6063  -20.4528   20.6179 C   0  0  0  0  0  0  0  0  0  0  0  0
  -30.7737  -29.3408   17.1185 C   0  0  0  0  0  0  0  0  0  0  0  0
  -27.9326  -25.9742   21.6328 C   0  0  0  0  0  0  0  0  0  0  0  0
  -26.2454  -24.6531   23.0169 C   0  0  0  0  0  0  0  0  0  0  0  0
  -24.0772  -12.0405   20.7066 C   0  0  0  0  0  0  0  0  0  0  0  0
  -23.6718  -18.4989   19.1904 C   0  0  0  0  0  0  0  0  0  0  0  0
  -23.9765  -13.3926   21.0864 C   0  0  0  0  0  0  0  0  0  0  0  0
  -24.3477  -19.4857   19.9222 C   0  0  0  0  0  0  0  0  0  0  0  0
  -30.1863  -26.2335   20.0091 C   0  0  0  0  0  0  0  0  0  0  0  0
  -22.2123  -20.4461   20.5759 C   0  0  0  0  0  0  0  0  0  0  0  0
  -31.1849  -27.1719   18.1001 C   0  0  0  0  0  0  0  0  0  0  0  0
  -30.9836  -28.8055   15.8477 C   0  0  0  0  0  0  0  0  0  0  0  0
  -30.8744  -28.5240   18.2447 C   0  0  0  0  0  0  0  0  0  0  0  0
  -26.7690  -25.8409   22.4720 C   0  0  0  0  0  0  0  0  0  0  0  0
  -25.1450  -25.0591   23.7316 C   0  0  0  0  0  0  0  0  0  0  0  0
  -26.7120  -23.3035   22.8885 C   0  0  0  0  0  0  0  0  0  0  0  0
  -25.8679  -16.4486   20.2284 C   0  0  0  0  0  0  0  0  0  0  0  0
  -27.9228  -18.5823   18.9065 C   0  0  0  0  0  0  0  0  0  0  0  0
  -19.8660  -23.8340   21.4999 C   0  0  0  0  0  0  0  0  0  0  0  0
  -29.0448  -21.9296   18.1622 C   0  0  0  0  0  0  0  0  0  0  0  0
  -21.1012  -29.3750   23.2664 C   0  0  0  0  0  0  0  0  0  0  0  0
  -25.4133  -11.3716   20.5013 C   0  0  0  0  0  0  0  0  0  0  0  0
  -24.4410  -17.4645   18.4152 C   0  0  0  0  0  0  0  0  0  0  0  0
  -25.8516  -19.5323   19.9897 C   0  0  0  0  0  0  0  0  0  0  0  0
  -26.5641  -12.3559   20.3089 C   0  0  0  0  0  0  0  0  0  0  0  0
  -24.6377  -29.8173   24.5601 C   0  0  0  0  0  0  0  0  0  0  0  0
  -26.5000  -13.4634   21.3558 C   0  0  0  0  0  0  0  0  0  0  0  0
  -24.6414  -28.4015   25.1378 C   0  0  0  0  0  0  0  0  0  0  0  0
  -18.3080  -27.1021   22.4434 C   0  0  0  0  0  0  0  0  0  0  0  0
  -23.2431  -30.2429   24.0988 C   0  0  0  0  0  0  0  0  0  0  0  0
  -18.9128  -28.4961   22.5214 C   0  0  0  0  0  0  0  0  0  0  0  0
  -23.2162  -28.0112   23.0485 C   0  0  0  0  0  0  0  0  0  0  0  0
  -25.2018  -14.2694   21.2275 C   0  0  1  0  0  0  0  0  0  0  0  0
  -25.8514  -17.2418   18.9524 C   0  0  1  0  0  0  0  0  0  0  0  0
  -24.0436  -27.3551   24.1661 C   0  0  1  0  0  0  0  0  0  0  0  0
  -19.4963  -26.2403   22.0309 C   0  0  1  0  0  0  0  0  0  0  0  0
  -20.6760  -26.8661   22.7933 C   0  0  2  0  0  0  0  0  0  0  0  0
  -20.8497  -26.3422   24.2220 C   0  0  0  0  0  0  0  0  0  0  0  0
  -31.0039  -22.7318   16.8148 C   0  0  0  0  0  0  0  0  0  0  0  0
  -29.3660  -18.6676   21.5934 C   0  0  0  0  0  0  0  0  0  0  0  0
  -30.4976  -20.7700   20.8400 C   0  0  0  0  0  0  0  0  0  0  0  0
  -30.8749  -18.6391   19.5992 C   0  0  0  0  0  0  0  0  0  0  0  0
  -27.3172  -23.5857   16.4210 C   0  0  0  0  0  0  0  0  0  0  0  0
  -19.4685  -22.4498   21.9884 C   0  0  0  0  0  0  0  0  0  0  0  0
  -20.0841  -21.3296   21.1641 C   0  0  0  0  0  0  0  0  0  1  0  0
  -28.6457  -19.8142   19.3952 C   0  0  1  0  0  0  0  0  0  0  0  0
  -29.5087  -22.4541   16.8153 C   0  0  2  0  0  0  0  0  0  0  0  0
  -29.8177  -19.4709   20.3575 C   0  0  0  0  0  0  0  0  0  0  0  0
  -26.0595  -26.9205   22.8113 N   0  0  0  0  0  0  0  0  0  0  0  0
  -25.0787  -26.4126   23.5770 N   0  0  0  0  0  0  0  0  0  0  0  0
  -26.5589  -18.4957   19.2198 N   0  0  0  0  0  0  0  0  0  0  0  0
  -22.4436  -29.1357   23.5747 N   0  0  0  0  0  0  0  0  0  0  0  0
  -20.3330  -28.3037   22.8107 N   0  0  0  0  0  0  0  0  0  0  0  0
  -24.2373  -24.3868   24.4708 N   0  0  0  0  0  0  0  0  0  0  0  0
  -27.8575  -23.0631   22.1176 N   0  0  0  0  0  0  0  0  0  0  0  0
  -25.2906  -15.1978   20.1209 N   0  0  0  0  0  0  0  0  0  0  0  0
  -19.2896  -24.8421   22.2707 N   0  0  0  0  0  0  0  0  0  0  0  0
  -29.0483  -20.5513   18.2023 N   0  0  0  0  0  0  0  0  0  0  0  0
  -28.7958  -23.7187   16.4784 N   0  3  0  0  0  0  0  0  0  0  0  0
  -26.1210  -22.3374   23.4277 O   0  0  0  0  0  0  0  0  0  0  0  0
  -26.3688  -16.9349   21.2356 O   0  0  0  0  0  0  0  0  0  0  0  0
  -28.5436  -17.7317   18.2641 O   0  0  0  0  0  0  0  0  0  0  0  0
  -20.6074  -24.0221   20.5392 O   0  0  0  0  0  0  0  0  0  0  0  0
  -28.7159  -22.6687   19.0875 O   0  0  0  0  0  0  0  0  0  0  0  0
  -20.6008  -30.4957   23.4324 O   0  0  0  0  0  0  0  0  0  0  0  0
  -31.2861  -26.3598   19.2172 O   0  0  0  0  0  0  0  0  0  0  0  0
  -21.5011  -21.3978   21.2589 O   0  0  0  0  0  0  0  0  0  1  0  0
  -30.8884  -29.5901   14.7662 F   0  0  0  0  0  0  0  0  0  0  0  0
  -30.6727  -29.0442   19.4631 F   0  0  0  0  0  0  0  0  0  0  0  0
  1  2  1  0  0  0  0
  1  5  2  0  0  0  0
  2  6  2  0  0  0  0
  3  8  2  0  0  0  0
  3 15  1  0  0  0  0
  4  9  1  0  0  0  0
  4 15  2  0  0  0  0
  5 17  1  0  0  0  0
  6 19  1  0  0  0  0
  7 10  2  0  0  0  0
  7 18  1  0  0  0  0
  8 21  1  0  0  0  0
  9 21  2  0  0  0  0
 10 22  1  0  0  0  0
 11 12  2  0  0  0  0
 11 23  1  0  0  0  0
 12 24  1  0  0  0  0
 13 20  1  0  0  0  0
 13 22  2  0  0  0  0
 14 24  2  0  0  0  0
 14 25  1  0  0  0  0
 15 26  1  0  0  0  0
 16 26  1  0  0  0  0
 16 27  2  0  0  0  0
 16 28  1  0  0  0  0
 17 19  2  0  0  0  0
 17 34  1  0  0  0  0
 18 20  2  0  0  0  0
 18 35  1  0  0  0  0
 19 45  1  0  0  0  0
 20 36  1  0  0  0  0
 21 78  1  0  0  0  0
 22 79  1  0  0  0  0
 23 25  2  0  0  0  0
 23 78  1  0  0  0  0
 24 80  1  0  0  0  0
 25 81  1  0  0  0  0
 26 61  2  0  0  0  0
 27 62  1  0  0  0  0
 27 66  1  0  0  0  0
 28 67  1  0  0  0  0
 28 72  2  0  0  0  0
 29 46  1  0  0  0  0
 29 68  1  0  0  0  0
 29 73  2  0  0  0  0
 30 58  1  0  0  0  0
 30 63  1  0  0  0  0
 30 74  2  0  0  0  0
 31 56  1  0  0  0  0
 31 69  1  0  0  0  0
 31 75  2  0  0  0  0
 32 59  1  0  0  0  0
 32 70  1  0  0  0  0
 32 76  2  0  0  0  0
 33 64  1  0  0  0  0
 33 65  1  0  0  0  0
 33 77  2  0  0  0  0
 34 37  1  0  0  0  0
 35 46  1  0  0  0  0
 36 63  1  0  0  0  0
 37 39  1  0  0  0  0
 38 40  1  0  0  0  0
 38 42  1  0  0  0  0
 39 45  1  0  0  0  0
 40 47  1  0  0  0  0
 41 43  1  0  0  0  0
 41 48  1  0  0  0  0
 42 64  1  0  0  0  0
 43 65  1  0  0  0  0
 44 47  1  0  0  0  0
 44 64  1  0  0  0  0
 45 68  1  0  0  0  0
 46 63  1  0  0  0  0
 47 62  1  0  0  0  0
 48 49  1  0  0  0  0
 48 69  1  0  0  0  0
 49 50  1  0  0  0  0
 49 65  1  0  0  0  0
 51 59  1  0  0  0  0
 52 60  1  0  0  0  0
 53 60  1  0  0  0  0
 54 60  1  0  0  0  0
 55 71  1  0  0  0  0
 56 57  1  0  0  0  0
 57 79  1  0  0  0  0
 58 60  1  0  0  0  0
 58 70  1  0  0  0  0
 59 71  1  0  0  0  0
 61 62  1  0  0  0  0
M  CHG  1  71   1
M  ISO  4  33 100  57 101  65 100  79 101
M  END
> <Batch ID>
0183

> <Smiles>
CNC(C)C(=O)NC(C(=O)N1Cc2cc([101O:1][101CH2:1]CC(=O)NC3CC[100N:0]([100C:0](=O)N4CCCC(n5nc(-c6ccc(Oc7ccc(F)cc7F)cc6)c(C(N)=O)c5N)C4)C3C)ccc2CC1C(=O)NC1CCCc2ccccc21)C(C)(C)C

> <Shape>
0.210

> <Color>
0.074

> <Negative vol penalty>
0.000

$$$$

  -OEChem-04052323073D

 83 92  0     1  0  0  0  0  0999 V2000
  -29.4913  -33.5219   25.2418 C   0  0  0  0  0  0  0  0  0  0  0  0
  -29.2770  -32.2357   24.7570 C   0  0  0  0  0  0  0  0  0  0  0  0
  -21.9774  -12.8396   22.7171 C   0  0  0  0  0  0  0  0  0  0  0  0
  -21.5401  -13.4189   20.4127 C   0  0  0  0  0  0  0  0  0  0  0  0
  -28.4057  -34.3234   25.5923 C   0  0  0  0  0  0  0  0  0  0  0  0
  -27.9769  -31.7498   24.6233 C   0  0  0  0  0  0  0  0  0  0  0  0
  -27.2353  -29.3716   20.2143 C   0  0  0  0  0  0  0  0  0  0  0  0
  -20.6441  -13.0982   23.0351 C   0  0  0  0  0  0  0  0  0  0  0  0
  -20.2068  -13.6774   20.7307 C   0  0  0  0  0  0  0  0  0  0  0  0
  -27.7251  -28.0711   20.1021 C   0  0  0  0  0  0  0  0  0  0  0  0
  -17.3893  -11.8955   21.2847 C   0  0  0  0  0  0  0  0  0  0  0  0
  -16.4107  -11.3912   20.4281 C   0  0  0  0  0  0  0  0  0  0  0  0
  -25.5111  -27.2079   20.5169 C   0  0  0  0  0  0  0  0  0  0  0  0
  -15.6241  -13.6361   20.0053 C   0  0  0  0  0  0  0  0  0  0  0  0
  -29.5505  -22.3128   18.4352 C   0  0  0  0  0  0  0  0  0  0  0  0
  -22.4254  -13.0000   21.4059 C   0  0  0  0  0  0  0  0  0  0  0  0
  -24.3559  -11.5070   20.6633 C   0  0  0  0  0  0  0  0  0  0  0  0
  -27.0912  -33.8507   25.4537 C   0  0  0  0  0  0  0  0  0  0  0  0
  -25.8795  -29.6002   20.4900 C   0  0  0  0  0  0  0  0  0  0  0  0
  -26.8726  -32.5453   24.9735 C   0  0  0  0  0  0  0  0  0  0  0  0
  -25.0061  -28.5123   20.6296 C   0  0  0  0  0  0  0  0  0  0  0  0
  -19.7588  -13.5171   22.0419 C   0  0  0  0  0  0  0  0  0  0  0  0
  -26.8636  -26.9890   20.2563 C   0  0  0  0  0  0  0  0  0  0  0  0
  -17.4851  -13.2701   21.5017 C   0  0  0  0  0  0  0  0  0  0  0  0
  -15.5282  -12.2615   19.7884 C   0  0  0  0  0  0  0  0  0  0  0  0
  -16.6026  -14.1404   20.8619 C   0  0  0  0  0  0  0  0  0  0  0  0
  -23.8026  -12.7337   21.0768 C   0  0  0  0  0  0  0  0  0  0  0  0
  -29.6303  -21.5083   19.5504 C   0  0  0  0  0  0  0  0  0  0  0  0
  -29.1320  -23.3014   20.8796 C   0  0  0  0  0  0  0  0  0  0  0  0
  -29.0529  -24.1060   19.7643 C   0  0  0  0  0  0  0  0  0  0  0  0
  -25.6897  -11.7773   20.4773 C   0  0  0  0  0  0  0  0  0  0  0  0
  -23.7211  -10.2369   20.4650 C   0  0  0  0  0  0  0  0  0  0  0  0
  -24.2748  -30.9893   22.8562 C   0  0  0  0  0  0  0  0  0  0  0  0
  -21.7283  -30.4622   20.9171 C   0  0  0  0  0  0  0  0  0  0  0  0
  -20.3465  -28.6476   18.3784 C   0  0  0  0  0  0  0  0  0  0  0  0
  -28.4295  -16.8992   19.1948 C   0  0  0  0  0  0  0  0  0  0  0  0
  -25.9513  -34.7366   25.8901 C   0  0  0  0  0  0  0  0  0  0  0  0
  -25.3617  -31.0094   20.5815 C   0  0  0  0  0  0  0  0  0  0  0  0
  -23.5381  -28.7043   20.9062 C   0  0  0  0  0  0  0  0  0  0  0  0
  -24.5916  -34.2826   25.3653 C   0  0  0  0  0  0  0  0  0  0  0  0
  -29.1964  -14.6233   21.9782 C   0  0  0  0  0  0  0  0  0  0  0  0
  -24.4156  -32.7810   25.5677 C   0  0  0  0  0  0  0  0  0  0  0  0
  -27.9040  -13.8190   22.0627 C   0  0  0  0  0  0  0  0  0  0  0  0
  -28.9574  -16.0678   21.5377 C   0  0  0  0  0  0  0  0  0  0  0  0
  -29.2388  -19.0058   20.4820 C   0  0  0  0  0  0  0  0  0  0  0  0
  -29.3964  -19.0963   18.3651 C   0  0  0  0  0  0  0  0  0  0  0  0
  -26.8811  -15.3681   20.3619 C   0  0  0  0  0  0  0  0  0  0  0  0
  -25.4762  -31.9915   24.7909 C   0  0  1  0  0  0  0  0  0  0  0  0
  -29.9694  -19.9596   19.5080 C   0  0  0  0  0  0  0  0  0  0  0  0
  -24.0628  -31.1184   21.3742 C   0  0  1  0  0  0  0  0  0  0  0  0
  -27.1347  -13.9016   20.7364 C   0  0  2  0  0  0  0  0  0  0  0  0
  -29.3446  -22.8749   23.3411 C   0  0  0  0  0  0  0  0  0  0  0  0
  -18.2366  -28.4243   17.0384 C   0  0  0  0  0  0  0  0  0  0  0  0
  -20.3841  -29.0623   23.2715 C   0  0  0  0  0  0  0  0  0  0  0  0
  -18.7567  -28.0582   21.6554 C   0  0  0  0  0  0  0  0  0  0  0  0
  -18.8709  -30.5348   21.9311 C   0  0  0  0  0  0  0  0  0  0  0  0
  -21.7493  -29.2735   15.8488 C   0  0  0  0  0  0  0  0  0  0  0  0
  -28.9021  -23.8450   22.2483 C   0  0  0  0  0  0  0  0  0  0  0  0
  -28.7317  -25.5675   19.8750 C   0  0  0  0  0  0  0  0  0  1  0  0
  -20.7431  -29.3339   20.7292 C   0  0  1  0  0  0  0  0  0  0  0  0
  -19.6095  -29.0731   17.1214 C   0  0  2  0  0  0  0  0  0  0  0  0
  -19.7167  -29.2433   21.8935 C   0  0  0  0  0  0  0  0  0  0  0  0
  -29.2604  -23.6262   18.5221 N   0  0  0  0  0  0  0  0  0  0  0  0
  -24.7107  -13.7105   21.1495 N   0  0  0  0  0  0  0  0  0  0  0  0
  -29.4224  -21.9881   20.7927 N   0  0  0  0  0  0  0  0  0  0  0  0
  -25.8480  -13.0979   20.7793 N   0  0  0  0  0  0  0  0  0  0  0  0
  -23.0810  -30.1011   20.9931 N   0  0  0  0  0  0  0  0  0  0  0  0
  -28.1218  -16.1500   20.3353 N   0  0  0  0  0  0  0  0  0  0  0  0
  -29.1437  -18.0676   19.3700 N   0  0  0  0  0  0  0  0  0  0  0  0
  -26.7307  -11.0118   20.0866 N   0  0  0  0  0  0  0  0  0  0  0  0
  -22.3434  -10.1343   20.7014 N   0  0  0  0  0  0  0  0  0  0  0  0
  -25.1342  -31.9329   23.3859 N   0  0  0  0  0  0  0  0  0  0  0  0
  -20.1405  -29.5326   19.4155 N   0  0  0  0  0  0  0  0  0  0  0  0
  -20.3861  -28.6864   15.9096 N   0  3  0  0  0  0  0  0  0  0  0  0
  -24.3596   -9.2189   20.1051 O   0  0  0  0  0  0  0  0  0  0  0  0
  -23.7000  -30.1005   23.4736 O   0  0  0  0  0  0  0  0  0  0  0  0
  -21.3136  -31.6218   20.9864 O   0  0  0  0  0  0  0  0  0  0  0  0
  -21.0330  -27.6298   18.4358 O   0  0  0  0  0  0  0  0  0  0  0  0
  -28.0546  -16.5603   18.0651 O   0  0  0  0  0  0  0  0  0  0  0  0
  -18.4577  -13.7692   22.3519 O   0  0  0  0  0  0  0  0  0  0  0  0
  -27.3392  -25.7186   20.1479 O   0  0  0  0  0  0  0  0  0  1  0  0
  -14.5895  -11.7772   18.9646 F   0  0  0  0  0  0  0  0  0  0  0  0
  -16.6906  -15.4620   21.0655 F   0  0  0  0  0  0  0  0  0  0  0  0
  1  2  1  0  0  0  0
  1  5  2  0  0  0  0
  2  6  2  0  0  0  0
  3  8  2  0  0  0  0
  3 16  1  0  0  0  0
  4  9  1  0  0  0  0
  4 16  2  0  0  0  0
  5 18  1  0  0  0  0
  6 20  1  0  0  0  0
  7 10  2  0  0  0  0
  7 19  1  0  0  0  0
  8 22  1  0  0  0  0
  9 22  2  0  0  0  0
 10 23  1  0  0  0  0
 11 12  2  0  0  0  0
 11 24  1  0  0  0  0
 12 25  1  0  0  0  0
 13 21  1  0  0  0  0
 13 23  2  0  0  0  0
 14 25  2  0  0  0  0
 14 26  1  0  0  0  0
 15 28  1  0  0  0  0
 15 63  2  0  0  0  0
 16 27  1  0  0  0  0
 17 27  1  0  0  0  0
 17 31  2  0  0  0  0
 17 32  1  0  0  0  0
 18 20  2  0  0  0  0
 18 37  1  0  0  0  0
 19 21  2  0  0  0  0
 19 38  1  0  0  0  0
 20 48  1  0  0  0  0
 21 39  1  0  0  0  0
 22 80  1  0  0  0  0
 23 81  1  0  0  0  0
 24 26  2  0  0  0  0
 24 80  1  0  0  0  0
 25 82  1  0  0  0  0
 26 83  1  0  0  0  0
 27 64  2  0  0  0  0
 28 49  1  0  0  0  0
 28 65  2  0  0  0  0
 29 30  2  0  0  0  0
 29 58  1  0  0  0  0
 29 65  1  0  0  0  0
 30 59  1  0  0  0  0
 30 63  1  0  0  0  0
 31 66  1  0  0  0  0
 31 70  1  0  0  0  0
 32 71  1  0  0  0  0
 32 75  2  0  0  0  0
 33 50  1  0  0  0  0
 33 72  1  0  0  0  0
 33 76  2  0  0  0  0
 34 60  1  0  0  0  0
 34 67  1  0  0  0  0
 34 77  2  0  0  0  0
 35 61  1  0  0  0  0
 35 73  1  0  0  0  0
 35 78  2  0  0  0  0
 36 68  1  0  0  0  0
 36 69  1  0  0  0  0
 36 79  2  0  0  0  0
 37 40  1  0  0  0  0
 38 50  1  0  0  0  0
 39 67  1  0  0  0  0
 40 42  1  0  0  0  0
 41 43  1  0  0  0  0
 41 44  1  0  0  0  0
 42 48  1  0  0  0  0
 43 51  1  0  0  0  0
 44 68  1  0  0  0  0
 45 49  1  0  0  0  0
 45 69  1  0  0  0  0
 46 49  1  0  0  0  0
 46 69  1  0  0  0  0
 47 51  1  0  0  0  0
 47 68  1  0  0  0  0
 48 72  1  0  0  0  0
 50 67  1  0  0  0  0
 51 66  1  0  0  0  0
 52 58  1  0  0  0  0
 53 61  1  0  0  0  0
 54 62  1  0  0  0  0
 55 62  1  0  0  0  0
 56 62  1  0  0  0  0
 57 74  1  0  0  0  0
 59 81  1  0  0  0  0
 60 62  1  0  0  0  0
 60 73  1  0  0  0  0
 61 74  1  0  0  0  0
 64 66  1  0  0  0  0
M  CHG  1  74   1
M  ISO  4  36 100  59 101  69 100  81 101
M  END
> <Batch ID>
0183

> <Smiles>
CCc1nc(C2C[100N:0]([100C:0](=O)N3CCCC(n4nc(-c5ccc(Oc6ccc(F)cc6F)cc5)c(C(N)=O)c4N)C3)C2)cnc1[101CH2:1][101O:1]c1ccc2c(c1)CN(C(=O)C(NC(=O)C(C)NC)C(C)(C)C)C(C(=O)NC1CCCc3ccccc31)C2

> <Shape>
0.302

> <Color>
0.071

> <Negative vol penalty>
0.000

$$$$

  -OEChem-04052323073D

 84 93  0     1  0  0  0  0  0999 V2000
  -22.0410  -12.3108   18.6478 C   0  0  0  0  0  0  0  0  0  0  0  0
  -22.3644  -13.5207   18.0421 C   0  0  0  0  0  0  0  0  0  0  0  0
  -18.6496  -23.5027   22.5032 C   0  0  0  0  0  0  0  0  0  0  0  0
  -20.7920  -22.6302   21.8063 C   0  0  0  0  0  0  0  0  0  0  0  0
  -22.4565  -12.0532   19.9535 C   0  0  0  0  0  0  0  0  0  0  0  0
  -23.1027  -14.4742   18.7422 C   0  0  0  0  0  0  0  0  0  0  0  0
  -27.9908  -19.6089   17.7138 C   0  0  0  0  0  0  0  0  0  0  0  0
  -18.0139  -22.4041   21.9248 C   0  0  0  0  0  0  0  0  0  0  0  0
  -20.1564  -21.5314   21.2279 C   0  0  0  0  0  0  0  0  0  0  0  0
  -28.2120  -20.9568   17.9929 C   0  0  0  0  0  0  0  0  0  0  0  0
  -18.8005  -18.6128   22.2593 C   0  0  0  0  0  0  0  0  0  0  0  0
  -19.3480  -17.3516   22.4941 C   0  0  0  0  0  0  0  0  0  0  0  0
  -29.5515  -27.4500   19.7735 C   0  0  0  0  0  0  0  0  0  0  0  0
  -28.9437  -20.3702   20.2154 C   0  0  0  0  0  0  0  0  0  0  0  0
  -19.6757  -17.0516   20.1193 C   0  0  0  0  0  0  0  0  0  0  0  0
  -30.4977  -26.4473   19.7137 C   0  0  0  0  0  0  0  0  0  0  0  0
  -20.0386  -23.6158   22.4439 C   0  0  0  0  0  0  0  0  0  0  0  0
  -21.1704  -24.8607   24.3614 C   0  0  0  0  0  0  0  0  0  0  0  0
  -23.2085  -13.0001   20.6666 C   0  0  0  0  0  0  0  0  0  0  0  0
  -28.2344  -18.6308   18.6887 C   0  0  0  0  0  0  0  0  0  0  0  0
  -23.5275  -14.2296   20.0592 C   0  0  0  0  0  0  0  0  0  0  0  0
  -28.7272  -19.0104   19.9453 C   0  0  0  0  0  0  0  0  0  0  0  0
  -18.7673  -21.4184   21.2872 C   0  0  0  0  0  0  0  0  0  0  0  0
  -28.6858  -21.3379   19.2448 C   0  0  0  0  0  0  0  0  0  0  0  0
  -18.6905  -19.0934   20.9544 C   0  0  0  0  0  0  0  0  0  0  0  0
  -19.7856  -16.5710   21.4242 C   0  0  0  0  0  0  0  0  0  0  0  0
  -19.1281  -18.3128   19.8845 C   0  0  0  0  0  0  0  0  0  0  0  0
  -20.6957  -24.7508   23.0406 C   0  0  0  0  0  0  0  0  0  0  0  0
  -28.2784  -27.0938   19.3779 C   0  0  0  0  0  0  0  0  0  0  0  0
  -21.7075  -26.1230   24.4292 C   0  0  0  0  0  0  0  0  0  0  0  0
  -28.9543  -24.9677   18.9420 C   0  0  0  0  0  0  0  0  0  0  0  0
  -21.1295  -23.9071   25.4312 C   0  0  0  0  0  0  0  0  0  0  0  0
  -26.4477  -16.4883   20.2121 C   0  0  0  0  0  0  0  0  0  0  0  0
  -29.3088  -15.5187   21.3938 C   0  0  0  0  0  0  0  0  0  0  0  0
  -32.5480  -16.2925   22.1391 C   0  0  0  0  0  0  0  0  0  0  0  0
  -24.6349  -29.8396   20.9677 C   0  0  0  0  0  0  0  0  0  0  0  0
  -23.5947  -12.6959   22.0924 C   0  0  0  0  0  0  0  0  0  0  0  0
  -28.0161  -17.1787   18.3629 C   0  0  0  0  0  0  0  0  0  0  0  0
  -29.0239  -17.9974   21.0197 C   0  0  0  0  0  0  0  0  0  0  0  0
  -24.6940  -13.6066   22.6332 C   0  0  0  0  0  0  0  0  0  0  0  0
  -21.1864  -30.2931   21.8690 C   0  0  0  0  0  0  0  0  0  0  0  0
  -24.3948  -15.0635   22.2948 C   0  0  0  0  0  0  0  0  0  0  0  0
  -20.7339  -28.9136   22.3366 C   0  0  0  0  0  0  0  0  0  0  0  0
  -22.2015  -30.1785   20.7396 C   0  0  0  0  0  0  0  0  0  0  0  0
  -22.9915  -27.9919   21.6044 C   0  0  0  0  0  0  0  0  0  0  0  0
  -27.0604  -29.2549   20.4334 C   0  0  0  0  0  0  0  0  0  0  0  0
  -25.7255  -27.6422   20.0557 C   0  0  0  0  0  0  0  0  0  0  0  0
  -24.3479  -15.2790   20.7773 C   0  0  1  0  0  0  0  0  0  0  0  0
  -27.8096  -16.3129   19.6019 C   0  0  1  0  0  0  0  0  0  0  0  0
  -21.9446  -28.0572   22.7342 C   0  0  2  0  0  0  0  0  0  0  0  0
  -27.0451  -28.1141   19.3761 C   0  0  0  0  0  0  0  0  0  0  0  0
  -34.6310  -15.3055   23.1313 C   0  0  0  0  0  0  0  0  0  0  0  0
  -28.0590  -29.3828   17.4568 C   0  0  0  0  0  0  0  0  0  0  0  0
  -26.4846  -27.4790   17.0090 C   0  0  0  0  0  0  0  0  0  0  0  0
  -28.1109  -15.8032   24.1856 C   0  0  0  0  0  0  0  0  0  0  0  0
  -30.4354  -15.7415   25.1135 C   0  0  0  0  0  0  0  0  0  0  0  0
  -29.5400  -13.7760   23.8653 C   0  0  0  0  0  0  0  0  0  0  0  0
  -34.0667  -16.6797   19.6286 C   0  0  0  0  0  0  0  0  0  0  0  0
  -28.6225  -23.5891   18.4805 C   0  0  0  0  0  0  0  0  0  1  0  0
  -30.1455  -15.8782   22.5979 C   0  0  1  0  0  0  0  0  0  0  0  0
  -33.8490  -15.5646   21.8530 C   0  0  2  0  0  0  0  0  0  0  0  0
  -26.8245  -28.6330   17.9462 C   0  0  0  0  0  0  0  0  0  0  0  0
  -29.5506  -15.3192   23.9212 C   0  0  0  0  0  0  0  0  0  0  0  0
  -30.2329  -25.1903   19.3014 N   0  0  0  0  0  0  0  0  0  0  0  0
  -20.9121  -25.8552   22.3213 N   0  0  0  0  0  0  0  0  0  0  0  0
  -27.9433  -25.8572   18.9547 N   0  0  0  0  0  0  0  0  0  0  0  0
  -21.5286  -26.6712   23.1932 N   0  0  0  0  0  0  0  0  0  0  0  0
  -28.7883  -16.5906   20.6551 N   0  0  0  0  0  0  0  0  0  0  0  0
  -23.3393  -29.3296   21.1053 N   0  0  0  0  0  0  0  0  0  0  0  0
  -25.6491  -28.9631   20.6584 N   0  0  0  0  0  0  0  0  0  0  0  0
  -22.3106  -26.8065   25.4250 N   0  0  0  0  0  0  0  0  0  0  0  0
  -20.5416  -22.6578   25.1905 N   0  0  0  0  0  0  0  0  0  0  0  0
  -25.6878  -15.3343   20.2331 N   0  0  0  0  0  0  0  0  0  0  0  0
  -31.4981  -15.4148   22.3081 N   0  0  0  0  0  0  0  0  0  0  0  0
  -34.7026  -16.3707   20.9351 N   0  3  0  0  0  0  0  0  0  0  0  0
  -21.5857  -24.1614   26.5717 O   0  0  0  0  0  0  0  0  0  0  0  0
  -26.1119  -17.5886   20.6341 O   0  0  0  0  0  0  0  0  0  0  0  0
  -29.1298  -14.3305   21.1148 O   0  0  0  0  0  0  0  0  0  0  0  0
  -32.4715  -17.5172   22.2096 O   0  0  0  0  0  0  0  0  0  0  0  0
  -24.8773  -31.0480   21.0865 O   0  0  0  0  0  0  0  0  0  0  0  0
  -18.1474  -20.3461   20.7230 O   0  0  0  0  0  0  0  0  0  0  0  0
  -28.9035  -22.6620   19.5220 O   0  0  0  0  0  0  0  0  0  1  0  0
  -20.3128  -15.3605   21.6500 F   0  0  0  0  0  0  0  0  0  0  0  0
  -19.0261  -18.7697   18.6288 F   0  0  0  0  0  0  0  0  0  0  0  0
  1  2  1  0  0  0  0
  1  5  2  0  0  0  0
  2  6  2  0  0  0  0
  3  8  2  0  0  0  0
  3 17  1  0  0  0  0
  4  9  1  0  0  0  0
  4 17  2  0  0  0  0
  5 19  1  0  0  0  0
  6 21  1  0  0  0  0
  7 10  2  0  0  0  0
  7 20  1  0  0  0  0
  8 23  1  0  0  0  0
  9 23  2  0  0  0  0
 10 24  1  0  0  0  0
 11 12  2  0  0  0  0
 11 25  1  0  0  0  0
 12 26  1  0  0  0  0
 13 16  1  0  0  0  0
 13 29  2  0  0  0  0
 14 22  1  0  0  0  0
 14 24  2  0  0  0  0
 15 26  2  0  0  0  0
 15 27  1  0  0  0  0
 16 64  2  0  0  0  0
 17 28  1  0  0  0  0
 18 28  1  0  0  0  0
 18 30  2  0  0  0  0
 18 32  1  0  0  0  0
 19 21  2  0  0  0  0
 19 37  1  0  0  0  0
 20 22  2  0  0  0  0
 20 38  1  0  0  0  0
 21 48  1  0  0  0  0
 22 39  1  0  0  0  0
 23 81  1  0  0  0  0
 24 82  1  0  0  0  0
 25 27  2  0  0  0  0
 25 81  1  0  0  0  0
 26 83  1  0  0  0  0
 27 84  1  0  0  0  0
 28 65  2  0  0  0  0
 29 51  1  0  0  0  0
 29 66  1  0  0  0  0
 30 67  1  0  0  0  0
 30 71  1  0  0  0  0
 31 59  1  0  0  0  0
 31 64  1  0  0  0  0
 31 66  2  0  0  0  0
 32 72  1  0  0  0  0
 32 76  2  0  0  0  0
 33 49  1  0  0  0  0
 33 73  1  0  0  0  0
 33 77  2  0  0  0  0
 34 60  1  0  0  0  0
 34 68  1  0  0  0  0
 34 78  2  0  0  0  0
 35 61  1  0  0  0  0
 35 74  1  0  0  0  0
 35 79  2  0  0  0  0
 36 69  1  0  0  0  0
 36 70  1  0  0  0  0
 36 80  2  0  0  0  0
 37 40  1  0  0  0  0
 38 49  1  0  0  0  0
 39 68  1  0  0  0  0
 40 42  1  0  0  0  0
 41 43  1  0  0  0  0
 41 44  1  0  0  0  0
 42 48  1  0  0  0  0
 43 50  1  0  0  0  0
 44 69  1  0  0  0  0
 45 50  1  0  0  0  0
 45 69  1  0  0  0  0
 46 51  1  0  0  0  0
 46 70  1  0  0  0  0
 47 51  1  0  0  0  0
 47 70  1  0  0  0  0
 48 73  1  0  0  0  0
 49 68  1  0  0  0  0
 50 67  1  0  0  0  0
 51 62  1  0  0  0  0
 52 61  1  0  0  0  0
 53 62  1  0  0  0  0
 54 62  1  0  0  0  0
 55 63  1  0  0  0  0
 56 63  1  0  0  0  0
 57 63  1  0  0  0  0
 58 75  1  0  0  0  0
 59 82  1  0  0  0  0
 60 63  1  0  0  0  0
 60 74  1  0  0  0  0
 61 75  1  0  0  0  0
 65 67  1  0  0  0  0
M  CHG  1  75   1
M  ISO  4  36 100  59 101  70 100  82 101
M  END
> <Batch ID>
0183

> <Smiles>
CNC(C)C(=O)NC(C(=O)N1Cc2cc([101O:1][101CH2:1]c3nccc(C4(C(C)C)C[100N:0]([100C:0](=O)N5CCCC(n6nc(-c7ccc(Oc8ccc(F)cc8F)cc7)c(C(N)=O)c6N)C5)C4)n3)ccc2CC1C(=O)NC1CCCc2ccccc21)C(C)(C)C

> <Shape>
0.217

> <Color>
0.059

> <Negative vol penalty>
0.000

$$$$

  -OEChem-04052323073D

 84 93  0     1  0  0  0  0  0999 V2000
  -24.1938   -8.3654   21.7207 C   0  0  0  0  0  0  0  0  0  0  0  0
  -24.8800   -9.5399   21.4291 C   0  0  0  0  0  0  0  0  0  0  0  0
  -23.2935  -26.3101   21.6133 C   0  0  0  0  0  0  0  0  0  0  0  0
  -23.1538  -28.6748   22.0884 C   0  0  0  0  0  0  0  0  0  0  0  0
  -22.7999   -8.3495   21.6965 C   0  0  0  0  0  0  0  0  0  0  0  0
  -24.1727  -10.6990   21.1120 C   0  0  0  0  0  0  0  0  0  0  0  0
  -25.9831  -14.7902   23.4846 C   0  0  0  0  0  0  0  0  0  0  0  0
  -22.1203  -26.0954   22.3365 C   0  0  0  0  0  0  0  0  0  0  0  0
  -21.9805  -28.4601   22.8117 C   0  0  0  0  0  0  0  0  0  0  0  0
  -27.1430  -15.3652   22.9671 C   0  0  0  0  0  0  0  0  0  0  0  0
  -18.7527  -28.5845   24.4801 C   0  0  0  0  0  0  0  0  0  0  0  0
  -17.6870  -29.4578   24.2628 C   0  0  0  0  0  0  0  0  0  0  0  0
  -25.8106  -17.0487   21.8672 C   0  0  0  0  0  0  0  0  0  0  0  0
  -17.6386  -28.8193   21.9332 C   0  0  0  0  0  0  0  0  0  0  0  0
  -23.8103  -27.5998   21.4893 C   0  0  0  0  0  0  0  0  0  0  0  0
  -25.1346  -28.1051   19.3683 C   0  0  0  0  0  0  0  0  0  0  0  0
  -22.0749   -9.5114   21.3884 C   0  0  0  0  0  0  0  0  0  0  0  0
  -24.7253  -15.3347   23.1879 C   0  0  0  0  0  0  0  0  0  0  0  0
  -22.7677  -10.6983   21.0823 C   0  0  0  0  0  0  0  0  0  0  0  0
  -24.6364  -16.4803   22.3843 C   0  0  0  0  0  0  0  0  0  0  0  0
  -21.4638  -27.1704   22.9357 C   0  0  0  0  0  0  0  0  0  0  0  0
  -27.0567  -16.4929   22.1559 C   0  0  0  0  0  0  0  0  0  0  0  0
  -19.2614  -27.8285   23.4239 C   0  0  0  0  0  0  0  0  0  0  0  0
  -17.1300  -29.5753   22.9894 C   0  0  0  0  0  0  0  0  0  0  0  0
  -18.7043  -27.9460   22.1505 C   0  0  0  0  0  0  0  0  0  0  0  0
  -25.0225  -27.8221   20.7428 C   0  0  0  0  0  0  0  0  0  0  0  0
  -26.4853  -28.2292   19.1524 C   0  0  0  0  0  0  0  0  0  0  0  0
  -31.2403  -18.2623   19.1773 C   0  0  0  0  0  0  0  0  0  0  0  0
  -29.3555  -18.6631   20.3277 C   0  0  0  0  0  0  0  0  0  0  0  0
  -30.9384  -20.2473   20.1801 C   0  0  0  0  0  0  0  0  0  0  0  0
  -24.1095  -28.2435   18.3755 C   0  0  0  0  0  0  0  0  0  0  0  0
  -22.1197  -14.2829   21.7019 C   0  0  0  0  0  0  0  0  0  0  0  0
  -20.8772  -17.1028   22.7150 C   0  0  0  0  0  0  0  0  0  0  0  0
  -21.4284  -20.3175   23.7194 C   0  0  0  0  0  0  0  0  0  0  0  0
  -31.1400  -25.9730   22.3542 C   0  0  0  0  0  0  0  0  0  0  0  0
  -20.5699   -9.4335   21.3284 C   0  0  0  0  0  0  0  0  0  0  0  0
  -23.4855  -14.7185   23.7757 C   0  0  0  0  0  0  0  0  0  0  0  0
  -23.3116  -17.1153   22.0524 C   0  0  0  0  0  0  0  0  0  0  0  0
  -19.8879  -10.7991   21.3493 C   0  0  0  0  0  0  0  0  0  0  0  0
  -30.5432  -29.4592   21.3726 C   0  0  0  0  0  0  0  0  0  0  0  0
  -20.5695  -11.7512   20.3717 C   0  0  0  0  0  0  0  0  0  0  0  0
  -29.0538  -29.4631   21.0256 C   0  0  0  0  0  0  0  0  0  0  0  0
  -29.6245  -23.2246   20.4395 C   0  0  0  0  0  0  0  0  0  0  0  0
  -30.8775  -28.4252   22.4454 C   0  0  0  0  0  0  0  0  0  0  0  0
  -29.3627  -24.4627   21.2908 C   0  0  0  0  0  0  0  0  0  0  0  0
  -28.9250  -27.0669   21.8006 C   0  0  0  0  0  0  0  0  0  0  0  0
  -31.5429  -23.5926   21.7952 C   0  0  0  0  0  0  0  0  0  0  0  0
  -22.0354  -11.9823   20.7579 C   0  0  1  0  0  0  0  0  0  0  0  0
  -22.2218  -15.0518   22.9887 C   0  0  1  0  0  0  0  0  0  0  0  0
  -28.5613  -28.0463   20.6761 C   0  0  1  0  0  0  0  0  0  0  0  0
  -30.6559  -22.4723   21.2732 C   0  0  2  0  0  0  0  0  0  0  0  0
  -32.0790  -17.3474   18.3517 C   0  0  0  0  0  0  0  0  0  0  0  0
  -20.2141  -22.3901   24.4456 C   0  0  0  0  0  0  0  0  0  0  0  0
  -20.0873  -17.6517   19.8193 C   0  0  0  0  0  0  0  0  0  0  0  0
  -19.7653  -20.0567   20.4362 C   0  0  0  0  0  0  0  0  0  0  0  0
  -18.3623  -18.2965   21.5114 C   0  0  0  0  0  0  0  0  0  0  0  0
  -22.7512  -20.3048   26.3669 C   0  0  0  0  0  0  0  0  0  0  0  0
  -28.0256  -18.2095   20.8254 C   0  0  0  0  0  0  0  0  0  1  0  0
  -20.7997  -18.5010   22.1511 C   0  0  1  0  0  0  0  0  0  0  0  0
  -20.8962  -21.1091   24.9003 C   0  0  2  0  0  0  0  0  0  0  0  0
  -19.7786  -18.6136   20.9840 C   0  0  0  0  0  0  0  0  0  0  0  0
  -26.2075  -27.7693   21.3567 N   0  0  0  0  0  0  0  0  0  0  0  0
  -30.0548  -17.7856   19.5903 N   0  0  0  0  0  0  0  0  0  0  0  0
  -31.7472  -19.4793   19.4324 N   0  0  0  0  0  0  0  0  0  0  0  0
  -29.7321  -19.9077   20.6625 N   0  0  0  0  0  0  0  0  0  0  0  0
  -27.0771  -28.0207   20.3634 N   0  0  0  0  0  0  0  0  0  0  0  0
  -22.1276  -16.4723   22.6459 N   0  0  0  0  0  0  0  0  0  0  0  0
  -30.3646  -27.1048   22.0793 N   0  0  0  0  0  0  0  0  0  0  0  0
  -30.6452  -24.7355   21.9446 N   0  0  0  0  0  0  0  0  0  0  0  0
  -27.2127  -28.4950   18.0466 N   0  0  0  0  0  0  0  0  0  0  0  0
  -22.7734  -28.0849   18.7681 N   0  0  0  0  0  0  0  0  0  0  0  0
  -31.3958  -21.5220   20.4856 N   0  0  0  0  0  0  0  0  0  0  0  0
  -22.1262  -12.9106   21.8644 N   0  0  0  0  0  0  0  0  0  0  0  0
  -20.5167  -19.3812   23.2796 N   0  0  0  0  0  0  0  0  0  0  0  0
  -22.0078  -21.4711   25.8245 N   0  3  0  0  0  0  0  0  0  0  0  0
  -24.3714  -28.4840   17.1726 O   0  0  0  0  0  0  0  0  0  0  0  0
  -22.0394  -14.8896   20.6402 O   0  0  0  0  0  0  0  0  0  0  0  0
  -19.8673  -16.5917   23.2053 O   0  0  0  0  0  0  0  0  0  0  0  0
  -22.5401  -20.5129   23.2332 O   0  0  0  0  0  0  0  0  0  0  0  0
  -32.2476  -26.0680   22.8994 O   0  0  0  0  0  0  0  0  0  0  0  0
  -20.3188  -26.9613   23.6413 O   0  0  0  0  0  0  0  0  0  0  0  0
  -28.1949  -17.0595   21.6455 O   0  0  0  0  0  0  0  0  0  1  0  0
  -16.1057  -30.4129   22.7813 F   0  0  0  0  0  0  0  0  0  0  0  0
  -19.1880  -27.2215   21.1321 F   0  0  0  0  0  0  0  0  0  0  0  0
  1  2  1  0  0  0  0
  1  5  2  0  0  0  0
  2  6  2  0  0  0  0
  3  8  2  0  0  0  0
  3 15  1  0  0  0  0
  4  9  1  0  0  0  0
  4 15  2  0  0  0  0
  5 17  1  0  0  0  0
  6 19  1  0  0  0  0
  7 10  2  0  0  0  0
  7 18  1  0  0  0  0
  8 21  1  0  0  0  0
  9 21  2  0  0  0  0
 10 22  1  0  0  0  0
 11 12  2  0  0  0  0
 11 23  1  0  0  0  0
 12 24  1  0  0  0  0
 13 20  1  0  0  0  0
 13 22  2  0  0  0  0
 14 24  2  0  0  0  0
 14 25  1  0  0  0  0
 15 26  1  0  0  0  0
 16 26  1  0  0  0  0
 16 27  2  0  0  0  0
 16 31  1  0  0  0  0
 17 19  2  0  0  0  0
 17 36  1  0  0  0  0
 18 20  2  0  0  0  0
 18 37  1  0  0  0  0
 19 48  1  0  0  0  0
 20 38  1  0  0  0  0
 21 81  1  0  0  0  0
 22 82  1  0  0  0  0
 23 25  2  0  0  0  0
 23 81  1  0  0  0  0
 24 83  1  0  0  0  0
 25 84  1  0  0  0  0
 26 62  2  0  0  0  0
 27 66  1  0  0  0  0
 27 70  1  0  0  0  0
 28 52  1  0  0  0  0
 28 63  2  0  0  0  0
 28 64  1  0  0  0  0
 29 58  1  0  0  0  0
 29 63  1  0  0  0  0
 29 65  2  0  0  0  0
 30 64  2  0  0  0  0
 30 65  1  0  0  0  0
 30 72  1  0  0  0  0
 31 71  1  0  0  0  0
 31 76  2  0  0  0  0
 32 49  1  0  0  0  0
 32 73  1  0  0  0  0
 32 77  2  0  0  0  0
 33 59  1  0  0  0  0
 33 67  1  0  0  0  0
 33 78  2  0  0  0  0
 34 60  1  0  0  0  0
 34 74  1  0  0  0  0
 34 79  2  0  0  0  0
 35 68  1  0  0  0  0
 35 69  1  0  0  0  0
 35 80  2  0  0  0  0
 36 39  1  0  0  0  0
 37 49  1  0  0  0  0
 38 67  1  0  0  0  0
 39 41  1  0  0  0  0
 40 42  1  0  0  0  0
 40 44  1  0  0  0  0
 41 48  1  0  0  0  0
 42 50  1  0  0  0  0
 43 45  1  0  0  0  0
 43 51  1  0  0  0  0
 44 68  1  0  0  0  0
 45 69  1  0  0  0  0
 46 50  1  0  0  0  0
 46 68  1  0  0  0  0
 47 51  1  0  0  0  0
 47 69  1  0  0  0  0
 48 73  1  0  0  0  0
 49 67  1  0  0  0  0
 50 66  1  0  0  0  0
 51 72  1  0  0  0  0
 53 60  1  0  0  0  0
 54 61  1  0  0  0  0
 55 61  1  0  0  0  0
 56 61  1  0  0  0  0
 57 75  1  0  0  0  0
 58 82  1  0  0  0  0
 59 61  1  0  0  0  0
 59 74  1  0  0  0  0
 60 75  1  0  0  0  0
 62 66  1  0  0  0  0
M  CHG  1  75   1
M  ISO  4  35 100  58 101  69 100  82 101
M  END
> <Batch ID>
0183

> <Smiles>
CNC(C)C(=O)NC(C(=O)N1Cc2cc([101O:1][101CH2:1]c3nc(C)nc(NC4CC[100N:0]([100C:0](=O)N5CCCC(n6nc(-c7ccc(Oc8ccc(F)cc8F)cc7)c(C(N)=O)c6N)C5)C4)n3)ccc2CC1C(=O)NC1CCCc2ccccc21)C(C)(C)C

> <Shape>
0.205

> <Color>
0.100

> <Negative vol penalty>
0.000

$$$$

  -OEChem-04052323073D

 81 90  0     1  0  0  0  0  0999 V2000
  -29.0160  -30.0912   27.0821 C   0  0  0  0  0  0  0  0  0  0  0  0
  -28.7215  -29.1127   26.1381 C   0  0  0  0  0  0  0  0  0  0  0  0
  -23.0993  -10.7261   21.2659 C   0  0  0  0  0  0  0  0  0  0  0  0
  -24.7730   -9.0550   21.7590 C   0  0  0  0  0  0  0  0  0  0  0  0
  -28.0125  -30.9475   27.5333 C   0  0  0  0  0  0  0  0  0  0  0  0
  -27.4228  -28.9892   25.6455 C   0  0  0  0  0  0  0  0  0  0  0  0
  -27.3000  -28.4045   20.6167 C   0  0  0  0  0  0  0  0  0  0  0  0
  -22.1212   -9.7327   21.2195 C   0  0  0  0  0  0  0  0  0  0  0  0
  -23.7949   -8.0616   21.7127 C   0  0  0  0  0  0  0  0  0  0  0  0
  -27.6028  -27.1393   20.1153 C   0  0  0  0  0  0  0  0  0  0  0  0
  -21.6775   -5.1292   22.0808 C   0  0  0  0  0  0  0  0  0  0  0  0
  -21.6807   -4.1672   23.0909 C   0  0  0  0  0  0  0  0  0  0  0  0
  -28.1955  -20.9618   18.7576 C   0  0  0  0  0  0  0  0  0  0  0  0
  -28.0739  -22.2111   19.3400 C   0  0  0  0  0  0  0  0  0  0  0  0
  -25.2479  -26.6857   19.8545 C   0  0  0  0  0  0  0  0  0  0  0  0
  -21.3658   -5.9013   24.7434 C   0  0  0  0  0  0  0  0  0  0  0  0
  -24.4252  -10.3872   21.5356 C   0  0  0  0  0  0  0  0  0  0  0  0
  -25.8439  -12.1531   22.7088 C   0  0  0  0  0  0  0  0  0  0  0  0
  -26.7030  -30.8407   27.0388 C   0  0  0  0  0  0  0  0  0  0  0  0
  -25.9663  -28.8163   20.7513 C   0  0  0  0  0  0  0  0  0  0  0  0
  -26.4005  -29.8440   26.0914 C   0  0  0  0  0  0  0  0  0  0  0  0
  -24.9309  -27.9575   20.3556 C   0  0  0  0  0  0  0  0  0  0  0  0
  -22.4689   -8.4005   21.4430 C   0  0  0  0  0  0  0  0  0  0  0  0
  -26.5766  -26.2786   19.7368 C   0  0  0  0  0  0  0  0  0  0  0  0
  -21.5185   -6.4773   22.4021 C   0  0  0  0  0  0  0  0  0  0  0  0
  -21.5248   -4.5533   24.4222 C   0  0  0  0  0  0  0  0  0  0  0  0
  -21.3626   -6.8633   23.7334 C   0  0  0  0  0  0  0  0  0  0  0  0
  -25.4362  -11.4128   21.5830 C   0  0  0  0  0  0  0  0  0  0  0  0
  -28.6001  -20.9002   17.4392 C   0  0  0  0  0  0  0  0  0  0  0  0
  -28.3652  -23.3161   18.5656 C   0  0  0  0  0  0  0  0  0  0  0  0
  -26.8223  -12.9913   22.2326 C   0  0  0  0  0  0  0  0  0  0  0  0
  -25.3799  -12.0888   24.0639 C   0  0  0  0  0  0  0  0  0  0  0  0
  -24.1161  -29.6648   23.1927 C   0  0  0  0  0  0  0  0  0  0  0  0
  -21.9965  -30.3626   20.8385 C   0  0  0  0  0  0  0  0  0  0  0  0
  -20.9378  -29.8218   17.6395 C   0  0  0  0  0  0  0  0  0  0  0  0
  -28.4728  -16.6129   18.4231 C   0  0  0  0  0  0  0  0  0  0  0  0
  -25.6412  -31.7582   27.5915 C   0  0  0  0  0  0  0  0  0  0  0  0
  -25.6571  -30.1943   21.2689 C   0  0  0  0  0  0  0  0  0  0  0  0
  -23.4832  -28.3595   20.4611 C   0  0  0  0  0  0  0  0  0  0  0  0
  -24.3740  -31.8049   26.7417 C   0  0  0  0  0  0  0  0  0  0  0  0
  -29.2574  -13.0586   17.8197 C   0  0  0  0  0  0  0  0  0  0  0  0
  -23.9365  -30.3950   26.3577 C   0  0  0  0  0  0  0  0  0  0  0  0
  -28.3174  -12.3784   18.8106 C   0  0  0  0  0  0  0  0  0  0  0  0
  -30.0509  -19.2150   16.1246 C   0  0  0  0  0  0  0  0  0  0  0  0
  -28.6553  -14.3403   17.2454 C   0  0  0  0  0  0  0  0  0  0  0  0
  -27.2708  -14.6274   19.2813 C   0  0  0  0  0  0  0  0  0  0  0  0
  -25.0093  -29.6948   25.5148 C   0  0  1  0  0  0  0  0  0  0  0  0
  -28.7422  -19.5727   16.7776 C   0  0  1  0  0  0  0  0  0  0  0  0
  -24.2493  -30.3144   21.8444 C   0  0  1  0  0  0  0  0  0  0  0  0
  -27.8794  -13.3626   19.9060 C   0  0  1  0  0  0  0  0  0  0  0  0
  -29.6500  -18.5370   17.4012 C   0  0  1  0  0  0  0  0  0  0  0  0
  -19.1561  -30.5091   16.0114 C   0  0  0  0  0  0  0  0  0  0  0  0
  -19.9841  -28.5930   22.2974 C   0  0  0  0  0  0  0  0  0  0  0  0
  -18.6110  -28.5486   20.2044 C   0  0  0  0  0  0  0  0  0  0  0  0
  -19.0316  -30.7123   21.3723 C   0  0  0  0  0  0  0  0  0  0  0  0
  -22.9289  -30.9242   15.7476 C   0  0  0  0  0  0  0  0  0  0  0  0
  -28.2494  -24.6936   19.1491 C   0  0  0  0  0  0  0  0  0  1  0  0
  -20.9177  -29.5981   20.1101 C   0  0  1  0  0  0  0  0  0  0  0  0
  -20.5601  -30.7835   16.5273 C   0  0  2  0  0  0  0  0  0  0  0  0
  -19.6632  -29.3544   20.9958 C   0  0  0  0  0  0  0  0  0  0  0  0
  -26.1010  -11.7510   20.4750 N   0  0  0  0  0  0  0  0  0  0  0  0
  -28.8785  -21.9982   16.7052 N   0  0  0  0  0  0  0  0  0  0  0  0
  -28.7594  -23.2261   17.2778 N   0  0  0  0  0  0  0  0  0  0  0  0
  -26.9364  -12.7131   20.9023 N   0  0  0  0  0  0  0  0  0  0  0  0
  -23.2318  -29.7145   20.9790 N   0  0  0  0  0  0  0  0  0  0  0  0
  -28.1841  -15.2409   18.3093 N   0  0  0  0  0  0  0  0  0  0  0  0
  -27.5874  -13.9318   22.8262 N   0  0  0  0  0  0  0  0  0  0  0  0
  -24.3691  -11.1712   24.3811 N   0  0  0  0  0  0  0  0  0  0  0  0
  -24.9725  -30.1745   24.1499 N   0  0  0  0  0  0  0  0  0  0  0  0
  -20.6481  -30.3408   18.8837 N   0  0  0  0  0  0  0  0  0  0  0  0
  -29.2756  -17.1481   17.4221 N   0  0  0  0  0  0  0  0  0  0  0  0
  -21.5124  -30.6574   15.3879 N   0  3  0  0  0  0  0  0  0  0  0  0
  -25.8362  -12.8348   24.9632 O   0  0  0  0  0  0  0  0  0  0  0  0
  -23.2960  -28.7685   23.3532 O   0  0  0  0  0  0  0  0  0  0  0  0
  -21.7544  -31.4961   21.2606 O   0  0  0  0  0  0  0  0  0  0  0  0
  -21.4362  -28.7189   17.4258 O   0  0  0  0  0  0  0  0  0  0  0  0
  -28.0427  -17.3135   19.3460 O   0  0  0  0  0  0  0  0  0  0  0  0
  -21.5147   -7.4310   21.3981 O   0  0  0  0  0  0  0  0  0  0  0  0
  -26.8694  -25.0429   19.2476 O   0  0  0  0  0  0  0  0  0  1  0  0
  -21.5264   -3.6292   25.3919 F   0  0  0  0  0  0  0  0  0  0  0  0
  -21.2082   -8.1567   24.0480 F   0  0  0  0  0  0  0  0  0  0  0  0
  1  2  1  0  0  0  0
  1  5  2  0  0  0  0
  2  6  2  0  0  0  0
  3  8  2  0  0  0  0
  3 17  1  0  0  0  0
  4  9  1  0  0  0  0
  4 17  2  0  0  0  0
  5 19  1  0  0  0  0
  6 21  1  0  0  0  0
  7 10  2  0  0  0  0
  7 20  1  0  0  0  0
  8 23  1  0  0  0  0
  9 23  2  0  0  0  0
 10 24  1  0  0  0  0
 11 12  2  0  0  0  0
 11 25  1  0  0  0  0
 12 26  1  0  0  0  0
 13 14  2  0  0  0  0
 13 29  1  0  0  0  0
 14 30  1  0  0  0  0
 15 22  1  0  0  0  0
 15 24  2  0  0  0  0
 16 26  2  0  0  0  0
 16 27  1  0  0  0  0
 17 28  1  0  0  0  0
 18 28  1  0  0  0  0
 18 31  2  0  0  0  0
 18 32  1  0  0  0  0
 19 21  2  0  0  0  0
 19 37  1  0  0  0  0
 20 22  2  0  0  0  0
 20 38  1  0  0  0  0
 21 47  1  0  0  0  0
 22 39  1  0  0  0  0
 23 78  1  0  0  0  0
 24 79  1  0  0  0  0
 25 27  2  0  0  0  0
 25 78  1  0  0  0  0
 26 80  1  0  0  0  0
 27 81  1  0  0  0  0
 28 61  2  0  0  0  0
 29 48  1  0  0  0  0
 29 62  2  0  0  0  0
 30 57  1  0  0  0  0
 30 63  2  0  0  0  0
 31 64  1  0  0  0  0
 31 67  1  0  0  0  0
 32 68  1  0  0  0  0
 32 73  2  0  0  0  0
 33 49  1  0  0  0  0
 33 69  1  0  0  0  0
 33 74  2  0  0  0  0
 34 58  1  0  0  0  0
 34 65  1  0  0  0  0
 34 75  2  0  0  0  0
 35 59  1  0  0  0  0
 35 70  1  0  0  0  0
 35 76  2  0  0  0  0
 36 66  1  0  0  0  0
 36 71  1  0  0  0  0
 36 77  2  0  0  0  0
 37 40  1  0  0  0  0
 38 49  1  0  0  0  0
 39 65  1  0  0  0  0
 40 42  1  0  0  0  0
 41 43  1  0  0  0  0
 41 45  1  0  0  0  0
 42 47  1  0  0  0  0
 43 50  1  0  0  0  0
 44 48  1  0  0  0  0
 44 51  1  0  0  0  0
 45 66  1  0  0  0  0
 46 50  1  0  0  0  0
 46 66  1  0  0  0  0
 47 69  1  0  0  0  0
 48 51  1  0  0  0  0
 49 65  1  0  0  0  0
 50 64  1  0  0  0  0
 51 71  1  0  0  0  0
 52 59  1  0  0  0  0
 53 60  1  0  0  0  0
 54 60  1  0  0  0  0
 55 60  1  0  0  0  0
 56 72  1  0  0  0  0
 57 79  1  0  0  0  0
 58 60  1  0  0  0  0
 58 70  1  0  0  0  0
 59 72  1  0  0  0  0
 61 64  1  0  0  0  0
 62 63  1  0  0  0  0
M  CHG  1  72   1
M  ISO  4  36 100  57 101  71 100  79 101
M  END
> <Batch ID>
0183

> <Smiles>
CNC(C)C(=O)NC(C(=O)N1Cc2cc([101O:1][101CH2:1]c3ccc(C4CC4[100NH:0][100C:0](=O)N4CCCC(n5nc(-c6ccc(Oc7ccc(F)cc7F)cc6)c(C(N)=O)c5N)C4)nn3)ccc2CC1C(=O)NC1CCCc2ccccc21)C(C)(C)C

> <Shape>
0.281

> <Color>
0.112

> <Negative vol penalty>
0.000

$$$$

  -OEChem-04052323073D

 85 94  0     1  0  0  0  0  0999 V2000
  -27.9536  -33.7727   26.1265 C   0  0  0  0  0  0  0  0  0  0  0  0
  -28.0617  -32.5099   25.5529 C   0  0  0  0  0  0  0  0  0  0  0  0
  -25.3400  -10.0663   23.1005 C   0  0  0  0  0  0  0  0  0  0  0  0
  -24.1622   -9.2389   21.1601 C   0  0  0  0  0  0  0  0  0  0  0  0
  -26.6958  -34.3377   26.3333 C   0  0  0  0  0  0  0  0  0  0  0  0
  -26.9121  -31.8108   25.1869 C   0  0  0  0  0  0  0  0  0  0  0  0
  -27.3073  -29.6831   20.6085 C   0  0  0  0  0  0  0  0  0  0  0  0
  -24.4176   -9.4305   23.9315 C   0  0  0  0  0  0  0  0  0  0  0  0
  -23.2398   -8.6030   21.9910 C   0  0  0  0  0  0  0  0  0  0  0  0
  -28.0451  -28.5037   20.5160 C   0  0  0  0  0  0  0  0  0  0  0  0
  -23.0892   -5.7792   23.8414 C   0  0  0  0  0  0  0  0  0  0  0  0
  -22.7346   -4.4669   23.5289 C   0  0  0  0  0  0  0  0  0  0  0  0
  -25.9972  -27.2289   20.5241 C   0  0  0  0  0  0  0  0  0  0  0  0
  -20.4288   -5.1472   23.2888 C   0  0  0  0  0  0  0  0  0  0  0  0
  -31.0551  -23.1994   18.8650 C   0  0  0  0  0  0  0  0  0  0  0  0
  -25.2122   -9.9705   21.7148 C   0  0  0  0  0  0  0  0  0  0  0  0
  -27.3663  -10.0936   20.3538 C   0  0  0  0  0  0  0  0  0  0  0  0
  -25.5305  -33.6493   25.9607 C   0  0  0  0  0  0  0  0  0  0  0  0
  -25.9070  -29.6435   20.6706 C   0  0  0  0  0  0  0  0  0  0  0  0
  -25.6375  -32.3666   25.3901 C   0  0  0  0  0  0  0  0  0  0  0  0
  -25.2438  -28.4093   20.6148 C   0  0  0  0  0  0  0  0  0  0  0  0
  -23.3675   -8.6988   23.3768 C   0  0  0  0  0  0  0  0  0  0  0  0
  -27.3903  -27.2763   20.4767 C   0  0  0  0  0  0  0  0  0  0  0  0
  -22.1136   -6.7755   23.8777 C   0  0  0  0  0  0  0  0  0  0  0  0
  -21.4044   -4.1509   23.2526 C   0  0  0  0  0  0  0  0  0  0  0  0
  -20.7834   -6.4595   23.6013 C   0  0  0  0  0  0  0  0  0  0  0  0
  -26.1644  -10.6276   20.8559 C   0  0  0  0  0  0  0  0  0  0  0  0
  -31.0892  -22.3288   19.9319 C   0  0  0  0  0  0  0  0  0  0  0  0
  -30.1275  -23.9212   21.2620 C   0  0  0  0  0  0  0  0  0  0  0  0
  -30.0941  -24.7920   20.1952 C   0  0  0  0  0  0  0  0  0  0  0  0
  -27.9018  -11.1063   19.5959 C   0  0  0  0  0  0  0  0  0  0  0  0
  -27.9468   -8.7981   20.5544 C   0  0  0  0  0  0  0  0  0  0  0  0
  -23.7303  -30.5376   22.8075 C   0  0  0  0  0  0  0  0  0  0  0  0
  -21.6517  -29.7132   20.4576 C   0  0  0  0  0  0  0  0  0  0  0  0
  -21.0368  -27.8805   17.6451 C   0  0  0  0  0  0  0  0  0  0  0  0
  -29.2644  -16.2282   18.7417 C   0  0  0  0  0  0  0  0  0  0  0  0
  -24.1913  -34.2808   26.2474 C   0  0  0  0  0  0  0  0  0  0  0  0
  -25.1245  -30.9261   20.7433 C   0  0  0  0  0  0  0  0  0  0  0  0
  -23.7413  -28.3137   20.6579 C   0  0  0  0  0  0  0  0  0  0  0  0
  -23.0369  -33.6323   25.4877 C   0  0  0  0  0  0  0  0  0  0  0  0
  -25.9053  -15.4768   18.0375 C   0  0  0  0  0  0  0  0  0  0  0  0
  -23.1191  -32.1124   25.5875 C   0  0  0  0  0  0  0  0  0  0  0  0
  -25.7645  -14.0938   18.6727 C   0  0  0  0  0  0  0  0  0  0  0  0
  -26.7421  -16.4221   18.9015 C   0  0  0  0  0  0  0  0  0  0  0  0
  -28.6521  -18.6635   19.0866 C   0  0  0  0  0  0  0  0  0  0  0  0
  -30.5067  -18.0317   17.5869 C   0  0  0  0  0  0  0  0  0  0  0  0
  -27.9283  -14.4978   19.9059 C   0  0  0  0  0  0  0  0  0  0  0  0
  -29.5979  -19.5382   19.9032 C   0  0  0  0  0  0  0  0  0  0  0  0
  -31.4828  -18.8736   18.3925 C   0  0  0  0  0  0  0  0  0  0  0  0
  -24.4146  -31.5874   24.9570 C   0  0  1  0  0  0  0  0  0  0  0  0
  -23.7239  -30.7397   21.3186 C   0  0  1  0  0  0  0  0  0  0  0  0
  -27.1416  -13.5084   19.0323 C   0  0  1  0  0  0  0  0  0  0  0  0
  -29.6112  -24.3155   22.6035 C   0  0  0  0  0  0  0  0  0  0  0  0
  -19.2340  -27.3863   15.9709 C   0  0  0  0  0  0  0  0  0  0  0  0
  -20.2562  -27.9192   22.4933 C   0  0  0  0  0  0  0  0  0  0  0  0
  -19.1108  -26.7668   20.5885 C   0  0  0  0  0  0  0  0  0  0  0  0
  -18.7122  -29.1953   20.9960 C   0  0  0  0  0  0  0  0  0  0  0  0
  -22.6617  -28.9392   15.4096 C   0  0  0  0  0  0  0  0  0  0  0  0
  -31.6523  -20.9476   19.7697 C   0  0  0  0  0  0  0  0  0  0  0  0
  -29.5402  -26.1690   20.3329 C   0  0  0  0  0  0  0  0  0  1  0  0
  -20.9371  -28.4445   20.0589 C   0  0  1  0  0  0  0  0  0  0  0  0
  -20.4311  -28.2622   16.3065 C   0  0  2  0  0  0  0  0  0  0  0  0
  -19.7825  -28.0828   21.0353 C   0  0  0  0  0  0  0  0  0  0  0  0
  -30.5570  -24.4467   18.9775 N   0  0  0  0  0  0  0  0  0  0  0  0
  -25.9488  -11.8821   20.4512 N   0  0  0  0  0  0  0  0  0  0  0  0
  -30.6260  -22.6740   21.1496 N   0  0  0  0  0  0  0  0  0  0  0  0
  -27.0225  -12.1449   19.6869 N   0  0  0  0  0  0  0  0  0  0  0  0
  -23.0209  -29.5953   20.7353 N   0  0  0  0  0  0  0  0  0  0  0  0
  -28.0285  -15.8048   19.2530 N   0  0  0  0  0  0  0  0  0  0  0  0
  -29.3854  -17.5861   18.4111 N   0  0  0  0  0  0  0  0  0  0  0  0
  -29.0343  -11.2008   18.8674 N   0  0  0  0  0  0  0  0  0  0  0  0
  -27.2644   -7.8779   21.3618 N   0  0  0  0  0  0  0  0  0  0  0  0
  -24.3060  -31.5763   23.5139 N   0  0  0  0  0  0  0  0  0  0  0  0
  -20.5132  -28.6322   18.6756 N   0  0  0  0  0  0  0  0  0  0  0  0
  -30.7310  -20.0193   19.0289 N   0  3  0  0  0  0  0  0  0  0  0  0
  -21.4406  -28.1147   15.2202 N   0  3  0  0  0  0  0  0  0  0  0  0
  -29.0464   -8.4719   20.0464 O   0  0  0  0  0  0  0  0  0  0  0  0
  -23.2471  -29.5155   23.2805 O   0  0  0  0  0  0  0  0  0  0  0  0
  -21.0198  -30.7711   20.5133 O   0  0  0  0  0  0  0  0  0  0  0  0
  -21.8865  -27.0006   17.7651 O   0  0  0  0  0  0  0  0  0  0  0  0
  -30.2054  -15.4389   18.5900 O   0  0  0  0  0  0  0  0  0  0  0  0
  -22.4674   -8.0781   24.1873 O   0  0  0  0  0  0  0  0  0  0  0  0
  -28.1201  -26.1043   20.3856 O   0  0  0  0  0  0  0  0  0  1  0  0
  -21.0642   -2.8909   22.9510 F   0  0  0  0  0  0  0  0  0  0  0  0
  -19.8419   -7.4126   23.6335 F   0  0  0  0  0  0  0  0  0  0  0  0
  1  2  1  0  0  0  0
  1  5  2  0  0  0  0
  2  6  2  0  0  0  0
  3  8  2  0  0  0  0
  3 16  1  0  0  0  0
  4  9  1  0  0  0  0
  4 16  2  0  0  0  0
  5 18  1  0  0  0  0
  6 20  1  0  0  0  0
  7 10  2  0  0  0  0
  7 19  1  0  0  0  0
  8 22  1  0  0  0  0
  9 22  2  0  0  0  0
 10 23  1  0  0  0  0
 11 12  2  0  0  0  0
 11 24  1  0  0  0  0
 12 25  1  0  0  0  0
 13 21  1  0  0  0  0
 13 23  2  0  0  0  0
 14 25  2  0  0  0  0
 14 26  1  0  0  0  0
 15 28  1  0  0  0  0
 15 64  2  0  0  0  0
 16 27  1  0  0  0  0
 17 27  1  0  0  0  0
 17 31  2  0  0  0  0
 17 32  1  0  0  0  0
 18 20  2  0  0  0  0
 18 37  1  0  0  0  0
 19 21  2  0  0  0  0
 19 38  1  0  0  0  0
 20 50  1  0  0  0  0
 21 39  1  0  0  0  0
 22 82  1  0  0  0  0
 23 83  1  0  0  0  0
 24 26  2  0  0  0  0
 24 82  1  0  0  0  0
 25 84  1  0  0  0  0
 26 85  1  0  0  0  0
 27 65  2  0  0  0  0
 28 59  1  0  0  0  0
 28 66  2  0  0  0  0
 29 30  2  0  0  0  0
 29 53  1  0  0  0  0
 29 66  1  0  0  0  0
 30 60  1  0  0  0  0
 30 64  1  0  0  0  0
 31 67  1  0  0  0  0
 31 71  1  0  0  0  0
 32 72  1  0  0  0  0
 32 77  2  0  0  0  0
 33 51  1  0  0  0  0
 33 73  1  0  0  0  0
 33 78  2  0  0  0  0
 34 61  1  0  0  0  0
 34 68  1  0  0  0  0
 34 79  2  0  0  0  0
 35 62  1  0  0  0  0
 35 74  1  0  0  0  0
 35 80  2  0  0  0  0
 36 69  1  0  0  0  0
 36 70  1  0  0  0  0
 36 81  2  0  0  0  0
 37 40  1  0  0  0  0
 38 51  1  0  0  0  0
 39 68  1  0  0  0  0
 40 42  1  0  0  0  0
 41 43  1  0  0  0  0
 41 44  1  0  0  0  0
 42 50  1  0  0  0  0
 43 52  1  0  0  0  0
 44 69  1  0  0  0  0
 45 48  1  0  0  0  0
 45 70  1  0  0  0  0
 46 49  1  0  0  0  0
 46 70  1  0  0  0  0
 47 52  1  0  0  0  0
 47 69  1  0  0  0  0
 48 75  1  0  0  0  0
 49 75  1  0  0  0  0
 50 73  1  0  0  0  0
 51 68  1  0  0  0  0
 52 67  1  0  0  0  0
 54 62  1  0  0  0  0
 55 63  1  0  0  0  0
 56 63  1  0  0  0  0
 57 63  1  0  0  0  0
 58 76  1  0  0  0  0
 59 75  1  0  0  0  0
 60 83  1  0  0  0  0
 61 63  1  0  0  0  0
 61 74  1  0  0  0  0
 62 76  1  0  0  0  0
 65 67  1  0  0  0  0
M  CHG  2  75   1  76   1
M  ISO  4  36 100  60 101  70 100  83 101
M  END
> <Batch ID>
0183

> <Smiles>
CNC(C)C(=O)NC(C(=O)N1Cc2cc([101O:1][101CH2:1]c3ncc(CN4CC[100N:0]([100C:0](=O)N5CCCC(n6nc(-c7ccc(Oc8ccc(F)cc8F)cc7)c(C(N)=O)c6N)C5)CC4)nc3C)ccc2CC1C(=O)NC1CCCc2ccccc21)C(C)(C)C

> <Shape>
0.300

> <Color>
0.087

> <Negative vol penalty>
0.000

$$$$

  -OEChem-04052323073D

 85 94  0     1  0  0  0  0  0999 V2000
  -18.3196  -33.1642   23.8641 C   0  0  0  0  0  0  0  0  0  0  0  0
  -19.4434  -33.2503   23.0487 C   0  0  0  0  0  0  0  0  0  0  0  0
  -25.1932  -11.2991   20.1512 C   0  0  0  0  0  0  0  0  0  0  0  0
  -23.5094  -12.7685   21.0690 C   0  0  0  0  0  0  0  0  0  0  0  0
  -18.2057  -32.1233   24.7847 C   0  0  0  0  0  0  0  0  0  0  0  0
  -20.4547  -32.2960   23.1542 C   0  0  0  0  0  0  0  0  0  0  0  0
  -25.3233  -28.8583   19.1799 C   0  0  0  0  0  0  0  0  0  0  0  0
  -24.7302  -10.2624   20.9614 C   0  0  0  0  0  0  0  0  0  0  0  0
  -23.0464  -11.7318   21.8793 C   0  0  0  0  0  0  0  0  0  0  0  0
  -26.6891  -28.5798   19.1526 C   0  0  0  0  0  0  0  0  0  0  0  0
  -22.1659   -8.0585   20.9647 C   0  0  0  0  0  0  0  0  0  0  0  0
  -22.0022   -6.8027   20.3803 C   0  0  0  0  0  0  0  0  0  0  0  0
  -30.7442  -21.5095   22.3552 C   0  0  0  0  0  0  0  0  0  0  0  0
  -26.3476  -26.7810   20.7233 C   0  0  0  0  0  0  0  0  0  0  0  0
  -23.5943   -5.8696   21.9397 C   0  0  0  0  0  0  0  0  0  0  0  0
  -24.5828  -12.5522   20.2050 C   0  0  0  0  0  0  0  0  0  0  0  0
  -25.1167  -13.6440   17.9621 C   0  0  0  0  0  0  0  0  0  0  0  0
  -19.2116  -31.1503   24.8948 C   0  0  0  0  0  0  0  0  0  0  0  0
  -24.4595  -28.1059   19.9888 C   0  0  0  0  0  0  0  0  0  0  0  0
  -20.3548  -31.2419   24.0781 C   0  0  0  0  0  0  0  0  0  0  0  0
  -30.5016  -22.4113   21.3389 C   0  0  0  0  0  0  0  0  0  0  0  0
  -24.9709  -27.0503   20.7571 C   0  0  0  0  0  0  0  0  0  0  0  0
  -30.3024  -20.1994   22.1853 C   0  0  0  0  0  0  0  0  0  0  0  0
  -23.6568  -10.4787   21.8255 C   0  0  0  0  0  0  0  0  0  0  0  0
  -27.2019  -27.5429   19.9265 C   0  0  0  0  0  0  0  0  0  0  0  0
  -23.0438   -8.2200   22.0365 C   0  0  0  0  0  0  0  0  0  0  0  0
  -22.7164   -5.7082   20.8678 C   0  0  0  0  0  0  0  0  0  0  0  0
  -23.7580   -7.1255   22.5240 C   0  0  0  0  0  0  0  0  0  0  0  0
  -25.0609  -13.6236   19.3686 C   0  0  0  0  0  0  0  0  0  0  0  0
  -29.6312  -19.8676   21.0083 C   0  0  0  0  0  0  0  0  0  0  0  0
  -29.8213  -21.9844   20.2045 C   0  0  0  0  0  0  0  0  0  0  0  0
  -25.6439  -14.8751   17.6572 C   0  0  0  0  0  0  0  0  0  0  0  0
  -24.7268  -12.6399   17.0158 C   0  0  0  0  0  0  0  0  0  0  0  0
  -29.1491  -18.5015   20.7707 C   0  0  0  0  0  0  0  0  0  0  0  0
  -22.5491  -28.7583   22.4441 C   0  0  0  0  0  0  0  0  0  0  0  0
  -21.6583  -25.6615   22.0711 C   0  0  0  0  0  0  0  0  0  0  0  0
  -22.4396  -22.5384   20.9389 C   0  0  0  0  0  0  0  0  0  0  0  0
  -19.0660  -30.0704   25.9375 C   0  0  0  0  0  0  0  0  0  0  0  0
  -22.9848  -28.4018   19.9867 C   0  0  0  0  0  0  0  0  0  0  0  0
  -30.8289  -23.8652   21.2669 C   0  0  0  0  0  0  0  0  0  0  0  0
  -24.0829  -26.1997   21.6268 C   0  0  0  0  0  0  0  0  0  0  0  0
  -29.6130  -23.1221   19.2463 C   0  0  0  0  0  0  0  0  0  0  0  0
  -20.0081  -28.8881   25.7256 C   0  0  0  0  0  0  0  0  0  0  0  0
  -25.9324  -19.3486   19.3209 C   0  0  0  0  0  0  0  0  0  0  0  0
  -21.4224  -29.3784   25.4321 C   0  0  0  0  0  0  0  0  0  0  0  0
  -25.3440  -17.9622   19.0561 C   0  0  0  0  0  0  0  0  0  0  0  0
  -26.7584  -19.3661   20.6035 C   0  0  0  0  0  0  0  0  0  0  0  0
  -27.2605  -16.9558   20.3763 C   0  0  0  0  0  0  0  0  0  0  0  0
  -21.4615  -30.2119   24.1456 C   0  0  1  0  0  0  0  0  0  0  0  0
  -22.2733  -27.9023   21.2404 C   0  0  1  0  0  0  0  0  0  0  0  0
  -30.6599  -24.1364   19.7549 C   0  0  1  0  0  0  0  0  0  0  0  0
  -26.4383  -16.8792   19.0781 C   0  0  1  0  0  0  0  0  0  0  0  0
  -21.5273  -20.2042   20.8103 C   0  0  0  0  0  0  0  0  0  0  0  0
  -30.1295  -25.7588   17.9381 C   0  0  0  0  0  0  0  0  0  0  0  0
  -31.3842  -26.5067   19.9715 C   0  0  0  0  0  0  0  0  0  0  0  0
  -22.2917  -25.2538   25.0279 C   0  0  0  0  0  0  0  0  0  0  0  0
  -22.2852  -22.7841   24.6171 C   0  0  0  0  0  0  0  0  0  0  0  0
  -20.2091  -24.1148   24.2404 C   0  0  0  0  0  0  0  0  0  0  0  0
  -31.6797  -19.2939   24.0584 C   0  0  0  0  0  0  0  0  0  0  0  0
  -22.4986  -22.5540   17.9799 C   0  0  0  0  0  0  0  0  0  0  0  0
  -28.9241  -25.9152   20.1277 C   0  0  0  0  0  0  0  0  0  1  0  0
  -22.1359  -24.3383   22.6188 C   0  0  1  0  0  0  0  0  0  0  0  0
  -21.6541  -21.5443   20.1027 C   0  0  2  0  0  0  0  0  0  0  0  0
  -30.2724  -25.5765   19.4580 C   0  0  0  0  0  0  0  0  0  0  0  0
  -21.7478  -24.1398   24.1113 C   0  0  0  0  0  0  0  0  0  0  0  0
  -25.5165  -14.7520   19.9191 N   0  0  0  0  0  0  0  0  0  0  0  0
  -29.3697  -20.7356   20.0015 N   0  0  0  0  0  0  0  0  0  0  0  0
  -25.8636  -15.4930   18.8530 N   0  0  0  0  0  0  0  0  0  0  0  0
  -27.7787  -18.3103   20.5778 N   0  0  0  0  0  0  0  0  0  0  0  0
  -22.6490  -26.5323   21.5956 N   0  0  0  0  0  0  0  0  0  0  0  0
  -25.9364  -15.4784   16.4855 N   0  0  0  0  0  0  0  0  0  0  0  0
  -23.4097  -12.6489   16.5367 N   0  0  0  0  0  0  0  0  0  0  0  0
  -30.5423  -19.2431   23.1913 N   0  0  0  0  0  0  0  0  0  0  0  0
  -21.4229  -29.3500   22.9836 N   0  0  0  0  0  0  0  0  0  0  0  0
  -21.6115  -23.3128   21.7235 N   0  0  0  0  0  0  0  0  0  0  0  0
  -22.3288  -21.3220   18.7926 N   0  3  0  0  0  0  0  0  0  0  0  0
  -25.5181  -11.7509   16.6197 O   0  0  0  0  0  0  0  0  0  0  0  0
  -30.0065  -17.6197   20.7498 O   0  0  0  0  0  0  0  0  0  0  0  0
  -23.6983  -28.8721   22.8541 O   0  0  0  0  0  0  0  0  0  0  0  0
  -20.4502  -25.9104   22.0590 O   0  0  0  0  0  0  0  0  0  0  0  0
  -23.6656  -22.6173   20.9025 O   0  0  0  0  0  0  0  0  0  0  0  0
  -23.2047   -9.4673   22.6162 O   0  0  0  0  0  0  0  0  0  0  0  0
  -28.5348  -27.2694   19.9022 O   0  0  0  0  0  0  0  0  0  1  0  0
  -22.5579   -4.5019   20.3075 F   0  0  0  0  0  0  0  0  0  0  0  0
  -24.6020   -7.2742   23.5543 F   0  0  0  0  0  0  0  0  0  0  0  0
  1  2  1  0  0  0  0
  1  5  2  0  0  0  0
  2  6  2  0  0  0  0
  3  8  2  0  0  0  0
  3 16  1  0  0  0  0
  4  9  1  0  0  0  0
  4 16  2  0  0  0  0
  5 18  1  0  0  0  0
  6 20  1  0  0  0  0
  7 10  2  0  0  0  0
  7 19  1  0  0  0  0
  8 24  1  0  0  0  0
  9 24  2  0  0  0  0
 10 25  1  0  0  0  0
 11 12  2  0  0  0  0
 11 26  1  0  0  0  0
 12 27  1  0  0  0  0
 13 21  2  0  0  0  0
 13 23  1  0  0  0  0
 14 22  1  0  0  0  0
 14 25  2  0  0  0  0
 15 27  2  0  0  0  0
 15 28  1  0  0  0  0
 16 29  1  0  0  0  0
 17 29  1  0  0  0  0
 17 32  2  0  0  0  0
 17 33  1  0  0  0  0
 18 20  2  0  0  0  0
 18 38  1  0  0  0  0
 19 22  2  0  0  0  0
 19 39  1  0  0  0  0
 20 49  1  0  0  0  0
 21 31  1  0  0  0  0
 21 40  1  0  0  0  0
 22 41  1  0  0  0  0
 23 30  2  0  0  0  0
 23 73  1  0  0  0  0
 24 82  1  0  0  0  0
 25 83  1  0  0  0  0
 26 28  2  0  0  0  0
 26 82  1  0  0  0  0
 27 84  1  0  0  0  0
 28 85  1  0  0  0  0
 29 66  2  0  0  0  0
 30 34  1  0  0  0  0
 30 67  1  0  0  0  0
 31 42  1  0  0  0  0
 31 67  2  0  0  0  0
 32 68  1  0  0  0  0
 32 71  1  0  0  0  0
 33 72  1  0  0  0  0
 33 77  2  0  0  0  0
 34 69  1  0  0  0  0
 34 78  2  0  0  0  0
 35 50  1  0  0  0  0
 35 74  1  0  0  0  0
 35 79  2  0  0  0  0
 36 62  1  0  0  0  0
 36 70  1  0  0  0  0
 36 80  2  0  0  0  0
 37 63  1  0  0  0  0
 37 75  1  0  0  0  0
 37 81  2  0  0  0  0
 38 43  1  0  0  0  0
 39 50  1  0  0  0  0
 40 51  1  0  0  0  0
 41 70  1  0  0  0  0
 42 51  1  0  0  0  0
 43 45  1  0  0  0  0
 44 46  1  0  0  0  0
 44 47  1  0  0  0  0
 45 49  1  0  0  0  0
 46 52  1  0  0  0  0
 47 69  1  0  0  0  0
 48 52  1  0  0  0  0
 48 69  1  0  0  0  0
 49 74  1  0  0  0  0
 50 70  1  0  0  0  0
 51 64  1  0  0  0  0
 52 68  1  0  0  0  0
 53 63  1  0  0  0  0
 54 64  1  0  0  0  0
 55 64  1  0  0  0  0
 56 65  1  0  0  0  0
 57 65  1  0  0  0  0
 58 65  1  0  0  0  0
 59 73  1  0  0  0  0
 60 76  1  0  0  0  0
 61 64  1  0  0  0  0
 61 83  1  0  0  0  0
 62 65  1  0  0  0  0
 62 75  1  0  0  0  0
 63 76  1  0  0  0  0
 66 68  1  0  0  0  0
M  CHG  1  76   1
M  ISO  4  30 100  34 100  61 101  83 101
M  END
> <Batch ID>
0183

> <Smiles>
CNc1cc2c(n[100c:0]1[100C:0](=O)N1CCCC(n3nc(-c4ccc(Oc5ccc(F)cc5F)cc4)c(C(N)=O)c3N)C1)CC(C(C)(C)[101CH2:1][101O:1]c1ccc3c(c1)CN(C(=O)C(NC(=O)C(C)NC)C(C)(C)C)C(C(=O)NC1CCCc4ccccc41)C3)C2

> <Shape>
0.229

> <Color>
0.097

> <Negative vol penalty>
0.000

$$$$

  -OEChem-04052323073D

 81 90  0     1  0  0  0  0  0999 V2000
  -32.2446  -35.6214   24.1890 C   0  0  0  0  0  0  0  0  0  0  0  0
  -32.8307  -34.3950   23.8929 C   0  0  0  0  0  0  0  0  0  0  0  0
  -23.0075   -9.8809   19.9822 C   0  0  0  0  0  0  0  0  0  0  0  0
  -23.7325   -9.9431   22.2860 C   0  0  0  0  0  0  0  0  0  0  0  0
  -30.9069  -35.6776   24.5780 C   0  0  0  0  0  0  0  0  0  0  0  0
  -32.0796  -33.2238   23.9866 C   0  0  0  0  0  0  0  0  0  0  0  0
  -31.4009  -26.7692   20.9546 C   0  0  0  0  0  0  0  0  0  0  0  0
  -22.2464   -8.7436   20.2524 C   0  0  0  0  0  0  0  0  0  0  0  0
  -22.9714   -8.8059   22.5562 C   0  0  0  0  0  0  0  0  0  0  0  0
  -31.3616  -25.4179   21.2954 C   0  0  0  0  0  0  0  0  0  0  0  0
  -23.2317   -5.4666   22.0956 C   0  0  0  0  0  0  0  0  0  0  0  0
  -23.8241   -4.4547   22.8511 C   0  0  0  0  0  0  0  0  0  0  0  0
  -29.0376  -25.6444   21.9009 C   0  0  0  0  0  0  0  0  0  0  0  0
  -22.0992   -4.6951   24.5256 C   0  0  0  0  0  0  0  0  0  0  0  0
  -30.9783  -21.0171   23.6731 C   0  0  0  0  0  0  0  0  0  0  0  0
  -23.7506  -10.4806   20.9989 C   0  0  0  0  0  0  0  0  0  0  0  0
  -24.1239  -12.9974   20.8144 C   0  0  0  0  0  0  0  0  0  0  0  0
  -30.1364  -34.5076   24.6673 C   0  0  0  0  0  0  0  0  0  0  0  0
  -30.2599  -27.5721   21.0949 C   0  0  0  0  0  0  0  0  0  0  0  0
  -30.7307  -33.2643   24.3785 C   0  0  0  0  0  0  0  0  0  0  0  0
  -29.0643  -27.0050   21.5588 C   0  0  0  0  0  0  0  0  0  0  0  0
  -22.2283   -8.2061   21.5394 C   0  0  0  0  0  0  0  0  0  0  0  0
  -30.1806  -24.8559   21.7714 C   0  0  0  0  0  0  0  0  0  0  0  0
  -22.0730   -6.0927   22.5551 C   0  0  0  0  0  0  0  0  0  0  0  0
  -23.2579   -4.0690   24.0661 C   0  0  0  0  0  0  0  0  0  0  0  0
  -21.5068   -5.7070   23.7701 C   0  0  0  0  0  0  0  0  0  0  0  0
  -24.5375  -11.6550   20.7203 C   0  0  0  0  0  0  0  0  0  0  0  0
  -30.6439  -18.8600   23.0870 C   0  0  0  0  0  0  0  0  0  0  0  0
  -30.7545  -19.2039   21.7522 C   0  0  0  0  0  0  0  0  0  0  0  0
  -31.0891  -21.3622   22.3333 C   0  0  0  0  0  0  0  0  0  0  0  0
  -25.2302  -13.7240   20.4475 C   0  0  0  0  0  0  0  0  0  0  0  0
  -22.8534  -13.5390   21.1991 C   0  0  0  0  0  0  0  0  0  0  0  0
  -29.5232  -30.1422   22.8142 C   0  0  0  0  0  0  0  0  0  0  0  0
  -26.7851  -30.0386   21.0779 C   0  0  0  0  0  0  0  0  0  0  0  0
  -24.5882  -28.1828   19.2404 C   0  0  0  0  0  0  0  0  0  0  0  0
  -30.7220  -14.6857   20.6925 C   0  0  0  0  0  0  0  0  0  0  0  0
  -28.7074  -34.6135   25.1378 C   0  0  0  0  0  0  0  0  0  0  0  0
  -30.3115  -29.0219   20.6976 C   0  0  0  0  0  0  0  0  0  0  0  0
  -27.8061  -27.8193   21.7085 C   0  0  0  0  0  0  0  0  0  0  0  0
  -30.3558  -17.3972   23.2508 C   0  0  0  0  0  0  0  0  0  0  0  0
  -30.5532  -18.0120   20.8641 C   0  0  0  0  0  0  0  0  0  0  0  0
  -27.8773  -33.3651   24.8503 C   0  0  0  0  0  0  0  0  0  0  0  0
  -29.5928  -12.2487   18.3553 C   0  0  0  0  0  0  0  0  0  0  0  0
  -28.6451  -32.1095   25.2515 C   0  0  0  0  0  0  0  0  0  0  0  0
  -28.1456  -11.9835   18.7739 C   0  0  0  0  0  0  0  0  0  0  0  0
  -30.4942  -12.4925   19.5637 C   0  0  0  0  0  0  0  0  0  0  0  0
  -28.5803  -13.2834   20.8999 C   0  0  0  0  0  0  0  0  0  0  0  0
  -29.9420  -31.9745   24.4445 C   0  0  1  0  0  0  0  0  0  0  0  0
  -29.2296  -29.8638   21.3671 C   0  0  1  0  0  0  0  0  0  0  0  0
  -27.6221  -13.0871   19.7126 C   0  0  2  0  0  0  0  0  0  0  0  0
  -30.7944  -16.8690   21.8703 C   0  0  2  0  0  0  0  0  0  0  0  0
  -22.4246  -28.3671   17.9825 C   0  0  0  0  0  0  0  0  0  0  0  0
  -25.2567  -30.0846   23.7184 C   0  0  0  0  0  0  0  0  0  0  0  0
  -23.2232  -29.3194   22.4744 C   0  0  0  0  0  0  0  0  0  0  0  0
  -24.2715  -31.5134   21.9177 C   0  0  0  0  0  0  0  0  0  0  0  0
  -25.8673  -27.3869   16.6930 C   0  0  0  0  0  0  0  0  0  0  0  0
  -31.3436  -22.7886   21.9432 C   0  0  0  0  0  0  0  0  0  1  0  0
  -25.4392  -29.3750   21.2427 C   0  0  1  0  0  0  0  0  0  0  0  0
  -23.9411  -28.4334   17.8902 C   0  0  2  0  0  0  0  0  0  0  0  0
  -24.5717  -30.0579   22.3374 C   0  0  0  0  0  0  0  0  0  0  0  0
  -30.7469  -19.7499   24.0824 N   0  0  0  0  0  0  0  0  0  0  0  0
  -25.8073  -11.5333   20.3245 N   0  0  0  0  0  0  0  0  0  0  0  0
  -30.9742  -20.4575   21.3358 N   0  0  0  0  0  0  0  0  0  0  0  0
  -26.2012  -12.8084   20.1665 N   0  0  0  0  0  0  0  0  0  0  0  0
  -27.9088  -29.2337   21.3130 N   0  0  0  0  0  0  0  0  0  0  0  0
  -29.9423  -13.5515   20.4122 N   0  0  0  0  0  0  0  0  0  0  0  0
  -25.4573  -15.0505   20.3409 N   0  0  0  0  0  0  0  0  0  0  0  0
  -21.8258  -12.6511   21.5457 N   0  0  0  0  0  0  0  0  0  0  0  0
  -29.6597  -31.4845   23.1124 N   0  0  0  0  0  0  0  0  0  0  0  0
  -24.8269  -29.3594   19.9185 N   0  0  0  0  0  0  0  0  0  0  0  0
  -30.1211  -15.6444   21.4992 N   0  0  0  0  0  0  0  0  0  0  0  0
  -24.3966  -27.4163   16.9008 N   0  3  0  0  0  0  0  0  0  0  0  0
  -22.6307  -14.7734   21.2187 O   0  0  0  0  0  0  0  0  0  0  0  0
  -29.6174  -29.2084   23.6021 O   0  0  0  0  0  0  0  0  0  0  0  0
  -26.8376  -31.2254   20.7457 O   0  0  0  0  0  0  0  0  0  0  0  0
  -24.8518  -27.0559   19.6539 O   0  0  0  0  0  0  0  0  0  0  0  0
  -31.8667  -14.8356   20.2519 O   0  0  0  0  0  0  0  0  0  0  0  0
  -21.4856   -7.0966   21.8035 O   0  0  0  0  0  0  0  0  0  0  0  0
  -30.1397  -23.5374   22.1054 O   0  0  0  0  0  0  0  0  0  1  0  0
  -23.8260   -3.0962   24.7907 F   0  0  0  0  0  0  0  0  0  0  0  0
  -20.3930   -6.3040   24.2161 F   0  0  0  0  0  0  0  0  0  0  0  0
  1  2  1  0  0  0  0
  1  5  2  0  0  0  0
  2  6  2  0  0  0  0
  3  8  2  0  0  0  0
  3 16  1  0  0  0  0
  4  9  1  0  0  0  0
  4 16  2  0  0  0  0
  5 18  1  0  0  0  0
  6 20  1  0  0  0  0
  7 10  2  0  0  0  0
  7 19  1  0  0  0  0
  8 22  1  0  0  0  0
  9 22  2  0  0  0  0
 10 23  1  0  0  0  0
 11 12  2  0  0  0  0
 11 24  1  0  0  0  0
 12 25  1  0  0  0  0
 13 21  1  0  0  0  0
 13 23  2  0  0  0  0
 14 25  2  0  0  0  0
 14 26  1  0  0  0  0
 15 30  1  0  0  0  0
 15 61  2  0  0  0  0
 16 27  1  0  0  0  0
 17 27  1  0  0  0  0
 17 31  2  0  0  0  0
 17 32  1  0  0  0  0
 18 20  2  0  0  0  0
 18 37  1  0  0  0  0
 19 21  2  0  0  0  0
 19 38  1  0  0  0  0
 20 48  1  0  0  0  0
 21 39  1  0  0  0  0
 22 78  1  0  0  0  0
 23 79  1  0  0  0  0
 24 26  2  0  0  0  0
 24 78  1  0  0  0  0
 25 80  1  0  0  0  0
 26 81  1  0  0  0  0
 27 62  2  0  0  0  0
 28 29  2  0  0  0  0
 28 40  1  0  0  0  0
 28 61  1  0  0  0  0
 29 41  1  0  0  0  0
 29 63  1  0  0  0  0
 30 57  1  0  0  0  0
 30 63  2  0  0  0  0
 31 64  1  0  0  0  0
 31 67  1  0  0  0  0
 32 68  1  0  0  0  0
 32 73  2  0  0  0  0
 33 49  1  0  0  0  0
 33 69  1  0  0  0  0
 33 74  2  0  0  0  0
 34 58  1  0  0  0  0
 34 65  1  0  0  0  0
 34 75  2  0  0  0  0
 35 59  1  0  0  0  0
 35 70  1  0  0  0  0
 35 76  2  0  0  0  0
 36 66  1  0  0  0  0
 36 71  1  0  0  0  0
 36 77  2  0  0  0  0
 37 42  1  0  0  0  0
 38 49  1  0  0  0  0
 39 65  1  0  0  0  0
 40 51  1  0  0  0  0
 41 51  1  0  0  0  0
 42 44  1  0  0  0  0
 43 45  1  0  0  0  0
 43 46  1  0  0  0  0
 44 48  1  0  0  0  0
 45 50  1  0  0  0  0
 46 66  1  0  0  0  0
 47 50  1  0  0  0  0
 47 66  1  0  0  0  0
 48 69  1  0  0  0  0
 49 65  1  0  0  0  0
 50 64  1  0  0  0  0
 51 71  1  0  0  0  0
 52 59  1  0  0  0  0
 53 60  1  0  0  0  0
 54 60  1  0  0  0  0
 55 60  1  0  0  0  0
 56 72  1  0  0  0  0
 57 79  1  0  0  0  0
 58 60  1  0  0  0  0
 58 70  1  0  0  0  0
 59 72  1  0  0  0  0
 62 64  1  0  0  0  0
M  CHG  1  72   1
M  ISO  4  36 100  57 101  71 100  79 101
M  END
> <Batch ID>
0183

> <Smiles>
CNC(C)C(=O)NC(C(=O)N1Cc2cc([101O:1][101CH2:1]c3cnc4c(n3)CC([100NH:0][100C:0](=O)N3CCCC(n5nc(-c6ccc(Oc7ccc(F)cc7F)cc6)c(C(N)=O)c5N)C3)C4)ccc2CC1C(=O)NC1CCCc2ccccc21)C(C)(C)C

> <Shape>
0.310

> <Color>
0.193

> <Negative vol penalty>
0.000

$$$$

  -OEChem-04052323073D

 83 92  0     1  0  0  0  0  0999 V2000
  -20.1477  -31.6860   22.5887 C   0  0  0  0  0  0  0  0  0  0  0  0
  -21.4107  -31.1068   22.5184 C   0  0  0  0  0  0  0  0  0  0  0  0
  -25.3992  -14.6357   21.1255 C   0  0  0  0  0  0  0  0  0  0  0  0
  -26.9023  -12.7778   20.7707 C   0  0  0  0  0  0  0  0  0  0  0  0
  -19.0140  -30.8773   22.6562 C   0  0  0  0  0  0  0  0  0  0  0  0
  -21.5406  -29.7184   22.5166 C   0  0  0  0  0  0  0  0  0  0  0  0
  -24.8362  -28.0803   19.0379 C   0  0  0  0  0  0  0  0  0  0  0  0
  -24.4522  -13.7663   21.6667 C   0  0  0  0  0  0  0  0  0  0  0  0
  -25.9553  -11.9083   21.3119 C   0  0  0  0  0  0  0  0  0  0  0  0
  -26.1921  -28.1996   19.3394 C   0  0  0  0  0  0  0  0  0  0  0  0
  -23.7935   -9.1477   22.2687 C   0  0  0  0  0  0  0  0  0  0  0  0
  -23.5575   -7.9474   21.5985 C   0  0  0  0  0  0  0  0  0  0  0  0
  -26.2534  -25.8689   19.9586 C   0  0  0  0  0  0  0  0  0  0  0  0
  -22.8766   -9.1781   19.6341 C   0  0  0  0  0  0  0  0  0  0  0  0
  -26.6242  -14.1415   20.6774 C   0  0  0  0  0  0  0  0  0  0  0  0
  -28.6176  -15.7279   20.8085 C   0  0  0  0  0  0  0  0  0  0  0  0
  -19.1296  -29.4783   22.6455 C   0  0  0  0  0  0  0  0  0  0  0  0
  -24.1750  -26.8550   19.2052 C   0  0  0  0  0  0  0  0  0  0  0  0
  -20.4074  -28.8902   22.5853 C   0  0  0  0  0  0  0  0  0  0  0  0
  -24.8896  -25.7360   19.6561 C   0  0  0  0  0  0  0  0  0  0  0  0
  -24.7302  -12.4026   21.7599 C   0  0  0  0  0  0  0  0  0  0  0  0
  -26.9003  -27.0946   19.8026 C   0  0  0  0  0  0  0  0  0  0  0  0
  -23.5710  -10.3632   21.6217 C   0  0  0  0  0  0  0  0  0  0  0  0
  -23.0991   -7.9626   20.2812 C   0  0  0  0  0  0  0  0  0  0  0  0
  -23.1125  -10.3784   20.3044 C   0  0  0  0  0  0  0  0  0  0  0  0
  -27.6027  -15.0390   20.1178 C   0  0  0  0  0  0  0  0  0  0  0  0
  -30.1292  -25.5919   20.3466 C   0  0  0  0  0  0  0  0  0  0  0  0
  -29.0927  -26.2577   19.6775 C   0  0  0  0  0  0  0  0  0  1  0  0
  -29.2719  -16.4421   19.8346 C   0  0  0  0  0  0  0  0  0  0  0  0
  -28.9403  -15.7227   22.2054 C   0  0  0  0  0  0  0  0  0  0  0  0
  -21.7575  -25.8375   21.0008 C   0  0  0  0  0  0  0  0  0  0  0  0
  -22.1277  -23.1184   19.2710 C   0  0  0  0  0  0  0  0  0  0  0  0
  -23.9155  -21.6330   17.1479 C   0  0  0  0  0  0  0  0  0  0  0  0
  -29.1312  -19.7050   15.3101 C   0  0  0  0  0  0  0  0  0  0  0  0
  -17.8781  -28.6455   22.7678 C   0  0  0  0  0  0  0  0  0  0  0  0
  -22.7182  -26.7361   18.8501 C   0  0  0  0  0  0  0  0  0  0  0  0
  -24.2310  -24.3932   19.8335 C   0  0  0  0  0  0  0  0  0  0  0  0
  -18.0801  -27.1822   22.3830 C   0  0  0  0  0  0  0  0  0  0  0  0
  -28.9934  -16.2065   14.8083 C   0  0  0  0  0  0  0  0  0  0  0  0
  -19.3441  -26.6288   23.0333 C   0  0  0  0  0  0  0  0  0  0  0  0
  -28.6671  -15.6413   16.1876 C   0  0  0  0  0  0  0  0  0  0  0  0
  -28.6432  -22.2754   17.8868 C   0  0  0  0  0  0  0  0  0  0  0  0
  -28.2548  -17.5170   14.5724 C   0  0  0  0  0  0  0  0  0  0  0  0
  -28.5331  -20.7929   17.5542 C   0  0  0  0  0  0  0  0  0  0  0  0
  -30.1637  -21.8074   16.1145 C   0  0  0  0  0  0  0  0  0  0  0  0
  -28.2548  -18.0202   17.0011 C   0  0  0  0  0  0  0  0  0  0  0  0
  -20.5879  -27.3880   22.5560 C   0  0  1  0  0  0  0  0  0  0  0  0
  -22.0266  -25.5685   19.5472 C   0  0  1  0  0  0  0  0  0  0  0  0
  -30.0513  -22.6206   17.4008 C   0  0  1  0  0  0  0  0  0  0  0  0
  -28.9631  -16.6790   17.2816 C   0  0  1  0  0  0  0  0  0  0  0  0
  -30.6000  -25.7547   21.7292 C   0  0  0  0  0  0  0  0  0  0  0  0
  -25.0593  -20.1357   15.4904 C   0  0  0  0  0  0  0  0  0  0  0  0
  -31.6607  -24.4185   16.6369 C   0  0  0  0  0  0  0  0  0  0  0  0
  -22.3341  -21.6122   21.9165 C   0  0  0  0  0  0  0  0  0  0  0  0
  -23.2937  -19.6727   20.6572 C   0  0  0  0  0  0  0  0  0  0  0  0
  -20.9781  -20.4568   20.1612 C   0  0  0  0  0  0  0  0  0  0  0  0
  -22.1129  -22.4839   14.9603 C   0  0  0  0  0  0  0  0  0  0  0  0
  -22.9470  -21.8594   19.4206 C   0  0  1  0  0  0  0  0  0  0  0  0
  -23.7640  -20.8408   15.8618 C   0  0  2  0  0  0  0  0  0  0  0  0
  -30.2645  -24.1092   17.1927 C   0  0  2  0  0  0  0  0  0  0  0  0
  -22.4005  -20.9259   20.5375 C   0  0  0  0  0  0  0  0  0  0  0  0
  -27.6076  -15.2927   18.8065 N   0  0  0  0  0  0  0  0  0  0  0  0
  -30.7044  -24.7087   19.5258 N   0  0  0  0  0  0  0  0  0  0  0  0
  -28.9981  -25.8049   18.4242 N   0  0  0  0  0  0  0  0  0  0  0  0
  -28.6336  -16.1491   18.6654 N   0  0  0  0  0  0  0  0  0  0  0  0
  -29.9825  -24.8919   18.4085 N   0  0  0  0  0  0  0  0  0  0  0  0
  -22.8035  -24.3291   19.4790 N   0  0  0  0  0  0  0  0  0  0  0  0
  -28.5180  -18.4898   15.6346 N   0  0  0  0  0  0  0  0  0  0  0  0
  -29.3262  -20.6313   16.3339 N   0  0  0  0  0  0  0  0  0  0  0  0
  -30.3250  -17.2858   19.8728 N   0  0  0  0  0  0  0  0  0  0  0  0
  -28.1665  -14.9332   23.0670 N   0  0  0  0  0  0  0  0  0  0  0  0
  -20.9702  -26.9495   21.2309 N   0  0  0  0  0  0  0  0  0  0  0  0
  -22.9955  -21.2444   18.0985 N   0  0  0  0  0  0  0  0  0  0  0  0
  -23.3818  -21.7436   14.7394 N   0  3  0  0  0  0  0  0  0  0  0  0
  -29.8764  -16.4110   22.6782 O   0  0  0  0  0  0  0  0  0  0  0  0
  -22.2281  -25.0904   21.8507 O   0  0  0  0  0  0  0  0  0  0  0  0
  -20.9337  -23.0312   18.9733 O   0  0  0  0  0  0  0  0  0  0  0  0
  -24.7674  -22.5065   17.2958 O   0  0  0  0  0  0  0  0  0  0  0  0
  -29.4539  -19.9710   14.1444 O   0  0  0  0  0  0  0  0  0  0  0  0
  -23.8065  -11.5540   22.2881 O   0  0  0  0  0  0  0  0  0  0  0  0
  -28.2576  -27.2114   20.1058 O   0  0  0  0  0  0  0  0  0  1  0  0
  -22.8740   -6.8099   19.6372 F   0  0  0  0  0  0  0  0  0  0  0  0
  -22.8980  -11.5431   19.6772 F   0  0  0  0  0  0  0  0  0  0  0  0
  1  2  1  0  0  0  0
  1  5  2  0  0  0  0
  2  6  2  0  0  0  0
  3  8  2  0  0  0  0
  3 15  1  0  0  0  0
  4  9  1  0  0  0  0
  4 15  2  0  0  0  0
  5 17  1  0  0  0  0
  6 19  1  0  0  0  0
  7 10  2  0  0  0  0
  7 18  1  0  0  0  0
  8 21  1  0  0  0  0
  9 21  2  0  0  0  0
 10 22  1  0  0  0  0
 11 12  2  0  0  0  0
 11 23  1  0  0  0  0
 12 24  1  0  0  0  0
 13 20  1  0  0  0  0
 13 22  2  0  0  0  0
 14 24  2  0  0  0  0
 14 25  1  0  0  0  0
 15 26  1  0  0  0  0
 16 26  1  0  0  0  0
 16 29  2  0  0  0  0
 16 30  1  0  0  0  0
 17 19  2  0  0  0  0
 17 35  1  0  0  0  0
 18 20  2  0  0  0  0
 18 36  1  0  0  0  0
 19 47  1  0  0  0  0
 20 37  1  0  0  0  0
 21 80  1  0  0  0  0
 22 81  1  0  0  0  0
 23 25  2  0  0  0  0
 23 80  1  0  0  0  0
 24 82  1  0  0  0  0
 25 83  1  0  0  0  0
 26 62  2  0  0  0  0
 27 28  1  0  0  0  0
 27 51  1  0  0  0  0
 27 63  2  0  0  0  0
 28 64  2  0  0  0  0
 28 81  1  0  0  0  0
 29 65  1  0  0  0  0
 29 70  1  0  0  0  0
 30 71  1  0  0  0  0
 30 75  2  0  0  0  0
 31 48  1  0  0  0  0
 31 72  1  0  0  0  0
 31 76  2  0  0  0  0
 32 58  1  0  0  0  0
 32 67  1  0  0  0  0
 32 77  2  0  0  0  0
 33 59  1  0  0  0  0
 33 73  1  0  0  0  0
 33 78  2  0  0  0  0
 34 68  1  0  0  0  0
 34 69  1  0  0  0  0
 34 79  2  0  0  0  0
 35 38  1  0  0  0  0
 36 48  1  0  0  0  0
 37 67  1  0  0  0  0
 38 40  1  0  0  0  0
 39 41  1  0  0  0  0
 39 43  1  0  0  0  0
 40 47  1  0  0  0  0
 41 50  1  0  0  0  0
 42 44  1  0  0  0  0
 42 49  1  0  0  0  0
 43 68  1  0  0  0  0
 44 69  1  0  0  0  0
 45 49  1  0  0  0  0
 45 69  1  0  0  0  0
 46 50  1  0  0  0  0
 46 68  1  0  0  0  0
 47 72  1  0  0  0  0
 48 67  1  0  0  0  0
 49 60  1  0  0  0  0
 50 65  1  0  0  0  0
 52 59  1  0  0  0  0
 53 60  1  0  0  0  0
 54 61  1  0  0  0  0
 55 61  1  0  0  0  0
 56 61  1  0  0  0  0
 57 74  1  0  0  0  0
 58 61  1  0  0  0  0
 58 73  1  0  0  0  0
 59 74  1  0  0  0  0
 60 66  1  0  0  0  0
 62 65  1  0  0  0  0
 63 66  1  0  0  0  0
 64 66  1  0  0  0  0
M  CHG  1  74   1
M  ISO  4  28 101  34 100  69 100  81 101
M  END
> <Batch ID>
0183

> <Smiles>
CNC(C)C(=O)NC(C(=O)N1Cc2cc([101O:1][101c:1]3nn(C(C)C4CC[100N:0]([100C:0](=O)N5CCCC(n6nc(-c7ccc(Oc8ccc(F)cc8F)cc7)c(C(N)=O)c6N)C5)C4)nc3C)ccc2CC1C(=O)NC1CCCc2ccccc21)C(C)(C)C

> <Shape>
0.228

> <Color>
0.090

> <Negative vol penalty>
0.000

$$$$

  -OEChem-04052323073D

 82 91  0     1  0  0  0  0  0999 V2000
  -16.5990  -28.4398   22.7796 C   0  0  0  0  0  0  0  0  0  0  0  0
  -17.6702  -27.9273   22.0547 C   0  0  0  0  0  0  0  0  0  0  0  0
  -25.1813  -14.4286   21.5670 C   0  0  0  0  0  0  0  0  0  0  0  0
  -26.6259  -12.5091   21.3107 C   0  0  0  0  0  0  0  0  0  0  0  0
  -16.8292  -29.3406   23.8186 C   0  0  0  0  0  0  0  0  0  0  0  0
  -18.9721  -28.3163   22.3678 C   0  0  0  0  0  0  0  0  0  0  0  0
  -24.0243  -24.8708   22.0348 C   0  0  0  0  0  0  0  0  0  0  0  0
  -24.1174  -13.6988   21.0369 C   0  0  0  0  0  0  0  0  0  0  0  0
  -25.5620  -11.7792   20.7807 C   0  0  0  0  0  0  0  0  0  0  0  0
  -25.0243  -24.7633   21.0693 C   0  0  0  0  0  0  0  0  0  0  0  0
  -22.8445  -10.1400   21.9421 C   0  0  0  0  0  0  0  0  0  0  0  0
  -22.6581   -8.8383   22.4074 C   0  0  0  0  0  0  0  0  0  0  0  0
  -26.3856  -26.3171   22.3150 C   0  0  0  0  0  0  0  0  0  0  0  0
  -22.9507   -7.9939   20.1627 C   0  0  0  0  0  0  0  0  0  0  0  0
  -30.2709  -24.5190   16.6394 C   0  0  0  0  0  0  0  0  0  0  0  0
  -26.4356  -13.8339   21.7038 C   0  0  0  0  0  0  0  0  0  0  0  0
  -27.9075  -14.6868   23.6048 C   0  0  0  0  0  0  0  0  0  0  0  0
  -18.1353  -29.7333   24.1508 C   0  0  0  0  0  0  0  0  0  0  0  0
  -24.1932  -25.7122   23.1439 C   0  0  0  0  0  0  0  0  0  0  0  0
  -19.2199  -29.2242   23.4113 C   0  0  0  0  0  0  0  0  0  0  0  0
  -25.3873  -26.4316   23.2944 C   0  0  0  0  0  0  0  0  0  0  0  0
  -24.3077  -12.3740   20.6438 C   0  0  0  0  0  0  0  0  0  0  0  0
  -26.2040  -25.4887   21.2078 C   0  0  0  0  0  0  0  0  0  0  0  0
  -23.0840  -10.3686   20.5870 C   0  0  0  0  0  0  0  0  0  0  0  0
  -22.7112   -7.7653   21.5178 C   0  0  0  0  0  0  0  0  0  0  0  0
  -23.1371   -9.2956   19.6974 C   0  0  0  0  0  0  0  0  0  0  0  0
  -27.5351  -14.5875   22.2508 C   0  0  0  0  0  0  0  0  0  0  0  0
  -29.9857  -23.4624   17.4801 C   0  0  0  0  0  0  0  0  0  0  0  0
  -29.3833  -25.5746   16.6850 C   0  0  0  0  0  0  0  0  0  0  0  0
  -29.0051  -15.5125   23.5993 C   0  0  0  0  0  0  0  0  0  0  0  0
  -28.1288  -24.5174   18.2584 C   0  0  0  0  0  0  0  0  0  0  0  0
  -27.3144  -14.0862   24.7638 C   0  0  0  0  0  0  0  0  0  0  0  0
  -22.6899  -28.2805   24.2608 C   0  0  0  0  0  0  0  0  0  0  0  0
  -24.7199  -27.9004   26.7622 C   0  0  0  0  0  0  0  0  0  0  0  0
  -27.6815  -26.6697   27.9288 C   0  0  0  0  0  0  0  0  0  0  0  0
  -30.6281  -19.7223   19.7080 C   0  0  0  0  0  0  0  0  0  0  0  0
  -18.3312  -30.7459   25.2513 C   0  0  0  0  0  0  0  0  0  0  0  0
  -23.1160  -25.7966   24.1902 C   0  0  0  0  0  0  0  0  0  0  0  0
  -25.6263  -27.3332   24.4770 C   0  0  0  0  0  0  0  0  0  0  0  0
  -19.7674  -30.8188   25.7634 C   0  0  0  0  0  0  0  0  0  0  0  0
  -32.6665  -16.8731   20.8656 C   0  0  0  0  0  0  0  0  0  0  0  0
  -20.7484  -30.8689   24.5964 C   0  0  0  0  0  0  0  0  0  0  0  0
  -31.5890  -15.9513   21.4291 C   0  0  0  0  0  0  0  0  0  0  0  0
  -32.3649  -22.4914   17.7433 C   0  0  0  0  0  0  0  0  0  0  0  0
  -32.1672  -17.6695   19.6607 C   0  0  0  0  0  0  0  0  0  0  0  0
  -29.8385  -17.5133   20.4957 C   0  0  0  0  0  0  0  0  0  0  0  0
  -20.6484  -29.6029   23.7369 C   0  0  1  0  0  0  0  0  0  0  0  0
  -30.8963  -22.2811   17.4909 C   0  0  1  0  0  0  0  0  0  0  0  0
  -23.1833  -27.0782   25.0150 C   0  0  1  0  0  0  0  0  0  0  0  0
  -30.3074  -16.7403   21.7379 C   0  0  1  0  0  0  0  0  0  0  0  0
  -31.5158  -21.8479   18.7994 C   0  0  1  0  0  0  0  0  0  0  0  0
  -29.6083  -26.7628   15.8114 C   0  0  0  0  0  0  0  0  0  0  0  0
  -29.0825  -26.5489   30.0072 C   0  0  0  0  0  0  0  0  0  0  0  0
  -25.5506  -30.8098   26.3685 C   0  0  0  0  0  0  0  0  0  0  0  0
  -27.5621  -30.3548   27.7880 C   0  0  0  0  0  0  0  0  0  0  0  0
  -25.2753  -30.1174   28.7558 C   0  0  0  0  0  0  0  0  0  0  0  0
  -27.5650  -23.7128   27.9750 C   0  0  0  0  0  0  0  0  0  0  0  0
  -26.9317  -24.5165   19.1630 C   0  0  0  0  0  0  0  0  0  1  0  0
  -26.1051  -28.3966   27.0999 C   0  0  1  0  0  0  0  0  0  0  0  0
  -28.0176  -25.8600   29.1681 C   0  0  2  0  0  0  0  0  0  0  0  0
  -26.1183  -29.9042   27.4797 C   0  0  0  0  0  0  0  0  0  0  0  0
  -28.3313  -15.2938   21.4439 N   0  0  0  0  0  0  0  0  0  0  0  0
  -28.9193  -23.4283   18.3058 N   0  0  0  0  0  0  0  0  0  0  0  0
  -28.2977  -25.6072   17.4855 N   0  0  0  0  0  0  0  0  0  0  0  0
  -29.2150  -15.8449   22.2934 N   0  0  0  0  0  0  0  0  0  0  0  0
  -24.5405  -27.3870   25.4699 N   0  0  0  0  0  0  0  0  0  0  0  0
  -30.9056  -18.3661   19.9576 N   0  0  0  0  0  0  0  0  0  0  0  0
  -29.8014  -15.9794   24.5843 N   0  0  0  0  0  0  0  0  0  0  0  0
  -26.1917  -13.2654   24.5904 N   0  0  0  0  0  0  0  0  0  0  0  0
  -21.3309  -28.5004   24.3797 N   0  0  0  0  0  0  0  0  0  0  0  0
  -26.6119  -27.5129   28.1441 N   0  0  0  0  0  0  0  0  0  0  0  0
  -31.6547  -20.4524   19.1197 N   0  0  0  0  0  0  0  0  0  0  0  0
  -28.5214  -24.5109   28.7845 N   0  3  0  0  0  0  0  0  0  0  0  0
  -27.7567  -14.2852   25.9206 O   0  0  0  0  0  0  0  0  0  0  0  0
  -23.4836  -28.9592   23.6197 O   0  0  0  0  0  0  0  0  0  0  0  0
  -23.8316  -27.9593   27.6161 O   0  0  0  0  0  0  0  0  0  0  0  0
  -28.3077  -26.5674   26.8762 O   0  0  0  0  0  0  0  0  0  0  0  0
  -29.5427  -20.2456   19.9833 O   0  0  0  0  0  0  0  0  0  0  0  0
  -23.2697  -11.6614   20.1267 O   0  0  0  0  0  0  0  0  0  0  0  0
  -27.1815  -25.3860   20.2666 O   0  0  0  0  0  0  0  0  0  1  0  0
  -22.5336   -6.5153   21.9650 F   0  0  0  0  0  0  0  0  0  0  0  0
  -23.3681   -9.5090   18.3947 F   0  0  0  0  0  0  0  0  0  0  0  0
  1  2  1  0  0  0  0
  1  5  2  0  0  0  0
  2  6  2  0  0  0  0
  3  8  2  0  0  0  0
  3 16  1  0  0  0  0
  4  9  1  0  0  0  0
  4 16  2  0  0  0  0
  5 18  1  0  0  0  0
  6 20  1  0  0  0  0
  7 10  2  0  0  0  0
  7 19  1  0  0  0  0
  8 22  1  0  0  0  0
  9 22  2  0  0  0  0
 10 23  1  0  0  0  0
 11 12  2  0  0  0  0
 11 24  1  0  0  0  0
 12 25  1  0  0  0  0
 13 21  1  0  0  0  0
 13 23  2  0  0  0  0
 14 25  2  0  0  0  0
 14 26  1  0  0  0  0
 15 28  2  0  0  0  0
 15 29  1  0  0  0  0
 16 27  1  0  0  0  0
 17 27  1  0  0  0  0
 17 30  2  0  0  0  0
 17 32  1  0  0  0  0
 18 20  2  0  0  0  0
 18 37  1  0  0  0  0
 19 21  2  0  0  0  0
 19 38  1  0  0  0  0
 20 47  1  0  0  0  0
 21 39  1  0  0  0  0
 22 79  1  0  0  0  0
 23 80  1  0  0  0  0
 24 26  2  0  0  0  0
 24 79  1  0  0  0  0
 25 81  1  0  0  0  0
 26 82  1  0  0  0  0
 27 62  2  0  0  0  0
 28 48  1  0  0  0  0
 28 63  1  0  0  0  0
 29 52  1  0  0  0  0
 29 64  2  0  0  0  0
 30 65  1  0  0  0  0
 30 68  1  0  0  0  0
 31 58  1  0  0  0  0
 31 63  2  0  0  0  0
 31 64  1  0  0  0  0
 32 69  1  0  0  0  0
 32 74  2  0  0  0  0
 33 49  1  0  0  0  0
 33 70  1  0  0  0  0
 33 75  2  0  0  0  0
 34 59  1  0  0  0  0
 34 66  1  0  0  0  0
 34 76  2  0  0  0  0
 35 60  1  0  0  0  0
 35 71  1  0  0  0  0
 35 77  2  0  0  0  0
 36 67  1  0  0  0  0
 36 72  1  0  0  0  0
 36 78  2  0  0  0  0
 37 40  1  0  0  0  0
 38 49  1  0  0  0  0
 39 66  1  0  0  0  0
 40 42  1  0  0  0  0
 41 43  1  0  0  0  0
 41 45  1  0  0  0  0
 42 47  1  0  0  0  0
 43 50  1  0  0  0  0
 44 48  1  0  0  0  0
 44 51  1  0  0  0  0
 45 67  1  0  0  0  0
 46 50  1  0  0  0  0
 46 67  1  0  0  0  0
 47 70  1  0  0  0  0
 48 51  1  0  0  0  0
 49 66  1  0  0  0  0
 50 65  1  0  0  0  0
 51 72  1  0  0  0  0
 53 60  1  0  0  0  0
 54 61  1  0  0  0  0
 55 61  1  0  0  0  0
 56 61  1  0  0  0  0
 57 73  1  0  0  0  0
 58 80  1  0  0  0  0
 59 61  1  0  0  0  0
 59 71  1  0  0  0  0
 60 73  1  0  0  0  0
 62 65  1  0  0  0  0
M  CHG  1  73   1
M  ISO  4  36 100  58 101  72 100  80 101
M  END
> <Batch ID>
0183

> <Smiles>
CNC(C)C(=O)NC(C(=O)N1Cc2cc([101O:1][101CH2:1]c3nc(C)cc(C4CC4[100NH:0][100C:0](=O)N4CCCC(n5nc(-c6ccc(Oc7ccc(F)cc7F)cc6)c(C(N)=O)c5N)C4)n3)ccc2CC1C(=O)NC1CCCc2ccccc21)C(C)(C)C

> <Shape>
0.200

> <Color>
0.090

> <Negative vol penalty>
0.000

$$$$

  -OEChem-04052323073D

 88 97  0     1  0  0  0  0  0999 V2000
  -16.5184  -29.8081   23.6959 C   0  0  0  0  0  0  0  0  0  0  0  0
  -17.4832  -30.5315   23.0040 C   0  0  0  0  0  0  0  0  0  0  0  0
  -28.9002  -14.6611   21.5141 C   0  0  0  0  0  0  0  0  0  0  0  0
  -27.3071  -16.0571   20.3521 C   0  0  0  0  0  0  0  0  0  0  0  0
  -16.8185  -28.5352   24.1764 C   0  0  0  0  0  0  0  0  0  0  0  0
  -18.7444  -29.9776   22.7819 C   0  0  0  0  0  0  0  0  0  0  0  0
  -26.2516  -29.5805   20.1920 C   0  0  0  0  0  0  0  0  0  0  0  0
  -28.0494  -13.5659   21.3648 C   0  0  0  0  0  0  0  0  0  0  0  0
  -26.4563  -14.9618   20.2027 C   0  0  0  0  0  0  0  0  0  0  0  0
  -27.4560  -28.9016   20.3716 C   0  0  0  0  0  0  0  0  0  0  0  0
  -24.2464  -13.2466   22.1014 C   0  0  0  0  0  0  0  0  0  0  0  0
  -22.8917  -13.4364   22.3736 C   0  0  0  0  0  0  0  0  0  0  0  0
  -26.3292  -26.8076   19.9658 C   0  0  0  0  0  0  0  0  0  0  0  0
  -22.3477  -12.8060   20.1056 C   0  0  0  0  0  0  0  0  0  0  0  0
  -30.6607  -25.9696   19.4383 C   0  0  0  0  0  0  0  0  0  0  0  0
  -28.5290  -15.9067   21.0078 C   0  0  0  0  0  0  0  0  0  0  0  0
  -29.8677  -17.5987   22.3689 C   0  0  0  0  0  0  0  0  0  0  0  0
  -18.0884  -27.9712   23.9706 C   0  0  0  0  0  0  0  0  0  0  0  0
  -25.0728  -28.8759   19.9083 C   0  0  0  0  0  0  0  0  0  0  0  0
  -19.0589  -28.6847   23.2382 C   0  0  0  0  0  0  0  0  0  0  0  0
  -25.1116  -27.4800   19.7806 C   0  0  0  0  0  0  0  0  0  0  0  0
  -26.8275  -13.7162   20.7090 C   0  0  0  0  0  0  0  0  0  0  0  0
  -27.4944  -27.5147   20.2613 C   0  0  0  0  0  0  0  0  0  0  0  0
  -24.6519  -12.8365   20.8313 C   0  0  0  0  0  0  0  0  0  0  0  0
  -21.9423  -13.2161   21.3757 C   0  0  0  0  0  0  0  0  0  0  0  0
  -23.7025  -12.6162   19.8334 C   0  0  0  0  0  0  0  0  0  0  0  0
  -29.4071  -17.0386   21.1623 C   0  0  0  0  0  0  0  0  0  0  0  0
  -31.0135  -26.2096   17.1913 C   0  0  0  0  0  0  0  0  0  0  0  0
  -29.8140  -26.8768   17.0742 C   0  0  0  0  0  0  0  0  0  0  0  0
  -29.4610  -26.6366   19.3211 C   0  0  0  0  0  0  0  0  0  1  0  0
  -30.6673  -18.6450   21.9785 C   0  0  0  0  0  0  0  0  0  0  0  0
  -31.7808  -24.8816   15.2599 C   0  0  0  0  0  0  0  0  0  0  0  0
  -31.8795  -25.9619   16.0501 C   0  0  0  0  0  0  0  0  0  0  0  0
  -29.5972  -17.2081   23.7216 C   0  0  0  0  0  0  0  0  0  0  0  0
  -22.2738  -28.5062   21.3687 C   0  0  0  0  0  0  0  0  0  0  0  0
  -21.5023  -26.9237   18.6442 C   0  0  0  0  0  0  0  0  0  0  0  0
  -23.0971  -24.5669   16.4262 C   0  0  0  0  0  0  0  0  0  0  0  0
  -30.5801  -21.8937   16.9848 C   0  0  0  0  0  0  0  0  0  0  0  0
  -18.3569  -26.5867   24.5056 C   0  0  0  0  0  0  0  0  0  0  0  0
  -23.7869  -29.6252   19.6910 C   0  0  0  0  0  0  0  0  0  0  0  0
  -23.8780  -26.6787   19.4574 C   0  0  0  0  0  0  0  0  0  0  0  0
  -32.7043  -24.6715   14.0878 C   0  0  0  0  0  0  0  0  0  0  0  0
  -19.8448  -26.2677   24.6094 C   0  0  0  0  0  0  0  0  0  0  0  0
  -31.9099  -24.4475   12.7994 C   0  0  0  0  0  0  0  0  0  0  0  0
  -33.4721  -20.0978   18.4073 C   0  0  0  0  0  0  0  0  0  0  0  0
  -20.5426  -26.6118   23.3020 C   0  0  0  0  0  0  0  0  0  0  0  0
  -32.7760  -19.1211   19.3504 C   0  0  0  0  0  0  0  0  0  0  0  0
  -29.9710  -23.5220   14.1512 C   0  0  0  0  0  0  0  0  0  0  0  0
  -32.6422  -20.3758   17.1547 C   0  0  0  0  0  0  0  0  0  0  0  0
  -30.5588  -19.8605   18.3951 C   0  0  0  0  0  0  0  0  0  0  0  0
  -20.4475  -28.1149   23.0113 C   0  0  1  0  0  0  0  0  0  0  0  0
  -30.7070  -23.8419   15.4615 C   0  0  1  0  0  0  0  0  0  0  0  0
  -22.5480  -28.7632   19.9139 C   0  0  1  0  0  0  0  0  0  0  0  0
  -31.3568  -19.6065   19.6832 C   0  0  1  0  0  0  0  0  0  0  0  0
  -30.8694  -23.3073   12.9053 C   0  0  0  0  0  0  0  0  0  0  0  0
  -29.9763  -23.3326   11.6474 C   0  0  0  0  0  0  0  0  0  0  0  0
  -31.5688  -21.9355   12.9436 C   0  0  0  0  0  0  0  0  0  0  0  0
  -30.0378  -28.6726   15.3388 C   0  0  0  0  0  0  0  0  0  0  0  0
  -22.7343  -24.1230   13.9831 C   0  0  0  0  0  0  0  0  0  0  0  0
  -19.5914  -24.7537   19.6188 C   0  0  0  0  0  0  0  0  0  0  0  0
  -20.4016  -23.2984   17.7496 C   0  0  0  0  0  0  0  0  0  0  0  0
  -19.2511  -25.4527   17.2418 C   0  0  0  0  0  0  0  0  0  0  0  0
  -25.9562  -25.0090   15.8025 C   0  0  0  0  0  0  0  0  0  0  0  0
  -29.3250  -27.3909   15.7624 C   0  0  0  0  0  0  0  0  0  0  0  0
  -21.6005  -25.4922   18.1750 C   0  0  1  0  0  0  0  0  0  0  0  0
  -23.5916  -24.8370   15.0166 C   0  0  2  0  0  0  0  0  0  0  0  0
  -20.2295  -24.7600   18.2153 C   0  0  0  0  0  0  0  0  0  0  0  0
  -31.4584  -25.7440   18.3755 N   0  0  0  0  0  0  0  0  0  0  0  0
  -29.8749  -17.6764   20.0860 N   0  0  0  0  0  0  0  0  0  0  0  0
  -29.0162  -27.1023   18.1369 N   0  0  0  0  0  0  0  0  0  0  0  0
  -30.6378  -18.6481   20.6149 N   0  0  0  0  0  0  0  0  0  0  0  0
  -22.6436  -27.4564   19.2601 N   0  0  0  0  0  0  0  0  0  0  0  0
  -31.2680  -20.7775   17.4942 N   0  0  0  0  0  0  0  0  0  0  0  0
  -31.3856  -19.5536   22.6720 N   0  0  0  0  0  0  0  0  0  0  0  0
  -28.4963  -17.7792   24.3745 N   0  0  0  0  0  0  0  0  0  0  0  0
  -20.9329  -28.3685   21.6727 N   0  0  0  0  0  0  0  0  0  0  0  0
  -22.2152  -25.5373   16.8527 N   0  0  0  0  0  0  0  0  0  0  0  0
  -31.2818  -22.6730   16.0720 N   0  0  0  0  0  0  0  0  0  0  0  0
  -24.9987  -24.3707   14.8631 N   0  3  0  0  0  0  0  0  0  0  0  0
  -30.3201  -16.3895   24.3387 O   0  0  0  0  0  0  0  0  0  0  0  0
  -23.2096  -28.4364   22.1568 O   0  0  0  0  0  0  0  0  0  0  0  0
  -20.4540  -27.5485   18.4643 O   0  0  0  0  0  0  0  0  0  0  0  0
  -23.4544  -23.5907   17.0819 O   0  0  0  0  0  0  0  0  0  0  0  0
  -29.4222  -22.1744   17.3138 O   0  0  0  0  0  0  0  0  0  0  0  0
  -25.9972  -12.6476   20.5629 O   0  0  0  0  0  0  0  0  0  0  0  0
  -28.6686  -26.8495   20.4367 O   0  0  0  0  0  0  0  0  0  1  0  0
  -20.6412  -13.3970   21.6376 F   0  0  0  0  0  0  0  0  0  0  0  0
  -24.0859  -12.2210   18.6117 F   0  0  0  0  0  0  0  0  0  0  0  0
  1  2  1  0  0  0  0
  1  5  2  0  0  0  0
  2  6  2  0  0  0  0
  3  8  2  0  0  0  0
  3 16  1  0  0  0  0
  4  9  1  0  0  0  0
  4 16  2  0  0  0  0
  5 18  1  0  0  0  0
  6 20  1  0  0  0  0
  7 10  2  0  0  0  0
  7 19  1  0  0  0  0
  8 22  1  0  0  0  0
  9 22  2  0  0  0  0
 10 23  1  0  0  0  0
 11 12  2  0  0  0  0
 11 24  1  0  0  0  0
 12 25  1  0  0  0  0
 13 21  1  0  0  0  0
 13 23  2  0  0  0  0
 14 25  2  0  0  0  0
 14 26  1  0  0  0  0
 15 30  1  0  0  0  0
 15 68  2  0  0  0  0
 16 27  1  0  0  0  0
 17 27  1  0  0  0  0
 17 31  2  0  0  0  0
 17 34  1  0  0  0  0
 18 20  2  0  0  0  0
 18 39  1  0  0  0  0
 19 21  2  0  0  0  0
 19 40  1  0  0  0  0
 20 51  1  0  0  0  0
 21 41  1  0  0  0  0
 22 85  1  0  0  0  0
 23 86  1  0  0  0  0
 24 26  2  0  0  0  0
 24 85  1  0  0  0  0
 25 87  1  0  0  0  0
 26 88  1  0  0  0  0
 27 69  2  0  0  0  0
 28 29  2  0  0  0  0
 28 33  1  0  0  0  0
 28 68  1  0  0  0  0
 29 64  1  0  0  0  0
 29 70  1  0  0  0  0
 30 70  2  0  0  0  0
 30 86  1  0  0  0  0
 31 71  1  0  0  0  0
 31 74  1  0  0  0  0
 32 33  2  0  0  0  0
 32 42  1  0  0  0  0
 32 52  1  0  0  0  0
 34 75  1  0  0  0  0
 34 80  2  0  0  0  0
 35 53  1  0  0  0  0
 35 76  1  0  0  0  0
 35 81  2  0  0  0  0
 36 65  1  0  0  0  0
 36 72  1  0  0  0  0
 36 82  2  0  0  0  0
 37 66  1  0  0  0  0
 37 77  1  0  0  0  0
 37 83  2  0  0  0  0
 38 73  1  0  0  0  0
 38 78  1  0  0  0  0
 38 84  2  0  0  0  0
 39 43  1  0  0  0  0
 40 53  1  0  0  0  0
 41 72  1  0  0  0  0
 42 44  1  0  0  0  0
 43 46  1  0  0  0  0
 44 55  1  0  0  0  0
 45 47  1  0  0  0  0
 45 49  1  0  0  0  0
 46 51  1  0  0  0  0
 47 54  1  0  0  0  0
 48 52  1  0  0  0  0
 48 55  1  0  0  0  0
 49 73  1  0  0  0  0
 50 54  1  0  0  0  0
 50 73  1  0  0  0  0
 51 76  1  0  0  0  0
 52 78  1  0  0  0  0
 53 72  1  0  0  0  0
 54 71  1  0  0  0  0
 55 56  1  0  0  0  0
 55 57  1  0  0  0  0
 58 64  1  0  0  0  0
 59 66  1  0  0  0  0
 60 67  1  0  0  0  0
 61 67  1  0  0  0  0
 62 67  1  0  0  0  0
 63 79  1  0  0  0  0
 65 67  1  0  0  0  0
 65 77  1  0  0  0  0
 66 79  1  0  0  0  0
 69 71  1  0  0  0  0
M  CHG  1  79   1
M  ISO  4  30 101  38 100  78 100  86 101
M  END
> <Batch ID>
0183

> <Smiles>
CCc1n[101c:1]([101O:1]c2ccc3c(c2)CN(C(=O)C(NC(=O)C(C)NC)C(C)(C)C)C(C(=O)NC2CCCc4ccccc42)C3)cnc1C=C1CCC(C)(C)CC1[100NH:0][100C:0](=O)N1CCCC(n2nc(-c3ccc(Oc4ccc(F)cc4F)cc3)c(C(N)=O)c2N)C1

> <Shape>
0.231

> <Color>
0.087

> <Negative vol penalty>
0.000

$$$$

  -OEChem-04052323073D

 86 95  0     1  0  0  0  0  0999 V2000
  -35.8484  -33.8538   18.1200 C   0  0  0  0  0  0  0  0  0  0  0  0
  -35.1317  -32.7491   18.5688 C   0  0  0  0  0  0  0  0  0  0  0  0
  -23.5867   -9.5507   20.0416 C   0  0  0  0  0  0  0  0  0  0  0  0
  -23.9650   -9.9533   22.3936 C   0  0  0  0  0  0  0  0  0  0  0  0
  -35.7589  -35.0658   18.8032 C   0  0  0  0  0  0  0  0  0  0  0  0
  -34.3259  -32.8555   19.7018 C   0  0  0  0  0  0  0  0  0  0  0  0
  -29.7903  -30.6935   19.0703 C   0  0  0  0  0  0  0  0  0  0  0  0
  -22.9987   -8.3231   20.3463 C   0  0  0  0  0  0  0  0  0  0  0  0
  -23.3770   -8.7257   22.6983 C   0  0  0  0  0  0  0  0  0  0  0  0
  -29.7285  -29.3039   19.1657 C   0  0  0  0  0  0  0  0  0  0  0  0
  -20.2555   -7.4575   22.9597 C   0  0  0  0  0  0  0  0  0  0  0  0
  -19.3385   -7.4228   24.0102 C   0  0  0  0  0  0  0  0  0  0  0  0
  -28.9082  -29.5017   21.4256 C   0  0  0  0  0  0  0  0  0  0  0  0
  -20.7308   -5.8269   25.1729 C   0  0  0  0  0  0  0  0  0  0  0  0
  -28.4204  -24.4157   19.0474 C   0  0  0  0  0  0  0  0  0  0  0  0
  -24.0699  -10.3658   21.0652 C   0  0  0  0  0  0  0  0  0  0  0  0
  -24.0345  -12.8811   20.6412 C   0  0  0  0  0  0  0  0  0  0  0  0
  -34.9441  -35.1898   19.9396 C   0  0  0  0  0  0  0  0  0  0  0  0
  -29.4213  -31.4987   20.1574 C   0  0  0  0  0  0  0  0  0  0  0  0
  -34.2265  -34.0700   20.4017 C   0  0  0  0  0  0  0  0  0  0  0  0
  -28.9638  -30.9012   21.3405 C   0  0  0  0  0  0  0  0  0  0  0  0
  -29.4653  -25.1382   19.5864 C   0  0  0  0  0  0  0  0  0  0  0  0
  -22.8938   -7.9106   21.6747 C   0  0  0  0  0  0  0  0  0  0  0  0
  -29.2901  -28.7078   20.3445 C   0  0  0  0  0  0  0  0  0  0  0  0
  -21.4101   -6.6768   23.0158 C   0  0  0  0  0  0  0  0  0  0  0  0
  -19.5761   -6.6076   25.1168 C   0  0  0  0  0  0  0  0  0  0  0  0
  -21.6478   -5.8616   24.1224 C   0  0  0  0  0  0  0  0  0  0  0  0
  -24.6779  -11.6338   20.7510 C   0  0  0  0  0  0  0  0  0  0  0  0
  -30.3280  -24.4273   20.3954 C   0  0  0  0  0  0  0  0  0  0  0  0
  -25.0421  -13.7609   20.3293 C   0  0  0  0  0  0  0  0  0  0  0  0
  -29.1328  -22.5197   20.0793 C   0  0  0  0  0  0  0  0  0  0  0  0
  -22.6499  -13.2146   20.8063 C   0  0  0  0  0  0  0  0  0  0  0  0
  -30.9230  -33.6148   21.9932 C   0  0  0  0  0  0  0  0  0  0  0  0
  -27.9542  -34.0785   23.2152 C   0  0  0  0  0  0  0  0  0  0  0  0
  -24.8226  -32.8396   23.7678 C   0  0  0  0  0  0  0  0  0  0  0  0
  -30.2050  -15.7263   21.1208 C   0  0  0  0  0  0  0  0  0  0  0  0
  -34.9162  -36.5076   20.6726 C   0  0  0  0  0  0  0  0  0  0  0  0
  -29.4683  -32.9966   20.0292 C   0  0  0  0  0  0  0  0  0  0  0  0
  -28.5368  -31.7214   22.5294 C   0  0  0  0  0  0  0  0  0  0  0  0
  -33.7477  -36.6385   21.6462 C   0  0  0  0  0  0  0  0  0  0  0  0
  -29.8381  -12.9219   18.9580 C   0  0  0  0  0  0  0  0  0  0  0  0
  -33.6127  -35.3755   22.4909 C   0  0  0  0  0  0  0  0  0  0  0  0
  -28.4127  -12.4363   19.2273 C   0  0  0  0  0  0  0  0  0  0  0  0
  -30.5094  -13.4348   20.2302 C   0  0  0  0  0  0  0  0  0  0  0  0
  -29.8515  -20.3809   21.1822 C   0  0  0  0  0  0  0  0  0  0  0  0
  -28.3232  -13.9816   21.2280 C   0  0  0  0  0  0  0  0  0  0  0  0
  -27.8783  -20.3658   19.7738 C   0  0  0  0  0  0  0  0  0  0  0  0
  -33.3223  -34.1526   21.6124 C   0  0  1  0  0  0  0  0  0  0  0  0
  -29.5567  -33.7090   21.3753 C   0  0  1  0  0  0  0  0  0  0  0  0
  -29.4364  -18.9301   20.8931 C   0  0  2  0  0  0  0  0  0  0  0  0
  -27.5856  -13.5067   19.9644 C   0  0  2  0  0  0  0  0  0  0  0  0
  -27.9480  -19.0833   20.5976 C   0  0  2  0  0  0  0  0  0  0  0  0
  -31.4972  -25.1046   21.0308 C   0  0  0  0  0  0  0  0  0  0  0  0
  -22.6263  -33.4364   24.8248 C   0  0  0  0  0  0  0  0  0  0  0  0
  -29.1475  -33.5689   25.9768 C   0  0  0  0  0  0  0  0  0  0  0  0
  -26.8223  -33.2353   26.8432 C   0  0  0  0  0  0  0  0  0  0  0  0
  -27.4902  -35.4397   25.8854 C   0  0  0  0  0  0  0  0  0  0  0  0
  -23.3881  -32.6133   21.1891 C   0  0  0  0  0  0  0  0  0  0  0  0
  -29.6300  -26.6008   19.2951 C   0  0  0  0  0  0  0  0  0  1  0  0
  -29.7438  -17.9840   22.0422 C   0  0  0  0  0  0  0  0  0  0  0  0
  -27.1535  -33.4675   24.3397 C   0  0  1  0  0  0  0  0  0  0  0  0
  -23.4472  -33.4419   23.5446 C   0  0  2  0  0  0  0  0  0  0  0  0
  -27.6632  -33.9121   25.7397 C   0  0  0  0  0  0  0  0  0  0  0  0
  -28.2233  -23.1003   19.2736 N   0  0  0  0  0  0  0  0  0  0  0  0
  -25.9924  -11.7101   20.5270 N   0  0  0  0  0  0  0  0  0  0  0  0
  -30.1912  -23.1123   20.6645 N   0  0  0  0  0  0  0  0  0  0  0  0
  -26.1832  -13.0160   20.2732 N   0  0  0  0  0  0  0  0  0  0  0  0
  -28.9624  -21.1753   20.3316 N   0  0  3  0  0  0  0  0  0  0  0  0
  -28.6068  -33.1819   22.3572 N   0  0  0  0  0  0  0  0  0  0  0  0
  -29.6746  -14.4481   20.8801 N   0  0  0  0  0  0  0  0  0  0  0  0
  -25.0544  -15.0912   20.1003 N   0  0  0  0  0  0  0  0  0  0  0  0
  -21.7492  -12.1895   21.1259 N   0  0  0  0  0  0  0  0  0  0  0  0
  -31.9326  -34.1389   21.2087 N   0  0  0  0  0  0  0  0  0  0  0  0
  -25.7584  -33.8038   24.0772 N   0  0  0  0  0  0  0  0  0  0  0  0
  -29.3451  -16.6286   21.7349 N   0  0  0  0  0  0  0  0  0  0  0  0
  -27.4202  -17.9342   19.8394 N   0  3  0  0  0  0  0  0  0  0  0  0
  -22.7058  -32.6702   22.5075 N   0  3  0  0  0  0  0  0  0  0  0  0
  -22.2214  -14.3842   20.6582 O   0  0  0  0  0  0  0  0  0  0  0  0
  -31.0516  -33.1057   23.1005 O   0  0  0  0  0  0  0  0  0  0  0  0
  -27.9931  -35.3058   23.0979 O   0  0  0  0  0  0  0  0  0  0  0  0
  -25.0439  -31.6338   23.6803 O   0  0  0  0  0  0  0  0  0  0  0  0
  -31.3577  -16.0417   20.8066 O   0  0  0  0  0  0  0  0  0  0  0  0
  -22.3199   -6.7129   21.9724 O   0  0  0  0  0  0  0  0  0  0  0  0
  -29.2294  -27.3517   20.4405 O   0  0  0  0  0  0  0  0  0  1  0  0
  -18.6962   -6.5756   26.1262 F   0  0  0  0  0  0  0  0  0  0  0  0
  -22.7558   -5.1102   24.1824 F   0  0  0  0  0  0  0  0  0  0  0  0
  1  2  1  0  0  0  0
  1  5  2  0  0  0  0
  2  6  2  0  0  0  0
  3  8  2  0  0  0  0
  3 16  1  0  0  0  0
  4  9  1  0  0  0  0
  4 16  2  0  0  0  0
  5 18  1  0  0  0  0
  6 20  1  0  0  0  0
  7 10  2  0  0  0  0
  7 19  1  0  0  0  0
  8 23  1  0  0  0  0
  9 23  2  0  0  0  0
 10 24  1  0  0  0  0
 11 12  2  0  0  0  0
 11 25  1  0  0  0  0
 12 26  1  0  0  0  0
 13 21  1  0  0  0  0
 13 24  2  0  0  0  0
 14 26  2  0  0  0  0
 14 27  1  0  0  0  0
 15 22  1  0  0  0  0
 15 64  2  0  0  0  0
 16 28  1  0  0  0  0
 17 28  1  0  0  0  0
 17 30  2  0  0  0  0
 17 32  1  0  0  0  0
 18 20  2  0  0  0  0
 18 37  1  0  0  0  0
 19 21  2  0  0  0  0
 19 38  1  0  0  0  0
 20 48  1  0  0  0  0
 21 39  1  0  0  0  0
 22 29  2  0  0  0  0
 22 59  1  0  0  0  0
 23 83  1  0  0  0  0
 24 84  1  0  0  0  0
 25 27  2  0  0  0  0
 25 83  1  0  0  0  0
 26 85  1  0  0  0  0
 27 86  1  0  0  0  0
 28 65  2  0  0  0  0
 29 53  1  0  0  0  0
 29 66  1  0  0  0  0
 30 67  1  0  0  0  0
 30 71  1  0  0  0  0
 31 64  1  0  0  0  0
 31 66  2  0  0  0  0
 31 68  1  0  0  0  0
 32 72  1  0  0  0  0
 32 78  2  0  0  0  0
 33 49  1  0  0  0  0
 33 73  1  0  0  0  0
 33 79  2  0  0  0  0
 34 61  1  0  0  0  0
 34 69  1  0  0  0  0
 34 80  2  0  0  0  0
 35 62  1  0  0  0  0
 35 74  1  0  0  0  0
 35 81  2  0  0  0  0
 36 70  1  0  0  0  0
 36 75  1  0  0  0  0
 36 82  2  0  0  0  0
 37 40  1  0  0  0  0
 38 49  1  0  0  0  0
 39 69  1  0  0  0  0
 40 42  1  0  0  0  0
 41 43  1  0  0  0  0
 41 44  1  0  0  0  0
 42 48  1  0  0  0  0
 43 51  1  0  0  0  0
 44 70  1  0  0  0  0
 45 50  1  0  0  0  0
 45 68  1  0  0  0  0
 46 51  1  0  0  0  0
 46 70  1  0  0  0  0
 47 52  1  0  0  0  0
 47 68  1  0  0  0  0
 48 73  1  0  0  0  0
 49 69  1  0  0  0  0
 50 52  1  0  0  0  0
 50 60  1  0  0  0  0
 51 67  1  0  0  0  0
 52 76  1  0  0  0  0
 54 62  1  0  0  0  0
 55 63  1  0  0  0  0
 56 63  1  0  0  0  0
 57 63  1  0  0  0  0
 58 77  1  0  0  0  0
 59 84  1  0  0  0  0
 60 75  1  0  0  0  0
 61 63  1  0  0  0  0
 61 74  1  0  0  0  0
 62 77  1  0  0  0  0
 65 67  1  0  0  0  0
M  CHG  2  76   1  77   1
M  ISO  4  36 100  59 101  75 100  84 101
M  END
> <Batch ID>
0183

> <Smiles>
CNC(C)C(=O)NC(C(=O)N1Cc2cc([101O:1][101CH2:1]c3cnc(N4CC(N)C(C[100NH:0][100C:0](=O)N5CCCC(n6nc(-c7ccc(Oc8ccc(F)cc8F)cc7)c(C(N)=O)c6N)C5)C4)nc3C)ccc2CC1C(=O)NC1CCCc2ccccc21)C(C)(C)C

> <Shape>
0.302

> <Color>
0.170

> <Negative vol penalty>
0.000

$$$$

  -OEChem-04052323073D

 84 93  0     1  0  0  0  0  0999 V2000
  -18.4608  -27.0975   23.1142 C   0  0  0  0  0  0  0  0  0  0  0  0
  -19.5933  -26.3075   23.2834 C   0  0  0  0  0  0  0  0  0  0  0  0
  -24.0578   -9.5229   19.8421 C   0  0  0  0  0  0  0  0  0  0  0  0
  -24.5216   -9.7535   22.2019 C   0  0  0  0  0  0  0  0  0  0  0  0
  -18.5369  -28.2719   22.3667 C   0  0  0  0  0  0  0  0  0  0  0  0
  -20.8024  -26.6909   22.7042 C   0  0  0  0  0  0  0  0  0  0  0  0
  -24.7179  -26.2047   25.8787 C   0  0  0  0  0  0  0  0  0  0  0  0
  -23.6703   -8.1989   20.0476 C   0  0  0  0  0  0  0  0  0  0  0  0
  -24.1341   -8.4293   22.4074 C   0  0  0  0  0  0  0  0  0  0  0  0
  -25.2257  -24.9207   26.0714 C   0  0  0  0  0  0  0  0  0  0  0  0
  -21.2469   -6.6956   22.6880 C   0  0  0  0  0  0  0  0  0  0  0  0
  -20.4117   -6.4272   23.7724 C   0  0  0  0  0  0  0  0  0  0  0  0
  -27.0146  -25.4028   24.5265 C   0  0  0  0  0  0  0  0  0  0  0  0
  -22.0865   -4.9517   24.6971 C   0  0  0  0  0  0  0  0  0  0  0  0
  -24.4835  -10.3003   20.9193 C   0  0  0  0  0  0  0  0  0  0  0  0
  -24.0648  -12.8115   20.7572 C   0  0  0  0  0  0  0  0  0  0  0  0
  -19.7498  -28.6750   21.7861 C   0  0  0  0  0  0  0  0  0  0  0  0
  -25.3495  -27.0952   24.9987 C   0  0  0  0  0  0  0  0  0  0  0  0
  -20.8945  -27.8711   21.9471 C   0  0  0  0  0  0  0  0  0  0  0  0
  -26.5143  -26.6985   24.3264 C   0  0  0  0  0  0  0  0  0  0  0  0
  -23.7084   -7.6521   21.3302 C   0  0  0  0  0  0  0  0  0  0  0  0
  -26.3726  -24.5186   25.3931 C   0  0  0  0  0  0  0  0  0  0  0  0
  -22.5019   -6.0920   22.6080 C   0  0  0  0  0  0  0  0  0  0  0  0
  -20.8315   -5.5553   24.7770 C   0  0  0  0  0  0  0  0  0  0  0  0
  -22.9217   -5.2201   23.6126 C   0  0  0  0  0  0  0  0  0  0  0  0
  -24.8844  -11.6679   20.7076 C   0  0  0  0  0  0  0  0  0  0  0  0
  -24.9157  -13.8557   20.4888 C   0  0  0  0  0  0  0  0  0  0  0  0
  -22.6600  -12.9201   21.0222 C   0  0  0  0  0  0  0  0  0  0  0  0
  -24.5008  -28.5836   22.3213 C   0  0  0  0  0  0  0  0  0  0  0  0
  -27.3754  -30.0426   22.6820 C   0  0  0  0  0  0  0  0  0  0  0  0
  -30.5263  -29.9525   23.9899 C   0  0  0  0  0  0  0  0  0  0  0  0
  -29.7867  -16.4776   21.2271 C   0  0  0  0  0  0  0  0  0  0  0  0
  -19.7720  -29.9281   20.9471 C   0  0  0  0  0  0  0  0  0  0  0  0
  -24.8044  -28.4860   24.8222 C   0  0  0  0  0  0  0  0  0  0  0  0
  -27.2414  -27.6236   23.3861 C   0  0  0  0  0  0  0  0  0  0  0  0
  -21.1786  -30.4573   20.6798 C   0  0  0  0  0  0  0  0  0  0  0  0
  -29.6869  -13.8663   18.8089 C   0  0  0  0  0  0  0  0  0  0  0  0
  -22.1033  -29.3225   20.2505 C   0  0  0  0  0  0  0  0  0  0  0  0
  -28.3646  -13.1526   19.0955 C   0  0  0  0  0  0  0  0  0  0  0  0
  -29.0944  -22.4225   20.3660 C   0  0  0  0  0  0  0  0  0  0  0  0
  -28.4893  -23.2630   21.4546 C   0  0  0  0  0  0  0  0  0  0  0  0
  -30.3569  -14.3504   20.0930 C   0  0  0  0  0  0  0  0  0  0  0  0
  -28.1821  -14.4722   21.2459 C   0  0  0  0  0  0  0  0  0  0  0  0
  -28.5456  -19.5542   21.3865 C   0  0  0  0  0  0  0  0  0  0  0  0
  -22.2300  -28.2663   21.3551 C   0  0  1  0  0  0  0  0  0  0  0  0
  -25.2355  -29.1347   23.5104 C   0  0  1  0  0  0  0  0  0  0  0  0
  -28.3225  -18.9150   23.6767 C   0  0  2  0  0  0  0  0  0  0  0  0
  -27.4417  -14.0150   19.9774 C   0  0  2  0  0  0  0  0  0  0  0  0
  -29.0682  -18.5456   22.3960 C   0  0  1  0  0  0  0  0  0  0  0  0
  -29.1659  -21.9660   21.7952 C   0  0  0  0  0  0  0  0  0  0  0  0
  -28.4429  -20.4428   23.6777 C   0  0  2  0  0  0  0  0  0  0  0  0
  -28.8279  -16.7796   24.8737 C   0  0  0  0  0  0  0  0  0  0  0  0
  -32.6592  -31.2714   24.0825 C   0  0  0  0  0  0  0  0  0  0  0  0
  -25.9759  -20.7940   23.9762 C   0  0  0  0  0  0  0  0  0  0  0  0
  -28.0326  -29.1754   19.8314 C   0  0  0  0  0  0  0  0  0  0  0  0
  -30.4407  -29.6626   20.3126 C   0  0  0  0  0  0  0  0  0  0  0  0
  -28.7553  -31.4992   20.4077 C   0  0  0  0  0  0  0  0  0  0  0  0
  -30.3741  -30.2119   26.9341 C   0  0  0  0  0  0  0  0  0  0  0  0
  -28.9111  -18.2716   24.9249 C   0  0  0  0  0  0  0  0  0  0  0  0
  -27.5640  -22.6730   24.4818 C   0  0  0  0  0  0  0  0  0  1  0  0
  -28.7867  -29.7500   22.2329 C   0  0  1  0  0  0  0  0  0  0  0  0
  -31.3274  -30.9870   24.7595 C   0  0  2  0  0  0  0  0  0  0  0  0
  -27.3650  -21.1550   24.4978 C   0  0  2  0  0  0  0  0  0  0  0  0
  -28.9892  -30.0035   20.7123 C   0  0  0  0  0  0  0  0  0  0  0  0
  -26.1581  -11.9581   20.4294 N   0  0  0  0  0  0  0  0  0  0  0  0
  -26.1453  -13.2959   20.3017 N   0  0  0  0  0  0  0  0  0  0  0  0
  -26.6657  -28.9709   23.2421 N   0  0  0  0  0  0  0  0  0  0  0  0
  -29.4290  -15.1636   20.8827 N   0  0  0  0  0  0  0  0  0  0  0  0
  -24.7247  -15.1889   20.3968 N   0  0  0  0  0  0  0  0  0  0  0  0
  -21.9358  -11.7478   21.2783 N   0  0  0  0  0  0  0  0  0  0  0  0
  -23.1281  -28.7256   22.3928 N   0  0  0  0  0  0  0  0  0  0  0  0
  -29.6608  -30.5410   23.0922 N   0  0  0  0  0  0  0  0  0  0  0  0
  -28.8475  -17.1812   21.9712 N   0  0  0  0  0  0  0  0  0  0  0  0
  -28.2951  -20.8091   22.2045 N   0  3  2  0  0  0  0  0  0  0  0  0
  -31.5972  -30.5078   26.1446 N   0  3  0  0  0  0  0  0  0  0  0  0
  -22.0613  -14.0224   21.0155 O   0  0  0  0  0  0  0  0  0  0  0  0
  -25.1325  -28.0691   21.4060 O   0  0  0  0  0  0  0  0  0  0  0  0
  -26.9220  -31.1819   22.5476 O   0  0  0  0  0  0  0  0  0  0  0  0
  -30.6580  -28.7431   24.1647 O   0  0  0  0  0  0  0  0  0  0  0  0
  -30.8609  -16.9877   20.8916 O   0  0  0  0  0  0  0  0  0  0  0  0
  -23.3302   -6.3601   21.5311 O   0  0  0  0  0  0  0  0  0  0  0  0
  -26.8700  -23.2656   25.5788 O   0  0  0  0  0  0  0  0  0  1  0  0
  -20.0300   -5.2989   25.8191 F   0  0  0  0  0  0  0  0  0  0  0  0
  -24.1267   -4.6381   23.5418 F   0  0  0  0  0  0  0  0  0  0  0  0
  1  2  1  0  0  0  0
  1  5  2  0  0  0  0
  2  6  2  0  0  0  0
  3  8  2  0  0  0  0
  3 15  1  0  0  0  0
  4  9  1  0  0  0  0
  4 15  2  0  0  0  0
  5 17  1  0  0  0  0
  6 19  1  0  0  0  0
  7 10  2  0  0  0  0
  7 18  1  0  0  0  0
  8 21  1  0  0  0  0
  9 21  2  0  0  0  0
 10 22  1  0  0  0  0
 11 12  2  0  0  0  0
 11 23  1  0  0  0  0
 12 24  1  0  0  0  0
 13 20  1  0  0  0  0
 13 22  2  0  0  0  0
 14 24  2  0  0  0  0
 14 25  1  0  0  0  0
 15 26  1  0  0  0  0
 16 26  1  0  0  0  0
 16 27  2  0  0  0  0
 16 28  1  0  0  0  0
 17 19  2  0  0  0  0
 17 33  1  0  0  0  0
 18 20  2  0  0  0  0
 18 34  1  0  0  0  0
 19 45  1  0  0  0  0
 20 35  1  0  0  0  0
 21 81  1  0  0  0  0
 22 82  1  0  0  0  0
 23 25  2  0  0  0  0
 23 81  1  0  0  0  0
 24 83  1  0  0  0  0
 25 84  1  0  0  0  0
 26 65  2  0  0  0  0
 27 66  1  0  0  0  0
 27 69  1  0  0  0  0
 28 70  1  0  0  0  0
 28 76  2  0  0  0  0
 29 46  1  0  0  0  0
 29 71  1  0  0  0  0
 29 77  2  0  0  0  0
 30 61  1  0  0  0  0
 30 67  1  0  0  0  0
 30 78  2  0  0  0  0
 31 62  1  0  0  0  0
 31 72  1  0  0  0  0
 31 79  2  0  0  0  0
 32 68  1  0  0  0  0
 32 73  1  0  0  0  0
 32 80  2  0  0  0  0
 33 36  1  0  0  0  0
 34 46  1  0  0  0  0
 35 67  1  0  0  0  0
 36 38  1  0  0  0  0
 37 39  1  0  0  0  0
 37 42  1  0  0  0  0
 38 45  1  0  0  0  0
 39 48  1  0  0  0  0
 40 41  1  0  0  0  0
 40 50  1  0  0  0  0
 41 50  1  0  0  0  0
 42 68  1  0  0  0  0
 43 48  1  0  0  0  0
 43 68  1  0  0  0  0
 44 49  1  0  0  0  0
 44 74  1  0  0  0  0
 45 71  1  0  0  0  0
 46 67  1  0  0  0  0
 47 49  1  0  0  0  0
 47 51  1  0  0  0  0
 47 59  1  0  0  0  0
 48 66  1  0  0  0  0
 49 73  1  0  0  0  0
 50 74  1  0  0  0  0
 51 63  1  0  0  0  0
 51 74  1  0  0  0  0
 52 59  1  0  0  0  0
 53 62  1  0  0  0  0
 54 63  1  0  0  0  0
 55 64  1  0  0  0  0
 56 64  1  0  0  0  0
 57 64  1  0  0  0  0
 58 75  1  0  0  0  0
 60 63  1  0  0  0  0
 60 82  1  0  0  0  0
 61 64  1  0  0  0  0
 61 72  1  0  0  0  0
 62 75  1  0  0  0  0
 65 66  1  0  0  0  0
M  CHG  2  74   1  75   1
M  ISO  4  32 100  60 101  73 100  82 101
M  END
> <Batch ID>
0183

> <Smiles>
CCC1C([100NH:0][100C:0](=O)N2CCCC(n3nc(-c4ccc(Oc5ccc(F)cc5F)cc4)c(C(N)=O)c3N)C2)CN(C2CC2)C1C(C)[101CH2:1][101O:1]c1ccc2c(c1)CN(C(=O)C(NC(=O)C(C)NC)C(C)(C)C)C(C(=O)NC1CCCc3ccccc31)C2

> <Shape>
0.263

> <Color>
0.120

> <Negative vol penalty>
0.000

$$$$

  -OEChem-04052323073D

 84 93  0     1  0  0  0  0  0999 V2000
  -33.4286  -30.9736   15.5636 C   0  0  0  0  0  0  0  0  0  0  0  0
  -32.6723  -29.8373   15.8322 C   0  0  0  0  0  0  0  0  0  0  0  0
  -23.1525   -9.9668   19.8820 C   0  0  0  0  0  0  0  0  0  0  0  0
  -23.8522   -9.7842   22.1872 C   0  0  0  0  0  0  0  0  0  0  0  0
  -33.6366  -31.9233   16.5630 C   0  0  0  0  0  0  0  0  0  0  0  0
  -32.1245  -29.6494   17.1007 C   0  0  0  0  0  0  0  0  0  0  0  0
  -27.3057  -28.1024   16.9261 C   0  0  0  0  0  0  0  0  0  0  0  0
  -22.4256   -8.7831   20.0088 C   0  0  0  0  0  0  0  0  0  0  0  0
  -23.1253   -8.6005   22.3141 C   0  0  0  0  0  0  0  0  0  0  0  0
  -27.0788  -26.7575   16.6369 C   0  0  0  0  0  0  0  0  0  0  0  0
  -23.4970   -5.3465   21.4748 C   0  0  0  0  0  0  0  0  0  0  0  0
  -24.1140   -4.2727   22.1165 C   0  0  0  0  0  0  0  0  0  0  0  0
  -26.7488  -26.3144   18.9851 C   0  0  0  0  0  0  0  0  0  0  0  0
  -22.3657   -4.2646   23.7840 C   0  0  0  0  0  0  0  0  0  0  0  0
  -27.2907  -21.7727   16.2719 C   0  0  0  0  0  0  0  0  0  0  0  0
  -23.8659  -10.4673   20.9712 C   0  0  0  0  0  0  0  0  0  0  0  0
  -24.1601  -12.9988   21.0833 C   0  0  0  0  0  0  0  0  0  0  0  0
  -33.0830  -31.7518   17.8415 C   0  0  0  0  0  0  0  0  0  0  0  0
  -27.2665  -28.5621   18.2503 C   0  0  0  0  0  0  0  0  0  0  0  0
  -32.3265  -30.5971   18.1184 C   0  0  0  0  0  0  0  0  0  0  0  0
  -26.9730  -27.6661   19.2882 C   0  0  0  0  0  0  0  0  0  0  0  0
  -22.4120   -8.1000   21.2248 C   0  0  0  0  0  0  0  0  0  0  0  0
  -26.8032  -25.8628   17.6667 C   0  0  0  0  0  0  0  0  0  0  0  0
  -22.3144   -5.8794   21.9877 C   0  0  0  0  0  0  0  0  0  0  0  0
  -23.5484   -3.7317   23.2711 C   0  0  0  0  0  0  0  0  0  0  0  0
  -21.7487   -5.3384   23.1423 C   0  0  0  0  0  0  0  0  0  0  0  0
  -24.6174  -11.6897   20.8406 C   0  0  0  0  0  0  0  0  0  0  0  0
  -26.3411  -22.7011   15.8969 C   0  0  0  0  0  0  0  0  0  0  0  0
  -26.9229  -20.4506   16.1271 C   0  0  0  0  0  0  0  0  0  0  0  0
  -25.2461  -13.7967   20.8178 C   0  0  0  0  0  0  0  0  0  0  0  0
  -24.8844  -21.0535   15.3221 C   0  0  0  0  0  0  0  0  0  0  0  0
  -22.8691  -13.4530   21.5107 C   0  0  0  0  0  0  0  0  0  0  0  0
  -29.3662  -29.9094   20.2200 C   0  0  0  0  0  0  0  0  0  0  0  0
  -26.7815  -30.1839   22.1608 C   0  0  0  0  0  0  0  0  0  0  0  0
  -23.6811  -29.0560   23.0338 C   0  0  0  0  0  0  0  0  0  0  0  0
  -29.4789  -15.0021   17.2812 C   0  0  0  0  0  0  0  0  0  0  0  0
  -33.3748  -32.7825   18.9032 C   0  0  0  0  0  0  0  0  0  0  0  0
  -27.4871  -30.0209   18.5430 C   0  0  0  0  0  0  0  0  0  0  0  0
  -26.8994  -28.1130   20.7246 C   0  0  0  0  0  0  0  0  0  0  0  0
  -32.4467  -32.6916   20.1118 C   0  0  0  0  0  0  0  0  0  0  0  0
  -30.0952  -12.6180   20.0031 C   0  0  0  0  0  0  0  0  0  0  0  0
  -32.3117  -31.2440   20.5734 C   0  0  0  0  0  0  0  0  0  0  0  0
  -28.6819  -12.2385   20.4474 C   0  0  0  0  0  0  0  0  0  0  0  0
  -26.8395  -17.5408   17.6052 C   0  0  0  0  0  0  0  0  0  0  0  0
  -30.1512  -12.9762   18.5198 C   0  0  0  0  0  0  0  0  0  0  0  0
  -27.1564  -16.0496   17.5633 C   0  0  0  0  0  0  0  0  0  0  0  0
  -27.7734  -13.6232   18.5457 C   0  0  0  0  0  0  0  0  0  0  0  0
  -28.9064  -17.2696   16.4614 C   0  0  0  0  0  0  0  0  0  0  0  0
  -31.6950  -30.3698   19.4748 C   0  0  1  0  0  0  0  0  0  0  0  0
  -27.9306  -30.2818   19.9792 C   0  0  1  0  0  0  0  0  0  0  0  0
  -27.6640  -13.3227   20.0470 C   0  0  1  0  0  0  0  0  0  0  0  0
  -27.6133  -18.0688   16.4021 C   0  0  2  0  0  0  0  0  0  0  0  0
  -23.5482  -20.6542   14.7944 C   0  0  0  0  0  0  0  0  0  0  0  0
  -21.8327  -29.4537   24.6838 C   0  0  0  0  0  0  0  0  0  0  0  0
  -28.4116  -28.7765   24.3223 C   0  0  0  0  0  0  0  0  0  0  0  0
  -26.2767  -28.3571   25.5612 C   0  0  0  0  0  0  0  0  0  0  0  0
  -27.0331  -30.6965   25.1395 C   0  0  0  0  0  0  0  0  0  0  0  0
  -21.7541  -29.7255   20.8896 C   0  0  0  0  0  0  0  0  0  0  0  0
  -26.6474  -24.1562   16.0176 C   0  0  0  0  0  0  0  0  0  1  0  0
  -26.1413  -29.3167   23.2177 C   0  0  1  0  0  0  0  0  0  0  0  0
  -22.3815  -29.7917   23.3064 C   0  0  2  0  0  0  0  0  0  0  0  0
  -26.9689  -29.2776   24.5334 C   0  0  0  0  0  0  0  0  0  0  0  0
  -25.8944  -11.6536   20.4507 N   0  0  0  0  0  0  0  0  0  0  0  0
  -25.1233  -22.3755   15.4161 N   0  0  0  0  0  0  0  0  0  0  0  0
  -25.7234  -20.0537   15.6539 N   0  0  0  0  0  0  0  0  0  0  0  0
  -26.2488  -12.9499   20.4463 N   0  0  0  0  0  0  0  0  0  0  0  0
  -27.1287  -29.5480   20.9604 N   0  0  0  0  0  0  0  0  0  0  0  0
  -29.1480  -13.9876   18.1861 N   0  0  0  0  0  0  0  0  0  0  0  0
  -28.5178  -15.9794   17.0260 N   0  0  0  0  0  0  0  0  0  0  0  0
  -25.4317  -15.1329   20.8680 N   0  0  0  0  0  0  0  0  0  0  0  0
  -21.8672  -12.4999   21.7385 N   0  0  0  0  0  0  0  0  0  0  0  0
  -27.8508  -19.4852   16.4936 N   0  0  0  0  0  0  0  0  0  0  0  0
  -30.2641  -30.5761   19.4084 N   0  0  0  0  0  0  0  0  0  0  0  0
  -24.7794  -29.8130   23.3830 N   0  0  0  0  0  0  0  0  0  0  0  0
  -21.3559  -29.4256   22.2890 N   0  3  0  0  0  0  0  0  0  0  0  0
  -22.6069  -14.6694   21.6695 O   0  0  0  0  0  0  0  0  0  0  0  0
  -29.6391  -29.0798   21.0797 O   0  0  0  0  0  0  0  0  0  0  0  0
  -26.9603  -31.3829   22.3891 O   0  0  0  0  0  0  0  0  0  0  0  0
  -23.7182  -27.9218   22.5619 O   0  0  0  0  0  0  0  0  0  0  0  0
  -30.6005  -15.0595   16.7597 O   0  0  0  0  0  0  0  0  0  0  0  0
  -21.7026   -6.9450   21.3491 O   0  0  0  0  0  0  0  0  0  0  0  0
  -26.5804  -24.5403   17.3853 O   0  0  0  0  0  0  0  0  0  1  0  0
  -24.1402   -2.6995   23.8863 F   0  0  0  0  0  0  0  0  0  0  0  0
  -20.6120   -5.8454   23.6391 F   0  0  0  0  0  0  0  0  0  0  0  0
  1  2  1  0  0  0  0
  1  5  2  0  0  0  0
  2  6  2  0  0  0  0
  3  8  2  0  0  0  0
  3 16  1  0  0  0  0
  4  9  1  0  0  0  0
  4 16  2  0  0  0  0
  5 18  1  0  0  0  0
  6 20  1  0  0  0  0
  7 10  2  0  0  0  0
  7 19  1  0  0  0  0
  8 22  1  0  0  0  0
  9 22  2  0  0  0  0
 10 23  1  0  0  0  0
 11 12  2  0  0  0  0
 11 24  1  0  0  0  0
 12 25  1  0  0  0  0
 13 21  1  0  0  0  0
 13 23  2  0  0  0  0
 14 25  2  0  0  0  0
 14 26  1  0  0  0  0
 15 28  1  0  0  0  0
 15 29  2  0  0  0  0
 16 27  1  0  0  0  0
 17 27  1  0  0  0  0
 17 30  2  0  0  0  0
 17 32  1  0  0  0  0
 18 20  2  0  0  0  0
 18 37  1  0  0  0  0
 19 21  2  0  0  0  0
 19 38  1  0  0  0  0
 20 49  1  0  0  0  0
 21 39  1  0  0  0  0
 22 81  1  0  0  0  0
 23 82  1  0  0  0  0
 24 26  2  0  0  0  0
 24 81  1  0  0  0  0
 25 83  1  0  0  0  0
 26 84  1  0  0  0  0
 27 63  2  0  0  0  0
 28 59  1  0  0  0  0
 28 64  2  0  0  0  0
 29 65  1  0  0  0  0
 29 72  1  0  0  0  0
 30 66  1  0  0  0  0
 30 70  1  0  0  0  0
 31 53  1  0  0  0  0
 31 64  1  0  0  0  0
 31 65  2  0  0  0  0
 32 71  1  0  0  0  0
 32 76  2  0  0  0  0
 33 50  1  0  0  0  0
 33 73  1  0  0  0  0
 33 77  2  0  0  0  0
 34 60  1  0  0  0  0
 34 67  1  0  0  0  0
 34 78  2  0  0  0  0
 35 61  1  0  0  0  0
 35 74  1  0  0  0  0
 35 79  2  0  0  0  0
 36 68  1  0  0  0  0
 36 69  1  0  0  0  0
 36 80  2  0  0  0  0
 37 40  1  0  0  0  0
 38 50  1  0  0  0  0
 39 67  1  0  0  0  0
 40 42  1  0  0  0  0
 41 43  1  0  0  0  0
 41 45  1  0  0  0  0
 42 49  1  0  0  0  0
 43 51  1  0  0  0  0
 44 46  1  0  0  0  0
 44 52  1  0  0  0  0
 45 68  1  0  0  0  0
 46 69  1  0  0  0  0
 47 51  1  0  0  0  0
 47 68  1  0  0  0  0
 48 52  1  0  0  0  0
 48 69  1  0  0  0  0
 49 73  1  0  0  0  0
 50 67  1  0  0  0  0
 51 66  1  0  0  0  0
 52 72  1  0  0  0  0
 54 61  1  0  0  0  0
 55 62  1  0  0  0  0
 56 62  1  0  0  0  0
 57 62  1  0  0  0  0
 58 75  1  0  0  0  0
 59 82  1  0  0  0  0
 60 62  1  0  0  0  0
 60 74  1  0  0  0  0
 61 75  1  0  0  0  0
 63 66  1  0  0  0  0
M  CHG  1  75   1
M  ISO  4  36 100  59 101  69 100  82 101
M  END
> <Batch ID>
0183

> <Smiles>
CNC(C)C(=O)NC(C(=O)N1Cc2cc([101O:1][101CH2:1]c3cc(NC4CC[100N:0]([100C:0](=O)N5CCCC(n6nc(-c7ccc(Oc8ccc(F)cc8F)cc7)c(C(N)=O)c6N)C5)C4)nc(C)n3)ccc2CC1C(=O)NC1CCCc2ccccc21)C(C)(C)C

> <Shape>
0.232

> <Color>
0.185

> <Negative vol penalty>
0.000

$$$$

  -OEChem-04052323073D

 84 93  0     1  0  0  0  0  0999 V2000
  -24.1469  -33.5477   14.4332 C   0  0  0  0  0  0  0  0  0  0  0  0
  -25.0734  -32.7361   15.0799 C   0  0  0  0  0  0  0  0  0  0  0  0
  -22.1177   -9.5296   20.1365 C   0  0  0  0  0  0  0  0  0  0  0  0
  -24.1108   -9.0197   21.4032 C   0  0  0  0  0  0  0  0  0  0  0  0
  -23.4578  -34.5252   15.1499 C   0  0  0  0  0  0  0  0  0  0  0  0
  -25.3122  -32.9023   16.4437 C   0  0  0  0  0  0  0  0  0  0  0  0
  -25.4947  -28.4972   18.9349 C   0  0  0  0  0  0  0  0  0  0  0  0
  -21.3587   -8.7661   21.0233 C   0  0  0  0  0  0  0  0  0  0  0  0
  -23.3517   -8.2562   22.2902 C   0  0  0  0  0  0  0  0  0  0  0  0
  -26.6688  -27.7530   18.8274 C   0  0  0  0  0  0  0  0  0  0  0  0
  -21.9697   -5.1717   22.3703 C   0  0  0  0  0  0  0  0  0  0  0  0
  -22.4701   -3.9246   22.7443 C   0  0  0  0  0  0  0  0  0  0  0  0
  -27.3807  -28.5764   20.9801 C   0  0  0  0  0  0  0  0  0  0  0  0
  -22.4969   -4.6285   25.0554 C   0  0  0  0  0  0  0  0  0  0  0  0
  -27.6528  -24.0868   21.2596 C   0  0  0  0  0  0  0  0  0  0  0  0
  -23.4938   -9.6563   20.3264 C   0  0  0  0  0  0  0  0  0  0  0  0
  -24.4272  -10.2405   18.0253 C   0  0  0  0  0  0  0  0  0  0  0  0
  -23.6812  -34.6970   16.5251 C   0  0  0  0  0  0  0  0  0  0  0  0
  -25.2594  -29.2964   20.0629 C   0  0  0  0  0  0  0  0  0  0  0  0
  -24.6264  -33.8839   17.1792 C   0  0  0  0  0  0  0  0  0  0  0  0
  -26.2017  -29.3278   21.1008 C   0  0  0  0  0  0  0  0  0  0  0  0
  -21.9757   -8.1294   22.1002 C   0  0  0  0  0  0  0  0  0  0  0  0
  -27.6133  -27.7948   19.8488 C   0  0  0  0  0  0  0  0  0  0  0  0
  -21.7329   -6.1472   23.3388 C   0  0  0  0  0  0  0  0  0  0  0  0
  -22.7337   -3.6530   24.0868 C   0  0  0  0  0  0  0  0  0  0  0  0
  -21.9965   -5.8756   24.6813 C   0  0  0  0  0  0  0  0  0  0  0  0
  -24.2785  -10.4444   19.4102 C   0  0  0  0  0  0  0  0  0  0  0  0
  -28.7882  -23.3227   21.1739 C   0  0  0  0  0  0  0  0  0  0  0  0
  -25.2656  -11.2493   17.6178 C   0  0  0  0  0  0  0  0  0  0  0  0
  -28.7529  -25.7782   20.2453 C   0  0  0  0  0  0  0  0  0  1  0  0
  -23.8583   -9.2298   17.1824 C   0  0  0  0  0  0  0  0  0  0  0  0
  -24.8429  -32.4082   20.5598 C   0  0  0  0  0  0  0  0  0  0  0  0
  -24.2162  -31.4435   23.5927 C   0  0  0  0  0  0  0  0  0  0  0  0
  -25.5774  -29.0568   25.9312 C   0  0  0  0  0  0  0  0  0  0  0  0
  -26.3751  -16.5908   20.1656 C   0  0  0  0  0  0  0  0  0  0  0  0
  -22.9470  -35.7984   17.2478 C   0  0  0  0  0  0  0  0  0  0  0  0
  -23.9758  -30.0723   20.1758 C   0  0  0  0  0  0  0  0  0  0  0  0
  -25.9875  -30.1541   22.3416 C   0  0  0  0  0  0  0  0  0  0  0  0
  -22.9844  -35.6602   18.7676 C   0  0  0  0  0  0  0  0  0  0  0  0
  -28.4940  -13.3888   20.3566 C   0  0  0  0  0  0  0  0  0  0  0  0
  -24.4007  -35.3487   19.2405 C   0  0  0  0  0  0  0  0  0  0  0  0
  -27.9320  -12.8266   19.0543 C   0  0  0  0  0  0  0  0  0  0  0  0
  -28.2338  -14.8883   20.4612 C   0  0  0  0  0  0  0  0  0  0  0  0
  -25.9115  -14.1660   19.9066 C   0  0  0  0  0  0  0  0  0  0  0  0
  -27.8741  -19.6992   21.5706 C   0  0  0  0  0  0  0  0  0  0  0  0
  -28.0765  -20.9325   19.6124 C   0  0  0  0  0  0  0  0  0  0  0  0
  -24.8950  -34.0171   18.6625 C   0  0  1  0  0  0  0  0  0  0  0  0
  -24.0740  -31.2533   21.1365 C   0  0  1  0  0  0  0  0  0  0  0  0
  -26.4475  -13.1946   18.8401 C   0  0  2  0  0  0  0  0  0  0  0  0
  -27.0204  -18.9499   20.5507 C   0  0  1  0  0  0  0  0  0  0  0  0
  -27.2092  -19.7325   19.2452 C   0  0  2  0  0  0  0  0  0  0  0  0
  -24.4915  -27.8395   27.8381 C   0  0  0  0  0  0  0  0  0  0  0  0
  -25.2760  -33.7485   25.2878 C   0  0  0  0  0  0  0  0  0  0  0  0
  -25.7798  -32.0939   27.0979 C   0  0  0  0  0  0  0  0  0  0  0  0
  -23.4265  -32.4396   26.3463 C   0  0  0  0  0  0  0  0  0  0  0  0
  -26.3898  -26.4193   24.8623 C   0  0  0  0  0  0  0  0  0  0  0  0
  -28.8212  -21.9309   21.6961 C   0  0  0  0  0  0  0  0  0  0  0  0
  -25.0434  -31.2173   24.8351 C   0  0  1  0  0  0  0  0  0  0  0  0
  -24.9324  -27.7596   26.3848 C   0  0  2  0  0  0  0  0  0  0  0  0
  -24.8925  -32.3716   25.8658 C   0  0  0  0  0  0  0  0  0  0  0  0
  -27.6080  -25.3439   20.7930 N   0  0  0  0  0  0  0  0  0  0  0  0
  -24.9673  -11.4996   19.8530 N   0  0  0  0  0  0  0  0  0  0  0  0
  -29.9085  -23.8130   20.6129 N   0  0  0  0  0  0  0  0  0  0  0  0
  -29.8966  -25.0742   20.1336 N   0  0  0  0  0  0  0  0  0  0  0  0
  -25.5570  -11.9678   18.7399 N   0  0  0  0  0  0  0  0  0  0  0  0
  -24.7197  -30.9000   22.4024 N   0  0  0  0  0  0  0  0  0  0  0  0
  -26.8471  -15.2638   20.1570 N   0  0  0  0  0  0  0  0  0  0  0  0
  -27.8384  -21.0709   21.0528 N   0  0  2  0  0  0  0  0  0  0  0  0
  -25.7746  -11.5829   16.4128 N   0  0  0  0  0  0  0  0  0  0  0  0
  -24.5672   -8.0344   17.0009 N   0  0  0  0  0  0  0  0  0  0  0  0
  -24.3133  -32.9058   19.3844 N   0  0  0  0  0  0  0  0  0  0  0  0
  -24.6613  -29.9056   25.3468 N   0  0  0  0  0  0  0  0  0  0  0  0
  -27.3310  -17.5493   20.4923 N   0  0  0  0  0  0  0  0  0  0  0  0
  -27.8673  -18.9397   18.1847 N   0  3  0  0  0  0  0  0  0  0  0  0
  -25.8920  -26.6279   26.2464 N   0  3  0  0  0  0  0  0  0  0  0  0
  -22.7618   -9.3886   16.5943 O   0  0  0  0  0  0  0  0  0  0  0  0
  -25.8417  -32.8185   21.1391 O   0  0  0  0  0  0  0  0  0  0  0  0
  -23.1586  -32.0727   23.6766 O   0  0  0  0  0  0  0  0  0  0  0  0
  -26.7735  -29.2949   26.0836 O   0  0  0  0  0  0  0  0  0  0  0  0
  -25.2060  -16.8929   19.9079 O   0  0  0  0  0  0  0  0  0  0  0  0
  -21.2353   -7.3846   22.9660 O   0  0  0  0  0  0  0  0  0  0  0  0
  -28.7605  -27.0700   19.7460 O   0  0  0  0  0  0  0  0  0  1  0  0
  -23.2129   -2.4548   24.4460 F   0  0  0  0  0  0  0  0  0  0  0  0
  -21.7699   -6.8084   25.6164 F   0  0  0  0  0  0  0  0  0  0  0  0
  1  2  1  0  0  0  0
  1  5  2  0  0  0  0
  2  6  2  0  0  0  0
  3  8  2  0  0  0  0
  3 16  1  0  0  0  0
  4  9  1  0  0  0  0
  4 16  2  0  0  0  0
  5 18  1  0  0  0  0
  6 20  1  0  0  0  0
  7 10  2  0  0  0  0
  7 19  1  0  0  0  0
  8 22  1  0  0  0  0
  9 22  2  0  0  0  0
 10 23  1  0  0  0  0
 11 12  2  0  0  0  0
 11 24  1  0  0  0  0
 12 25  1  0  0  0  0
 13 21  1  0  0  0  0
 13 23  2  0  0  0  0
 14 25  2  0  0  0  0
 14 26  1  0  0  0  0
 15 28  1  0  0  0  0
 15 61  2  0  0  0  0
 16 27  1  0  0  0  0
 17 27  1  0  0  0  0
 17 29  2  0  0  0  0
 17 31  1  0  0  0  0
 18 20  2  0  0  0  0
 18 36  1  0  0  0  0
 19 21  2  0  0  0  0
 19 37  1  0  0  0  0
 20 47  1  0  0  0  0
 21 38  1  0  0  0  0
 22 81  1  0  0  0  0
 23 82  1  0  0  0  0
 24 26  2  0  0  0  0
 24 81  1  0  0  0  0
 25 83  1  0  0  0  0
 26 84  1  0  0  0  0
 27 62  2  0  0  0  0
 28 57  1  0  0  0  0
 28 63  2  0  0  0  0
 29 65  1  0  0  0  0
 29 69  1  0  0  0  0
 30 61  1  0  0  0  0
 30 64  2  0  0  0  0
 30 82  1  0  0  0  0
 31 70  1  0  0  0  0
 31 76  2  0  0  0  0
 32 48  1  0  0  0  0
 32 71  1  0  0  0  0
 32 77  2  0  0  0  0
 33 58  1  0  0  0  0
 33 66  1  0  0  0  0
 33 78  2  0  0  0  0
 34 59  1  0  0  0  0
 34 72  1  0  0  0  0
 34 79  2  0  0  0  0
 35 67  1  0  0  0  0
 35 73  1  0  0  0  0
 35 80  2  0  0  0  0
 36 39  1  0  0  0  0
 37 48  1  0  0  0  0
 38 66  1  0  0  0  0
 39 41  1  0  0  0  0
 40 42  1  0  0  0  0
 40 43  1  0  0  0  0
 41 47  1  0  0  0  0
 42 49  1  0  0  0  0
 43 67  1  0  0  0  0
 44 49  1  0  0  0  0
 44 67  1  0  0  0  0
 45 50  1  0  0  0  0
 45 68  1  0  0  0  0
 46 51  1  0  0  0  0
 46 68  1  0  0  0  0
 47 71  1  0  0  0  0
 48 66  1  0  0  0  0
 49 65  1  0  0  0  0
 50 51  1  0  0  0  0
 50 73  1  0  0  0  0
 51 74  1  0  0  0  0
 52 59  1  0  0  0  0
 53 60  1  0  0  0  0
 54 60  1  0  0  0  0
 55 60  1  0  0  0  0
 56 75  1  0  0  0  0
 57 68  1  0  0  0  0
 58 60  1  0  0  0  0
 58 72  1  0  0  0  0
 59 75  1  0  0  0  0
 62 65  1  0  0  0  0
 63 64  1  0  0  0  0
M  CHG  2  74   1  75   1
M  ISO  4  30 101  35 100  73 100  82 101
M  END
> <Batch ID>
0183

> <Smiles>
CNC(C)C(=O)NC(C(=O)N1Cc2cc([101O:1][101c:1]3ncc(CN4CC(N)C([100NH:0][100C:0](=O)N5CCCC(n6nc(-c7ccc(Oc8ccc(F)cc8F)cc7)c(C(N)=O)c6N)C5)C4)nn3)ccc2CC1C(=O)NC1CCCc2ccccc21)C(C)(C)C

> <Shape>
0.273

> <Color>
0.095

> <Negative vol penalty>
0.000

$$$$

  -OEChem-04052323073D

 82 91  0     1  0  0  0  0  0999 V2000
  -30.7017  -35.1819   22.2523 C   0  0  0  0  0  0  0  0  0  0  0  0
  -31.0092  -34.0444   21.5129 C   0  0  0  0  0  0  0  0  0  0  0  0
  -24.6298   -8.5482   21.3869 C   0  0  0  0  0  0  0  0  0  0  0  0
  -22.8402  -10.1241   20.9985 C   0  0  0  0  0  0  0  0  0  0  0  0
  -29.7641  -35.1104   23.2817 C   0  0  0  0  0  0  0  0  0  0  0  0
  -30.3801  -32.8343   21.8032 C   0  0  0  0  0  0  0  0  0  0  0  0
  -28.0204  -26.8649   18.6228 C   0  0  0  0  0  0  0  0  0  0  0  0
  -27.6059  -19.1309   18.3881 C   0  0  0  0  0  0  0  0  0  0  0  0
  -23.8607   -7.9153   22.3633 C   0  0  0  0  0  0  0  0  0  0  0  0
  -22.0711   -9.4912   21.9750 C   0  0  0  0  0  0  0  0  0  0  0  0
  -28.1216  -25.4781   18.7246 C   0  0  0  0  0  0  0  0  0  0  0  0
  -21.2949   -5.7160   22.4752 C   0  0  0  0  0  0  0  0  0  0  0  0
  -21.2475   -4.3221   22.4605 C   0  0  0  0  0  0  0  0  0  0  0  0
  -27.6540  -20.5064   18.1701 C   0  0  0  0  0  0  0  0  0  0  0  0
  -26.4601  -25.4915   20.4735 C   0  0  0  0  0  0  0  0  0  0  0  0
  -22.1798   -4.2668   24.6887 C   0  0  0  0  0  0  0  0  0  0  0  0
  -24.1196   -9.6526   20.7045 C   0  0  0  0  0  0  0  0  0  0  0  0
  -24.9523  -10.0120   18.3201 C   0  0  0  0  0  0  0  0  0  0  0  0
  -29.1160  -33.9010   23.5785 C   0  0  0  0  0  0  0  0  0  0  0  0
  -27.1448  -27.5777   19.4545 C   0  0  0  0  0  0  0  0  0  0  0  0
  -29.4339  -32.7462   22.8384 C   0  0  0  0  0  0  0  0  0  0  0  0
  -26.3478  -26.8870   20.3785 C   0  0  0  0  0  0  0  0  0  0  0  0
  -28.2138  -18.6329   19.5262 C   0  0  0  0  0  0  0  0  0  0  0  0
  -22.5813   -8.3868   22.6574 C   0  0  0  0  0  0  0  0  0  0  0  0
  -27.3435  -24.7915   19.6521 C   0  0  0  0  0  0  0  0  0  0  0  0
  -21.7848   -6.3854   23.5967 C   0  0  0  0  0  0  0  0  0  0  0  0
  -21.6899   -3.5975   23.5672 C   0  0  0  0  0  0  0  0  0  0  0  0
  -22.2272   -5.6608   24.7034 C   0  0  0  0  0  0  0  0  0  0  0  0
  -24.9139  -10.3071   19.6960 C   0  0  0  0  0  0  0  0  0  0  0  0
  -28.8391  -19.5135   20.3984 C   0  0  0  0  0  0  0  0  0  0  0  0
  -28.3036  -21.3096   19.1048 C   0  0  0  0  0  0  0  0  0  0  0  0
  -25.8537  -10.9091   17.8015 C   0  0  0  0  0  0  0  0  0  0  0  0
  -24.2370   -9.0159   17.5771 C   0  0  0  0  0  0  0  0  0  0  0  0
  -27.4913  -29.8269   21.6737 C   0  0  0  0  0  0  0  0  0  0  0  0
  -24.2480  -29.8342   21.6164 C   0  0  0  0  0  0  0  0  0  0  0  0
  -21.3587  -28.1539   20.9271 C   0  0  0  0  0  0  0  0  0  0  0  0
  -27.5307  -16.2481   19.5286 C   0  0  0  0  0  0  0  0  0  0  0  0
  -28.1444  -33.8619   24.7314 C   0  0  0  0  0  0  0  0  0  0  0  0
  -27.0279  -29.0707   19.3137 C   0  0  0  0  0  0  0  0  0  0  0  0
  -25.3775  -27.6034   21.2805 C   0  0  0  0  0  0  0  0  0  0  0  0
  -27.2471  -32.6270   24.7301 C   0  0  0  0  0  0  0  0  0  0  0  0
  -29.7170  -13.4521   18.9617 C   0  0  0  0  0  0  0  0  0  0  0  0
  -28.0715  -31.3684   24.4789 C   0  0  0  0  0  0  0  0  0  0  0  0
  -28.7310  -12.2879   18.9979 C   0  0  0  0  0  0  0  0  0  0  0  0
  -29.3613  -14.5490   19.9675 C   0  0  0  0  0  0  0  0  0  0  0  0
  -26.9781  -13.8609   19.8861 C   0  0  0  0  0  0  0  0  0  0  0  0
  -29.2115  -17.3164   21.1762 C   0  0  0  0  0  0  0  0  0  0  0  0
  -28.7545  -31.4209   23.1069 C   0  0  1  0  0  0  0  0  0  0  0  0
  -26.4792  -29.7477   20.5659 C   0  0  1  0  0  0  0  0  0  0  0  0
  -27.2896  -12.7937   18.8280 C   0  0  2  0  0  0  0  0  0  0  0  0
  -29.3584  -18.7934   21.6245 C   0  0  0  0  0  0  0  0  0  0  0  0
  -30.8149  -19.1508   21.9234 C   0  0  0  0  0  0  0  0  0  0  0  0
  -28.4668  -19.0949   22.8335 C   0  0  0  0  0  0  0  0  0  0  0  0
  -18.8636  -28.4059   21.0183 C   0  0  0  0  0  0  0  0  0  0  0  0
  -24.3184  -29.4139   24.6377 C   0  0  0  0  0  0  0  0  0  0  0  0
  -21.9116  -28.7327   24.5289 C   0  0  0  0  0  0  0  0  0  0  0  0
  -22.5859  -31.0365   23.8503 C   0  0  0  0  0  0  0  0  0  0  0  0
  -21.1003  -27.8068   17.9994 C   0  0  0  0  0  0  0  0  0  0  0  0
  -28.3594  -22.7843   18.8806 C   0  0  0  0  0  0  0  0  0  1  0  0
  -23.1640  -29.0839   22.3520 C   0  0  1  0  0  0  0  0  0  0  0  0
  -20.1120  -28.5646   20.1645 C   0  0  2  0  0  0  0  0  0  0  0  0
  -23.0146  -29.5532   23.8267 C   0  0  0  0  0  0  0  0  0  0  0  0
  -25.7264  -11.3130   20.0305 N   0  0  0  0  0  0  0  0  0  0  0  0
  -28.8990  -20.8474   20.2288 N   0  0  0  0  0  0  0  0  0  0  0  0
  -26.2840  -11.6577   18.8573 N   0  0  0  0  0  0  0  0  0  0  0  0
  -28.3183  -17.3050   19.9882 N   0  0  0  0  0  0  0  0  0  0  0  0
  -25.3040  -29.0638   21.1093 N   0  0  0  0  0  0  0  0  0  0  0  0
  -27.9559  -14.9516   19.8533 N   0  0  0  0  0  0  0  0  0  0  0  0
  -26.3125  -11.1228   16.5500 N   0  0  0  0  0  0  0  0  0  0  0  0
  -23.3501   -8.1773   18.2659 N   0  0  0  0  0  0  0  0  0  0  0  0
  -27.8052  -31.1166   22.0578 N   0  0  0  0  0  0  0  0  0  0  0  0
  -21.9522  -29.2298   21.5528 N   0  0  0  0  0  0  0  0  0  0  0  0
  -19.9541  -27.7282   18.9412 N   0  3  0  0  0  0  0  0  0  0  0  0
  -24.3924   -8.8630   16.3418 O   0  0  0  0  0  0  0  0  0  0  0  0
  -27.9521  -28.7943   22.1460 O   0  0  0  0  0  0  0  0  0  0  0  0
  -24.1573  -31.0579   21.4900 O   0  0  0  0  0  0  0  0  0  0  0  0
  -21.7632  -26.9940   20.9671 O   0  0  0  0  0  0  0  0  0  0  0  0
  -26.4665  -16.4302   18.9243 O   0  0  0  0  0  0  0  0  0  0  0  0
  -21.8304   -7.7694   23.6100 O   0  0  0  0  0  0  0  0  0  0  0  0
  -27.4414  -23.4284   19.7547 O   0  0  0  0  0  0  0  0  0  1  0  0
  -21.6429   -2.2589   23.5535 F   0  0  0  0  0  0  0  0  0  0  0  0
  -22.6977   -6.2984   25.7841 F   0  0  0  0  0  0  0  0  0  0  0  0
  1  2  1  0  0  0  0
  1  5  2  0  0  0  0
  2  6  2  0  0  0  0
  3  9  2  0  0  0  0
  3 17  1  0  0  0  0
  4 10  1  0  0  0  0
  4 17  2  0  0  0  0
  5 19  1  0  0  0  0
  6 21  1  0  0  0  0
  7 11  2  0  0  0  0
  7 20  1  0  0  0  0
  8 14  2  0  0  0  0
  8 23  1  0  0  0  0
  9 24  1  0  0  0  0
 10 24  2  0  0  0  0
 11 25  1  0  0  0  0
 12 13  2  0  0  0  0
 12 26  1  0  0  0  0
 13 27  1  0  0  0  0
 14 31  1  0  0  0  0
 15 22  1  0  0  0  0
 15 25  2  0  0  0  0
 16 27  2  0  0  0  0
 16 28  1  0  0  0  0
 17 29  1  0  0  0  0
 18 29  1  0  0  0  0
 18 32  2  0  0  0  0
 18 33  1  0  0  0  0
 19 21  2  0  0  0  0
 19 38  1  0  0  0  0
 20 22  2  0  0  0  0
 20 39  1  0  0  0  0
 21 48  1  0  0  0  0
 22 40  1  0  0  0  0
 23 30  2  0  0  0  0
 23 66  1  0  0  0  0
 24 79  1  0  0  0  0
 25 80  1  0  0  0  0
 26 28  2  0  0  0  0
 26 79  1  0  0  0  0
 27 81  1  0  0  0  0
 28 82  1  0  0  0  0
 29 63  2  0  0  0  0
 30 51  1  0  0  0  0
 30 64  1  0  0  0  0
 31 59  1  0  0  0  0
 31 64  2  0  0  0  0
 32 65  1  0  0  0  0
 32 69  1  0  0  0  0
 33 70  1  0  0  0  0
 33 74  2  0  0  0  0
 34 49  1  0  0  0  0
 34 71  1  0  0  0  0
 34 75  2  0  0  0  0
 35 60  1  0  0  0  0
 35 67  1  0  0  0  0
 35 76  2  0  0  0  0
 36 61  1  0  0  0  0
 36 72  1  0  0  0  0
 36 77  2  0  0  0  0
 37 66  1  0  0  0  0
 37 68  1  0  0  0  0
 37 78  2  0  0  0  0
 38 41  1  0  0  0  0
 39 49  1  0  0  0  0
 40 67  1  0  0  0  0
 41 43  1  0  0  0  0
 42 44  1  0  0  0  0
 42 45  1  0  0  0  0
 43 48  1  0  0  0  0
 44 50  1  0  0  0  0
 45 68  1  0  0  0  0
 46 50  1  0  0  0  0
 46 68  1  0  0  0  0
 47 51  1  0  0  0  0
 47 66  1  0  0  0  0
 48 71  1  0  0  0  0
 49 67  1  0  0  0  0
 50 65  1  0  0  0  0
 51 52  1  0  0  0  0
 51 53  1  0  0  0  0
 54 61  1  0  0  0  0
 55 62  1  0  0  0  0
 56 62  1  0  0  0  0
 57 62  1  0  0  0  0
 58 73  1  0  0  0  0
 59 80  1  0  0  0  0
 60 62  1  0  0  0  0
 60 72  1  0  0  0  0
 61 73  1  0  0  0  0
 63 65  1  0  0  0  0
M  CHG  1  73   1
M  ISO  4  37 100  59 101  66 100  80 101
M  END
> <Batch ID>
0183

> <Smiles>
CNC(C)C(=O)NC(C(=O)N1Cc2cc([101O:1][101CH2:1]c3ccc4c(n3)C(C)(C)C[100N:0]4[100C:0](=O)N3CCCC(n4nc(-c5ccc(Oc6ccc(F)cc6F)cc5)c(C(N)=O)c4N)C3)ccc2CC1C(=O)NC1CCCc2ccccc21)C(C)(C)C

> <Shape>
0.284

> <Color>
0.088

> <Negative vol penalty>
0.000

$$$$

  -OEChem-04052323073D

 87 96  0     1  0  0  0  0  0999 V2000
  -17.2607  -29.7202   24.3574 C   0  0  0  0  0  0  0  0  0  0  0  0
  -18.5494  -29.4248   24.7904 C   0  0  0  0  0  0  0  0  0  0  0  0
  -24.5118   -9.4388   21.0502 C   0  0  0  0  0  0  0  0  0  0  0  0
  -25.0874  -10.2552   23.2501 C   0  0  0  0  0  0  0  0  0  0  0  0
  -16.9388  -29.6112   23.0052 C   0  0  0  0  0  0  0  0  0  0  0  0
  -19.5166  -29.0191   23.8715 C   0  0  0  0  0  0  0  0  0  0  0  0
  -25.5075  -30.2795   24.0346 C   0  0  0  0  0  0  0  0  0  0  0  0
  -24.2916   -8.1673   21.5797 C   0  0  0  0  0  0  0  0  0  0  0  0
  -24.8672   -8.9837   23.7796 C   0  0  0  0  0  0  0  0  0  0  0  0
  -26.6086  -29.5464   24.4749 C   0  0  0  0  0  0  0  0  0  0  0  0
  -21.8564   -6.5731   23.3006 C   0  0  0  0  0  0  0  0  0  0  0  0
  -20.7080   -5.8925   22.8962 C   0  0  0  0  0  0  0  0  0  0  0  0
  -27.0112  -28.8053   22.2148 C   0  0  0  0  0  0  0  0  0  0  0  0
  -22.0768   -4.1107   22.0079 C   0  0  0  0  0  0  0  0  0  0  0  0
  -30.4081  -23.7747   25.1340 C   0  0  0  0  0  0  0  0  0  0  0  0
  -24.9098  -10.4828   21.8854 C   0  0  0  0  0  0  0  0  0  0  0  0
  -24.1973  -12.8344   21.2000 C   0  0  0  0  0  0  0  0  0  0  0  0
  -17.9051  -29.2132   22.0679 C   0  0  0  0  0  0  0  0  0  0  0  0
  -25.1429  -30.2723   22.6806 C   0  0  0  0  0  0  0  0  0  0  0  0
  -19.2069  -28.9034   22.5057 C   0  0  0  0  0  0  0  0  0  0  0  0
  -25.9066  -29.5413   21.7595 C   0  0  0  0  0  0  0  0  0  0  0  0
  -24.4692   -7.9397   22.9443 C   0  0  0  0  0  0  0  0  0  0  0  0
  -27.3589  -28.8068   23.5654 C   0  0  0  0  0  0  0  0  0  0  0  0
  -23.1150   -6.0226   23.0586 C   0  0  0  0  0  0  0  0  0  0  0  0
  -20.8182   -4.6613   22.2499 C   0  0  0  0  0  0  0  0  0  0  0  0
  -23.2252   -4.7914   22.4123 C   0  0  0  0  0  0  0  0  0  0  0  0
  -25.1380  -11.7963   21.3390 C   0  0  0  0  0  0  0  0  0  0  0  0
  -30.9453  -22.5158   24.9584 C   0  0  0  0  0  0  0  0  0  0  0  0
  -29.2895  -24.0574   24.3768 C   0  0  0  0  0  0  0  0  0  0  0  0
  -24.9054  -13.8657   20.6330 C   0  0  0  0  0  0  0  0  0  0  0  0
  -29.3461  -21.9914   23.4305 C   0  0  0  0  0  0  0  0  0  0  0  0
  -22.8078  -12.8639   21.5522 C   0  0  0  0  0  0  0  0  0  0  0  0
  -22.5765  -29.3393   21.0536 C   0  0  0  0  0  0  0  0  0  0  0  0
  -24.1543  -30.6783   18.5556 C   0  0  0  0  0  0  0  0  0  0  0  0
  -27.1293  -31.6417   17.1888 C   0  0  0  0  0  0  0  0  0  0  0  0
  -29.4796  -17.0502   20.3481 C   0  0  0  0  0  0  0  0  0  0  0  0
  -17.4975  -29.0643   20.6235 C   0  0  0  0  0  0  0  0  0  0  0  0
  -23.9683  -31.0898   22.2174 C   0  0  0  0  0  0  0  0  0  0  0  0
  -25.5690  -29.5167   20.2919 C   0  0  0  0  0  0  0  0  0  0  0  0
  -18.6802  -28.9891   19.6614 C   0  0  0  0  0  0  0  0  0  0  0  0
  -29.5341  -13.9518   18.5949 C   0  0  0  0  0  0  0  0  0  0  0  0
  -19.7336  -28.0180   20.1853 C   0  0  0  0  0  0  0  0  0  0  0  0
  -28.3219  -13.1986   19.1455 C   0  0  0  0  0  0  0  0  0  0  0  0
  -30.2203  -14.7839   19.6760 C   0  0  0  0  0  0  0  0  0  0  0  0
  -28.1192  -14.9572   20.9525 C   0  0  0  0  0  0  0  0  0  0  0  0
  -29.3354  -19.7293   22.3370 C   0  0  0  0  0  0  0  0  0  0  0  0
  -27.6185  -21.3312   21.7302 C   0  0  0  0  0  0  0  0  0  0  0  0
  -20.2904  -28.4840   21.5360 C   0  0  1  0  0  0  0  0  0  0  0  0
  -23.3815  -30.5984   20.8978 C   0  0  1  0  0  0  0  0  0  0  0  0
  -27.3611  -14.1478   19.8864 C   0  0  2  0  0  0  0  0  0  0  0  0
  -28.6007  -19.2528   21.0798 C   0  0  2  0  0  0  0  0  0  0  0  0
  -27.2508  -19.9417   21.2147 C   0  0  2  0  0  0  0  0  0  0  0  0
  -32.1561  -22.1182   25.7340 C   0  0  0  0  0  0  0  0  0  0  0  0
  -28.1045  -32.6715   15.1186 C   0  0  0  0  0  0  0  0  0  0  0  0
  -23.8002  -28.0334   17.0760 C   0  0  0  0  0  0  0  0  0  0  0  0
  -25.5665  -28.7779   15.4655 C   0  0  0  0  0  0  0  0  0  0  0  0
  -23.4431  -30.0709   15.6705 C   0  0  0  0  0  0  0  0  0  0  0  0
  -28.2027  -33.9479   18.7015 C   0  0  0  0  0  0  0  0  0  0  0  0
  -29.2320  -26.3238   25.4188 C   0  0  0  0  0  0  0  0  0  0  0  0
  -28.3891  -27.5847   25.3264 C   0  0  0  0  0  0  0  0  0  1  0  0
  -25.1496  -30.1867   17.5324 C   0  0  1  0  0  0  0  0  0  0  0  0
  -27.5565  -32.9321   16.5130 C   0  0  2  0  0  0  0  0  0  0  0  0
  -24.4953  -29.2659   16.4640 C   0  0  0  0  0  0  0  0  0  0  0  0
  -26.3510  -12.1369   20.8957 N   0  0  0  0  0  0  0  0  0  0  0  0
  -30.4381  -21.5957   24.1120 N   0  0  0  0  0  0  0  0  0  0  0  0
  -28.7300  -23.1861   23.5119 N   0  0  0  0  0  0  0  0  0  0  0  0
  -26.1774  -13.4006   20.4726 N   0  0  0  0  0  0  0  0  0  0  0  0
  -28.8007  -21.0758   22.5562 N   0  0  3  0  0  0  0  0  0  0  0  0
  -24.4077  -30.3271   19.8891 N   0  0  0  0  0  0  0  0  0  0  0  0
  -29.2547  -15.6637   20.3389 N   0  0  0  0  0  0  0  0  0  0  0  0
  -24.5577  -15.1159   20.2608 N   0  0  0  0  0  0  0  0  0  0  0  0
  -22.2393  -11.7182   22.1253 N   0  0  0  0  0  0  0  0  0  0  0  0
  -28.7199  -25.3112   24.5241 N   0  0  0  0  0  0  0  0  0  0  0  0
  -21.2437  -29.5563   21.3468 N   0  0  0  0  0  0  0  0  0  0  0  0
  -25.7919  -31.3761   16.9836 N   0  0  0  0  0  0  0  0  0  0  0  0
  -28.5125  -17.8122   20.9922 N   0  0  0  0  0  0  0  0  0  0  0  0
  -26.5488  -20.0197   19.9213 N   0  3  0  0  0  0  0  0  0  0  0  0
  -28.6138  -33.6111   17.3142 N   0  3  0  0  0  0  0  0  0  0  0  0
  -22.0876  -13.8707   21.3491 O   0  0  0  0  0  0  0  0  0  0  0  0
  -23.1238  -28.2515   20.9164 O   0  0  0  0  0  0  0  0  0  0  0  0
  -23.1915  -31.3552   18.1861 O   0  0  0  0  0  0  0  0  0  0  0  0
  -27.9054  -30.9376   17.8312 O   0  0  0  0  0  0  0  0  0  0  0  0
  -30.4662  -17.5709   19.8168 O   0  0  0  0  0  0  0  0  0  0  0  0
  -24.2542   -6.6992   23.4614 O   0  0  0  0  0  0  0  0  0  0  0  0
  -28.4338  -28.0898   23.9925 O   0  0  0  0  0  0  0  0  0  1  0  0
  -19.7153   -4.0071   21.8630 F   0  0  0  0  0  0  0  0  0  0  0  0
  -24.4316   -4.2569   22.1782 F   0  0  0  0  0  0  0  0  0  0  0  0
  1  2  1  0  0  0  0
  1  5  2  0  0  0  0
  2  6  2  0  0  0  0
  3  8  2  0  0  0  0
  3 16  1  0  0  0  0
  4  9  1  0  0  0  0
  4 16  2  0  0  0  0
  5 18  1  0  0  0  0
  6 20  1  0  0  0  0
  7 10  2  0  0  0  0
  7 19  1  0  0  0  0
  8 22  1  0  0  0  0
  9 22  2  0  0  0  0
 10 23  1  0  0  0  0
 11 12  2  0  0  0  0
 11 24  1  0  0  0  0
 12 25  1  0  0  0  0
 13 21  1  0  0  0  0
 13 23  2  0  0  0  0
 14 25  2  0  0  0  0
 14 26  1  0  0  0  0
 15 28  2  0  0  0  0
 15 29  1  0  0  0  0
 16 27  1  0  0  0  0
 17 27  1  0  0  0  0
 17 30  2  0  0  0  0
 17 32  1  0  0  0  0
 18 20  2  0  0  0  0
 18 37  1  0  0  0  0
 19 21  2  0  0  0  0
 19 38  1  0  0  0  0
 20 48  1  0  0  0  0
 21 39  1  0  0  0  0
 22 84  1  0  0  0  0
 23 85  1  0  0  0  0
 24 26  2  0  0  0  0
 24 84  1  0  0  0  0
 25 86  1  0  0  0  0
 26 87  1  0  0  0  0
 27 64  2  0  0  0  0
 28 53  1  0  0  0  0
 28 65  1  0  0  0  0
 29 66  2  0  0  0  0
 29 73  1  0  0  0  0
 30 67  1  0  0  0  0
 30 71  1  0  0  0  0
 31 65  2  0  0  0  0
 31 66  1  0  0  0  0
 31 68  1  0  0  0  0
 32 72  1  0  0  0  0
 32 79  2  0  0  0  0
 33 49  1  0  0  0  0
 33 74  1  0  0  0  0
 33 80  2  0  0  0  0
 34 61  1  0  0  0  0
 34 69  1  0  0  0  0
 34 81  2  0  0  0  0
 35 62  1  0  0  0  0
 35 75  1  0  0  0  0
 35 82  2  0  0  0  0
 36 70  1  0  0  0  0
 36 76  1  0  0  0  0
 36 83  2  0  0  0  0
 37 40  1  0  0  0  0
 38 49  1  0  0  0  0
 39 69  1  0  0  0  0
 40 42  1  0  0  0  0
 41 43  1  0  0  0  0
 41 44  1  0  0  0  0
 42 48  1  0  0  0  0
 43 50  1  0  0  0  0
 44 70  1  0  0  0  0
 45 50  1  0  0  0  0
 45 70  1  0  0  0  0
 46 51  1  0  0  0  0
 46 68  1  0  0  0  0
 47 52  1  0  0  0  0
 47 68  1  0  0  0  0
 48 74  1  0  0  0  0
 49 69  1  0  0  0  0
 50 67  1  0  0  0  0
 51 52  1  0  0  0  0
 51 76  1  0  0  0  0
 52 77  1  0  0  0  0
 54 62  1  0  0  0  0
 55 63  1  0  0  0  0
 56 63  1  0  0  0  0
 57 63  1  0  0  0  0
 58 78  1  0  0  0  0
 59 60  1  0  0  0  0
 59 73  1  0  0  0  0
 60 85  1  0  0  0  0
 61 63  1  0  0  0  0
 61 75  1  0  0  0  0
 62 78  1  0  0  0  0
 64 67  1  0  0  0  0
M  CHG  2  77   1  78   1
M  ISO  4  36 100  60 101  76 100  85 101
M  END
> <Batch ID>
0183

> <Smiles>
CNC(C)C(=O)NC(C(=O)N1Cc2cc([101O:1][101CH2:1]CNc3cc(C)nc(N4CC(N)C([100NH:0][100C:0](=O)N5CCCC(n6nc(-c7ccc(Oc8ccc(F)cc8F)cc7)c(C(N)=O)c6N)C5)C4)n3)ccc2CC1C(=O)NC1CCCc2ccccc21)C(C)(C)C

> <Shape>
0.262

> <Color>
0.124

> <Negative vol penalty>
0.000

$$$$

  -OEChem-04052323073D

 84 93  0     1  0  0  0  0  0999 V2000
  -29.4173  -28.9931   34.4925 C   0  0  0  0  0  0  0  0  0  0  0  0
  -29.9445  -27.7614   34.1176 C   0  0  0  0  0  0  0  0  0  0  0  0
  -23.0782   -9.8634   19.9439 C   0  0  0  0  0  0  0  0  0  0  0  0
  -23.8383   -9.8774   22.2372 C   0  0  0  0  0  0  0  0  0  0  0  0
  -28.5271  -29.6551   33.6480 C   0  0  0  0  0  0  0  0  0  0  0  0
  -29.5809  -27.1906   32.8984 C   0  0  0  0  0  0  0  0  0  0  0  0
  -32.2093  -23.0781   27.6548 C   0  0  0  0  0  0  0  0  0  0  0  0
  -22.3369   -8.7092   20.1966 C   0  0  0  0  0  0  0  0  0  0  0  0
  -23.0970   -8.7232   22.4899 C   0  0  0  0  0  0  0  0  0  0  0  0
  -31.9057  -21.9212   26.9386 C   0  0  0  0  0  0  0  0  0  0  0  0
  -19.8707   -7.9197   23.0947 C   0  0  0  0  0  0  0  0  0  0  0  0
  -19.1139   -7.8809   24.2657 C   0  0  0  0  0  0  0  0  0  0  0  0
  -30.4212  -23.1931   25.5251 C   0  0  0  0  0  0  0  0  0  0  0  0
  -20.3597   -5.9479   25.0066 C   0  0  0  0  0  0  0  0  0  0  0  0
  -23.8290  -10.4475   20.9641 C   0  0  0  0  0  0  0  0  0  0  0  0
  -24.1653  -12.9731   20.8382 C   0  0  0  0  0  0  0  0  0  0  0  0
  -28.1599  -29.0967   32.4135 C   0  0  0  0  0  0  0  0  0  0  0  0
  -31.6119  -24.3012   27.3179 C   0  0  0  0  0  0  0  0  0  0  0  0
  -28.6839  -27.8452   32.0372 C   0  0  0  0  0  0  0  0  0  0  0  0
  -30.7209  -24.3646   26.2371 C   0  0  0  0  0  0  0  0  0  0  0  0
  -22.3463   -8.1391   21.4696 C   0  0  0  0  0  0  0  0  0  0  0  0
  -31.0093  -21.9780   25.8754 C   0  0  0  0  0  0  0  0  0  0  0  0
  -20.8719   -6.9726   22.8795 C   0  0  0  0  0  0  0  0  0  0  0  0
  -19.3584   -6.8950   25.2217 C   0  0  0  0  0  0  0  0  0  0  0  0
  -21.1164   -5.9867   23.8354 C   0  0  0  0  0  0  0  0  0  0  0  0
  -24.5954  -11.6394   20.7035 C   0  0  0  0  0  0  0  0  0  0  0  0
  -25.2557  -13.7241   20.4730 C   0  0  0  0  0  0  0  0  0  0  0  0
  -22.8937  -13.4871   21.2560 C   0  0  0  0  0  0  0  0  0  0  0  0
  -29.6950  -26.3486   28.8138 C   0  0  0  0  0  0  0  0  0  0  0  0
  -30.1997  -28.1529   26.1657 C   0  0  0  0  0  0  0  0  0  0  0  0
  -31.0445  -28.2760   22.8615 C   0  0  0  0  0  0  0  0  0  0  0  0
  -30.7372  -14.7556   20.6584 C   0  0  0  0  0  0  0  0  0  0  0  0
  -27.1577  -29.8275   31.5555 C   0  0  0  0  0  0  0  0  0  0  0  0
  -31.9704  -25.5453   28.0835 C   0  0  0  0  0  0  0  0  0  0  0  0
  -30.0680  -25.6569   25.8223 C   0  0  0  0  0  0  0  0  0  0  0  0
  -27.1137  -29.3304   30.1128 C   0  0  0  0  0  0  0  0  0  0  0  0
  -29.6047  -12.3631   18.2774 C   0  0  0  0  0  0  0  0  0  0  0  0
  -27.0742  -27.8060   30.0744 C   0  0  0  0  0  0  0  0  0  0  0  0
  -28.1679  -12.0672   18.7111 C   0  0  0  0  0  0  0  0  0  0  0  0
  -30.4474  -17.0238   24.2493 C   0  0  0  0  0  0  0  0  0  0  0  0
  -30.5214  -12.5887   19.4776 C   0  0  0  0  0  0  0  0  0  0  0  0
  -28.6182  -13.3188   20.8627 C   0  0  0  0  0  0  0  0  0  0  0  0
  -28.3329  -27.2052   30.7116 C   0  0  1  0  0  0  0  0  0  0  0  0
  -30.9104  -26.6375   27.9790 C   0  0  1  0  0  0  0  0  0  0  0  0
  -30.1583  -18.4135   23.6738 C   0  0  2  0  0  0  0  0  0  0  0  0
  -31.5604  -16.7354   23.2301 C   0  0  1  0  0  0  0  0  0  0  0  0
  -29.7803  -18.0265   22.2208 C   0  0  2  0  0  0  0  0  0  0  0  0
  -31.5484  -19.1062   23.7557 C   0  0  2  0  0  0  0  0  0  0  0  0
  -27.6443  -13.1394   19.6856 C   0  0  2  0  0  0  0  0  0  0  0  0
  -30.7985  -16.9092   21.8903 C   0  0  2  0  0  0  0  0  0  0  0  0
  -32.5469  -17.9238   23.4989 C   0  0  0  0  0  0  0  0  0  0  0  0
  -33.4614  -17.5739   24.6938 C   0  0  0  0  0  0  0  0  0  0  0  0
  -33.4794  -18.2350   22.3154 C   0  0  0  0  0  0  0  0  0  0  0  0
  -31.3338  -29.8889   20.9609 C   0  0  0  0  0  0  0  0  0  0  0  0
  -29.4110  -18.6423   19.8150 C   0  0  0  0  0  0  0  0  0  0  0  0
  -28.7791  -20.2529   21.6344 C   0  0  0  0  0  0  0  0  0  0  0  0
  -27.1687  -28.3517   25.8762 C   0  0  0  0  0  0  0  0  0  0  0  0
  -27.5143  -29.1234   23.5197 C   0  0  0  0  0  0  0  0  0  0  0  0
  -28.4022  -30.4781   25.4168 C   0  0  0  0  0  0  0  0  0  0  0  0
  -33.9046  -27.5801   22.5537 C   0  0  0  0  0  0  0  0  0  0  0  0
  -31.7161  -19.8509   25.0804 C   0  0  0  0  0  0  0  0  0  1  0  0
  -29.5250  -28.2922   24.8224 C   0  0  1  0  0  0  0  0  0  0  0  0
  -32.0208  -29.1573   22.1036 C   0  0  2  0  0  0  0  0  0  0  0  0
  -29.7630  -19.1624   21.2093 C   0  0  0  0  0  0  0  0  0  0  0  0
  -28.1632  -29.0365   24.9176 C   0  0  0  0  0  0  0  0  0  0  0  0
  -25.8605  -11.5454   20.2853 N   0  0  0  0  0  0  0  0  0  0  0  0
  -26.2345  -12.8295   20.1540 N   0  0  0  0  0  0  0  0  0  0  0  0
  -30.4459  -26.8447   26.6058 N   0  0  0  0  0  0  0  0  0  0  0  0
  -29.9687  -13.6181   20.3613 N   0  0  0  0  0  0  0  0  0  0  0  0
  -25.4632  -15.0559   20.3969 N   0  0  0  0  0  0  0  0  0  0  0  0
  -21.8838  -12.5765   21.5955 N   0  0  0  0  0  0  0  0  0  0  0  0
  -29.4514  -27.2885   29.7970 N   0  0  0  0  0  0  0  0  0  0  0  0
  -30.4961  -28.9333   23.9424 N   0  0  0  0  0  0  0  0  0  0  0  0
  -30.1361  -15.6851   21.4983 N   0  0  0  0  0  0  0  0  0  0  0  0
  -33.1281  -28.3361   21.5375 N   0  3  0  0  0  0  0  0  0  0  0  0
  -22.6547  -14.7173   21.3105 O   0  0  0  0  0  0  0  0  0  0  0  0
  -29.0268  -25.3479   28.5820 O   0  0  0  0  0  0  0  0  0  0  0  0
  -30.5036  -29.1676   26.7979 O   0  0  0  0  0  0  0  0  0  0  0  0
  -30.7907  -27.1212   22.5259 O   0  0  0  0  0  0  0  0  0  0  0  0
  -31.8728  -14.9325   20.2043 O   0  0  0  0  0  0  0  0  0  0  0  0
  -21.6228   -7.0130   21.7167 O   0  0  0  0  0  0  0  0  0  0  0  0
  -30.7078  -20.8395   25.1684 O   0  0  0  0  0  0  0  0  0  1  0  0
  -18.6327   -6.8587   26.3469 F   0  0  0  0  0  0  0  0  0  0  0  0
  -22.0777   -5.0749   23.6349 F   0  0  0  0  0  0  0  0  0  0  0  0
  1  2  1  0  0  0  0
  1  5  2  0  0  0  0
  2  6  2  0  0  0  0
  3  8  2  0  0  0  0
  3 15  1  0  0  0  0
  4  9  1  0  0  0  0
  4 15  2  0  0  0  0
  5 17  1  0  0  0  0
  6 19  1  0  0  0  0
  7 10  2  0  0  0  0
  7 18  1  0  0  0  0
  8 21  1  0  0  0  0
  9 21  2  0  0  0  0
 10 22  1  0  0  0  0
 11 12  2  0  0  0  0
 11 23  1  0  0  0  0
 12 24  1  0  0  0  0
 13 20  1  0  0  0  0
 13 22  2  0  0  0  0
 14 24  2  0  0  0  0
 14 25  1  0  0  0  0
 15 26  1  0  0  0  0
 16 26  1  0  0  0  0
 16 27  2  0  0  0  0
 16 28  1  0  0  0  0
 17 19  2  0  0  0  0
 17 33  1  0  0  0  0
 18 20  2  0  0  0  0
 18 34  1  0  0  0  0
 19 43  1  0  0  0  0
 20 35  1  0  0  0  0
 21 81  1  0  0  0  0
 22 82  1  0  0  0  0
 23 25  2  0  0  0  0
 23 81  1  0  0  0  0
 24 83  1  0  0  0  0
 25 84  1  0  0  0  0
 26 66  2  0  0  0  0
 27 67  1  0  0  0  0
 27 70  1  0  0  0  0
 28 71  1  0  0  0  0
 28 76  2  0  0  0  0
 29 44  1  0  0  0  0
 29 72  1  0  0  0  0
 29 77  2  0  0  0  0
 30 62  1  0  0  0  0
 30 68  1  0  0  0  0
 30 78  2  0  0  0  0
 31 63  1  0  0  0  0
 31 73  1  0  0  0  0
 31 79  2  0  0  0  0
 32 69  1  0  0  0  0
 32 74  1  0  0  0  0
 32 80  2  0  0  0  0
 33 36  1  0  0  0  0
 34 44  1  0  0  0  0
 35 68  1  0  0  0  0
 36 38  1  0  0  0  0
 37 39  1  0  0  0  0
 37 41  1  0  0  0  0
 38 43  1  0  0  0  0
 39 49  1  0  0  0  0
 40 45  1  0  0  0  0
 40 46  1  0  0  0  0
 41 69  1  0  0  0  0
 42 49  1  0  0  0  0
 42 69  1  0  0  0  0
 43 72  1  0  0  0  0
 44 68  1  0  0  0  0
 45 47  1  0  0  0  0
 45 48  1  0  0  0  0
 46 50  1  0  0  0  0
 46 51  1  0  0  0  0
 47 50  1  0  0  0  0
 47 64  1  0  0  0  0
 48 51  1  0  0  0  0
 48 61  1  0  0  0  0
 49 67  1  0  0  0  0
 50 74  1  0  0  0  0
 51 52  1  0  0  0  0
 51 53  1  0  0  0  0
 54 63  1  0  0  0  0
 55 64  1  0  0  0  0
 56 64  1  0  0  0  0
 57 65  1  0  0  0  0
 58 65  1  0  0  0  0
 59 65  1  0  0  0  0
 60 75  1  0  0  0  0
 61 82  1  0  0  0  0
 62 65  1  0  0  0  0
 62 73  1  0  0  0  0
 63 75  1  0  0  0  0
 66 67  1  0  0  0  0
M  CHG  1  75   1
M  ISO  4  32 100  61 101  74 100  82 101
M  END
> <Batch ID>
0183

> <Smiles>
CNC(C)C(=O)NC(C(=O)N1Cc2cc([101O:1][101CH2:1]C3C4CC(C([100NH:0][100C:0](=O)N5CCCC(n6nc(-c7ccc(Oc8ccc(F)cc8F)cc7)c(C(N)=O)c6N)C5)C4C(C)C)C3(C)C)ccc2CC1C(=O)NC1CCCc2ccccc21)C(C)(C)C

> <Shape>
0.203

> <Color>
0.172

> <Negative vol penalty>
0.000

$$$$

  -OEChem-04052323073D

 90100  0     1  0  0  0  0  0999 V2000
  -22.1102  -23.9504   22.2333 C   0  0  0  0  0  0  0  0  0  0  0  0
  -23.1307  -23.0741   21.8780 C   0  0  0  0  0  0  0  0  0  0  0  0
  -23.3421  -29.7581   19.8055 C   0  0  0  0  0  0  0  0  0  0  0  0
  -23.7060  -28.5706   21.8778 C   0  0  0  0  0  0  0  0  0  0  0  0
  -21.1278  -23.5454   23.1358 C   0  0  0  0  0  0  0  0  0  0  0  0
  -23.1698  -21.7925   22.4261 C   0  0  0  0  0  0  0  0  0  0  0  0
  -24.1528  -18.2288   18.9650 C   0  0  0  0  0  0  0  0  0  0  0  0
  -22.0245  -30.0151   20.1841 C   0  0  0  0  0  0  0  0  0  0  0  0
  -22.3884  -28.8276   22.2565 C   0  0  0  0  0  0  0  0  0  0  0  0
  -25.4781  -18.0866   18.5562 C   0  0  0  0  0  0  0  0  0  0  0  0
  -19.3143  -27.5986   21.5707 C   0  0  0  0  0  0  0  0  0  0  0  0
  -18.5785  -26.5449   22.1129 C   0  0  0  0  0  0  0  0  0  0  0  0
  -25.7247  -16.1959   20.0339 C   0  0  0  0  0  0  0  0  0  0  0  0
  -18.2780  -27.8043   24.1526 C   0  0  0  0  0  0  0  0  0  0  0  0
  -29.3519  -21.1429   22.9586 C   0  0  0  0  0  0  0  0  0  0  0  0
  -24.1829  -29.0358   20.6523 C   0  0  0  0  0  0  0  0  0  0  0  0
  -26.6744  -29.5675   20.5206 C   0  0  0  0  0  0  0  0  0  0  0  0
  -21.1494  -22.2549   23.6878 C   0  0  0  0  0  0  0  0  0  0  0  0
  -23.6058  -17.3609   19.9210 C   0  0  0  0  0  0  0  0  0  0  0  0
  -22.1874  -21.3702   23.3379 C   0  0  0  0  0  0  0  0  0  0  0  0
  -24.3915  -16.3276   20.4512 C   0  0  0  0  0  0  0  0  0  0  0  0
  -30.0798  -20.0875   22.4481 C   0  0  0  0  0  0  0  0  0  0  0  0
  -21.5476  -29.5499   21.4096 C   0  0  0  0  0  0  0  0  0  0  0  0
  -26.2651  -17.0719   19.0928 C   0  0  0  0  0  0  0  0  0  0  0  0
  -19.5320  -28.7551   22.3195 C   0  0  0  0  0  0  0  0  0  0  0  0
  -18.0604  -26.6477   23.4038 C   0  0  0  0  0  0  0  0  0  0  0  0
  -19.0138  -28.8580   23.6104 C   0  0  0  0  0  0  0  0  0  0  0  0
  -25.5440  -28.7695   20.2615 C   0  0  0  0  0  0  0  0  0  0  0  0
  -30.2414  -20.0813   21.0777 C   0  0  0  0  0  0  0  0  0  0  0  0
  -27.7171  -28.8827   19.9460 C   0  0  0  0  0  0  0  0  0  0  0  0
  -29.0457  -22.0041   20.8774 C   0  0  0  0  0  0  0  0  0  0  0  0
  -26.7731  -30.8162   21.2182 C   0  0  0  0  0  0  0  0  0  0  0  0
  -22.3861  -17.7151   22.8349 C   0  0  0  0  0  0  0  0  0  0  0  0
  -21.6855  -14.5654   22.5009 C   0  0  0  0  0  0  0  0  0  0  0  0
  -22.3847  -11.5863   20.9901 C   0  0  0  0  0  0  0  0  0  0  0  0
  -28.5969  -23.1138   18.6608 C   0  0  0  0  0  0  0  0  0  0  0  0
  -20.0923  -21.8785   24.6955 C   0  0  0  0  0  0  0  0  0  0  0  0
  -22.1666  -17.5110   20.3316 C   0  0  0  0  0  0  0  0  0  0  0  0
  -23.8458  -15.3570   21.4654 C   0  0  0  0  0  0  0  0  0  0  0  0
  -19.9950  -20.3754   24.9437 C   0  0  0  0  0  0  0  0  0  0  0  0
  -28.6848  -25.8422   16.3748 C   0  0  0  0  0  0  0  0  0  0  0  0
  -21.3836  -19.7763   25.1432 C   0  0  0  0  0  0  0  0  0  0  0  0
  -27.9976  -26.9769   17.1380 C   0  0  0  0  0  0  0  0  0  0  0  0
  -31.7053  -19.3394   19.0645 C   0  0  0  0  0  0  0  0  0  0  0  0
  -30.1060  -17.7714   20.0523 C   0  0  0  0  0  0  0  0  0  0  0  0
  -30.6691  -17.4977   17.5222 C   0  0  0  0  0  0  0  0  0  0  0  0
  -28.0389  -24.4891   16.6677 C   0  0  0  0  0  0  0  0  0  0  0  0
  -27.2349  -25.2870   18.8554 C   0  0  0  0  0  0  0  0  0  0  0  0
  -22.2501  -19.9634   23.8919 C   0  0  1  0  0  0  0  0  0  0  0  0
  -31.0241  -18.9665   20.4019 C   0  0  2  0  0  0  0  0  0  0  0  0
  -21.8655  -16.8899   21.6921 C   0  0  1  0  0  0  0  0  0  0  0  0
  -30.7310  -18.9214   17.9993 C   0  0  1  0  0  0  0  0  0  0  0  0
  -27.8917  -26.6607   18.6428 C   0  0  2  0  0  0  0  0  0  0  0  0
  -29.7297  -17.9796   18.6022 C   0  0  2  0  0  0  0  0  0  0  0  0
  -26.1647  -17.6915   24.8724 C   0  0  0  0  0  0  0  0  0  0  0  0
  -32.0991  -19.3506   23.7570 C   0  0  0  0  0  0  0  0  0  0  0  0
  -21.6670   -9.1820   20.9493 C   0  0  0  0  0  0  0  0  0  0  0  0
  -23.1285  -14.0922   25.1474 C   0  0  0  0  0  0  0  0  0  0  0  0
  -23.2141  -11.6541   24.5847 C   0  0  0  0  0  0  0  0  0  0  0  0
  -21.0115  -12.7908   24.8662 C   0  0  0  0  0  0  0  0  0  0  0  0
  -21.6373  -11.7373   18.1305 C   0  0  0  0  0  0  0  0  0  0  0  0
  -28.2758  -18.1321   18.2856 C   0  0  0  0  0  0  0  0  0  1  0  0
  -27.5468  -18.0332   25.3847 C   0  0  0  0  0  0  0  0  0  0  0  0
  -29.8041  -18.7745   24.6140 C   0  0  0  0  0  0  0  0  0  0  0  0
  -30.6424  -19.0395   23.3380 C   0  0  1  0  0  0  0  0  0  0  0  0
  -22.4010  -13.2725   22.8097 C   0  0  1  0  0  0  0  0  0  0  0  0
  -21.4863  -10.5578   20.3270 C   0  0  2  0  0  0  0  0  0  0  0  0
  -22.4499  -12.9717   24.3343 C   0  0  0  0  0  0  0  0  0  0  0  0
  -28.8184  -22.1223   22.1994 N   0  0  0  0  0  0  0  0  0  0  0  0
  -25.8405  -27.6625   19.5756 N   0  0  0  0  0  0  0  0  0  0  0  0
  -29.7360  -21.0270   20.2589 N   0  0  0  0  0  0  0  0  0  0  0  0
  -27.1691  -27.7600   19.3987 N   0  0  0  0  0  0  0  0  0  0  0  0
  -22.4349  -15.5489   21.8397 N   0  0  0  0  0  0  0  0  0  0  0  0
  -27.9764  -24.2562   18.1122 N   0  0  0  0  0  0  0  0  0  0  0  0
  -29.0401  -29.1373   19.8604 N   0  0  0  0  0  0  0  0  0  0  0  0
  -25.6040  -31.3808   21.7462 N   0  0  0  0  0  0  0  0  0  0  0  0
  -28.4997  -23.0152   20.0484 N   0  0  0  0  0  0  0  0  0  0  0  0
  -21.8833  -19.0015   22.8747 N   0  0  0  0  0  0  0  0  0  0  0  0
  -21.7396  -12.2408   22.0180 N   0  0  0  0  0  0  0  0  0  0  0  0
  -21.7963  -10.4602   18.8726 N   0  3  0  0  0  0  0  0  0  0  0  0
  -28.4284  -18.3631   24.2329 N   0  3  0  0  0  0  0  0  0  0  0  0
  -27.8632  -31.4217   21.3548 O   0  0  0  0  0  0  0  0  0  0  0  0
  -23.1836  -17.2207   23.6230 O   0  0  0  0  0  0  0  0  0  0  0  0
  -20.5032  -14.6953   22.8277 O   0  0  0  0  0  0  0  0  0  0  0  0
  -23.5440  -11.7861   20.6344 O   0  0  0  0  0  0  0  0  0  0  0  0
  -29.1955  -22.2984   17.9546 O   0  0  0  0  0  0  0  0  0  0  0  0
  -20.2620  -29.8007   21.7795 O   0  0  0  0  0  0  0  0  0  0  0  0
  -27.5592  -16.9313   18.6960 O   0  0  0  0  0  0  0  0  0  1  0  0
  -17.3525  -25.6364   23.9238 F   0  0  0  0  0  0  0  0  0  0  0  0
  -19.2186  -29.9671   24.3342 F   0  0  0  0  0  0  0  0  0  0  0  0
  1  2  1  0  0  0  0
  1  5  2  0  0  0  0
  2  6  2  0  0  0  0
  3  8  2  0  0  0  0
  3 16  1  0  0  0  0
  4  9  1  0  0  0  0
  4 16  2  0  0  0  0
  5 18  1  0  0  0  0
  6 20  1  0  0  0  0
  7 10  2  0  0  0  0
  7 19  1  0  0  0  0
  8 23  1  0  0  0  0
  9 23  2  0  0  0  0
 10 24  1  0  0  0  0
 11 12  2  0  0  0  0
 11 25  1  0  0  0  0
 12 26  1  0  0  0  0
 13 21  1  0  0  0  0
 13 24  2  0  0  0  0
 14 26  2  0  0  0  0
 14 27  1  0  0  0  0
 15 22  1  0  0  0  0
 15 69  2  0  0  0  0
 16 28  1  0  0  0  0
 17 28  1  0  0  0  0
 17 30  2  0  0  0  0
 17 32  1  0  0  0  0
 18 20  2  0  0  0  0
 18 37  1  0  0  0  0
 19 21  2  0  0  0  0
 19 38  1  0  0  0  0
 20 49  1  0  0  0  0
 21 39  1  0  0  0  0
 22 29  2  0  0  0  0
 22 65  1  0  0  0  0
 23 87  1  0  0  0  0
 24 88  1  0  0  0  0
 25 27  2  0  0  0  0
 25 87  1  0  0  0  0
 26 89  1  0  0  0  0
 27 90  1  0  0  0  0
 28 70  2  0  0  0  0
 29 50  1  0  0  0  0
 29 71  1  0  0  0  0
 30 72  1  0  0  0  0
 30 75  1  0  0  0  0
 31 69  1  0  0  0  0
 31 71  2  0  0  0  0
 31 77  1  0  0  0  0
 32 76  1  0  0  0  0
 32 82  2  0  0  0  0
 33 51  1  0  0  0  0
 33 78  1  0  0  0  0
 33 83  2  0  0  0  0
 34 66  1  0  0  0  0
 34 73  1  0  0  0  0
 34 84  2  0  0  0  0
 35 67  1  0  0  0  0
 35 79  1  0  0  0  0
 35 85  2  0  0  0  0
 36 74  1  0  0  0  0
 36 77  1  0  0  0  0
 36 86  2  0  0  0  0
 37 40  1  0  0  0  0
 38 51  1  0  0  0  0
 39 73  1  0  0  0  0
 40 42  1  0  0  0  0
 41 43  1  0  0  0  0
 41 47  1  0  0  0  0
 42 49  1  0  0  0  0
 43 53  1  0  0  0  0
 44 50  1  0  0  0  0
 44 52  1  0  0  0  0
 45 50  1  0  0  0  0
 45 54  1  0  0  0  0
 46 52  1  0  0  0  0
 46 54  1  0  0  0  0
 47 74  1  0  0  0  0
 48 53  1  0  0  0  0
 48 74  1  0  0  0  0
 49 78  1  0  0  0  0
 51 73  1  0  0  0  0
 52 54  1  0  0  0  0
 53 72  1  0  0  0  0
 54 62  1  0  0  0  0
 55 63  1  0  0  0  0
 56 65  1  0  0  0  0
 57 67  1  0  0  0  0
 58 68  1  0  0  0  0
 59 68  1  0  0  0  0
 60 68  1  0  0  0  0
 61 80  1  0  0  0  0
 62 88  1  0  0  0  0
 63 81  1  0  0  0  0
 64 65  1  0  0  0  0
 64 81  1  0  0  0  0
 66 68  1  0  0  0  0
 66 79  1  0  0  0  0
 67 80  1  0  0  0  0
 70 72  1  0  0  0  0
M  CHG  2  80   1  81   1
M  ISO  4  36 100  62 101  77 100  88 101
M  END
> <Batch ID>
0183

> <Smiles>
CCNCC(C)c1cnc([100NH:0][100C:0](=O)N2CCCC(n3nc(-c4ccc(Oc5ccc(F)cc5F)cc4)c(C(N)=O)c3N)C2)nc1C1CC2CC2([101CH2:1][101O:1]c2ccc3c(c2)CN(C(=O)C(NC(=O)C(C)NC)C(C)(C)C)C(C(=O)NC2CCCc4ccccc42)C3)C1

> <Shape>
0.224

> <Color>
0.047

> <Negative vol penalty>
0.000

$$$$

  -OEChem-04052323073D

 83 93  0     1  0  0  0  0  0999 V2000
  -29.0780  -17.5616   17.9979 C   0  0  0  0  0  0  0  0  0  0  0  0
  -28.0098  -18.3282   17.5433 C   0  0  0  0  0  0  0  0  0  0  0  0
  -22.6907  -17.2466   19.8349 C   0  0  0  0  0  0  0  0  0  0  0  0
  -24.1411  -18.5727   21.2402 C   0  0  0  0  0  0  0  0  0  0  0  0
  -29.7677  -17.9419   19.1484 C   0  0  0  0  0  0  0  0  0  0  0  0
  -27.6298  -19.4749   18.2398 C   0  0  0  0  0  0  0  0  0  0  0  0
  -24.8959  -26.0089   17.1674 C   0  0  0  0  0  0  0  0  0  0  0  0
  -23.6676  -16.2535   19.7638 C   0  0  0  0  0  0  0  0  0  0  0  0
  -25.1180  -17.5796   21.1691 C   0  0  0  0  0  0  0  0  0  0  0  0
  -23.8601  -26.8293   17.6120 C   0  0  0  0  0  0  0  0  0  0  0  0
  -25.6385  -13.2096   19.5082 C   0  0  0  0  0  0  0  0  0  0  0  0
  -25.2310  -11.8861   19.6746 C   0  0  0  0  0  0  0  0  0  0  0  0
  -25.1748  -27.4328   19.5424 C   0  0  0  0  0  0  0  0  0  0  0  0
  -19.6206  -28.3727   24.7162 C   0  0  0  0  0  0  0  0  0  0  0  0
  -24.4066  -12.4175   21.8826 C   0  0  0  0  0  0  0  0  0  0  0  0
  -22.9275  -18.4063   20.5731 C   0  0  0  0  0  0  0  0  0  0  0  0
  -20.8903  -19.5472   21.6006 C   0  0  0  0  0  0  0  0  0  0  0  0
  -29.4021  -19.0992   19.8539 C   0  0  0  0  0  0  0  0  0  0  0  0
  -26.0767  -25.8856   17.9138 C   0  0  0  0  0  0  0  0  0  0  0  0
  -28.3143  -19.8703   19.4016 C   0  0  0  0  0  0  0  0  0  0  0  0
  -26.2251  -26.6122   19.1038 C   0  0  0  0  0  0  0  0  0  0  0  0
  -19.2941  -27.7862   23.5210 C   0  0  0  0  0  0  0  0  0  0  0  0
  -19.9497  -28.0994   22.3599 C   0  0  0  0  0  0  0  0  0  0  0  0
  -24.8812  -16.4200   20.4309 C   0  0  0  0  0  0  0  0  0  0  0  0
  -23.9982  -27.5391   18.8011 C   0  0  0  0  0  0  0  0  0  0  0  0
  -25.4301  -14.1371   20.5290 C   0  0  0  0  0  0  0  0  0  0  0  0
  -24.6151  -11.4900   20.8618 C   0  0  0  0  0  0  0  0  0  0  0  0
  -24.8142  -13.7411   21.7162 C   0  0  0  0  0  0  0  0  0  0  0  0
  -21.9190  -19.4328   20.6464 C   0  0  0  0  0  0  0  0  0  0  0  0
  -20.9582  -29.0205   22.3748 C   0  0  0  0  0  0  0  0  0  0  0  0
  -20.6541  -29.2973   24.6571 C   0  0  0  0  0  0  0  0  0  0  0  0
  -20.2079  -20.6819   21.2354 C   0  0  0  0  0  0  0  0  0  0  0  0
  -20.5793  -18.7032   22.7171 C   0  0  0  0  0  0  0  0  0  0  0  0
  -27.5654  -23.4885   19.3771 C   0  0  0  0  0  0  0  0  0  0  0  0
  -29.8695  -25.7225   19.8491 C   0  0  0  0  0  0  0  0  0  0  0  0
  -30.6947  -29.0240   20.1056 C   0  0  0  0  0  0  0  0  0  0  0  0
  -20.1412  -25.9920   19.5386 C   0  0  0  0  0  0  0  0  0  0  0  0
  -30.1474  -19.4441   21.1189 C   0  0  0  0  0  0  0  0  0  0  0  0
  -27.1953  -25.0172   17.4068 C   0  0  0  0  0  0  0  0  0  0  0  0
  -18.3893  -26.7915   22.8540 C   0  0  0  0  0  0  0  0  0  0  0  0
  -27.4807  -26.5302   19.9316 C   0  0  0  0  0  0  0  0  0  0  0  0
  -29.9195  -20.8787   21.5882 C   0  0  0  0  0  0  0  0  0  0  0  0
  -20.5011  -23.4941   17.0400 C   0  0  0  0  0  0  0  0  0  0  0  0
  -28.4344  -21.2248   21.5456 C   0  0  0  0  0  0  0  0  0  0  0  0
  -20.8191  -22.2247   17.8322 C   0  0  0  0  0  0  0  0  0  0  0  0
  -23.0779  -29.9067   21.1926 C   0  0  0  0  0  0  0  0  0  0  0  0
  -21.1499  -24.7269   17.6655 C   0  0  0  0  0  0  0  0  0  0  0  0
  -21.1673  -23.6609   19.8857 C   0  0  0  0  0  0  0  0  0  0  0  0
  -27.8878  -21.1345   20.1157 C   0  0  1  0  0  0  0  0  0  0  0  0
  -19.1318  -27.1640   21.5174 C   0  0  2  0  0  0  0  0  0  0  0  0
  -21.6685  -29.3671   21.1207 C   0  0  1  0  0  0  0  0  0  0  0  0
  -28.1490  -24.5673   18.5093 C   0  0  1  0  0  0  0  0  0  0  0  0
  -20.4886  -22.3983   19.3270 C   0  0  2  0  0  0  0  0  0  0  0  0
  -22.8410  -28.5203   20.6764 C   0  0  1  0  0  0  0  0  0  1  0  0
  -21.0806  -29.9885   25.9100 C   0  0  0  0  0  0  0  0  0  0  0  0
  -32.6496  -30.5384   20.5327 C   0  0  0  0  0  0  0  0  0  0  0  0
  -29.7420  -25.0450   22.8214 C   0  0  0  0  0  0  0  0  0  0  0  0
  -30.9661  -27.1783   23.2890 C   0  0  0  0  0  0  0  0  0  0  0  0
  -32.0522  -25.3915   21.9286 C   0  0  0  0  0  0  0  0  0  0  0  0
  -30.4248  -30.3114   17.4545 C   0  0  0  0  0  0  0  0  0  0  0  0
  -30.1664  -26.7418   20.9223 C   0  0  1  0  0  0  0  0  0  0  0  0
  -31.8129  -29.8347   19.4756 C   0  0  2  0  0  0  0  0  0  0  0  0
  -30.7071  -26.0894   22.2260 C   0  0  0  0  0  0  0  0  0  0  0  0
  -21.8960  -20.4162   19.7429 N   0  0  0  0  0  0  0  0  0  0  0  0
  -21.3306  -29.6361   23.5210 N   0  0  0  0  0  0  0  0  0  0  0  0
  -20.8444  -21.1594   20.1277 N   0  0  0  0  0  0  0  0  0  0  0  0
  -28.5436  -25.6628   19.3972 N   0  0  0  0  0  0  0  0  0  0  0  0
  -20.7904  -24.8342   19.0818 N   0  0  0  0  0  0  0  0  0  0  0  0
  -19.1315  -21.3078   21.7570 N   0  0  0  0  0  0  0  0  0  0  0  0
  -21.3826  -17.5782   22.9485 N   0  0  0  0  0  0  0  0  0  0  0  0
  -28.2734  -22.3021   19.3525 N   0  0  0  0  0  0  0  0  0  0  0  0
  -31.0717  -27.7153   20.3214 N   0  0  0  0  0  0  0  0  0  0  0  0
  -19.8236  -26.0178   20.8926 N   0  0  0  0  0  0  0  0  0  0  0  0
  -31.2513  -30.8656   18.5576 N   0  3  0  0  0  0  0  0  0  0  0  0
  -19.6077  -18.9306   23.4773 O   0  0  0  0  0  0  0  0  0  0  0  0
  -26.5488  -23.7161   20.0224 O   0  0  0  0  0  0  0  0  0  0  0  0
  -30.7819  -25.0105   19.4223 O   0  0  0  0  0  0  0  0  0  0  0  0
  -29.5979  -29.5046   20.3824 O   0  0  0  0  0  0  0  0  0  0  0  0
  -19.8541  -26.9372   18.7960 O   0  0  0  0  0  0  0  0  0  0  0  0
  -25.8345  -15.4510   20.3620 O   0  0  0  0  0  0  0  0  0  0  0  0
  -22.9884  -28.3401   19.2378 O   0  0  0  0  0  0  0  0  0  1  0  0
  -24.2224  -10.2193   21.0209 F   0  0  0  0  0  0  0  0  0  0  0  0
  -24.6102  -14.6279   22.7000 F   0  0  0  0  0  0  0  0  0  0  0  0
  1  2  1  0  0  0  0
  1  5  2  0  0  0  0
  2  6  2  0  0  0  0
  3  8  2  0  0  0  0
  3 16  1  0  0  0  0
  4  9  1  0  0  0  0
  4 16  2  0  0  0  0
  5 18  1  0  0  0  0
  6 20  1  0  0  0  0
  7 10  2  0  0  0  0
  7 19  1  0  0  0  0
  8 24  1  0  0  0  0
  9 24  2  0  0  0  0
 10 25  1  0  0  0  0
 11 12  2  0  0  0  0
 11 26  1  0  0  0  0
 12 27  1  0  0  0  0
 13 21  1  0  0  0  0
 13 25  2  0  0  0  0
 14 22  2  0  0  0  0
 14 31  1  0  0  0  0
 15 27  2  0  0  0  0
 15 28  1  0  0  0  0
 16 29  1  0  0  0  0
 17 29  1  0  0  0  0
 17 32  2  0  0  0  0
 17 33  1  0  0  0  0
 18 20  2  0  0  0  0
 18 38  1  0  0  0  0
 19 21  2  0  0  0  0
 19 39  1  0  0  0  0
 20 49  1  0  0  0  0
 21 41  1  0  0  0  0
 22 23  1  0  0  0  0
 22 40  1  0  0  0  0
 23 30  2  0  0  0  0
 23 50  1  0  0  0  0
 24 80  1  0  0  0  0
 25 81  1  0  0  0  0
 26 28  2  0  0  0  0
 26 80  1  0  0  0  0
 27 82  1  0  0  0  0
 28 83  1  0  0  0  0
 29 64  2  0  0  0  0
 30 51  1  0  0  0  0
 30 65  1  0  0  0  0
 31 55  1  0  0  0  0
 31 65  2  0  0  0  0
 32 66  1  0  0  0  0
 32 69  1  0  0  0  0
 33 70  1  0  0  0  0
 33 75  2  0  0  0  0
 34 52  1  0  0  0  0
 34 71  1  0  0  0  0
 34 76  2  0  0  0  0
 35 61  1  0  0  0  0
 35 67  1  0  0  0  0
 35 77  2  0  0  0  0
 36 62  1  0  0  0  0
 36 72  1  0  0  0  0
 36 78  2  0  0  0  0
 37 68  1  0  0  0  0
 37 73  1  0  0  0  0
 37 79  2  0  0  0  0
 38 42  1  0  0  0  0
 39 52  1  0  0  0  0
 40 50  1  0  0  0  0
 41 67  1  0  0  0  0
 42 44  1  0  0  0  0
 43 45  1  0  0  0  0
 43 47  1  0  0  0  0
 44 49  1  0  0  0  0
 45 53  1  0  0  0  0
 46 51  1  0  0  0  0
 46 54  1  0  0  0  0
 47 68  1  0  0  0  0
 48 53  1  0  0  0  0
 48 68  1  0  0  0  0
 49 71  1  0  0  0  0
 50 73  1  0  0  0  0
 51 54  1  0  0  0  0
 52 67  1  0  0  0  0
 53 66  1  0  0  0  0
 54 81  1  0  0  0  0
 56 62  1  0  0  0  0
 57 63  1  0  0  0  0
 58 63  1  0  0  0  0
 59 63  1  0  0  0  0
 60 74  1  0  0  0  0
 61 63  1  0  0  0  0
 61 72  1  0  0  0  0
 62 74  1  0  0  0  0
 64 66  1  0  0  0  0
M  CHG  1  74   1
M  ISO  4  37 100  54 101  73 100  81 101
M  END
> <Batch ID>
0183

> <Smiles>
CNC(C)C(=O)NC(C(=O)N1Cc2cc([101O:1][101CH:1]3CC3c3nc(C)cc4c3C([100NH:0][100C:0](=O)N3CCCC(n5nc(-c6ccc(Oc7ccc(F)cc7F)cc6)c(C(N)=O)c5N)C3)C4)ccc2CC1C(=O)NC1CCCc2ccccc21)C(C)(C)C

> <Shape>
0.222

> <Color>
0.069

> <Negative vol penalty>
0.000

$$$$

  -OEChem-04052323073D

 82 91  0     1  0  0  0  0  0999 V2000
  -21.4976  -22.8305   21.6049 C   0  0  0  0  0  0  0  0  0  0  0  0
  -22.6920  -23.3566   22.0840 C   0  0  0  0  0  0  0  0  0  0  0  0
  -26.8950  -13.2364   21.0857 C   0  0  0  0  0  0  0  0  0  0  0  0
  -26.8977  -13.5786   18.6941 C   0  0  0  0  0  0  0  0  0  0  0  0
  -20.5950  -23.6558   20.9375 C   0  0  0  0  0  0  0  0  0  0  0  0
  -22.9789  -24.7105   21.9064 C   0  0  0  0  0  0  0  0  0  0  0  0
  -27.0034  -26.4536   24.1353 C   0  0  0  0  0  0  0  0  0  0  0  0
  -26.3309  -11.9736   20.9045 C   0  0  0  0  0  0  0  0  0  0  0  0
  -26.3336  -12.3158   18.5128 C   0  0  0  0  0  0  0  0  0  0  0  0
  -28.2945  -26.1452   23.7090 C   0  0  0  0  0  0  0  0  0  0  0  0
  -23.2746  -10.6798   20.2649 C   0  0  0  0  0  0  0  0  0  0  0  0
  -22.2121  -10.3203   21.0940 C   0  0  0  0  0  0  0  0  0  0  0  0
  -28.4767  -28.3289   22.7005 C   0  0  0  0  0  0  0  0  0  0  0  0
  -23.4924   -8.4460   21.9217 C   0  0  0  0  0  0  0  0  0  0  0  0
  -27.1783  -14.0389   19.9805 C   0  0  0  0  0  0  0  0  0  0  0  0
  -29.1304  -15.6645   20.2144 C   0  0  0  0  0  0  0  0  0  0  0  0
  -20.8773  -25.0176   20.7411 C   0  0  0  0  0  0  0  0  0  0  0  0
  -26.4343  -27.7002   23.8375 C   0  0  0  0  0  0  0  0  0  0  0  0
  -22.0699  -25.5649   21.2565 C   0  0  0  0  0  0  0  0  0  0  0  0
  -27.1792  -28.6517   23.1264 C   0  0  0  0  0  0  0  0  0  0  0  0
  -30.7701  -23.0338   20.2578 C   0  0  0  0  0  0  0  0  0  0  0  0
  -26.0503  -11.5133   19.6180 C   0  0  0  0  0  0  0  0  0  0  0  0
  -29.0303  -27.0818   22.9890 C   0  0  0  0  0  0  0  0  0  0  0  0
  -24.4459   -9.9224   20.2640 C   0  0  0  0  0  0  0  0  0  0  0  0
  -22.3210   -9.2034   21.9225 C   0  0  0  0  0  0  0  0  0  0  0  0
  -24.5548   -8.8055   21.0924 C   0  0  0  0  0  0  0  0  0  0  0  0
  -27.7605  -15.3436   20.1672 C   0  0  0  0  0  0  0  0  0  0  0  0
  -31.4529  -23.9907   20.9440 C   0  0  0  0  0  0  0  0  0  0  0  0
  -30.1603  -23.7123   19.2072 C   0  0  0  0  0  0  0  0  0  0  0  0
  -29.1582  -17.0239   20.4081 C   0  0  0  0  0  0  0  0  0  0  0  0
  -30.2754  -14.8100   20.0939 C   0  0  0  0  0  0  0  0  0  0  0  0
  -23.9042  -28.6716   22.1766 C   0  0  0  0  0  0  0  0  0  0  0  0
  -24.7248  -31.5750   23.3678 C   0  0  0  0  0  0  0  0  0  0  0  0
  -27.1555  -33.5996   24.6483 C   0  0  0  0  0  0  0  0  0  0  0  0
  -27.3004  -22.1490   19.2133 C   0  0  0  0  0  0  0  0  0  0  0  0
  -19.8614  -25.8670   20.0188 C   0  0  0  0  0  0  0  0  0  0  0  0
  -25.0504  -28.0274   24.3277 C   0  0  0  0  0  0  0  0  0  0  0  0
  -30.9366  -21.7060   20.8667 C   0  0  0  0  0  0  0  0  0  0  0  0
  -26.6215  -30.0118   22.7984 C   0  0  0  0  0  0  0  0  0  0  0  0
  -32.1932  -23.5214   22.1202 C   0  0  0  0  0  0  0  0  0  0  0  0
  -20.4457  -27.1736   19.4919 C   0  0  0  0  0  0  0  0  0  0  0  0
  -31.6104  -22.0674   22.2429 C   0  0  0  0  0  0  0  0  0  0  0  0
  -25.4538  -20.2564   21.5976 C   0  0  0  0  0  0  0  0  0  0  0  0
  -21.2230  -27.8772   20.5942 C   0  0  0  0  0  0  0  0  0  0  0  0
  -25.9977  -18.8357   21.4374 C   0  0  0  0  0  0  0  0  0  0  0  0
  -25.3787  -20.9864   20.2584 C   0  0  0  0  0  0  0  0  0  0  0  0
  -27.1831  -19.5861   19.3325 C   0  0  0  0  0  0  0  0  0  0  0  0
  -22.4170  -27.0279   21.0481 C   0  0  1  0  0  0  0  0  0  0  0  0
  -24.3787  -29.1367   23.5242 C   0  0  1  0  0  0  0  0  0  0  0  0
  -27.3299  -18.8293   20.6637 C   0  0  2  0  0  0  0  0  0  0  0  0
  -27.5331  -35.9317   25.4944 C   0  0  0  0  0  0  0  0  0  0  0  0
  -24.7210  -32.6139   20.4989 C   0  0  0  0  0  0  0  0  0  0  0  0
  -25.9968  -34.6153   21.2957 C   0  0  0  0  0  0  0  0  0  0  0  0
  -23.7046  -34.1692   22.1729 C   0  0  0  0  0  0  0  0  0  0  0  0
  -27.9306  -32.6245   27.3329 C   0  0  0  0  0  0  0  0  0  0  0  0
  -29.2969  -23.1679   18.1480 C   0  0  0  0  0  0  0  0  0  0  0  0
  -31.7897  -26.5248   20.6957 C   0  0  0  0  0  0  0  0  0  0  0  0
  -30.7395  -27.4032   21.3669 C   0  0  0  0  0  0  0  0  0  1  0  0
  -25.6237  -32.7007   22.9162 C   0  0  1  0  0  0  0  0  0  0  0  0
  -27.1752  -34.5019   25.8689 C   0  0  2  0  0  0  0  0  0  0  0  0
  -25.0216  -33.4985   21.7253 C   0  0  0  0  0  0  0  0  0  0  0  0
  -26.9749  -16.4132   20.3188 N   0  0  0  0  0  0  0  0  0  0  0  0
  -30.4458  -25.0275   19.2334 N   0  0  0  0  0  0  0  0  0  0  0  0
  -31.2475  -25.1672   20.3199 N   0  0  0  0  0  0  0  0  0  0  0  0
  -27.8540  -17.4193   20.4633 N   0  0  0  0  0  0  0  0  0  0  0  0
  -25.2617  -30.2820   23.2941 N   0  0  0  0  0  0  0  0  0  0  0  0
  -26.6745  -20.9450   19.5762 N   0  0  0  0  0  0  0  0  0  0  0  0
  -30.1707  -17.9077   20.5349 N   0  0  0  0  0  0  0  0  0  0  0  0
  -30.0674  -13.4378   19.8981 N   0  0  0  0  0  0  0  0  0  0  0  0
  -23.0011  -27.6269   22.2278 N   0  0  0  0  0  0  0  0  0  0  0  0
  -25.8932  -33.5082   24.1010 N   0  0  0  0  0  0  0  0  0  0  0  0
  -28.5286  -22.0203   18.5765 N   0  0  0  0  0  0  0  0  0  0  0  0
  -28.1746  -34.0113   26.8596 N   0  3  0  0  0  0  0  0  0  0  0  0
  -31.4481  -15.2479   20.1743 O   0  0  0  0  0  0  0  0  0  0  0  0
  -24.3251  -29.2208   21.1652 O   0  0  0  0  0  0  0  0  0  0  0  0
  -23.5906  -31.8342   23.7778 O   0  0  0  0  0  0  0  0  0  0  0  0
  -28.1602  -33.0354   24.2207 O   0  0  0  0  0  0  0  0  0  0  0  0
  -26.8040  -23.2567   19.4448 O   0  0  0  0  0  0  0  0  0  0  0  0
  -25.5001  -10.2811   19.4408 O   0  0  0  0  0  0  0  0  0  0  0  0
  -30.2904  -26.7830   22.5711 O   0  0  0  0  0  0  0  0  0  1  0  0
  -21.3013   -8.8592   22.7199 F   0  0  0  0  0  0  0  0  0  0  0  0
  -25.6780   -8.0746   21.0969 F   0  0  0  0  0  0  0  0  0  0  0  0
  1  2  1  0  0  0  0
  1  5  2  0  0  0  0
  2  6  2  0  0  0  0
  3  8  2  0  0  0  0
  3 15  1  0  0  0  0
  4  9  1  0  0  0  0
  4 15  2  0  0  0  0
  5 17  1  0  0  0  0
  6 19  1  0  0  0  0
  7 10  2  0  0  0  0
  7 18  1  0  0  0  0
  8 22  1  0  0  0  0
  9 22  2  0  0  0  0
 10 23  1  0  0  0  0
 11 12  2  0  0  0  0
 11 24  1  0  0  0  0
 12 25  1  0  0  0  0
 13 20  1  0  0  0  0
 13 23  2  0  0  0  0
 14 25  2  0  0  0  0
 14 26  1  0  0  0  0
 15 27  1  0  0  0  0
 16 27  1  0  0  0  0
 16 30  2  0  0  0  0
 16 31  1  0  0  0  0
 17 19  2  0  0  0  0
 17 36  1  0  0  0  0
 18 20  2  0  0  0  0
 18 37  1  0  0  0  0
 19 48  1  0  0  0  0
 20 39  1  0  0  0  0
 21 28  2  0  0  0  0
 21 29  1  0  0  0  0
 21 38  1  0  0  0  0
 22 79  1  0  0  0  0
 23 80  1  0  0  0  0
 24 26  2  0  0  0  0
 24 79  1  0  0  0  0
 25 81  1  0  0  0  0
 26 82  1  0  0  0  0
 27 62  2  0  0  0  0
 28 40  1  0  0  0  0
 28 64  1  0  0  0  0
 29 56  1  0  0  0  0
 29 63  2  0  0  0  0
 30 65  1  0  0  0  0
 30 68  1  0  0  0  0
 31 69  1  0  0  0  0
 31 74  2  0  0  0  0
 32 49  1  0  0  0  0
 32 70  1  0  0  0  0
 32 75  2  0  0  0  0
 33 59  1  0  0  0  0
 33 66  1  0  0  0  0
 33 76  2  0  0  0  0
 34 60  1  0  0  0  0
 34 71  1  0  0  0  0
 34 77  2  0  0  0  0
 35 67  1  0  0  0  0
 35 72  1  0  0  0  0
 35 78  2  0  0  0  0
 36 41  1  0  0  0  0
 37 49  1  0  0  0  0
 38 42  1  0  0  0  0
 39 66  1  0  0  0  0
 40 42  1  0  0  0  0
 41 44  1  0  0  0  0
 43 45  1  0  0  0  0
 43 46  1  0  0  0  0
 44 48  1  0  0  0  0
 45 50  1  0  0  0  0
 46 67  1  0  0  0  0
 47 50  1  0  0  0  0
 47 67  1  0  0  0  0
 48 70  1  0  0  0  0
 49 66  1  0  0  0  0
 50 65  1  0  0  0  0
 51 60  1  0  0  0  0
 52 61  1  0  0  0  0
 53 61  1  0  0  0  0
 54 61  1  0  0  0  0
 55 73  1  0  0  0  0
 56 72  1  0  0  0  0
 57 58  1  0  0  0  0
 57 64  1  0  0  0  0
 58 80  1  0  0  0  0
 59 61  1  0  0  0  0
 59 71  1  0  0  0  0
 60 73  1  0  0  0  0
 62 65  1  0  0  0  0
 63 64  1  0  0  0  0
M  CHG  1  73   1
M  ISO  4  35 100  58 101  72 100  80 101
M  END
> <Batch ID>
0183

> <Smiles>
CNC(C)C(=O)NC(C(=O)N1Cc2cc([101O:1][101CH2:1]Cn3nc(C[100NH:0][100C:0](=O)N4CCCC(n5nc(-c6ccc(Oc7ccc(F)cc7F)cc6)c(C(N)=O)c5N)C4)c4c3CCC4)ccc2CC1C(=O)NC1CCCc2ccccc21)C(C)(C)C

> <Shape>
0.244

> <Color>
0.093

> <Negative vol penalty>
0.000

$$$$

  -OEChem-04052323073D

 84 93  0     1  0  0  0  0  0999 V2000
  -33.4286  -30.9736   15.5636 C   0  0  0  0  0  0  0  0  0  0  0  0
  -32.6723  -29.8373   15.8322 C   0  0  0  0  0  0  0  0  0  0  0  0
  -23.1525   -9.9668   19.8820 C   0  0  0  0  0  0  0  0  0  0  0  0
  -23.8522   -9.7842   22.1872 C   0  0  0  0  0  0  0  0  0  0  0  0
  -33.6366  -31.9233   16.5630 C   0  0  0  0  0  0  0  0  0  0  0  0
  -32.1245  -29.6494   17.1007 C   0  0  0  0  0  0  0  0  0  0  0  0
  -27.3057  -28.1024   16.9261 C   0  0  0  0  0  0  0  0  0  0  0  0
  -22.4256   -8.7831   20.0088 C   0  0  0  0  0  0  0  0  0  0  0  0
  -23.1253   -8.6005   22.3141 C   0  0  0  0  0  0  0  0  0  0  0  0
  -27.0788  -26.7575   16.6369 C   0  0  0  0  0  0  0  0  0  0  0  0
  -23.4970   -5.3465   21.4748 C   0  0  0  0  0  0  0  0  0  0  0  0
  -24.1140   -4.2727   22.1165 C   0  0  0  0  0  0  0  0  0  0  0  0
  -26.7488  -26.3144   18.9851 C   0  0  0  0  0  0  0  0  0  0  0  0
  -22.3657   -4.2646   23.7840 C   0  0  0  0  0  0  0  0  0  0  0  0
  -27.2907  -21.7727   16.2719 C   0  0  0  0  0  0  0  0  0  0  0  0
  -23.8659  -10.4673   20.9712 C   0  0  0  0  0  0  0  0  0  0  0  0
  -24.1601  -12.9988   21.0833 C   0  0  0  0  0  0  0  0  0  0  0  0
  -33.0830  -31.7518   17.8415 C   0  0  0  0  0  0  0  0  0  0  0  0
  -27.2665  -28.5621   18.2503 C   0  0  0  0  0  0  0  0  0  0  0  0
  -32.3265  -30.5971   18.1184 C   0  0  0  0  0  0  0  0  0  0  0  0
  -26.9730  -27.6661   19.2882 C   0  0  0  0  0  0  0  0  0  0  0  0
  -22.4120   -8.1000   21.2248 C   0  0  0  0  0  0  0  0  0  0  0  0
  -26.8032  -25.8628   17.6667 C   0  0  0  0  0  0  0  0  0  0  0  0
  -22.3144   -5.8794   21.9877 C   0  0  0  0  0  0  0  0  0  0  0  0
  -23.5484   -3.7317   23.2711 C   0  0  0  0  0  0  0  0  0  0  0  0
  -21.7487   -5.3384   23.1423 C   0  0  0  0  0  0  0  0  0  0  0  0
  -24.6174  -11.6897   20.8406 C   0  0  0  0  0  0  0  0  0  0  0  0
  -26.3411  -22.7011   15.8969 C   0  0  0  0  0  0  0  0  0  0  0  0
  -26.9229  -20.4506   16.1271 C   0  0  0  0  0  0  0  0  0  0  0  0
  -25.2461  -13.7967   20.8178 C   0  0  0  0  0  0  0  0  0  0  0  0
  -24.8844  -21.0535   15.3221 C   0  0  0  0  0  0  0  0  0  0  0  0
  -22.8691  -13.4530   21.5107 C   0  0  0  0  0  0  0  0  0  0  0  0
  -29.3662  -29.9094   20.2200 C   0  0  0  0  0  0  0  0  0  0  0  0
  -26.7815  -30.1839   22.1608 C   0  0  0  0  0  0  0  0  0  0  0  0
  -23.6811  -29.0560   23.0338 C   0  0  0  0  0  0  0  0  0  0  0  0
  -29.4789  -15.0021   17.2812 C   0  0  0  0  0  0  0  0  0  0  0  0
  -33.3748  -32.7825   18.9032 C   0  0  0  0  0  0  0  0  0  0  0  0
  -27.4871  -30.0209   18.5430 C   0  0  0  0  0  0  0  0  0  0  0  0
  -26.8994  -28.1130   20.7246 C   0  0  0  0  0  0  0  0  0  0  0  0
  -32.4467  -32.6916   20.1118 C   0  0  0  0  0  0  0  0  0  0  0  0
  -30.0952  -12.6180   20.0031 C   0  0  0  0  0  0  0  0  0  0  0  0
  -32.3117  -31.2440   20.5734 C   0  0  0  0  0  0  0  0  0  0  0  0
  -28.6819  -12.2385   20.4474 C   0  0  0  0  0  0  0  0  0  0  0  0
  -26.8395  -17.5408   17.6052 C   0  0  0  0  0  0  0  0  0  0  0  0
  -30.1512  -12.9762   18.5198 C   0  0  0  0  0  0  0  0  0  0  0  0
  -27.1564  -16.0496   17.5633 C   0  0  0  0  0  0  0  0  0  0  0  0
  -27.7734  -13.6232   18.5457 C   0  0  0  0  0  0  0  0  0  0  0  0
  -28.9064  -17.2696   16.4614 C   0  0  0  0  0  0  0  0  0  0  0  0
  -31.6950  -30.3698   19.4748 C   0  0  1  0  0  0  0  0  0  0  0  0
  -27.9306  -30.2818   19.9792 C   0  0  1  0  0  0  0  0  0  0  0  0
  -27.6640  -13.3227   20.0470 C   0  0  1  0  0  0  0  0  0  0  0  0
  -27.6133  -18.0688   16.4021 C   0  0  2  0  0  0  0  0  0  0  0  0
  -23.5482  -20.6542   14.7944 C   0  0  0  0  0  0  0  0  0  0  0  0
  -21.8327  -29.4537   24.6838 C   0  0  0  0  0  0  0  0  0  0  0  0
  -28.4116  -28.7765   24.3223 C   0  0  0  0  0  0  0  0  0  0  0  0
  -26.2767  -28.3571   25.5612 C   0  0  0  0  0  0  0  0  0  0  0  0
  -27.0331  -30.6965   25.1395 C   0  0  0  0  0  0  0  0  0  0  0  0
  -21.7541  -29.7255   20.8896 C   0  0  0  0  0  0  0  0  0  0  0  0
  -26.6474  -24.1562   16.0176 C   0  0  0  0  0  0  0  0  0  1  0  0
  -26.1413  -29.3167   23.2177 C   0  0  1  0  0  0  0  0  0  0  0  0
  -22.3815  -29.7917   23.3064 C   0  0  2  0  0  0  0  0  0  0  0  0
  -26.9689  -29.2776   24.5334 C   0  0  0  0  0  0  0  0  0  0  0  0
  -25.8944  -11.6536   20.4507 N   0  0  0  0  0  0  0  0  0  0  0  0
  -25.1233  -22.3755   15.4161 N   0  0  0  0  0  0  0  0  0  0  0  0
  -25.7234  -20.0537   15.6539 N   0  0  0  0  0  0  0  0  0  0  0  0
  -26.2488  -12.9499   20.4463 N   0  0  0  0  0  0  0  0  0  0  0  0
  -27.1287  -29.5480   20.9604 N   0  0  0  0  0  0  0  0  0  0  0  0
  -29.1480  -13.9876   18.1861 N   0  0  0  0  0  0  0  0  0  0  0  0
  -28.5178  -15.9794   17.0260 N   0  0  0  0  0  0  0  0  0  0  0  0
  -25.4317  -15.1329   20.8680 N   0  0  0  0  0  0  0  0  0  0  0  0
  -21.8672  -12.4999   21.7385 N   0  0  0  0  0  0  0  0  0  0  0  0
  -27.8508  -19.4852   16.4936 N   0  0  0  0  0  0  0  0  0  0  0  0
  -30.2641  -30.5761   19.4084 N   0  0  0  0  0  0  0  0  0  0  0  0
  -24.7794  -29.8130   23.3830 N   0  0  0  0  0  0  0  0  0  0  0  0
  -21.3559  -29.4256   22.2890 N   0  3  0  0  0  0  0  0  0  0  0  0
  -22.6069  -14.6694   21.6695 O   0  0  0  0  0  0  0  0  0  0  0  0
  -29.6391  -29.0798   21.0797 O   0  0  0  0  0  0  0  0  0  0  0  0
  -26.9603  -31.3829   22.3891 O   0  0  0  0  0  0  0  0  0  0  0  0
  -23.7182  -27.9218   22.5619 O   0  0  0  0  0  0  0  0  0  0  0  0
  -30.6005  -15.0595   16.7597 O   0  0  0  0  0  0  0  0  0  0  0  0
  -21.7026   -6.9450   21.3491 O   0  0  0  0  0  0  0  0  0  0  0  0
  -26.5804  -24.5403   17.3853 O   0  0  0  0  0  0  0  0  0  1  0  0
  -24.1402   -2.6995   23.8863 F   0  0  0  0  0  0  0  0  0  0  0  0
  -20.6120   -5.8454   23.6391 F   0  0  0  0  0  0  0  0  0  0  0  0
  1  2  1  0  0  0  0
  1  5  2  0  0  0  0
  2  6  2  0  0  0  0
  3  8  2  0  0  0  0
  3 16  1  0  0  0  0
  4  9  1  0  0  0  0
  4 16  2  0  0  0  0
  5 18  1  0  0  0  0
  6 20  1  0  0  0  0
  7 10  2  0  0  0  0
  7 19  1  0  0  0  0
  8 22  1  0  0  0  0
  9 22  2  0  0  0  0
 10 23  1  0  0  0  0
 11 12  2  0  0  0  0
 11 24  1  0  0  0  0
 12 25  1  0  0  0  0
 13 21  1  0  0  0  0
 13 23  2  0  0  0  0
 14 25  2  0  0  0  0
 14 26  1  0  0  0  0
 15 28  1  0  0  0  0
 15 29  2  0  0  0  0
 16 27  1  0  0  0  0
 17 27  1  0  0  0  0
 17 30  2  0  0  0  0
 17 32  1  0  0  0  0
 18 20  2  0  0  0  0
 18 37  1  0  0  0  0
 19 21  2  0  0  0  0
 19 38  1  0  0  0  0
 20 49  1  0  0  0  0
 21 39  1  0  0  0  0
 22 81  1  0  0  0  0
 23 82  1  0  0  0  0
 24 26  2  0  0  0  0
 24 81  1  0  0  0  0
 25 83  1  0  0  0  0
 26 84  1  0  0  0  0
 27 63  2  0  0  0  0
 28 59  1  0  0  0  0
 28 64  2  0  0  0  0
 29 65  1  0  0  0  0
 29 72  1  0  0  0  0
 30 66  1  0  0  0  0
 30 70  1  0  0  0  0
 31 53  1  0  0  0  0
 31 64  1  0  0  0  0
 31 65  2  0  0  0  0
 32 71  1  0  0  0  0
 32 76  2  0  0  0  0
 33 50  1  0  0  0  0
 33 73  1  0  0  0  0
 33 77  2  0  0  0  0
 34 60  1  0  0  0  0
 34 67  1  0  0  0  0
 34 78  2  0  0  0  0
 35 61  1  0  0  0  0
 35 74  1  0  0  0  0
 35 79  2  0  0  0  0
 36 68  1  0  0  0  0
 36 69  1  0  0  0  0
 36 80  2  0  0  0  0
 37 40  1  0  0  0  0
 38 50  1  0  0  0  0
 39 67  1  0  0  0  0
 40 42  1  0  0  0  0
 41 43  1  0  0  0  0
 41 45  1  0  0  0  0
 42 49  1  0  0  0  0
 43 51  1  0  0  0  0
 44 46  1  0  0  0  0
 44 52  1  0  0  0  0
 45 68  1  0  0  0  0
 46 69  1  0  0  0  0
 47 51  1  0  0  0  0
 47 68  1  0  0  0  0
 48 52  1  0  0  0  0
 48 69  1  0  0  0  0
 49 73  1  0  0  0  0
 50 67  1  0  0  0  0
 51 66  1  0  0  0  0
 52 72  1  0  0  0  0
 54 61  1  0  0  0  0
 55 62  1  0  0  0  0
 56 62  1  0  0  0  0
 57 62  1  0  0  0  0
 58 75  1  0  0  0  0
 59 82  1  0  0  0  0
 60 62  1  0  0  0  0
 60 74  1  0  0  0  0
 61 75  1  0  0  0  0
 63 66  1  0  0  0  0
M  CHG  1  75   1
M  ISO  4  36 100  59 101  69 100  82 101
M  END
> <Batch ID>
0183

> <Smiles>
CNC(C)C(=O)NC(C(=O)N1Cc2cc([101O:1][101CH2:1]c3cc(NC4CC[100N:0]([100C:0](=O)N5CCCC(n6nc(-c7ccc(Oc8ccc(F)cc8F)cc7)c(C(N)=O)c6N)C5)C4)nc(C)n3)ccc2CC1C(=O)NC1CCCc2ccccc21)C(C)(C)C

> <Shape>
0.232

> <Color>
0.185

> <Negative vol penalty>
0.000

$$$$

  -OEChem-04052323073D

 83 92  0     1  0  0  0  0  0999 V2000
  -27.2123  -22.5146   21.7008 C   0  0  0  0  0  0  0  0  0  0  0  0
  -27.4244  -21.5853   20.6874 C   0  0  0  0  0  0  0  0  0  0  0  0
  -26.6533  -28.0076   19.0310 C   0  0  0  0  0  0  0  0  0  0  0  0
  -26.1878  -26.7460   21.0382 C   0  0  0  0  0  0  0  0  0  0  0  0
  -28.2069  -22.7490   22.6494 C   0  0  0  0  0  0  0  0  0  0  0  0
  -28.6317  -20.8907   20.6214 C   0  0  0  0  0  0  0  0  0  0  0  0
  -26.7187  -17.1650   23.2607 C   0  0  0  0  0  0  0  0  0  0  0  0
  -26.2149  -29.1721   19.6612 C   0  0  0  0  0  0  0  0  0  0  0  0
  -25.7494  -27.9106   21.6684 C   0  0  0  0  0  0  0  0  0  0  0  0
  -25.3785  -17.2239   22.8811 C   0  0  0  0  0  0  0  0  0  0  0  0
  -27.1369  -30.6118   23.1514 C   0  0  0  0  0  0  0  0  0  0  0  0
  -27.5785  -30.8478   24.4533 C   0  0  0  0  0  0  0  0  0  0  0  0
  -25.9604  -16.3430   20.7121 C   0  0  0  0  0  0  0  0  0  0  0  0
  -25.2903  -30.8503   25.2288 C   0  0  0  0  0  0  0  0  0  0  0  0
  -18.9071  -17.2179   20.6386 C   0  0  0  0  0  0  0  0  0  0  0  0
  -26.6397  -26.7945   19.7194 C   0  0  0  0  0  0  0  0  0  0  0  0
  -28.4020  -25.0761   19.0492 C   0  0  0  0  0  0  0  0  0  0  0  0
  -29.4232  -22.0498   22.6007 C   0  0  0  0  0  0  0  0  0  0  0  0
  -27.6930  -16.7041   22.3636 C   0  0  0  0  0  0  0  0  0  0  0  0
  -29.6440  -21.1169   21.5695 C   0  0  0  0  0  0  0  0  0  0  0  0
  -27.3120  -16.2768   21.0836 C   0  0  0  0  0  0  0  0  0  0  0  0
  -25.7630  -29.1237   20.9799 C   0  0  0  0  0  0  0  0  0  0  0  0
  -24.9996  -16.8156   21.6056 C   0  0  0  0  0  0  0  0  0  0  0  0
  -25.7721  -30.4950   22.8882 C   0  0  0  0  0  0  0  0  0  0  0  0
  -26.6552  -30.9671   25.4920 C   0  0  0  0  0  0  0  0  0  0  0  0
  -24.8488  -30.6143   23.9269 C   0  0  0  0  0  0  0  0  0  0  0  0
  -27.0919  -25.5910   19.0688 C   0  0  0  0  0  0  0  0  0  0  0  0
  -20.9562  -18.2313   20.6994 C   0  0  0  0  0  0  0  0  0  0  0  0
  -19.3330  -16.3004   21.5737 C   0  0  0  0  0  0  0  0  0  0  0  0
  -21.3820  -17.3144   21.6351 C   0  0  0  0  0  0  0  0  0  0  0  0
  -28.3075  -23.9255   18.3052 C   0  0  0  0  0  0  0  0  0  0  0  0
  -29.5974  -25.5917   19.6500 C   0  0  0  0  0  0  0  0  0  0  0  0
  -30.2676  -17.9756   21.0002 C   0  0  0  0  0  0  0  0  0  0  0  0
  -30.7015  -14.9529   19.9059 C   0  0  0  0  0  0  0  0  0  0  0  0
  -29.3242  -11.9320   19.1161 C   0  0  0  0  0  0  0  0  0  0  0  0
  -23.7534  -20.2295   17.1221 C   0  0  0  0  0  0  0  0  0  0  0  0
  -30.4868  -22.3715   23.6205 C   0  0  0  0  0  0  0  0  0  0  0  0
  -29.1308  -16.6216   22.7976 C   0  0  0  0  0  0  0  0  0  0  0  0
  -28.3165  -15.7549   20.0901 C   0  0  0  0  0  0  0  0  0  0  0  0
  -31.5922  -21.3217   23.6996 C   0  0  0  0  0  0  0  0  0  0  0  0
  -25.7934  -21.9216   14.7858 C   0  0  0  0  0  0  0  0  0  0  0  0
  -32.0688  -20.9419   22.3012 C   0  0  0  0  0  0  0  0  0  0  0  0
  -26.4577  -23.0291   15.5990 C   0  0  0  0  0  0  0  0  0  0  0  0
  -21.1959  -20.6261   19.7213 C   0  0  0  0  0  0  0  0  0  0  0  0
  -24.3548  -21.7078   15.2371 C   0  0  0  0  0  0  0  0  0  0  0  0
  -22.3010  -21.3152   18.9322 C   0  0  0  0  0  0  0  0  0  0  0  0
  -22.7008  -18.9527   18.9643 C   0  0  0  0  0  0  0  0  0  0  0  0
  -24.9037  -22.4586   17.5361 C   0  0  0  0  0  0  0  0  0  0  0  0
  -30.9306  -20.3255   21.4789 C   0  0  1  0  0  0  0  0  0  0  0  0
  -21.8687  -19.3288   20.1984 C   0  0  2  0  0  0  0  0  0  0  0  0
  -30.1091  -16.6192   21.6270 C   0  0  1  0  0  0  0  0  0  0  0  0
  -26.3592  -22.7304   17.1030 C   0  0  2  0  0  0  0  0  0  0  0  0
  -18.4175  -15.2284   22.0516 C   0  0  0  0  0  0  0  0  0  0  0  0
  -29.9239   -9.6703   18.2092 C   0  0  0  0  0  0  0  0  0  0  0  0
  -30.8791  -16.1293   17.0962 C   0  0  0  0  0  0  0  0  0  0  0  0
  -30.5213  -13.8253   16.1843 C   0  0  0  0  0  0  0  0  0  0  0  0
  -32.5336  -14.3159   17.5744 C   0  0  0  0  0  0  0  0  0  0  0  0
  -28.4451  -10.5763   21.5957 C   0  0  0  0  0  0  0  0  0  0  0  0
  -22.7617  -17.3612   22.1973 C   0  0  0  0  0  0  0  0  0  1  0  0
  -30.2642  -14.1862   18.6812 C   0  0  1  0  0  0  0  0  0  0  0  0
  -29.7410  -10.5137   19.4614 C   0  0  2  0  0  0  0  0  0  0  0  0
  -31.0307  -14.6258   17.4019 C   0  0  0  0  0  0  0  0  0  0  0  0
  -19.7111  -18.1997   20.1846 N   0  0  0  0  0  0  0  0  0  0  0  0
  -26.2286  -24.8301   18.3909 N   0  0  0  0  0  0  0  0  0  0  0  0
  -20.5781  -16.3323   22.0888 N   0  0  0  0  0  0  0  0  0  0  0  0
  -26.9977  -23.8253   17.9383 N   0  0  0  0  0  0  0  0  0  0  0  0
  -29.7108  -15.6994   20.5594 N   0  0  0  0  0  0  0  0  0  0  0  0
  -24.2685  -21.4517   16.6760 N   0  0  0  0  0  0  0  0  0  0  0  0
  -23.0539  -20.2179   18.3283 N   0  0  0  0  0  0  0  0  0  0  0  0
  -29.2179  -22.9998   17.9354 N   0  0  0  0  0  0  0  0  0  0  0  0
  -29.5169  -26.7851   20.3805 N   0  0  0  0  0  0  0  0  0  0  0  0
  -30.7088  -18.9510   21.8739 N   0  0  0  0  0  0  0  0  0  0  0  0
  -30.4120  -12.7726   19.0102 N   0  0  0  0  0  0  0  0  0  0  0  0
  -28.7092   -9.8647   20.3187 N   0  3  0  0  0  0  0  0  0  0  0  0
  -30.7073  -25.0199   19.5284 O   0  0  0  0  0  0  0  0  0  0  0  0
  -30.0101  -18.1257   19.8116 O   0  0  0  0  0  0  0  0  0  0  0  0
  -31.8771  -14.8859   20.2735 O   0  0  0  0  0  0  0  0  0  0  0  0
  -28.1512  -12.2604   18.9528 O   0  0  0  0  0  0  0  0  0  0  0  0
  -23.8769  -19.1964   16.4504 O   0  0  0  0  0  0  0  0  0  0  0  0
  -25.3354  -30.2599   21.5953 O   0  0  0  0  0  0  0  0  0  0  0  0
  -23.6833  -16.8730   21.2297 O   0  0  0  0  0  0  0  0  0  1  0  0
  -27.0794  -31.1922   26.7424 F   0  0  0  0  0  0  0  0  0  0  0  0
  -23.5364  -30.5019   23.6804 F   0  0  0  0  0  0  0  0  0  0  0  0
  1  2  1  0  0  0  0
  1  5  2  0  0  0  0
  2  6  2  0  0  0  0
  3  8  2  0  0  0  0
  3 16  1  0  0  0  0
  4  9  1  0  0  0  0
  4 16  2  0  0  0  0
  5 18  1  0  0  0  0
  6 20  1  0  0  0  0
  7 10  2  0  0  0  0
  7 19  1  0  0  0  0
  8 22  1  0  0  0  0
  9 22  2  0  0  0  0
 10 23  1  0  0  0  0
 11 12  2  0  0  0  0
 11 24  1  0  0  0  0
 12 25  1  0  0  0  0
 13 21  1  0  0  0  0
 13 23  2  0  0  0  0
 14 25  2  0  0  0  0
 14 26  1  0  0  0  0
 15 29  1  0  0  0  0
 15 63  2  0  0  0  0
 16 27  1  0  0  0  0
 17 27  1  0  0  0  0
 17 31  2  0  0  0  0
 17 32  1  0  0  0  0
 18 20  2  0  0  0  0
 18 37  1  0  0  0  0
 19 21  2  0  0  0  0
 19 38  1  0  0  0  0
 20 49  1  0  0  0  0
 21 39  1  0  0  0  0
 22 80  1  0  0  0  0
 23 81  1  0  0  0  0
 24 26  2  0  0  0  0
 24 80  1  0  0  0  0
 25 82  1  0  0  0  0
 26 83  1  0  0  0  0
 27 64  2  0  0  0  0
 28 30  2  0  0  0  0
 28 50  1  0  0  0  0
 28 63  1  0  0  0  0
 29 53  1  0  0  0  0
 29 65  2  0  0  0  0
 30 59  1  0  0  0  0
 30 65  1  0  0  0  0
 31 66  1  0  0  0  0
 31 70  1  0  0  0  0
 32 71  1  0  0  0  0
 32 75  2  0  0  0  0
 33 51  1  0  0  0  0
 33 72  1  0  0  0  0
 33 76  2  0  0  0  0
 34 60  1  0  0  0  0
 34 67  1  0  0  0  0
 34 77  2  0  0  0  0
 35 61  1  0  0  0  0
 35 73  1  0  0  0  0
 35 78  2  0  0  0  0
 36 68  1  0  0  0  0
 36 69  1  0  0  0  0
 36 79  2  0  0  0  0
 37 40  1  0  0  0  0
 38 51  1  0  0  0  0
 39 67  1  0  0  0  0
 40 42  1  0  0  0  0
 41 43  1  0  0  0  0
 41 45  1  0  0  0  0
 42 49  1  0  0  0  0
 43 52  1  0  0  0  0
 44 46  1  0  0  0  0
 44 50  1  0  0  0  0
 45 68  1  0  0  0  0
 46 69  1  0  0  0  0
 47 50  1  0  0  0  0
 47 69  1  0  0  0  0
 48 52  1  0  0  0  0
 48 68  1  0  0  0  0
 49 72  1  0  0  0  0
 51 67  1  0  0  0  0
 52 66  1  0  0  0  0
 54 61  1  0  0  0  0
 55 62  1  0  0  0  0
 56 62  1  0  0  0  0
 57 62  1  0  0  0  0
 58 74  1  0  0  0  0
 59 81  1  0  0  0  0
 60 62  1  0  0  0  0
 60 73  1  0  0  0  0
 61 74  1  0  0  0  0
 64 66  1  0  0  0  0
M  CHG  1  74   1
M  ISO  4  36 100  59 101  69 100  81 101
M  END
> <Batch ID>
0183

> <Smiles>
CNC(C)C(=O)NC(C(=O)N1Cc2cc([101O:1][101CH2:1]c3nc(C)cnc3C3CC[100N:0]([100C:0](=O)N4CCCC(n5nc(-c6ccc(Oc7ccc(F)cc7F)cc6)c(C(N)=O)c5N)C4)C3)ccc2CC1C(=O)NC1CCCc2ccccc21)C(C)(C)C

> <Shape>
0.202

> <Color>
0.073

> <Negative vol penalty>
0.000

$$$$

  -OEChem-04052323073D

 81 90  0     1  0  0  0  0  0999 V2000
  -25.9977  -38.4582   20.2195 C   0  0  0  0  0  0  0  0  0  0  0  0
  -26.2987  -37.3672   19.4105 C   0  0  0  0  0  0  0  0  0  0  0  0
  -26.4767  -10.1422   19.1063 C   0  0  0  0  0  0  0  0  0  0  0  0
  -26.1628   -9.6882   21.4584 C   0  0  0  0  0  0  0  0  0  0  0  0
  -26.0177  -38.3222   21.6070 C   0  0  0  0  0  0  0  0  0  0  0  0
  -26.6211  -36.1399   19.9885 C   0  0  0  0  0  0  0  0  0  0  0  0
  -25.9909  -29.0955   18.8500 C   0  0  0  0  0  0  0  0  0  0  0  0
  -27.1042   -8.9062   18.9514 C   0  0  0  0  0  0  0  0  0  0  0  0
  -26.7902   -8.4520   21.3035 C   0  0  0  0  0  0  0  0  0  0  0  0
  -26.7669  -27.9382   18.8041 C   0  0  0  0  0  0  0  0  0  0  0  0
  -25.9868   -5.3805   20.1455 C   0  0  0  0  0  0  0  0  0  0  0  0
  -25.3914   -4.2731   20.7492 C   0  0  0  0  0  0  0  0  0  0  0  0
  -26.6926  -27.8001   21.2113 C   0  0  0  0  0  0  0  0  0  0  0  0
  -27.3890   -3.9135   22.0597 C   0  0  0  0  0  0  0  0  0  0  0  0
  -30.7897  -23.0999   18.8041 C   0  0  0  0  0  0  0  0  0  0  0  0
  -26.0061  -10.5333   20.3598 C   0  0  0  0  0  0  0  0  0  0  0  0
  -23.9845  -12.0889   20.3913 C   0  0  0  0  0  0  0  0  0  0  0  0
  -26.3310  -37.0901   22.2022 C   0  0  0  0  0  0  0  0  0  0  0  0
  -25.5682  -29.6208   20.0795 C   0  0  0  0  0  0  0  0  0  0  0  0
  -26.6466  -35.9876   21.3852 C   0  0  0  0  0  0  0  0  0  0  0  0
  -25.9091  -28.9628   21.2699 C   0  0  0  0  0  0  0  0  0  0  0  0
  -27.2609   -8.0611   20.0499 C   0  0  0  0  0  0  0  0  0  0  0  0
  -27.1204  -27.2919   19.9850 C   0  0  0  0  0  0  0  0  0  0  0  0
  -27.2834   -5.7545   20.4988 C   0  0  0  0  0  0  0  0  0  0  0  0
  -26.0924   -3.5395   21.7064 C   0  0  0  0  0  0  0  0  0  0  0  0
  -27.9844   -5.0210   21.4560 C   0  0  0  0  0  0  0  0  0  0  0  0
  -25.3584  -11.8103   20.5206 C   0  0  0  0  0  0  0  0  0  0  0  0
  -29.0987  -24.3904   18.8795 C   0  0  0  0  0  0  0  0  0  0  0  0
  -28.6946  -23.2199   19.4770 C   0  0  0  0  0  0  0  0  0  0  0  0
  -23.8826  -13.4361   20.6386 C   0  0  0  0  0  0  0  0  0  0  0  0
  -22.8976  -11.2087   20.0758 C   0  0  0  0  0  0  0  0  0  0  0  0
  -26.0477  -32.3502   21.6365 C   0  0  0  0  0  0  0  0  0  0  0  0
  -23.8711  -31.1062   23.6949 C   0  0  0  0  0  0  0  0  0  0  0  0
  -22.3469  -28.3330   24.9729 C   0  0  0  0  0  0  0  0  0  0  0  0
  -27.9140  -17.7765   19.9998 C   0  0  0  0  0  0  0  0  0  0  0  0
  -26.3860  -37.0039   23.7069 C   0  0  0  0  0  0  0  0  0  0  0  0
  -24.7091  -30.8551   20.1105 C   0  0  0  0  0  0  0  0  0  0  0  0
  -25.4636  -29.4747   22.6145 C   0  0  0  0  0  0  0  0  0  0  0  0
  -26.3717  -35.5720   24.2359 C   0  0  0  0  0  0  0  0  0  0  0  0
  -25.9792  -16.9818   23.0392 C   0  0  0  0  0  0  0  0  0  0  0  0
  -27.3574  -34.7057   23.4582 C   0  0  0  0  0  0  0  0  0  0  0  0
  -25.5227  -15.5586   22.7326 C   0  0  0  0  0  0  0  0  0  0  0  0
  -30.3450  -19.9206   19.0275 C   0  0  0  0  0  0  0  0  0  0  0  0
  -27.3598  -17.2796   22.4557 C   0  0  0  0  0  0  0  0  0  0  0  0
  -27.0014  -15.5812   20.6861 C   0  0  0  0  0  0  0  0  0  0  0  0
  -26.9769  -34.6335   21.9744 C   0  0  1  0  0  0  0  0  0  0  0  0
  -24.7661  -31.5893   21.4466 C   0  0  1  0  0  0  0  0  0  0  0  0
  -25.5941  -15.2792   21.2235 C   0  0  1  0  0  0  0  0  0  0  0  0
  -29.8865  -21.0490   19.9191 C   0  0  2  0  0  0  0  0  0  0  0  0
  -28.9121  -19.9794   19.4679 C   0  0  2  0  0  0  0  0  0  0  0  0
  -27.4106  -22.8156   20.0773 C   0  0  0  0  0  0  0  0  0  0  0  0
  -20.6365  -27.6308   26.6696 C   0  0  0  0  0  0  0  0  0  0  0  0
  -25.8902  -31.5958   25.9295 C   0  0  0  0  0  0  0  0  0  0  0  0
  -24.5576  -30.0484   27.3779 C   0  0  0  0  0  0  0  0  0  0  0  0
  -23.5246  -32.1511   26.5210 C   0  0  0  0  0  0  0  0  0  0  0  0
  -20.6182  -27.1203   22.8993 C   0  0  0  0  0  0  0  0  0  0  0  0
  -28.3085  -25.6471   18.6614 C   0  0  0  0  0  0  0  0  0  1  0  0
  -23.9398  -30.2343   24.9254 C   0  0  1  0  0  0  0  0  0  0  0  0
  -20.8839  -28.0104   25.2179 C   0  0  2  0  0  0  0  0  0  0  0  0
  -24.4882  -30.9986   26.1634 C   0  0  0  0  0  0  0  0  0  0  0  0
  -30.4038  -24.3092   18.4626 N   0  0  0  0  0  0  0  0  0  0  0  0
  -26.0777  -12.8935   20.8262 N   0  0  0  0  0  0  0  0  0  0  0  0
  -29.7884  -22.4027   19.4209 N   0  0  0  0  0  0  0  0  0  0  0  0
  -25.1522  -13.8658   20.8909 N   0  0  0  0  0  0  0  0  0  0  0  0
  -24.6305  -30.6883   22.5929 N   0  0  0  0  0  0  0  0  0  0  0  0
  -27.4258  -16.9453   21.0242 N   0  0  0  0  0  0  0  0  0  0  0  0
  -22.8318  -14.2832   20.6627 N   0  0  0  0  0  0  0  0  0  0  0  0
  -23.1786   -9.8541   19.8511 N   0  0  0  0  0  0  0  0  0  0  0  0
  -25.8766  -33.7140   21.7790 N   0  0  0  0  0  0  0  0  0  0  0  0
  -22.6024  -29.6812   25.1090 N   0  0  0  0  0  0  0  0  0  0  0  0
  -28.3779  -19.0241   20.4014 N   0  0  0  0  0  0  0  0  0  0  0  0
  -20.4525  -26.8745   24.3550 N   0  3  0  0  0  0  0  0  0  0  0  0
  -21.7146  -11.6145   19.9796 O   0  0  0  0  0  0  0  0  0  0  0  0
  -27.1130  -31.7446   21.6541 O   0  0  0  0  0  0  0  0  0  0  0  0
  -23.1639  -32.1168   23.7086 O   0  0  0  0  0  0  0  0  0  0  0  0
  -23.1805  -27.4744   24.6929 O   0  0  0  0  0  0  0  0  0  0  0  0
  -27.9409  -17.4318   18.8132 O   0  0  0  0  0  0  0  0  0  0  0  0
  -27.8729   -6.8547   19.8991 O   0  0  0  0  0  0  0  0  0  0  0  0
  -27.8783  -26.1625   19.9430 O   0  0  0  0  0  0  0  0  0  1  0  0
  -25.5199   -2.4770   22.2872 F   0  0  0  0  0  0  0  0  0  0  0  0
  -29.2299   -5.3761   21.8004 F   0  0  0  0  0  0  0  0  0  0  0  0
  1  2  1  0  0  0  0
  1  5  2  0  0  0  0
  2  6  2  0  0  0  0
  3  8  2  0  0  0  0
  3 16  1  0  0  0  0
  4  9  1  0  0  0  0
  4 16  2  0  0  0  0
  5 18  1  0  0  0  0
  6 20  1  0  0  0  0
  7 10  2  0  0  0  0
  7 19  1  0  0  0  0
  8 22  1  0  0  0  0
  9 22  2  0  0  0  0
 10 23  1  0  0  0  0
 11 12  2  0  0  0  0
 11 24  1  0  0  0  0
 12 25  1  0  0  0  0
 13 21  1  0  0  0  0
 13 23  2  0  0  0  0
 14 25  2  0  0  0  0
 14 26  1  0  0  0  0
 15 61  2  0  0  0  0
 15 63  1  0  0  0  0
 16 27  1  0  0  0  0
 17 27  1  0  0  0  0
 17 30  2  0  0  0  0
 17 31  1  0  0  0  0
 18 20  2  0  0  0  0
 18 36  1  0  0  0  0
 19 21  2  0  0  0  0
 19 37  1  0  0  0  0
 20 46  1  0  0  0  0
 21 38  1  0  0  0  0
 22 78  1  0  0  0  0
 23 79  1  0  0  0  0
 24 26  2  0  0  0  0
 24 78  1  0  0  0  0
 25 80  1  0  0  0  0
 26 81  1  0  0  0  0
 27 62  2  0  0  0  0
 28 29  2  0  0  0  0
 28 57  1  0  0  0  0
 28 61  1  0  0  0  0
 29 51  1  0  0  0  0
 29 63  1  0  0  0  0
 30 64  1  0  0  0  0
 30 67  1  0  0  0  0
 31 68  1  0  0  0  0
 31 73  2  0  0  0  0
 32 47  1  0  0  0  0
 32 69  1  0  0  0  0
 32 74  2  0  0  0  0
 33 58  1  0  0  0  0
 33 65  1  0  0  0  0
 33 75  2  0  0  0  0
 34 59  1  0  0  0  0
 34 70  1  0  0  0  0
 34 76  2  0  0  0  0
 35 66  1  0  0  0  0
 35 71  1  0  0  0  0
 35 77  2  0  0  0  0
 36 39  1  0  0  0  0
 37 47  1  0  0  0  0
 38 65  1  0  0  0  0
 39 41  1  0  0  0  0
 40 42  1  0  0  0  0
 40 44  1  0  0  0  0
 41 46  1  0  0  0  0
 42 48  1  0  0  0  0
 43 49  1  0  0  0  0
 43 50  1  0  0  0  0
 44 66  1  0  0  0  0
 45 48  1  0  0  0  0
 45 66  1  0  0  0  0
 46 69  1  0  0  0  0
 47 65  1  0  0  0  0
 48 64  1  0  0  0  0
 49 50  1  0  0  0  0
 49 63  1  0  0  0  0
 50 71  1  0  0  0  0
 52 59  1  0  0  0  0
 53 60  1  0  0  0  0
 54 60  1  0  0  0  0
 55 60  1  0  0  0  0
 56 72  1  0  0  0  0
 57 79  1  0  0  0  0
 58 60  1  0  0  0  0
 58 70  1  0  0  0  0
 59 72  1  0  0  0  0
 62 64  1  0  0  0  0
M  CHG  1  72   1
M  ISO  4  35 100  57 101  71 100  79 101
M  END
> <Batch ID>
0183

> <Smiles>
CNC(C)C(=O)NC(C(=O)N1Cc2cc([101O:1][101CH2:1]c3ncn(C4CC4[100NH:0][100C:0](=O)N4CCCC(n5nc(-c6ccc(Oc7ccc(F)cc7F)cc6)c(C(N)=O)c5N)C4)c3C)ccc2CC1C(=O)NC1CCCc2ccccc21)C(C)(C)C

> <Shape>
0.254

> <Color>
0.098

> <Negative vol penalty>
0.000

$$$$

  -OEChem-04052323073D

 83 92  0     1  0  0  0  0  0999 V2000
  -26.1671  -10.6163   23.0599 C   0  0  0  0  0  0  0  0  0  0  0  0
  -27.0989  -11.6482   23.1082 C   0  0  0  0  0  0  0  0  0  0  0  0
  -22.6985  -29.4521   21.1341 C   0  0  0  0  0  0  0  0  0  0  0  0
  -23.9840  -28.7900   23.0695 C   0  0  0  0  0  0  0  0  0  0  0  0
  -25.1373  -10.6519   22.1206 C   0  0  0  0  0  0  0  0  0  0  0  0
  -27.0020  -12.7159   22.2164 C   0  0  0  0  0  0  0  0  0  0  0  0
  -28.4224  -18.5708   23.3153 C   0  0  0  0  0  0  0  0  0  0  0  0
  -21.6033  -29.7232   21.9542 C   0  0  0  0  0  0  0  0  0  0  0  0
  -22.8888  -29.0612   23.8897 C   0  0  0  0  0  0  0  0  0  0  0  0
  -29.5553  -19.3310   23.0281 C   0  0  0  0  0  0  0  0  0  0  0  0
  -18.3534  -30.2475   23.4993 C   0  0  0  0  0  0  0  0  0  0  0  0
  -17.1021  -29.7920   23.0844 C   0  0  0  0  0  0  0  0  0  0  0  0
  -28.4880  -20.1548   21.0277 C   0  0  0  0  0  0  0  0  0  0  0  0
  -17.9206  -27.5190   23.1109 C   0  0  0  0  0  0  0  0  0  0  0  0
  -23.8889  -28.9855   21.6917 C   0  0  0  0  0  0  0  0  0  0  0  0
  -26.0437  -29.5959   20.4704 C   0  0  0  0  0  0  0  0  0  0  0  0
  -25.0221  -11.7253   21.2233 C   0  0  0  0  0  0  0  0  0  0  0  0
  -27.3162  -18.5886   22.4537 C   0  0  0  0  0  0  0  0  0  0  0  0
  -25.9705  -12.7652   21.2634 C   0  0  0  0  0  0  0  0  0  0  0  0
  -27.3413  -19.3960   21.3075 C   0  0  0  0  0  0  0  0  0  0  0  0
  -21.6984  -29.5278   23.3320 C   0  0  0  0  0  0  0  0  0  0  0  0
  -29.5894  -20.1209   21.8826 C   0  0  0  0  0  0  0  0  0  0  0  0
  -19.3885  -29.3388   23.7200 C   0  0  0  0  0  0  0  0  0  0  0  0
  -16.8856  -28.4278   22.8902 C   0  0  0  0  0  0  0  0  0  0  0  0
  -19.1720  -27.9745   23.5258 C   0  0  0  0  0  0  0  0  0  0  0  0
  -25.0203  -28.7047   20.8450 C   0  0  0  0  0  0  0  0  0  0  0  0
  -26.8712  -28.8503   19.6668 C   0  0  0  0  0  0  0  0  0  0  0  0
  -33.1823  -22.2602   20.9648 C   0  0  0  0  0  0  0  0  0  0  0  0
  -34.0635  -24.2003   21.6692 C   0  0  0  0  0  0  0  0  0  0  0  0
  -32.7079  -24.1673   19.8808 C   0  0  0  0  0  0  0  0  0  0  0  0
  -26.2297  -30.9744   20.8179 C   0  0  0  0  0  0  0  0  0  0  0  0
  -25.8076  -16.4125   20.6950 C   0  0  0  0  0  0  0  0  0  0  0  0
  -23.7337  -18.8489   20.1611 C   0  0  0  0  0  0  0  0  0  0  0  0
  -23.1847  -22.2155   20.0544 C   0  0  0  0  0  0  0  0  0  0  0  0
  -29.6495  -24.1321   18.5872 C   0  0  0  0  0  0  0  0  0  0  0  0
  -23.9196  -11.6963   20.1945 C   0  0  0  0  0  0  0  0  0  0  0  0
  -26.0914  -17.7835   22.7916 C   0  0  0  0  0  0  0  0  0  0  0  0
  -26.1720  -19.4657   20.3609 C   0  0  0  0  0  0  0  0  0  0  0  0
  -23.6687  -13.0487   19.5324 C   0  0  0  0  0  0  0  0  0  0  0  0
  -26.2241  -24.2677   17.6254 C   0  0  0  0  0  0  0  0  0  0  0  0
  -24.9874  -13.6908   19.1134 C   0  0  0  0  0  0  0  0  0  0  0  0
  -25.6890  -25.5034   18.3511 C   0  0  0  0  0  0  0  0  0  0  0  0
  -34.2736  -19.9261   21.0252 C   0  0  0  0  0  0  0  0  0  0  0  0
  -33.2920  -19.9181   19.8954 C   0  0  0  0  0  0  0  0  0  0  0  0
  -27.2524  -23.5184   18.4699 C   0  0  0  0  0  0  0  0  0  0  0  0
  -27.8358  -25.5805   19.6868 C   0  0  0  0  0  0  0  0  0  0  0  0
  -25.8844  -13.9526   20.3292 C   0  0  1  0  0  0  0  0  0  0  0  0
  -25.2217  -17.4798   21.5755 C   0  0  1  0  0  0  0  0  0  0  0  0
  -26.8369  -26.4003   18.8522 C   0  0  2  0  0  0  0  0  0  0  0  0
  -33.0254  -20.7858   21.1122 C   0  0  0  0  0  0  0  0  0  0  0  0
  -34.9229  -24.9576   22.6235 C   0  0  0  0  0  0  0  0  0  0  0  0
  -21.3996  -23.9053   19.5489 C   0  0  0  0  0  0  0  0  0  0  0  0
  -24.1067  -18.3460   17.1748 C   0  0  0  0  0  0  0  0  0  0  0  0
  -23.0965  -20.5953   16.7407 C   0  0  0  0  0  0  0  0  0  0  0  0
  -21.7509  -18.8218   17.8663 C   0  0  0  0  0  0  0  0  0  0  0  0
  -23.2832  -23.3130   22.8012 C   0  0  0  0  0  0  0  0  0  0  0  0
  -32.0063  -24.8857   18.7789 C   0  0  0  0  0  0  0  0  0  0  0  0
  -31.9499  -20.3569   22.0500 C   0  0  0  0  0  0  0  0  0  1  0  0
  -23.6215  -19.9524   19.1369 C   0  0  1  0  0  0  0  0  0  0  0  0
  -22.0723  -23.0734   20.6298 C   0  0  2  0  0  0  0  0  0  0  0  0
  -23.1668  -19.4263   17.7463 C   0  0  0  0  0  0  0  0  0  0  0  0
  -25.1808  -27.4861   20.3221 N   0  0  0  0  0  0  0  0  0  0  0  0
  -33.9702  -22.8749   21.8620 N   0  0  0  0  0  0  0  0  0  0  0  0
  -32.5207  -22.8394   19.9499 N   0  0  0  0  0  0  0  0  0  0  0  0
  -33.4630  -24.9136   20.7029 N   0  0  0  0  0  0  0  0  0  0  0  0
  -26.3147  -27.6064   19.6108 N   0  0  0  0  0  0  0  0  0  0  0  0
  -24.9999  -18.6556   20.7314 N   0  0  0  0  0  0  0  0  0  0  0  0
  -28.3146  -24.4251   18.9119 N   0  0  0  0  0  0  0  0  0  0  0  0
  -28.0132  -29.1440   19.0096 N   0  0  0  0  0  0  0  0  0  0  0  0
  -25.2853  -31.5862   21.6535 N   0  0  0  0  0  0  0  0  0  0  0  0
  -25.4361  -15.1282   21.0443 N   0  0  0  0  0  0  0  0  0  0  0  0
  -22.7353  -20.9570   19.7147 N   0  0  0  0  0  0  0  0  0  0  0  0
  -30.5931  -25.0465   19.0392 N   0  0  0  0  0  0  0  0  0  0  0  0
  -22.6141  -23.9980   21.6654 N   0  3  0  0  0  0  0  0  0  0  0  0
  -27.1957  -31.6485   20.3865 O   0  0  0  0  0  0  0  0  0  0  0  0
  -26.5413  -16.7308   19.7664 O   0  0  0  0  0  0  0  0  0  0  0  0
  -22.7331  -18.1878   20.4497 O   0  0  0  0  0  0  0  0  0  0  0  0
  -24.3362  -22.6225   19.9164 O   0  0  0  0  0  0  0  0  0  0  0  0
  -29.9756  -23.1327   17.9379 O   0  0  0  0  0  0  0  0  0  0  0  0
  -20.6300  -29.7925   24.1326 O   0  0  0  0  0  0  0  0  0  0  0  0
  -30.6941  -20.8634   21.5996 O   0  0  0  0  0  0  0  0  0  1  0  0
  -15.6834  -27.9904   22.4932 F   0  0  0  0  0  0  0  0  0  0  0  0
  -20.1621  -27.0966   23.7374 F   0  0  0  0  0  0  0  0  0  0  0  0
  1  2  1  0  0  0  0
  1  5  2  0  0  0  0
  2  6  2  0  0  0  0
  3  8  2  0  0  0  0
  3 15  1  0  0  0  0
  4  9  1  0  0  0  0
  4 15  2  0  0  0  0
  5 17  1  0  0  0  0
  6 19  1  0  0  0  0
  7 10  2  0  0  0  0
  7 18  1  0  0  0  0
  8 21  1  0  0  0  0
  9 21  2  0  0  0  0
 10 22  1  0  0  0  0
 11 12  2  0  0  0  0
 11 23  1  0  0  0  0
 12 24  1  0  0  0  0
 13 20  1  0  0  0  0
 13 22  2  0  0  0  0
 14 24  2  0  0  0  0
 14 25  1  0  0  0  0
 15 26  1  0  0  0  0
 16 26  1  0  0  0  0
 16 27  2  0  0  0  0
 16 31  1  0  0  0  0
 17 19  2  0  0  0  0
 17 36  1  0  0  0  0
 18 20  2  0  0  0  0
 18 37  1  0  0  0  0
 19 47  1  0  0  0  0
 20 38  1  0  0  0  0
 21 80  1  0  0  0  0
 22 81  1  0  0  0  0
 23 25  2  0  0  0  0
 23 80  1  0  0  0  0
 24 82  1  0  0  0  0
 25 83  1  0  0  0  0
 26 62  2  0  0  0  0
 27 66  1  0  0  0  0
 27 69  1  0  0  0  0
 28 50  1  0  0  0  0
 28 63  1  0  0  0  0
 28 64  2  0  0  0  0
 29 51  1  0  0  0  0
 29 63  2  0  0  0  0
 29 65  1  0  0  0  0
 30 57  1  0  0  0  0
 30 64  1  0  0  0  0
 30 65  2  0  0  0  0
 31 70  1  0  0  0  0
 31 75  2  0  0  0  0
 32 48  1  0  0  0  0
 32 71  1  0  0  0  0
 32 76  2  0  0  0  0
 33 59  1  0  0  0  0
 33 67  1  0  0  0  0
 33 77  2  0  0  0  0
 34 60  1  0  0  0  0
 34 72  1  0  0  0  0
 34 78  2  0  0  0  0
 35 68  1  0  0  0  0
 35 73  1  0  0  0  0
 35 79  2  0  0  0  0
 36 39  1  0  0  0  0
 37 48  1  0  0  0  0
 38 67  1  0  0  0  0
 39 41  1  0  0  0  0
 40 42  1  0  0  0  0
 40 45  1  0  0  0  0
 41 47  1  0  0  0  0
 42 49  1  0  0  0  0
 43 44  1  0  0  0  0
 43 50  1  0  0  0  0
 44 50  1  0  0  0  0
 45 68  1  0  0  0  0
 46 49  1  0  0  0  0
 46 68  1  0  0  0  0
 47 71  1  0  0  0  0
 48 67  1  0  0  0  0
 49 66  1  0  0  0  0
 50 58  1  0  0  0  0
 52 60  1  0  0  0  0
 53 61  1  0  0  0  0
 54 61  1  0  0  0  0
 55 61  1  0  0  0  0
 56 74  1  0  0  0  0
 57 73  1  0  0  0  0
 58 81  1  0  0  0  0
 59 61  1  0  0  0  0
 59 72  1  0  0  0  0
 60 74  1  0  0  0  0
 62 66  1  0  0  0  0
M  CHG  1  74   1
M  ISO  4  35 100  58 101  73 100  81 101
M  END
> <Batch ID>
0183

> <Smiles>
CNC(C)C(=O)NC(C(=O)N1Cc2cc([101O:1][101CH2:1]C3(c4nc(C)nc(C[100NH:0][100C:0](=O)N5CCCC(n6nc(-c7ccc(Oc8ccc(F)cc8F)cc7)c(C(N)=O)c6N)C5)n4)CC3)ccc2CC1C(=O)NC1CCCc2ccccc21)C(C)(C)C

> <Shape>
0.208

> <Color>
0.061

> <Negative vol penalty>
0.000

$$$$

  -OEChem-04052323073D

 83 92  0     1  0  0  0  0  0999 V2000
  -24.5959  -17.9459   35.2492 C   0  0  0  0  0  0  0  0  0  0  0  0
  -25.1454  -17.8436   33.9752 C   0  0  0  0  0  0  0  0  0  0  0  0
  -22.9988   -9.8918   19.9929 C   0  0  0  0  0  0  0  0  0  0  0  0
  -23.7290   -9.9572   22.2950 C   0  0  0  0  0  0  0  0  0  0  0  0
  -23.3833  -18.6091   35.4329 C   0  0  0  0  0  0  0  0  0  0  0  0
  -24.4819  -18.4035   32.8840 C   0  0  0  0  0  0  0  0  0  0  0  0
  -27.5983  -20.9606   29.8190 C   0  0  0  0  0  0  0  0  0  0  0  0
  -22.2313   -8.7603   20.2685 C   0  0  0  0  0  0  0  0  0  0  0  0
  -22.9614   -8.8257   22.5706 C   0  0  0  0  0  0  0  0  0  0  0  0
  -28.3879  -20.2131   28.9462 C   0  0  0  0  0  0  0  0  0  0  0  0
  -23.2000   -5.4833   22.1207 C   0  0  0  0  0  0  0  0  0  0  0  0
  -23.7877   -4.4703   22.8783 C   0  0  0  0  0  0  0  0  0  0  0  0
  -26.8411  -20.6814   27.1554 C   0  0  0  0  0  0  0  0  0  0  0  0
  -22.0678   -4.7270   24.5556 C   0  0  0  0  0  0  0  0  0  0  0  0
  -23.7478  -10.4903   21.0062 C   0  0  0  0  0  0  0  0  0  0  0  0
  -24.1363  -13.0041   20.8124 C   0  0  0  0  0  0  0  0  0  0  0  0
  -22.7095  -19.1858   34.3448 C   0  0  0  0  0  0  0  0  0  0  0  0
  -26.4165  -21.5660   29.3683 C   0  0  0  0  0  0  0  0  0  0  0  0
  -23.2585  -19.0739   33.0532 C   0  0  0  0  0  0  0  0  0  0  0  0
  -26.0396  -21.4381   28.0238 C   0  0  0  0  0  0  0  0  0  0  0  0
  -22.2125   -8.2272   21.5574 C   0  0  0  0  0  0  0  0  0  0  0  0
  -28.0078  -20.0710   27.6149 C   0  0  0  0  0  0  0  0  0  0  0  0
  -22.0462   -6.1182   22.5804 C   0  0  0  0  0  0  0  0  0  0  0  0
  -23.2216   -4.0921   24.0958 C   0  0  0  0  0  0  0  0  0  0  0  0
  -21.4801   -5.7400   23.7979 C   0  0  0  0  0  0  0  0  0  0  0  0
  -24.5413  -11.6589   20.7220 C   0  0  0  0  0  0  0  0  0  0  0  0
  -29.4206  -18.2207   23.2802 C   0  0  0  0  0  0  0  0  0  0  0  0
  -29.2854  -18.3766   24.6411 C   0  0  0  0  0  0  0  0  0  0  0  0
  -25.2463  -13.7226   20.4408 C   0  0  0  0  0  0  0  0  0  0  0  0
  -30.8855  -16.9760   24.3842 C   0  0  0  0  0  0  0  0  0  0  0  0
  -28.7573  -18.7465   22.1207 C   0  0  0  0  0  0  0  0  0  0  0  0
  -22.8699  -13.5549   21.1980 C   0  0  0  0  0  0  0  0  0  0  0  0
  -23.3346  -21.2861   30.0946 C   0  0  0  0  0  0  0  0  0  0  0  0
  -23.0282  -23.7958   28.0623 C   0  0  0  0  0  0  0  0  0  0  0  0
  -24.2958  -25.5686   25.4360 C   0  0  0  0  0  0  0  0  0  0  0  0
  -30.7445  -14.6510   20.6713 C   0  0  0  0  0  0  0  0  0  0  0  0
  -21.3779  -19.8517   34.5858 C   0  0  0  0  0  0  0  0  0  0  0  0
  -25.5898  -22.3912   30.3159 C   0  0  0  0  0  0  0  0  0  0  0  0
  -24.7906  -22.0851   27.4853 C   0  0  0  0  0  0  0  0  0  0  0  0
  -20.9247  -20.7425   33.4320 C   0  0  0  0  0  0  0  0  0  0  0  0
  -29.5953  -12.2133   18.3446 C   0  0  0  0  0  0  0  0  0  0  0  0
  -21.1057  -20.0230   32.0992 C   0  0  0  0  0  0  0  0  0  0  0  0
  -28.1474  -11.9584   18.7671 C   0  0  0  0  0  0  0  0  0  0  0  0
  -30.5741  -17.9467   20.8090 C   0  0  0  0  0  0  0  0  0  0  0  0
  -30.5006  -12.4555   19.5503 C   0  0  0  0  0  0  0  0  0  0  0  0
  -28.5945  -13.2627   20.8878 C   0  0  0  0  0  0  0  0  0  0  0  0
  -22.5813  -19.6898   31.8481 C   0  0  1  0  0  0  0  0  0  0  0  0
  -24.1377  -22.5363   29.8712 C   0  0  1  0  0  0  0  0  0  0  0  0
  -27.6327  -13.0684   19.7031 C   0  0  2  0  0  0  0  0  0  0  0  0
  -30.8328  -16.8377   21.8417 C   0  0  1  0  0  0  0  0  0  0  0  0
  -31.9810  -16.0117   24.6031 C   0  0  0  0  0  0  0  0  0  0  0  0
  -27.4588  -19.4830   22.2972 C   0  0  0  0  0  0  0  0  0  0  0  0
  -23.8024  -27.5475   23.9739 C   0  0  0  0  0  0  0  0  0  0  0  0
  -20.9443  -22.1570   26.5518 C   0  0  0  0  0  0  0  0  0  0  0  0
  -21.1934  -23.7415   24.6294 C   0  0  0  0  0  0  0  0  0  0  0  0
  -20.3682  -24.5745   26.8311 C   0  0  0  0  0  0  0  0  0  0  0  0
  -26.7616  -26.9630   26.2928 C   0  0  0  0  0  0  0  0  0  0  0  0
  -28.3272  -19.2374   25.4106 C   0  0  0  0  0  0  0  0  0  1  0  0
  -22.8042  -23.9476   26.5771 C   0  0  1  0  0  0  0  0  0  0  0  0
  -24.5021  -27.0587   25.2326 C   0  0  2  0  0  0  0  0  0  0  0  0
  -21.3501  -23.5912   26.1576 C   0  0  0  0  0  0  0  0  0  0  0  0
  -25.8095  -11.5279   20.3240 N   0  0  0  0  0  0  0  0  0  0  0  0
  -30.2061  -17.6069   25.3201 N   0  0  0  0  0  0  0  0  0  0  0  0
  -29.2429  -18.5847   20.9323 N   0  0  0  0  0  0  0  0  0  0  0  0
  -30.4357  -17.3148   23.1517 N   0  0  0  0  0  0  0  0  0  0  0  0
  -26.2110  -12.8001   20.1609 N   0  0  0  0  0  0  0  0  0  0  0  0
  -24.0124  -22.8765   28.4525 N   0  0  0  0  0  0  0  0  0  0  0  0
  -29.9572  -13.5207   20.3965 N   0  0  0  0  0  0  0  0  0  0  0  0
  -25.4814  -15.0473   20.3294 N   0  0  0  0  0  0  0  0  0  0  0  0
  -21.8376  -12.6746   21.5496 N   0  0  0  0  0  0  0  0  0  0  0  0
  -23.2984  -20.8685   31.4113 N   0  0  0  0  0  0  0  0  0  0  0  0
  -23.2066  -25.3090   26.2407 N   0  0  0  0  0  0  0  0  0  0  0  0
  -30.1512  -15.6161   21.4760 N   0  0  0  0  0  0  0  0  0  0  0  0
  -25.9548  -27.3689   25.1132 N   0  3  0  0  0  0  0  0  0  0  0  0
  -22.6550  -14.7907   21.2139 O   0  0  0  0  0  0  0  0  0  0  0  0
  -22.7871  -20.7417   29.1430 O   0  0  0  0  0  0  0  0  0  0  0  0
  -22.3598  -24.4733   28.8471 O   0  0  0  0  0  0  0  0  0  0  0  0
  -25.0255  -24.7197   24.9287 O   0  0  0  0  0  0  0  0  0  0  0  0
  -31.8892  -14.7923   20.2278 O   0  0  0  0  0  0  0  0  0  0  0  0
  -21.4634   -7.1231   21.8267 O   0  0  0  0  0  0  0  0  0  0  0  0
  -28.7763  -19.3415   26.7611 O   0  0  0  0  0  0  0  0  0  1  0  0
  -23.7852   -3.1183   24.8225 F   0  0  0  0  0  0  0  0  0  0  0  0
  -20.3710   -6.3454   24.2442 F   0  0  0  0  0  0  0  0  0  0  0  0
  1  2  1  0  0  0  0
  1  5  2  0  0  0  0
  2  6  2  0  0  0  0
  3  8  2  0  0  0  0
  3 15  1  0  0  0  0
  4  9  1  0  0  0  0
  4 15  2  0  0  0  0
  5 17  1  0  0  0  0
  6 19  1  0  0  0  0
  7 10  2  0  0  0  0
  7 18  1  0  0  0  0
  8 21  1  0  0  0  0
  9 21  2  0  0  0  0
 10 22  1  0  0  0  0
 11 12  2  0  0  0  0
 11 23  1  0  0  0  0
 12 24  1  0  0  0  0
 13 20  1  0  0  0  0
 13 22  2  0  0  0  0
 14 24  2  0  0  0  0
 14 25  1  0  0  0  0
 15 26  1  0  0  0  0
 16 26  1  0  0  0  0
 16 29  2  0  0  0  0
 16 32  1  0  0  0  0
 17 19  2  0  0  0  0
 17 37  1  0  0  0  0
 18 20  2  0  0  0  0
 18 38  1  0  0  0  0
 19 47  1  0  0  0  0
 20 39  1  0  0  0  0
 21 80  1  0  0  0  0
 22 81  1  0  0  0  0
 23 25  2  0  0  0  0
 23 80  1  0  0  0  0
 24 82  1  0  0  0  0
 25 83  1  0  0  0  0
 26 62  2  0  0  0  0
 27 28  2  0  0  0  0
 27 31  1  0  0  0  0
 27 65  1  0  0  0  0
 28 58  1  0  0  0  0
 28 63  1  0  0  0  0
 29 66  1  0  0  0  0
 29 69  1  0  0  0  0
 30 51  1  0  0  0  0
 30 63  2  0  0  0  0
 30 65  1  0  0  0  0
 31 52  1  0  0  0  0
 31 64  2  0  0  0  0
 32 70  1  0  0  0  0
 32 75  2  0  0  0  0
 33 48  1  0  0  0  0
 33 71  1  0  0  0  0
 33 76  2  0  0  0  0
 34 59  1  0  0  0  0
 34 67  1  0  0  0  0
 34 77  2  0  0  0  0
 35 60  1  0  0  0  0
 35 72  1  0  0  0  0
 35 78  2  0  0  0  0
 36 68  1  0  0  0  0
 36 73  1  0  0  0  0
 36 79  2  0  0  0  0
 37 40  1  0  0  0  0
 38 48  1  0  0  0  0
 39 67  1  0  0  0  0
 40 42  1  0  0  0  0
 41 43  1  0  0  0  0
 41 45  1  0  0  0  0
 42 47  1  0  0  0  0
 43 49  1  0  0  0  0
 44 50  1  0  0  0  0
 44 64  1  0  0  0  0
 45 68  1  0  0  0  0
 46 49  1  0  0  0  0
 46 68  1  0  0  0  0
 47 71  1  0  0  0  0
 48 67  1  0  0  0  0
 49 66  1  0  0  0  0
 50 65  1  0  0  0  0
 50 73  1  0  0  0  0
 53 60  1  0  0  0  0
 54 61  1  0  0  0  0
 55 61  1  0  0  0  0
 56 61  1  0  0  0  0
 57 74  1  0  0  0  0
 58 81  1  0  0  0  0
 59 61  1  0  0  0  0
 59 72  1  0  0  0  0
 60 74  1  0  0  0  0
 62 66  1  0  0  0  0
M  CHG  1  74   1
M  ISO  4  36 100  58 101  73 100  81 101
M  END
> <Batch ID>
0183

> <Smiles>
CNC(C)C(=O)NC(C(=O)N1Cc2cc([101O:1][101CH2:1]c3nc(C)n4c3C(C)=NCC4[100NH:0][100C:0](=O)N3CCCC(n4nc(-c5ccc(Oc6ccc(F)cc6F)cc5)c(C(N)=O)c4N)C3)ccc2CC1C(=O)NC1CCCc2ccccc21)C(C)(C)C

> <Shape>
0.189

> <Color>
0.191

> <Negative vol penalty>
0.000

$$$$

  -OEChem-04052323073D

 82 90  0     1  0  0  0  0  0999 V2000
  -17.2617  -29.0299   24.4218 C   0  0  0  0  0  0  0  0  0  0  0  0
  -17.7362  -27.8166   23.9338 C   0  0  0  0  0  0  0  0  0  0  0  0
  -29.6810  -21.0203   15.0291 C   0  0  0  0  0  0  0  0  0  0  0  0
  -31.9829  -20.6383   15.6556 C   0  0  0  0  0  0  0  0  0  0  0  0
  -17.7751  -30.2279   23.9267 C   0  0  0  0  0  0  0  0  0  0  0  0
  -18.7238  -27.8007   22.9494 C   0  0  0  0  0  0  0  0  0  0  0  0
  -23.2300  -23.7012   22.3217 C   0  0  0  0  0  0  0  0  0  0  0  0
  -30.0822  -21.2937   13.7215 C   0  0  0  0  0  0  0  0  0  0  0  0
  -32.3842  -20.9117   14.3479 C   0  0  0  0  0  0  0  0  0  0  0  0
  -23.3699  -22.5785   21.5070 C   0  0  0  0  0  0  0  0  0  0  0  0
  -32.8931  -23.6400   12.4170 C   0  0  0  0  0  0  0  0  0  0  0  0
  -33.9956  -24.4755   12.2387 C   0  0  0  0  0  0  0  0  0  0  0  0
  -24.5962  -23.9011   19.9051 C   0  0  0  0  0  0  0  0  0  0  0  0
  -35.1548  -22.6992   11.0820 C   0  0  0  0  0  0  0  0  0  0  0  0
  -30.6314  -20.6926   15.9962 C   0  0  0  0  0  0  0  0  0  0  0  0
  -29.5337  -21.2735   18.2245 C   0  0  0  0  0  0  0  0  0  0  0  0
  -18.7764  -30.2265   22.9428 C   0  0  0  0  0  0  0  0  0  0  0  0
  -23.7636  -24.9369   21.9284 C   0  0  0  0  0  0  0  0  0  0  0  0
  -19.2502  -28.9998   22.4398 C   0  0  0  0  0  0  0  0  0  0  0  0
  -24.4639  -25.0374   20.7178 C   0  0  0  0  0  0  0  0  0  0  0  0
  -31.4338  -21.2394   13.3809 C   0  0  0  0  0  0  0  0  0  0  0  0
  -24.0506  -22.6790   20.2972 C   0  0  0  0  0  0  0  0  0  0  0  0
  -32.9214  -22.3340   11.9278 C   0  0  0  0  0  0  0  0  0  0  0  0
  -35.1264  -24.0052   11.5712 C   0  0  0  0  0  0  0  0  0  0  0  0
  -34.0522  -21.8636   11.2603 C   0  0  0  0  0  0  0  0  0  0  0  0
  -30.2176  -20.4106   17.3472 C   0  0  0  0  0  0  0  0  0  0  0  0
  -29.3771  -20.5399   19.3750 C   0  0  0  0  0  0  0  0  0  0  0  0
  -29.0805  -22.6180   18.0178 C   0  0  0  0  0  0  0  0  0  0  0  0
  -22.5475  -27.8013   21.2804 C   0  0  0  0  0  0  0  0  0  0  0  0
  -25.6714  -28.6493   21.0705 C   0  0  0  0  0  0  0  0  0  0  0  0
  -28.9023  -27.6948   20.5254 C   0  0  0  0  0  0  0  0  0  0  0  0
  -29.1750  -14.6554   20.4627 C   0  0  0  0  0  0  0  0  0  0  0  0
  -19.2669  -31.5472   22.4044 C   0  0  0  0  0  0  0  0  0  0  0  0
  -23.6273  -26.1324   22.8311 C   0  0  0  0  0  0  0  0  0  0  0  0
  -25.0730  -26.3364   20.2595 C   0  0  0  0  0  0  0  0  0  0  0  0
  -20.5784  -31.4402   21.6307 C   0  0  0  0  0  0  0  0  0  0  0  0
  -31.4308  -17.0181   21.8790 C   0  0  0  0  0  0  0  0  0  0  0  0
  -20.5268  -30.2718   20.6515 C   0  0  0  0  0  0  0  0  0  0  0  0
  -31.3140  -18.2333   20.9573 C   0  0  0  0  0  0  0  0  0  0  0  0
  -31.3245  -15.7079   21.1016 C   0  0  0  0  0  0  0  0  0  0  0  0
  -30.0092  -16.8036   19.3287 C   0  0  0  0  0  0  0  0  0  0  0  0
  -23.9565  -16.8449   18.7684 C   0  0  0  0  0  0  0  0  0  0  0  0
  -24.0278  -17.6108   20.7034 C   0  0  0  0  0  0  0  0  0  0  0  0
  -20.3385  -28.9411   21.3899 C   0  0  1  0  0  0  0  0  0  0  0  0
  -23.7657  -27.4590   22.0906 C   0  0  1  0  0  0  0  0  0  0  0  0
  -30.0544  -18.1483   20.0743 C   0  0  2  0  0  0  0  0  0  0  0  0
  -24.0697  -16.1713   20.1513 C   0  0  0  0  0  0  0  0  0  0  0  0
  -31.2314  -28.6177   20.3809 C   0  0  0  0  0  0  0  0  0  0  0  0
  -23.2010  -19.5835   17.5911 C   0  0  0  0  0  0  0  0  0  0  0  0
  -27.3150  -12.5400   18.8222 C   0  0  0  0  0  0  0  0  0  0  0  0
  -25.0497  -29.7788   18.3051 C   0  0  0  0  0  0  0  0  0  0  0  0
  -27.5096  -29.8079   17.8405 C   0  0  0  0  0  0  0  0  0  0  0  0
  -26.5753  -31.1948   19.6915 C   0  0  0  0  0  0  0  0  0  0  0  0
  -29.8279  -26.0278   22.7889 C   0  0  0  0  0  0  0  0  0  0  0  0
  -25.6290  -14.3536   19.4419 C   0  0  0  0  0  0  0  0  0  0  0  0
  -23.6099  -20.3657   19.9645 C   0  0  0  0  0  0  0  0  0  1  0  0
  -26.6977  -28.6843   19.9640 C   0  0  1  0  0  0  0  0  0  0  0  0
  -30.1822  -27.9911   21.2860 C   0  0  2  0  0  0  0  0  0  0  0  0
  -23.8479  -19.2578   18.9375 C   0  0  1  0  0  0  0  0  0  0  0  0
  -26.9947  -13.7283   19.7238 C   0  0  2  0  0  0  0  0  0  0  0  0
  -26.4450  -29.8423   18.9577 C   0  0  0  0  0  0  0  0  0  0  0  0
  -30.4776  -19.2199   17.8937 N   0  0  0  0  0  0  0  0  0  0  0  0
  -29.9544  -19.3294   19.1267 N   0  0  0  0  0  0  0  0  0  0  0  0
  -24.9074  -27.4783   21.1740 N   0  0  0  0  0  0  0  0  0  0  0  0
  -30.1079  -15.6905   20.2859 N   0  0  0  0  0  0  0  0  0  0  0  0
  -23.3219  -17.9998   19.4551 N   0  0  0  0  0  0  0  0  0  0  0  0
  -28.8032  -20.8186   20.5647 N   0  0  0  0  0  0  0  0  0  0  0  0
  -29.3239  -23.2218   16.7766 N   0  0  0  0  0  0  0  0  0  0  0  0
  -21.5877  -28.5087   21.9788 N   0  0  0  0  0  0  0  0  0  0  0  0
  -28.0011  -28.7343   20.6175 N   0  0  0  0  0  0  0  0  0  0  0  0
  -28.0468  -14.7178   19.6540 N   0  0  0  0  0  0  0  0  0  0  0  0
  -25.3477  -15.4892   20.3740 N   0  3  0  0  0  0  0  0  0  0  0  0
  -30.7457  -26.7367   21.8603 N   0  3  0  0  0  0  0  0  0  0  0  0
  -28.4921  -23.2705   18.9131 O   0  0  0  0  0  0  0  0  0  0  0  0
  -22.4837  -27.4509   20.1078 O   0  0  0  0  0  0  0  0  0  0  0  0
  -25.5570  -29.6223   21.8201 O   0  0  0  0  0  0  0  0  0  0  0  0
  -28.7216  -26.6475   19.9079 O   0  0  0  0  0  0  0  0  0  0  0  0
  -29.3331  -13.7461   21.2844 O   0  0  0  0  0  0  0  0  0  0  0  0
  -31.8257  -21.5059   12.1050 O   0  0  0  0  0  0  0  0  0  0  0  0
  -24.1880  -21.5848   19.4998 O   0  0  0  0  0  0  0  0  0  1  0  0
  -36.1846  -24.8082   11.3987 F   0  0  0  0  0  0  0  0  0  0  0  0
  -34.0848  -20.6103   10.7871 F   0  0  0  0  0  0  0  0  0  0  0  0
  1  2  1  0  0  0  0
  1  5  2  0  0  0  0
  2  6  2  0  0  0  0
  3  8  2  0  0  0  0
  3 15  1  0  0  0  0
  4  9  1  0  0  0  0
  4 15  2  0  0  0  0
  5 17  1  0  0  0  0
  6 19  1  0  0  0  0
  7 10  2  0  0  0  0
  7 18  1  0  0  0  0
  8 21  1  0  0  0  0
  9 21  2  0  0  0  0
 10 22  1  0  0  0  0
 11 12  2  0  0  0  0
 11 23  1  0  0  0  0
 12 24  1  0  0  0  0
 13 20  1  0  0  0  0
 13 22  2  0  0  0  0
 14 24  2  0  0  0  0
 14 25  1  0  0  0  0
 15 26  1  0  0  0  0
 16 26  1  0  0  0  0
 16 27  2  0  0  0  0
 16 28  1  0  0  0  0
 17 19  2  0  0  0  0
 17 33  1  0  0  0  0
 18 20  2  0  0  0  0
 18 34  1  0  0  0  0
 19 44  1  0  0  0  0
 20 35  1  0  0  0  0
 21 79  1  0  0  0  0
 22 80  1  0  0  0  0
 23 25  2  0  0  0  0
 23 79  1  0  0  0  0
 24 81  1  0  0  0  0
 25 82  1  0  0  0  0
 26 62  2  0  0  0  0
 27 63  1  0  0  0  0
 27 67  1  0  0  0  0
 28 68  1  0  0  0  0
 28 74  2  0  0  0  0
 29 45  1  0  0  0  0
 29 69  1  0  0  0  0
 29 75  2  0  0  0  0
 30 57  1  0  0  0  0
 30 64  1  0  0  0  0
 30 76  2  0  0  0  0
 31 58  1  0  0  0  0
 31 70  1  0  0  0  0
 31 77  2  0  0  0  0
 32 65  1  0  0  0  0
 32 71  1  0  0  0  0
 32 78  2  0  0  0  0
 33 36  1  0  0  0  0
 34 45  1  0  0  0  0
 35 64  1  0  0  0  0
 36 38  1  0  0  0  0
 37 39  1  0  0  0  0
 37 40  1  0  0  0  0
 38 44  1  0  0  0  0
 39 46  1  0  0  0  0
 40 65  1  0  0  0  0
 41 46  1  0  0  0  0
 41 65  1  0  0  0  0
 42 47  1  0  0  0  0
 42 66  1  0  0  0  0
 43 47  1  0  0  0  0
 43 66  1  0  0  0  0
 44 69  1  0  0  0  0
 45 64  1  0  0  0  0
 46 63  1  0  0  0  0
 47 72  1  0  0  0  0
 48 58  1  0  0  0  0
 49 59  1  0  0  0  0
 50 60  1  0  0  0  0
 51 61  1  0  0  0  0
 52 61  1  0  0  0  0
 53 61  1  0  0  0  0
 54 73  1  0  0  0  0
 55 60  1  0  0  0  0
 55 72  1  0  0  0  0
 56 59  1  0  0  0  0
 56 80  1  0  0  0  0
 57 61  1  0  0  0  0
 57 70  1  0  0  0  0
 58 73  1  0  0  0  0
 59 66  1  0  0  0  0
 60 71  1  0  0  0  0
 62 63  1  0  0  0  0
M  CHG  2  72   1  73   1
M  ISO  4  32 100  56 101  71 100  80 101
M  END
> <Batch ID>
0183

> <Smiles>
CNC(C)C(=O)NC(C(=O)N1Cc2cc([101O:1][101CH2:1]C(C)N3CC(NCC(C)[100NH:0][100C:0](=O)N4CCCC(n5nc(-c6ccc(Oc7ccc(F)cc7F)cc6)c(C(N)=O)c5N)C4)C3)ccc2CC1C(=O)NC1CCCc2ccccc21)C(C)(C)C

> <Shape>
0.199

> <Color>
0.078

> <Negative vol penalty>
0.000

$$$$

  -OEChem-04052323073D

 85 94  0     1  0  0  0  0  0999 V2000
  -18.7555  -32.7885   19.9894 C   0  0  0  0  0  0  0  0  0  0  0  0
  -20.0658  -32.4528   19.6640 C   0  0  0  0  0  0  0  0  0  0  0  0
  -27.7231  -18.1432   21.3769 C   0  0  0  0  0  0  0  0  0  0  0  0
  -29.8797  -17.6851   20.3888 C   0  0  0  0  0  0  0  0  0  0  0  0
  -18.2331  -32.4299   21.2313 C   0  0  0  0  0  0  0  0  0  0  0  0
  -20.8548  -31.7591   20.5809 C   0  0  0  0  0  0  0  0  0  0  0  0
  -25.1270  -27.5553   19.3229 C   0  0  0  0  0  0  0  0  0  0  0  0
  -27.5775  -16.7909   21.6861 C   0  0  0  0  0  0  0  0  0  0  0  0
  -29.7342  -16.3328   20.6980 C   0  0  0  0  0  0  0  0  0  0  0  0
  -26.5160  -27.6288   19.2281 C   0  0  0  0  0  0  0  0  0  0  0  0
  -29.7725  -12.7043   20.9047 C   0  0  0  0  0  0  0  0  0  0  0  0
  -30.1032  -11.7746   19.9189 C   0  0  0  0  0  0  0  0  0  0  0  0
  -26.7059  -26.8746   21.5115 C   0  0  0  0  0  0  0  0  0  0  0  0
  -28.4252  -12.7226   18.4619 C   0  0  0  0  0  0  0  0  0  0  0  0
  -31.7444  -27.6644   18.8435 C   0  0  0  0  0  0  0  0  0  0  0  0
  -28.8742  -18.5903   20.7282 C   0  0  0  0  0  0  0  0  0  0  0  0
  -32.3605  -26.3871   20.5887 C   0  0  0  0  0  0  0  0  0  0  0  0
  -29.6058  -20.9857   21.2123 C   0  0  0  0  0  0  0  0  0  0  0  0
  -19.0130  -31.7230   22.1601 C   0  0  0  0  0  0  0  0  0  0  0  0
  -24.5157  -27.1506   20.5183 C   0  0  0  0  0  0  0  0  0  0  0  0
  -20.3428  -31.3918   21.8369 C   0  0  0  0  0  0  0  0  0  0  0  0
  -25.3090  -26.7943   21.6182 C   0  0  0  0  0  0  0  0  0  0  0  0
  -31.5712  -27.4959   20.2022 C   0  0  0  0  0  0  0  0  0  0  0  0
  -28.5830  -15.8857   21.3467 C   0  0  0  0  0  0  0  0  0  0  0  0
  -27.3056  -27.2912   20.3234 C   0  0  0  0  0  0  0  0  0  0  0  0
  -28.7681  -13.6432   20.6691 C   0  0  0  0  0  0  0  0  0  0  0  0
  -29.4296  -11.7837   18.6975 C   0  0  0  0  0  0  0  0  0  0  0  0
  -28.0945  -13.6523   19.4477 C   0  0  0  0  0  0  0  0  0  0  0  0
  -29.0249  -19.9871   20.4080 C   0  0  0  0  0  0  0  0  0  0  0  0
  -32.9941  -25.9204   19.4561 C   0  0  0  0  0  0  0  0  0  0  0  0
  -29.5065  -22.1319   20.4620 C   0  0  0  0  0  0  0  0  0  0  0  0
  -32.5721  -25.7534   21.8759 C   0  0  0  0  0  0  0  0  0  0  0  0
  -30.1837  -20.8862   22.5207 C   0  0  0  0  0  0  0  0  0  0  0  0
  -22.5278  -28.5097   22.5932 C   0  0  0  0  0  0  0  0  0  0  0  0
  -22.5280  -25.5558   23.9335 C   0  0  0  0  0  0  0  0  0  0  0  0
  -24.1329  -22.5774   24.3808 C   0  0  0  0  0  0  0  0  0  0  0  0
  -29.9821  -24.8180   15.5934 C   0  0  0  0  0  0  0  0  0  0  0  0
  -18.4199  -31.3986   23.5083 C   0  0  0  0  0  0  0  0  0  0  0  0
  -23.0168  -27.0509   20.5960 C   0  0  0  0  0  0  0  0  0  0  0  0
  -24.7023  -26.3343   22.9177 C   0  0  0  0  0  0  0  0  0  0  0  0
  -33.9319  -24.7712   19.3822 C   0  0  0  0  0  0  0  0  0  0  0  0
  -33.4468  -24.4996   21.8770 C   0  0  0  0  0  0  0  0  0  0  0  0
  -19.2011  -30.3364   24.2777 C   0  0  0  0  0  0  0  0  0  0  0  0
  -34.5240  -24.5284   20.7805 C   0  0  0  0  0  0  0  0  0  0  0  0
  -26.9427  -23.0667   16.2030 C   0  0  0  0  0  0  0  0  0  0  0  0
  -20.6958  -30.6379   24.2354 C   0  0  0  0  0  0  0  0  0  0  0  0
  -27.2634  -22.1877   17.4131 C   0  0  0  0  0  0  0  0  0  0  0  0
  -28.1407  -23.1940   15.2645 C   0  0  0  0  0  0  0  0  0  0  0  0
  -29.7073  -22.7704   17.1192 C   0  0  0  0  0  0  0  0  0  0  0  0
  -21.2220  -30.6180   22.7952 C   0  0  1  0  0  0  0  0  0  0  0  0
  -22.4867  -27.1194   22.0248 C   0  0  1  0  0  0  0  0  0  0  0  0
  -28.5472  -22.6578   18.1231 C   0  0  2  0  0  0  0  0  0  0  0  0
  -23.9034  -20.3734   25.5587 C   0  0  0  0  0  0  0  0  0  0  0  0
  -23.2839  -26.8896   26.5715 C   0  0  0  0  0  0  0  0  0  0  0  0
  -23.9589  -24.6390   27.4358 C   0  0  0  0  0  0  0  0  0  0  0  0
  -21.5907  -25.0604   26.7750 C   0  0  0  0  0  0  0  0  0  0  0  0
  -24.1509  -21.0797   21.8283 C   0  0  0  0  0  0  0  0  0  0  0  0
  -30.6946  -28.3452   21.0903 C   0  0  0  0  0  0  0  0  0  0  0  0
  -33.0353  -26.5435   17.0249 C   0  0  0  0  0  0  0  0  0  0  0  0
  -31.8684  -26.3625   16.0576 C   0  0  0  0  0  0  0  0  0  0  0  0
  -29.3771  -27.6580   21.4325 C   0  0  0  0  0  0  0  0  0  1  0  0
  -23.3607  -24.8572   24.9811 C   0  0  1  0  0  0  0  0  0  0  0  0
  -23.6448  -21.1440   24.2733 C   0  0  2  0  0  0  0  0  0  0  0  0
  -23.0602  -25.3720   26.4171 C   0  0  0  0  0  0  0  0  0  0  0  0
  -28.5887  -20.4575   19.2365 N   0  0  0  0  0  0  0  0  0  0  0  0
  -32.6119  -26.6974   18.3985 N   0  0  0  0  0  0  0  0  0  0  0  0
  -28.8955  -21.7644   19.2993 N   0  0  0  0  0  0  0  0  0  0  0  0
  -23.2322  -26.2593   22.9461 N   0  0  0  0  0  0  0  0  0  0  0  0
  -29.3248  -23.6450   15.9996 N   0  0  0  0  0  0  0  0  0  0  0  0
  -29.8828  -23.4081   20.6901 N   0  0  0  0  0  0  0  0  0  0  0  0
  -30.2044  -19.6333   23.1485 N   0  0  0  0  0  0  0  0  0  0  0  0
  -21.3928  -29.2555   22.3382 N   0  0  0  0  0  0  0  0  0  0  0  0
  -23.1314  -23.4280   24.7986 N   0  0  0  0  0  0  0  0  0  0  0  0
  -31.0918  -25.1780   16.3482 N   0  0  0  0  0  0  0  0  0  0  0  0
  -24.3395  -20.4425   23.1570 N   0  3  0  0  0  0  0  0  0  0  0  0
  -32.0326  -26.1608   22.9008 O   0  0  0  0  0  0  0  0  0  0  0  0
  -30.6526  -21.8821   23.1223 O   0  0  0  0  0  0  0  0  0  0  0  0
  -23.5155  -28.8781   23.2180 O   0  0  0  0  0  0  0  0  0  0  0  0
  -21.2982  -25.4741   23.9850 O   0  0  0  0  0  0  0  0  0  0  0  0
  -25.2882  -22.9086   24.1237 O   0  0  0  0  0  0  0  0  0  0  0  0
  -29.6046  -25.4973   14.6326 O   0  0  0  0  0  0  0  0  0  0  0  0
  -28.4414  -14.5661   21.6485 O   0  0  0  0  0  0  0  0  0  0  0  0
  -28.6616  -27.3627   20.2337 O   0  0  0  0  0  0  0  0  0  1  0  0
  -29.7484  -10.8918   17.7503 F   0  0  0  0  0  0  0  0  0  0  0  0
  -27.1295  -14.5526   19.2151 F   0  0  0  0  0  0  0  0  0  0  0  0
  1  2  1  0  0  0  0
  1  5  2  0  0  0  0
  2  6  2  0  0  0  0
  3  8  2  0  0  0  0
  3 16  1  0  0  0  0
  4  9  1  0  0  0  0
  4 16  2  0  0  0  0
  5 19  1  0  0  0  0
  6 21  1  0  0  0  0
  7 10  2  0  0  0  0
  7 20  1  0  0  0  0
  8 24  1  0  0  0  0
  9 24  2  0  0  0  0
 10 25  1  0  0  0  0
 11 12  2  0  0  0  0
 11 26  1  0  0  0  0
 12 27  1  0  0  0  0
 13 22  1  0  0  0  0
 13 25  2  0  0  0  0
 14 27  2  0  0  0  0
 14 28  1  0  0  0  0
 15 23  2  0  0  0  0
 15 66  1  0  0  0  0
 16 29  1  0  0  0  0
 17 23  1  0  0  0  0
 17 30  2  0  0  0  0
 17 32  1  0  0  0  0
 18 29  1  0  0  0  0
 18 31  2  0  0  0  0
 18 33  1  0  0  0  0
 19 21  2  0  0  0  0
 19 38  1  0  0  0  0
 20 22  2  0  0  0  0
 20 39  1  0  0  0  0
 21 50  1  0  0  0  0
 22 40  1  0  0  0  0
 23 58  1  0  0  0  0
 24 82  1  0  0  0  0
 25 83  1  0  0  0  0
 26 28  2  0  0  0  0
 26 82  1  0  0  0  0
 27 84  1  0  0  0  0
 28 85  1  0  0  0  0
 29 65  2  0  0  0  0
 30 41  1  0  0  0  0
 30 66  1  0  0  0  0
 31 67  1  0  0  0  0
 31 70  1  0  0  0  0
 32 42  1  0  0  0  0
 32 76  2  0  0  0  0
 33 71  1  0  0  0  0
 33 77  2  0  0  0  0
 34 51  1  0  0  0  0
 34 72  1  0  0  0  0
 34 78  2  0  0  0  0
 35 62  1  0  0  0  0
 35 68  1  0  0  0  0
 35 79  2  0  0  0  0
 36 63  1  0  0  0  0
 36 73  1  0  0  0  0
 36 80  2  0  0  0  0
 37 69  1  0  0  0  0
 37 74  1  0  0  0  0
 37 81  2  0  0  0  0
 38 43  1  0  0  0  0
 39 51  1  0  0  0  0
 40 68  1  0  0  0  0
 41 44  1  0  0  0  0
 42 44  1  0  0  0  0
 43 46  1  0  0  0  0
 45 47  1  0  0  0  0
 45 48  1  0  0  0  0
 46 50  1  0  0  0  0
 47 52  1  0  0  0  0
 48 69  1  0  0  0  0
 49 52  1  0  0  0  0
 49 69  1  0  0  0  0
 50 72  1  0  0  0  0
 51 68  1  0  0  0  0
 52 67  1  0  0  0  0
 53 63  1  0  0  0  0
 54 64  1  0  0  0  0
 55 64  1  0  0  0  0
 56 64  1  0  0  0  0
 57 75  1  0  0  0  0
 58 61  1  0  0  0  0
 59 60  1  0  0  0  0
 59 66  1  0  0  0  0
 60 74  1  0  0  0  0
 61 83  1  0  0  0  0
 62 64  1  0  0  0  0
 62 73  1  0  0  0  0
 63 75  1  0  0  0  0
 65 67  1  0  0  0  0
M  CHG  1  75   1
M  ISO  4  37 100  61 101  74 100  83 101
M  END
> <Batch ID>
0183

> <Smiles>
CNC(C)C(=O)NC(C(=O)N1Cc2cc([101O:1][101CH2:1]Cc3cn(CC[100NH:0][100C:0](=O)N4CCCC(n5nc(-c6ccc(Oc7ccc(F)cc7F)cc6)c(C(N)=O)c5N)C4)c4c3C(=O)CCC4)ccc2CC1C(=O)NC1CCCc2ccccc21)C(C)(C)C

> <Shape>
0.206

> <Color>
0.082

> <Negative vol penalty>
0.000

$$$$

  -OEChem-04052323073D

 80 89  0     1  0  0  0  0  0999 V2000
  -28.2035  -33.1048   26.7744 C   0  0  0  0  0  0  0  0  0  0  0  0
  -28.2873  -31.9533   25.9983 C   0  0  0  0  0  0  0  0  0  0  0  0
  -28.6074  -13.2598   21.1987 C   0  0  0  0  0  0  0  0  0  0  0  0
  -26.8615  -14.5886   20.1872 C   0  0  0  0  0  0  0  0  0  0  0  0
  -26.9558  -33.6287   27.1100 C   0  0  0  0  0  0  0  0  0  0  0  0
  -27.1232  -31.3244   25.5581 C   0  0  0  0  0  0  0  0  0  0  0  0
  -27.3672  -29.9776   20.6825 C   0  0  0  0  0  0  0  0  0  0  0  0
  -27.7937  -12.1297   21.1187 C   0  0  0  0  0  0  0  0  0  0  0  0
  -26.0477  -13.4585   20.1072 C   0  0  0  0  0  0  0  0  0  0  0  0
  -28.0954  -28.8292   20.3748 C   0  0  0  0  0  0  0  0  0  0  0  0
  -24.0865  -11.6486   22.1829 C   0  0  0  0  0  0  0  0  0  0  0  0
  -22.7539  -11.7806   22.5733 C   0  0  0  0  0  0  0  0  0  0  0  0
  -30.7091  -25.0397   18.1152 C   0  0  0  0  0  0  0  0  0  0  0  0
  -26.0417  -27.5713   20.2369 C   0  0  0  0  0  0  0  0  0  0  0  0
  -22.0407  -11.1307   20.3583 C   0  0  0  0  0  0  0  0  0  0  0  0
  -31.1863  -23.7482   18.1699 C   0  0  0  0  0  0  0  0  0  0  0  0
  -28.1413  -14.4893   20.7330 C   0  0  0  0  0  0  0  0  0  0  0  0
  -29.8930  -16.1188   19.8479 C   0  0  0  0  0  0  0  0  0  0  0  0
  -25.7760  -33.0114   26.6657 C   0  0  0  0  0  0  0  0  0  0  0  0
  -25.9692  -29.9290   20.7805 C   0  0  0  0  0  0  0  0  0  0  0  0
  -25.8585  -31.8398   25.8892 C   0  0  0  0  0  0  0  0  0  0  0  0
  -25.2979  -28.7210   20.5434 C   0  0  0  0  0  0  0  0  0  0  0  0
  -30.1776  -25.3518   19.3920 C   0  0  0  0  0  0  0  0  0  0  0  0
  -26.5139  -12.2290   20.5729 C   0  0  0  0  0  0  0  0  0  0  0  0
  -27.4328  -27.6252   20.1548 C   0  0  0  0  0  0  0  0  0  0  0  0
  -24.3962  -11.2578   20.8802 C   0  0  0  0  0  0  0  0  0  0  0  0
  -21.7310  -11.5216   21.6610 C   0  0  0  0  0  0  0  0  0  0  0  0
  -23.3733  -10.9988   19.9680 C   0  0  0  0  0  0  0  0  0  0  0  0
  -28.9811  -15.6571   20.8159 C   0  0  0  0  0  0  0  0  0  0  0  0
  -30.3434  -24.2418   20.1975 C   0  0  0  0  0  0  0  0  0  0  0  0
  -30.4352  -17.2534   20.4005 C   0  0  0  0  0  0  0  0  0  0  0  0
  -30.2207  -15.5712   18.5640 C   0  0  0  0  0  0  0  0  0  0  0  0
  -23.8635  -30.4607   23.1015 C   0  0  0  0  0  0  0  0  0  0  0  0
  -21.7098  -30.0345   20.7135 C   0  0  0  0  0  0  0  0  0  0  0  0
  -20.9996  -28.6890   17.6587 C   0  0  0  0  0  0  0  0  0  0  0  0
  -29.3222  -22.1341   23.0742 C   0  0  0  0  0  0  0  0  0  0  0  0
  -24.4495  -33.5878   27.0935 C   0  0  0  0  0  0  0  0  0  0  0  0
  -25.1963  -31.1825   21.0870 C   0  0  0  0  0  0  0  0  0  0  0  0
  -23.7969  -28.6203   20.6166 C   0  0  0  0  0  0  0  0  0  0  0  0
  -29.9909  -24.0143   21.6263 C   0  0  0  0  0  0  0  0  0  0  0  0
  -23.2690  -33.0734   26.2737 C   0  0  0  0  0  0  0  0  0  0  0  0
  -30.1438  -19.1296   25.0801 C   0  0  0  0  0  0  0  0  0  0  0  0
  -23.3459  -31.5577   26.1199 C   0  0  0  0  0  0  0  0  0  0  0  0
  -29.9152  -17.9949   24.0827 C   0  0  0  0  0  0  0  0  0  0  0  0
  -31.2782  -21.9488   19.9143 C   0  0  0  0  0  0  0  0  0  0  0  0
  -29.2701  -20.3417   24.7712 C   0  0  0  0  0  0  0  0  0  0  0  0
  -31.2311  -21.8718   21.4359 C   0  0  0  0  0  0  0  0  0  0  0  0
  -29.1829  -19.7118   22.3821 C   0  0  0  0  0  0  0  0  0  0  0  0
  -24.6187  -31.1429   25.3720 C   0  0  1  0  0  0  0  0  0  0  0  0
  -23.8129  -30.9048   21.6670 C   0  0  1  0  0  0  0  0  0  0  0  0
  -30.0830  -18.4941   22.6371 C   0  0  2  0  0  0  0  0  0  0  0  0
  -19.1439  -28.4775   15.9826 C   0  0  0  0  0  0  0  0  0  0  0  0
  -20.3671  -27.9310   22.4692 C   0  0  0  0  0  0  0  0  0  0  0  0
  -19.1579  -27.1077   20.4374 C   0  0  0  0  0  0  0  0  0  0  0  0
  -18.7853  -29.4365   21.2502 C   0  0  0  0  0  0  0  0  0  0  0  0
  -22.5615  -30.1001   15.5782 C   0  0  0  0  0  0  0  0  0  0  0  0
  -29.5636  -26.6365   19.7832 C   0  0  0  0  0  0  0  0  0  1  0  0
  -20.9765  -28.8489   20.1342 C   0  0  1  0  0  0  0  0  0  0  0  0
  -20.3555  -29.2857   16.4203 C   0  0  2  0  0  0  0  0  0  0  0  0
  -19.8502  -28.3322   21.0732 C   0  0  0  0  0  0  0  0  0  0  0  0
  -28.9435  -16.4347   21.9012 N   0  0  0  0  0  0  0  0  0  0  0  0
  -30.9601  -23.2805   19.4340 N   0  0  0  0  0  0  0  0  0  0  0  0
  -29.8386  -17.3964   21.6186 N   0  0  0  0  0  0  0  0  0  0  0  0
  -23.0862  -29.8720   20.9257 N   0  0  0  0  0  0  0  0  0  0  0  0
  -30.0622  -22.5903   21.9695 N   0  0  0  0  0  0  0  0  0  0  0  0
  -29.4135  -20.7665   23.3787 N   0  0  0  0  0  0  0  0  0  0  0  0
  -31.3594  -18.1325   19.9585 N   0  0  0  0  0  0  0  0  0  0  0  0
  -29.5699  -14.4006   18.1511 N   0  0  0  0  0  0  0  0  0  0  0  0
  -24.4661  -31.3691   23.9507 N   0  0  0  0  0  0  0  0  0  0  0  0
  -20.5117  -29.2615   18.8144 N   0  0  0  0  0  0  0  0  0  0  0  0
  -21.3306  -29.3183   15.2939 N   0  3  0  0  0  0  0  0  0  0  0  0
  -31.0774  -16.0951   17.8123 O   0  0  0  0  0  0  0  0  0  0  0  0
  -23.3894  -29.3751   23.4150 O   0  0  0  0  0  0  0  0  0  0  0  0
  -21.0858  -31.0692   20.9618 O   0  0  0  0  0  0  0  0  0  0  0  0
  -21.8477  -27.8011   17.6063 O   0  0  0  0  0  0  0  0  0  0  0  0
  -28.6251  -22.9035   23.7476 O   0  0  0  0  0  0  0  0  0  0  0  0
  -25.7197  -11.1265   20.4944 O   0  0  0  0  0  0  0  0  0  0  0  0
  -28.1449  -26.4967   19.8534 O   0  0  0  0  0  0  0  0  0  1  0  0
  -20.4514  -11.6469   22.0365 F   0  0  0  0  0  0  0  0  0  0  0  0
  -23.6647  -10.6218   18.7154 F   0  0  0  0  0  0  0  0  0  0  0  0
  1  2  1  0  0  0  0
  1  5  2  0  0  0  0
  2  6  2  0  0  0  0
  3  8  2  0  0  0  0
  3 17  1  0  0  0  0
  4  9  1  0  0  0  0
  4 17  2  0  0  0  0
  5 19  1  0  0  0  0
  6 21  1  0  0  0  0
  7 10  2  0  0  0  0
  7 20  1  0  0  0  0
  8 24  1  0  0  0  0
  9 24  2  0  0  0  0
 10 25  1  0  0  0  0
 11 12  2  0  0  0  0
 11 26  1  0  0  0  0
 12 27  1  0  0  0  0
 13 16  2  0  0  0  0
 13 23  1  0  0  0  0
 14 22  1  0  0  0  0
 14 25  2  0  0  0  0
 15 27  2  0  0  0  0
 15 28  1  0  0  0  0
 16 62  1  0  0  0  0
 17 29  1  0  0  0  0
 18 29  1  0  0  0  0
 18 31  2  0  0  0  0
 18 32  1  0  0  0  0
 19 21  2  0  0  0  0
 19 37  1  0  0  0  0
 20 22  2  0  0  0  0
 20 38  1  0  0  0  0
 21 49  1  0  0  0  0
 22 39  1  0  0  0  0
 23 30  2  0  0  0  0
 23 57  1  0  0  0  0
 24 77  1  0  0  0  0
 25 78  1  0  0  0  0
 26 28  2  0  0  0  0
 26 77  1  0  0  0  0
 27 79  1  0  0  0  0
 28 80  1  0  0  0  0
 29 61  2  0  0  0  0
 30 40  1  0  0  0  0
 30 62  1  0  0  0  0
 31 63  1  0  0  0  0
 31 67  1  0  0  0  0
 32 68  1  0  0  0  0
 32 72  2  0  0  0  0
 33 50  1  0  0  0  0
 33 69  1  0  0  0  0
 33 73  2  0  0  0  0
 34 58  1  0  0  0  0
 34 64  1  0  0  0  0
 34 74  2  0  0  0  0
 35 59  1  0  0  0  0
 35 70  1  0  0  0  0
 35 75  2  0  0  0  0
 36 65  1  0  0  0  0
 36 66  1  0  0  0  0
 36 76  2  0  0  0  0
 37 41  1  0  0  0  0
 38 50  1  0  0  0  0
 39 64  1  0  0  0  0
 40 65  1  0  0  0  0
 41 43  1  0  0  0  0
 42 44  1  0  0  0  0
 42 46  1  0  0  0  0
 43 49  1  0  0  0  0
 44 51  1  0  0  0  0
 45 47  1  0  0  0  0
 45 62  1  0  0  0  0
 46 66  1  0  0  0  0
 47 65  1  0  0  0  0
 48 51  1  0  0  0  0
 48 66  1  0  0  0  0
 49 69  1  0  0  0  0
 50 64  1  0  0  0  0
 51 63  1  0  0  0  0
 52 59  1  0  0  0  0
 53 60  1  0  0  0  0
 54 60  1  0  0  0  0
 55 60  1  0  0  0  0
 56 71  1  0  0  0  0
 57 78  1  0  0  0  0
 58 60  1  0  0  0  0
 58 70  1  0  0  0  0
 59 71  1  0  0  0  0
 61 63  1  0  0  0  0
M  CHG  1  71   1
M  ISO  4  36 100  57 101  65 100  78 101
M  END
> <Batch ID>
0183

> <Smiles>
CNC(C)C(=O)NC(C(=O)N1Cc2cc([101O:1][101CH2:1]c3ccn4c3C[100N:0]([100C:0](=O)N3CCCC(n5nc(-c6ccc(Oc7ccc(F)cc7F)cc6)c(C(N)=O)c5N)C3)CC4)ccc2CC1C(=O)NC1CCCc2ccccc21)C(C)(C)C

> <Shape>
0.299

> <Color>
0.079

> <Negative vol penalty>
0.000

$$$$

  -OEChem-04052323073D

 82 91  0     1  0  0  0  0  0999 V2000
  -25.6792  -37.5348   22.9118 C   0  0  0  0  0  0  0  0  0  0  0  0
  -26.3506  -36.6769   22.0466 C   0  0  0  0  0  0  0  0  0  0  0  0
  -24.5416   -9.5124   22.2232 C   0  0  0  0  0  0  0  0  0  0  0  0
  -23.6176   -9.9877   20.0420 C   0  0  0  0  0  0  0  0  0  0  0  0
  -25.0657  -37.0284   24.0568 C   0  0  0  0  0  0  0  0  0  0  0  0
  -26.4098  -35.3122   22.3265 C   0  0  0  0  0  0  0  0  0  0  0  0
  -26.5869  -28.9439   19.0507 C   0  0  0  0  0  0  0  0  0  0  0  0
  -23.3913   -8.7964   22.5545 C   0  0  0  0  0  0  0  0  0  0  0  0
  -22.4673   -9.2716   20.3733 C   0  0  0  0  0  0  0  0  0  0  0  0
  -27.3329  -27.7663   19.0250 C   0  0  0  0  0  0  0  0  0  0  0  0
  -22.1000   -5.7328   21.9377 C   0  0  0  0  0  0  0  0  0  0  0  0
  -22.2634   -4.4978   22.5650 C   0  0  0  0  0  0  0  0  0  0  0  0
  -30.8928  -22.6272   19.5402 C   0  0  0  0  0  0  0  0  0  0  0  0
  -26.1685  -26.9929   20.9910 C   0  0  0  0  0  0  0  0  0  0  0  0
  -21.0140   -5.3005   24.4707 C   0  0  0  0  0  0  0  0  0  0  0  0
  -30.7138  -23.9887   19.5700 C   0  0  0  0  0  0  0  0  0  0  0  0
  -24.6547  -10.1081   20.9670 C   0  0  0  0  0  0  0  0  0  0  0  0
  -27.0113  -10.3479   20.0200 C   0  0  0  0  0  0  0  0  0  0  0  0
  -25.1092  -35.6554   24.3459 C   0  0  0  0  0  0  0  0  0  0  0  0
  -25.6322  -29.1599   20.0549 C   0  0  0  0  0  0  0  0  0  0  0  0
  -25.7975  -34.7871   23.4771 C   0  0  0  0  0  0  0  0  0  0  0  0
  -25.4100  -28.1729   21.0258 C   0  0  0  0  0  0  0  0  0  0  0  0
  -22.3542   -8.6759   21.6295 C   0  0  0  0  0  0  0  0  0  0  0  0
  -27.1258  -26.7918   19.9969 C   0  0  0  0  0  0  0  0  0  0  0  0
  -21.3937   -6.7518   22.5768 C   0  0  0  0  0  0  0  0  0  0  0  0
  -21.7204   -4.2816   23.8315 C   0  0  0  0  0  0  0  0  0  0  0  0
  -20.8506   -6.5356   23.8433 C   0  0  0  0  0  0  0  0  0  0  0  0
  -25.8425  -10.8483   20.6244 C   0  0  0  0  0  0  0  0  0  0  0  0
  -29.6843  -22.1246   19.0220 C   0  0  0  0  0  0  0  0  0  0  0  0
  -27.8351  -11.4412   19.9083 C   0  0  0  0  0  0  0  0  0  0  0  0
  -27.3242   -9.0141   19.5973 C   0  0  0  0  0  0  0  0  0  0  0  0
  -25.2616  -31.3014   22.3744 C   0  0  0  0  0  0  0  0  0  0  0  0
  -22.4231  -29.7866   22.7874 C   0  0  0  0  0  0  0  0  0  0  0  0
  -20.5686  -26.9494   22.3902 C   0  0  0  0  0  0  0  0  0  0  0  0
  -28.8250  -16.5761   18.6852 C   0  0  0  0  0  0  0  0  0  0  0  0
  -24.4715  -35.1613   25.6202 C   0  0  0  0  0  0  0  0  0  0  0  0
  -24.8170  -30.4239   20.0531 C   0  0  0  0  0  0  0  0  0  0  0  0
  -24.3827  -28.3475   22.1134 C   0  0  0  0  0  0  0  0  0  0  0  0
  -24.2603  -33.6497   25.6493 C   0  0  0  0  0  0  0  0  0  0  0  0
  -27.4602  -16.0752   21.8830 C   0  0  0  0  0  0  0  0  0  0  0  0
  -25.5187  -32.9258   25.1811 C   0  0  0  0  0  0  0  0  0  0  0  0
  -27.0056  -14.6187   21.7945 C   0  0  0  0  0  0  0  0  0  0  0  0
  -27.1769  -16.8435   20.5911 C   0  0  0  0  0  0  0  0  0  0  0  0
  -30.5572  -19.8147   19.1977 C   0  0  0  0  0  0  0  0  0  0  0  0
  -28.1092  -20.2421   18.9314 C   0  0  0  0  0  0  0  0  0  0  0  0
  -30.3829  -18.4776   18.4826 C   0  0  0  0  0  0  0  0  0  0  0  0
  -27.9808  -18.9047   18.2106 C   0  0  0  0  0  0  0  0  0  0  0  0
  -27.2715  -14.7431   19.2882 C   0  0  0  0  0  0  0  0  0  0  0  0
  -25.8625  -33.2971   23.7335 C   0  0  1  0  0  0  0  0  0  0  0  0
  -24.2332  -30.7604   21.4219 C   0  0  1  0  0  0  0  0  0  0  0  0
  -27.5963  -13.9303   20.5512 C   0  0  2  0  0  0  0  0  0  0  0  0
  -18.2934  -26.0012   22.8611 C   0  0  0  0  0  0  0  0  0  0  0  0
  -23.1785  -29.4385   25.7231 C   0  0  0  0  0  0  0  0  0  0  0  0
  -21.3786  -27.7082   25.9090 C   0  0  0  0  0  0  0  0  0  0  0  0
  -20.7890  -30.0613   25.3276 C   0  0  0  0  0  0  0  0  0  0  0  0
  -20.0196  -26.5313   19.5122 C   0  0  0  0  0  0  0  0  0  0  0  0
  -28.8153  -25.4926   18.9268 C   0  0  0  0  0  0  0  0  0  1  0  0
  -21.9473  -28.6130   23.6092 C   0  0  1  0  0  0  0  0  0  0  0  0
  -19.1665  -26.7297   21.8513 C   0  0  2  0  0  0  0  0  0  0  0  0
  -21.8441  -28.9525   25.1230 C   0  0  0  0  0  0  0  0  0  0  0  0
  -25.9136  -12.1576   20.8790 N   0  0  0  0  0  0  0  0  0  0  0  0
  -28.8026  -23.0882   18.7428 N   0  0  0  0  0  0  0  0  0  0  0  0
  -29.4576  -24.2101   19.0869 N   0  0  0  0  0  0  0  0  0  0  0  0
  -27.1371  -12.4891   20.4325 N   0  0  0  0  0  0  0  0  0  0  0  0
  -29.4850  -20.7500   18.8405 N   0  0  0  0  0  0  0  0  0  0  0  0
  -23.6153  -29.6033   22.0727 N   0  0  0  0  0  0  0  0  0  0  0  0
  -27.7233  -16.1288   19.4297 N   0  0  0  0  0  0  0  0  0  0  0  0
  -29.0255  -17.9640   18.6204 N   0  0  0  0  0  0  0  0  0  0  0  0
  -29.0814  -11.5987   19.4139 N   0  0  0  0  0  0  0  0  0  0  0  0
  -26.3641   -8.0107   19.7862 N   0  0  0  0  0  0  0  0  0  0  0  0
  -25.0025  -32.5864   22.8116 N   0  0  0  0  0  0  0  0  0  0  0  0
  -20.6919  -28.1760   23.0079 N   0  0  0  0  0  0  0  0  0  0  0  0
  -19.2131  -25.9211   20.6004 N   0  3  0  0  0  0  0  0  0  0  0  0
  -28.4291   -8.7175   19.0827 O   0  0  0  0  0  0  0  0  0  0  0  0
  -26.2185  -30.6042   22.6905 O   0  0  0  0  0  0  0  0  0  0  0  0
  -21.7577  -30.8252   22.7743 O   0  0  0  0  0  0  0  0  0  0  0  0
  -21.4637  -26.1148   22.2778 O   0  0  0  0  0  0  0  0  0  0  0  0
  -29.5864  -15.7853   18.1145 O   0  0  0  0  0  0  0  0  0  0  0  0
  -21.2317   -7.9771   21.9524 O   0  0  0  0  0  0  0  0  0  0  0  0
  -27.8576  -25.6344   19.9743 O   0  0  0  0  0  0  0  0  0  1  0  0
  -21.8760   -3.0951   24.4332 F   0  0  0  0  0  0  0  0  0  0  0  0
  -20.1700   -7.5103   24.4619 F   0  0  0  0  0  0  0  0  0  0  0  0
  1  2  1  0  0  0  0
  1  5  2  0  0  0  0
  2  6  2  0  0  0  0
  3  8  2  0  0  0  0
  3 17  1  0  0  0  0
  4  9  1  0  0  0  0
  4 17  2  0  0  0  0
  5 19  1  0  0  0  0
  6 21  1  0  0  0  0
  7 10  2  0  0  0  0
  7 20  1  0  0  0  0
  8 23  1  0  0  0  0
  9 23  2  0  0  0  0
 10 24  1  0  0  0  0
 11 12  2  0  0  0  0
 11 25  1  0  0  0  0
 12 26  1  0  0  0  0
 13 16  2  0  0  0  0
 13 29  1  0  0  0  0
 14 22  1  0  0  0  0
 14 24  2  0  0  0  0
 15 26  2  0  0  0  0
 15 27  1  0  0  0  0
 16 63  1  0  0  0  0
 17 28  1  0  0  0  0
 18 28  1  0  0  0  0
 18 30  2  0  0  0  0
 18 31  1  0  0  0  0
 19 21  2  0  0  0  0
 19 36  1  0  0  0  0
 20 22  2  0  0  0  0
 20 37  1  0  0  0  0
 21 49  1  0  0  0  0
 22 38  1  0  0  0  0
 23 79  1  0  0  0  0
 24 80  1  0  0  0  0
 25 27  2  0  0  0  0
 25 79  1  0  0  0  0
 26 81  1  0  0  0  0
 27 82  1  0  0  0  0
 28 61  2  0  0  0  0
 29 62  2  0  0  0  0
 29 65  1  0  0  0  0
 30 64  1  0  0  0  0
 30 69  1  0  0  0  0
 31 70  1  0  0  0  0
 31 74  2  0  0  0  0
 32 50  1  0  0  0  0
 32 71  1  0  0  0  0
 32 75  2  0  0  0  0
 33 58  1  0  0  0  0
 33 66  1  0  0  0  0
 33 76  2  0  0  0  0
 34 59  1  0  0  0  0
 34 72  1  0  0  0  0
 34 77  2  0  0  0  0
 35 67  1  0  0  0  0
 35 68  1  0  0  0  0
 35 78  2  0  0  0  0
 36 39  1  0  0  0  0
 37 50  1  0  0  0  0
 38 66  1  0  0  0  0
 39 41  1  0  0  0  0
 40 42  1  0  0  0  0
 40 43  1  0  0  0  0
 41 49  1  0  0  0  0
 42 51  1  0  0  0  0
 43 67  1  0  0  0  0
 44 46  1  0  0  0  0
 44 65  1  0  0  0  0
 45 47  1  0  0  0  0
 45 65  1  0  0  0  0
 46 68  1  0  0  0  0
 47 68  1  0  0  0  0
 48 51  1  0  0  0  0
 48 67  1  0  0  0  0
 49 71  1  0  0  0  0
 50 66  1  0  0  0  0
 51 64  1  0  0  0  0
 52 59  1  0  0  0  0
 53 60  1  0  0  0  0
 54 60  1  0  0  0  0
 55 60  1  0  0  0  0
 56 73  1  0  0  0  0
 57 63  1  0  0  0  0
 57 80  1  0  0  0  0
 58 60  1  0  0  0  0
 58 72  1  0  0  0  0
 59 73  1  0  0  0  0
 61 64  1  0  0  0  0
 62 63  1  0  0  0  0
M  CHG  1  73   1
M  ISO  4  35 100  57 101  68 100  80 101
M  END
> <Batch ID>
0183

> <Smiles>
CNC(C)C(=O)NC(C(=O)N1Cc2cc([101O:1][101CH2:1]n3ccc(N4CC[100N:0]([100C:0](=O)N5CCCC(n6nc(-c7ccc(Oc8ccc(F)cc8F)cc7)c(C(N)=O)c6N)C5)CC4)n3)ccc2CC1C(=O)NC1CCCc2ccccc21)C(C)(C)C

> <Shape>
0.380

> <Color>
0.106

> <Negative vol penalty>
0.000

$$$$

  -OEChem-04052323073D

 81 90  0     1  0  0  0  0  0999 V2000
  -19.8710  -10.7991   20.7470 C   0  0  0  0  0  0  0  0  0  0  0  0
  -20.6209  -11.8872   21.1819 C   0  0  0  0  0  0  0  0  0  0  0  0
  -23.8476  -29.7891   24.5536 C   0  0  0  0  0  0  0  0  0  0  0  0
  -23.7156  -31.7857   23.1997 C   0  0  0  0  0  0  0  0  0  0  0  0
  -20.4710   -9.5473   20.6181 C   0  0  0  0  0  0  0  0  0  0  0  0
  -21.9712  -11.7237   21.4891 C   0  0  0  0  0  0  0  0  0  0  0  0
  -24.8595  -15.4187   19.5786 C   0  0  0  0  0  0  0  0  0  0  0  0
  -23.3670  -30.5020   25.6519 C   0  0  0  0  0  0  0  0  0  0  0  0
  -23.2350  -32.4987   24.2980 C   0  0  0  0  0  0  0  0  0  0  0  0
  -24.8611  -16.6389   20.2532 C   0  0  0  0  0  0  0  0  0  0  0  0
  -21.6318  -34.7589   26.6516 C   0  0  0  0  0  0  0  0  0  0  0  0
  -20.5431  -35.6070   26.4492 C   0  0  0  0  0  0  0  0  0  0  0  0
  -26.9530  -16.0502   21.3005 C   0  0  0  0  0  0  0  0  0  0  0  0
  -19.2103  -33.7244   25.7305 C   0  0  0  0  0  0  0  0  0  0  0  0
  -24.0220  -30.4310   23.3275 C   0  0  0  0  0  0  0  0  0  0  0  0
  -23.7607  -28.9957   21.2347 C   0  0  0  0  0  0  0  0  0  0  0  0
  -21.8317   -9.3704   20.9146 C   0  0  0  0  0  0  0  0  0  0  0  0
  -25.9008  -14.4990   19.7686 C   0  0  0  0  0  0  0  0  0  0  0  0
  -22.5897  -10.4680   21.3653 C   0  0  0  0  0  0  0  0  0  0  0  0
  -26.9635  -14.8201   20.6252 C   0  0  0  0  0  0  0  0  0  0  0  0
  -23.0607  -31.8568   25.5241 C   0  0  0  0  0  0  0  0  0  0  0  0
  -25.9065  -16.9535   21.1165 C   0  0  0  0  0  0  0  0  0  0  0  0
  -21.5098  -33.3936   26.3934 C   0  0  0  0  0  0  0  0  0  0  0  0
  -19.3323  -35.0897   25.9887 C   0  0  0  0  0  0  0  0  0  0  0  0
  -20.2991  -32.8763   25.9329 C   0  0  0  0  0  0  0  0  0  0  0  0
  -24.5190  -29.6952   22.1927 C   0  0  0  0  0  0  0  0  0  0  0  0
  -24.6939  -28.4738   20.3726 C   0  0  0  0  0  0  0  0  0  0  0  0
  -22.3399  -28.8325   21.1332 C   0  0  0  0  0  0  0  0  0  0  0  0
  -26.0965  -11.5333   20.8955 C   0  0  0  0  0  0  0  0  0  0  0  0
  -29.1814  -11.7840   19.9245 C   0  0  0  0  0  0  0  0  0  0  0  0
  -31.8298  -13.8040   19.1814 C   0  0  0  0  0  0  0  0  0  0  0  0
  -29.5680  -25.6974   19.7932 C   0  0  0  0  0  0  0  0  0  0  0  0
  -22.4248   -7.9881   20.8053 C   0  0  0  0  0  0  0  0  0  0  0  0
  -25.8978  -13.1984   19.0130 C   0  0  0  0  0  0  0  0  0  0  0  0
  -28.1155  -13.8759   20.8482 C   0  0  0  0  0  0  0  0  0  0  0  0
  -23.9513   -7.9795   20.7923 C   0  0  0  0  0  0  0  0  0  0  0  0
  -29.6527  -29.3637   19.9287 C   0  0  0  0  0  0  0  0  0  0  0  0
  -24.4995   -8.8809   21.8940 C   0  0  0  0  0  0  0  0  0  0  0  0
  -28.2760  -29.7121   20.4972 C   0  0  0  0  0  0  0  0  0  0  0  0
  -27.0854  -19.6389   20.1074 C   0  0  0  0  0  0  0  0  0  0  0  0
  -26.9174  -20.4524   22.0739 C   0  0  0  0  0  0  0  0  0  0  0  0
  -30.1526  -28.0101   20.4287 C   0  0  0  0  0  0  0  0  0  0  0  0
  -27.2009  -24.9929   19.1083 C   0  0  0  0  0  0  0  0  0  0  0  0
  -27.8385  -27.2476   20.7971 C   0  0  0  0  0  0  0  0  0  0  0  0
  -28.9412  -23.3449   19.3309 C   0  0  0  0  0  0  0  0  0  0  0  0
  -24.0631  -10.3360   21.6845 C   0  0  1  0  0  0  0  0  0  0  0  0
  -26.7494  -12.1202   19.6761 C   0  0  1  0  0  0  0  0  0  0  0  0
  -26.8263  -23.7487   18.2985 C   0  0  1  0  0  0  0  0  0  0  0  0
  -27.2713  -28.5688   20.2604 C   0  0  1  0  0  0  0  0  0  0  0  0
  -27.5934  -20.9338   20.7739 C   0  0  0  0  0  0  0  0  0  0  0  0
  -27.6412  -22.6372   18.9722 C   0  0  2  0  0  0  0  0  0  0  0  0
  -27.0286  -19.0112   21.5206 C   0  0  0  0  0  0  0  0  0  1  0  0
  -25.3255  -23.5212   18.2097 C   0  0  0  0  0  0  0  0  0  0  0  0
  -34.2297  -13.7177   18.4532 C   0  0  0  0  0  0  0  0  0  0  0  0
  -30.0049  -10.9596   22.7445 C   0  0  0  0  0  0  0  0  0  0  0  0
  -32.3092  -11.7999   22.2420 C   0  0  0  0  0  0  0  0  0  0  0  0
  -31.3543   -9.9149   20.9163 C   0  0  0  0  0  0  0  0  0  0  0  0
  -31.2511  -15.3064   16.6981 C   0  0  0  0  0  0  0  0  0  0  0  0
  -30.4672  -12.2554   20.5597 C   0  0  1  0  0  0  0  0  0  0  0  0
  -32.7820  -13.8225   17.9993 C   0  0  2  0  0  0  0  0  0  0  0  0
  -31.0114  -11.2497   21.6131 C   0  0  0  0  0  0  0  0  0  0  0  0
  -25.8326  -29.6257   21.9613 N   0  0  0  0  0  0  0  0  0  0  0  0
  -25.9071  -28.8764   20.8482 N   0  0  0  0  0  0  0  0  0  0  0  0
  -28.0638  -12.6140   20.0915 N   0  0  0  0  0  0  0  0  0  0  0  0
  -29.1510  -26.9675   20.2055 N   0  0  0  0  0  0  0  0  0  0  0  0
  -28.5806  -24.7459   19.5384 N   0  0  0  0  0  0  0  0  0  0  0  0
  -24.5868  -27.7143   19.2617 N   0  0  0  0  0  0  0  0  0  0  0  0
  -21.5271  -29.4353   22.1029 N   0  0  0  0  0  0  0  0  0  0  0  0
  -24.8629  -10.9600   20.6524 N   0  0  0  0  0  0  0  0  0  0  0  0
  -31.3887  -12.5281   19.4620 N   0  0  0  0  0  0  0  0  0  0  0  0
  -26.9948  -22.1517   20.2191 N   0  3  0  0  0  0  0  0  0  0  0  0
  -32.6224  -15.0860   17.2254 N   0  3  0  0  0  0  0  0  0  0  0  0
  -21.8078  -28.1578   20.2193 O   0  0  0  0  0  0  0  0  0  0  0  0
  -26.6701  -11.5946   21.9767 O   0  0  0  0  0  0  0  0  0  0  0  0
  -29.1707  -10.7220   19.2971 O   0  0  0  0  0  0  0  0  0  0  0  0
  -31.5122  -14.8193   19.7969 O   0  0  0  0  0  0  0  0  0  0  0  0
  -30.7655  -25.4390   19.6138 O   0  0  0  0  0  0  0  0  0  0  0  0
  -22.5914  -32.5528   26.5956 O   0  0  0  0  0  0  0  0  0  0  0  0
  -25.9102  -18.1459   21.7780 O   0  0  0  0  0  0  0  0  0  1  0  0
  -18.2864  -35.9040   25.7958 F   0  0  0  0  0  0  0  0  0  0  0  0
  -20.1755  -31.5653   25.6842 F   0  0  0  0  0  0  0  0  0  0  0  0
  1  2  1  0  0  0  0
  1  5  2  0  0  0  0
  2  6  2  0  0  0  0
  3  8  2  0  0  0  0
  3 15  1  0  0  0  0
  4  9  1  0  0  0  0
  4 15  2  0  0  0  0
  5 17  1  0  0  0  0
  6 19  1  0  0  0  0
  7 10  2  0  0  0  0
  7 18  1  0  0  0  0
  8 21  1  0  0  0  0
  9 21  2  0  0  0  0
 10 22  1  0  0  0  0
 11 12  2  0  0  0  0
 11 23  1  0  0  0  0
 12 24  1  0  0  0  0
 13 20  1  0  0  0  0
 13 22  2  0  0  0  0
 14 24  2  0  0  0  0
 14 25  1  0  0  0  0
 15 26  1  0  0  0  0
 16 26  1  0  0  0  0
 16 27  2  0  0  0  0
 16 28  1  0  0  0  0
 17 19  2  0  0  0  0
 17 33  1  0  0  0  0
 18 20  2  0  0  0  0
 18 34  1  0  0  0  0
 19 46  1  0  0  0  0
 20 35  1  0  0  0  0
 21 78  1  0  0  0  0
 22 79  1  0  0  0  0
 23 25  2  0  0  0  0
 23 78  1  0  0  0  0
 24 80  1  0  0  0  0
 25 81  1  0  0  0  0
 26 62  2  0  0  0  0
 27 63  1  0  0  0  0
 27 67  1  0  0  0  0
 28 68  1  0  0  0  0
 28 73  2  0  0  0  0
 29 47  1  0  0  0  0
 29 69  1  0  0  0  0
 29 74  2  0  0  0  0
 30 59  1  0  0  0  0
 30 64  1  0  0  0  0
 30 75  2  0  0  0  0
 31 60  1  0  0  0  0
 31 70  1  0  0  0  0
 31 76  2  0  0  0  0
 32 65  1  0  0  0  0
 32 66  1  0  0  0  0
 32 77  2  0  0  0  0
 33 36  1  0  0  0  0
 34 47  1  0  0  0  0
 35 64  1  0  0  0  0
 36 38  1  0  0  0  0
 37 39  1  0  0  0  0
 37 42  1  0  0  0  0
 38 46  1  0  0  0  0
 39 49  1  0  0  0  0
 40 50  1  0  0  0  0
 40 52  1  0  0  0  0
 41 50  1  0  0  0  0
 41 52  1  0  0  0  0
 42 65  1  0  0  0  0
 43 48  1  0  0  0  0
 43 66  1  0  0  0  0
 44 49  1  0  0  0  0
 44 65  1  0  0  0  0
 45 51  1  0  0  0  0
 45 66  1  0  0  0  0
 46 69  1  0  0  0  0
 47 64  1  0  0  0  0
 48 51  1  0  0  0  0
 48 53  1  0  0  0  0
 49 63  1  0  0  0  0
 50 71  1  0  0  0  0
 51 71  1  0  0  0  0
 52 79  1  0  0  0  0
 54 60  1  0  0  0  0
 55 61  1  0  0  0  0
 56 61  1  0  0  0  0
 57 61  1  0  0  0  0
 58 72  1  0  0  0  0
 59 61  1  0  0  0  0
 59 70  1  0  0  0  0
 60 72  1  0  0  0  0
 62 63  1  0  0  0  0
M  CHG  2  71   1  72   1
M  ISO  4  32 100  52 101  66 100  79 101
M  END
> <Batch ID>
0183

> <Smiles>
CNC(C)C(=O)NC(C(=O)N1Cc2cc([101O:1][101CH:1]3CC(NC4C[100N:0]([100C:0](=O)N5CCCC(n6nc(-c7ccc(Oc8ccc(F)cc8F)cc7)c(C(N)=O)c6N)C5)CC4C)C3)ccc2CC1C(=O)NC1CCCc2ccccc21)C(C)(C)C

> <Shape>
0.252

> <Color>
0.081

> <Negative vol penalty>
0.000

$$$$

  -OEChem-04052323073D

 85 95  0     1  0  0  0  0  0999 V2000
  -17.4711  -27.4112   24.1300 C   0  0  0  0  0  0  0  0  0  0  0  0
  -18.0589  -26.8489   23.0014 C   0  0  0  0  0  0  0  0  0  0  0  0
  -23.0075  -10.2312   20.0217 C   0  0  0  0  0  0  0  0  0  0  0  0
  -24.0527   -9.5458   22.0893 C   0  0  0  0  0  0  0  0  0  0  0  0
  -17.7664  -28.7263   24.4865 C   0  0  0  0  0  0  0  0  0  0  0  0
  -18.9416  -27.6018   22.2280 C   0  0  0  0  0  0  0  0  0  0  0  0
  -23.0945  -25.0064   20.9387 C   0  0  0  0  0  0  0  0  0  0  0  0
  -22.2404   -9.0663   20.0233 C   0  0  0  0  0  0  0  0  0  0  0  0
  -23.2855   -8.3809   22.0909 C   0  0  0  0  0  0  0  0  0  0  0  0
  -22.9740  -24.0894   19.8955 C   0  0  0  0  0  0  0  0  0  0  0  0
  -20.1221   -7.4847   22.8721 C   0  0  0  0  0  0  0  0  0  0  0  0
  -19.5195   -7.1090   24.0726 C   0  0  0  0  0  0  0  0  0  0  0  0
  -23.9546  -25.6915   18.3819 C   0  0  0  0  0  0  0  0  0  0  0  0
  -20.7382   -5.0233   24.0317 C   0  0  0  0  0  0  0  0  0  0  0  0
  -25.2714  -20.9841   16.1706 C   0  0  0  0  0  0  0  0  0  0  0  0
  -23.9137  -10.4710   21.0547 C   0  0  0  0  0  0  0  0  0  0  0  0
  -24.3733  -12.9127   21.6329 C   0  0  0  0  0  0  0  0  0  0  0  0
  -18.6607  -29.4926   23.7225 C   0  0  0  0  0  0  0  0  0  0  0  0
  -23.6369  -26.2790   20.7087 C   0  0  0  0  0  0  0  0  0  0  0  0
  -19.2482  -28.9289   22.5738 C   0  0  0  0  0  0  0  0  0  0  0  0
  -24.0833  -26.6219   19.4245 C   0  0  0  0  0  0  0  0  0  0  0  0
  -26.4130  -21.0219   16.9450 C   0  0  0  0  0  0  0  0  0  0  0  0
  -22.3794   -8.1411   21.0578 C   0  0  0  0  0  0  0  0  0  0  0  0
  -23.4014  -24.4329   18.6162 C   0  0  0  0  0  0  0  0  0  0  0  0
  -21.0327   -6.6296   22.2513 C   0  0  0  0  0  0  0  0  0  0  0  0
  -19.8275   -5.8783   24.6524 C   0  0  0  0  0  0  0  0  0  0  0  0
  -21.3408   -5.3990   22.8311 C   0  0  0  0  0  0  0  0  0  0  0  0
  -24.7068  -11.6739   21.0534 C   0  0  0  0  0  0  0  0  0  0  0  0
  -26.4212  -21.9671   17.9505 C   0  0  0  0  0  0  0  0  0  0  0  0
  -25.4491  -13.7212   21.3581 C   0  0  0  0  0  0  0  0  0  0  0  0
  -24.3429  -22.6792   17.3670 C   0  0  0  0  0  0  0  0  0  1  0  0
  -23.1962  -13.2982   22.3551 C   0  0  0  0  0  0  0  0  0  0  0  0
  -22.5538  -29.2571   20.9556 C   0  0  0  0  0  0  0  0  0  0  0  0
  -25.6293  -30.0189   20.2605 C   0  0  0  0  0  0  0  0  0  0  0  0
  -28.5933  -29.0957   18.8432 C   0  0  0  0  0  0  0  0  0  0  0  0
  -29.2946  -15.6067   17.7812 C   0  0  0  0  0  0  0  0  0  0  0  0
  -18.9126  -30.9254   24.1205 C   0  0  0  0  0  0  0  0  0  0  0  0
  -23.7847  -27.2471   21.8503 C   0  0  0  0  0  0  0  0  0  0  0  0
  -24.6914  -27.9679   19.1295 C   0  0  0  0  0  0  0  0  0  0  0  0
  -20.1472  -31.5331   23.4596 C   0  0  0  0  0  0  0  0  0  0  0  0
  -30.0283  -12.6362   19.5553 C   0  0  0  0  0  0  0  0  0  0  0  0
  -20.1634  -31.2180   21.9672 C   0  0  0  0  0  0  0  0  0  0  0  0
  -27.8834  -23.4067   19.5201 C   0  0  0  0  0  0  0  0  0  0  0  0
  -28.7709  -22.9405   18.4087 C   0  0  0  0  0  0  0  0  0  0  0  0
  -28.6824  -12.1953   20.1235 C   0  0  0  0  0  0  0  0  0  0  0  0
  -26.4944  -17.7740   16.8085 C   0  0  0  0  0  0  0  0  0  0  0  0
  -29.8588  -13.2331   18.1648 C   0  0  0  0  0  0  0  0  0  0  0  0
  -26.8977  -16.4679   17.4809 C   0  0  0  0  0  0  0  0  0  0  0  0
  -28.7333  -18.0109   17.5853 C   0  0  0  0  0  0  0  0  0  0  0  0
  -27.5617  -13.9938   18.7092 C   0  0  0  0  0  0  0  0  0  0  0  0
  -20.2299  -29.7056   21.7234 C   0  0  1  0  0  0  0  0  0  0  0  0
  -27.6104  -22.0888   18.8471 C   0  0  0  0  0  0  0  0  0  0  0  0
  -23.8786  -28.6996   21.3936 C   0  0  1  0  0  0  0  0  0  0  0  0
  -27.4260  -18.7895   17.4710 C   0  0  1  0  0  0  0  0  0  0  0  0
  -27.6816  -13.3612   20.1109 C   0  0  1  0  0  0  0  0  0  0  0  0
  -30.9126  -29.9442   18.3974 C   0  0  0  0  0  0  0  0  0  0  0  0
  -24.5550  -31.7581   17.9953 C   0  0  0  0  0  0  0  0  0  0  0  0
  -26.8638  -31.8026   17.0279 C   0  0  0  0  0  0  0  0  0  0  0  0
  -26.4406  -32.7741   19.2862 C   0  0  0  0  0  0  0  0  0  0  0  0
  -29.8183  -26.9341   20.4512 C   0  0  0  0  0  0  0  0  0  0  0  0
  -27.5609  -20.0806   16.6839 C   0  0  0  0  0  0  0  0  0  0  0  0
  -26.4095  -30.2633   18.9914 C   0  0  1  0  0  0  0  0  0  0  0  0
  -30.0207  -29.1692   19.3549 C   0  0  2  0  0  0  0  0  0  0  0  0
  -26.0540  -31.6248   18.3300 C   0  0  0  0  0  0  0  0  0  0  0  0
  -24.2135  -21.8010   16.3544 N   0  0  0  0  0  0  0  0  0  0  0  0
  -25.9011  -11.6893   20.4554 N   0  0  0  0  0  0  0  0  0  0  0  0
  -25.3997  -22.8151   18.1906 N   0  0  0  0  0  0  0  0  0  0  0  0
  -26.3273  -12.9477   20.6576 N   0  0  0  0  0  0  0  0  0  0  0  0
  -24.8086  -28.8822   20.2774 N   0  0  0  0  0  0  0  0  0  0  0  0
  -28.8814  -14.3232   18.1552 N   0  0  0  0  0  0  0  0  0  0  0  0
  -28.3323  -16.6147   17.7356 N   0  0  0  0  0  0  0  0  0  0  0  0
  -25.7200  -15.0111   21.6496 N   0  0  0  0  0  0  0  0  0  0  0  0
  -22.1879  -12.3440   22.5476 N   0  0  0  0  0  0  0  0  0  0  0  0
  -21.5767  -29.2187   21.9320 N   0  0  0  0  0  0  0  0  0  0  0  0
  -27.8178  -30.1199   19.3441 N   0  0  0  0  0  0  0  0  0  0  0  0
  -30.5840  -27.7991   19.5171 N   0  3  0  0  0  0  0  0  0  0  0  0
  -23.0360  -14.4593   22.8020 O   0  0  0  0  0  0  0  0  0  0  0  0
  -22.4278  -29.6914   19.8167 O   0  0  0  0  0  0  0  0  0  0  0  0
  -25.7491  -30.8037   21.2046 O   0  0  0  0  0  0  0  0  0  0  0  0
  -28.2061  -28.2197   18.0730 O   0  0  0  0  0  0  0  0  0  0  0  0
  -30.4684  -15.8358   17.4594 O   0  0  0  0  0  0  0  0  0  0  0  0
  -21.6308   -7.0044   21.0598 O   0  0  0  0  0  0  0  0  0  0  0  0
  -23.2828  -23.5287   17.5831 O   0  0  0  0  0  0  0  0  0  1  0  0
  -19.2499   -5.5184   25.8061 F   0  0  0  0  0  0  0  0  0  0  0  0
  -22.2157   -4.5738   22.2400 F   0  0  0  0  0  0  0  0  0  0  0  0
  1  2  1  0  0  0  0
  1  5  2  0  0  0  0
  2  6  2  0  0  0  0
  3  8  2  0  0  0  0
  3 16  1  0  0  0  0
  4  9  1  0  0  0  0
  4 16  2  0  0  0  0
  5 18  1  0  0  0  0
  6 20  1  0  0  0  0
  7 10  2  0  0  0  0
  7 19  1  0  0  0  0
  8 23  1  0  0  0  0
  9 23  2  0  0  0  0
 10 24  1  0  0  0  0
 11 12  2  0  0  0  0
 11 25  1  0  0  0  0
 12 26  1  0  0  0  0
 13 21  1  0  0  0  0
 13 24  2  0  0  0  0
 14 26  2  0  0  0  0
 14 27  1  0  0  0  0
 15 22  1  0  0  0  0
 15 65  2  0  0  0  0
 16 28  1  0  0  0  0
 17 28  1  0  0  0  0
 17 30  2  0  0  0  0
 17 32  1  0  0  0  0
 18 20  2  0  0  0  0
 18 37  1  0  0  0  0
 19 21  2  0  0  0  0
 19 38  1  0  0  0  0
 20 51  1  0  0  0  0
 21 39  1  0  0  0  0
 22 29  2  0  0  0  0
 22 61  1  0  0  0  0
 23 82  1  0  0  0  0
 24 83  1  0  0  0  0
 25 27  2  0  0  0  0
 25 82  1  0  0  0  0
 26 84  1  0  0  0  0
 27 85  1  0  0  0  0
 28 66  2  0  0  0  0
 29 52  1  0  0  0  0
 29 67  1  0  0  0  0
 30 68  1  0  0  0  0
 30 72  1  0  0  0  0
 31 65  1  0  0  0  0
 31 67  2  0  0  0  0
 31 83  1  0  0  0  0
 32 73  1  0  0  0  0
 32 77  2  0  0  0  0
 33 53  1  0  0  0  0
 33 74  1  0  0  0  0
 33 78  2  0  0  0  0
 34 62  1  0  0  0  0
 34 69  1  0  0  0  0
 34 79  2  0  0  0  0
 35 63  1  0  0  0  0
 35 75  1  0  0  0  0
 35 80  2  0  0  0  0
 36 70  1  0  0  0  0
 36 71  1  0  0  0  0
 36 81  2  0  0  0  0
 37 40  1  0  0  0  0
 38 53  1  0  0  0  0
 39 69  1  0  0  0  0
 40 42  1  0  0  0  0
 41 45  1  0  0  0  0
 41 47  1  0  0  0  0
 42 51  1  0  0  0  0
 43 44  1  0  0  0  0
 43 52  1  0  0  0  0
 44 52  1  0  0  0  0
 45 55  1  0  0  0  0
 46 48  1  0  0  0  0
 46 54  1  0  0  0  0
 47 70  1  0  0  0  0
 48 71  1  0  0  0  0
 49 54  1  0  0  0  0
 49 71  1  0  0  0  0
 50 55  1  0  0  0  0
 50 70  1  0  0  0  0
 51 74  1  0  0  0  0
 53 69  1  0  0  0  0
 54 61  1  0  0  0  0
 55 68  1  0  0  0  0
 56 63  1  0  0  0  0
 57 64  1  0  0  0  0
 58 64  1  0  0  0  0
 59 64  1  0  0  0  0
 60 76  1  0  0  0  0
 62 64  1  0  0  0  0
 62 75  1  0  0  0  0
 63 76  1  0  0  0  0
 66 68  1  0  0  0  0
M  CHG  1  76   1
M  ISO  4  31 101  36 100  71 100  83 101
M  END
> <Batch ID>
0183

> <Smiles>
CNC(C)C(=O)NC(C(=O)N1Cc2cc([101O:1][101c:1]3ncc(CC4CC[100N:0]([100C:0](=O)N5CCCC(n6nc(-c7ccc(Oc8ccc(F)cc8F)cc7)c(C(N)=O)c6N)C5)C4)c(C4CC4)n3)ccc2CC1C(=O)NC1CCCc2ccccc21)C(C)(C)C

> <Shape>
0.270

> <Color>
0.130

> <Negative vol penalty>
0.000

$$$$

  -OEChem-04052323073D

 83 92  0     1  0  0  0  0  0999 V2000
  -27.2621  -22.4728   21.7274 C   0  0  0  0  0  0  0  0  0  0  0  0
  -27.4873  -21.5598   20.7022 C   0  0  0  0  0  0  0  0  0  0  0  0
  -26.6524  -28.0485   19.0155 C   0  0  0  0  0  0  0  0  0  0  0  0
  -26.1677  -26.7640   21.0035 C   0  0  0  0  0  0  0  0  0  0  0  0
  -28.2372  -22.6790   22.7024 C   0  0  0  0  0  0  0  0  0  0  0  0
  -28.6883  -20.8533   20.6506 C   0  0  0  0  0  0  0  0  0  0  0  0
  -26.6767  -17.1015   23.1770 C   0  0  0  0  0  0  0  0  0  0  0  0
  -26.2076  -29.2057   19.6547 C   0  0  0  0  0  0  0  0  0  0  0  0
  -25.7230  -27.9212   21.6428 C   0  0  0  0  0  0  0  0  0  0  0  0
  -25.3461  -17.1819   22.7685 C   0  0  0  0  0  0  0  0  0  0  0  0
  -27.0954  -30.6053   23.1700 C   0  0  0  0  0  0  0  0  0  0  0  0
  -27.5243  -30.8264   24.4787 C   0  0  0  0  0  0  0  0  0  0  0  0
  -25.9678  -16.3343   20.5972 C   0  0  0  0  0  0  0  0  0  0  0  0
  -25.2287  -30.8198   25.2321 C   0  0  0  0  0  0  0  0  0  0  0  0
  -20.4661  -16.3716   21.8166 C   0  0  0  0  0  0  0  0  0  0  0  0
  -26.6324  -26.8276   19.6899 C   0  0  0  0  0  0  0  0  0  0  0  0
  -28.4014  -25.1172   19.0171 C   0  0  0  0  0  0  0  0  0  0  0  0
  -29.4469  -21.9675   22.6682 C   0  0  0  0  0  0  0  0  0  0  0  0
  -27.6662  -16.6463   22.2937 C   0  0  0  0  0  0  0  0  0  0  0  0
  -29.6811  -21.0511   21.6252 C   0  0  0  0  0  0  0  0  0  0  0  0
  -27.3098  -16.2466   20.9979 C   0  0  0  0  0  0  0  0  0  0  0  0
  -21.3823  -17.3355   21.4482 C   0  0  0  0  0  0  0  0  0  0  0  0
  -25.7429  -29.1421   20.9684 C   0  0  0  0  0  0  0  0  0  0  0  0
  -24.9920  -16.8011   21.4775 C   0  0  0  0  0  0  0  0  0  0  0  0
  -25.7332  -30.4914   22.8923 C   0  0  0  0  0  0  0  0  0  0  0  0
  -26.5910  -30.9337   25.5098 C   0  0  0  0  0  0  0  0  0  0  0  0
  -24.7999  -30.5987   23.9233 C   0  0  0  0  0  0  0  0  0  0  0  0
  -27.0911  -25.6317   19.0299 C   0  0  0  0  0  0  0  0  0  0  0  0
  -20.9415  -18.2530   20.5165 C   0  0  0  0  0  0  0  0  0  0  0  0
  -28.3144  -23.9752   18.2590 C   0  0  0  0  0  0  0  0  0  0  0  0
  -18.9035  -17.2511   20.4195 C   0  0  0  0  0  0  0  0  0  0  0  0
  -29.5908  -25.6260   19.6352 C   0  0  0  0  0  0  0  0  0  0  0  0
  -30.2843  -17.9140   21.0123 C   0  0  0  0  0  0  0  0  0  0  0  0
  -30.7110  -14.9071   19.8726 C   0  0  0  0  0  0  0  0  0  0  0  0
  -29.3202  -11.9164   18.9964 C   0  0  0  0  0  0  0  0  0  0  0  0
  -23.7728  -20.2925   16.9896 C   0  0  0  0  0  0  0  0  0  0  0  0
  -30.4903  -22.2589   23.7174 C   0  0  0  0  0  0  0  0  0  0  0  0
  -29.0928  -16.5401   22.7584 C   0  0  0  0  0  0  0  0  0  0  0  0
  -28.3310  -15.7318   20.0178 C   0  0  0  0  0  0  0  0  0  0  0  0
  -31.5825  -21.1958   23.8020 C   0  0  0  0  0  0  0  0  0  0  0  0
  -25.8349  -22.0115   14.6927 C   0  0  0  0  0  0  0  0  0  0  0  0
  -32.0867  -20.8363   22.4080 C   0  0  0  0  0  0  0  0  0  0  0  0
  -26.4911  -23.1098   15.5249 C   0  0  0  0  0  0  0  0  0  0  0  0
  -21.1902  -20.6590   19.5683 C   0  0  0  0  0  0  0  0  0  0  0  0
  -24.3921  -21.7924   15.1275 C   0  0  0  0  0  0  0  0  0  0  0  0
  -22.3027  -21.3572   18.7978 C   0  0  0  0  0  0  0  0  0  0  0  0
  -22.7027  -18.9946   18.8066 C   0  0  0  0  0  0  0  0  0  0  0  0
  -24.9186  -22.5168   17.4402 C   0  0  0  0  0  0  0  0  0  0  0  0
  -30.9611  -20.2474   21.5491 C   0  0  1  0  0  0  0  0  0  0  0  0
  -21.8587  -19.3564   20.0369 C   0  0  2  0  0  0  0  0  0  0  0  0
  -30.0973  -16.5483   21.6103 C   0  0  1  0  0  0  0  0  0  0  0  0
  -26.3781  -22.7938   17.0244 C   0  0  2  0  0  0  0  0  0  0  0  0
  -17.5265  -17.2048   19.8486 C   0  0  0  0  0  0  0  0  0  0  0  0
  -29.9164   -9.6651   18.0617 C   0  0  0  0  0  0  0  0  0  0  0  0
  -30.9648  -16.1325   17.0898 C   0  0  0  0  0  0  0  0  0  0  0  0
  -30.6035  -13.8495   16.1277 C   0  0  0  0  0  0  0  0  0  0  0  0
  -32.5888  -14.2926   17.5716 C   0  0  0  0  0  0  0  0  0  0  0  0
  -28.3707  -10.5256   21.4302 C   0  0  0  0  0  0  0  0  0  0  0  0
  -22.7479  -17.3611   22.0312 C   0  0  0  0  0  0  0  0  0  1  0  0
  -30.2936  -14.1677   18.6244 C   0  0  1  0  0  0  0  0  0  0  0  0
  -29.7141  -10.4876   19.3248 C   0  0  2  0  0  0  0  0  0  0  0  0
  -31.0935  -14.6221   17.3710 C   0  0  0  0  0  0  0  0  0  0  0  0
  -19.2135  -16.2995   21.3205 N   0  0  0  0  0  0  0  0  0  0  0  0
  -26.2345  -24.8785   18.3349 N   0  0  0  0  0  0  0  0  0  0  0  0
  -19.7040  -18.2404   19.9790 N   0  0  0  0  0  0  0  0  0  0  0  0
  -27.0083  -23.8790   17.8783 N   0  0  0  0  0  0  0  0  0  0  0  0
  -29.7137  -15.6525   20.5173 N   0  0  0  0  0  0  0  0  0  0  0  0
  -24.2919  -21.5198   16.5625 N   0  0  0  0  0  0  0  0  0  0  0  0
  -23.0617  -20.2670   18.1887 N   0  0  0  0  0  0  0  0  0  0  0  0
  -29.2286  -23.0539   17.8875 N   0  0  0  0  0  0  0  0  0  0  0  0
  -29.5030  -26.8109   20.3786 N   0  0  0  0  0  0  0  0  0  0  0  0
  -30.7158  -18.8685   21.9136 N   0  0  0  0  0  0  0  0  0  0  0  0
  -30.4189  -12.7468   18.9305 N   0  0  0  0  0  0  0  0  0  0  0  0
  -28.6562   -9.8344   20.1465 N   0  3  0  0  0  0  0  0  0  0  0  0
  -30.7020  -25.0558   19.5179 O   0  0  0  0  0  0  0  0  0  0  0  0
  -30.0555  -18.0885   19.8212 O   0  0  0  0  0  0  0  0  0  0  0  0
  -31.8772  -14.8206   20.2652 O   0  0  0  0  0  0  0  0  0  0  0  0
  -28.1547  -12.2606   18.8128 O   0  0  0  0  0  0  0  0  0  0  0  0
  -23.9030  -19.2672   16.3073 O   0  0  0  0  0  0  0  0  0  0  0  0
  -25.3091  -30.2711   21.5926 O   0  0  0  0  0  0  0  0  0  0  0  0
  -23.6860  -16.8797   21.0735 O   0  0  0  0  0  0  0  0  0  1  0  0
  -27.0030  -31.1445   26.7667 F   0  0  0  0  0  0  0  0  0  0  0  0
  -23.4900  -30.4890   23.6628 F   0  0  0  0  0  0  0  0  0  0  0  0
  1  2  1  0  0  0  0
  1  5  2  0  0  0  0
  2  6  2  0  0  0  0
  3  8  2  0  0  0  0
  3 16  1  0  0  0  0
  4  9  1  0  0  0  0
  4 16  2  0  0  0  0
  5 18  1  0  0  0  0
  6 20  1  0  0  0  0
  7 10  2  0  0  0  0
  7 19  1  0  0  0  0
  8 23  1  0  0  0  0
  9 23  2  0  0  0  0
 10 24  1  0  0  0  0
 11 12  2  0  0  0  0
 11 25  1  0  0  0  0
 12 26  1  0  0  0  0
 13 21  1  0  0  0  0
 13 24  2  0  0  0  0
 14 26  2  0  0  0  0
 14 27  1  0  0  0  0
 15 22  1  0  0  0  0
 15 63  2  0  0  0  0
 16 28  1  0  0  0  0
 17 28  1  0  0  0  0
 17 30  2  0  0  0  0
 17 32  1  0  0  0  0
 18 20  2  0  0  0  0
 18 37  1  0  0  0  0
 19 21  2  0  0  0  0
 19 38  1  0  0  0  0
 20 49  1  0  0  0  0
 21 39  1  0  0  0  0
 22 29  2  0  0  0  0
 22 59  1  0  0  0  0
 23 80  1  0  0  0  0
 24 81  1  0  0  0  0
 25 27  2  0  0  0  0
 25 80  1  0  0  0  0
 26 82  1  0  0  0  0
 27 83  1  0  0  0  0
 28 64  2  0  0  0  0
 29 50  1  0  0  0  0
 29 65  1  0  0  0  0
 30 66  1  0  0  0  0
 30 70  1  0  0  0  0
 31 53  1  0  0  0  0
 31 63  1  0  0  0  0
 31 65  2  0  0  0  0
 32 71  1  0  0  0  0
 32 75  2  0  0  0  0
 33 51  1  0  0  0  0
 33 72  1  0  0  0  0
 33 76  2  0  0  0  0
 34 60  1  0  0  0  0
 34 67  1  0  0  0  0
 34 77  2  0  0  0  0
 35 61  1  0  0  0  0
 35 73  1  0  0  0  0
 35 78  2  0  0  0  0
 36 68  1  0  0  0  0
 36 69  1  0  0  0  0
 36 79  2  0  0  0  0
 37 40  1  0  0  0  0
 38 51  1  0  0  0  0
 39 67  1  0  0  0  0
 40 42  1  0  0  0  0
 41 43  1  0  0  0  0
 41 45  1  0  0  0  0
 42 49  1  0  0  0  0
 43 52  1  0  0  0  0
 44 46  1  0  0  0  0
 44 50  1  0  0  0  0
 45 68  1  0  0  0  0
 46 69  1  0  0  0  0
 47 50  1  0  0  0  0
 47 69  1  0  0  0  0
 48 52  1  0  0  0  0
 48 68  1  0  0  0  0
 49 72  1  0  0  0  0
 51 67  1  0  0  0  0
 52 66  1  0  0  0  0
 54 61  1  0  0  0  0
 55 62  1  0  0  0  0
 56 62  1  0  0  0  0
 57 62  1  0  0  0  0
 58 74  1  0  0  0  0
 59 81  1  0  0  0  0
 60 62  1  0  0  0  0
 60 73  1  0  0  0  0
 61 74  1  0  0  0  0
 64 66  1  0  0  0  0
M  CHG  1  74   1
M  ISO  4  36 100  59 101  69 100  81 101
M  END
> <Batch ID>
0183

> <Smiles>
CNC(C)C(=O)NC(C(=O)N1Cc2cc([101O:1][101CH2:1]c3cnc(C)nc3C3CC[100N:0]([100C:0](=O)N4CCCC(n5nc(-c6ccc(Oc7ccc(F)cc7F)cc6)c(C(N)=O)c5N)C4)C3)ccc2CC1C(=O)NC1CCCc2ccccc21)C(C)(C)C

> <Shape>
0.202

> <Color>
0.074

> <Negative vol penalty>
0.000

$$$$

  -OEChem-04052323073D

 83 92  0     1  0  0  0  0  0999 V2000
  -33.7088  -31.6969   24.1035 C   0  0  0  0  0  0  0  0  0  0  0  0
  -33.5963  -30.4408   23.5161 C   0  0  0  0  0  0  0  0  0  0  0  0
  -25.5436  -15.9762   24.0688 C   0  0  0  0  0  0  0  0  0  0  0  0
  -25.2543  -17.0247   21.9114 C   0  0  0  0  0  0  0  0  0  0  0  0
  -32.5725  -32.3420   24.5898 C   0  0  0  0  0  0  0  0  0  0  0  0
  -32.3475  -29.8287   23.4155 C   0  0  0  0  0  0  0  0  0  0  0  0
  -30.3701  -26.2215   18.8786 C   0  0  0  0  0  0  0  0  0  0  0  0
  -25.1487  -17.1578   24.6960 C   0  0  0  0  0  0  0  0  0  0  0  0
  -24.8594  -18.2064   22.5387 C   0  0  0  0  0  0  0  0  0  0  0  0
  -30.2929  -24.8356   18.7481 C   0  0  0  0  0  0  0  0  0  0  0  0
  -24.5618  -20.0111   26.8727 C   0  0  0  0  0  0  0  0  0  0  0  0
  -25.3120  -20.4501   27.9636 C   0  0  0  0  0  0  0  0  0  0  0  0
  -27.9873  -24.9036   19.4543 C   0  0  0  0  0  0  0  0  0  0  0  0
  -27.2729  -20.5893   26.5592 C   0  0  0  0  0  0  0  0  0  0  0  0
  -29.9667  -20.5830   22.1755 C   0  0  0  0  0  0  0  0  0  0  0  0
  -25.5965  -15.9097   22.6764 C   0  0  0  0  0  0  0  0  0  0  0  0
  -25.1782  -13.6251   21.6212 C   0  0  0  0  0  0  0  0  0  0  0  0
  -31.3077  -31.7417   24.4865 C   0  0  0  0  0  0  0  0  0  0  0  0
  -29.2578  -26.9589   19.3092 C   0  0  0  0  0  0  0  0  0  0  0  0
  -31.1933  -30.4658   23.9021 C   0  0  0  0  0  0  0  0  0  0  0  0
  -28.0522  -26.2990   19.5870 C   0  0  0  0  0  0  0  0  0  0  0  0
  -24.8065  -18.2729   23.9310 C   0  0  0  0  0  0  0  0  0  0  0  0
  -29.1022  -24.1761   19.0387 C   0  0  0  0  0  0  0  0  0  0  0  0
  -25.1672  -19.8611   25.6250 C   0  0  0  0  0  0  0  0  0  0  0  0
  -26.6675  -20.7392   27.8069 C   0  0  0  0  0  0  0  0  0  0  0  0
  -26.5227  -20.1502   25.4682 C   0  0  0  0  0  0  0  0  0  0  0  0
  -26.0049  -14.6896   22.0279 C   0  0  0  0  0  0  0  0  0  0  0  0
  -30.0102  -21.9622   22.1879 C   0  0  0  0  0  0  0  0  0  0  0  0
  -29.5814  -20.0085   20.9815 C   0  0  0  0  0  0  0  0  0  0  0  0
  -26.0412  -12.7146   21.0620 C   0  0  0  0  0  0  0  0  0  0  0  0
  -29.3428  -22.0530   20.0170 C   0  0  0  0  0  0  0  0  0  1  0  0
  -23.7574  -13.4731   21.7383 C   0  0  0  0  0  0  0  0  0  0  0  0
  -28.6317  -28.8206   21.8083 C   0  0  0  0  0  0  0  0  0  0  0  0
  -25.8643  -29.3738   20.2090 C   0  0  0  0  0  0  0  0  0  0  0  0
  -23.5797  -28.2975   17.9135 C   0  0  0  0  0  0  0  0  0  0  0  0
  -30.7065  -15.6388   21.4403 C   0  0  0  0  0  0  0  0  0  0  0  0
  -30.1148  -32.4572   25.0692 C   0  0  0  0  0  0  0  0  0  0  0  0
  -29.3496  -28.4562   19.4192 C   0  0  0  0  0  0  0  0  0  0  0  0
  -26.8234  -27.0469   20.0333 C   0  0  0  0  0  0  0  0  0  0  0  0
  -28.7767  -31.9034   24.5863 C   0  0  0  0  0  0  0  0  0  0  0  0
  -29.9667  -12.4317   22.8312 C   0  0  0  0  0  0  0  0  0  0  0  0
  -32.0020  -17.2176   18.4439 C   0  0  0  0  0  0  0  0  0  0  0  0
  -28.7717  -30.3798   24.6599 C   0  0  0  0  0  0  0  0  0  0  0  0
  -29.1861  -11.7042   21.7421 C   0  0  0  0  0  0  0  0  0  0  0  0
  -31.2232  -18.3941   19.0152 C   0  0  0  0  0  0  0  0  0  0  0  0
  -31.0389  -13.3200   22.2194 C   0  0  0  0  0  0  0  0  0  0  0  0
  -31.2339  -16.0192   18.9794 C   0  0  0  0  0  0  0  0  0  0  0  0
  -29.6480  -13.6867   20.1904 C   0  0  0  0  0  0  0  0  0  0  0  0
  -29.8526  -29.7801   23.7524 C   0  0  1  0  0  0  0  0  0  0  0  0
  -28.3061  -29.0513   20.3597 C   0  0  1  0  0  0  0  0  0  0  0  0
  -28.6025  -12.6647   20.6936 C   0  0  2  0  0  0  0  0  0  0  0  0
  -30.8282  -17.9088   20.4126 C   0  0  1  0  0  0  0  0  0  0  0  0
  -30.4153  -22.6741   23.4349 C   0  0  0  0  0  0  0  0  0  0  0  0
  -21.4033  -28.9470   16.8463 C   0  0  0  0  0  0  0  0  0  0  0  0
  -24.3805  -28.5692   22.7509 C   0  0  0  0  0  0  0  0  0  0  0  0
  -22.3039  -28.3166   21.3755 C   0  0  0  0  0  0  0  0  0  0  0  0
  -23.4131  -30.5434   21.5589 C   0  0  0  0  0  0  0  0  0  0  0  0
  -24.7918  -28.3709   15.2145 C   0  0  0  0  0  0  0  0  0  0  0  0
  -29.5052  -18.5092   20.8706 C   0  0  0  0  0  0  0  0  0  0  0  0
  -24.5005  -28.7271   20.1767 C   0  0  1  0  0  0  0  0  0  0  0  0
  -22.9196  -29.0026   16.7424 C   0  0  2  0  0  0  0  0  0  0  0  0
  -23.6730  -29.0245   21.4590 C   0  0  0  0  0  0  0  0  0  0  0  0
  -27.2940  -14.4763   21.7508 N   0  0  0  0  0  0  0  0  0  0  0  0
  -29.7036  -22.7315   21.1228 N   0  0  0  0  0  0  0  0  0  0  0  0
  -29.2613  -20.7159   19.8782 N   0  0  0  0  0  0  0  0  0  0  0  0
  -27.2839  -13.2673   21.1641 N   0  0  0  0  0  0  0  0  0  0  0  0
  -26.9651  -28.5090   20.1318 N   0  0  0  0  0  0  0  0  0  0  0  0
  -30.4800  -14.2669   21.2543 N   0  0  0  0  0  0  0  0  0  0  0  0
  -30.7761  -16.4460   20.3026 N   0  0  0  0  0  0  0  0  0  0  0  0
  -25.8506  -11.5030   20.4979 N   0  0  0  0  0  0  0  0  0  0  0  0
  -23.0224  -14.5043   22.3389 N   0  0  0  0  0  0  0  0  0  0  0  0
  -29.4229  -29.8041   22.3707 N   0  0  0  0  0  0  0  0  0  0  0  0
  -23.8670  -29.1720   18.9401 N   0  0  0  0  0  0  0  0  0  0  0  0
  -23.3263  -28.3654   15.4581 N   0  3  0  0  0  0  0  0  0  0  0  0
  -23.1593  -12.4459   21.3376 O   0  0  0  0  0  0  0  0  0  0  0  0
  -28.1960  -27.8249   22.3744 O   0  0  0  0  0  0  0  0  0  0  0  0
  -25.9495  -30.6016   20.2923 O   0  0  0  0  0  0  0  0  0  0  0  0
  -23.8136  -27.0909   17.9187 O   0  0  0  0  0  0  0  0  0  0  0  0
  -30.8504  -16.1201   22.5720 O   0  0  0  0  0  0  0  0  0  0  0  0
  -24.4209  -19.4260   24.5427 O   0  0  0  0  0  0  0  0  0  0  0  0
  -29.0233  -22.8062   18.9111 O   0  0  0  0  0  0  0  0  0  1  0  0
  -27.3875  -21.1622   28.8542 F   0  0  0  0  0  0  0  0  0  0  0  0
  -27.1096  -20.0092   24.2718 F   0  0  0  0  0  0  0  0  0  0  0  0
  1  2  1  0  0  0  0
  1  5  2  0  0  0  0
  2  6  2  0  0  0  0
  3  8  2  0  0  0  0
  3 16  1  0  0  0  0
  4  9  1  0  0  0  0
  4 16  2  0  0  0  0
  5 18  1  0  0  0  0
  6 20  1  0  0  0  0
  7 10  2  0  0  0  0
  7 19  1  0  0  0  0
  8 22  1  0  0  0  0
  9 22  2  0  0  0  0
 10 23  1  0  0  0  0
 11 12  2  0  0  0  0
 11 24  1  0  0  0  0
 12 25  1  0  0  0  0
 13 21  1  0  0  0  0
 13 23  2  0  0  0  0
 14 25  2  0  0  0  0
 14 26  1  0  0  0  0
 15 28  1  0  0  0  0
 15 29  2  0  0  0  0
 16 27  1  0  0  0  0
 17 27  1  0  0  0  0
 17 30  2  0  0  0  0
 17 32  1  0  0  0  0
 18 20  2  0  0  0  0
 18 37  1  0  0  0  0
 19 21  2  0  0  0  0
 19 38  1  0  0  0  0
 20 49  1  0  0  0  0
 21 39  1  0  0  0  0
 22 80  1  0  0  0  0
 23 81  1  0  0  0  0
 24 26  2  0  0  0  0
 24 80  1  0  0  0  0
 25 82  1  0  0  0  0
 26 83  1  0  0  0  0
 27 63  2  0  0  0  0
 28 53  1  0  0  0  0
 28 64  2  0  0  0  0
 29 59  1  0  0  0  0
 29 65  1  0  0  0  0
 30 66  1  0  0  0  0
 30 70  1  0  0  0  0
 31 64  1  0  0  0  0
 31 65  2  0  0  0  0
 31 81  1  0  0  0  0
 32 71  1  0  0  0  0
 32 75  2  0  0  0  0
 33 50  1  0  0  0  0
 33 72  1  0  0  0  0
 33 76  2  0  0  0  0
 34 60  1  0  0  0  0
 34 67  1  0  0  0  0
 34 77  2  0  0  0  0
 35 61  1  0  0  0  0
 35 73  1  0  0  0  0
 35 78  2  0  0  0  0
 36 68  1  0  0  0  0
 36 69  1  0  0  0  0
 36 79  2  0  0  0  0
 37 40  1  0  0  0  0
 38 50  1  0  0  0  0
 39 67  1  0  0  0  0
 40 43  1  0  0  0  0
 41 44  1  0  0  0  0
 41 46  1  0  0  0  0
 42 45  1  0  0  0  0
 42 47  1  0  0  0  0
 43 49  1  0  0  0  0
 44 51  1  0  0  0  0
 45 52  1  0  0  0  0
 46 68  1  0  0  0  0
 47 69  1  0  0  0  0
 48 51  1  0  0  0  0
 48 68  1  0  0  0  0
 49 72  1  0  0  0  0
 50 67  1  0  0  0  0
 51 66  1  0  0  0  0
 52 59  1  0  0  0  0
 52 69  1  0  0  0  0
 54 61  1  0  0  0  0
 55 62  1  0  0  0  0
 56 62  1  0  0  0  0
 57 62  1  0  0  0  0
 58 74  1  0  0  0  0
 60 62  1  0  0  0  0
 60 73  1  0  0  0  0
 61 74  1  0  0  0  0
 63 66  1  0  0  0  0
M  CHG  1  74   1
M  ISO  4  31 101  36 100  69 100  81 101
M  END
> <Batch ID>
0183

> <Smiles>
CNC(C)C(=O)NC(C(=O)N1Cc2cc([101O:1][101c:1]3nc(C)cc(CC4CCC[100N:0]4[100C:0](=O)N4CCCC(n5nc(-c6ccc(Oc7ccc(F)cc7F)cc6)c(C(N)=O)c5N)C4)n3)ccc2CC1C(=O)NC1CCCc2ccccc21)C(C)(C)C

> <Shape>
0.227

> <Color>
0.055

> <Negative vol penalty>
0.000

$$$$

  -OEChem-04052323073D

 86 95  0     1  0  0  0  0  0999 V2000
  -25.4193  -32.8520   27.9648 C   0  0  0  0  0  0  0  0  0  0  0  0
  -25.6984  -31.5586   27.5350 C   0  0  0  0  0  0  0  0  0  0  0  0
  -23.0039   -9.8869   19.9810 C   0  0  0  0  0  0  0  0  0  0  0  0
  -23.7302   -9.9405   22.2846 C   0  0  0  0  0  0  0  0  0  0  0  0
  -24.7686  -33.7433   27.1127 C   0  0  0  0  0  0  0  0  0  0  0  0
  -25.3260  -31.1555   26.2531 C   0  0  0  0  0  0  0  0  0  0  0  0
  -28.9940  -28.5952   23.8792 C   0  0  0  0  0  0  0  0  0  0  0  0
  -22.2401   -8.7508   20.2482 C   0  0  0  0  0  0  0  0  0  0  0  0
  -22.9664   -8.8044   22.5519 C   0  0  0  0  0  0  0  0  0  0  0  0
  -29.1740  -27.2603   24.2389 C   0  0  0  0  0  0  0  0  0  0  0  0
  -23.2180   -5.4658   22.0812 C   0  0  0  0  0  0  0  0  0  0  0  0
  -23.8082   -4.4503   22.8334 C   0  0  0  0  0  0  0  0  0  0  0  0
  -27.9382  -26.5732   22.2844 C   0  0  0  0  0  0  0  0  0  0  0  0
  -22.0847   -4.6900   24.5095 C   0  0  0  0  0  0  0  0  0  0  0  0
  -29.7564  -17.7025   22.6631 C   0  0  0  0  0  0  0  0  0  0  0  0
  -23.7490  -10.4818   20.9992 C   0  0  0  0  0  0  0  0  0  0  0  0
  -24.1285  -12.9982   20.8219 C   0  0  0  0  0  0  0  0  0  0  0  0
  -24.3965  -33.3539   25.8164 C   0  0  0  0  0  0  0  0  0  0  0  0
  -28.2741  -28.9300   22.7233 C   0  0  0  0  0  0  0  0  0  0  0  0
  -24.6684  -32.0420   25.3834 C   0  0  0  0  0  0  0  0  0  0  0  0
  -27.7526  -27.9131   21.9109 C   0  0  0  0  0  0  0  0  0  0  0  0
  -22.2213   -8.2096   21.5337 C   0  0  0  0  0  0  0  0  0  0  0  0
  -28.6437  -26.2491   23.4430 C   0  0  0  0  0  0  0  0  0  0  0  0
  -22.0611   -6.0936   22.5432 C   0  0  0  0  0  0  0  0  0  0  0  0
  -23.2416   -4.0624   24.0476 C   0  0  0  0  0  0  0  0  0  0  0  0
  -21.4945   -5.7056   23.7573 C   0  0  0  0  0  0  0  0  0  0  0  0
  -24.5387  -11.6550   20.7236 C   0  0  0  0  0  0  0  0  0  0  0  0
  -30.2886  -18.9187   23.0398 C   0  0  0  0  0  0  0  0  0  0  0  0
  -30.5722  -16.9102   21.8815 C   0  0  0  0  0  0  0  0  0  0  0  0
  -25.2365  -13.7231   20.4566 C   0  0  0  0  0  0  0  0  0  0  0  0
  -32.2189  -18.4766   21.9237 C   0  0  0  0  0  0  0  0  0  0  0  0
  -22.8596  -13.5419   21.2089 C   0  0  0  0  0  0  0  0  0  0  0  0
  -25.6048  -30.5522   22.1343 C   0  0  0  0  0  0  0  0  0  0  0  0
  -26.4708  -30.0936   19.0420 C   0  0  0  0  0  0  0  0  0  0  0  0
  -28.2111  -28.2407   16.7650 C   0  0  0  0  0  0  0  0  0  0  0  0
  -30.7139  -14.6967   20.6871 C   0  0  0  0  0  0  0  0  0  0  0  0
  -23.6528  -34.3376   24.9482 C   0  0  0  0  0  0  0  0  0  0  0  0
  -28.1116  -30.3740   22.3348 C   0  0  0  0  0  0  0  0  0  0  0  0
  -26.9893  -28.2191   20.6491 C   0  0  0  0  0  0  0  0  0  0  0  0
  -23.6263  -33.9489   23.4722 C   0  0  0  0  0  0  0  0  0  0  0  0
  -29.5999  -12.2403   18.3628 C   0  0  0  0  0  0  0  0  0  0  0  0
  -23.2622  -32.4760   23.3146 C   0  0  0  0  0  0  0  0  0  0  0  0
  -28.1501  -11.9795   18.7779 C   0  0  0  0  0  0  0  0  0  0  0  0
  -30.1836  -20.2165   25.1883 C   0  0  0  0  0  0  0  0  0  0  0  0
  -30.5005  -12.4862   19.5720 C   0  0  0  0  0  0  0  0  0  0  0  0
  -28.5841  -13.2713   20.9063 C   0  0  0  0  0  0  0  0  0  0  0  0
  -29.2858  -21.2120   23.2257 C   0  0  0  0  0  0  0  0  0  0  0  0
  -24.3024  -31.5751   23.9912 C   0  0  1  0  0  0  0  0  0  0  0  0
  -29.4828  -19.8423   23.8814 C   0  0  1  0  0  0  0  0  0  0  0  0
  -26.9208  -30.6140   21.4119 C   0  0  1  0  0  0  0  0  0  0  0  0
  -27.6262  -13.0823   19.7187 C   0  0  2  0  0  0  0  0  0  0  0  0
  -29.3948  -21.4282   25.6644 C   0  0  1  0  0  0  0  0  0  0  0  0
  -33.5873  -18.9055   21.5146 C   0  0  0  0  0  0  0  0  0  0  0  0
  -30.1615  -22.3118   26.6314 C   0  0  0  0  0  0  0  0  0  0  0  0
  -28.6961  -28.0879   14.3076 C   0  0  0  0  0  0  0  0  0  0  0  0
  -23.6945  -28.9192   18.5695 C   0  0  0  0  0  0  0  0  0  0  0  0
  -24.5490  -27.9408   16.4292 C   0  0  0  0  0  0  0  0  0  0  0  0
  -24.5191  -30.4154   16.7430 C   0  0  0  0  0  0  0  0  0  0  0  0
  -31.1131  -28.6305   17.1955 C   0  0  0  0  0  0  0  0  0  0  0  0
  -27.7624  -22.8652   24.3772 C   0  0  0  0  0  0  0  0  0  0  0  0
  -27.7958  -24.0275   23.4046 C   0  0  0  0  0  0  0  0  0  1  0  0
  -26.2120  -29.0262   18.0064 C   0  0  1  0  0  0  0  0  0  0  0  0
  -29.1539  -28.6457   15.6463 C   0  0  2  0  0  0  0  0  0  0  0  0
  -24.7563  -29.0693   17.4618 C   0  0  0  0  0  0  0  0  0  0  0  0
  -25.8080  -11.5312   20.3268 N   0  0  0  0  0  0  0  0  0  0  0  0
  -31.5210  -19.3393   22.6868 N   0  0  0  0  0  0  0  0  0  0  0  0
  -31.8135  -17.2673   21.4916 N   0  0  0  0  0  0  0  0  0  0  0  0
  -26.2050  -12.8059   20.1724 N   0  0  0  0  0  0  0  0  0  0  0  0
  -26.8517  -29.6463   20.3151 N   0  0  0  0  0  0  0  0  0  0  0  0
  -29.9435  -13.5463   20.4152 N   0  0  0  0  0  0  0  0  0  0  0  0
  -25.4669  -15.0493   20.3538 N   0  0  0  0  0  0  0  0  0  0  0  0
  -21.8300  -12.6555   21.5534 N   0  0  0  0  0  0  0  0  0  0  0  0
  -30.0679  -15.6507   21.4726 N   0  0  0  0  0  0  0  0  0  0  0  0
  -25.4865  -31.4629   23.1668 N   0  0  0  0  0  0  0  0  0  0  0  0
  -27.2381  -29.1931   16.9829 N   0  0  0  0  0  0  0  0  0  0  0  0
  -29.0846  -22.1900   24.3795 N   0  3  2  0  0  0  0  0  0  0  0  0
  -30.5293  -28.1415   15.9200 N   0  3  0  0  0  0  0  0  0  0  0  0
  -22.6401  -14.7767   21.2323 O   0  0  0  0  0  0  0  0  0  0  0  0
  -24.7588  -29.7396   21.7801 O   0  0  0  0  0  0  0  0  0  0  0  0
  -26.3467  -31.2808   18.7309 O   0  0  0  0  0  0  0  0  0  0  0  0
  -28.3240  -27.1833   17.3813 O   0  0  0  0  0  0  0  0  0  0  0  0
  -31.8520  -14.8380   20.2324 O   0  0  0  0  0  0  0  0  0  0  0  0
  -21.4759   -7.1011   21.7949 O   0  0  0  0  0  0  0  0  0  0  0  0
  -28.8174  -24.9454   23.7921 O   0  0  0  0  0  0  0  0  0  1  0  0
  -23.8077   -3.0860   24.7691 F   0  0  0  0  0  0  0  0  0  0  0  0
  -20.3825   -6.3042   24.2057 F   0  0  0  0  0  0  0  0  0  0  0  0
  1  2  1  0  0  0  0
  1  5  2  0  0  0  0
  2  6  2  0  0  0  0
  3  8  2  0  0  0  0
  3 16  1  0  0  0  0
  4  9  1  0  0  0  0
  4 16  2  0  0  0  0
  5 18  1  0  0  0  0
  6 20  1  0  0  0  0
  7 10  2  0  0  0  0
  7 19  1  0  0  0  0
  8 22  1  0  0  0  0
  9 22  2  0  0  0  0
 10 23  1  0  0  0  0
 11 12  2  0  0  0  0
 11 24  1  0  0  0  0
 12 25  1  0  0  0  0
 13 21  1  0  0  0  0
 13 23  2  0  0  0  0
 14 25  2  0  0  0  0
 14 26  1  0  0  0  0
 15 28  1  0  0  0  0
 15 29  2  0  0  0  0
 16 27  1  0  0  0  0
 17 27  1  0  0  0  0
 17 30  2  0  0  0  0
 17 32  1  0  0  0  0
 18 20  2  0  0  0  0
 18 37  1  0  0  0  0
 19 21  2  0  0  0  0
 19 38  1  0  0  0  0
 20 48  1  0  0  0  0
 21 39  1  0  0  0  0
 22 83  1  0  0  0  0
 23 84  1  0  0  0  0
 24 26  2  0  0  0  0
 24 83  1  0  0  0  0
 25 85  1  0  0  0  0
 26 86  1  0  0  0  0
 27 65  2  0  0  0  0
 28 49  1  0  0  0  0
 28 66  2  0  0  0  0
 29 67  1  0  0  0  0
 29 73  1  0  0  0  0
 30 68  1  0  0  0  0
 30 71  1  0  0  0  0
 31 53  1  0  0  0  0
 31 66  1  0  0  0  0
 31 67  2  0  0  0  0
 32 72  1  0  0  0  0
 32 78  2  0  0  0  0
 33 50  1  0  0  0  0
 33 74  1  0  0  0  0
 33 79  2  0  0  0  0
 34 62  1  0  0  0  0
 34 69  1  0  0  0  0
 34 80  2  0  0  0  0
 35 63  1  0  0  0  0
 35 75  1  0  0  0  0
 35 81  2  0  0  0  0
 36 70  1  0  0  0  0
 36 73  1  0  0  0  0
 36 82  2  0  0  0  0
 37 40  1  0  0  0  0
 38 50  1  0  0  0  0
 39 69  1  0  0  0  0
 40 42  1  0  0  0  0
 41 43  1  0  0  0  0
 41 45  1  0  0  0  0
 42 48  1  0  0  0  0
 43 51  1  0  0  0  0
 44 49  1  0  0  0  0
 44 52  1  0  0  0  0
 45 70  1  0  0  0  0
 46 51  1  0  0  0  0
 46 70  1  0  0  0  0
 47 49  1  0  0  0  0
 47 76  1  0  0  0  0
 48 74  1  0  0  0  0
 50 69  1  0  0  0  0
 51 68  1  0  0  0  0
 52 54  1  0  0  0  0
 52 76  1  0  0  0  0
 55 63  1  0  0  0  0
 56 64  1  0  0  0  0
 57 64  1  0  0  0  0
 58 64  1  0  0  0  0
 59 77  1  0  0  0  0
 60 61  1  0  0  0  0
 60 76  1  0  0  0  0
 61 84  1  0  0  0  0
 62 64  1  0  0  0  0
 62 75  1  0  0  0  0
 63 77  1  0  0  0  0
 65 68  1  0  0  0  0
M  CHG  2  76   1  77   1
M  ISO  4  36 100  61 101  73 100  84 101
M  END
> <Batch ID>
0183

> <Smiles>
CNC(C)C(=O)NC(C(=O)N1Cc2cc([101O:1][101CH2:1]CN3CC(c4cc([100NH:0][100C:0](=O)N5CCCC(n6nc(-c7ccc(Oc8ccc(F)cc8F)cc7)c(C(N)=O)c6N)C5)nc(C)n4)CC3C)ccc2CC1C(=O)NC1CCCc2ccccc21)C(C)(C)C

> <Shape>
0.280

> <Color>
0.186

> <Negative vol penalty>
0.000

$$$$

  -OEChem-04052323073D

 82 91  0     1  0  0  0  0  0999 V2000
  -16.9201  -28.1446   23.9805 C   0  0  0  0  0  0  0  0  0  0  0  0
  -17.7116  -27.2654   23.2484 C   0  0  0  0  0  0  0  0  0  0  0  0
  -24.8778  -14.4983   23.5563 C   0  0  0  0  0  0  0  0  0  0  0  0
  -23.7861  -15.7170   21.7786 C   0  0  0  0  0  0  0  0  0  0  0  0
  -17.1802  -29.5137   23.9400 C   0  0  0  0  0  0  0  0  0  0  0  0
  -18.7631  -27.7550   22.4745 C   0  0  0  0  0  0  0  0  0  0  0  0
  -22.9999  -25.0330   23.0086 C   0  0  0  0  0  0  0  0  0  0  0  0
  -24.5084  -15.4911   24.4637 C   0  0  0  0  0  0  0  0  0  0  0  0
  -23.4167  -16.7097   22.6860 C   0  0  0  0  0  0  0  0  0  0  0  0
  -23.0689  -23.8212   22.3226 C   0  0  0  0  0  0  0  0  0  0  0  0
  -25.5562  -18.5845   25.3340 C   0  0  0  0  0  0  0  0  0  0  0  0
  -26.5241  -19.0323   26.2330 C   0  0  0  0  0  0  0  0  0  0  0  0
  -24.4014  -24.8737   20.6093 C   0  0  0  0  0  0  0  0  0  0  0  0
  -25.1326  -18.3320   28.0798 C   0  0  0  0  0  0  0  0  0  0  0  0
  -24.5167  -14.6113   22.2136 C   0  0  0  0  0  0  0  0  0  0  0  0
  -24.1681  -12.4327   20.9330 C   0  0  0  0  0  0  0  0  0  0  0  0
  -18.2415  -30.0195   23.1728 C   0  0  0  0  0  0  0  0  0  0  0  0
  -23.6231  -26.1788   22.4936 C   0  0  0  0  0  0  0  0  0  0  0  0
  -19.0369  -29.1323   22.4226 C   0  0  0  0  0  0  0  0  0  0  0  0
  -24.3411  -26.0983   21.2919 C   0  0  0  0  0  0  0  0  0  0  0  0
  -23.7778  -16.5968   24.0286 C   0  0  0  0  0  0  0  0  0  0  0  0
  -23.7672  -23.7421   21.1214 C   0  0  0  0  0  0  0  0  0  0  0  0
  -24.3765  -18.0104   25.8078 C   0  0  0  0  0  0  0  0  0  0  0  0
  -26.3123  -18.9061   27.6059 C   0  0  0  0  0  0  0  0  0  0  0  0
  -24.1647  -17.8842   27.1807 C   0  0  0  0  0  0  0  0  0  0  0  0
  -24.8985  -13.5863   21.2756 C   0  0  0  0  0  0  0  0  0  0  0  0
  -24.9548  -11.7902   20.0084 C   0  0  0  0  0  0  0  0  0  0  0  0
  -22.8926  -11.9821   21.4081 C   0  0  0  0  0  0  0  0  0  0  0  0
  -22.6180  -29.0322   21.5181 C   0  0  0  0  0  0  0  0  0  0  0  0
  -25.7959  -29.6354   21.2736 C   0  0  0  0  0  0  0  0  0  0  0  0
  -28.9570  -28.4072   20.8924 C   0  0  0  0  0  0  0  0  0  0  0  0
  -28.9878  -15.5348   19.5924 C   0  0  0  0  0  0  0  0  0  0  0  0
  -18.4546  -31.5117   23.1230 C   0  0  0  0  0  0  0  0  0  0  0  0
  -23.5619  -27.4721   23.2592 C   0  0  0  0  0  0  0  0  0  0  0  0
  -25.0446  -27.2945   20.7068 C   0  0  0  0  0  0  0  0  0  0  0  0
  -19.8211  -31.9138   22.5742 C   0  0  0  0  0  0  0  0  0  0  0  0
  -29.2241  -12.1012   20.5524 C   0  0  0  0  0  0  0  0  0  0  0  0
  -29.0470  -17.6915   16.6778 C   0  0  0  0  0  0  0  0  0  0  0  0
  -20.1393  -31.1282   21.3060 C   0  0  0  0  0  0  0  0  0  0  0  0
  -28.2768  -11.3661   19.6107 C   0  0  0  0  0  0  0  0  0  0  0  0
  -28.3006  -18.6080   17.6370 C   0  0  0  0  0  0  0  0  0  0  0  0
  -24.7008  -20.1683   20.2486 C   0  0  0  0  0  0  0  0  0  0  0  0
  -29.9051  -13.2556   19.8339 C   0  0  0  0  0  0  0  0  0  0  0  0
  -28.6780  -16.3066   17.1867 C   0  0  0  0  0  0  0  0  0  0  0  0
  -27.9256  -13.5724   18.3617 C   0  0  0  0  0  0  0  0  0  0  0  0
  -20.2021  -29.6227   21.5908 C   0  0  1  0  0  0  0  0  0  0  0  0
  -23.8008  -28.6974   22.3822 C   0  0  1  0  0  0  0  0  0  0  0  0
  -25.9778  -21.5108   21.3206 C   0  0  1  0  0  0  0  0  0  0  0  0
  -27.2582  -12.3065   18.9470 C   0  0  2  0  0  0  0  0  0  0  0  0
  -26.0236  -19.9895   21.0223 C   0  0  2  0  0  0  0  0  0  0  0  0
  -24.4380  -21.4250   21.1133 C   0  0  1  0  0  0  0  0  0  1  0  0
  -28.4296  -17.8886   18.9825 C   0  0  1  0  0  0  0  0  0  0  0  0
  -26.4459  -21.9382   22.6980 C   0  0  0  0  0  0  0  0  0  0  0  0
  -31.3466  -29.1465   20.6905 C   0  0  0  0  0  0  0  0  0  0  0  0
  -25.2834  -30.4967   18.3916 C   0  0  0  0  0  0  0  0  0  0  0  0
  -27.7439  -30.3056   17.9704 C   0  0  0  0  0  0  0  0  0  0  0  0
  -26.8905  -31.9471   19.6437 C   0  0  0  0  0  0  0  0  0  0  0  0
  -29.7399  -26.9374   23.3390 C   0  0  0  0  0  0  0  0  0  0  0  0
  -27.2294  -18.1482   19.8839 C   0  0  0  0  0  0  0  0  0  0  0  0
  -26.8333  -29.4788   20.1882 C   0  0  1  0  0  0  0  0  0  0  0  0
  -30.2467  -28.6960   21.6393 C   0  0  2  0  0  0  0  0  0  0  0  0
  -26.6730  -30.5348   19.0583 C   0  0  0  0  0  0  0  0  0  0  0  0
  -26.0600  -13.6743   20.6220 N   0  0  0  0  0  0  0  0  0  0  0  0
  -26.0654  -12.5676   19.8595 N   0  0  0  0  0  0  0  0  0  0  0  0
  -24.9504  -28.5380   21.4894 N   0  0  0  0  0  0  0  0  0  0  0  0
  -28.9371  -14.1779   19.2399 N   0  0  0  0  0  0  0  0  0  0  0  0
  -28.5803  -16.4697   18.6380 N   0  0  0  0  0  0  0  0  0  0  0  0
  -24.7979  -10.6417   19.3165 N   0  0  0  0  0  0  0  0  0  0  0  0
  -22.2194  -12.7628   22.3576 N   0  0  0  0  0  0  0  0  0  0  0  0
  -21.4570  -29.2803   22.2252 N   0  0  0  0  0  0  0  0  0  0  0  0
  -28.1303  -29.5101   20.8556 N   0  0  0  0  0  0  0  0  0  0  0  0
  -27.1506  -19.5965   20.1692 N   0  3  0  0  0  0  0  0  0  0  0  0
  -30.7147  -27.4759   22.3558 N   0  3  0  0  0  0  0  0  0  0  0  0
  -22.3728  -10.9104   21.0147 O   0  0  0  0  0  0  0  0  0  0  0  0
  -22.7495  -29.0647   20.3002 O   0  0  0  0  0  0  0  0  0  0  0  0
  -25.7424  -30.6899   21.9114 O   0  0  0  0  0  0  0  0  0  0  0  0
  -28.7095  -27.3138   20.3887 O   0  0  0  0  0  0  0  0  0  0  0  0
  -29.3888  -15.8961   20.7067 O   0  0  0  0  0  0  0  0  0  0  0  0
  -23.4169  -17.5656   24.9139 O   0  0  0  0  0  0  0  0  0  0  0  0
  -23.8365  -22.5438   20.4399 O   0  0  0  0  0  0  0  0  0  1  0  0
  -27.2425  -19.3347   28.4691 F   0  0  0  0  0  0  0  0  0  0  0  0
  -23.0339  -17.3325   27.6418 F   0  0  0  0  0  0  0  0  0  0  0  0
  1  2  1  0  0  0  0
  1  5  2  0  0  0  0
  2  6  2  0  0  0  0
  3  8  2  0  0  0  0
  3 15  1  0  0  0  0
  4  9  1  0  0  0  0
  4 15  2  0  0  0  0
  5 17  1  0  0  0  0
  6 19  1  0  0  0  0
  7 10  2  0  0  0  0
  7 18  1  0  0  0  0
  8 21  1  0  0  0  0
  9 21  2  0  0  0  0
 10 22  1  0  0  0  0
 11 12  2  0  0  0  0
 11 23  1  0  0  0  0
 12 24  1  0  0  0  0
 13 20  1  0  0  0  0
 13 22  2  0  0  0  0
 14 24  2  0  0  0  0
 14 25  1  0  0  0  0
 15 26  1  0  0  0  0
 16 26  1  0  0  0  0
 16 27  2  0  0  0  0
 16 28  1  0  0  0  0
 17 19  2  0  0  0  0
 17 33  1  0  0  0  0
 18 20  2  0  0  0  0
 18 34  1  0  0  0  0
 19 46  1  0  0  0  0
 20 35  1  0  0  0  0
 21 79  1  0  0  0  0
 22 80  1  0  0  0  0
 23 25  2  0  0  0  0
 23 79  1  0  0  0  0
 24 81  1  0  0  0  0
 25 82  1  0  0  0  0
 26 63  2  0  0  0  0
 27 64  1  0  0  0  0
 27 68  1  0  0  0  0
 28 69  1  0  0  0  0
 28 74  2  0  0  0  0
 29 47  1  0  0  0  0
 29 70  1  0  0  0  0
 29 75  2  0  0  0  0
 30 60  1  0  0  0  0
 30 65  1  0  0  0  0
 30 76  2  0  0  0  0
 31 61  1  0  0  0  0
 31 71  1  0  0  0  0
 31 77  2  0  0  0  0
 32 66  1  0  0  0  0
 32 67  1  0  0  0  0
 32 78  2  0  0  0  0
 33 36  1  0  0  0  0
 34 47  1  0  0  0  0
 35 65  1  0  0  0  0
 36 39  1  0  0  0  0
 37 40  1  0  0  0  0
 37 43  1  0  0  0  0
 38 41  1  0  0  0  0
 38 44  1  0  0  0  0
 39 46  1  0  0  0  0
 40 49  1  0  0  0  0
 41 52  1  0  0  0  0
 42 50  1  0  0  0  0
 42 51  1  0  0  0  0
 43 66  1  0  0  0  0
 44 67  1  0  0  0  0
 45 49  1  0  0  0  0
 45 66  1  0  0  0  0
 46 70  1  0  0  0  0
 47 65  1  0  0  0  0
 48 50  1  0  0  0  0
 48 51  1  0  0  0  0
 48 53  1  0  0  0  0
 49 64  1  0  0  0  0
 50 72  1  0  0  0  0
 51 80  1  0  0  0  0
 52 59  1  0  0  0  0
 52 67  1  0  0  0  0
 54 61  1  0  0  0  0
 55 62  1  0  0  0  0
 56 62  1  0  0  0  0
 57 62  1  0  0  0  0
 58 73  1  0  0  0  0
 59 72  1  0  0  0  0
 60 62  1  0  0  0  0
 60 71  1  0  0  0  0
 61 73  1  0  0  0  0
 63 64  1  0  0  0  0
M  CHG  2  72   1  73   1
M  ISO  4  32 100  51 101  67 100  80 101
M  END
> <Batch ID>
0183

> <Smiles>
CNC(C)C(=O)NC(C(=O)N1Cc2cc([101O:1][101CH:1]3CC(NCC4CCC[100N:0]4[100C:0](=O)N4CCCC(n5nc(-c6ccc(Oc7ccc(F)cc7F)cc6)c(C(N)=O)c5N)C4)C3C)ccc2CC1C(=O)NC1CCCc2ccccc21)C(C)(C)C

> <Shape>
0.217

> <Color>
0.094

> <Negative vol penalty>
0.000

$$$$

  -OEChem-04052323073D

 86 96  0     1  0  0  0  0  0999 V2000
  -21.2852  -16.9853   30.0370 C   0  0  0  0  0  0  0  0  0  0  0  0
  -21.8060  -17.0044   28.7470 C   0  0  0  0  0  0  0  0  0  0  0  0
  -22.9775   -9.8795   19.9976 C   0  0  0  0  0  0  0  0  0  0  0  0
  -23.7129   -9.9479   22.2980 C   0  0  0  0  0  0  0  0  0  0  0  0
  -20.1364  -17.7171   30.3346 C   0  0  0  0  0  0  0  0  0  0  0  0
  -21.1775  -17.7546   27.7537 C   0  0  0  0  0  0  0  0  0  0  0  0
  -24.4577  -20.4215   24.9657 C   0  0  0  0  0  0  0  0  0  0  0  0
  -22.2106   -8.7483   20.2764 C   0  0  0  0  0  0  0  0  0  0  0  0
  -22.9459   -8.8167   22.5768 C   0  0  0  0  0  0  0  0  0  0  0  0
  -25.1681  -19.7311   23.9846 C   0  0  0  0  0  0  0  0  0  0  0  0
  -23.1834   -5.4738   22.1307 C   0  0  0  0  0  0  0  0  0  0  0  0
  -23.7728   -4.4618   22.8883 C   0  0  0  0  0  0  0  0  0  0  0  0
  -23.6419  -20.5551   22.3080 C   0  0  0  0  0  0  0  0  0  0  0  0
  -22.0567   -4.7207   24.5691 C   0  0  0  0  0  0  0  0  0  0  0  0
  -30.2906  -19.8476   18.9832 C   0  0  0  0  0  0  0  0  0  0  0  0
  -23.7288  -10.4793   21.0084 C   0  0  0  0  0  0  0  0  0  0  0  0
  -24.1169  -12.9929   20.8105 C   0  0  0  0  0  0  0  0  0  0  0  0
  -19.4992  -18.4844   29.3468 C   0  0  0  0  0  0  0  0  0  0  0  0
  -23.3257  -21.1763   24.6262 C   0  0  0  0  0  0  0  0  0  0  0  0
  -20.0184  -18.4964   28.0382 C   0  0  0  0  0  0  0  0  0  0  0  0
  -22.9204  -21.2562   23.2862 C   0  0  0  0  0  0  0  0  0  0  0  0
  -22.1947   -8.2169   21.5660 C   0  0  0  0  0  0  0  0  0  0  0  0
  -24.7586  -19.7955   22.6560 C   0  0  0  0  0  0  0  0  0  0  0  0
  -22.0307   -6.1093   22.5923 C   0  0  0  0  0  0  0  0  0  0  0  0
  -23.2095   -4.0852   24.1075 C   0  0  0  0  0  0  0  0  0  0  0  0
  -21.4673   -5.7327   23.8115 C   0  0  0  0  0  0  0  0  0  0  0  0
  -24.5217  -11.6475   20.7209 C   0  0  0  0  0  0  0  0  0  0  0  0
  -31.4708  -19.1411   19.0945 C   0  0  0  0  0  0  0  0  0  0  0  0
  -29.2950  -19.4903   19.8693 C   0  0  0  0  0  0  0  0  0  0  0  0
  -25.2260  -13.7109   20.4354 C   0  0  0  0  0  0  0  0  0  0  0  0
  -30.6278  -17.9045   20.8055 C   0  0  0  0  0  0  0  0  0  0  0  0
  -22.8514  -13.5442   21.1982 C   0  0  0  0  0  0  0  0  0  0  0  0
  -20.2417  -21.0608   25.3874 C   0  0  0  0  0  0  0  0  0  0  0  0
  -20.1223  -23.8303   23.7027 C   0  0  0  0  0  0  0  0  0  0  0  0
  -21.4997  -25.8185   21.2951 C   0  0  0  0  0  0  0  0  0  0  0  0
  -30.7248  -14.6394   20.6522 C   0  0  0  0  0  0  0  0  0  0  0  0
  -18.2329  -19.2214   29.7046 C   0  0  0  0  0  0  0  0  0  0  0  0
  -22.5859  -21.9369   25.6924 C   0  0  0  0  0  0  0  0  0  0  0  0
  -21.7238  -22.0690   22.8668 C   0  0  0  0  0  0  0  0  0  0  0  0
  -17.8412  -20.2893   28.6865 C   0  0  0  0  0  0  0  0  0  0  0  0
  -29.5703  -12.1987   18.3313 C   0  0  0  0  0  0  0  0  0  0  0  0
  -17.9413  -19.7368   27.2682 C   0  0  0  0  0  0  0  0  0  0  0  0
  -32.3622  -19.4250   16.6865 C   0  0  0  0  0  0  0  0  0  0  0  0
  -33.2000  -18.3686   17.3363 C   0  0  0  0  0  0  0  0  0  0  0  0
  -28.1233  -11.9444   18.7573 C   0  0  0  0  0  0  0  0  0  0  0  0
  -27.1937  -20.1366   18.5160 C   0  0  0  0  0  0  0  0  0  0  0  0
  -30.4784  -12.4424   19.5346 C   0  0  0  0  0  0  0  0  0  0  0  0
  -28.5753  -13.2515   20.8754 C   0  0  0  0  0  0  0  0  0  0  0  0
  -19.3794  -19.3179   26.9395 C   0  0  1  0  0  0  0  0  0  0  0  0
  -32.5979  -19.4664   18.1734 C   0  0  0  0  0  0  0  0  0  0  0  0
  -21.1454  -22.2585   25.3065 C   0  0  1  0  0  0  0  0  0  0  0  0
  -26.7308  -19.3391   19.6990 C   0  0  1  0  0  0  0  0  0  0  0  0
  -27.6108  -13.0557   19.6931 C   0  0  2  0  0  0  0  0  0  0  0  0
  -27.9861  -20.2048   19.8131 C   0  0  1  0  0  0  0  0  0  0  0  0
  -27.9458  -21.4902   20.5953 C   0  0  0  0  0  0  0  0  0  0  0  0
  -21.1567  -28.0049   20.1121 C   0  0  0  0  0  0  0  0  0  0  0  0
  -17.8850  -22.5805   22.0467 C   0  0  0  0  0  0  0  0  0  0  0  0
  -18.2415  -24.3756   20.3382 C   0  0  0  0  0  0  0  0  0  0  0  0
  -17.5215  -24.9805   22.6487 C   0  0  0  0  0  0  0  0  0  0  0  0
  -24.0875  -26.8803   22.2619 C   0  0  0  0  0  0  0  0  0  0  0  0
  -30.8159  -16.8277   21.8194 C   0  0  0  0  0  0  0  0  0  0  0  0
  -25.4531  -19.6826   20.3843 C   0  0  0  0  0  0  0  0  0  1  0  0
  -19.8913  -24.1921   22.2554 C   0  0  1  0  0  0  0  0  0  0  0  0
  -21.8297  -27.3002   21.2796 C   0  0  2  0  0  0  0  0  0  0  0  0
  -18.4063  -24.0152   21.8301 C   0  0  0  0  0  0  0  0  0  0  0  0
  -25.7890  -11.5160   20.3201 N   0  0  0  0  0  0  0  0  0  0  0  0
  -31.6745  -18.1596   19.9976 N   0  0  0  0  0  0  0  0  0  0  0  0
  -29.4298  -18.5197   20.7968 N   0  0  0  0  0  0  0  0  0  0  0  0
  -26.1901  -12.7879   20.1545 N   0  0  0  0  0  0  0  0  0  0  0  0
  -21.0297  -22.7897   23.9468 N   0  0  0  0  0  0  0  0  0  0  0  0
  -29.9369  -13.5087   20.3806 N   0  0  0  0  0  0  0  0  0  0  0  0
  -25.4610  -15.0354   20.3217 N   0  0  0  0  0  0  0  0  0  0  0  0
  -21.8199  -12.6643   21.5533 N   0  0  0  0  0  0  0  0  0  0  0  0
  -20.1884  -20.4798   26.6400 N   0  0  0  0  0  0  0  0  0  0  0  0
  -20.4037  -25.5476   22.0867 N   0  0  0  0  0  0  0  0  0  0  0  0
  -30.1334  -15.6055   21.4569 N   0  0  0  0  0  0  0  0  0  0  0  0
  -23.3019  -27.5018   21.1649 N   0  3  0  0  0  0  0  0  0  0  0  0
  -22.6366  -14.7800   21.2130 O   0  0  0  0  0  0  0  0  0  0  0  0
  -19.6363  -20.6921   24.3877 O   0  0  0  0  0  0  0  0  0  0  0  0
  -19.5253  -24.4530   24.5844 O   0  0  0  0  0  0  0  0  0  0  0  0
  -22.1470  -24.9853   20.6647 O   0  0  0  0  0  0  0  0  0  0  0  0
  -31.8685  -14.7801   20.2059 O   0  0  0  0  0  0  0  0  0  0  0  0
  -21.4463   -7.1133   21.8385 O   0  0  0  0  0  0  0  0  0  0  0  0
  -25.4499  -19.1221   21.6966 O   0  0  0  0  0  0  0  0  0  1  0  0
  -23.7747   -3.1123   24.8343 F   0  0  0  0  0  0  0  0  0  0  0  0
  -20.3593   -6.3388   24.2595 F   0  0  0  0  0  0  0  0  0  0  0  0
  1  2  1  0  0  0  0
  1  5  2  0  0  0  0
  2  6  2  0  0  0  0
  3  8  2  0  0  0  0
  3 16  1  0  0  0  0
  4  9  1  0  0  0  0
  4 16  2  0  0  0  0
  5 18  1  0  0  0  0
  6 20  1  0  0  0  0
  7 10  2  0  0  0  0
  7 19  1  0  0  0  0
  8 22  1  0  0  0  0
  9 22  2  0  0  0  0
 10 23  1  0  0  0  0
 11 12  2  0  0  0  0
 11 24  1  0  0  0  0
 12 25  1  0  0  0  0
 13 21  1  0  0  0  0
 13 23  2  0  0  0  0
 14 25  2  0  0  0  0
 14 26  1  0  0  0  0
 15 28  2  0  0  0  0
 15 29  1  0  0  0  0
 16 27  1  0  0  0  0
 17 27  1  0  0  0  0
 17 30  2  0  0  0  0
 17 32  1  0  0  0  0
 18 20  2  0  0  0  0
 18 37  1  0  0  0  0
 19 21  2  0  0  0  0
 19 38  1  0  0  0  0
 20 49  1  0  0  0  0
 21 39  1  0  0  0  0
 22 83  1  0  0  0  0
 23 84  1  0  0  0  0
 24 26  2  0  0  0  0
 24 83  1  0  0  0  0
 25 85  1  0  0  0  0
 26 86  1  0  0  0  0
 27 66  2  0  0  0  0
 28 50  1  0  0  0  0
 28 67  1  0  0  0  0
 29 54  1  0  0  0  0
 29 68  2  0  0  0  0
 30 69  1  0  0  0  0
 30 72  1  0  0  0  0
 31 61  1  0  0  0  0
 31 67  2  0  0  0  0
 31 68  1  0  0  0  0
 32 73  1  0  0  0  0
 32 78  2  0  0  0  0
 33 51  1  0  0  0  0
 33 74  1  0  0  0  0
 33 79  2  0  0  0  0
 34 63  1  0  0  0  0
 34 70  1  0  0  0  0
 34 80  2  0  0  0  0
 35 64  1  0  0  0  0
 35 75  1  0  0  0  0
 35 81  2  0  0  0  0
 36 71  1  0  0  0  0
 36 76  1  0  0  0  0
 36 82  2  0  0  0  0
 37 40  1  0  0  0  0
 38 51  1  0  0  0  0
 39 70  1  0  0  0  0
 40 42  1  0  0  0  0
 41 45  1  0  0  0  0
 41 47  1  0  0  0  0
 42 49  1  0  0  0  0
 43 44  1  0  0  0  0
 43 50  1  0  0  0  0
 44 50  1  0  0  0  0
 45 53  1  0  0  0  0
 46 52  1  0  0  0  0
 46 54  1  0  0  0  0
 47 71  1  0  0  0  0
 48 53  1  0  0  0  0
 48 71  1  0  0  0  0
 49 74  1  0  0  0  0
 51 70  1  0  0  0  0
 52 54  1  0  0  0  0
 52 62  1  0  0  0  0
 53 69  1  0  0  0  0
 54 55  1  0  0  0  0
 56 64  1  0  0  0  0
 57 65  1  0  0  0  0
 58 65  1  0  0  0  0
 59 65  1  0  0  0  0
 60 77  1  0  0  0  0
 61 76  1  0  0  0  0
 62 84  1  0  0  0  0
 63 65  1  0  0  0  0
 63 75  1  0  0  0  0
 64 77  1  0  0  0  0
 66 69  1  0  0  0  0
M  CHG  1  77   1
M  ISO  4  36 100  62 101  76 100  84 101
M  END
> <Batch ID>
0183

> <Smiles>
CNC(C)C(=O)NC(C(=O)N1Cc2cc([101O:1][101CH2:1]C3CC3(C)c3cc(C4CC4)nc(C[100NH:0][100C:0](=O)N4CCCC(n5nc(-c6ccc(Oc7ccc(F)cc7F)cc6)c(C(N)=O)c5N)C4)n3)ccc2CC1C(=O)NC1CCCc2ccccc21)C(C)(C)C

> <Shape>
0.231

> <Color>
0.204

> <Negative vol penalty>
0.000

$$$$

  -OEChem-04052323073D

 86 97  0     1  0  0  0  0  0999 V2000
  -21.4140  -19.1480   25.9265 C   0  0  0  0  0  0  0  0  0  0  0  0
  -22.1458  -19.8829   24.9992 C   0  0  0  0  0  0  0  0  0  0  0  0
  -24.4579   -9.8056   21.4127 C   0  0  0  0  0  0  0  0  0  0  0  0
  -24.8709  -10.8617   23.5460 C   0  0  0  0  0  0  0  0  0  0  0  0
  -20.2072  -19.6476   26.4142 C   0  0  0  0  0  0  0  0  0  0  0  0
  -21.6706  -21.1175   24.5584 C   0  0  0  0  0  0  0  0  0  0  0  0
  -25.2853  -24.6625   24.4450 C   0  0  0  0  0  0  0  0  0  0  0  0
  -24.1554   -8.6095   22.0634 C   0  0  0  0  0  0  0  0  0  0  0  0
  -24.5683   -9.6656   24.1967 C   0  0  0  0  0  0  0  0  0  0  0  0
  -26.1753  -24.6302   23.3724 C   0  0  0  0  0  0  0  0  0  0  0  0
  -22.9241   -5.3770   23.1815 C   0  0  0  0  0  0  0  0  0  0  0  0
  -21.7958   -4.6753   22.7571 C   0  0  0  0  0  0  0  0  0  0  0  0
  -24.9298  -26.3920   22.2936 C   0  0  0  0  0  0  0  0  0  0  0  0
  -20.4072   -6.5733   23.3106 C   0  0  0  0  0  0  0  0  0  0  0  0
  -24.8157  -10.9317   22.1540 C   0  0  0  0  0  0  0  0  0  0  0  0
  -24.2352  -13.2012   21.1439 C   0  0  0  0  0  0  0  0  0  0  0  0
  -19.7218  -20.8934   25.9864 C   0  0  0  0  0  0  0  0  0  0  0  0
  -24.2027  -25.5538   24.4450 C   0  0  0  0  0  0  0  0  0  0  0  0
  -20.4555  -21.6337   25.0399 C   0  0  0  0  0  0  0  0  0  0  0  0
  -24.0289  -26.4354   23.3686 C   0  0  0  0  0  0  0  0  0  0  0  0
  -24.2106   -8.5395   23.4554 C   0  0  0  0  0  0  0  0  0  0  0  0
  -25.9960  -25.4930   22.2952 C   0  0  0  0  0  0  0  0  0  0  0  0
  -22.7940   -6.6769   23.6705 C   0  0  0  0  0  0  0  0  0  0  0  0
  -20.5373   -5.2734   22.8217 C   0  0  0  0  0  0  0  0  0  0  0  0
  -21.5355   -7.2751   23.7350 C   0  0  0  0  0  0  0  0  0  0  0  0
  -25.1289  -12.1674   21.4824 C   0  0  0  0  0  0  0  0  0  0  0  0
  -28.4247  -22.0930   20.5951 C   0  0  0  0  0  0  0  0  0  0  0  0
  -29.5333  -21.4368   20.1074 C   0  0  0  0  0  0  0  0  0  0  0  0
  -27.4772  -20.0852   21.1433 C   0  0  0  0  0  0  0  0  0  0  0  0
  -28.5855  -19.4288   20.6549 C   0  0  0  0  0  0  0  0  0  0  0  0
  -25.0195  -14.1444   20.5260 C   0  0  0  0  0  0  0  0  0  0  0  0
  -22.8225  -13.3000   21.3679 C   0  0  0  0  0  0  0  0  0  0  0  0
  -21.0398  -25.2412   24.4944 C   0  0  0  0  0  0  0  0  0  0  0  0
  -21.1152  -28.4715   24.7805 C   0  0  0  0  0  0  0  0  0  0  0  0
  -22.8142  -31.3865   24.2680 C   0  0  0  0  0  0  0  0  0  0  0  0
  -29.6720  -17.1914   20.2552 C   0  0  0  0  0  0  0  0  0  0  0  0
  -18.3888  -21.3705   26.5063 C   0  0  0  0  0  0  0  0  0  0  0  0
  -23.2669  -25.5947   25.6219 C   0  0  0  0  0  0  0  0  0  0  0  0
  -22.8944  -27.4252   23.3295 C   0  0  0  0  0  0  0  0  0  0  0  0
  -18.1403  -22.8581   26.2708 C   0  0  0  0  0  0  0  0  0  0  0  0
  -29.8094  -13.8985   18.9079 C   0  0  0  0  0  0  0  0  0  0  0  0
  -18.4991  -23.2390   24.8379 C   0  0  0  0  0  0  0  0  0  0  0  0
  -30.6359  -22.5963   18.0792 C   0  0  0  0  0  0  0  0  0  0  0  0
  -31.5725  -21.5160   18.5219 C   0  0  0  0  0  0  0  0  0  0  0  0
  -25.4383  -20.0167   22.7281 C   0  0  0  0  0  0  0  0  0  0  0  0
  -26.3680  -18.9310   23.1720 C   0  0  0  0  0  0  0  0  0  0  0  0
  -28.5304  -13.2396   19.4298 C   0  0  0  0  0  0  0  0  0  0  0  0
  -27.8446  -24.2593   19.3119 C   0  0  0  0  0  0  0  0  0  0  0  0
  -30.4223  -14.8434   19.9400 C   0  0  0  0  0  0  0  0  0  0  0  0
  -28.2257  -15.1982   20.9976 C   0  0  0  0  0  0  0  0  0  0  0  0
  -19.9854  -22.9884   24.5562 C   0  0  1  0  0  0  0  0  0  0  0  0
  -28.3375  -23.5725   20.5641 C   0  0  1  0  0  0  0  0  0  0  0  0
  -30.6817  -22.1936   19.5296 C   0  0  0  0  0  0  0  0  0  0  0  0
  -26.3244  -19.3326   21.7220 C   0  0  0  0  0  0  0  0  0  0  0  0
  -21.9030  -26.1870   25.2805 C   0  0  1  0  0  0  0  0  0  0  0  0
  -27.5365  -14.2870   19.9689 C   0  0  2  0  0  0  0  0  0  0  0  0
  -26.9766  -24.2328   20.5327 C   0  0  1  0  0  0  0  0  0  1  0  0
  -22.6037  -33.8687   24.5711 C   0  0  0  0  0  0  0  0  0  0  0  0
  -19.2361  -28.6028   22.3802 C   0  0  0  0  0  0  0  0  0  0  0  0
  -19.8173  -31.0268   22.1461 C   0  0  0  0  0  0  0  0  0  0  0  0
  -18.6943  -30.2097   24.2183 C   0  0  0  0  0  0  0  0  0  0  0  0
  -25.1622  -31.4828   26.0671 C   0  0  0  0  0  0  0  0  0  0  0  0
  -21.1218  -29.6305   23.8133 C   0  0  1  0  0  0  0  0  0  0  0  0
  -23.0916  -32.5651   25.1837 C   0  0  2  0  0  0  0  0  0  0  0  0
  -19.7377  -29.8476   23.1390 C   0  0  0  0  0  0  0  0  0  0  0  0
  -26.3847  -12.4290   21.1103 N   0  0  0  0  0  0  0  0  0  0  0  0
  -27.3768  -21.4290   21.1219 N   0  0  0  0  0  0  0  0  0  0  0  0
  -29.6336  -20.0929   20.1285 N   0  0  0  0  0  0  0  0  0  0  0  0
  -26.2858  -13.6379   20.5315 N   0  0  0  0  0  0  0  0  0  0  0  0
  -22.0025  -27.4225   24.5009 N   0  0  0  0  0  0  0  0  0  0  0  0
  -29.4239  -15.8102   20.4021 N   0  0  0  0  0  0  0  0  0  0  0  0
  -24.7425  -15.3493   19.9839 N   0  0  0  0  0  0  0  0  0  0  0  0
  -22.1733  -12.2410   22.0170 N   0  0  0  0  0  0  0  0  0  0  0  0
  -28.6375  -18.0135   20.7006 N   0  0  0  0  0  0  0  0  0  0  0  0
  -20.7938  -24.0409   25.1333 N   0  0  0  0  0  0  0  0  0  0  0  0
  -21.6093  -30.7840   24.5618 N   0  0  0  0  0  0  0  0  0  0  0  0
  -24.5541  -32.6863   25.4433 N   0  3  0  0  0  0  0  0  0  0  0  0
  -22.1529  -14.2905   20.9887 O   0  0  0  0  0  0  0  0  0  0  0  0
  -20.6263  -25.5762   23.3905 O   0  0  0  0  0  0  0  0  0  0  0  0
  -20.3561  -28.4991   25.7524 O   0  0  0  0  0  0  0  0  0  0  0  0
  -23.5872  -31.0378   23.3784 O   0  0  0  0  0  0  0  0  0  0  0  0
  -30.7130  -17.6131   19.7449 O   0  0  0  0  0  0  0  0  0  0  0  0
  -23.9152   -7.3726   24.0907 O   0  0  0  0  0  0  0  0  0  0  0  0
  -26.8630  -25.4631   21.2467 O   0  0  0  0  0  0  0  0  0  1  0  0
  -19.4541   -4.6000   22.4127 F   0  0  0  0  0  0  0  0  0  0  0  0
  -21.4044   -8.5240   24.2027 F   0  0  0  0  0  0  0  0  0  0  0  0
  1  2  1  0  0  0  0
  1  5  2  0  0  0  0
  2  6  2  0  0  0  0
  3  8  2  0  0  0  0
  3 15  1  0  0  0  0
  4  9  1  0  0  0  0
  4 15  2  0  0  0  0
  5 17  1  0  0  0  0
  6 19  1  0  0  0  0
  7 10  2  0  0  0  0
  7 18  1  0  0  0  0
  8 21  1  0  0  0  0
  9 21  2  0  0  0  0
 10 22  1  0  0  0  0
 11 12  2  0  0  0  0
 11 23  1  0  0  0  0
 12 24  1  0  0  0  0
 13 20  1  0  0  0  0
 13 22  2  0  0  0  0
 14 24  2  0  0  0  0
 14 25  1  0  0  0  0
 15 26  1  0  0  0  0
 16 26  1  0  0  0  0
 16 31  2  0  0  0  0
 16 32  1  0  0  0  0
 17 19  2  0  0  0  0
 17 37  1  0  0  0  0
 18 20  2  0  0  0  0
 18 38  1  0  0  0  0
 19 51  1  0  0  0  0
 20 39  1  0  0  0  0
 21 83  1  0  0  0  0
 22 84  1  0  0  0  0
 23 25  2  0  0  0  0
 23 83  1  0  0  0  0
 24 85  1  0  0  0  0
 25 86  1  0  0  0  0
 26 66  2  0  0  0  0
 27 28  2  0  0  0  0
 27 52  1  0  0  0  0
 27 67  1  0  0  0  0
 28 53  1  0  0  0  0
 28 68  1  0  0  0  0
 29 30  1  0  0  0  0
 29 54  1  0  0  0  0
 29 67  2  0  0  0  0
 30 68  2  0  0  0  0
 30 74  1  0  0  0  0
 31 69  1  0  0  0  0
 31 72  1  0  0  0  0
 32 73  1  0  0  0  0
 32 78  2  0  0  0  0
 33 55  1  0  0  0  0
 33 75  1  0  0  0  0
 33 79  2  0  0  0  0
 34 63  1  0  0  0  0
 34 70  1  0  0  0  0
 34 80  2  0  0  0  0
 35 64  1  0  0  0  0
 35 76  1  0  0  0  0
 35 81  2  0  0  0  0
 36 71  1  0  0  0  0
 36 74  1  0  0  0  0
 36 82  2  0  0  0  0
 37 40  1  0  0  0  0
 38 55  1  0  0  0  0
 39 70  1  0  0  0  0
 40 42  1  0  0  0  0
 41 47  1  0  0  0  0
 41 49  1  0  0  0  0
 42 51  1  0  0  0  0
 43 44  1  0  0  0  0
 43 53  1  0  0  0  0
 44 53  1  0  0  0  0
 45 46  1  0  0  0  0
 45 54  1  0  0  0  0
 46 54  1  0  0  0  0
 47 56  1  0  0  0  0
 48 52  1  0  0  0  0
 48 57  1  0  0  0  0
 49 71  1  0  0  0  0
 50 56  1  0  0  0  0
 50 71  1  0  0  0  0
 51 75  1  0  0  0  0
 52 57  1  0  0  0  0
 55 70  1  0  0  0  0
 56 69  1  0  0  0  0
 57 84  1  0  0  0  0
 58 64  1  0  0  0  0
 59 65  1  0  0  0  0
 60 65  1  0  0  0  0
 61 65  1  0  0  0  0
 62 77  1  0  0  0  0
 63 65  1  0  0  0  0
 63 76  1  0  0  0  0
 64 77  1  0  0  0  0
 66 69  1  0  0  0  0
M  CHG  1  77   1
M  ISO  4  36 100  57 101  74 100  84 101
M  END
> <Batch ID>
0183

> <Smiles>
CNC(C)C(=O)NC(C(=O)N1Cc2cc([101O:1][101CH:1]3CC3c3nc(C4CC4)c([100NH:0][100C:0](=O)N4CCCC(n5nc(-c6ccc(Oc7ccc(F)cc7F)cc6)c(C(N)=O)c5N)C4)nc3C3CC3)ccc2CC1C(=O)NC1CCCc2ccccc21)C(C)(C)C

> <Shape>
0.241

> <Color>
0.121

> <Negative vol penalty>
0.000

$$$$

  -OEChem-04052323073D

 86 96  0     1  0  0  0  0  0999 V2000
  -28.3667  -33.2459   25.7071 C   0  0  0  0  0  0  0  0  0  0  0  0
  -28.4686  -32.1821   24.8164 C   0  0  0  0  0  0  0  0  0  0  0  0
  -24.6818  -13.0875   19.5536 C   0  0  0  0  0  0  0  0  0  0  0  0
  -25.5601  -13.0269   21.8035 C   0  0  0  0  0  0  0  0  0  0  0  0
  -27.1846  -33.4474   26.4184 C   0  0  0  0  0  0  0  0  0  0  0  0
  -27.3886  -31.3185   24.6372 C   0  0  0  0  0  0  0  0  0  0  0  0
  -26.5149  -30.2867   19.7569 C   0  0  0  0  0  0  0  0  0  0  0  0
  -24.8828  -11.7120   19.4382 C   0  0  0  0  0  0  0  0  0  0  0  0
  -25.7610  -11.6515   21.6881 C   0  0  0  0  0  0  0  0  0  0  0  0
  -27.3519  -29.3558   19.1432 C   0  0  0  0  0  0  0  0  0  0  0  0
  -23.8943   -8.8398   21.8625 C   0  0  0  0  0  0  0  0  0  0  0  0
  -23.4999   -8.0367   22.9326 C   0  0  0  0  0  0  0  0  0  0  0  0
  -25.6598  -27.6594   19.4225 C   0  0  0  0  0  0  0  0  0  0  0  0
  -25.7736   -7.2607   23.1881 C   0  0  0  0  0  0  0  0  0  0  0  0
  -25.0205  -13.7450   20.7363 C   0  0  0  0  0  0  0  0  0  0  0  0
  -23.6587  -15.8203   21.3247 C   0  0  0  0  0  0  0  0  0  0  0  0
  -26.0862  -32.5915   26.2406 C   0  0  0  0  0  0  0  0  0  0  0  0
  -25.2462  -29.9077   20.2186 C   0  0  0  0  0  0  0  0  0  0  0  0
  -26.1911  -31.5079   25.3478 C   0  0  0  0  0  0  0  0  0  0  0  0
  -24.8076  -28.5880   20.0394 C   0  0  0  0  0  0  0  0  0  0  0  0
  -25.4224  -10.9940   20.5054 C   0  0  0  0  0  0  0  0  0  0  0  0
  -26.9255  -28.0412   18.9785 C   0  0  0  0  0  0  0  0  0  0  0  0
  -25.2283   -8.8533   21.4552 C   0  0  0  0  0  0  0  0  0  0  0  0
  -24.4396   -7.2472   23.5954 C   0  0  0  0  0  0  0  0  0  0  0  0
  -26.1679   -8.0638   22.1180 C   0  0  0  0  0  0  0  0  0  0  0  0
  -24.8137  -15.1659   20.8560 C   0  0  0  0  0  0  0  0  0  0  0  0
  -29.4572  -25.4689   18.6558 C   0  0  0  0  0  0  0  0  0  0  0  0
  -29.4088  -25.9549   21.2804 C   0  0  0  0  0  0  0  0  0  0  0  0
  -30.2635  -25.0153   20.7471 C   0  0  0  0  0  0  0  0  0  0  0  0
  -28.6023  -26.4083   19.1892 C   0  0  0  0  0  0  0  0  0  1  0  0
  -23.9642  -17.1569   21.2423 C   0  0  0  0  0  0  0  0  0  0  0  0
  -22.4206  -15.2693   21.7927 C   0  0  0  0  0  0  0  0  0  0  0  0
  -23.8254  -29.8266   23.0609 C   0  0  0  0  0  0  0  0  0  0  0  0
  -21.2229  -29.0156   21.3026 C   0  0  0  0  0  0  0  0  0  0  0  0
  -19.9751  -27.6798   18.4206 C   0  0  0  0  0  0  0  0  0  0  0  0
  -29.1103  -20.0309   21.3981 C   0  0  0  0  0  0  0  0  0  0  0  0
  -24.8456  -32.8214   27.0669 C   0  0  0  0  0  0  0  0  0  0  0  0
  -24.3449  -30.9303   20.8545 C   0  0  0  0  0  0  0  0  0  0  0  0
  -23.4467  -28.1353   20.4991 C   0  0  0  0  0  0  0  0  0  0  0  0
  -23.6179  -32.0822   26.5410 C   0  0  0  0  0  0  0  0  0  0  0  0
  -26.6503  -20.2377   18.7531 C   0  0  0  0  0  0  0  0  0  0  0  0
  -23.9678  -30.6351   26.2086 C   0  0  0  0  0  0  0  0  0  0  0  0
  -28.1934  -24.8262   16.4963 C   0  0  0  0  0  0  0  0  0  0  0  0
  -29.2621  -23.7973   16.6947 C   0  0  0  0  0  0  0  0  0  0  0  0
  -25.7864  -19.0102   19.0473 C   0  0  0  0  0  0  0  0  0  0  0  0
  -32.6797  -22.5092   22.2902 C   0  0  0  0  0  0  0  0  0  0  0  0
  -31.9641  -21.1421   22.3373 C   0  0  0  0  0  0  0  0  0  0  0  0
  -28.1252  -19.9551   19.0251 C   0  0  0  0  0  0  0  0  0  0  0  0
  -27.5527  -18.2386   20.6967 C   0  0  0  0  0  0  0  0  0  0  0  0
  -25.0328  -30.5640   25.1076 C   0  0  1  0  0  0  0  0  0  0  0  0
  -29.4767  -25.2041   17.1887 C   0  0  0  0  0  0  0  0  0  0  0  0
  -23.2756  -30.3105   21.7489 C   0  0  1  0  0  0  0  0  0  0  0  0
  -26.0483  -18.4680   20.4648 C   0  0  2  0  0  0  0  0  0  0  0  0
  -31.5600  -22.9753   21.3344 C   0  0  1  0  0  0  0  0  0  0  0  0
  -30.6588  -21.8942   21.9813 C   0  0  1  0  0  0  0  0  0  0  0  0
  -29.3685  -26.2397   22.7439 C   0  0  0  0  0  0  0  0  0  0  0  0
  -17.8083  -27.1150   17.2878 C   0  0  0  0  0  0  0  0  0  0  0  0
  -20.9139  -26.5794   23.1135 C   0  0  0  0  0  0  0  0  0  0  0  0
  -19.3800  -25.5879   21.4012 C   0  0  0  0  0  0  0  0  0  0  0  0
  -18.7687  -27.7258   22.5320 C   0  0  0  0  0  0  0  0  0  0  0  0
  -20.5436  -29.5094   16.1649 C   0  0  0  0  0  0  0  0  0  0  0  0
  -20.6242  -27.7185   20.8147 C   0  0  1  0  0  0  0  0  0  0  0  0
  -18.8939  -28.1641   17.4715 C   0  0  2  0  0  0  0  0  0  0  0  0
  -19.9482  -26.9106   21.9583 C   0  0  0  0  0  0  0  0  0  0  0  0
  -25.7806  -16.0166   20.5020 N   0  0  0  0  0  0  0  0  0  0  0  0
  -30.3032  -24.7556   19.4252 N   0  0  0  0  0  0  0  0  0  0  0  0
  -28.5627  -26.6682   20.5110 N   0  0  0  0  0  0  0  0  0  0  0  0
  -25.2339  -17.2193   20.7483 N   0  0  0  0  0  0  0  0  0  0  0  0
  -22.6045  -29.1706   21.1207 N   0  0  0  0  0  0  0  0  0  0  0  0
  -28.3079  -19.4602   20.3973 N   0  0  0  0  0  0  0  0  0  0  0  0
  -23.2678  -18.2731   21.5450 N   0  0  0  0  0  0  0  0  0  0  0  0
  -22.2742  -13.8756   21.8115 N   0  0  0  0  0  0  0  0  0  0  0  0
  -31.1266  -24.2998   21.6072 N   0  0  0  0  0  0  0  0  0  0  0  0
  -24.4377  -30.8118   23.8119 N   0  0  0  0  0  0  0  0  0  0  0  0
  -19.7265  -28.0696   19.7197 N   0  0  0  0  0  0  0  0  0  0  0  0
  -29.7951  -21.1891   21.0456 N   0  0  0  0  0  0  0  0  0  0  0  0
  -19.4780  -28.4747   16.1361 N   0  3  0  0  0  0  0  0  0  0  0  0
  -21.4661  -15.9919   22.1672 O   0  0  0  0  0  0  0  0  0  0  0  0
  -23.7019  -28.6472   23.3696 O   0  0  0  0  0  0  0  0  0  0  0  0
  -20.4905  -29.8631   21.8192 O   0  0  0  0  0  0  0  0  0  0  0  0
  -20.9416  -27.0185   18.0476 O   0  0  0  0  0  0  0  0  0  0  0  0
  -29.2101  -19.5504   22.5324 O   0  0  0  0  0  0  0  0  0  0  0  0
  -25.6184   -9.6518   20.3931 O   0  0  0  0  0  0  0  0  0  0  0  0
  -27.7407  -27.1304   18.3804 O   0  0  0  0  0  0  0  0  0  1  0  0
  -24.0610   -6.4772   24.6240 F   0  0  0  0  0  0  0  0  0  0  0  0
  -27.4512   -8.0735   21.7320 F   0  0  0  0  0  0  0  0  0  0  0  0
  1  2  1  0  0  0  0
  1  5  2  0  0  0  0
  2  6  2  0  0  0  0
  3  8  2  0  0  0  0
  3 15  1  0  0  0  0
  4  9  1  0  0  0  0
  4 15  2  0  0  0  0
  5 17  1  0  0  0  0
  6 19  1  0  0  0  0
  7 10  2  0  0  0  0
  7 18  1  0  0  0  0
  8 21  1  0  0  0  0
  9 21  2  0  0  0  0
 10 22  1  0  0  0  0
 11 12  2  0  0  0  0
 11 23  1  0  0  0  0
 12 24  1  0  0  0  0
 13 20  1  0  0  0  0
 13 22  2  0  0  0  0
 14 24  2  0  0  0  0
 14 25  1  0  0  0  0
 15 26  1  0  0  0  0
 16 26  1  0  0  0  0
 16 31  2  0  0  0  0
 16 32  1  0  0  0  0
 17 19  2  0  0  0  0
 17 37  1  0  0  0  0
 18 20  2  0  0  0  0
 18 38  1  0  0  0  0
 19 50  1  0  0  0  0
 20 39  1  0  0  0  0
 21 83  1  0  0  0  0
 22 84  1  0  0  0  0
 23 25  2  0  0  0  0
 23 83  1  0  0  0  0
 24 85  1  0  0  0  0
 25 86  1  0  0  0  0
 26 65  2  0  0  0  0
 27 30  2  0  0  0  0
 27 51  1  0  0  0  0
 27 66  1  0  0  0  0
 28 29  1  0  0  0  0
 28 56  1  0  0  0  0
 28 67  2  0  0  0  0
 29 66  2  0  0  0  0
 29 73  1  0  0  0  0
 30 67  1  0  0  0  0
 30 84  1  0  0  0  0
 31 68  1  0  0  0  0
 31 71  1  0  0  0  0
 32 72  1  0  0  0  0
 32 78  2  0  0  0  0
 33 52  1  0  0  0  0
 33 74  1  0  0  0  0
 33 79  2  0  0  0  0
 34 62  1  0  0  0  0
 34 69  1  0  0  0  0
 34 80  2  0  0  0  0
 35 63  1  0  0  0  0
 35 75  1  0  0  0  0
 35 81  2  0  0  0  0
 36 70  1  0  0  0  0
 36 76  1  0  0  0  0
 36 82  2  0  0  0  0
 37 40  1  0  0  0  0
 38 52  1  0  0  0  0
 39 69  1  0  0  0  0
 40 42  1  0  0  0  0
 41 45  1  0  0  0  0
 41 48  1  0  0  0  0
 42 50  1  0  0  0  0
 43 44  1  0  0  0  0
 43 51  1  0  0  0  0
 44 51  1  0  0  0  0
 45 53  1  0  0  0  0
 46 47  1  0  0  0  0
 46 54  1  0  0  0  0
 47 55  1  0  0  0  0
 48 70  1  0  0  0  0
 49 53  1  0  0  0  0
 49 70  1  0  0  0  0
 50 74  1  0  0  0  0
 52 69  1  0  0  0  0
 53 68  1  0  0  0  0
 54 55  1  0  0  0  0
 54 73  1  0  0  0  0
 55 76  1  0  0  0  0
 57 63  1  0  0  0  0
 58 64  1  0  0  0  0
 59 64  1  0  0  0  0
 60 64  1  0  0  0  0
 61 77  1  0  0  0  0
 62 64  1  0  0  0  0
 62 75  1  0  0  0  0
 63 77  1  0  0  0  0
 65 68  1  0  0  0  0
M  CHG  1  77   1
M  ISO  4  30 101  36 100  76 100  84 101
M  END
> <Batch ID>
0183

> <Smiles>
CNC(C)C(=O)NC(C(=O)N1Cc2cc([101O:1][101c:1]3nc(C)c(NC4CCC4[100NH:0][100C:0](=O)N4CCCC(n5nc(-c6ccc(Oc7ccc(F)cc7F)cc6)c(C(N)=O)c5N)C4)nc3C3CC3)ccc2CC1C(=O)NC1CCCc2ccccc21)C(C)(C)C

> <Shape>
0.291

> <Color>
0.089

> <Negative vol penalty>
0.000

$$$$

  -OEChem-04052323073D

 85 94  0     1  0  0  0  0  0999 V2000
  -20.5233  -17.9795   17.2925 C   0  0  0  0  0  0  0  0  0  0  0  0
  -21.8493  -18.3879   17.3943 C   0  0  0  0  0  0  0  0  0  0  0  0
  -22.1177  -28.6329   20.7368 C   0  0  0  0  0  0  0  0  0  0  0  0
  -23.0995  -26.9904   22.2117 C   0  0  0  0  0  0  0  0  0  0  0  0
  -20.0201  -17.0232   18.1735 C   0  0  0  0  0  0  0  0  0  0  0  0
  -22.6726  -17.8410   18.3779 C   0  0  0  0  0  0  0  0  0  0  0  0
  -28.6652  -16.6620   17.9254 C   0  0  0  0  0  0  0  0  0  0  0  0
  -20.8600  -28.3672   21.2781 C   0  0  0  0  0  0  0  0  0  0  0  0
  -21.8417  -26.7247   22.7530 C   0  0  0  0  0  0  0  0  0  0  0  0
  -29.7937  -17.3646   18.3455 C   0  0  0  0  0  0  0  0  0  0  0  0
  -19.1265  -29.1757   24.0663 C   0  0  0  0  0  0  0  0  0  0  0  0
  -18.3168  -30.2644   24.3897 C   0  0  0  0  0  0  0  0  0  0  0  0
  -29.8683  -16.0317   20.3547 C   0  0  0  0  0  0  0  0  0  0  0  0
  -16.6338  -29.4704   22.8488 C   0  0  0  0  0  0  0  0  0  0  0  0
  -23.2375  -27.9445   21.2036 C   0  0  0  0  0  0  0  0  0  0  0  0
  -25.2195  -29.4495   20.6427 C   0  0  0  0  0  0  0  0  0  0  0  0
  -20.8403  -16.4571   19.1622 C   0  0  0  0  0  0  0  0  0  0  0  0
  -28.1223  -15.6445   18.7233 C   0  0  0  0  0  0  0  0  0  0  0  0
  -22.1795  -16.8771   19.2737 C   0  0  0  0  0  0  0  0  0  0  0  0
  -28.7343  -15.3160   19.9414 C   0  0  0  0  0  0  0  0  0  0  0  0
  -20.7219  -27.4131   22.2862 C   0  0  0  0  0  0  0  0  0  0  0  0
  -30.3937  -17.0515   19.5616 C   0  0  0  0  0  0  0  0  0  0  0  0
  -18.6900  -28.2344   23.1341 C   0  0  0  0  0  0  0  0  0  0  0  0
  -17.0704  -30.4118   23.7810 C   0  0  0  0  0  0  0  0  0  0  0  0
  -17.4437  -28.3817   22.5254 C   0  0  0  0  0  0  0  0  0  0  0  0
  -24.5370  -28.2182   20.6445 C   0  0  0  0  0  0  0  0  0  0  0  0
  -26.4023  -29.1855   19.9963 C   0  0  0  0  0  0  0  0  0  0  0  0
  -24.8201  -30.7183   21.1776 C   0  0  0  0  0  0  0  0  0  0  0  0
  -25.3353  -15.1824   20.1802 C   0  0  0  0  0  0  0  0  0  0  0  0
  -26.6021  -12.2682   20.8322 C   0  0  0  0  0  0  0  0  0  0  0  0
  -28.3047   -9.6210   20.8936 C   0  0  0  0  0  0  0  0  0  0  0  0
  -29.2148  -23.7931   19.2550 C   0  0  0  0  0  0  0  0  0  0  0  0
  -20.2386  -15.4614   20.1219 C   0  0  0  0  0  0  0  0  0  0  0  0
  -26.9204  -14.8780   18.2435 C   0  0  0  0  0  0  0  0  0  0  0  0
  -28.2026  -14.2186   20.8254 C   0  0  0  0  0  0  0  0  0  0  0  0
  -21.2791  -14.6564   20.8962 C   0  0  0  0  0  0  0  0  0  0  0  0
  -28.3181  -26.3112   16.6944 C   0  0  0  0  0  0  0  0  0  0  0  0
  -22.3647  -15.5762   21.4461 C   0  0  0  0  0  0  0  0  0  0  0  0
  -27.2506  -27.1423   17.4041 C   0  0  0  0  0  0  0  0  0  0  0  0
  -29.4359  -25.5676   22.3762 C   0  0  0  0  0  0  0  0  0  0  0  0
  -29.7695  -21.8481   21.4737 C   0  0  0  0  0  0  0  0  0  0  0  0
  -31.8066  -22.6167   20.2012 C   0  0  0  0  0  0  0  0  0  0  0  0
  -28.3554  -24.8759   17.2104 C   0  0  0  0  0  0  0  0  0  0  0  0
  -27.4532  -25.6014   19.3953 C   0  0  0  0  0  0  0  0  0  0  0  0
  -30.0887  -26.8357   22.9039 C   0  0  0  0  0  0  0  0  0  0  0  0
  -30.5891  -20.7244   22.0944 C   0  0  0  0  0  0  0  0  0  0  0  0
  -32.6154  -21.4882   20.8273 C   0  0  0  0  0  0  0  0  0  0  0  0
  -31.4976  -25.7517   21.2236 C   0  0  0  0  0  0  0  0  0  0  0  0
  -23.1106  -16.2889   20.3116 C   0  0  1  0  0  0  0  0  0  0  0  0
  -26.1481  -14.2078   19.3757 C   0  0  1  0  0  0  0  0  0  0  0  0
  -27.4208  -27.0653   18.9313 C   0  0  2  0  0  0  0  0  0  0  0  0
  -30.6470  -23.0436   21.1013 C   0  0  0  0  0  0  0  0  0  0  0  0
  -30.0418  -25.3968   20.9938 C   0  0  1  0  0  0  0  0  0  0  0  0
  -26.6717   -7.7549   20.5088 C   0  0  0  0  0  0  0  0  0  0  0  0
  -26.9375  -13.6833   23.5146 C   0  0  0  0  0  0  0  0  0  0  0  0
  -27.8546  -11.5484   24.4471 C   0  0  0  0  0  0  0  0  0  0  0  0
  -25.5134  -11.6288   23.5897 C   0  0  0  0  0  0  0  0  0  0  0  0
  -32.6037  -27.0968   23.0470 C   0  0  0  0  0  0  0  0  0  0  0  0
  -29.7850   -7.7986   22.6954 C   0  0  0  0  0  0  0  0  0  0  0  0
  -32.4684  -19.1442   21.6633 C   0  0  0  0  0  0  0  0  0  0  0  0
  -31.6808  -17.8798   21.3819 C   0  0  0  0  0  0  0  0  0  1  0  0
  -27.4367  -11.6911   21.9499 C   0  0  1  0  0  0  0  0  0  0  0  0
  -28.1021   -8.1166   20.8774 C   0  0  2  0  0  0  0  0  0  0  0  0
  -26.9475  -12.1501   23.3526 C   0  0  0  0  0  0  0  0  0  0  0  0
  -25.2285  -27.2445   20.0466 N   0  0  0  0  0  0  0  0  0  0  0  0
  -26.3579  -27.8637   19.6629 N   0  0  0  0  0  0  0  0  0  0  0  0
  -27.0217  -13.5023   20.3156 N   0  0  0  0  0  0  0  0  0  0  0  0
  -28.4742  -24.8322   18.6682 N   0  0  0  0  0  0  0  0  0  0  0  0
  -27.4655  -29.9574   19.6862 N   0  0  0  0  0  0  0  0  0  0  0  0
  -23.5731  -30.8141   21.8103 N   0  0  0  0  0  0  0  0  0  0  0  0
  -24.0606  -15.3918   19.6895 N   0  0  0  0  0  0  0  0  0  0  0  0
  -27.4309  -10.2448   21.7588 N   0  0  0  0  0  0  0  0  0  0  0  0
  -29.8647  -24.0756   20.4660 N   0  0  0  0  0  0  0  0  0  0  0  0
  -31.4097  -26.9379   22.1617 N   0  3  2  0  0  0  0  0  0  0  0  0
  -31.7006  -20.3317   21.1510 N   0  3  0  0  0  0  0  0  0  0  0  0
  -28.4024   -7.5390   22.2179 N   0  3  0  0  0  0  0  0  0  0  0  0
  -25.5403  -31.7409   21.0825 O   0  0  0  0  0  0  0  0  0  0  0  0
  -25.8276  -15.7045   21.1735 O   0  0  0  0  0  0  0  0  0  0  0  0
  -25.6185  -11.6436   20.4274 O   0  0  0  0  0  0  0  0  0  0  0  0
  -29.1558  -10.1859   20.2101 O   0  0  0  0  0  0  0  0  0  0  0  0
  -29.2987  -22.6793   18.7217 O   0  0  0  0  0  0  0  0  0  0  0  0
  -19.4948  -27.1536   22.8147 O   0  0  0  0  0  0  0  0  0  0  0  0
  -31.4950  -17.7362   19.9743 O   0  0  0  0  0  0  0  0  0  1  0  0
  -16.2922  -31.4565   24.0928 F   0  0  0  0  0  0  0  0  0  0  0  0
  -17.0184  -27.4799   21.6300 F   0  0  0  0  0  0  0  0  0  0  0  0
  1  2  1  0  0  0  0
  1  5  2  0  0  0  0
  2  6  2  0  0  0  0
  3  8  2  0  0  0  0
  3 15  1  0  0  0  0
  4  9  1  0  0  0  0
  4 15  2  0  0  0  0
  5 17  1  0  0  0  0
  6 19  1  0  0  0  0
  7 10  2  0  0  0  0
  7 18  1  0  0  0  0
  8 21  1  0  0  0  0
  9 21  2  0  0  0  0
 10 22  1  0  0  0  0
 11 12  2  0  0  0  0
 11 23  1  0  0  0  0
 12 24  1  0  0  0  0
 13 20  1  0  0  0  0
 13 22  2  0  0  0  0
 14 24  2  0  0  0  0
 14 25  1  0  0  0  0
 15 26  1  0  0  0  0
 16 26  1  0  0  0  0
 16 27  2  0  0  0  0
 16 28  1  0  0  0  0
 17 19  2  0  0  0  0
 17 33  1  0  0  0  0
 18 20  2  0  0  0  0
 18 34  1  0  0  0  0
 19 49  1  0  0  0  0
 20 35  1  0  0  0  0
 21 82  1  0  0  0  0
 22 83  1  0  0  0  0
 23 25  2  0  0  0  0
 23 82  1  0  0  0  0
 24 84  1  0  0  0  0
 25 85  1  0  0  0  0
 26 65  2  0  0  0  0
 27 66  1  0  0  0  0
 27 69  1  0  0  0  0
 28 70  1  0  0  0  0
 28 77  2  0  0  0  0
 29 50  1  0  0  0  0
 29 71  1  0  0  0  0
 29 78  2  0  0  0  0
 30 62  1  0  0  0  0
 30 67  1  0  0  0  0
 30 79  2  0  0  0  0
 31 63  1  0  0  0  0
 31 72  1  0  0  0  0
 31 80  2  0  0  0  0
 32 68  1  0  0  0  0
 32 73  1  0  0  0  0
 32 81  2  0  0  0  0
 33 36  1  0  0  0  0
 34 50  1  0  0  0  0
 35 67  1  0  0  0  0
 36 38  1  0  0  0  0
 37 39  1  0  0  0  0
 37 43  1  0  0  0  0
 38 49  1  0  0  0  0
 39 51  1  0  0  0  0
 40 45  1  0  0  0  0
 40 53  1  0  0  0  0
 41 46  1  0  0  0  0
 41 52  1  0  0  0  0
 42 47  1  0  0  0  0
 42 52  1  0  0  0  0
 43 68  1  0  0  0  0
 44 51  1  0  0  0  0
 44 68  1  0  0  0  0
 45 74  1  0  0  0  0
 46 75  1  0  0  0  0
 47 75  1  0  0  0  0
 48 53  1  0  0  0  0
 48 74  1  0  0  0  0
 49 71  1  0  0  0  0
 50 67  1  0  0  0  0
 51 66  1  0  0  0  0
 52 73  1  0  0  0  0
 53 73  1  0  0  0  0
 54 63  1  0  0  0  0
 55 64  1  0  0  0  0
 56 64  1  0  0  0  0
 57 64  1  0  0  0  0
 58 74  1  0  0  0  0
 59 76  1  0  0  0  0
 60 61  1  0  0  0  0
 60 75  1  0  0  0  0
 61 83  1  0  0  0  0
 62 64  1  0  0  0  0
 62 72  1  0  0  0  0
 63 76  1  0  0  0  0
 65 66  1  0  0  0  0
M  CHG  3  74   1  75   1  76   1
M  ISO  4  32 100  61 101  73 100  83 101
M  END
> <Batch ID>
0183

> <Smiles>
CNC(C)C(=O)NC(C(=O)N1Cc2cc([101O:1][101CH2:1]CN3CCC([100N:0](C4CCN(C)C4)[100C:0](=O)N4CCCC(n5nc(-c6ccc(Oc7ccc(F)cc7F)cc6)c(C(N)=O)c5N)C4)CC3)ccc2CC1C(=O)NC1CCCc2ccccc21)C(C)(C)C

> <Shape>
0.245

> <Color>
0.078

> <Negative vol penalty>
0.000

$$$$

  -OEChem-04052323073D

 83 92  0     1  0  0  0  0  0999 V2000
  -15.7701  -22.7267   21.9661 C   0  0  0  0  0  0  0  0  0  0  0  0
  -16.2724  -21.5767   21.3655 C   0  0  0  0  0  0  0  0  0  0  0  0
  -27.6999  -23.3629   21.0154 C   0  0  0  0  0  0  0  0  0  0  0  0
  -28.4419  -23.0368   18.7394 C   0  0  0  0  0  0  0  0  0  0  0  0
  -16.6236  -23.5715   22.6743 C   0  0  0  0  0  0  0  0  0  0  0  0
  -17.6289  -21.2715   21.4718 C   0  0  0  0  0  0  0  0  0  0  0  0
  -20.1264  -15.6951   21.8858 C   0  0  0  0  0  0  0  0  0  0  0  0
  -27.7963  -24.7444   20.8489 C   0  0  0  0  0  0  0  0  0  0  0  0
  -28.5382  -24.4184   18.5728 C   0  0  0  0  0  0  0  0  0  0  0  0
  -20.7190  -14.8601   20.9396 C   0  0  0  0  0  0  0  0  0  0  0  0
  -25.9778  -27.2148   19.4266 C   0  0  0  0  0  0  0  0  0  0  0  0
  -24.9245  -27.9994   19.8962 C   0  0  0  0  0  0  0  0  0  0  0  0
  -22.8931  -15.6828   21.5841 C   0  0  0  0  0  0  0  0  0  0  0  0
  -26.4445  -29.1532   21.3779 C   0  0  0  0  0  0  0  0  0  0  0  0
  -24.8950  -13.2763   19.4024 C   0  0  0  0  0  0  0  0  0  0  0  0
  -28.0228  -22.5091   19.9606 C   0  0  0  0  0  0  0  0  0  0  0  0
  -26.8005  -20.2713   19.8818 C   0  0  0  0  0  0  0  0  0  0  0  0
  -17.9895  -23.2716   22.7975 C   0  0  0  0  0  0  0  0  0  0  0  0
  -20.9133  -16.5396   22.6821 C   0  0  0  0  0  0  0  0  0  0  0  0
  -18.5017  -22.1139   22.1812 C   0  0  0  0  0  0  0  0  0  0  0  0
  -22.3083  -16.5256   22.5415 C   0  0  0  0  0  0  0  0  0  0  0  0
  -28.2154  -25.2722   19.6276 C   0  0  0  0  0  0  0  0  0  0  0  0
  -22.1023  -14.8560   20.7865 C   0  0  0  0  0  0  0  0  0  0  0  0
  -27.2645  -27.3994   19.9326 C   0  0  0  0  0  0  0  0  0  0  0  0
  -25.1578  -28.9686   20.8719 C   0  0  0  0  0  0  0  0  0  0  0  0
  -27.4978  -28.3686   20.9082 C   0  0  0  0  0  0  0  0  0  0  0  0
  -27.9240  -21.0819   20.1322 C   0  0  0  0  0  0  0  0  0  0  0  0
  -25.9701  -12.5470   19.8678 C   0  0  0  0  0  0  0  0  0  0  0  0
  -23.7992  -13.3249   20.2396 C   0  0  0  0  0  0  0  0  0  1  0  0
  -27.2162  -19.0011   20.1984 C   0  0  0  0  0  0  0  0  0  0  0  0
  -24.8571  -12.0331   21.7820 C   0  0  0  0  0  0  0  0  0  0  0  0
  -25.4977  -20.6341   19.4056 C   0  0  0  0  0  0  0  0  0  0  0  0
  -21.1420  -19.6863   23.0691 C   0  0  0  0  0  0  0  0  0  0  0  0
  -23.1848  -18.8531   25.4472 C   0  0  0  0  0  0  0  0  0  0  0  0
  -25.3194  -16.5321   26.7523 C   0  0  0  0  0  0  0  0  0  0  0  0
  -31.1083  -14.9869   19.8549 C   0  0  0  0  0  0  0  0  0  0  0  0
  -18.8819  -24.2397   23.5330 C   0  0  0  0  0  0  0  0  0  0  0  0
  -20.2607  -17.4148   23.7168 C   0  0  0  0  0  0  0  0  0  0  0  0
  -23.1992  -17.3985   23.3858 C   0  0  0  0  0  0  0  0  0  0  0  0
  -20.2367  -23.6493   23.9154 C   0  0  0  0  0  0  0  0  0  0  0  0
  -31.3914  -17.3777   22.5470 C   0  0  0  0  0  0  0  0  0  0  0  0
  -20.8495  -22.9084   22.7312 C   0  0  0  0  0  0  0  0  0  0  0  0
  -30.4415  -18.5007   22.1269 C   0  0  0  0  0  0  0  0  0  0  0  0
  -32.0589  -16.7143   21.3434 C   0  0  0  0  0  0  0  0  0  0  0  0
  -28.5420  -14.4712   19.9495 C   0  0  0  0  0  0  0  0  0  0  0  0
  -29.7295  -13.0832   18.8588 C   0  0  0  0  0  0  0  0  0  0  0  0
  -30.1863  -17.3684   19.8873 C   0  0  0  0  0  0  0  0  0  0  0  0
  -19.9626  -21.7359   22.2952 C   0  0  1  0  0  0  0  0  0  0  0  0
  -21.1206  -18.6097   24.1171 C   0  0  1  0  0  0  0  0  0  0  0  0
  -28.4615  -12.9502   19.7195 C   0  0  0  0  0  0  0  0  0  0  0  0
  -29.4389  -18.0136   21.0638 C   0  0  2  0  0  0  0  0  0  0  0  0
  -24.8358  -11.3446   23.1044 C   0  0  0  0  0  0  0  0  0  0  0  0
  -26.8717  -16.1511   28.6869 C   0  0  0  0  0  0  0  0  0  0  0  0
  -25.2423  -20.7003   24.1569 C   0  0  0  0  0  0  0  0  0  0  0  0
  -27.0094  -19.5747   25.5275 C   0  0  0  0  0  0  0  0  0  0  0  0
  -25.1600  -20.8130   26.6539 C   0  0  0  0  0  0  0  0  0  0  0  0
  -23.7702  -14.1888   27.6839 C   0  0  0  0  0  0  0  0  0  0  0  0
  -27.2204  -12.4355   19.0186 C   0  0  1  0  0  0  0  0  0  0  0  0
  -24.6696  -18.5968   25.5402 C   0  0  1  0  0  0  0  0  0  0  0  0
  -25.4589  -15.9679   28.1547 C   0  0  2  0  0  0  0  0  0  0  0  0
  -25.5037  -19.9060   25.4522 C   0  0  0  0  0  0  0  0  0  0  0  0
  -28.9744  -20.3851   20.5739 N   0  0  0  0  0  0  0  0  0  0  0  0
  -25.9854  -11.9102   21.0572 N   0  0  0  0  0  0  0  0  0  0  0  0
  -23.7458  -12.7128   21.4408 N   0  0  0  0  0  0  0  0  0  0  0  0
  -28.5127  -19.1233   20.6037 N   0  0  0  0  0  0  0  0  0  0  0  0
  -22.5134  -18.2412   24.3792 N   0  0  0  0  0  0  0  0  0  0  0  0
  -31.0568  -16.2872   20.3636 N   0  0  0  0  0  0  0  0  0  0  0  0
  -29.9259  -14.3755   19.5099 N   0  0  0  0  0  0  0  0  0  0  0  0
  -26.5955  -17.8027   20.1670 N   0  0  0  0  0  0  0  0  0  0  0  0
  -25.2394  -21.9836   19.1289 N   0  0  0  0  0  0  0  0  0  0  0  0
  -20.1271  -20.6154   23.1963 N   0  0  0  0  0  0  0  0  0  0  0  0
  -24.8767  -17.8379   26.7688 N   0  0  0  0  0  0  0  0  0  0  0  0
  -27.4773  -11.0293   18.5681 N   0  3  0  0  0  0  0  0  0  0  0  0
  -25.1391  -14.5124   28.1616 N   0  3  0  0  0  0  0  0  0  0  0  0
  -24.5845  -19.7890   19.2463 O   0  0  0  0  0  0  0  0  0  0  0  0
  -22.0155  -19.6756   22.2097 O   0  0  0  0  0  0  0  0  0  0  0  0
  -22.6396  -19.5640   26.2951 O   0  0  0  0  0  0  0  0  0  0  0  0
  -25.5808  -15.8809   25.7433 O   0  0  0  0  0  0  0  0  0  0  0  0
  -32.1780  -14.3739   19.7396 O   0  0  0  0  0  0  0  0  0  0  0  0
  -28.3093  -26.6202   19.4648 O   0  0  0  0  0  0  0  0  0  0  0  0
  -22.6917  -14.0305   19.8497 O   0  0  0  0  0  0  0  0  0  1  0  0
  -24.1465  -29.7229   21.3217 F   0  0  0  0  0  0  0  0  0  0  0  0
  -28.7320  -28.5513   21.3973 F   0  0  0  0  0  0  0  0  0  0  0  0
  1  2  1  0  0  0  0
  1  5  2  0  0  0  0
  2  6  2  0  0  0  0
  3  8  2  0  0  0  0
  3 16  1  0  0  0  0
  4  9  1  0  0  0  0
  4 16  2  0  0  0  0
  5 18  1  0  0  0  0
  6 20  1  0  0  0  0
  7 10  2  0  0  0  0
  7 19  1  0  0  0  0
  8 22  1  0  0  0  0
  9 22  2  0  0  0  0
 10 23  1  0  0  0  0
 11 12  2  0  0  0  0
 11 24  1  0  0  0  0
 12 25  1  0  0  0  0
 13 21  1  0  0  0  0
 13 23  2  0  0  0  0
 14 25  2  0  0  0  0
 14 26  1  0  0  0  0
 15 28  2  0  0  0  0
 15 29  1  0  0  0  0
 16 27  1  0  0  0  0
 17 27  1  0  0  0  0
 17 30  2  0  0  0  0
 17 32  1  0  0  0  0
 18 20  2  0  0  0  0
 18 37  1  0  0  0  0
 19 21  2  0  0  0  0
 19 38  1  0  0  0  0
 20 48  1  0  0  0  0
 21 39  1  0  0  0  0
 22 80  1  0  0  0  0
 23 81  1  0  0  0  0
 24 26  2  0  0  0  0
 24 80  1  0  0  0  0
 25 82  1  0  0  0  0
 26 83  1  0  0  0  0
 27 62  2  0  0  0  0
 28 58  1  0  0  0  0
 28 63  1  0  0  0  0
 29 64  2  0  0  0  0
 29 81  1  0  0  0  0
 30 65  1  0  0  0  0
 30 69  1  0  0  0  0
 31 52  1  0  0  0  0
 31 63  2  0  0  0  0
 31 64  1  0  0  0  0
 32 70  1  0  0  0  0
 32 75  2  0  0  0  0
 33 49  1  0  0  0  0
 33 71  1  0  0  0  0
 33 76  2  0  0  0  0
 34 59  1  0  0  0  0
 34 66  1  0  0  0  0
 34 77  2  0  0  0  0
 35 60  1  0  0  0  0
 35 72  1  0  0  0  0
 35 78  2  0  0  0  0
 36 67  1  0  0  0  0
 36 68  1  0  0  0  0
 36 79  2  0  0  0  0
 37 40  1  0  0  0  0
 38 49  1  0  0  0  0
 39 66  1  0  0  0  0
 40 42  1  0  0  0  0
 41 43  1  0  0  0  0
 41 44  1  0  0  0  0
 42 48  1  0  0  0  0
 43 51  1  0  0  0  0
 44 67  1  0  0  0  0
 45 50  1  0  0  0  0
 45 68  1  0  0  0  0
 46 50  1  0  0  0  0
 46 68  1  0  0  0  0
 47 51  1  0  0  0  0
 47 67  1  0  0  0  0
 48 71  1  0  0  0  0
 49 66  1  0  0  0  0
 50 58  1  0  0  0  0
 51 65  1  0  0  0  0
 53 60  1  0  0  0  0
 54 61  1  0  0  0  0
 55 61  1  0  0  0  0
 56 61  1  0  0  0  0
 57 74  1  0  0  0  0
 58 73  1  0  0  0  0
 59 61  1  0  0  0  0
 59 72  1  0  0  0  0
 60 74  1  0  0  0  0
 62 65  1  0  0  0  0
M  CHG  2  73   1  74   1
M  ISO  4  29 101  36 100  68 100  81 101
M  END
> <Batch ID>
0183

> <Smiles>
CNC(C)C(=O)NC(C(=O)N1Cc2cc([101O:1][101c:1]3cc(C(N)C4C[100N:0]([100C:0](=O)N5CCCC(n6nc(-c7ccc(Oc8ccc(F)cc8F)cc7)c(C(N)=O)c6N)C5)C4)nc(C)n3)ccc2CC1C(=O)NC1CCCc2ccccc21)C(C)(C)C

> <Shape>
0.191

> <Color>
0.100

> <Negative vol penalty>
0.000

$$$$

  -OEChem-04052323073D

 83 92  0     1  0  0  0  0  0999 V2000
  -18.4306  -28.2865   22.7813 C   0  0  0  0  0  0  0  0  0  0  0  0
  -18.1365  -26.9300   22.6878 C   0  0  0  0  0  0  0  0  0  0  0  0
  -29.8310  -23.8644   20.6758 C   0  0  0  0  0  0  0  0  0  0  0  0
  -30.1959  -23.4275   18.3278 C   0  0  0  0  0  0  0  0  0  0  0  0
  -19.7490  -28.7229   22.6575 C   0  0  0  0  0  0  0  0  0  0  0  0
  -19.1606  -26.0091   22.4694 C   0  0  0  0  0  0  0  0  0  0  0  0
  -21.0541  -19.2849   24.0557 C   0  0  0  0  0  0  0  0  0  0  0  0
  -30.5532  -25.0527   20.5670 C   0  0  0  0  0  0  0  0  0  0  0  0
  -30.9181  -24.6159   18.2190 C   0  0  0  0  0  0  0  0  0  0  0  0
  -21.4683  -18.1076   23.4344 C   0  0  0  0  0  0  0  0  0  0  0  0
  -31.9936  -28.3803   20.8263 C   0  0  0  0  0  0  0  0  0  0  0  0
  -31.4629  -29.5195   21.4315 C   0  0  0  0  0  0  0  0  0  0  0  0
  -23.7184  -18.9691   23.3156 C   0  0  0  0  0  0  0  0  0  0  0  0
  -29.4916  -29.3368   20.0468 C   0  0  0  0  0  0  0  0  0  0  0  0
  -29.6524  -23.0517   19.5563 C   0  0  0  0  0  0  0  0  0  0  0  0
  -27.5220  -21.6503   19.4850 C   0  0  0  0  0  0  0  0  0  0  0  0
  -20.7909  -27.8061   22.4472 C   0  0  0  0  0  0  0  0  0  0  0  0
  -21.9682  -20.3194   24.3022 C   0  0  0  0  0  0  0  0  0  0  0  0
  -20.4940  -26.4338   22.3414 C   0  0  0  0  0  0  0  0  0  0  0  0
  -23.3138  -20.1575   23.9425 C   0  0  0  0  0  0  0  0  0  0  0  0
  -25.2506  -13.0761   20.1987 C   0  0  0  0  0  0  0  0  0  0  0  0
  -31.0967  -25.4285   19.3385 C   0  0  0  0  0  0  0  0  0  0  0  0
  -22.8001  -17.9507   23.0616 C   0  0  0  0  0  0  0  0  0  0  0  0
  -31.2734  -27.7194   19.8312 C   0  0  0  0  0  0  0  0  0  0  0  0
  -30.2119  -29.9977   21.0418 C   0  0  0  0  0  0  0  0  0  0  0  0
  -30.0223  -28.1976   19.4415 C   0  0  0  0  0  0  0  0  0  0  0  0
  -28.9070  -21.8237   19.6682 C   0  0  0  0  0  0  0  0  0  0  0  0
  -25.2095  -14.2432   19.4828 C   0  0  0  0  0  0  0  0  0  0  0  0
  -25.0734  -13.1497   21.5709 C   0  0  0  0  0  0  0  0  0  0  0  0
  -27.3123  -20.3102   19.7009 C   0  0  0  0  0  0  0  0  0  0  0  0
  -24.8286  -15.3932   21.4211 C   0  0  0  0  0  0  0  0  0  0  0  0
  -26.5151  -22.6143   19.1496 C   0  0  0  0  0  0  0  0  0  0  0  0
  -22.2434  -23.3420   23.3579 C   0  0  0  0  0  0  0  0  0  0  0  0
  -24.6935  -23.3747   25.4835 C   0  0  0  0  0  0  0  0  0  0  0  0
  -27.0467  -21.6152   27.2194 C   0  0  0  0  0  0  0  0  0  0  0  0
  -28.7700  -14.9745   18.9586 C   0  0  0  0  0  0  0  0  0  0  0  0
  -22.1945  -28.3297   22.2726 C   0  0  0  0  0  0  0  0  0  0  0  0
  -21.5110  -21.5723   24.9974 C   0  0  0  0  0  0  0  0  0  0  0  0
  -25.5041  -11.6752   19.7719 C   0  0  0  0  0  0  0  0  0  0  0  0
  -24.3388  -21.2298   24.2031 C   0  0  0  0  0  0  0  0  0  0  0  0
  -23.2682  -27.2542   22.4164 C   0  0  0  0  0  0  0  0  0  0  0  0
  -30.3829  -16.7587   21.5838 C   0  0  0  0  0  0  0  0  0  0  0  0
  -22.8901  -26.0120   21.6158 C   0  0  0  0  0  0  0  0  0  0  0  0
  -30.0337  -18.2208   21.3006 C   0  0  0  0  0  0  0  0  0  0  0  0
  -25.1843  -10.8993   21.0681 C   0  0  0  0  0  0  0  0  0  0  0  0
  -30.6029  -15.9711   20.2941 C   0  0  0  0  0  0  0  0  0  0  0  0
  -29.1467  -17.5138   19.0397 C   0  0  0  0  0  0  0  0  0  0  0  0
  -21.5805  -25.4019   22.1298 C   0  0  1  0  0  0  0  0  0  0  0  0
  -22.4218  -22.7677   24.7349 C   0  0  1  0  0  0  0  0  0  0  0  0
  -28.8608  -18.3352   20.3084 C   0  0  2  0  0  0  0  0  0  0  0  0
  -28.9303  -21.9213   28.8491 C   0  0  0  0  0  0  0  0  0  0  0  0
  -26.4669  -24.4237   23.2330 C   0  0  0  0  0  0  0  0  0  0  0  0
  -28.4630  -23.8109   24.6144 C   0  0  0  0  0  0  0  0  0  0  0  0
  -26.8437  -25.5134   25.4522 C   0  0  0  0  0  0  0  0  0  0  0  0
  -25.7103  -19.9361   29.2575 C   0  0  0  0  0  0  0  0  0  0  0  0
  -25.4122  -14.2468   18.0074 C   0  0  0  0  0  0  0  0  0  0  0  0
  -24.5859  -16.7094   22.0994 C   0  0  0  0  0  0  0  0  0  1  0  0
  -26.8829  -14.1277   17.5870 C   0  0  0  0  0  0  0  0  0  0  0  0
  -26.1718  -23.0763   25.4156 C   0  0  1  0  0  0  0  0  0  0  0  0
  -27.4450  -21.6392   28.6841 C   0  0  2  0  0  0  0  0  0  0  0  0
  -26.9669  -24.1865   24.6720 C   0  0  0  0  0  0  0  0  0  0  0  0
  -29.5329  -20.6849   19.9769 N   0  0  0  0  0  0  0  0  0  0  0  0
  -24.9925  -15.4341   20.0773 N   0  0  0  0  0  0  0  0  0  0  0  0
  -24.8588  -14.3050   22.2210 N   0  0  0  0  0  0  0  0  0  0  0  0
  -28.5367  -19.7830   19.9894 N   0  0  0  0  0  0  0  0  0  0  0  0
  -25.1584  -11.8732   22.1463 N   0  0  0  0  0  0  0  0  0  0  0  0
  -23.8414  -22.4391   24.8798 N   0  0  0  0  0  0  0  0  0  0  0  0
  -29.4540  -16.1201   19.3975 N   0  0  0  0  0  0  0  0  0  0  0  0
  -26.2019  -19.5431   19.6704 N   0  0  0  0  0  0  0  0  0  0  0  0
  -26.9030  -23.9480   18.9625 N   0  0  0  0  0  0  0  0  0  0  0  0
  -21.8143  -24.6555   23.3475 N   0  0  0  0  0  0  0  0  0  0  0  0
  -26.6059  -22.8490   26.7897 N   0  0  0  0  0  0  0  0  0  0  0  0
  -27.6891  -15.2050   18.1164 N   0  0  0  0  0  0  0  0  0  0  0  0
  -27.1416  -20.3284   29.3250 N   0  3  0  0  0  0  0  0  0  0  0  0
  -25.3048  -22.3052   19.0358 O   0  0  0  0  0  0  0  0  0  0  0  0
  -22.4790  -22.6455   22.3776 O   0  0  0  0  0  0  0  0  0  0  0  0
  -24.3085  -24.3964   26.0575 O   0  0  0  0  0  0  0  0  0  0  0  0
  -27.1227  -20.6040   26.5250 O   0  0  0  0  0  0  0  0  0  0  0  0
  -29.0949  -13.8312   19.2967 O   0  0  0  0  0  0  0  0  0  0  0  0
  -31.8013  -26.5882   19.2319 O   0  0  0  0  0  0  0  0  0  0  0  0
  -23.2069  -16.8028   22.4544 O   0  0  0  0  0  0  0  0  0  1  0  0
  -29.7017  -31.0907   21.6242 F   0  0  0  0  0  0  0  0  0  0  0  0
  -29.3252  -27.5663   18.4870 F   0  0  0  0  0  0  0  0  0  0  0  0
  1  2  1  0  0  0  0
  1  5  2  0  0  0  0
  2  6  2  0  0  0  0
  3  8  2  0  0  0  0
  3 15  1  0  0  0  0
  4  9  1  0  0  0  0
  4 15  2  0  0  0  0
  5 17  1  0  0  0  0
  6 19  1  0  0  0  0
  7 10  2  0  0  0  0
  7 18  1  0  0  0  0
  8 22  1  0  0  0  0
  9 22  2  0  0  0  0
 10 23  1  0  0  0  0
 11 12  2  0  0  0  0
 11 24  1  0  0  0  0
 12 25  1  0  0  0  0
 13 20  1  0  0  0  0
 13 23  2  0  0  0  0
 14 25  2  0  0  0  0
 14 26  1  0  0  0  0
 15 27  1  0  0  0  0
 16 27  1  0  0  0  0
 16 30  2  0  0  0  0
 16 32  1  0  0  0  0
 17 19  2  0  0  0  0
 17 37  1  0  0  0  0
 18 20  2  0  0  0  0
 18 38  1  0  0  0  0
 19 48  1  0  0  0  0
 20 40  1  0  0  0  0
 21 28  1  0  0  0  0
 21 29  2  0  0  0  0
 21 39  1  0  0  0  0
 22 80  1  0  0  0  0
 23 81  1  0  0  0  0
 24 26  2  0  0  0  0
 24 80  1  0  0  0  0
 25 82  1  0  0  0  0
 26 83  1  0  0  0  0
 27 62  2  0  0  0  0
 28 56  1  0  0  0  0
 28 63  2  0  0  0  0
 29 64  1  0  0  0  0
 29 66  1  0  0  0  0
 30 65  1  0  0  0  0
 30 69  1  0  0  0  0
 31 57  1  0  0  0  0
 31 63  1  0  0  0  0
 31 64  2  0  0  0  0
 32 70  1  0  0  0  0
 32 75  2  0  0  0  0
 33 49  1  0  0  0  0
 33 71  1  0  0  0  0
 33 76  2  0  0  0  0
 34 59  1  0  0  0  0
 34 67  1  0  0  0  0
 34 77  2  0  0  0  0
 35 60  1  0  0  0  0
 35 72  1  0  0  0  0
 35 78  2  0  0  0  0
 36 68  1  0  0  0  0
 36 73  1  0  0  0  0
 36 79  2  0  0  0  0
 37 41  1  0  0  0  0
 38 49  1  0  0  0  0
 39 45  1  0  0  0  0
 40 67  1  0  0  0  0
 41 43  1  0  0  0  0
 42 44  1  0  0  0  0
 42 46  1  0  0  0  0
 43 48  1  0  0  0  0
 44 50  1  0  0  0  0
 45 66  1  0  0  0  0
 46 68  1  0  0  0  0
 47 50  1  0  0  0  0
 47 68  1  0  0  0  0
 48 71  1  0  0  0  0
 49 67  1  0  0  0  0
 50 65  1  0  0  0  0
 51 60  1  0  0  0  0
 52 61  1  0  0  0  0
 53 61  1  0  0  0  0
 54 61  1  0  0  0  0
 55 74  1  0  0  0  0
 56 58  1  0  0  0  0
 57 81  1  0  0  0  0
 58 73  1  0  0  0  0
 59 61  1  0  0  0  0
 59 72  1  0  0  0  0
 60 74  1  0  0  0  0
 62 65  1  0  0  0  0
M  CHG  1  74   1
M  ISO  4  36 100  57 101  73 100  81 101
M  END
> <Batch ID>
0183

> <Smiles>
CNC(C)C(=O)NC(C(=O)N1Cc2cc([101O:1][101CH2:1]c3nc(CC[100NH:0][100C:0](=O)N4CCCC(n5nc(-c6ccc(Oc7ccc(F)cc7F)cc6)c(C(N)=O)c5N)C4)c4c(n3)NCC4)ccc2CC1C(=O)NC1CCCc2ccccc21)C(C)(C)C

> <Shape>
0.204

> <Color>
0.062

> <Negative vol penalty>
0.000

$$$$

  -OEChem-04052323073D

 81 90  0     1  0  0  0  0  0999 V2000
  -20.3428  -23.9604   22.5995 C   0  0  0  0  0  0  0  0  0  0  0  0
  -21.5715  -24.4469   22.1649 C   0  0  0  0  0  0  0  0  0  0  0  0
  -25.0106  -13.2732   20.7370 C   0  0  0  0  0  0  0  0  0  0  0  0
  -22.8680  -14.3599   20.9926 C   0  0  0  0  0  0  0  0  0  0  0  0
  -19.2729  -24.8356   22.7822 C   0  0  0  0  0  0  0  0  0  0  0  0
  -21.7308  -25.8089   21.9117 C   0  0  0  0  0  0  0  0  0  0  0  0
  -26.0393  -27.6511   23.8322 C   0  0  0  0  0  0  0  0  0  0  0  0
  -24.5032  -12.1282   21.3510 C   0  0  0  0  0  0  0  0  0  0  0  0
  -22.3605  -13.2149   21.6065 C   0  0  0  0  0  0  0  0  0  0  0  0
  -27.2135  -27.3900   23.1273 C   0  0  0  0  0  0  0  0  0  0  0  0
  -22.5609   -9.4959   20.4956 C   0  0  0  0  0  0  0  0  0  0  0  0
  -22.8490   -8.2638   19.9087 C   0  0  0  0  0  0  0  0  0  0  0  0
  -27.1255  -29.6037   22.1728 C   0  0  0  0  0  0  0  0  0  0  0  0
  -23.9552   -7.5564   21.9368 C   0  0  0  0  0  0  0  0  0  0  0  0
  -24.1931  -14.3891   20.5579 C   0  0  0  0  0  0  0  0  0  0  0  0
  -25.2472  -15.6767   18.6243 C   0  0  0  0  0  0  0  0  0  0  0  0
  -19.4219  -26.2104   22.5404 C   0  0  0  0  0  0  0  0  0  0  0  0
  -25.3924  -28.8886   23.7040 C   0  0  0  0  0  0  0  0  0  0  0  0
  -20.6616  -26.7031   22.0900 C   0  0  0  0  0  0  0  0  0  0  0  0
  -25.9446  -29.8789   22.8791 C   0  0  0  0  0  0  0  0  0  0  0  0
  -23.1781  -12.0990   21.7857 C   0  0  0  0  0  0  0  0  0  0  0  0
  -27.7552  -28.3654   22.2952 C   0  0  0  0  0  0  0  0  0  0  0  0
  -22.9700   -9.7583   21.8031 C   0  0  0  0  0  0  0  0  0  0  0  0
  -23.5462   -7.2941   20.6293 C   0  0  0  0  0  0  0  0  0  0  0  0
  -23.6671   -8.7886   22.5237 C   0  0  0  0  0  0  0  0  0  0  0  0
  -24.7169  -15.5724   19.9242 C   0  0  0  0  0  0  0  0  0  0  0  0
  -25.6034  -16.9977   18.5038 C   0  0  0  0  0  0  0  0  0  0  0  0
  -25.4036  -14.6696   17.6159 C   0  0  0  0  0  0  0  0  0  0  0  0
  -22.5419  -29.8322   22.6609 C   0  0  0  0  0  0  0  0  0  0  0  0
  -23.5385  -32.7252   23.7378 C   0  0  0  0  0  0  0  0  0  0  0  0
  -26.5917  -34.6468   23.6823 C   0  0  0  0  0  0  0  0  0  0  0  0
  -28.1623  -21.3941   20.6195 C   0  0  0  0  0  0  0  0  0  0  0  0
  -18.2235  -27.1108   22.7066 C   0  0  0  0  0  0  0  0  0  0  0  0
  -24.1410  -29.1641   24.4919 C   0  0  0  0  0  0  0  0  0  0  0  0
  -25.2998  -31.2310   22.7227 C   0  0  0  0  0  0  0  0  0  0  0  0
  -18.5804  -28.5934   22.7758 C   0  0  0  0  0  0  0  0  0  0  0  0
  -24.5868  -20.9756   21.4280 C   0  0  0  0  0  0  0  0  0  0  0  0
  -19.5690  -28.9565   21.6724 C   0  0  0  0  0  0  0  0  0  0  0  0
  -24.3687  -19.5146   21.0458 C   0  0  0  0  0  0  0  0  0  0  0  0
  -29.7156  -26.7119   17.6500 C   0  0  0  0  0  0  0  0  0  0  0  0
  -29.7667  -28.2295   17.9258 C   0  0  0  0  0  0  0  0  0  0  0  0
  -25.9916  -21.2212   21.9771 C   0  0  0  0  0  0  0  0  0  0  0  0
  -26.8576  -19.2925   20.6831 C   0  0  0  0  0  0  0  0  0  0  0  0
  -29.2836  -25.0166   21.0999 C   0  0  0  0  0  0  0  0  0  0  0  0
  -29.4086  -24.0359   19.2659 C   0  0  0  0  0  0  0  0  0  0  0  0
  -20.8806  -28.1775   21.8286 C   0  0  1  0  0  0  0  0  0  0  0  0
  -23.2873  -30.2750   23.8881 C   0  0  1  0  0  0  0  0  0  0  0  0
  -25.4665  -19.0359   20.0834 C   0  0  1  0  0  0  0  0  0  0  0  0
  -29.4296  -23.5346   20.7190 C   0  0  0  0  0  0  0  0  0  0  0  0
  -29.2498  -26.5241   19.1084 C   0  0  2  0  0  0  0  0  0  0  0  0
  -29.9212  -27.8983   19.4431 C   0  0  1  0  0  0  0  0  0  0  0  0
  -31.3814  -27.8959   19.9036 C   0  0  0  0  0  0  0  0  0  0  0  0
  -27.4382  -36.4104   25.2540 C   0  0  0  0  0  0  0  0  0  0  0  0
  -22.2430  -34.6778   21.7836 C   0  0  0  0  0  0  0  0  0  0  0  0
  -24.1859  -36.2159   22.1407 C   0  0  0  0  0  0  0  0  0  0  0  0
  -22.6991  -35.6225   24.0539 C   0  0  0  0  0  0  0  0  0  0  0  0
  -29.1245  -33.1863   24.1416 C   0  0  0  0  0  0  0  0  0  0  0  0
  -29.0646  -28.7768   20.3530 C   0  0  0  0  0  0  0  0  0  1  0  0
  -24.2936  -33.8870   23.1385 C   0  0  1  0  0  0  0  0  0  0  0  0
  -27.5009  -34.9425   24.8615 C   0  0  2  0  0  0  0  0  0  0  0  0
  -23.3595  -35.0741   22.7701 C   0  0  0  0  0  0  0  0  0  0  0  0
  -24.7331  -16.7345   20.5825 N   0  0  0  0  0  0  0  0  0  0  0  0
  -25.2779  -17.5815   19.6926 N   0  0  0  0  0  0  0  0  0  0  0  0
  -24.0745  -31.4500   23.5089 N   0  0  0  0  0  0  0  0  0  0  0  0
  -27.0260  -20.6985   21.0706 N   0  0  0  0  0  0  0  0  0  0  0  0
  -26.1603  -17.7052   17.4979 N   0  0  0  0  0  0  0  0  0  0  0  0
  -24.9851  -13.3637   17.9053 N   0  0  0  0  0  0  0  0  0  0  0  0
  -21.6942  -28.7618   22.8731 N   0  0  0  0  0  0  0  0  0  0  0  0
  -25.3440  -34.2267   24.0922 N   0  0  0  0  0  0  0  0  0  0  0  0
  -28.3039  -22.6940   21.0919 N   0  0  0  0  0  0  0  0  0  0  0  0
  -29.8461  -25.3585   19.7720 N   0  3  0  0  0  0  0  0  0  0  0  0
  -28.9129  -34.6061   24.5239 N   0  3  0  0  0  0  0  0  0  0  0  0
  -25.9150  -14.9167   16.4974 O   0  0  0  0  0  0  0  0  0  0  0  0
  -22.7214  -30.4193   21.6004 O   0  0  0  0  0  0  0  0  0  0  0  0
  -22.5149  -32.9418   24.3913 O   0  0  0  0  0  0  0  0  0  0  0  0
  -26.9511  -34.7789   22.5145 O   0  0  0  0  0  0  0  0  0  0  0  0
  -28.9949  -20.8932   19.8556 O   0  0  0  0  0  0  0  0  0  0  0  0
  -22.6825  -10.9818   22.3847 O   0  0  0  0  0  0  0  0  0  0  0  0
  -28.9009  -28.1130   21.6055 O   0  0  0  0  0  0  0  0  0  1  0  0
  -23.8214   -6.1104   20.0661 F   0  0  0  0  0  0  0  0  0  0  0  0
  -24.0617   -9.0345   23.7805 F   0  0  0  0  0  0  0  0  0  0  0  0
  1  2  1  0  0  0  0
  1  5  2  0  0  0  0
  2  6  2  0  0  0  0
  3  8  2  0  0  0  0
  3 15  1  0  0  0  0
  4  9  1  0  0  0  0
  4 15  2  0  0  0  0
  5 17  1  0  0  0  0
  6 19  1  0  0  0  0
  7 10  2  0  0  0  0
  7 18  1  0  0  0  0
  8 21  1  0  0  0  0
  9 21  2  0  0  0  0
 10 22  1  0  0  0  0
 11 12  2  0  0  0  0
 11 23  1  0  0  0  0
 12 24  1  0  0  0  0
 13 20  1  0  0  0  0
 13 22  2  0  0  0  0
 14 24  2  0  0  0  0
 14 25  1  0  0  0  0
 15 26  1  0  0  0  0
 16 26  1  0  0  0  0
 16 27  2  0  0  0  0
 16 28  1  0  0  0  0
 17 19  2  0  0  0  0
 17 33  1  0  0  0  0
 18 20  2  0  0  0  0
 18 34  1  0  0  0  0
 19 46  1  0  0  0  0
 20 35  1  0  0  0  0
 21 78  1  0  0  0  0
 22 79  1  0  0  0  0
 23 25  2  0  0  0  0
 23 78  1  0  0  0  0
 24 80  1  0  0  0  0
 25 81  1  0  0  0  0
 26 62  2  0  0  0  0
 27 63  1  0  0  0  0
 27 66  1  0  0  0  0
 28 67  1  0  0  0  0
 28 73  2  0  0  0  0
 29 47  1  0  0  0  0
 29 68  1  0  0  0  0
 29 74  2  0  0  0  0
 30 59  1  0  0  0  0
 30 64  1  0  0  0  0
 30 75  2  0  0  0  0
 31 60  1  0  0  0  0
 31 69  1  0  0  0  0
 31 76  2  0  0  0  0
 32 65  1  0  0  0  0
 32 70  1  0  0  0  0
 32 77  2  0  0  0  0
 33 36  1  0  0  0  0
 34 47  1  0  0  0  0
 35 64  1  0  0  0  0
 36 38  1  0  0  0  0
 37 39  1  0  0  0  0
 37 42  1  0  0  0  0
 38 46  1  0  0  0  0
 39 48  1  0  0  0  0
 40 41  1  0  0  0  0
 40 50  1  0  0  0  0
 41 51  1  0  0  0  0
 42 65  1  0  0  0  0
 43 48  1  0  0  0  0
 43 65  1  0  0  0  0
 44 49  1  0  0  0  0
 44 71  1  0  0  0  0
 45 49  1  0  0  0  0
 45 71  1  0  0  0  0
 46 68  1  0  0  0  0
 47 64  1  0  0  0  0
 48 63  1  0  0  0  0
 49 70  1  0  0  0  0
 50 51  1  0  0  0  0
 50 71  1  0  0  0  0
 51 52  1  0  0  0  0
 51 58  1  0  0  0  0
 53 60  1  0  0  0  0
 54 61  1  0  0  0  0
 55 61  1  0  0  0  0
 56 61  1  0  0  0  0
 57 72  1  0  0  0  0
 58 79  1  0  0  0  0
 59 61  1  0  0  0  0
 59 69  1  0  0  0  0
 60 72  1  0  0  0  0
 62 63  1  0  0  0  0
M  CHG  2  71   1  72   1
M  ISO  4  32 100  58 101  70 100  79 101
M  END
> <Batch ID>
0183

> <Smiles>
CNC(C)C(=O)NC(C(=O)N1Cc2cc([101O:1][101CH2:1]C3(C)CCC3N3CC([100NH:0][100C:0](=O)N4CCCC(n5nc(-c6ccc(Oc7ccc(F)cc7F)cc6)c(C(N)=O)c5N)C4)C3)ccc2CC1C(=O)NC1CCCc2ccccc21)C(C)(C)C

> <Shape>
0.285

> <Color>
0.088

> <Negative vol penalty>
0.000

$$$$

  -OEChem-04052323073D

 83 92  0     1  0  0  0  0  0999 V2000
  -18.5869  -24.5456   23.7846 C   0  0  0  0  0  0  0  0  0  0  0  0
  -19.8518  -24.3809   23.2294 C   0  0  0  0  0  0  0  0  0  0  0  0
  -23.9073  -14.4362   19.8481 C   0  0  0  0  0  0  0  0  0  0  0  0
  -24.7567  -14.6086   22.1033 C   0  0  0  0  0  0  0  0  0  0  0  0
  -17.9673  -25.7940   23.7464 C   0  0  0  0  0  0  0  0  0  0  0  0
  -20.4974  -25.4643   22.6347 C   0  0  0  0  0  0  0  0  0  0  0  0
  -26.5120  -26.6178   22.6338 C   0  0  0  0  0  0  0  0  0  0  0  0
  -24.5629  -13.2147   19.6945 C   0  0  0  0  0  0  0  0  0  0  0  0
  -25.4123  -13.3871   21.9497 C   0  0  0  0  0  0  0  0  0  0  0  0
  -27.5110  -26.3880   21.6888 C   0  0  0  0  0  0  0  0  0  0  0  0
  -25.7177   -9.8771   18.8331 C   0  0  0  0  0  0  0  0  0  0  0  0
  -25.0091   -8.8304   18.2433 C   0  0  0  0  0  0  0  0  0  0  0  0
  -27.2618  -28.6486   20.8844 C   0  0  0  0  0  0  0  0  0  0  0  0
  -23.3665   -8.9464   20.0113 C   0  0  0  0  0  0  0  0  0  0  0  0
  -24.0042  -15.1333   21.0524 C   0  0  0  0  0  0  0  0  0  0  0  0
  -22.0198  -16.6047   21.6883 C   0  0  0  0  0  0  0  0  0  0  0  0
  -18.6097  -26.8956   23.1595 C   0  0  0  0  0  0  0  0  0  0  0  0
  -25.8717  -27.8634   22.7041 C   0  0  0  0  0  0  0  0  0  0  0  0
  -19.8853  -26.7283   22.5874 C   0  0  0  0  0  0  0  0  0  0  0  0
  -26.2568  -28.8925   21.8329 C   0  0  0  0  0  0  0  0  0  0  0  0
  -28.3355  -23.6414   17.2734 C   0  0  0  0  0  0  0  0  0  0  0  0
  -25.3154  -12.6901   20.7453 C   0  0  0  0  0  0  0  0  0  0  0  0
  -27.8841  -27.4025   20.8120 C   0  0  0  0  0  0  0  0  0  0  0  0
  -25.2508  -10.4584   20.0120 C   0  0  0  0  0  0  0  0  0  0  0  0
  -23.8335   -8.3651   18.8324 C   0  0  0  0  0  0  0  0  0  0  0  0
  -24.0752   -9.9930   20.6011 C   0  0  0  0  0  0  0  0  0  0  0  0
  -23.3277  -16.3954   21.2115 C   0  0  0  0  0  0  0  0  0  0  0  0
  -29.2417  -24.5649   17.6959 C   0  0  0  0  0  0  0  0  0  0  0  0
  -27.3465  -24.3781   16.6292 C   0  0  0  0  0  0  0  0  0  0  0  0
  -21.8535  -17.9675   21.6477 C   0  0  0  0  0  0  0  0  0  0  0  0
  -21.0426  -15.6524   22.1287 C   0  0  0  0  0  0  0  0  0  0  0  0
  -22.8821  -28.8735   22.3223 C   0  0  0  0  0  0  0  0  0  0  0  0
  -24.1242  -31.7020   23.3117 C   0  0  0  0  0  0  0  0  0  0  0  0
  -26.8686  -33.7032   23.6439 C   0  0  0  0  0  0  0  0  0  0  0  0
  -24.5101  -22.0634   18.2324 C   0  0  0  0  0  0  0  0  0  0  0  0
  -17.8803  -28.2143   23.1001 C   0  0  0  0  0  0  0  0  0  0  0  0
  -24.8146  -28.1038   23.7467 C   0  0  0  0  0  0  0  0  0  0  0  0
  -28.7378  -22.2768   17.6442 C   0  0  0  0  0  0  0  0  0  0  0  0
  -25.6145  -30.2539   21.8808 C   0  0  0  0  0  0  0  0  0  0  0  0
  -30.4017  -24.0313   18.4180 C   0  0  0  0  0  0  0  0  0  0  0  0
  -18.7892  -29.3994   22.7844 C   0  0  0  0  0  0  0  0  0  0  0  0
  -29.9207  -22.5531   18.6459 C   0  0  0  0  0  0  0  0  0  0  0  0
  -24.2900  -22.0569   21.9154 C   0  0  0  0  0  0  0  0  0  0  0  0
  -19.7126  -29.0678   21.6164 C   0  0  0  0  0  0  0  0  0  0  0  0
  -23.9481  -20.5947   22.1862 C   0  0  0  0  0  0  0  0  0  0  0  0
  -25.2010  -22.2170   20.6990 C   0  0  0  0  0  0  0  0  0  0  0  0
  -24.3230  -20.1079   19.7372 C   0  0  0  0  0  0  0  0  0  0  0  0
  -20.6282  -27.8854   21.9555 C   0  0  1  0  0  0  0  0  0  0  0  0
  -23.8718  -29.2485   23.3889 C   0  0  1  0  0  0  0  0  0  0  0  0
  -23.3682  -19.9311   20.9278 C   0  0  1  0  0  0  0  0  0  0  0  0
  -27.5642  -35.9742   24.4541 C   0  0  0  0  0  0  0  0  0  0  0  0
  -22.9355  -32.9600   20.7989 C   0  0  0  0  0  0  0  0  0  0  0  0
  -24.4283  -34.9361   21.1662 C   0  0  0  0  0  0  0  0  0  0  0  0
  -22.7035  -34.3446   22.8685 C   0  0  0  0  0  0  0  0  0  0  0  0
  -28.6835  -32.5496   25.6771 C   0  0  0  0  0  0  0  0  0  0  0  0
  -26.1219  -23.8884   15.9778 C   0  0  0  0  0  0  0  0  0  0  0  0
  -29.4479  -27.1208   17.5472 C   0  0  0  0  0  0  0  0  0  0  0  0
  -24.8413  -24.0682   16.8171 C   0  0  0  0  0  0  0  0  0  0  0  0
  -28.7699  -27.9077   18.6636 C   0  0  0  0  0  0  0  0  0  1  0  0
  -24.7569  -32.8896   22.6273 C   0  0  1  0  0  0  0  0  0  0  0  0
  -27.3920  -34.5081   24.8198 C   0  0  2  0  0  0  0  0  0  0  0  0
  -23.7170  -33.7564   21.8628 C   0  0  0  0  0  0  0  0  0  0  0  0
  -23.9481  -17.5341   20.8913 N   0  0  0  0  0  0  0  0  0  0  0  0
  -27.6184  -25.6964   16.6471 N   0  0  0  0  0  0  0  0  0  0  0  0
  -28.7977  -25.7787   17.3143 N   0  0  0  0  0  0  0  0  0  0  0  0
  -23.0261  -18.4720   21.1674 N   0  0  0  0  0  0  0  0  0  0  0  0
  -24.5816  -30.4378   22.9136 N   0  0  0  0  0  0  0  0  0  0  0  0
  -24.6591  -21.5207   19.5215 N   0  0  0  0  0  0  0  0  0  0  0  0
  -20.8200  -18.7715   21.9762 N   0  0  0  0  0  0  0  0  0  0  0  0
  -21.3778  -14.2918   22.1056 N   0  0  0  0  0  0  0  0  0  0  0  0
  -21.7149  -28.3162   22.8087 N   0  0  0  0  0  0  0  0  0  0  0  0
  -25.4929  -33.6113   23.6598 N   0  0  0  0  0  0  0  0  0  0  0  0
  -24.9260  -23.3811   18.0781 N   0  0  0  0  0  0  0  0  0  0  0  0
  -28.7112  -33.9767   25.2650 N   0  3  0  0  0  0  0  0  0  0  0  0
  -19.8999  -15.9967   22.5152 O   0  0  0  0  0  0  0  0  0  0  0  0
  -23.1565  -29.0762   21.1453 O   0  0  0  0  0  0  0  0  0  0  0  0
  -23.2612  -31.8894   24.1730 O   0  0  0  0  0  0  0  0  0  0  0  0
  -27.6061  -33.2089   22.7940 O   0  0  0  0  0  0  0  0  0  0  0  0
  -24.0458  -21.4204   17.2845 O   0  0  0  0  0  0  0  0  0  0  0  0
  -25.9551  -11.4980   20.5959 O   0  0  0  0  0  0  0  0  0  0  0  0
  -28.8584  -27.1807   19.8883 O   0  0  0  0  0  0  0  0  0  1  0  0
  -23.1523   -7.3609   18.2651 F   0  0  0  0  0  0  0  0  0  0  0  0
  -23.6210  -10.5483   21.7330 F   0  0  0  0  0  0  0  0  0  0  0  0
  1  2  1  0  0  0  0
  1  5  2  0  0  0  0
  2  6  2  0  0  0  0
  3  8  2  0  0  0  0
  3 15  1  0  0  0  0
  4  9  1  0  0  0  0
  4 15  2  0  0  0  0
  5 17  1  0  0  0  0
  6 19  1  0  0  0  0
  7 10  2  0  0  0  0
  7 18  1  0  0  0  0
  8 22  1  0  0  0  0
  9 22  2  0  0  0  0
 10 23  1  0  0  0  0
 11 12  2  0  0  0  0
 11 24  1  0  0  0  0
 12 25  1  0  0  0  0
 13 20  1  0  0  0  0
 13 23  2  0  0  0  0
 14 25  2  0  0  0  0
 14 26  1  0  0  0  0
 15 27  1  0  0  0  0
 16 27  1  0  0  0  0
 16 30  2  0  0  0  0
 16 31  1  0  0  0  0
 17 19  2  0  0  0  0
 17 36  1  0  0  0  0
 18 20  2  0  0  0  0
 18 37  1  0  0  0  0
 19 48  1  0  0  0  0
 20 39  1  0  0  0  0
 21 28  2  0  0  0  0
 21 29  1  0  0  0  0
 21 38  1  0  0  0  0
 22 80  1  0  0  0  0
 23 81  1  0  0  0  0
 24 26  2  0  0  0  0
 24 80  1  0  0  0  0
 25 82  1  0  0  0  0
 26 83  1  0  0  0  0
 27 63  2  0  0  0  0
 28 40  1  0  0  0  0
 28 65  1  0  0  0  0
 29 56  1  0  0  0  0
 29 64  2  0  0  0  0
 30 66  1  0  0  0  0
 30 69  1  0  0  0  0
 31 70  1  0  0  0  0
 31 75  2  0  0  0  0
 32 49  1  0  0  0  0
 32 71  1  0  0  0  0
 32 76  2  0  0  0  0
 33 60  1  0  0  0  0
 33 67  1  0  0  0  0
 33 77  2  0  0  0  0
 34 61  1  0  0  0  0
 34 72  1  0  0  0  0
 34 78  2  0  0  0  0
 35 68  1  0  0  0  0
 35 73  1  0  0  0  0
 35 79  2  0  0  0  0
 36 41  1  0  0  0  0
 37 49  1  0  0  0  0
 38 42  1  0  0  0  0
 39 67  1  0  0  0  0
 40 42  1  0  0  0  0
 41 44  1  0  0  0  0
 43 45  1  0  0  0  0
 43 46  1  0  0  0  0
 44 48  1  0  0  0  0
 45 50  1  0  0  0  0
 46 68  1  0  0  0  0
 47 50  1  0  0  0  0
 47 68  1  0  0  0  0
 48 71  1  0  0  0  0
 49 67  1  0  0  0  0
 50 66  1  0  0  0  0
 51 61  1  0  0  0  0
 52 62  1  0  0  0  0
 53 62  1  0  0  0  0
 54 62  1  0  0  0  0
 55 74  1  0  0  0  0
 56 58  1  0  0  0  0
 57 59  1  0  0  0  0
 57 65  1  0  0  0  0
 58 73  1  0  0  0  0
 59 81  1  0  0  0  0
 60 62  1  0  0  0  0
 60 72  1  0  0  0  0
 61 74  1  0  0  0  0
 63 66  1  0  0  0  0
 64 65  1  0  0  0  0
M  CHG  1  74   1
M  ISO  4  35 100  59 101  73 100  81 101
M  END
> <Batch ID>
0183

> <Smiles>
CNC(C)C(=O)NC(C(=O)N1Cc2cc([101O:1][101CH2:1]Cn3nc(CC[100NH:0][100C:0](=O)N4CCCC(n5nc(-c6ccc(Oc7ccc(F)cc7F)cc6)c(C(N)=O)c5N)C4)c4c3CCC4)ccc2CC1C(=O)NC1CCCc2ccccc21)C(C)(C)C

> <Shape>
0.217

> <Color>
0.086

> <Negative vol penalty>
0.000

$$$$

  -OEChem-04052323073D

 86 95  0     1  0  0  0  0  0999 V2000
  -43.9504  -23.2284   23.8113 C   0  0  0  0  0  0  0  0  0  0  0  0
  -42.5910  -22.9615   23.6833 C   0  0  0  0  0  0  0  0  0  0  0  0
  -23.0148   -9.8928   19.9701 C   0  0  0  0  0  0  0  0  0  0  0  0
  -23.6528   -9.9634   22.2993 C   0  0  0  0  0  0  0  0  0  0  0  0
  -44.5491  -24.1941   23.0033 C   0  0  0  0  0  0  0  0  0  0  0  0
  -41.8293  -23.6610   22.7480 C   0  0  0  0  0  0  0  0  0  0  0  0
  -38.7300  -20.6413   20.1174 C   0  0  0  0  0  0  0  0  0  0  0  0
  -22.2212   -8.7736   20.2214 C   0  0  0  0  0  0  0  0  0  0  0  0
  -22.8591   -8.8442   22.5506 C   0  0  0  0  0  0  0  0  0  0  0  0
  -37.5589  -20.2251   20.7491 C   0  0  0  0  0  0  0  0  0  0  0  0
  -23.0691   -5.4960   22.1307 C   0  0  0  0  0  0  0  0  0  0  0  0
  -23.6118   -4.4801   22.9174 C   0  0  0  0  0  0  0  0  0  0  0  0
  -36.3211  -21.9172   19.5558 C   0  0  0  0  0  0  0  0  0  0  0  0
  -30.7994  -19.6810   23.0608 C   0  0  0  0  0  0  0  0  0  0  0  0
  -21.8297   -4.7712   24.5225 C   0  0  0  0  0  0  0  0  0  0  0  0
  -23.7307  -10.4877   21.0091 C   0  0  0  0  0  0  0  0  0  0  0  0
  -24.1615  -12.9946   20.8160 C   0  0  0  0  0  0  0  0  0  0  0  0
  -43.7963  -24.8990   22.0508 C   0  0  0  0  0  0  0  0  0  0  0  0
  -38.7072  -21.7074   19.2068 C   0  0  0  0  0  0  0  0  0  0  0  0
  -42.4182  -24.6380   21.9274 C   0  0  0  0  0  0  0  0  0  0  0  0
  -37.4928  -22.3433   18.9120 C   0  0  0  0  0  0  0  0  0  0  0  0
  -31.2589  -18.9191   21.9923 C   0  0  0  0  0  0  0  0  0  0  0  0
  -32.3154  -19.3844   21.2174 C   0  0  0  0  0  0  0  0  0  0  0  0
  -22.1433   -8.2493   21.5116 C   0  0  0  0  0  0  0  0  0  0  0  0
  -36.3547  -20.8650   20.4706 C   0  0  0  0  0  0  0  0  0  0  0  0
  -21.9067   -6.1496   22.5399 C   0  0  0  0  0  0  0  0  0  0  0  0
  -22.9921   -4.1177   24.1134 C   0  0  0  0  0  0  0  0  0  0  0  0
  -21.2870   -5.7871   23.7358 C   0  0  0  0  0  0  0  0  0  0  0  0
  -24.5512  -11.6434   20.7500 C   0  0  0  0  0  0  0  0  0  0  0  0
  -31.4255  -20.8915   23.3108 C   0  0  0  0  0  0  0  0  0  0  0  0
  -32.8735  -20.6083   21.5498 C   0  0  0  0  0  0  0  0  0  0  0  0
  -25.2954  -13.6955   20.4851 C   0  0  0  0  0  0  0  0  0  0  0  0
  -22.8885  -13.5651   21.1470 C   0  0  0  0  0  0  0  0  0  0  0  0
  -40.0600  -24.5812   19.0834 C   0  0  0  0  0  0  0  0  0  0  0  0
  -38.7333  -24.6492   16.1241 C   0  0  0  0  0  0  0  0  0  0  0  0
  -36.3182  -23.4993   14.0046 C   0  0  0  0  0  0  0  0  0  0  0  0
  -30.7755  -14.5309   20.9181 C   0  0  0  0  0  0  0  0  0  0  0  0
  -44.4778  -25.9671   21.2327 C   0  0  0  0  0  0  0  0  0  0  0  0
  -39.9746  -22.1268   18.5136 C   0  0  0  0  0  0  0  0  0  0  0  0
  -37.4113  -23.4797   17.9269 C   0  0  0  0  0  0  0  0  0  0  0  0
  -43.6773  -26.3990   20.0068 C   0  0  0  0  0  0  0  0  0  0  0  0
  -29.6930  -12.1516   18.5597 C   0  0  0  0  0  0  0  0  0  0  0  0
  -42.2182  -26.6410   20.3802 C   0  0  0  0  0  0  0  0  0  0  0  0
  -28.2353  -11.8917   18.9316 C   0  0  0  0  0  0  0  0  0  0  0  0
  -31.1615  -16.6211   23.9623 C   0  0  0  0  0  0  0  0  0  0  0  0
  -30.5466  -12.3332   19.8080 C   0  0  0  0  0  0  0  0  0  0  0  0
  -28.6079  -13.2123   21.0778 C   0  0  0  0  0  0  0  0  0  0  0  0
  -30.2651  -14.4861   23.4156 C   0  0  0  0  0  0  0  0  0  0  0  0
  -41.5636  -25.3583   20.9072 C   0  0  1  0  0  0  0  0  0  0  0  0
  -39.9237  -23.5590   17.9906 C   0  0  1  0  0  0  0  0  0  0  0  0
  -27.7006  -13.0040   19.8478 C   0  0  2  0  0  0  0  0  0  0  0  0
  -31.1387  -15.1796   24.4464 C   0  0  2  0  0  0  0  0  0  0  0  0
  -31.2635  -16.4522   22.4403 C   0  0  2  0  0  0  0  0  0  0  0  0
  -32.8310  -18.5876   20.0665 C   0  0  0  0  0  0  0  0  0  0  0  0
  -30.9598  -21.7351   24.4503 C   0  0  0  0  0  0  0  0  0  0  0  0
  -35.4642  -23.7675   11.6602 C   0  0  0  0  0  0  0  0  0  0  0  0
  -37.4425  -27.3028   16.9004 C   0  0  0  0  0  0  0  0  0  0  0  0
  -35.8945  -27.0405   14.9503 C   0  0  0  0  0  0  0  0  0  0  0  0
  -38.3531  -27.2272   14.5724 C   0  0  0  0  0  0  0  0  0  0  0  0
  -36.8474  -20.6590   13.3632 C   0  0  0  0  0  0  0  0  0  0  0  0
  -30.5959  -17.6006   21.6951 C   0  0  0  0  0  0  0  0  0  0  0  0
  -34.0120  -21.1598   20.7553 C   0  0  0  0  0  0  0  0  0  1  0  0
  -37.4085  -25.0985   15.5565 C   0  0  1  0  0  0  0  0  0  0  0  0
  -36.3913  -22.9858   12.5780 C   0  0  2  0  0  0  0  0  0  0  0  0
  -37.2762  -26.6471   15.5150 C   0  0  0  0  0  0  0  0  0  0  0  0
  -25.8324  -11.4926   20.4041 N   0  0  0  0  0  0  0  0  0  0  0  0
  -32.4544  -21.3765   22.5803 N   0  0  0  0  0  0  0  0  0  0  0  0
  -26.2577  -12.7580   20.2497 N   0  0  0  0  0  0  0  0  0  0  0  0
  -38.6787  -23.8573   17.2798 N   0  0  0  0  0  0  0  0  0  0  0  0
  -30.0119  -13.3812   20.6789 N   0  0  0  0  0  0  0  0  0  0  0  0
  -30.6330  -15.1525   22.1613 N   0  0  0  0  0  0  0  0  0  0  0  0
  -25.5532  -15.0160   20.3752 N   0  0  0  0  0  0  0  0  0  0  0  0
  -21.8308  -12.7013   21.4621 N   0  0  0  0  0  0  0  0  0  0  0  0
  -41.2298  -24.4741   19.8112 N   0  0  0  0  0  0  0  0  0  0  0  0
  -37.2823  -24.4529   14.2543 N   0  0  0  0  0  0  0  0  0  0  0  0
  -30.5637  -15.0760   25.7978 N   0  3  0  0  0  0  0  0  0  0  0  0
  -36.0030  -21.5480   12.5244 N   0  3  0  0  0  0  0  0  0  0  0  0
  -22.6903  -14.8038   21.1468 O   0  0  0  0  0  0  0  0  0  0  0  0
  -39.1705  -25.4069   19.2527 O   0  0  0  0  0  0  0  0  0  0  0  0
  -39.7777  -24.9825   15.5587 O   0  0  0  0  0  0  0  0  0  0  0  0
  -35.4864  -23.0976   14.8154 O   0  0  0  0  0  0  0  0  0  0  0  0
  -31.5691  -14.9652   20.0730 O   0  0  0  0  0  0  0  0  0  0  0  0
  -21.3687   -7.1574   21.7572 O   0  0  0  0  0  0  0  0  0  0  0  0
  -35.2020  -20.4584   21.0907 O   0  0  0  0  0  0  0  0  0  1  0  0
  -23.5125   -3.1410   24.8680 F   0  0  0  0  0  0  0  0  0  0  0  0
  -20.1694   -6.4105   24.1335 F   0  0  0  0  0  0  0  0  0  0  0  0
  1  2  1  0  0  0  0
  1  5  2  0  0  0  0
  2  6  2  0  0  0  0
  3  8  2  0  0  0  0
  3 16  1  0  0  0  0
  4  9  1  0  0  0  0
  4 16  2  0  0  0  0
  5 18  1  0  0  0  0
  6 20  1  0  0  0  0
  7 10  2  0  0  0  0
  7 19  1  0  0  0  0
  8 24  1  0  0  0  0
  9 24  2  0  0  0  0
 10 25  1  0  0  0  0
 11 12  2  0  0  0  0
 11 26  1  0  0  0  0
 12 27  1  0  0  0  0
 13 21  1  0  0  0  0
 13 25  2  0  0  0  0
 14 22  2  0  0  0  0
 14 30  1  0  0  0  0
 15 27  2  0  0  0  0
 15 28  1  0  0  0  0
 16 29  1  0  0  0  0
 17 29  1  0  0  0  0
 17 32  2  0  0  0  0
 17 33  1  0  0  0  0
 18 20  2  0  0  0  0
 18 38  1  0  0  0  0
 19 21  2  0  0  0  0
 19 39  1  0  0  0  0
 20 49  1  0  0  0  0
 21 40  1  0  0  0  0
 22 23  1  0  0  0  0
 22 61  1  0  0  0  0
 23 31  2  0  0  0  0
 23 54  1  0  0  0  0
 24 83  1  0  0  0  0
 25 84  1  0  0  0  0
 26 28  2  0  0  0  0
 26 83  1  0  0  0  0
 27 85  1  0  0  0  0
 28 86  1  0  0  0  0
 29 66  2  0  0  0  0
 30 55  1  0  0  0  0
 30 67  2  0  0  0  0
 31 62  1  0  0  0  0
 31 67  1  0  0  0  0
 32 68  1  0  0  0  0
 32 72  1  0  0  0  0
 33 73  1  0  0  0  0
 33 78  2  0  0  0  0
 34 50  1  0  0  0  0
 34 74  1  0  0  0  0
 34 79  2  0  0  0  0
 35 63  1  0  0  0  0
 35 69  1  0  0  0  0
 35 80  2  0  0  0  0
 36 64  1  0  0  0  0
 36 75  1  0  0  0  0
 36 81  2  0  0  0  0
 37 70  1  0  0  0  0
 37 71  1  0  0  0  0
 37 82  2  0  0  0  0
 38 41  1  0  0  0  0
 39 50  1  0  0  0  0
 40 69  1  0  0  0  0
 41 43  1  0  0  0  0
 42 44  1  0  0  0  0
 42 46  1  0  0  0  0
 43 49  1  0  0  0  0
 44 51  1  0  0  0  0
 45 52  1  0  0  0  0
 45 53  1  0  0  0  0
 46 70  1  0  0  0  0
 47 51  1  0  0  0  0
 47 70  1  0  0  0  0
 48 52  1  0  0  0  0
 48 71  1  0  0  0  0
 49 74  1  0  0  0  0
 50 69  1  0  0  0  0
 51 68  1  0  0  0  0
 52 76  1  0  0  0  0
 53 61  1  0  0  0  0
 53 71  1  0  0  0  0
 56 64  1  0  0  0  0
 57 65  1  0  0  0  0
 58 65  1  0  0  0  0
 59 65  1  0  0  0  0
 60 77  1  0  0  0  0
 62 84  1  0  0  0  0
 63 65  1  0  0  0  0
 63 75  1  0  0  0  0
 64 77  1  0  0  0  0
 66 68  1  0  0  0  0
M  CHG  2  76   1  77   1
M  ISO  4  37 100  62 101  71 100  84 101
M  END
> <Batch ID>
0183

> <Smiles>
CNC(C)C(=O)NC(C(=O)N1Cc2cc([101O:1][101CH2:1]c3nc(C)cc(CC4CC(N)C[100N:0]4[100C:0](=O)N4CCCC(n5nc(-c6ccc(Oc7ccc(F)cc7F)cc6)c(C(N)=O)c5N)C4)c3C)ccc2CC1C(=O)NC1CCCc2ccccc21)C(C)(C)C

> <Shape>
0.174

> <Color>
0.191

> <Negative vol penalty>
0.000

$$$$

  -OEChem-04052323073D

 80 89  0     1  0  0  0  0  0999 V2000
  -27.7526  -36.8489   17.5120 C   0  0  0  0  0  0  0  0  0  0  0  0
  -28.1881  -35.5293   17.4457 C   0  0  0  0  0  0  0  0  0  0  0  0
  -23.6146  -10.0229   22.2856 C   0  0  0  0  0  0  0  0  0  0  0  0
  -23.3792   -9.7687   19.8945 C   0  0  0  0  0  0  0  0  0  0  0  0
  -27.0198  -37.2853   18.6150 C   0  0  0  0  0  0  0  0  0  0  0  0
  -27.8919  -34.6456   18.4828 C   0  0  0  0  0  0  0  0  0  0  0  0
  -26.4529  -27.7321   19.6867 C   0  0  0  0  0  0  0  0  0  0  0  0
  -22.7317   -8.9618   22.4854 C   0  0  0  0  0  0  0  0  0  0  0  0
  -22.4962   -8.7075   20.0943 C   0  0  0  0  0  0  0  0  0  0  0  0
  -26.8710  -26.6680   20.4846 C   0  0  0  0  0  0  0  0  0  0  0  0
  -22.8331   -5.5836   22.3819 C   0  0  0  0  0  0  0  0  0  0  0  0
  -23.1796   -4.6220   23.3310 C   0  0  0  0  0  0  0  0  0  0  0  0
  -25.5303  -27.5127   22.3034 C   0  0  0  0  0  0  0  0  0  0  0  0
  -21.1678   -5.1219   24.5720 C   0  0  0  0  0  0  0  0  0  0  0  0
  -23.9384  -10.4264   20.9901 C   0  0  0  0  0  0  0  0  0  0  0  0
  -26.2499  -11.4515   20.6526 C   0  0  0  0  0  0  0  0  0  0  0  0
  -26.7062  -36.4040   19.6616 C   0  0  0  0  0  0  0  0  0  0  0  0
  -25.5774  -28.7021   20.1956 C   0  0  0  0  0  0  0  0  0  0  0  0
  -27.1554  -35.0709   19.6014 C   0  0  0  0  0  0  0  0  0  0  0  0
  -25.1005  -28.5868   21.5091 C   0  0  0  0  0  0  0  0  0  0  0  0
  -22.1725   -8.3041   21.3898 C   0  0  0  0  0  0  0  0  0  0  0  0
  -26.4120  -26.5597   21.7941 C   0  0  0  0  0  0  0  0  0  0  0  0
  -21.6540   -6.3145   22.5279 C   0  0  0  0  0  0  0  0  0  0  0  0
  -22.3470   -4.3911   24.4260 C   0  0  0  0  0  0  0  0  0  0  0  0
  -20.8214   -6.0836   23.6229 C   0  0  0  0  0  0  0  0  0  0  0  0
  -24.8500  -11.5229   20.7831 C   0  0  0  0  0  0  0  0  0  0  0  0
  -26.6450  -12.7548   20.4743 C   0  0  0  0  0  0  0  0  0  0  0  0
  -27.1156  -10.3093   20.6893 C   0  0  0  0  0  0  0  0  0  0  0  0
  -25.7504  -31.8354   20.7017 C   0  0  0  0  0  0  0  0  0  0  0  0
  -22.6144  -31.4927   21.4569 C   0  0  0  0  0  0  0  0  0  0  0  0
  -20.0959  -29.4470   22.5149 C   0  0  0  0  0  0  0  0  0  0  0  0
  -26.2169  -18.0350   22.2711 C   0  0  0  0  0  0  0  0  0  0  0  0
  -25.9521  -36.9338   20.8555 C   0  0  0  0  0  0  0  0  0  0  0  0
  -25.1148  -29.8292   19.3135 C   0  0  0  0  0  0  0  0  0  0  0  0
  -24.1436  -29.5906   22.0964 C   0  0  0  0  0  0  0  0  0  0  0  0
  -25.3590  -35.8376   21.7369 C   0  0  0  0  0  0  0  0  0  0  0  0
  -23.9417  -16.9272   19.5598 C   0  0  0  0  0  0  0  0  0  0  0  0
  -26.3928  -34.7475   22.0013 C   0  0  0  0  0  0  0  0  0  0  0  0
  -24.0685  -15.4067   19.6641 C   0  0  0  0  0  0  0  0  0  0  0  0
  -26.8698  -21.1817   20.4869 C   0  0  0  0  0  0  0  0  0  0  0  0
  -28.6837  -24.3878   23.5940 C   0  0  0  0  0  0  0  0  0  0  0  0
  -24.1254  -17.5840   20.9217 C   0  0  0  0  0  0  0  0  0  0  0  0
  -26.0136  -19.9206   20.5456 C   0  0  0  0  0  0  0  0  0  0  0  0
  -25.5447  -15.7278   21.7072 C   0  0  0  0  0  0  0  0  0  0  0  0
  -26.9194  -20.3684   22.7269 C   0  0  0  0  0  0  0  0  0  0  0  0
  -27.9890  -23.0436   23.6778 C   0  0  0  0  0  0  0  0  0  0  0  0
  -28.0166  -23.8158   21.3534 C   0  0  0  0  0  0  0  0  0  0  0  0
  -26.8328  -34.0758   20.6949 C   0  0  1  0  0  0  0  0  0  0  0  0
  -24.6256  -31.0414   20.1001 C   0  0  1  0  0  0  0  0  0  0  0  0
  -25.3821  -15.0039   20.3588 C   0  0  1  0  0  0  0  0  0  0  0  0
  -26.8203  -21.6571   21.9313 C   0  0  1  0  0  0  0  0  0  0  0  0
  -28.1170  -24.9868   22.3184 C   0  0  1  0  0  0  0  0  0  1  0  0
  -17.6495  -29.4615   23.0735 C   0  0  0  0  0  0  0  0  0  0  0  0
  -23.2299  -32.8768   24.1056 C   0  0  0  0  0  0  0  0  0  0  0  0
  -21.0440  -32.0243   24.9791 C   0  0  0  0  0  0  0  0  0  0  0  0
  -21.0844  -33.5841   23.0328 C   0  0  0  0  0  0  0  0  0  0  0  0
  -19.4823  -27.4715   20.3984 C   0  0  0  0  0  0  0  0  0  0  0  0
  -21.8457  -31.1934   22.7213 C   0  0  1  0  0  0  0  0  0  0  0  0
  -18.6891  -29.2265   21.9888 C   0  0  2  0  0  0  0  0  0  0  0  0
  -21.8205  -32.4016   23.6996 C   0  0  0  0  0  0  0  0  0  0  0  0
  -24.3870  -12.7727   20.6953 N   0  0  0  0  0  0  0  0  0  0  0  0
  -25.5023  -13.4987   20.5078 N   0  0  0  0  0  0  0  0  0  0  0  0
  -23.7254  -30.6781   21.1964 N   0  0  0  0  0  0  0  0  0  0  0  0
  -25.3888  -17.1746   21.5414 N   0  0  0  0  0  0  0  0  0  0  0  0
  -26.2567  -19.3739   21.8847 N   0  0  0  0  0  0  0  0  0  0  0  0
  -27.8549  -13.3256   20.2937 N   0  0  0  0  0  0  0  0  0  0  0  0
  -26.5444   -9.0438   20.8809 N   0  0  0  0  0  0  0  0  0  0  0  0
  -25.8268  -33.1375   20.2454 N   0  0  0  0  0  0  0  0  0  0  0  0
  -20.5254  -30.7393   22.2985 N   0  0  0  0  0  0  0  0  0  0  0  0
  -27.9373  -22.5664   22.2353 N   0  3  2  0  0  0  0  0  0  0  0  0
  -18.5368  -27.8318   21.4861 N   0  3  0  0  0  0  0  0  0  0  0  0
  -28.3606  -10.4096   20.5725 O   0  0  0  0  0  0  0  0  0  0  0  0
  -26.4930  -31.3064   21.5205 O   0  0  0  0  0  0  0  0  0  0  0  0
  -22.2386  -32.4108   20.7237 O   0  0  0  0  0  0  0  0  0  0  0  0
  -20.7472  -28.5625   23.0662 O   0  0  0  0  0  0  0  0  0  0  0  0
  -26.9264  -17.6165   23.1955 O   0  0  0  0  0  0  0  0  0  0  0  0
  -21.3111   -7.2684   21.5844 O   0  0  0  0  0  0  0  0  0  0  0  0
  -26.8218  -25.5156   22.5803 O   0  0  0  0  0  0  0  0  0  1  0  0
  -22.6790   -3.4665   25.3365 F   0  0  0  0  0  0  0  0  0  0  0  0
  -19.6868   -6.7818   23.7679 F   0  0  0  0  0  0  0  0  0  0  0  0
  1  2  1  0  0  0  0
  1  5  2  0  0  0  0
  2  6  2  0  0  0  0
  3  8  2  0  0  0  0
  3 15  1  0  0  0  0
  4  9  1  0  0  0  0
  4 15  2  0  0  0  0
  5 17  1  0  0  0  0
  6 19  1  0  0  0  0
  7 10  2  0  0  0  0
  7 18  1  0  0  0  0
  8 21  1  0  0  0  0
  9 21  2  0  0  0  0
 10 22  1  0  0  0  0
 11 12  2  0  0  0  0
 11 23  1  0  0  0  0
 12 24  1  0  0  0  0
 13 20  1  0  0  0  0
 13 22  2  0  0  0  0
 14 24  2  0  0  0  0
 14 25  1  0  0  0  0
 15 26  1  0  0  0  0
 16 26  1  0  0  0  0
 16 27  2  0  0  0  0
 16 28  1  0  0  0  0
 17 19  2  0  0  0  0
 17 33  1  0  0  0  0
 18 20  2  0  0  0  0
 18 34  1  0  0  0  0
 19 48  1  0  0  0  0
 20 35  1  0  0  0  0
 21 77  1  0  0  0  0
 22 78  1  0  0  0  0
 23 25  2  0  0  0  0
 23 77  1  0  0  0  0
 24 79  1  0  0  0  0
 25 80  1  0  0  0  0
 26 61  2  0  0  0  0
 27 62  1  0  0  0  0
 27 66  1  0  0  0  0
 28 67  1  0  0  0  0
 28 72  2  0  0  0  0
 29 49  1  0  0  0  0
 29 68  1  0  0  0  0
 29 73  2  0  0  0  0
 30 58  1  0  0  0  0
 30 63  1  0  0  0  0
 30 74  2  0  0  0  0
 31 59  1  0  0  0  0
 31 69  1  0  0  0  0
 31 75  2  0  0  0  0
 32 64  1  0  0  0  0
 32 65  1  0  0  0  0
 32 76  2  0  0  0  0
 33 36  1  0  0  0  0
 34 49  1  0  0  0  0
 35 63  1  0  0  0  0
 36 38  1  0  0  0  0
 37 39  1  0  0  0  0
 37 42  1  0  0  0  0
 38 48  1  0  0  0  0
 39 50  1  0  0  0  0
 40 43  1  0  0  0  0
 40 51  1  0  0  0  0
 41 46  1  0  0  0  0
 41 52  1  0  0  0  0
 42 64  1  0  0  0  0
 43 65  1  0  0  0  0
 44 50  1  0  0  0  0
 44 64  1  0  0  0  0
 45 51  1  0  0  0  0
 45 65  1  0  0  0  0
 46 70  1  0  0  0  0
 47 52  1  0  0  0  0
 47 70  1  0  0  0  0
 48 68  1  0  0  0  0
 49 63  1  0  0  0  0
 50 62  1  0  0  0  0
 51 70  1  0  0  0  0
 52 78  1  0  0  0  0
 53 59  1  0  0  0  0
 54 60  1  0  0  0  0
 55 60  1  0  0  0  0
 56 60  1  0  0  0  0
 57 71  1  0  0  0  0
 58 60  1  0  0  0  0
 58 69  1  0  0  0  0
 59 71  1  0  0  0  0
 61 62  1  0  0  0  0
M  CHG  2  70   1  71   1
M  ISO  4  32 100  52 101  65 100  78 101
M  END
> <Batch ID>
0183

> <Smiles>
CNC(C)C(=O)NC(C(=O)N1Cc2cc([101O:1][101CH:1]3CCN(C4CC[100N:0]([100C:0](=O)N5CCCC(n6nc(-c7ccc(Oc8ccc(F)cc8F)cc7)c(C(N)=O)c6N)C5)C4)C3)ccc2CC1C(=O)NC1CCCc2ccccc21)C(C)(C)C

> <Shape>
0.236

> <Color>
0.091

> <Negative vol penalty>
0.000

$$$$

  -OEChem-04052323073D

 83 92  0     1  0  0  0  0  0999 V2000
  -17.6677  -25.9441   22.2186 C   0  0  0  0  0  0  0  0  0  0  0  0
  -18.7279  -26.2858   21.3852 C   0  0  0  0  0  0  0  0  0  0  0  0
  -26.8533  -13.0071   22.6301 C   0  0  0  0  0  0  0  0  0  0  0  0
  -26.3833  -12.7365   20.2758 C   0  0  0  0  0  0  0  0  0  0  0  0
  -17.1449  -26.8877   23.1020 C   0  0  0  0  0  0  0  0  0  0  0  0
  -19.2652  -27.5716   21.4338 C   0  0  0  0  0  0  0  0  0  0  0  0
  -24.3293  -27.5619   21.4459 C   0  0  0  0  0  0  0  0  0  0  0  0
  -25.6823  -12.3169   22.9432 C   0  0  0  0  0  0  0  0  0  0  0  0
  -25.2124  -12.0462   20.5889 C   0  0  0  0  0  0  0  0  0  0  0  0
  -24.9685  -27.3488   20.2254 C   0  0  0  0  0  0  0  0  0  0  0  0
  -24.3470   -8.9324   21.5769 C   0  0  0  0  0  0  0  0  0  0  0  0
  -24.0782   -7.7610   20.8690 C   0  0  0  0  0  0  0  0  0  0  0  0
  -25.3420  -29.7225   20.0134 C   0  0  0  0  0  0  0  0  0  0  0  0
  -22.0166   -8.7246   20.0575 C   0  0  0  0  0  0  0  0  0  0  0  0
  -28.7790  -26.0639   19.1311 C   0  0  0  0  0  0  0  0  0  0  0  0
  -27.0051  -26.3375   17.1548 C   0  0  0  0  0  0  0  0  0  0  0  0
  -27.2037  -13.2170   21.2964 C   0  0  0  0  0  0  0  0  0  0  0  0
  -29.6960  -13.3847   20.7787 C   0  0  0  0  0  0  0  0  0  0  0  0
  -17.6823  -28.1828   23.1683 C   0  0  0  0  0  0  0  0  0  0  0  0
  -24.1817  -28.8602   21.9550 C   0  0  0  0  0  0  0  0  0  0  0  0
  -18.7482  -28.5338   22.3179 C   0  0  0  0  0  0  0  0  0  0  0  0
  -24.7028  -29.9492   21.2418 C   0  0  0  0  0  0  0  0  0  0  0  0
  -24.8619  -11.8364   21.9226 C   0  0  0  0  0  0  0  0  0  0  0  0
  -25.4724  -28.4294   19.5075 C   0  0  0  0  0  0  0  0  0  0  0  0
  -23.4506   -9.9999   21.5251 C   0  0  0  0  0  0  0  0  0  0  0  0
  -22.9130   -7.6571   20.1093 C   0  0  0  0  0  0  0  0  0  0  0  0
  -22.2854   -9.8960   20.7654 C   0  0  0  0  0  0  0  0  0  0  0  0
  -28.4129  -13.9305   20.9723 C   0  0  0  0  0  0  0  0  0  0  0  0
  -28.7697  -25.1984   18.0593 C   0  0  0  0  0  0  0  0  0  0  0  0
  -27.0143  -27.2028   18.2266 C   0  0  0  0  0  0  0  0  0  1  0  0
  -30.4908  -14.4683   20.4947 C   0  0  0  0  0  0  0  0  0  0  0  0
  -30.1307  -12.0203   20.8492 C   0  0  0  0  0  0  0  0  0  0  0  0
  -21.7061  -30.7192   22.6754 C   0  0  0  0  0  0  0  0  0  0  0  0
  -24.0158  -32.6863   23.8235 C   0  0  0  0  0  0  0  0  0  0  0  0
  -27.2827  -33.6708   23.7502 C   0  0  0  0  0  0  0  0  0  0  0  0
  -28.8811  -19.8533   18.2762 C   0  0  0  0  0  0  0  0  0  0  0  0
  -17.0529  -29.1828   24.1056 C   0  0  0  0  0  0  0  0  0  0  0  0
  -23.5133  -29.0708   23.2859 C   0  0  0  0  0  0  0  0  0  0  0  0
  -24.5882  -31.3608   21.7545 C   0  0  0  0  0  0  0  0  0  0  0  0
  -17.9239  -30.4102   24.3611 C   0  0  0  0  0  0  0  0  0  0  0  0
  -30.8706  -19.1626   21.3283 C   0  0  0  0  0  0  0  0  0  0  0  0
  -18.4829  -30.9507   23.0487 C   0  0  0  0  0  0  0  0  0  0  0  0
  -30.5346  -17.6918   21.5794 C   0  0  0  0  0  0  0  0  0  0  0  0
  -29.7024  -19.8833   20.6683 C   0  0  0  0  0  0  0  0  0  0  0  0
  -28.9002  -17.7936   19.6362 C   0  0  0  0  0  0  0  0  0  0  0  0
  -28.7881  -22.0807   17.1894 C   0  0  0  0  0  0  0  0  0  0  0  0
  -30.9191  -21.3973   18.0770 C   0  0  0  0  0  0  0  0  0  0  0  0
  -19.3743  -29.9109   22.3589 C   0  0  1  0  0  0  0  0  0  0  0  0
  -22.9644  -30.4832   23.4620 C   0  0  1  0  0  0  0  0  0  0  0  0
  -30.0473  -17.0038   20.2911 C   0  0  2  0  0  0  0  0  0  0  0  0
  -29.7957  -23.2058   16.9625 C   0  0  2  0  0  0  0  0  0  0  0  0
  -31.1192  -22.4421   16.9875 C   0  0  1  0  0  0  0  0  0  0  0  0
  -28.8639  -35.3285   24.7744 C   0  0  0  0  0  0  0  0  0  0  0  0
  -22.8286  -34.8917   22.0810 C   0  0  0  0  0  0  0  0  0  0  0  0
  -24.9472  -36.1874   22.3989 C   0  0  0  0  0  0  0  0  0  0  0  0
  -23.5216  -35.6286   24.3682 C   0  0  0  0  0  0  0  0  0  0  0  0
  -28.9789  -31.5270   24.8843 C   0  0  0  0  0  0  0  0  0  0  0  0
  -24.8571  -33.7987   23.2457 C   0  0  1  0  0  0  0  0  0  0  0  0
  -28.2830  -33.9258   24.8632 C   0  0  2  0  0  0  0  0  0  0  0  0
  -24.0392  -35.1003   23.0126 C   0  0  0  0  0  0  0  0  0  0  0  0
  -27.8827  -25.3197   17.0518 N   0  0  0  0  0  0  0  0  0  0  0  0
  -27.9014  -27.0816   19.2340 N   0  0  0  0  0  0  0  0  0  0  0  0
  -28.3893  -15.2577   20.8240 N   0  0  0  0  0  0  0  0  0  0  0  0
  -29.6675  -15.5550   20.5342 N   0  0  0  0  0  0  0  0  0  0  0  0
  -23.9207  -31.5158   23.0575 N   0  0  0  0  0  0  0  0  0  0  0  0
  -29.2784  -19.1955   19.4457 N   0  0  0  0  0  0  0  0  0  0  0  0
  -29.4922  -21.0713   17.9816 N   0  0  0  0  0  0  0  0  0  0  0  0
  -31.8065  -14.5881   20.2175 N   0  0  0  0  0  0  0  0  0  0  0  0
  -29.1840  -11.0323   21.1525 N   0  0  0  0  0  0  0  0  0  0  0  0
  -29.7044  -24.1788   18.0308 N   0  0  0  0  0  0  0  0  0  0  0  0
  -20.6735  -29.8580   22.9942 N   0  0  0  0  0  0  0  0  0  0  0  0
  -25.9939  -33.9604   24.1457 N   0  0  0  0  0  0  0  0  0  0  0  0
  -32.2753  -23.3075   17.2782 N   0  3  0  0  0  0  0  0  0  0  0  0
  -29.4042  -32.9471   24.7862 N   0  3  0  0  0  0  0  0  0  0  0  0
  -31.3265  -11.6889   20.6654 O   0  0  0  0  0  0  0  0  0  0  0  0
  -21.6739  -31.6171   21.8421 O   0  0  0  0  0  0  0  0  0  0  0  0
  -23.4693  -32.8472   24.9176 O   0  0  0  0  0  0  0  0  0  0  0  0
  -27.6120  -33.2596   22.6398 O   0  0  0  0  0  0  0  0  0  0  0  0
  -28.0539  -19.3513   17.5037 O   0  0  0  0  0  0  0  0  0  0  0  0
  -23.7194  -11.1626   22.2278 O   0  0  0  0  0  0  0  0  0  0  0  0
  -26.1062  -28.2210   18.2967 O   0  0  0  0  0  0  0  0  0  1  0  0
  -22.6557   -6.5326   19.4284 F   0  0  0  0  0  0  0  0  0  0  0  0
  -21.4211  -10.9186   20.7109 F   0  0  0  0  0  0  0  0  0  0  0  0
  1  2  1  0  0  0  0
  1  5  2  0  0  0  0
  2  6  2  0  0  0  0
  3  8  2  0  0  0  0
  3 17  1  0  0  0  0
  4  9  1  0  0  0  0
  4 17  2  0  0  0  0
  5 19  1  0  0  0  0
  6 21  1  0  0  0  0
  7 10  2  0  0  0  0
  7 20  1  0  0  0  0
  8 23  1  0  0  0  0
  9 23  2  0  0  0  0
 10 24  1  0  0  0  0
 11 12  2  0  0  0  0
 11 25  1  0  0  0  0
 12 26  1  0  0  0  0
 13 22  1  0  0  0  0
 13 24  2  0  0  0  0
 14 26  2  0  0  0  0
 14 27  1  0  0  0  0
 15 29  2  0  0  0  0
 15 62  1  0  0  0  0
 16 30  1  0  0  0  0
 16 61  2  0  0  0  0
 17 28  1  0  0  0  0
 18 28  1  0  0  0  0
 18 31  2  0  0  0  0
 18 32  1  0  0  0  0
 19 21  2  0  0  0  0
 19 37  1  0  0  0  0
 20 22  2  0  0  0  0
 20 38  1  0  0  0  0
 21 48  1  0  0  0  0
 22 39  1  0  0  0  0
 23 80  1  0  0  0  0
 24 81  1  0  0  0  0
 25 27  2  0  0  0  0
 25 80  1  0  0  0  0
 26 82  1  0  0  0  0
 27 83  1  0  0  0  0
 28 63  2  0  0  0  0
 29 61  1  0  0  0  0
 29 70  1  0  0  0  0
 30 62  2  0  0  0  0
 30 81  1  0  0  0  0
 31 64  1  0  0  0  0
 31 68  1  0  0  0  0
 32 69  1  0  0  0  0
 32 75  2  0  0  0  0
 33 49  1  0  0  0  0
 33 71  1  0  0  0  0
 33 76  2  0  0  0  0
 34 58  1  0  0  0  0
 34 65  1  0  0  0  0
 34 77  2  0  0  0  0
 35 59  1  0  0  0  0
 35 72  1  0  0  0  0
 35 78  2  0  0  0  0
 36 66  1  0  0  0  0
 36 67  1  0  0  0  0
 36 79  2  0  0  0  0
 37 40  1  0  0  0  0
 38 49  1  0  0  0  0
 39 65  1  0  0  0  0
 40 42  1  0  0  0  0
 41 43  1  0  0  0  0
 41 44  1  0  0  0  0
 42 48  1  0  0  0  0
 43 50  1  0  0  0  0
 44 66  1  0  0  0  0
 45 50  1  0  0  0  0
 45 66  1  0  0  0  0
 46 51  1  0  0  0  0
 46 67  1  0  0  0  0
 47 52  1  0  0  0  0
 47 67  1  0  0  0  0
 48 71  1  0  0  0  0
 49 65  1  0  0  0  0
 50 64  1  0  0  0  0
 51 52  1  0  0  0  0
 51 70  1  0  0  0  0
 52 73  1  0  0  0  0
 53 59  1  0  0  0  0
 54 60  1  0  0  0  0
 55 60  1  0  0  0  0
 56 60  1  0  0  0  0
 57 74  1  0  0  0  0
 58 60  1  0  0  0  0
 58 72  1  0  0  0  0
 59 74  1  0  0  0  0
 63 64  1  0  0  0  0
M  CHG  2  73   1  74   1
M  ISO  4  30 101  36 100  67 100  81 101
M  END
> <Batch ID>
0183

> <Smiles>
CNC(C)C(=O)NC(C(=O)N1Cc2cc([101O:1][101c:1]3cnc(NC4C[100N:0]([100C:0](=O)N5CCCC(n6nc(-c7ccc(Oc8ccc(F)cc8F)cc7)c(C(N)=O)c6N)C5)CC4N)cn3)ccc2CC1C(=O)NC1CCCc2ccccc21)C(C)(C)C

> <Shape>
0.353

> <Color>
0.092

> <Negative vol penalty>
0.000

$$$$

  -OEChem-04052323073D

 77 85  0     1  0  0  0  0  0999 V2000
  -25.0585  -11.4651   21.7225 C   0  0  0  0  0  0  0  0  0  0  0  0
  -25.9973  -12.4471   22.0220 C   0  0  0  0  0  0  0  0  0  0  0  0
  -19.5711  -28.6506   21.9859 C   0  0  0  0  0  0  0  0  0  0  0  0
  -20.3784  -26.8186   23.3384 C   0  0  0  0  0  0  0  0  0  0  0  0
  -24.2824  -11.5729   20.5692 C   0  0  0  0  0  0  0  0  0  0  0  0
  -26.1614  -13.5369   21.1678 C   0  0  0  0  0  0  0  0  0  0  0  0
  -27.8022  -20.5094   21.2653 C   0  0  0  0  0  0  0  0  0  0  0  0
  -18.3047  -28.0670   21.9513 C   0  0  0  0  0  0  0  0  0  0  0  0
  -19.1119  -26.2350   23.3038 C   0  0  0  0  0  0  0  0  0  0  0  0
  -28.6742  -21.4191   20.6688 C   0  0  0  0  0  0  0  0  0  0  0  0
  -16.1850  -24.0805   23.2716 C   0  0  0  0  0  0  0  0  0  0  0  0
  -16.1092  -22.7101   23.0230 C   0  0  0  0  0  0  0  0  0  0  0  0
  -27.2225  -21.5407   18.7460 C   0  0  0  0  0  0  0  0  0  0  0  0
  -17.1917  -23.0375   20.8880 C   0  0  0  0  0  0  0  0  0  0  0  0
  -20.6080  -28.0263   22.6794 C   0  0  0  0  0  0  0  0  0  0  0  0
  -22.4051  -29.5449   23.6653 C   0  0  0  0  0  0  0  0  0  0  0  0
  -24.4303  -12.6695   19.7054 C   0  0  0  0  0  0  0  0  0  0  0  0
  -26.6373  -20.0995   20.6008 C   0  0  0  0  0  0  0  0  0  0  0  0
  -25.3876  -13.6588   20.0012 C   0  0  0  0  0  0  0  0  0  0  0  0
  -26.3361  -20.6277   19.3373 C   0  0  0  0  0  0  0  0  0  0  0  0
  -18.0751  -26.8593   22.6103 C   0  0  0  0  0  0  0  0  0  0  0  0
  -28.3859  -21.9327   19.4078 C   0  0  0  0  0  0  0  0  0  0  0  0
  -16.7641  -24.9295   22.3284 C   0  0  0  0  0  0  0  0  0  0  0  0
  -16.6126  -22.1886   21.8312 C   0  0  0  0  0  0  0  0  0  0  0  0
  -17.2675  -24.4079   21.1366 C   0  0  0  0  0  0  0  0  0  0  0  0
  -21.9166  -28.6284   22.7150 C   0  0  0  0  0  0  0  0  0  0  0  0
  -23.6899  -29.8095   23.2583 C   0  0  0  0  0  0  0  0  0  0  0  0
  -21.7556  -30.1068   24.8134 C   0  0  0  0  0  0  0  0  0  0  0  0
  -25.5257  -17.3209   19.5295 C   0  0  0  0  0  0  0  0  0  0  0  0
  -22.8701  -19.0722   18.8949 C   0  0  0  0  0  0  0  0  0  0  0  0
  -21.5011  -22.1340   18.2641 C   0  0  0  0  0  0  0  0  0  0  0  0
  -28.1700  -27.1997   21.0459 C   0  0  0  0  0  0  0  0  0  0  0  0
  -23.6020  -12.7185   18.4460 C   0  0  0  0  0  0  0  0  0  0  0  0
  -25.6934  -19.1379   21.2692 C   0  0  0  0  0  0  0  0  0  0  0  0
  -25.0882  -20.2353   18.5908 C   0  0  0  0  0  0  0  0  0  0  0  0
  -23.5749  -14.0956   17.7879 C   0  0  0  0  0  0  0  0  0  0  0  0
  -26.1744  -29.3992   19.0238 C   0  0  0  0  0  0  0  0  0  0  0  0
  -24.9825  -14.6785   17.7117 C   0  0  0  0  0  0  0  0  0  0  0  0
  -24.8950  -29.4857   19.8514 C   0  0  0  0  0  0  0  0  0  0  0  0
  -26.7998  -28.0033   19.0633 C   0  0  0  0  0  0  0  0  0  0  0  0
  -29.0313  -25.9141   18.9993 C   0  0  0  0  0  0  0  0  0  0  0  0
  -25.7375  -27.5779   21.2622 C   0  0  0  0  0  0  0  0  0  0  0  0
  -30.5463  -26.5674   20.7489 C   0  0  0  0  0  0  0  0  0  0  0  0
  -25.5775  -14.8686   19.1121 C   0  0  1  0  0  0  0  0  0  0  0  0
  -24.7963  -18.3977   20.2820 C   0  0  1  0  0  0  0  0  0  0  0  0
  -30.2518  -24.9896   18.9580 C   0  0  1  0  0  0  0  0  0  0  0  0
  -25.1424  -28.9927   21.2861 C   0  0  2  0  0  0  0  0  0  0  0  0
  -31.3126  -25.8351   19.6615 C   0  0  1  0  0  0  0  0  0  0  0  0
  -19.3104  -23.2438   17.7476 C   0  0  0  0  0  0  0  0  0  0  0  0
  -23.0226  -18.0343   16.0297 C   0  0  0  0  0  0  0  0  0  0  0  0
  -21.4483  -19.8615   15.3579 C   0  0  0  0  0  0  0  0  0  0  0  0
  -20.7136  -18.1206   16.9864 C   0  0  0  0  0  0  0  0  0  0  0  0
  -21.6297  -23.7896   20.7139 C   0  0  0  0  0  0  0  0  0  0  0  0
  -29.9859  -23.6712   19.6795 C   0  0  0  0  0  0  0  0  0  1  0  0
  -22.3772  -19.8784   17.7175 C   0  0  1  0  0  0  0  0  0  0  0  0
  -20.2825  -22.8309   18.8418 C   0  0  2  0  0  0  0  0  0  0  0  0
  -21.9150  -18.9798   16.5358 C   0  0  0  0  0  0  0  0  0  0  0  0
  -22.8176  -28.3308   21.7750 N   0  0  0  0  0  0  0  0  0  0  0  0
  -23.8852  -29.0646   22.1326 N   0  0  0  0  0  0  0  0  0  0  0  0
  -24.1999  -19.2873   19.2835 N   0  0  0  0  0  0  0  0  0  0  0  0
  -26.9499  -27.5201   20.4405 N   0  0  0  0  0  0  0  0  0  0  0  0
  -29.1822  -26.6824   20.2385 N   0  0  0  0  0  0  0  0  0  0  0  0
  -24.6604  -30.6044   23.7571 N   0  0  0  0  0  0  0  0  0  0  0  0
  -20.4343  -29.7270   25.0862 N   0  0  0  0  0  0  0  0  0  0  0  0
  -25.0255  -16.0501   19.7397 N   0  0  0  0  0  0  0  0  0  0  0  0
  -21.3406  -20.7649   18.2351 N   0  0  0  0  0  0  0  0  0  0  0  0
  -20.6912  -24.0517   19.5925 N   0  3  0  0  0  0  0  0  0  0  0  0
  -22.3242  -30.9341   25.5655 O   0  0  0  0  0  0  0  0  0  0  0  0
  -26.4714  -17.6211   18.8103 O   0  0  0  0  0  0  0  0  0  0  0  0
  -22.1012  -18.2860   19.4538 O   0  0  0  0  0  0  0  0  0  0  0  0
  -22.4944  -22.7436   17.8739 O   0  0  0  0  0  0  0  0  0  0  0  0
  -28.3356  -27.3299   22.2663 O   0  0  0  0  0  0  0  0  0  0  0  0
  -16.8393  -26.2897   22.5770 O   0  0  0  0  0  0  0  0  0  0  0  0
  -29.2434  -22.8284   18.8177 O   0  0  0  0  0  0  0  0  0  1  0  0
  -16.5411  -20.8723   21.5933 F   0  0  0  0  0  0  0  0  0  0  0  0
  -17.8261  -25.2184   20.2272 F   0  0  0  0  0  0  0  0  0  0  0  0
  -31.7839  -26.7605   18.7791 F   0  0  0  0  0  0  0  0  0  0  0  0
  1  2  1  0  0  0  0
  1  5  2  0  0  0  0
  2  6  2  0  0  0  0
  3  8  2  0  0  0  0
  3 15  1  0  0  0  0
  4  9  1  0  0  0  0
  4 15  2  0  0  0  0
  5 17  1  0  0  0  0
  6 19  1  0  0  0  0
  7 10  2  0  0  0  0
  7 18  1  0  0  0  0
  8 21  1  0  0  0  0
  9 21  2  0  0  0  0
 10 22  1  0  0  0  0
 11 12  2  0  0  0  0
 11 23  1  0  0  0  0
 12 24  1  0  0  0  0
 13 20  1  0  0  0  0
 13 22  2  0  0  0  0
 14 24  2  0  0  0  0
 14 25  1  0  0  0  0
 15 26  1  0  0  0  0
 16 26  1  0  0  0  0
 16 27  2  0  0  0  0
 16 28  1  0  0  0  0
 17 19  2  0  0  0  0
 17 33  1  0  0  0  0
 18 20  2  0  0  0  0
 18 34  1  0  0  0  0
 19 44  1  0  0  0  0
 20 35  1  0  0  0  0
 21 73  1  0  0  0  0
 22 74  1  0  0  0  0
 23 25  2  0  0  0  0
 23 73  1  0  0  0  0
 24 75  1  0  0  0  0
 25 76  1  0  0  0  0
 26 58  2  0  0  0  0
 27 59  1  0  0  0  0
 27 63  1  0  0  0  0
 28 64  1  0  0  0  0
 28 68  2  0  0  0  0
 29 45  1  0  0  0  0
 29 65  1  0  0  0  0
 29 69  2  0  0  0  0
 30 55  1  0  0  0  0
 30 60  1  0  0  0  0
 30 70  2  0  0  0  0
 31 56  1  0  0  0  0
 31 66  1  0  0  0  0
 31 71  2  0  0  0  0
 32 61  1  0  0  0  0
 32 62  1  0  0  0  0
 32 72  2  0  0  0  0
 33 36  1  0  0  0  0
 34 45  1  0  0  0  0
 35 60  1  0  0  0  0
 36 38  1  0  0  0  0
 37 39  1  0  0  0  0
 37 40  1  0  0  0  0
 38 44  1  0  0  0  0
 39 47  1  0  0  0  0
 40 61  1  0  0  0  0
 41 46  1  0  0  0  0
 41 62  1  0  0  0  0
 42 47  1  0  0  0  0
 42 61  1  0  0  0  0
 43 48  1  0  0  0  0
 43 62  1  0  0  0  0
 44 65  1  0  0  0  0
 45 60  1  0  0  0  0
 46 48  1  0  0  0  0
 46 54  1  0  0  0  0
 47 59  1  0  0  0  0
 48 77  1  0  0  0  0
 49 56  1  0  0  0  0
 50 57  1  0  0  0  0
 51 57  1  0  0  0  0
 52 57  1  0  0  0  0
 53 67  1  0  0  0  0
 54 74  1  0  0  0  0
 55 57  1  0  0  0  0
 55 66  1  0  0  0  0
 56 67  1  0  0  0  0
 58 59  1  0  0  0  0
M  CHG  1  67   1
M  ISO  4  32 100  54 101  62 100  74 101
M  END
> <Batch ID>
0183

> <Smiles>
CNC(C)C(=O)NC(C(=O)N1Cc2cc([101O:1][101CH2:1]C3C[100N:0]([100C:0](=O)N4CCCC(n5nc(-c6ccc(Oc7ccc(F)cc7F)cc6)c(C(N)=O)c5N)C4)CC3F)ccc2CC1C(=O)NC1CCCc2ccccc21)C(C)(C)C

> <Shape>
0.202

> <Color>
0.084

> <Negative vol penalty>
0.000

$$$$

  -OEChem-04052323073D

 79 88  0     1  0  0  0  0  0999 V2000
  -32.3506  -23.7819   18.0245 C   0  0  0  0  0  0  0  0  0  0  0  0
  -30.9866  -24.0357   18.1267 C   0  0  0  0  0  0  0  0  0  0  0  0
  -26.7096  -13.1884   20.1571 C   0  0  0  0  0  0  0  0  0  0  0  0
  -24.3357  -13.6353   20.2013 C   0  0  0  0  0  0  0  0  0  0  0  0
  -33.1662  -23.8977   19.1493 C   0  0  0  0  0  0  0  0  0  0  0  0
  -30.4372  -24.4044   19.3542 C   0  0  0  0  0  0  0  0  0  0  0  0
  -27.2013  -28.2787   18.9492 C   0  0  0  0  0  0  0  0  0  0  0  0
  -26.5089  -12.0456   20.9312 C   0  0  0  0  0  0  0  0  0  0  0  0
  -24.1350  -12.4925   20.9754 C   0  0  0  0  0  0  0  0  0  0  0  0
  -25.9231  -27.9934   18.4710 C   0  0  0  0  0  0  0  0  0  0  0  0
  -23.9509   -9.1540   20.4842 C   0  0  0  0  0  0  0  0  0  0  0  0
  -22.8970   -8.3112   20.1317 C   0  0  0  0  0  0  0  0  0  0  0  0
  -25.0808  -28.0077   20.7314 C   0  0  0  0  0  0  0  0  0  0  0  0
  -21.8983   -8.6509   22.3052 C   0  0  0  0  0  0  0  0  0  0  0  0
  -25.6230  -13.9833   19.7922 C   0  0  0  0  0  0  0  0  0  0  0  0
  -25.8199  -15.2525   17.5881 C   0  0  0  0  0  0  0  0  0  0  0  0
  -32.6281  -24.2774   20.3891 C   0  0  0  0  0  0  0  0  0  0  0  0
  -27.4313  -28.4200   20.3253 C   0  0  0  0  0  0  0  0  0  0  0  0
  -31.2461  -24.5240   20.4970 C   0  0  0  0  0  0  0  0  0  0  0  0
  -26.3623  -28.2973   21.2244 C   0  0  0  0  0  0  0  0  0  0  0  0
  -25.2216  -11.6976   21.3404 C   0  0  0  0  0  0  0  0  0  0  0  0
  -24.8632  -27.8550   19.3623 C   0  0  0  0  0  0  0  0  0  0  0  0
  -23.9787   -9.7452   21.7473 C   0  0  0  0  0  0  0  0  0  0  0  0
  -21.8706   -8.0596   21.0421 C   0  0  0  0  0  0  0  0  0  0  0  0
  -22.9523   -9.4937   22.6578 C   0  0  0  0  0  0  0  0  0  0  0  0
  -25.8297  -15.1643   18.9930 C   0  0  0  0  0  0  0  0  0  0  0  0
  -26.0638  -16.5784   17.3255 C   0  0  0  0  0  0  0  0  0  0  0  0
  -25.6091  -14.2274   16.6079 C   0  0  0  0  0  0  0  0  0  0  0  0
  -29.2060  -26.8884   22.4719 C   0  0  0  0  0  0  0  0  0  0  0  0
  -28.2107  -29.2790   24.4256 C   0  0  0  0  0  0  0  0  0  0  0  0
  -25.8771  -31.6700   25.1214 C   0  0  0  0  0  0  0  0  0  0  0  0
  -25.1829  -21.5892   20.4824 C   0  0  0  0  0  0  0  0  0  0  0  0
  -33.5416  -24.3433   21.5873 C   0  0  0  0  0  0  0  0  0  0  0  0
  -28.8107  -28.7542   20.8231 C   0  0  0  0  0  0  0  0  0  0  0  0
  -26.5525  -28.4597   22.7096 C   0  0  0  0  0  0  0  0  0  0  0  0
  -32.9432  -25.1031   22.7684 C   0  0  0  0  0  0  0  0  0  0  0  0
  -28.2680  -20.4130   19.1499 C   0  0  0  0  0  0  0  0  0  0  0  0
  -31.5069  -24.6548   23.0190 C   0  0  0  0  0  0  0  0  0  0  0  0
  -27.9920  -18.9424   18.8318 C   0  0  0  0  0  0  0  0  0  0  0  0
  -21.3316  -21.7176   20.5404 C   0  0  0  0  0  0  0  0  0  0  0  0
  -27.5495  -20.8599   20.4212 C   0  0  0  0  0  0  0  0  0  0  0  0
  -25.8220  -19.1284   20.1184 C   0  0  0  0  0  0  0  0  0  0  0  0
  -22.0017  -25.9228   17.8675 C   0  0  0  0  0  0  0  0  0  0  0  0
  -23.5457  -25.0526   18.9725 C   0  0  0  0  0  0  0  0  0  0  0  0
  -30.6170  -24.9504   21.8056 C   0  0  1  0  0  0  0  0  0  0  0  0
  -29.0289  -28.3684   22.2829 C   0  0  1  0  0  0  0  0  0  0  0  0
  -21.8552  -22.4568   19.3416 C   0  0  2  0  0  0  0  0  0  0  0  0
  -26.4802  -18.6466   18.8142 C   0  0  2  0  0  0  0  0  0  0  0  0
  -22.7695  -22.1670   20.5049 C   0  0  2  0  0  0  0  0  0  0  0  0
  -23.4497  -26.3552   18.1591 C   0  0  0  0  0  0  0  0  0  1  0  0
  -25.3147  -33.4423   26.8066 C   0  0  0  0  0  0  0  0  0  0  0  0
  -27.2616  -27.1266   26.3689 C   0  0  0  0  0  0  0  0  0  0  0  0
  -25.8969  -28.8751   27.5301 C   0  0  0  0  0  0  0  0  0  0  0  0
  -28.3812  -29.0855   27.4475 C   0  0  0  0  0  0  0  0  0  0  0  0
  -26.0355  -33.8160   23.0896 C   0  0  0  0  0  0  0  0  0  0  0  0
  -21.4032  -23.8737   19.0636 C   0  0  0  0  0  0  0  0  0  0  0  0
  -27.0328  -29.4864   25.3468 C   0  0  1  0  0  0  0  0  0  0  0  0
  -26.0161  -33.1354   25.4927 C   0  0  2  0  0  0  0  0  0  0  0  0
  -27.1396  -28.6384   26.6455 C   0  0  0  0  0  0  0  0  0  0  0  0
  -26.0616  -16.3405   19.5818 N   0  0  0  0  0  0  0  0  0  0  0  0
  -26.1999  -17.1803   18.5418 N   0  0  0  0  0  0  0  0  0  0  0  0
  -27.9211  -28.7798   23.1478 N   0  0  0  0  0  0  0  0  0  0  0  0
  -26.1196  -20.5523   20.3396 N   0  0  0  0  0  0  0  0  0  0  0  0
  -26.1730  -17.2764   16.1752 N   0  0  0  0  0  0  0  0  0  0  0  0
  -25.3718  -12.9188   17.0501 N   0  0  0  0  0  0  0  0  0  0  0  0
  -30.2667  -26.3540   21.7657 N   0  0  0  0  0  0  0  0  0  0  0  0
  -26.9434  -30.9242   25.5776 N   0  0  0  0  0  0  0  0  0  0  0  0
  -23.8490  -21.2125   20.3855 N   0  0  0  0  0  0  0  0  0  0  0  0
  -22.3995  -24.5419   18.1980 N   0  3  0  0  0  0  0  0  0  0  0  0
  -25.4236  -33.9972   24.4311 N   0  3  0  0  0  0  0  0  0  0  0  0
  -25.6469  -14.4619   15.3762 O   0  0  0  0  0  0  0  0  0  0  0  0
  -28.4382  -26.2768   23.2054 O   0  0  0  0  0  0  0  0  0  0  0  0
  -29.3451  -29.5566   24.8226 O   0  0  0  0  0  0  0  0  0  0  0  0
  -24.9167  -31.2303   24.4931 O   0  0  0  0  0  0  0  0  0  0  0  0
  -25.5113  -22.7646   20.6763 O   0  0  0  0  0  0  0  0  0  0  0  0
  -25.0254  -10.5824   22.0956 O   0  0  0  0  0  0  0  0  0  0  0  0
  -23.6147  -27.5759   18.8983 O   0  0  0  0  0  0  0  0  0  1  0  0
  -20.8577   -7.2515   20.7029 F   0  0  0  0  0  0  0  0  0  0  0  0
  -22.9729  -10.0598   23.8723 F   0  0  0  0  0  0  0  0  0  0  0  0
  1  2  1  0  0  0  0
  1  5  2  0  0  0  0
  2  6  2  0  0  0  0
  3  8  2  0  0  0  0
  3 15  1  0  0  0  0
  4  9  1  0  0  0  0
  4 15  2  0  0  0  0
  5 17  1  0  0  0  0
  6 19  1  0  0  0  0
  7 10  2  0  0  0  0
  7 18  1  0  0  0  0
  8 21  1  0  0  0  0
  9 21  2  0  0  0  0
 10 22  1  0  0  0  0
 11 12  2  0  0  0  0
 11 23  1  0  0  0  0
 12 24  1  0  0  0  0
 13 20  1  0  0  0  0
 13 22  2  0  0  0  0
 14 24  2  0  0  0  0
 14 25  1  0  0  0  0
 15 26  1  0  0  0  0
 16 26  1  0  0  0  0
 16 27  2  0  0  0  0
 16 28  1  0  0  0  0
 17 19  2  0  0  0  0
 17 33  1  0  0  0  0
 18 20  2  0  0  0  0
 18 34  1  0  0  0  0
 19 45  1  0  0  0  0
 20 35  1  0  0  0  0
 21 76  1  0  0  0  0
 22 77  1  0  0  0  0
 23 25  2  0  0  0  0
 23 76  1  0  0  0  0
 24 78  1  0  0  0  0
 25 79  1  0  0  0  0
 26 60  2  0  0  0  0
 27 61  1  0  0  0  0
 27 64  1  0  0  0  0
 28 65  1  0  0  0  0
 28 71  2  0  0  0  0
 29 46  1  0  0  0  0
 29 66  1  0  0  0  0
 29 72  2  0  0  0  0
 30 57  1  0  0  0  0
 30 62  1  0  0  0  0
 30 73  2  0  0  0  0
 31 58  1  0  0  0  0
 31 67  1  0  0  0  0
 31 74  2  0  0  0  0
 32 63  1  0  0  0  0
 32 68  1  0  0  0  0
 32 75  2  0  0  0  0
 33 36  1  0  0  0  0
 34 46  1  0  0  0  0
 35 62  1  0  0  0  0
 36 38  1  0  0  0  0
 37 39  1  0  0  0  0
 37 41  1  0  0  0  0
 38 45  1  0  0  0  0
 39 48  1  0  0  0  0
 40 47  1  0  0  0  0
 40 49  1  0  0  0  0
 41 63  1  0  0  0  0
 42 48  1  0  0  0  0
 42 63  1  0  0  0  0
 43 50  1  0  0  0  0
 43 69  1  0  0  0  0
 44 50  1  0  0  0  0
 44 69  1  0  0  0  0
 45 66  1  0  0  0  0
 46 62  1  0  0  0  0
 47 49  1  0  0  0  0
 47 56  1  0  0  0  0
 48 61  1  0  0  0  0
 49 68  1  0  0  0  0
 50 77  1  0  0  0  0
 51 58  1  0  0  0  0
 52 59  1  0  0  0  0
 53 59  1  0  0  0  0
 54 59  1  0  0  0  0
 55 70  1  0  0  0  0
 56 69  1  0  0  0  0
 57 59  1  0  0  0  0
 57 67  1  0  0  0  0
 58 70  1  0  0  0  0
 60 61  1  0  0  0  0
M  CHG  2  69   1  70   1
M  ISO  4  32 100  50 101  68 100  77 101
M  END
> <Batch ID>
0183

> <Smiles>
CNC(C)C(=O)NC(C(=O)N1Cc2cc([101O:1][101CH:1]3CN(CC4CC4[100NH:0][100C:0](=O)N4CCCC(n5nc(-c6ccc(Oc7ccc(F)cc7F)cc6)c(C(N)=O)c5N)C4)C3)ccc2CC1C(=O)NC1CCCc2ccccc21)C(C)(C)C

> <Shape>
0.202

> <Color>
0.071

> <Negative vol penalty>
0.000

$$$$

  -OEChem-04052323073D

 87 96  0     1  0  0  0  0  0999 V2000
  -18.0118  -25.2054   21.9704 C   0  0  0  0  0  0  0  0  0  0  0  0
  -19.3848  -25.1094   21.7681 C   0  0  0  0  0  0  0  0  0  0  0  0
  -24.4516  -14.1175   19.4095 C   0  0  0  0  0  0  0  0  0  0  0  0
  -26.4195  -14.4870   20.7616 C   0  0  0  0  0  0  0  0  0  0  0  0
  -17.3871  -26.4510   21.9255 C   0  0  0  0  0  0  0  0  0  0  0  0
  -20.1339  -26.2590   21.5197 C   0  0  0  0  0  0  0  0  0  0  0  0
  -24.4365  -26.3883   24.1873 C   0  0  0  0  0  0  0  0  0  0  0  0
  -24.5486  -12.7458   19.6430 C   0  0  0  0  0  0  0  0  0  0  0  0
  -26.5165  -13.1152   20.9952 C   0  0  0  0  0  0  0  0  0  0  0  0
  -25.4953  -25.6075   23.7260 C   0  0  0  0  0  0  0  0  0  0  0  0
  -24.0681   -9.1825   20.1790 C   0  0  0  0  0  0  0  0  0  0  0  0
  -22.8988   -8.4961   20.5062 C   0  0  0  0  0  0  0  0  0  0  0  0
  -26.4920  -27.5620   22.7232 C   0  0  0  0  0  0  0  0  0  0  0  0
  -22.6233   -9.8950   22.4567 C   0  0  0  0  0  0  0  0  0  0  0  0
  -25.3871  -14.9881   19.9687 C   0  0  0  0  0  0  0  0  0  0  0  0
  -24.5826  -17.3510   20.4955 C   0  0  0  0  0  0  0  0  0  0  0  0
  -18.1304  -27.6176   21.6860 C   0  0  0  0  0  0  0  0  0  0  0  0
  -24.3918  -27.7623   23.9102 C   0  0  0  0  0  0  0  0  0  0  0  0
  -19.5184  -27.5213   21.4703 C   0  0  0  0  0  0  0  0  0  0  0  0
  -25.4327  -28.3586   23.1843 C   0  0  0  0  0  0  0  0  0  0  0  0
  -28.8721  -23.1265   20.9626 C   0  0  0  0  0  0  0  0  0  0  0  0
  -25.5810  -12.2446   20.4359 C   0  0  0  0  0  0  0  0  0  0  0  0
  -26.5218  -26.1937   22.9914 C   0  0  0  0  0  0  0  0  0  0  0  0
  -24.5152  -10.2252   20.9908 C   0  0  0  0  0  0  0  0  0  0  0  0
  -22.1764   -8.8523   21.6450 C   0  0  0  0  0  0  0  0  0  0  0  0
  -23.7927  -10.5814   22.1295 C   0  0  0  0  0  0  0  0  0  0  0  0
  -25.2877  -16.4052   19.7273 C   0  0  0  0  0  0  0  0  0  0  0  0
  -30.0436  -22.5101   20.5728 C   0  0  0  0  0  0  0  0  0  0  0  0
  -28.7521  -23.3806   22.3137 C   0  0  0  0  0  0  0  0  0  0  0  0
  -24.8004  -18.5456   19.8537 C   0  0  0  0  0  0  0  0  0  0  0  0
  -30.7929  -22.4650   22.7185 C   0  0  0  0  0  0  0  0  0  0  0  0
  -23.8008  -17.1662   21.6831 C   0  0  0  0  0  0  0  0  0  0  0  0
  -22.4043  -29.6664   22.3203 C   0  0  0  0  0  0  0  0  0  0  0  0
  -24.3180  -32.0033   23.5031 C   0  0  0  0  0  0  0  0  0  0  0  0
  -27.3734  -32.9023   24.7291 C   0  0  0  0  0  0  0  0  0  0  0  0
  -29.3313  -20.1900   16.1710 C   0  0  0  0  0  0  0  0  0  0  0  0
  -17.4038  -28.9364   21.5998 C   0  0  0  0  0  0  0  0  0  0  0  0
  -23.2562  -28.5956   24.4378 C   0  0  0  0  0  0  0  0  0  0  0  0
  -25.4422  -29.8331   22.8773 C   0  0  0  0  0  0  0  0  0  0  0  0
  -18.3265  -30.1481   21.7029 C   0  0  0  0  0  0  0  0  0  0  0  0
  -25.7272  -20.3713   15.5212 C   0  0  0  0  0  0  0  0  0  0  0  0
  -19.5439  -29.9703   20.8012 C   0  0  0  0  0  0  0  0  0  0  0  0
  -25.1474  -19.4177   16.5680 C   0  0  0  0  0  0  0  0  0  0  0  0
  -27.1286  -19.9542   15.0789 C   0  0  0  0  0  0  0  0  0  0  0  0
  -29.2426  -21.2341   18.5114 C   0  0  0  0  0  0  0  0  0  0  0  0
  -27.4998  -18.7920   17.2190 C   0  0  0  0  0  0  0  0  0  0  0  0
  -31.3580  -20.8930   17.4154 C   0  0  0  0  0  0  0  0  0  0  0  0
  -20.3689  -28.7483   21.2227 C   0  0  1  0  0  0  0  0  0  0  0  0
  -30.2878  -22.1824   19.1200 C   0  0  2  0  0  0  0  0  0  0  0  0
  -23.0524  -29.8905   23.6573 C   0  0  1  0  0  0  0  0  0  0  0  0
  -26.1238  -19.2232   17.7435 C   0  0  2  0  0  0  0  0  0  0  0  0
  -31.5886  -21.4278   18.8199 C   0  0  2  0  0  0  0  0  0  0  0  0
  -27.8090  -23.4945   19.9893 C   0  0  0  0  0  0  0  0  0  0  0  0
  -31.8607  -22.1002   23.6932 C   0  0  0  0  0  0  0  0  0  0  0  0
  -35.1794  -22.6715   18.9625 C   0  0  0  0  0  0  0  0  0  0  0  0
  -28.6489  -34.8906   25.5759 C   0  0  0  0  0  0  0  0  0  0  0  0
  -24.6558  -33.0028   20.6401 C   0  0  0  0  0  0  0  0  0  0  0  0
  -26.6282  -34.3373   21.4127 C   0  0  0  0  0  0  0  0  0  0  0  0
  -24.3635  -34.8069   22.3473 C   0  0  0  0  0  0  0  0  0  0  0  0
  -27.7666  -31.6636   27.3881 C   0  0  0  0  0  0  0  0  0  0  0  0
  -27.5273  -24.0429   22.8534 C   0  0  0  0  0  0  0  0  0  1  0  0
  -34.0735  -21.6389   18.9634 C   0  0  0  0  0  0  0  0  0  0  0  0
  -25.5743  -32.6962   23.0335 C   0  0  1  0  0  0  0  0  0  0  0  0
  -27.7704  -33.7079   25.9530 C   0  0  2  0  0  0  0  0  0  0  0  0
  -25.3046  -33.6827   21.8624 C   0  0  0  0  0  0  0  0  0  0  0  0
  -25.9069  -16.9518   18.6777 N   0  0  0  0  0  0  0  0  0  0  0  0
  -31.0288  -22.1641   21.4272 N   0  0  0  0  0  0  0  0  0  0  0  0
  -29.6963  -23.0620   23.2232 N   0  0  0  0  0  0  0  0  0  0  0  0
  -25.5915  -18.2540   18.7817 N   0  0  0  0  0  0  0  0  0  0  0  0
  -24.3067  -30.6044   23.4095 N   0  0  0  0  0  0  0  0  0  0  0  0
  -28.0032  -19.7552   16.2344 N   0  0  0  0  0  0  0  0  0  0  0  0
  -29.9199  -20.6374   17.3536 N   0  0  0  0  0  0  0  0  0  0  0  0
  -24.3902  -19.8065   20.1074 N   0  0  0  0  0  0  0  0  0  0  0  0
  -23.6809  -15.8728   22.2096 N   0  0  0  0  0  0  0  0  0  0  0  0
  -21.1668  -29.0555   22.3903 N   0  0  0  0  0  0  0  0  0  0  0  0
  -26.1635  -33.3177   24.2146 N   0  0  0  0  0  0  0  0  0  0  0  0
  -32.7560  -22.3301   18.8562 N   0  3  0  0  0  0  0  0  0  0  0  0
  -28.5213  -32.8525   26.9150 N   0  3  0  0  0  0  0  0  0  0  0  0
  -23.2121  -18.1172   22.2509 O   0  0  0  0  0  0  0  0  0  0  0  0
  -22.9834  -30.0228   21.3008 O   0  0  0  0  0  0  0  0  0  0  0  0
  -23.3840  -32.6779   23.9437 O   0  0  0  0  0  0  0  0  0  0  0  0
  -28.0690  -31.9975   24.2729 O   0  0  0  0  0  0  0  0  0  0  0  0
  -29.9488  -20.2220   15.0985 O   0  0  0  0  0  0  0  0  0  0  0  0
  -25.6758  -10.9062   20.6642 O   0  0  0  0  0  0  0  0  0  0  0  0
  -27.5636  -25.4283   22.5362 O   0  0  0  0  0  0  0  0  0  1  0  0
  -21.0526   -8.1941   21.9581 F   0  0  0  0  0  0  0  0  0  0  0  0
  -24.2165  -11.5829   22.9126 F   0  0  0  0  0  0  0  0  0  0  0  0
  1  2  1  0  0  0  0
  1  5  2  0  0  0  0
  2  6  2  0  0  0  0
  3  8  2  0  0  0  0
  3 15  1  0  0  0  0
  4  9  1  0  0  0  0
  4 15  2  0  0  0  0
  5 17  1  0  0  0  0
  6 19  1  0  0  0  0
  7 10  2  0  0  0  0
  7 18  1  0  0  0  0
  8 22  1  0  0  0  0
  9 22  2  0  0  0  0
 10 23  1  0  0  0  0
 11 12  2  0  0  0  0
 11 24  1  0  0  0  0
 12 25  1  0  0  0  0
 13 20  1  0  0  0  0
 13 23  2  0  0  0  0
 14 25  2  0  0  0  0
 14 26  1  0  0  0  0
 15 27  1  0  0  0  0
 16 27  1  0  0  0  0
 16 30  2  0  0  0  0
 16 32  1  0  0  0  0
 17 19  2  0  0  0  0
 17 37  1  0  0  0  0
 18 20  2  0  0  0  0
 18 38  1  0  0  0  0
 19 48  1  0  0  0  0
 20 39  1  0  0  0  0
 21 28  2  0  0  0  0
 21 29  1  0  0  0  0
 21 53  1  0  0  0  0
 22 84  1  0  0  0  0
 23 85  1  0  0  0  0
 24 26  2  0  0  0  0
 24 84  1  0  0  0  0
 25 86  1  0  0  0  0
 26 87  1  0  0  0  0
 27 66  2  0  0  0  0
 28 49  1  0  0  0  0
 28 67  1  0  0  0  0
 29 61  1  0  0  0  0
 29 68  2  0  0  0  0
 30 69  1  0  0  0  0
 30 73  1  0  0  0  0
 31 54  1  0  0  0  0
 31 67  2  0  0  0  0
 31 68  1  0  0  0  0
 32 74  1  0  0  0  0
 32 79  2  0  0  0  0
 33 50  1  0  0  0  0
 33 75  1  0  0  0  0
 33 80  2  0  0  0  0
 34 63  1  0  0  0  0
 34 70  1  0  0  0  0
 34 81  2  0  0  0  0
 35 64  1  0  0  0  0
 35 76  1  0  0  0  0
 35 82  2  0  0  0  0
 36 71  1  0  0  0  0
 36 72  1  0  0  0  0
 36 83  2  0  0  0  0
 37 40  1  0  0  0  0
 38 50  1  0  0  0  0
 39 70  1  0  0  0  0
 40 42  1  0  0  0  0
 41 43  1  0  0  0  0
 41 44  1  0  0  0  0
 42 48  1  0  0  0  0
 43 51  1  0  0  0  0
 44 71  1  0  0  0  0
 45 49  1  0  0  0  0
 45 72  1  0  0  0  0
 46 51  1  0  0  0  0
 46 71  1  0  0  0  0
 47 52  1  0  0  0  0
 47 72  1  0  0  0  0
 48 75  1  0  0  0  0
 49 52  1  0  0  0  0
 50 70  1  0  0  0  0
 51 69  1  0  0  0  0
 52 77  1  0  0  0  0
 55 62  1  0  0  0  0
 56 64  1  0  0  0  0
 57 65  1  0  0  0  0
 58 65  1  0  0  0  0
 59 65  1  0  0  0  0
 60 78  1  0  0  0  0
 61 85  1  0  0  0  0
 62 77  1  0  0  0  0
 63 65  1  0  0  0  0
 63 76  1  0  0  0  0
 64 78  1  0  0  0  0
 66 69  1  0  0  0  0
M  CHG  2  77   1  78   1
M  ISO  4  36 100  61 101  72 100  85 101
M  END
> <Batch ID>
0183

> <Smiles>
CCNC1C[100N:0]([100C:0](=O)N2CCCC(n3nc(-c4ccc(Oc5ccc(F)cc5F)cc4)c(C(N)=O)c3N)C2)CC1c1nc(C)nc([101CH2:1][101O:1]c2ccc3c(c2)CN(C(=O)C(NC(=O)C(C)NC)C(C)(C)C)C(C(=O)NC2CCCc4ccccc42)C3)c1C

> <Shape>
0.218

> <Color>
0.072

> <Negative vol penalty>
0.000

$$$$

  -OEChem-04052323073D

 82 91  0     1  0  0  0  0  0999 V2000
  -26.6588  -34.8955   24.6514 C   0  0  0  0  0  0  0  0  0  0  0  0
  -27.0892  -33.6333   24.2554 C   0  0  0  0  0  0  0  0  0  0  0  0
  -25.0523  -13.3982   22.0704 C   0  0  0  0  0  0  0  0  0  0  0  0
  -26.2907  -13.5717   20.0032 C   0  0  0  0  0  0  0  0  0  0  0  0
  -25.3233  -35.0990   24.9961 C   0  0  0  0  0  0  0  0  0  0  0  0
  -26.1845  -32.5734   24.2050 C   0  0  0  0  0  0  0  0  0  0  0  0
  -26.6562  -29.8157   19.9839 C   0  0  0  0  0  0  0  0  0  0  0  0
  -24.2487  -12.4077   21.5058 C   0  0  0  0  0  0  0  0  0  0  0  0
  -25.4872  -12.5812   19.4386 C   0  0  0  0  0  0  0  0  0  0  0  0
  -27.7124  -28.9071   19.9316 C   0  0  0  0  0  0  0  0  0  0  0  0
  -22.1034   -9.5782   20.7266 C   0  0  0  0  0  0  0  0  0  0  0  0
  -21.8369   -8.4441   21.4936 C   0  0  0  0  0  0  0  0  0  0  0  0
  -26.1930  -27.1181   20.4886 C   0  0  0  0  0  0  0  0  0  0  0  0
  -24.2022   -7.9649   21.6069 C   0  0  0  0  0  0  0  0  0  0  0  0
  -26.0733  -13.9803   21.3191 C   0  0  0  0  0  0  0  0  0  0  0  0
  -28.1076  -14.8222   22.6075 C   0  0  0  0  0  0  0  0  0  0  0  0
  -24.3996  -34.0433   24.9406 C   0  0  0  0  0  0  0  0  0  0  0  0
  -25.3603  -29.3833   20.3001 C   0  0  0  0  0  0  0  0  0  0  0  0
  -24.8356  -32.7626   24.5505 C   0  0  0  0  0  0  0  0  0  0  0  0
  -25.1217  -28.0228   20.5417 C   0  0  0  0  0  0  0  0  0  0  0  0
  -24.4661  -11.9991   20.1900 C   0  0  0  0  0  0  0  0  0  0  0  0
  -27.4814  -27.5586   20.1868 C   0  0  0  0  0  0  0  0  0  0  0  0
  -23.4193   -9.9057   20.3997 C   0  0  0  0  0  0  0  0  0  0  0  0
  -22.8862   -7.6374   21.9338 C   0  0  0  0  0  0  0  0  0  0  0  0
  -24.4687   -9.0990   20.8399 C   0  0  0  0  0  0  0  0  0  0  0  0
  -26.9033  -15.0039   21.9015 C   0  0  0  0  0  0  0  0  0  0  0  0
  -28.5007  -16.0933   22.9487 C   0  0  0  0  0  0  0  0  0  0  0  0
  -29.5623  -23.4699   17.5538 C   0  0  0  0  0  0  0  0  0  0  0  0
  -30.0732  -21.4946   16.6189 C   0  0  0  0  0  0  0  0  0  0  0  0
  -28.8312  -21.5642   18.4869 C   0  0  0  0  0  0  0  0  0  0  0  0
  -28.8084  -13.6127   22.9263 C   0  0  0  0  0  0  0  0  0  0  0  0
  -23.2990  -29.9981   22.6403 C   0  0  0  0  0  0  0  0  0  0  0  0
  -21.3117  -28.1701   20.8427 C   0  0  0  0  0  0  0  0  0  0  0  0
  -20.9621  -25.7339   18.4785 C   0  0  0  0  0  0  0  0  0  0  0  0
  -27.4290  -21.4724   20.5778 C   0  0  0  0  0  0  0  0  0  0  0  0
  -22.9764  -34.3008   25.3680 C   0  0  0  0  0  0  0  0  0  0  0  0
  -24.2269  -30.3718   20.3262 C   0  0  0  0  0  0  0  0  0  0  0  0
  -23.7452  -27.5045   20.8657 C   0  0  0  0  0  0  0  0  0  0  0  0
  -22.0017  -33.2114   24.9280 C   0  0  0  0  0  0  0  0  0  0  0  0
  -26.7184  -20.4334   23.9084 C   0  0  0  0  0  0  0  0  0  0  0  0
  -22.5739  -31.8298   25.2290 C   0  0  0  0  0  0  0  0  0  0  0  0
  -26.8008  -18.9069   23.8373 C   0  0  0  0  0  0  0  0  0  0  0  0
  -31.0052  -25.6150   17.5127 C   0  0  0  0  0  0  0  0  0  0  0  0
  -26.1129  -21.0285   22.6383 C   0  0  0  0  0  0  0  0  0  0  0  0
  -26.8386  -19.0804   21.3163 C   0  0  0  0  0  0  0  0  0  0  0  0
  -23.8790  -31.5936   24.4593 C   0  0  1  0  0  0  0  0  0  0  0  0
  -29.6462  -24.9503   17.5544 C   0  0  2  0  0  0  0  0  0  0  0  0
  -23.0419  -29.9002   21.1631 C   0  0  1  0  0  0  0  0  0  0  0  0
  -30.1962  -25.6588   18.7747 C   0  0  2  0  0  0  0  0  0  0  0  0
  -27.5018  -18.4398   22.5465 C   0  0  2  0  0  0  0  0  0  0  0  0
  -30.7456  -20.7103   15.5441 C   0  0  0  0  0  0  0  0  0  0  0  0
  -19.2141  -24.4252   17.2419 C   0  0  0  0  0  0  0  0  0  0  0  0
  -20.8250  -26.4731   23.3314 C   0  0  0  0  0  0  0  0  0  0  0  0
  -19.8748  -24.6944   21.8476 C   0  0  0  0  0  0  0  0  0  0  0  0
  -18.7807  -26.9330   21.9662 C   0  0  0  0  0  0  0  0  0  0  0  0
  -21.8727  -26.7701   15.8601 C   0  0  0  0  0  0  0  0  0  0  0  0
  -29.5804  -26.9641   19.2397 C   0  0  0  0  0  0  0  0  0  1  0  0
  -20.9926  -26.6966   20.7647 C   0  0  1  0  0  0  0  0  0  0  0  0
  -20.1035  -25.6587   17.2289 C   0  0  2  0  0  0  0  0  0  0  0  0
  -20.1447  -26.2090   21.9733 C   0  0  0  0  0  0  0  0  0  0  0  0
  -26.5542  -16.2891   21.7996 N   0  0  0  0  0  0  0  0  0  0  0  0
  -30.1921  -22.8305   16.5548 N   0  0  0  0  0  0  0  0  0  0  0  0
  -28.8641  -22.9049   18.5521 N   0  0  0  0  0  0  0  0  0  0  0  0
  -29.4105  -20.7932   17.5526 N   0  0  0  0  0  0  0  0  0  0  0  0
  -27.5450  -16.9265   22.4462 N   0  0  0  0  0  0  0  0  0  0  0  0
  -22.6710  -28.5111   20.8855 N   0  0  0  0  0  0  0  0  0  0  0  0
  -26.8304  -20.5450   21.4566 N   0  0  0  0  0  0  0  0  0  0  0  0
  -29.5671  -16.5683   23.6267 N   0  0  0  0  0  0  0  0  0  0  0  0
  -28.2650  -12.3934   22.4993 N   0  0  0  0  0  0  0  0  0  0  0  0
  -28.1112  -20.8949   19.5074 N   0  0  0  0  0  0  0  0  0  0  0  0
  -23.5992  -31.2747   23.0757 N   0  0  0  0  0  0  0  0  0  0  0  0
  -20.3608  -26.4839   19.4670 N   0  0  0  0  0  0  0  0  0  0  0  0
  -20.9628  -25.6057   16.0124 N   0  3  0  0  0  0  0  0  0  0  0  0
  -29.8760  -13.6120   23.5849 O   0  0  0  0  0  0  0  0  0  0  0  0
  -23.2286  -28.9903   23.3339 O   0  0  0  0  0  0  0  0  0  0  0  0
  -20.3890  -28.9886   20.8578 O   0  0  0  0  0  0  0  0  0  0  0  0
  -22.0551  -25.1793   18.5700 O   0  0  0  0  0  0  0  0  0  0  0  0
  -27.3659  -22.6884   20.7761 O   0  0  0  0  0  0  0  0  0  0  0  0
  -23.6824  -11.0324   19.6388 O   0  0  0  0  0  0  0  0  0  0  0  0
  -28.5107  -26.6697   20.1371 O   0  0  0  0  0  0  0  0  0  1  0  0
  -22.6302   -6.5492   22.6716 F   0  0  0  0  0  0  0  0  0  0  0  0
  -25.7350   -9.4092   20.5300 F   0  0  0  0  0  0  0  0  0  0  0  0
  1  2  1  0  0  0  0
  1  5  2  0  0  0  0
  2  6  2  0  0  0  0
  3  8  2  0  0  0  0
  3 15  1  0  0  0  0
  4  9  1  0  0  0  0
  4 15  2  0  0  0  0
  5 17  1  0  0  0  0
  6 19  1  0  0  0  0
  7 10  2  0  0  0  0
  7 18  1  0  0  0  0
  8 21  1  0  0  0  0
  9 21  2  0  0  0  0
 10 22  1  0  0  0  0
 11 12  2  0  0  0  0
 11 23  1  0  0  0  0
 12 24  1  0  0  0  0
 13 20  1  0  0  0  0
 13 22  2  0  0  0  0
 14 24  2  0  0  0  0
 14 25  1  0  0  0  0
 15 26  1  0  0  0  0
 16 26  1  0  0  0  0
 16 27  2  0  0  0  0
 16 31  1  0  0  0  0
 17 19  2  0  0  0  0
 17 36  1  0  0  0  0
 18 20  2  0  0  0  0
 18 37  1  0  0  0  0
 19 46  1  0  0  0  0
 20 38  1  0  0  0  0
 21 79  1  0  0  0  0
 22 80  1  0  0  0  0
 23 25  2  0  0  0  0
 23 79  1  0  0  0  0
 24 81  1  0  0  0  0
 25 82  1  0  0  0  0
 26 61  2  0  0  0  0
 27 65  1  0  0  0  0
 27 68  1  0  0  0  0
 28 47  1  0  0  0  0
 28 62  1  0  0  0  0
 28 63  2  0  0  0  0
 29 51  1  0  0  0  0
 29 62  2  0  0  0  0
 29 64  1  0  0  0  0
 30 63  1  0  0  0  0
 30 64  2  0  0  0  0
 30 70  1  0  0  0  0
 31 69  1  0  0  0  0
 31 74  2  0  0  0  0
 32 48  1  0  0  0  0
 32 71  1  0  0  0  0
 32 75  2  0  0  0  0
 33 58  1  0  0  0  0
 33 66  1  0  0  0  0
 33 76  2  0  0  0  0
 34 59  1  0  0  0  0
 34 72  1  0  0  0  0
 34 77  2  0  0  0  0
 35 67  1  0  0  0  0
 35 70  1  0  0  0  0
 35 78  2  0  0  0  0
 36 39  1  0  0  0  0
 37 48  1  0  0  0  0
 38 66  1  0  0  0  0
 39 41  1  0  0  0  0
 40 42  1  0  0  0  0
 40 44  1  0  0  0  0
 41 46  1  0  0  0  0
 42 50  1  0  0  0  0
 43 47  1  0  0  0  0
 43 49  1  0  0  0  0
 44 67  1  0  0  0  0
 45 50  1  0  0  0  0
 45 67  1  0  0  0  0
 46 71  1  0  0  0  0
 47 49  1  0  0  0  0
 48 66  1  0  0  0  0
 49 57  1  0  0  0  0
 50 65  1  0  0  0  0
 52 59  1  0  0  0  0
 53 60  1  0  0  0  0
 54 60  1  0  0  0  0
 55 60  1  0  0  0  0
 56 73  1  0  0  0  0
 57 80  1  0  0  0  0
 58 60  1  0  0  0  0
 58 72  1  0  0  0  0
 59 73  1  0  0  0  0
 61 65  1  0  0  0  0
M  CHG  1  73   1
M  ISO  4  35 100  57 101  70 100  80 101
M  END
> <Batch ID>
0183

> <Smiles>
CNC(C)C(=O)NC(C(=O)N1Cc2cc([101O:1][101CH2:1]C3CC3c3nc(C)nc([100NH:0][100C:0](=O)N4CCCC(n5nc(-c6ccc(Oc7ccc(F)cc7F)cc6)c(C(N)=O)c5N)C4)n3)ccc2CC1C(=O)NC1CCCc2ccccc21)C(C)(C)C

> <Shape>
0.289

> <Color>
0.106

> <Negative vol penalty>
0.000

$$$$

  -OEChem-04052323073D

 83 92  0     1  0  0  0  0  0999 V2000
  -27.7710  -31.2288   19.6710 C   0  0  0  0  0  0  0  0  0  0  0  0
  -28.5675  -30.2248   20.2124 C   0  0  0  0  0  0  0  0  0  0  0  0
  -23.0791   -9.8579   19.9487 C   0  0  0  0  0  0  0  0  0  0  0  0
  -23.8338   -9.8803   22.2436 C   0  0  0  0  0  0  0  0  0  0  0  0
  -26.7162  -31.7571   20.4141 C   0  0  0  0  0  0  0  0  0  0  0  0
  -28.3103  -29.7494   21.4978 C   0  0  0  0  0  0  0  0  0  0  0  0
  -28.4791  -24.6954   21.7696 C   0  0  0  0  0  0  0  0  0  0  0  0
  -22.3368   -8.7050   20.2040 C   0  0  0  0  0  0  0  0  0  0  0  0
  -23.0914   -8.7273   22.4990 C   0  0  0  0  0  0  0  0  0  0  0  0
  -29.7399  -24.1017   21.8101 C   0  0  0  0  0  0  0  0  0  0  0  0
  -19.8634   -7.9273   23.0991 C   0  0  0  0  0  0  0  0  0  0  0  0
  -19.1039   -7.8931   24.2686 C   0  0  0  0  0  0  0  0  0  0  0  0
  -29.5401  -23.8545   24.2014 C   0  0  0  0  0  0  0  0  0  0  0  0
  -20.3472   -5.9624   25.0196 C   0  0  0  0  0  0  0  0  0  0  0  0
  -32.2254  -18.5112   21.8855 C   0  0  0  0  0  0  0  0  0  0  0  0
  -23.8277  -10.4456   20.9685 C   0  0  0  0  0  0  0  0  0  0  0  0
  -24.1652  -12.9706   20.8339 C   0  0  0  0  0  0  0  0  0  0  0  0
  -26.4400  -31.2811   21.7055 C   0  0  0  0  0  0  0  0  0  0  0  0
  -27.7427  -24.8833   22.9481 C   0  0  0  0  0  0  0  0  0  0  0  0
  -27.2516  -30.2728   22.2594 C   0  0  0  0  0  0  0  0  0  0  0  0
  -28.2691  -24.4485   24.1728 C   0  0  0  0  0  0  0  0  0  0  0  0
  -31.4867  -19.3523   22.6925 C   0  0  0  0  0  0  0  0  0  0  0  0
  -22.3429   -8.1397   21.4791 C   0  0  0  0  0  0  0  0  0  0  0  0
  -30.2718  -23.6838   23.0264 C   0  0  0  0  0  0  0  0  0  0  0  0
  -20.8647   -6.9790   22.8898 C   0  0  0  0  0  0  0  0  0  0  0  0
  -19.3458   -6.9107   25.2288 C   0  0  0  0  0  0  0  0  0  0  0  0
  -21.1066   -5.9966   23.8501 C   0  0  0  0  0  0  0  0  0  0  0  0
  -24.5952  -11.6363   20.7052 C   0  0  0  0  0  0  0  0  0  0  0  0
  -30.2403  -18.8864   23.0581 C   0  0  0  0  0  0  0  0  0  0  0  0
  -25.2568  -13.7198   20.4685 C   0  0  0  0  0  0  0  0  0  0  0  0
  -30.5594  -16.9648   21.8865 C   0  0  0  0  0  0  0  0  0  0  0  0
  -22.8929  -13.4866   21.2468 C   0  0  0  0  0  0  0  0  0  0  0  0
  -26.6165  -27.4121   24.5103 C   0  0  0  0  0  0  0  0  0  0  0  0
  -25.2197  -25.1523   26.3716 C   0  0  0  0  0  0  0  0  0  0  0  0
  -25.2324  -21.9440   27.5350 C   0  0  0  0  0  0  0  0  0  0  0  0
  -30.7207  -14.7764   20.6490 C   0  0  0  0  0  0  0  0  0  0  0  0
  -25.3183  -31.9161   22.4887 C   0  0  0  0  0  0  0  0  0  0  0  0
  -26.3728  -25.5011   22.8841 C   0  0  0  0  0  0  0  0  0  0  0  0
  -27.5102  -24.6089   25.4639 C   0  0  0  0  0  0  0  0  0  0  0  0
  -24.8799  -31.0956   23.6990 C   0  0  0  0  0  0  0  0  0  0  0  0
  -29.6160  -12.3462   18.2930 C   0  0  0  0  0  0  0  0  0  0  0  0
  -26.0944  -30.6229   24.4918 C   0  0  0  0  0  0  0  0  0  0  0  0
  -28.1759  -12.0546   18.7211 C   0  0  0  0  0  0  0  0  0  0  0  0
  -33.0732  -21.3507   22.2859 C   0  0  0  0  0  0  0  0  0  0  0  0
  -30.5280  -12.5840   19.4953 C   0  0  0  0  0  0  0  0  0  0  0  0
  -28.6166  -13.3134   20.8678 C   0  0  0  0  0  0  0  0  0  0  0  0
  -32.0193  -20.6664   23.1248 C   0  0  1  0  0  0  0  0  0  0  0  0
  -26.9889  -29.7135   23.6408 C   0  0  1  0  0  0  0  0  0  0  0  0
  -25.9293  -26.1099   24.2108 C   0  0  1  0  0  0  0  0  0  0  0  0
  -27.6467  -13.1312   19.6889 C   0  0  2  0  0  0  0  0  0  0  0  0
  -31.6808  -21.9026   22.3207 C   0  0  1  0  0  0  0  0  0  1  0  0
  -29.0414  -19.0200   25.2713 C   0  0  0  0  0  0  0  0  0  0  0  0
  -28.0379  -20.1008   23.2269 C   0  0  0  0  0  0  0  0  0  0  0  0
  -23.9866  -20.4014   29.0731 C   0  0  0  0  0  0  0  0  0  0  0  0
  -26.4998  -26.5225   28.7786 C   0  0  0  0  0  0  0  0  0  0  0  0
  -26.0319  -24.4577   30.1149 C   0  0  0  0  0  0  0  0  0  0  0  0
  -24.1440  -25.7649   29.1403 C   0  0  0  0  0  0  0  0  0  0  0  0
  -24.5578  -20.0961   25.3239 C   0  0  0  0  0  0  0  0  0  0  0  0
  -29.3506  -19.7100   23.9301 C   0  0  0  0  0  0  0  0  0  0  0  0
  -25.6201  -24.3931   27.6134 C   0  0  1  0  0  0  0  0  0  0  0  0
  -24.1280  -20.9085   27.6464 C   0  0  2  0  0  0  0  0  0  0  0  0
  -25.5893  -25.2831   28.8879 C   0  0  0  0  0  0  0  0  0  0  0  0
  -31.7910  -17.3061   21.4621 N   0  0  0  0  0  0  0  0  0  0  0  0
  -25.8611  -11.5402   20.2904 N   0  0  0  0  0  0  0  0  0  0  0  0
  -29.7430  -17.6932   22.6717 N   0  0  0  0  0  0  0  0  0  0  0  0
  -26.2360  -12.8237   20.1551 N   0  0  0  0  0  0  0  0  0  0  0  0
  -26.1776  -25.2243   25.3502 N   0  0  0  0  0  0  0  0  0  0  0  0
  -29.9652  -13.6191   20.3651 N   0  0  0  0  0  0  0  0  0  0  0  0
  -25.4650  -15.0512   20.3878 N   0  0  0  0  0  0  0  0  0  0  0  0
  -21.8818  -12.5777   21.5873 N   0  0  0  0  0  0  0  0  0  0  0  0
  -30.0698  -15.7053   21.4603 N   0  0  0  0  0  0  0  0  0  0  0  0
  -26.4194  -28.3861   23.5500 N   0  0  0  0  0  0  0  0  0  0  0  0
  -24.7465  -23.2265   27.6781 N   0  0  0  0  0  0  0  0  0  0  0  0
  -24.4171  -19.7454   26.7606 N   0  3  0  0  0  0  0  0  0  0  0  0
  -22.6542  -14.7171   21.2961 O   0  0  0  0  0  0  0  0  0  0  0  0
  -27.2754  -27.5254   25.5372 O   0  0  0  0  0  0  0  0  0  0  0  0
  -24.0958  -25.6566   26.3071 O   0  0  0  0  0  0  0  0  0  0  0  0
  -26.4091  -21.6449   27.3441 O   0  0  0  0  0  0  0  0  0  0  0  0
  -31.8505  -14.9444   20.1829 O   0  0  0  0  0  0  0  0  0  0  0  0
  -21.6184   -7.0148   21.7287 O   0  0  0  0  0  0  0  0  0  0  0  0
  -31.5025  -23.1046   23.0688 O   0  0  0  0  0  0  0  0  0  1  0  0
  -18.6174   -6.8789   26.3524 F   0  0  0  0  0  0  0  0  0  0  0  0
  -22.0681   -5.0837   23.6552 F   0  0  0  0  0  0  0  0  0  0  0  0
  1  2  1  0  0  0  0
  1  5  2  0  0  0  0
  2  6  2  0  0  0  0
  3  8  2  0  0  0  0
  3 16  1  0  0  0  0
  4  9  1  0  0  0  0
  4 16  2  0  0  0  0
  5 18  1  0  0  0  0
  6 20  1  0  0  0  0
  7 10  2  0  0  0  0
  7 19  1  0  0  0  0
  8 23  1  0  0  0  0
  9 23  2  0  0  0  0
 10 24  1  0  0  0  0
 11 12  2  0  0  0  0
 11 25  1  0  0  0  0
 12 26  1  0  0  0  0
 13 21  1  0  0  0  0
 13 24  2  0  0  0  0
 14 26  2  0  0  0  0
 14 27  1  0  0  0  0
 15 22  1  0  0  0  0
 15 63  2  0  0  0  0
 16 28  1  0  0  0  0
 17 28  1  0  0  0  0
 17 30  2  0  0  0  0
 17 32  1  0  0  0  0
 18 20  2  0  0  0  0
 18 37  1  0  0  0  0
 19 21  2  0  0  0  0
 19 38  1  0  0  0  0
 20 48  1  0  0  0  0
 21 39  1  0  0  0  0
 22 29  2  0  0  0  0
 22 47  1  0  0  0  0
 23 80  1  0  0  0  0
 24 81  1  0  0  0  0
 25 27  2  0  0  0  0
 25 80  1  0  0  0  0
 26 82  1  0  0  0  0
 27 83  1  0  0  0  0
 28 64  2  0  0  0  0
 29 59  1  0  0  0  0
 29 65  1  0  0  0  0
 30 66  1  0  0  0  0
 30 69  1  0  0  0  0
 31 63  1  0  0  0  0
 31 65  2  0  0  0  0
 31 71  1  0  0  0  0
 32 70  1  0  0  0  0
 32 75  2  0  0  0  0
 33 49  1  0  0  0  0
 33 72  1  0  0  0  0
 33 76  2  0  0  0  0
 34 60  1  0  0  0  0
 34 67  1  0  0  0  0
 34 77  2  0  0  0  0
 35 61  1  0  0  0  0
 35 73  1  0  0  0  0
 35 78  2  0  0  0  0
 36 68  1  0  0  0  0
 36 71  1  0  0  0  0
 36 79  2  0  0  0  0
 37 40  1  0  0  0  0
 38 49  1  0  0  0  0
 39 67  1  0  0  0  0
 40 42  1  0  0  0  0
 41 43  1  0  0  0  0
 41 45  1  0  0  0  0
 42 48  1  0  0  0  0
 43 50  1  0  0  0  0
 44 47  1  0  0  0  0
 44 51  1  0  0  0  0
 45 68  1  0  0  0  0
 46 50  1  0  0  0  0
 46 68  1  0  0  0  0
 47 51  1  0  0  0  0
 48 72  1  0  0  0  0
 49 67  1  0  0  0  0
 50 66  1  0  0  0  0
 51 81  1  0  0  0  0
 52 59  1  0  0  0  0
 53 59  1  0  0  0  0
 54 61  1  0  0  0  0
 55 62  1  0  0  0  0
 56 62  1  0  0  0  0
 57 62  1  0  0  0  0
 58 74  1  0  0  0  0
 60 62  1  0  0  0  0
 60 73  1  0  0  0  0
 61 74  1  0  0  0  0
 64 66  1  0  0  0  0
M  CHG  1  74   1
M  ISO  4  36 100  51 101  71 100  81 101
M  END
> <Batch ID>
0183

> <Smiles>
CNC(C)C(=O)NC(C(=O)N1Cc2cc([101O:1][101CH:1]3CC3c3cnc([100NH:0][100C:0](=O)N4CCCC(n5nc(-c6ccc(Oc7ccc(F)cc7F)cc6)c(C(N)=O)c5N)C4)nc3C(C)C)ccc2CC1C(=O)NC1CCCc2ccccc21)C(C)(C)C

> <Shape>
0.229

> <Color>
0.188

> <Negative vol penalty>
0.000

$$$$
