
  -OEChem-04052323103D

 83 92  0     1  0  0  0  0  0999 V2000
  -29.6855  -36.3320   22.9386 C   0  0  0  0  0  0  0  0  0  0  0  0
  -29.7976  -35.0810   22.3402 C   0  0  0  0  0  0  0  0  0  0  0  0
  -24.1169   -9.6614   21.7196 C   0  0  0  0  0  0  0  0  0  0  0  0
  -23.5163  -11.5630   23.0834 C   0  0  0  0  0  0  0  0  0  0  0  0
  -28.7632  -36.5325   23.9648 C   0  0  0  0  0  0  0  0  0  0  0  0
  -28.9880  -34.0295   22.7684 C   0  0  0  0  0  0  0  0  0  0  0  0
  -26.6532  -29.5401   19.3188 C   0  0  0  0  0  0  0  0  0  0  0  0
  -23.4976   -8.8097   22.6342 C   0  0  0  0  0  0  0  0  0  0  0  0
  -22.8969  -10.7113   23.9981 C   0  0  0  0  0  0  0  0  0  0  0  0
  -27.0573  -28.2253   19.0912 C   0  0  0  0  0  0  0  0  0  0  0  0
  -20.3500   -7.8379   23.3967 C   0  0  0  0  0  0  0  0  0  0  0  0
  -19.5258   -6.8326   22.8911 C   0  0  0  0  0  0  0  0  0  0  0  0
  -25.5260  -27.4664   20.7937 C   0  0  0  0  0  0  0  0  0  0  0  0
  -20.9336   -5.1607   23.9207 C   0  0  0  0  0  0  0  0  0  0  0  0
  -27.3467  -23.2622   17.9584 C   0  0  0  0  0  0  0  0  0  0  0  0
  -29.2542  -23.5582   19.0215 C   0  0  0  0  0  0  0  0  0  0  0  0
  -24.1263  -11.0380   21.9442 C   0  0  0  0  0  0  0  0  0  0  0  0
  -24.1784  -12.5360   19.8800 C   0  0  0  0  0  0  0  0  0  0  0  0
  -27.9352  -35.4854   24.3992 C   0  0  0  0  0  0  0  0  0  0  0  0
  -25.6888  -29.8296   20.2948 C   0  0  0  0  0  0  0  0  0  0  0  0
  -28.0547  -34.2159   23.8023 C   0  0  0  0  0  0  0  0  0  0  0  0
  -25.1095  -28.7855   21.0299 C   0  0  0  0  0  0  0  0  0  0  0  0
  -22.8875   -9.3347   23.7735 C   0  0  0  0  0  0  0  0  0  0  0  0
  -26.4957  -27.1885   19.8307 C   0  0  0  0  0  0  0  0  0  0  0  0
  -21.4660   -7.5047   24.1642 C   0  0  0  0  0  0  0  0  0  0  0  0
  -19.8176   -5.4940   23.1531 C   0  0  0  0  0  0  0  0  0  0  0  0
  -21.7578   -6.1661   24.4263 C   0  0  0  0  0  0  0  0  0  0  0  0
  -24.7665  -11.9183   21.0000 C   0  0  0  0  0  0  0  0  0  0  0  0
  -28.0143  -22.0731   18.1341 C   0  0  0  0  0  0  0  0  0  0  0  0
  -25.1970  -13.2640   19.3151 C   0  0  0  0  0  0  0  0  0  0  0  0
  -22.8318  -12.4589   19.3937 C   0  0  0  0  0  0  0  0  0  0  0  0
  -25.6557  -31.5281   22.9813 C   0  0  0  0  0  0  0  0  0  0  0  0
  -22.4892  -30.8262   22.9268 C   0  0  0  0  0  0  0  0  0  0  0  0
  -20.0001  -28.7491   21.8606 C   0  0  0  0  0  0  0  0  0  0  0  0
  -29.5523  -16.7211   19.7901 C   0  0  0  0  0  0  0  0  0  0  0  0
  -26.9862  -35.7376   25.5440 C   0  0  0  0  0  0  0  0  0  0  0  0
  -25.2443  -31.2504   20.5096 C   0  0  0  0  0  0  0  0  0  0  0  0
  -24.0557  -29.0411   22.0752 C   0  0  0  0  0  0  0  0  0  0  0  0
  -25.9039  -34.6704   25.6844 C   0  0  0  0  0  0  0  0  0  0  0  0
  -30.1683  -13.2446   20.2493 C   0  0  0  0  0  0  0  0  0  0  0  0
  -26.5137  -33.2756   25.5875 C   0  0  0  0  0  0  0  0  0  0  0  0
  -28.7703  -12.6420   20.3993 C   0  0  0  0  0  0  0  0  0  0  0  0
  -27.5170  -19.7232   18.8804 C   0  0  0  0  0  0  0  0  0  0  0  0
  -30.2615  -14.6230   20.8998 C   0  0  0  0  0  0  0  0  0  0  0  0
  -27.8420  -14.9862   20.6036 C   0  0  0  0  0  0  0  0  0  0  0  0
  -28.7935  -18.6531   17.1775 C   0  0  0  0  0  0  0  0  0  0  0  0
  -27.1768  -33.0569   24.2222 C   0  0  1  0  0  0  0  0  0  0  0  0
  -27.6017  -20.7264   17.7105 C   0  0  2  0  0  0  0  0  0  0  0  0
  -24.6283  -31.4822   21.8859 C   0  0  1  0  0  0  0  0  0  0  0  0
  -27.6832  -13.6201   19.9146 C   0  0  2  0  0  0  0  0  0  0  0  0
  -28.6881  -18.7676   18.6837 C   0  0  2  0  0  0  0  0  0  0  0  0
  -17.5178  -28.4115   22.0080 C   0  0  0  0  0  0  0  0  0  0  0  0
  -22.8067  -29.7497   25.7641 C   0  0  0  0  0  0  0  0  0  0  0  0
  -20.6021  -28.5935   25.4975 C   0  0  0  0  0  0  0  0  0  0  0  0
  -20.7254  -31.0823   25.3806 C   0  0  0  0  0  0  0  0  0  0  0  0
  -28.2293  -20.2231   15.2908 C   0  0  0  0  0  0  0  0  0  0  0  0
  -19.6704  -29.0351   18.9334 C   0  0  0  0  0  0  0  0  0  0  0  0
  -27.8830  -25.6836   18.6065 C   0  0  0  0  0  0  0  0  0  1  0  0
  -21.6333  -29.7050   23.4647 C   0  0  1  0  0  0  0  0  0  0  0  0
  -18.6560  -29.0358   21.2158 C   0  0  2  0  0  0  0  0  0  0  0  0
  -21.4631  -29.7777   25.0085 C   0  0  0  0  0  0  0  0  0  0  0  0
  -29.2008  -22.2642   18.7968 N   0  0  0  0  0  0  0  0  0  0  0  0
  -26.0585  -12.2267   21.1398 N   0  0  0  0  0  0  0  0  0  0  0  0
  -28.1530  -24.2043   18.5324 N   0  0  0  0  0  0  0  0  0  0  0  0
  -26.2907  -13.0462   20.1003 N   0  0  0  0  0  0  0  0  0  0  0  0
  -23.6590  -30.4478   22.2527 N   0  0  0  0  0  0  0  0  0  0  0  0
  -29.2040  -15.5026   20.3960 N   0  0  0  0  0  0  0  0  0  0  0  0
  -25.2549  -14.0626   18.2283 N   0  0  0  0  0  0  0  0  0  0  0  0
  -21.9130  -11.6654   20.0941 N   0  0  0  0  0  0  0  0  0  0  0  0
  -26.1763  -32.7872   23.2119 N   0  0  0  0  0  0  0  0  0  0  0  0
  -20.3786  -29.7569   22.7221 N   0  0  0  0  0  0  0  0  0  0  0  0
  -28.4896  -17.4917   19.3345 N   0  0  0  0  0  0  0  0  0  0  0  0
  -28.5982  -20.0835   16.7338 N   0  3  2  0  0  0  0  0  0  0  0  0
  -18.6191  -28.4892   19.8299 N   0  3  0  0  0  0  0  0  0  0  0  0
  -22.4587  -13.0622   18.3592 O   0  0  0  0  0  0  0  0  0  0  0  0
  -25.9529  -30.4978   23.5745 O   0  0  0  0  0  0  0  0  0  0  0  0
  -22.1294  -31.9944   23.0921 O   0  0  0  0  0  0  0  0  0  0  0  0
  -20.6476  -27.7311   21.6264 O   0  0  0  0  0  0  0  0  0  0  0  0
  -30.7237  -17.0921   19.6598 O   0  0  0  0  0  0  0  0  0  0  0  0
  -22.2829   -8.5039   24.6661 O   0  0  0  0  0  0  0  0  0  0  0  0
  -26.8888  -25.9044   19.6110 O   0  0  0  0  0  0  0  0  0  1  0  0
  -19.0252   -4.5288   22.6688 F   0  0  0  0  0  0  0  0  0  0  0  0
  -22.8279   -5.8398   25.1640 F   0  0  0  0  0  0  0  0  0  0  0  0
  1  2  1  0  0  0  0
  1  5  2  0  0  0  0
  2  6  2  0  0  0  0
  3  8  2  0  0  0  0
  3 17  1  0  0  0  0
  4  9  1  0  0  0  0
  4 17  2  0  0  0  0
  5 19  1  0  0  0  0
  6 21  1  0  0  0  0
  7 10  2  0  0  0  0
  7 20  1  0  0  0  0
  8 23  1  0  0  0  0
  9 23  2  0  0  0  0
 10 24  1  0  0  0  0
 11 12  2  0  0  0  0
 11 25  1  0  0  0  0
 12 26  1  0  0  0  0
 13 22  1  0  0  0  0
 13 24  2  0  0  0  0
 14 26  2  0  0  0  0
 14 27  1  0  0  0  0
 15 29  2  0  0  0  0
 15 64  1  0  0  0  0
 16 62  2  0  0  0  0
 16 64  1  0  0  0  0
 17 28  1  0  0  0  0
 18 28  1  0  0  0  0
 18 30  2  0  0  0  0
 18 31  1  0  0  0  0
 19 21  2  0  0  0  0
 19 36  1  0  0  0  0
 20 22  2  0  0  0  0
 20 37  1  0  0  0  0
 21 47  1  0  0  0  0
 22 38  1  0  0  0  0
 23 80  1  0  0  0  0
 24 81  1  0  0  0  0
 25 27  2  0  0  0  0
 25 80  1  0  0  0  0
 26 82  1  0  0  0  0
 27 83  1  0  0  0  0
 28 63  2  0  0  0  0
 29 48  1  0  0  0  0
 29 62  1  0  0  0  0
 30 65  1  0  0  0  0
 30 68  1  0  0  0  0
 31 69  1  0  0  0  0
 31 75  2  0  0  0  0
 32 49  1  0  0  0  0
 32 70  1  0  0  0  0
 32 76  2  0  0  0  0
 33 59  1  0  0  0  0
 33 66  1  0  0  0  0
 33 77  2  0  0  0  0
 34 60  1  0  0  0  0
 34 71  1  0  0  0  0
 34 78  2  0  0  0  0
 35 67  1  0  0  0  0
 35 72  1  0  0  0  0
 35 79  2  0  0  0  0
 36 39  1  0  0  0  0
 37 49  1  0  0  0  0
 38 66  1  0  0  0  0
 39 41  1  0  0  0  0
 40 42  1  0  0  0  0
 40 44  1  0  0  0  0
 41 47  1  0  0  0  0
 42 50  1  0  0  0  0
 43 48  1  0  0  0  0
 43 51  1  0  0  0  0
 44 67  1  0  0  0  0
 45 50  1  0  0  0  0
 45 67  1  0  0  0  0
 46 51  1  0  0  0  0
 46 73  1  0  0  0  0
 47 70  1  0  0  0  0
 48 73  1  0  0  0  0
 49 66  1  0  0  0  0
 50 65  1  0  0  0  0
 51 72  1  0  0  0  0
 52 60  1  0  0  0  0
 53 61  1  0  0  0  0
 54 61  1  0  0  0  0
 55 61  1  0  0  0  0
 56 73  1  0  0  0  0
 57 74  1  0  0  0  0
 58 64  1  0  0  0  0
 58 81  1  0  0  0  0
 59 61  1  0  0  0  0
 59 71  1  0  0  0  0
 60 74  1  0  0  0  0
 63 65  1  0  0  0  0
M  CHG  2  73   1  74   1
M  ISO  4  35 100  58 101  72 100  81 101
M  END
> <Batch ID>
0184

> <Smiles>
CNC(C)C(=O)NC(C(=O)N1Cc2cc([101O:1][101CH2:1]n3cnc(C4CC([100NH:0][100C:0](=O)N5CCCC(n6nc(-c7ccc(Oc8ccc(F)cc8F)cc7)c(C(N)=O)c6N)C5)CN4C)c3)ccc2CC1C(=O)NC1CCCc2ccccc21)C(C)(C)C

> <Shape>
0.298

> <Color>
0.092

> <Negative vol penalty>
0.000

$$$$

  -OEChem-04052323103D

 85 94  0     1  0  0  0  0  0999 V2000
  -28.2586  -36.6882   24.3413 C   0  0  0  0  0  0  0  0  0  0  0  0
  -28.6764  -35.4808   23.7908 C   0  0  0  0  0  0  0  0  0  0  0  0
  -22.9207   -9.5626   20.0108 C   0  0  0  0  0  0  0  0  0  0  0  0
  -23.5532   -9.5992   22.3423 C   0  0  0  0  0  0  0  0  0  0  0  0
  -27.0327  -36.7651   25.0010 C   0  0  0  0  0  0  0  0  0  0  0  0
  -27.8690  -34.3492   23.9007 C   0  0  0  0  0  0  0  0  0  0  0  0
  -27.2344  -29.8648   19.7784 C   0  0  0  0  0  0  0  0  0  0  0  0
  -22.7835   -8.1758   20.0698 C   0  0  0  0  0  0  0  0  0  0  0  0
  -23.4160   -8.2124   22.4013 C   0  0  0  0  0  0  0  0  0  0  0  0
  -27.8083  -28.5986   19.6741 C   0  0  0  0  0  0  0  0  0  0  0  0
  -20.9021   -5.9684   22.6567 C   0  0  0  0  0  0  0  0  0  0  0  0
  -20.2275   -5.4315   23.7531 C   0  0  0  0  0  0  0  0  0  0  0  0
  -25.8722  -27.6392   20.7466 C   0  0  0  0  0  0  0  0  0  0  0  0
  -22.2056   -4.1837   24.3593 C   0  0  0  0  0  0  0  0  0  0  0  0
  -23.3056  -10.2743   21.1471 C   0  0  0  0  0  0  0  0  0  0  0  0
  -22.4547  -12.6714   21.3412 C   0  0  0  0  0  0  0  0  0  0  0  0
  -26.2055  -35.6362   25.1107 C   0  0  0  0  0  0  0  0  0  0  0  0
  -25.9777  -30.0294   20.3785 C   0  0  0  0  0  0  0  0  0  0  0  0
  -26.6315  -34.4108   24.5637 C   0  0  0  0  0  0  0  0  0  0  0  0
  -25.2834  -28.9083   20.8550 C   0  0  0  0  0  0  0  0  0  0  0  0
  -23.0312   -7.5007   21.2650 C   0  0  0  0  0  0  0  0  0  0  0  0
  -27.1285  -27.4859   20.1608 C   0  0  0  0  0  0  0  0  0  0  0  0
  -22.2285   -5.6129   22.4115 C   0  0  0  0  0  0  0  0  0  0  0  0
  -20.8792   -4.5392   24.6045 C   0  0  0  0  0  0  0  0  0  0  0  0
  -22.8802   -4.7206   23.2628 C   0  0  0  0  0  0  0  0  0  0  0  0
  -23.4480  -11.7069   21.0866 C   0  0  0  0  0  0  0  0  0  0  0  0
  -30.2557  -22.8473   19.7945 C   0  0  0  0  0  0  0  0  0  0  0  0
  -30.2791  -24.1476   20.2324 C   0  0  0  0  0  0  0  0  0  0  0  0
  -23.0883  -13.8751   21.1512 C   0  0  0  0  0  0  0  0  0  0  0  0
  -21.0821  -12.4950   21.7159 C   0  0  0  0  0  0  0  0  0  0  0  0
  -24.8971  -31.5864   22.9303 C   0  0  0  0  0  0  0  0  0  0  0  0
  -22.0073  -30.6415   21.7995 C   0  0  0  0  0  0  0  0  0  0  0  0
  -20.2149  -28.4301   19.9170 C   0  0  0  0  0  0  0  0  0  0  0  0
  -28.8809  -15.2890   21.5412 C   0  0  0  0  0  0  0  0  0  0  0  0
  -24.9104  -35.7567   25.8741 C   0  0  0  0  0  0  0  0  0  0  0  0
  -25.3605  -31.3987   20.4593 C   0  0  0  0  0  0  0  0  0  0  0  0
  -23.9227  -29.0289   21.4895 C   0  0  0  0  0  0  0  0  0  0  0  0
  -23.9444  -34.6022   25.6209 C   0  0  0  0  0  0  0  0  0  0  0  0
  -26.6613  -15.8812   18.6834 C   0  0  0  0  0  0  0  0  0  0  0  0
  -24.6751  -33.2660   25.7073 C   0  0  0  0  0  0  0  0  0  0  0  0
  -25.4978  -14.9408   19.0015 C   0  0  0  0  0  0  0  0  0  0  0  0
  -27.9851  -15.2888   19.1515 C   0  0  0  0  0  0  0  0  0  0  0  0
  -30.5719  -17.0576   22.2693 C   0  0  0  0  0  0  0  0  0  0  0  0
  -29.3376  -17.7138   20.6660 C   0  0  0  0  0  0  0  0  0  0  0  0
  -26.8661  -13.9986   20.9247 C   0  0  0  0  0  0  0  0  0  0  0  0
  -25.7724  -33.1673   24.6407 C   0  0  1  0  0  0  0  0  0  0  0  0
  -24.3025  -31.5137   21.5523 C   0  0  1  0  0  0  0  0  0  0  0  0
  -29.9871  -18.4230   21.8694 C   0  0  0  0  0  0  0  0  0  0  0  0
  -25.4931  -14.5427   20.4890 C   0  0  2  0  0  0  0  0  0  0  0  0
  -31.0466  -24.8307   21.2858 C   0  0  0  0  0  0  0  0  0  0  0  0
  -17.8669  -27.8918   19.2139 C   0  0  0  0  0  0  0  0  0  0  0  0
  -31.8299  -19.9011   22.7598 C   0  0  0  0  0  0  0  0  0  0  0  0
  -21.4563  -29.4555   24.5563 C   0  0  0  0  0  0  0  0  0  0  0  0
  -19.5810  -28.1442   23.5405 C   0  0  0  0  0  0  0  0  0  0  0  0
  -19.5106  -30.6377   23.5214 C   0  0  0  0  0  0  0  0  0  0  0  0
  -20.8559  -28.8324   17.0558 C   0  0  0  0  0  0  0  0  0  0  0  0
  -31.0444  -21.6671   20.2804 C   0  0  0  0  0  0  0  0  0  0  0  0
  -28.9747  -26.1564   19.4453 C   0  0  0  0  0  0  0  0  0  1  0  0
  -21.1261  -29.4316   21.9958 C   0  0  1  0  0  0  0  0  0  0  0  0
  -19.1427  -28.6416   18.8634 C   0  0  2  0  0  0  0  0  0  0  0  0
  -30.9850  -19.5187   21.5530 C   0  0  2  0  0  0  0  0  0  0  0  0
  -20.4450  -29.4149   23.3933 C   0  0  0  0  0  0  0  0  0  0  0  0
  -24.6233  -12.2509   20.7597 N   0  0  0  0  0  0  0  0  0  0  0  0
  -29.3548  -22.7224   18.7736 N   0  0  0  0  0  0  0  0  0  0  0  0
  -28.8123  -23.9161   18.5596 N   0  0  0  0  0  0  0  0  0  0  0  0
  -29.3680  -24.7693   19.4352 N   0  0  0  0  0  0  0  0  0  0  0  0
  -24.3725  -13.5703   20.8075 N   0  0  0  0  0  0  0  0  0  0  0  0
  -23.3640  -30.3896   21.5511 N   0  0  0  0  0  0  0  0  0  0  0  0
  -27.9300  -14.9460   20.5761 N   0  0  0  0  0  0  0  0  0  0  0  0
  -29.5661  -16.4711   21.3878 N   0  0  0  0  0  0  0  0  0  0  0  0
  -22.6666  -15.1540   21.2463 N   0  0  0  0  0  0  0  0  0  0  0  0
  -20.5934  -11.1903   21.8682 N   0  0  0  0  0  0  0  0  0  0  0  0
  -25.1949  -32.8697   23.3475 N   0  0  0  0  0  0  0  0  0  0  0  0
  -20.1917  -29.4211   20.8755 N   0  0  0  0  0  0  0  0  0  0  0  0
  -19.6198  -28.1624   17.5354 N   0  3  0  0  0  0  0  0  0  0  0  0
  -30.2390  -20.7270   21.1018 N   0  3  0  0  0  0  0  0  0  0  0  0
  -20.3074  -13.4654   21.8939 O   0  0  0  0  0  0  0  0  0  0  0  0
  -25.0714  -30.5548   23.5684 O   0  0  0  0  0  0  0  0  0  0  0  0
  -21.5089  -31.7684   21.8573 O   0  0  0  0  0  0  0  0  0  0  0  0
  -20.9927  -27.4788   19.8942 O   0  0  0  0  0  0  0  0  0  0  0  0
  -29.0917  -14.5761   22.5315 O   0  0  0  0  0  0  0  0  0  0  0  0
  -22.8972   -6.1474   21.3230 O   0  0  0  0  0  0  0  0  0  0  0  0
  -27.6904  -26.2408   20.0602 O   0  0  0  0  0  0  0  0  0  1  0  0
  -20.2317   -4.0249   25.6582 F   0  0  0  0  0  0  0  0  0  0  0  0
  -24.1548   -4.3763   23.0331 F   0  0  0  0  0  0  0  0  0  0  0  0
  1  2  1  0  0  0  0
  1  5  2  0  0  0  0
  2  6  2  0  0  0  0
  3  8  2  0  0  0  0
  3 15  1  0  0  0  0
  4  9  1  0  0  0  0
  4 15  2  0  0  0  0
  5 17  1  0  0  0  0
  6 19  1  0  0  0  0
  7 10  2  0  0  0  0
  7 18  1  0  0  0  0
  8 21  1  0  0  0  0
  9 21  2  0  0  0  0
 10 22  1  0  0  0  0
 11 12  2  0  0  0  0
 11 23  1  0  0  0  0
 12 24  1  0  0  0  0
 13 20  1  0  0  0  0
 13 22  2  0  0  0  0
 14 24  2  0  0  0  0
 14 25  1  0  0  0  0
 15 26  1  0  0  0  0
 16 26  1  0  0  0  0
 16 29  2  0  0  0  0
 16 30  1  0  0  0  0
 17 19  2  0  0  0  0
 17 35  1  0  0  0  0
 18 20  2  0  0  0  0
 18 36  1  0  0  0  0
 19 46  1  0  0  0  0
 20 37  1  0  0  0  0
 21 82  1  0  0  0  0
 22 83  1  0  0  0  0
 23 25  2  0  0  0  0
 23 82  1  0  0  0  0
 24 84  1  0  0  0  0
 25 85  1  0  0  0  0
 26 63  2  0  0  0  0
 27 28  2  0  0  0  0
 27 57  1  0  0  0  0
 27 64  1  0  0  0  0
 28 50  1  0  0  0  0
 28 66  1  0  0  0  0
 29 67  1  0  0  0  0
 29 71  1  0  0  0  0
 30 72  1  0  0  0  0
 30 77  2  0  0  0  0
 31 47  1  0  0  0  0
 31 73  1  0  0  0  0
 31 78  2  0  0  0  0
 32 59  1  0  0  0  0
 32 68  1  0  0  0  0
 32 79  2  0  0  0  0
 33 60  1  0  0  0  0
 33 74  1  0  0  0  0
 33 80  2  0  0  0  0
 34 69  1  0  0  0  0
 34 70  1  0  0  0  0
 34 81  2  0  0  0  0
 35 38  1  0  0  0  0
 36 47  1  0  0  0  0
 37 68  1  0  0  0  0
 38 40  1  0  0  0  0
 39 41  1  0  0  0  0
 39 42  1  0  0  0  0
 40 46  1  0  0  0  0
 41 49  1  0  0  0  0
 42 69  1  0  0  0  0
 43 48  1  0  0  0  0
 43 70  1  0  0  0  0
 44 48  1  0  0  0  0
 44 70  1  0  0  0  0
 45 49  1  0  0  0  0
 45 69  1  0  0  0  0
 46 73  1  0  0  0  0
 47 68  1  0  0  0  0
 48 61  1  0  0  0  0
 49 67  1  0  0  0  0
 51 60  1  0  0  0  0
 52 61  1  0  0  0  0
 53 62  1  0  0  0  0
 54 62  1  0  0  0  0
 55 62  1  0  0  0  0
 56 75  1  0  0  0  0
 57 76  1  0  0  0  0
 58 66  1  0  0  0  0
 58 83  1  0  0  0  0
 59 62  1  0  0  0  0
 59 74  1  0  0  0  0
 60 75  1  0  0  0  0
 61 76  1  0  0  0  0
 63 67  1  0  0  0  0
 64 65  2  0  0  0  0
 65 66  1  0  0  0  0
M  CHG  2  75   1  76   1
M  ISO  4  34 100  58 101  70 100  83 101
M  END
> <Batch ID>
0184

> <Smiles>
CNC(C)C(=O)NC(C(=O)N1Cc2cc([101O:1][101CH2:1]n3nnc(CNC(C)C4C[100N:0]([100C:0](=O)N5CCCC(n6nc(-c7ccc(Oc8ccc(F)cc8F)cc7)c(C(N)=O)c6N)C5)C4)c3C)ccc2CC1C(=O)NC1CCCc2ccccc21)C(C)(C)C

> <Shape>
0.367

> <Color>
0.116

> <Negative vol penalty>
0.000

$$$$

  -OEChem-04052323103D

 89 98  0     1  0  0  0  0  0999 V2000
  -31.9331  -25.3588   20.5413 C   0  0  0  0  0  0  0  0  0  0  0  0
  -30.6921  -25.2021   19.9325 C   0  0  0  0  0  0  0  0  0  0  0  0
  -26.2634  -15.3612   19.0603 C   0  0  0  0  0  0  0  0  0  0  0  0
  -24.2630  -15.2659   20.4117 C   0  0  0  0  0  0  0  0  0  0  0  0
  -32.0185  -25.9284   21.8110 C   0  0  0  0  0  0  0  0  0  0  0  0
  -29.5355  -25.6138   20.5937 C   0  0  0  0  0  0  0  0  0  0  0  0
  -23.0410  -28.3480   19.3045 C   0  0  0  0  0  0  0  0  0  0  0  0
  -26.5325  -14.0268   19.3644 C   0  0  0  0  0  0  0  0  0  0  0  0
  -24.5321  -13.9314   20.7158 C   0  0  0  0  0  0  0  0  0  0  0  0
  -21.6967  -28.1103   19.5875 C   0  0  0  0  0  0  0  0  0  0  0  0
  -27.8232  -12.2731   21.9496 C   0  0  0  0  0  0  0  0  0  0  0  0
  -29.1312  -11.9404   22.3017 C   0  0  0  0  0  0  0  0  0  0  0  0
  -21.9727  -29.1537   21.7449 C   0  0  0  0  0  0  0  0  0  0  0  0
  -19.6877  -25.3670   23.0956 C   0  0  0  0  0  0  0  0  0  0  0  0
  -29.2478  -10.4173   20.4299 C   0  0  0  0  0  0  0  0  0  0  0  0
  -25.1287  -15.9808   19.5840 C   0  0  0  0  0  0  0  0  0  0  0  0
  -24.0956  -17.8495   18.1882 C   0  0  0  0  0  0  0  0  0  0  0  0
  -30.8633  -26.3561   22.4841 C   0  0  0  0  0  0  0  0  0  0  0  0
  -23.8652  -28.9816   20.2455 C   0  0  0  0  0  0  0  0  0  0  0  0
  -29.6054  -26.1884   21.8743 C   0  0  0  0  0  0  0  0  0  0  0  0
  -23.3264  -29.4006   21.4703 C   0  0  0  0  0  0  0  0  0  0  0  0
  -18.6374  -26.2050   22.7719 C   0  0  0  0  0  0  0  0  0  0  0  0
  -17.8446  -26.7694   23.7727 C   0  0  0  0  0  0  0  0  0  0  0  0
  -25.6668  -13.3119   20.1921 C   0  0  0  0  0  0  0  0  0  0  0  0
  -21.1630  -28.5105   20.8090 C   0  0  0  0  0  0  0  0  0  0  0  0
  -27.2274  -11.6778   20.8377 C   0  0  0  0  0  0  0  0  0  0  0  0
  -29.8435  -11.0126   21.5419 C   0  0  0  0  0  0  0  0  0  0  0  0
  -27.9397  -10.7499   20.0778 C   0  0  0  0  0  0  0  0  0  0  0  0
  -24.8505  -17.3594   19.2707 C   0  0  0  0  0  0  0  0  0  0  0  0
  -18.1374  -26.4853   25.0890 C   0  0  0  0  0  0  0  0  0  0  0  0
  -19.9063  -25.1434   24.4471 C   0  0  0  0  0  0  0  0  0  0  0  0
  -24.1295  -19.2146   18.3362 C   0  0  0  0  0  0  0  0  0  0  0  0
  -23.4238  -17.1348   17.1425 C   0  0  0  0  0  0  0  0  0  0  0  0
  -26.4770  -28.1545   21.8574 C   0  0  0  0  0  0  0  0  0  0  0  0
  -26.3888  -31.2501   22.8230 C   0  0  0  0  0  0  0  0  0  0  0  0
  -24.5382  -34.0681   23.3528 C   0  0  0  0  0  0  0  0  0  0  0  0
  -24.9278  -22.7835   23.0772 C   0  0  0  0  0  0  0  0  0  0  0  0
  -31.0013  -26.9228   23.8750 C   0  0  0  0  0  0  0  0  0  0  0  0
  -25.3068  -29.2547   19.9142 C   0  0  0  0  0  0  0  0  0  0  0  0
  -24.1641  -30.1029   22.5064 C   0  0  0  0  0  0  0  0  0  0  0  0
  -29.7621  -27.6761   24.3516 C   0  0  0  0  0  0  0  0  0  0  0  0
  -26.8670  -22.7239   20.0918 C   0  0  0  0  0  0  0  0  0  0  0  0
  -28.5011  -26.8701   24.0564 C   0  0  0  0  0  0  0  0  0  0  0  0
  -26.5020  -21.3865   19.4451 C   0  0  0  0  0  0  0  0  0  0  0  0
  -26.9201  -22.6187   21.6143 C   0  0  0  0  0  0  0  0  0  0  0  0
  -25.3393  -20.7281   21.5930 C   0  0  0  0  0  0  0  0  0  0  0  0
  -28.3303  -26.6453   22.5491 C   0  0  1  0  0  0  0  0  0  0  0  0
  -18.1519  -26.6181   21.4144 C   0  0  2  0  0  0  0  0  0  0  0  0
  -26.1782  -29.4469   21.1515 C   0  0  1  0  0  0  0  0  0  0  0  0
  -25.2186  -20.7976   20.0611 C   0  0  2  0  0  0  0  0  0  0  0  0
  -16.7437  -27.6139   23.1891 C   0  0  0  0  0  0  0  0  0  0  0  0
  -17.3249  -27.0278   26.2133 C   0  0  0  0  0  0  0  0  0  0  0  0
  -15.3954  -26.8917   23.3243 C   0  0  0  0  0  0  0  0  0  0  0  0
  -16.6774  -29.0342   23.7625 C   0  0  0  0  0  0  0  0  0  0  0  0
  -15.1882  -29.0676   20.9988 C   0  0  0  0  0  0  0  0  0  0  0  0
  -24.7366  -36.4278   24.1832 C   0  0  0  0  0  0  0  0  0  0  0  0
  -26.5066  -30.2269   25.6951 C   0  0  0  0  0  0  0  0  0  0  0  0
  -25.7539  -32.4895   26.4583 C   0  0  0  0  0  0  0  0  0  0  0  0
  -27.9200  -32.2407   25.2463 C   0  0  0  0  0  0  0  0  0  0  0  0
  -23.6765  -35.1798   20.7489 C   0  0  0  0  0  0  0  0  0  0  0  0
  -19.2472  -27.1373   20.4931 C   0  0  0  0  0  0  0  0  0  1  0  0
  -21.8217  -23.6760   23.8120 C   0  0  0  0  0  0  0  0  0  0  0  0
  -22.8790  -22.8083   24.4775 C   0  0  0  0  0  0  0  0  0  0  0  0
  -16.0499  -27.8678   20.6713 C   0  0  0  0  0  0  0  0  0  0  0  0
  -25.7508  -31.9940   23.9712 C   0  0  1  0  0  0  0  0  0  0  0  0
  -24.7759  -35.5167   22.9662 C   0  0  2  0  0  0  0  0  0  0  0  0
  -26.4672  -31.7228   25.3242 C   0  0  0  0  0  0  0  0  0  0  0  0
  -25.3291  -18.3338   20.0487 N   0  0  0  0  0  0  0  0  0  0  0  0
  -19.1627  -25.6805   25.4501 N   0  0  0  0  0  0  0  0  0  0  0  0
  -24.8739  -19.4500   19.4545 N   0  0  0  0  0  0  0  0  0  0  0  0
  -25.5695  -30.3415   22.1382 N   0  0  0  0  0  0  0  0  0  0  0  0
  -25.6725  -22.0547   22.1352 N   0  0  0  0  0  0  0  0  0  0  0  0
  -23.5949  -20.2246   17.6174 N   0  0  0  0  0  0  0  0  0  0  0  0
  -23.4902  -15.7348   17.1407 N   0  0  0  0  0  0  0  0  0  0  0  0
  -20.9852  -24.2892   24.7904 N   0  0  0  0  0  0  0  0  0  0  0  0
  -27.8219  -27.8423   21.9140 N   0  0  0  0  0  0  0  0  0  0  0  0
  -25.7223  -33.3996   23.5813 N   0  0  0  0  0  0  0  0  0  0  0  0
  -23.7552  -22.1796   23.5143 N   0  0  0  0  0  0  0  0  0  0  0  0
  -17.1435  -27.7526   21.6900 N   0  3  2  0  0  0  0  0  0  0  0  0
  -23.7341  -35.9734   22.0034 N   0  3  0  0  0  0  0  0  0  0  0  0
  -22.7973  -17.7209   16.2274 O   0  0  0  0  0  0  0  0  0  0  0  0
  -25.5557  -27.4906   22.3180 O   0  0  0  0  0  0  0  0  0  0  0  0
  -27.5686  -31.4723   22.5395 O   0  0  0  0  0  0  0  0  0  0  0  0
  -23.4144  -33.5795   23.4466 O   0  0  0  0  0  0  0  0  0  0  0  0
  -25.2789  -23.8927   23.4934 O   0  0  0  0  0  0  0  0  0  0  0  0
  -25.9290  -12.0096   20.4889 O   0  0  0  0  0  0  0  0  0  0  0  0
  -19.8399  -28.2771   21.0906 O   0  0  0  0  0  0  0  0  0  1  0  0
  -31.1002  -10.6944   21.8792 F   0  0  0  0  0  0  0  0  0  0  0  0
  -27.3730  -10.1756   19.0079 F   0  0  0  0  0  0  0  0  0  0  0  0
  1  2  1  0  0  0  0
  1  5  2  0  0  0  0
  2  6  2  0  0  0  0
  3  8  2  0  0  0  0
  3 16  1  0  0  0  0
  4  9  1  0  0  0  0
  4 16  2  0  0  0  0
  5 18  1  0  0  0  0
  6 20  1  0  0  0  0
  7 10  2  0  0  0  0
  7 19  1  0  0  0  0
  8 24  1  0  0  0  0
  9 24  2  0  0  0  0
 10 25  1  0  0  0  0
 11 12  2  0  0  0  0
 11 26  1  0  0  0  0
 12 27  1  0  0  0  0
 13 21  1  0  0  0  0
 13 25  2  0  0  0  0
 14 22  1  0  0  0  0
 14 31  2  0  0  0  0
 15 27  2  0  0  0  0
 15 28  1  0  0  0  0
 16 29  1  0  0  0  0
 17 29  1  0  0  0  0
 17 32  2  0  0  0  0
 17 33  1  0  0  0  0
 18 20  2  0  0  0  0
 18 38  1  0  0  0  0
 19 21  2  0  0  0  0
 19 39  1  0  0  0  0
 20 47  1  0  0  0  0
 21 40  1  0  0  0  0
 22 23  2  0  0  0  0
 22 48  1  0  0  0  0
 23 30  1  0  0  0  0
 23 51  1  0  0  0  0
 24 86  1  0  0  0  0
 25 87  1  0  0  0  0
 26 28  2  0  0  0  0
 26 86  1  0  0  0  0
 27 88  1  0  0  0  0
 28 89  1  0  0  0  0
 29 68  2  0  0  0  0
 30 52  1  0  0  0  0
 30 69  2  0  0  0  0
 31 69  1  0  0  0  0
 31 75  1  0  0  0  0
 32 70  1  0  0  0  0
 32 73  1  0  0  0  0
 33 74  1  0  0  0  0
 33 81  2  0  0  0  0
 34 49  1  0  0  0  0
 34 76  1  0  0  0  0
 34 82  2  0  0  0  0
 35 65  1  0  0  0  0
 35 71  1  0  0  0  0
 35 83  2  0  0  0  0
 36 66  1  0  0  0  0
 36 77  1  0  0  0  0
 36 84  2  0  0  0  0
 37 72  1  0  0  0  0
 37 78  1  0  0  0  0
 37 85  2  0  0  0  0
 38 41  1  0  0  0  0
 39 49  1  0  0  0  0
 40 71  1  0  0  0  0
 41 43  1  0  0  0  0
 42 44  1  0  0  0  0
 42 45  1  0  0  0  0
 43 47  1  0  0  0  0
 44 50  1  0  0  0  0
 45 72  1  0  0  0  0
 46 50  1  0  0  0  0
 46 72  1  0  0  0  0
 47 76  1  0  0  0  0
 48 61  1  0  0  0  0
 48 79  1  0  0  0  0
 49 71  1  0  0  0  0
 50 70  1  0  0  0  0
 51 53  1  0  0  0  0
 51 54  1  0  0  0  0
 51 79  1  0  0  0  0
 55 64  1  0  0  0  0
 56 66  1  0  0  0  0
 57 67  1  0  0  0  0
 58 67  1  0  0  0  0
 59 67  1  0  0  0  0
 60 80  1  0  0  0  0
 61 87  1  0  0  0  0
 62 63  1  0  0  0  0
 62 75  1  0  0  0  0
 63 78  1  0  0  0  0
 64 79  1  0  0  0  0
 65 67  1  0  0  0  0
 65 77  1  0  0  0  0
 66 80  1  0  0  0  0
 68 70  1  0  0  0  0
M  CHG  2  79   1  80   1
M  ISO  4  37 100  61 101  78 100  87 101
M  END
> <Batch ID>
0184

> <Smiles>
CCN1C([101CH2:1][101O:1]c2ccc3c(c2)CN(C(=O)C(NC(=O)C(C)NC)C(C)(C)C)C(C(=O)NC2CCCc4ccccc42)C3)c2cc(NCC[100NH:0][100C:0](=O)N3CCCC(n4nc(-c5ccc(Oc6ccc(F)cc6F)cc5)c(C(N)=O)c4N)C3)nc(C)c2C1(C)C

> <Shape>
0.240

> <Color>
0.056

> <Negative vol penalty>
0.000

$$$$

  -OEChem-04052323103D

 83 92  0     1  0  0  0  0  0999 V2000
  -35.4873  -32.4432   20.8262 C   0  0  0  0  0  0  0  0  0  0  0  0
  -34.6076  -31.3655   20.8390 C   0  0  0  0  0  0  0  0  0  0  0  0
  -24.5082   -9.2414   22.1874 C   0  0  0  0  0  0  0  0  0  0  0  0
  -23.8893   -9.2480   19.8520 C   0  0  0  0  0  0  0  0  0  0  0  0
  -35.3433  -33.4701   21.7582 C   0  0  0  0  0  0  0  0  0  0  0  0
  -33.5840  -31.3136   21.7845 C   0  0  0  0  0  0  0  0  0  0  0  0
  -29.1450  -29.9437   19.7687 C   0  0  0  0  0  0  0  0  0  0  0  0
  -23.3487   -8.5288   22.4927 C   0  0  0  0  0  0  0  0  0  0  0  0
  -22.7298   -8.5353   20.1573 C   0  0  0  0  0  0  0  0  0  0  0  0
  -28.9579  -28.5880   19.5024 C   0  0  0  0  0  0  0  0  0  0  0  0
  -20.7315   -6.3946   23.8385 C   0  0  0  0  0  0  0  0  0  0  0  0
  -20.8465   -5.3113   24.7094 C   0  0  0  0  0  0  0  0  0  0  0  0
  -26.9726  -24.1165   18.7188 C   0  0  0  0  0  0  0  0  0  0  0  0
  -26.7116  -22.7640   18.5870 C   0  0  0  0  0  0  0  0  0  0  0  0
  -27.6807  -28.3706   21.5372 C   0  0  0  0  0  0  0  0  0  0  0  0
  -22.3840   -4.2454   23.1806 C   0  0  0  0  0  0  0  0  0  0  0  0
  -24.7785   -9.6010   20.8671 C   0  0  0  0  0  0  0  0  0  0  0  0
  -27.2362   -9.8079   20.2155 C   0  0  0  0  0  0  0  0  0  0  0  0
  -34.3115  -33.4355   22.7095 C   0  0  0  0  0  0  0  0  0  0  0  0
  -28.6096  -30.5216   20.9288 C   0  0  0  0  0  0  0  0  0  0  0  0
  -33.4269  -32.3403   22.7309 C   0  0  0  0  0  0  0  0  0  0  0  0
  -27.8602  -29.7344   21.8147 C   0  0  0  0  0  0  0  0  0  0  0  0
  -22.4595   -8.1757   21.4777 C   0  0  0  0  0  0  0  0  0  0  0  0
  -28.2281  -27.8006   20.3881 C   0  0  0  0  0  0  0  0  0  0  0  0
  -21.4427   -6.4034   22.6385 C   0  0  0  0  0  0  0  0  0  0  0  0
  -21.6728   -4.2367   24.3806 C   0  0  0  0  0  0  0  0  0  0  0  0
  -22.2689   -5.3288   22.3096 C   0  0  0  0  0  0  0  0  0  0  0  0
  -25.9759  -10.3377   20.5512 C   0  0  0  0  0  0  0  0  0  0  0  0
  -28.2919  -24.5155   18.7946 C   0  0  0  0  0  0  0  0  0  0  0  0
  -27.7872  -21.9000   18.5393 C   0  0  0  0  0  0  0  0  0  0  0  0
  -28.0280  -10.9108   20.0079 C   0  0  0  0  0  0  0  0  0  0  0  0
  -27.6539   -8.4411   20.1014 C   0  0  0  0  0  0  0  0  0  0  0  0
  -29.8304  -31.9586   23.4878 C   0  0  0  0  0  0  0  0  0  0  0  0
  -26.7104  -32.5056   24.1868 C   0  0  0  0  0  0  0  0  0  0  0  0
  -23.4487  -31.5807   23.7964 C   0  0  0  0  0  0  0  0  0  0  0  0
  -26.9823  -16.3379   18.3105 C   0  0  0  0  0  0  0  0  0  0  0  0
  -34.2246  -34.5455   23.7269 C   0  0  0  0  0  0  0  0  0  0  0  0
  -28.7977  -31.9912   21.1881 C   0  0  0  0  0  0  0  0  0  0  0  0
  -27.2474  -30.3110   23.0639 C   0  0  0  0  0  0  0  0  0  0  0  0
  -32.8849  -34.5992   24.4568 C   0  0  0  0  0  0  0  0  0  0  0  0
  -28.5336  -15.4718   21.3408 C   0  0  0  0  0  0  0  0  0  0  0  0
  -32.4725  -33.2052   24.9188 C   0  0  0  0  0  0  0  0  0  0  0  0
  -28.1738  -13.9907   21.4538 C   0  0  0  0  0  0  0  0  0  0  0  0
  -27.3650  -16.3069   20.8150 C   0  0  0  0  0  0  0  0  0  0  0  0
  -28.4903  -19.6734   17.7171 C   0  0  0  0  0  0  0  0  0  0  0  0
  -26.7001  -19.8932   19.4472 C   0  0  0  0  0  0  0  0  0  0  0  0
  -27.8349  -18.3842   17.2291 C   0  0  0  0  0  0  0  0  0  0  0  0
  -26.0701  -18.6084   18.9208 C   0  0  0  0  0  0  0  0  0  0  0  0
  -26.4375  -14.3294   19.6544 C   0  0  0  0  0  0  0  0  0  0  0  0
  -32.2888  -32.2603   23.7251 C   0  0  1  0  0  0  0  0  0  0  0  0
  -28.6436  -32.3628   22.6597 C   0  0  1  0  0  0  0  0  0  0  0  0
  -27.6110  -13.4561   20.1249 C   0  0  2  0  0  0  0  0  0  0  0  0
  -21.1264  -32.1958   24.5218 C   0  0  0  0  0  0  0  0  0  0  0  0
  -27.2283  -31.2363   26.9128 C   0  0  0  0  0  0  0  0  0  0  0  0
  -24.7514  -31.0123   27.2013 C   0  0  0  0  0  0  0  0  0  0  0  0
  -25.7789  -33.2735   26.9690 C   0  0  0  0  0  0  0  0  0  0  0  0
  -22.6000  -32.1286   21.0146 C   0  0  0  0  0  0  0  0  0  0  0  0
  -28.6274  -25.9606   18.9352 C   0  0  0  0  0  0  0  0  0  1  0  0
  -25.6390  -31.7621   24.9472 C   0  0  1  0  0  0  0  0  0  0  0  0
  -22.2054  -32.3873   23.4674 C   0  0  2  0  0  0  0  0  0  0  0  0
  -25.8624  -31.8094   26.4851 C   0  0  0  0  0  0  0  0  0  0  0  0
  -25.9631  -11.6733   20.5578 N   0  0  0  0  0  0  0  0  0  0  0  0
  -29.3248  -23.6477   18.7454 N   0  0  0  0  0  0  0  0  0  0  0  0
  -29.0682  -22.3185   18.6154 N   0  0  0  0  0  0  0  0  0  0  0  0
  -27.2252  -11.9920   20.2238 N   0  0  0  0  0  0  0  0  0  0  0  0
  -27.5219  -20.5307   18.4093 N   0  0  0  0  0  0  0  0  0  0  0  0
  -27.4645  -31.7516   23.2765 N   0  0  0  0  0  0  0  0  0  0  0  0
  -26.8360  -15.7359   19.5692 N   0  0  0  0  0  0  0  0  0  0  0  0
  -27.0608  -17.7391   18.2827 N   0  0  0  0  0  0  0  0  0  0  0  0
  -29.3258  -11.0515   19.6636 N   0  0  0  0  0  0  0  0  0  0  0  0
  -26.7130   -7.4321   20.3487 N   0  0  0  0  0  0  0  0  0  0  0  0
  -31.0242  -32.5146   23.0690 N   0  0  0  0  0  0  0  0  0  0  0  0
  -24.3649  -32.3232   24.5109 N   0  0  0  0  0  0  0  0  0  0  0  0
  -21.6522  -31.9711   22.1477 N   0  3  0  0  0  0  0  0  0  0  0  0
  -28.8308   -8.1238   19.8055 O   0  0  0  0  0  0  0  0  0  0  0  0
  -29.6745  -31.1997   24.4372 O   0  0  0  0  0  0  0  0  0  0  0  0
  -26.8676  -33.7124   24.3878 O   0  0  0  0  0  0  0  0  0  0  0  0
  -23.5911  -30.4081   23.4570 O   0  0  0  0  0  0  0  0  0  0  0  0
  -27.0426  -15.6660   17.2733 O   0  0  0  0  0  0  0  0  0  0  0  0
  -21.3280   -7.4801   21.7752 O   0  0  0  0  0  0  0  0  0  0  0  0
  -28.0434  -26.4680   20.1291 O   0  0  0  0  0  0  0  0  0  1  0  0
  -21.7844   -3.1971   25.2178 F   0  0  0  0  0  0  0  0  0  0  0  0
  -22.9556   -5.3321   21.1588 F   0  0  0  0  0  0  0  0  0  0  0  0
  1  2  1  0  0  0  0
  1  5  2  0  0  0  0
  2  6  2  0  0  0  0
  3  8  2  0  0  0  0
  3 17  1  0  0  0  0
  4  9  1  0  0  0  0
  4 17  2  0  0  0  0
  5 19  1  0  0  0  0
  6 21  1  0  0  0  0
  7 10  2  0  0  0  0
  7 20  1  0  0  0  0
  8 23  1  0  0  0  0
  9 23  2  0  0  0  0
 10 24  1  0  0  0  0
 11 12  2  0  0  0  0
 11 25  1  0  0  0  0
 12 26  1  0  0  0  0
 13 14  2  0  0  0  0
 13 29  1  0  0  0  0
 14 30  1  0  0  0  0
 15 22  1  0  0  0  0
 15 24  2  0  0  0  0
 16 26  2  0  0  0  0
 16 27  1  0  0  0  0
 17 28  1  0  0  0  0
 18 28  1  0  0  0  0
 18 31  2  0  0  0  0
 18 32  1  0  0  0  0
 19 21  2  0  0  0  0
 19 37  1  0  0  0  0
 20 22  2  0  0  0  0
 20 38  1  0  0  0  0
 21 50  1  0  0  0  0
 22 39  1  0  0  0  0
 23 80  1  0  0  0  0
 24 81  1  0  0  0  0
 25 27  2  0  0  0  0
 25 80  1  0  0  0  0
 26 82  1  0  0  0  0
 27 83  1  0  0  0  0
 28 62  2  0  0  0  0
 29 58  1  0  0  0  0
 29 63  2  0  0  0  0
 30 64  2  0  0  0  0
 30 66  1  0  0  0  0
 31 65  1  0  0  0  0
 31 70  1  0  0  0  0
 32 71  1  0  0  0  0
 32 75  2  0  0  0  0
 33 51  1  0  0  0  0
 33 72  1  0  0  0  0
 33 76  2  0  0  0  0
 34 59  1  0  0  0  0
 34 67  1  0  0  0  0
 34 77  2  0  0  0  0
 35 60  1  0  0  0  0
 35 73  1  0  0  0  0
 35 78  2  0  0  0  0
 36 68  1  0  0  0  0
 36 69  1  0  0  0  0
 36 79  2  0  0  0  0
 37 40  1  0  0  0  0
 38 51  1  0  0  0  0
 39 67  1  0  0  0  0
 40 42  1  0  0  0  0
 41 43  1  0  0  0  0
 41 44  1  0  0  0  0
 42 50  1  0  0  0  0
 43 52  1  0  0  0  0
 44 68  1  0  0  0  0
 45 47  1  0  0  0  0
 45 66  1  0  0  0  0
 46 48  1  0  0  0  0
 46 66  1  0  0  0  0
 47 69  1  0  0  0  0
 48 69  1  0  0  0  0
 49 52  1  0  0  0  0
 49 68  1  0  0  0  0
 50 72  1  0  0  0  0
 51 67  1  0  0  0  0
 52 65  1  0  0  0  0
 53 60  1  0  0  0  0
 54 61  1  0  0  0  0
 55 61  1  0  0  0  0
 56 61  1  0  0  0  0
 57 74  1  0  0  0  0
 58 81  1  0  0  0  0
 59 61  1  0  0  0  0
 59 73  1  0  0  0  0
 60 74  1  0  0  0  0
 62 65  1  0  0  0  0
 63 64  1  0  0  0  0
M  CHG  1  74   1
M  ISO  4  36 100  58 101  69 100  81 101
M  END
> <Batch ID>
0184

> <Smiles>
CNC(C)C(=O)NC(C(=O)N1Cc2cc([101O:1][101CH2:1]c3ccc(N4CC[100N:0]([100C:0](=O)N5CCCC(n6nc(-c7ccc(Oc8ccc(F)cc8F)cc7)c(C(N)=O)c6N)C5)CC4)nn3)ccc2CC1C(=O)NC1CCCc2ccccc21)C(C)(C)C

> <Shape>
0.237

> <Color>
0.107

> <Negative vol penalty>
0.000

$$$$

  -OEChem-04052323103D

 79 87  0     1  0  0  0  0  0999 V2000
  -26.9017  -32.8713   27.6498 C   0  0  0  0  0  0  0  0  0  0  0  0
  -27.2574  -31.8337   26.7940 C   0  0  0  0  0  0  0  0  0  0  0  0
  -25.2425  -12.5647   22.0510 C   0  0  0  0  0  0  0  0  0  0  0  0
  -25.6338  -12.7983   19.6784 C   0  0  0  0  0  0  0  0  0  0  0  0
  -25.5579  -33.1982   27.8262 C   0  0  0  0  0  0  0  0  0  0  0  0
  -26.2692  -31.1217   26.1150 C   0  0  0  0  0  0  0  0  0  0  0  0
  -27.4164  -30.3744   21.2395 C   0  0  0  0  0  0  0  0  0  0  0  0
  -24.3377  -11.5332   21.8003 C   0  0  0  0  0  0  0  0  0  0  0  0
  -24.7290  -11.7668   19.4276 C   0  0  0  0  0  0  0  0  0  0  0  0
  -28.3333  -29.3653   20.9486 C   0  0  0  0  0  0  0  0  0  0  0  0
  -21.1280  -11.2276   20.7861 C   0  0  0  0  0  0  0  0  0  0  0  0
  -19.9165  -11.2470   21.4771 C   0  0  0  0  0  0  0  0  0  0  0  0
  -26.5158  -27.8907   20.3643 C   0  0  0  0  0  0  0  0  0  0  0  0
  -20.4402   -9.1008   22.4553 C   0  0  0  0  0  0  0  0  0  0  0  0
  -25.8905  -13.1974   20.9901 C   0  0  0  0  0  0  0  0  0  0  0  0
  -28.2108  -14.1452   21.4652 C   0  0  0  0  0  0  0  0  0  0  0  0
  -24.5533  -32.4962   27.1416 C   0  0  0  0  0  0  0  0  0  0  0  0
  -26.0395  -30.1454   21.1052 C   0  0  0  0  0  0  0  0  0  0  0  0
  -24.9106  -31.4387   26.2835 C   0  0  0  0  0  0  0  0  0  0  0  0
  -25.5836  -28.8994   20.6517 C   0  0  0  0  0  0  0  0  0  0  0  0
  -24.0810  -11.1342   20.4886 C   0  0  0  0  0  0  0  0  0  0  0  0
  -27.8830  -28.1222   20.5137 C   0  0  0  0  0  0  0  0  0  0  0  0
  -21.9956  -10.1448   20.9296 C   0  0  0  0  0  0  0  0  0  0  0  0
  -19.5726  -10.1836   22.3117 C   0  0  0  0  0  0  0  0  0  0  0  0
  -21.6517   -9.0815   21.7643 C   0  0  0  0  0  0  0  0  0  0  0  0
  -26.8248  -14.2634   21.2484 C   0  0  0  0  0  0  0  0  0  0  0  0
  -28.6388  -15.4353   21.6619 C   0  0  0  0  0  0  0  0  0  0  0  0
  -29.0374  -12.9738   21.4866 C   0  0  0  0  0  0  0  0  0  0  0  0
  -23.5601  -30.1513   23.0942 C   0  0  0  0  0  0  0  0  0  0  0  0
  -21.8636  -29.7391   20.3602 C   0  0  0  0  0  0  0  0  0  0  0  0
  -21.8062  -28.6713   17.1194 C   0  0  0  0  0  0  0  0  0  0  0  0
  -28.6091  -20.7132   19.9931 C   0  0  0  0  0  0  0  0  0  0  0  0
  -23.1115  -32.8550   27.4008 C   0  0  0  0  0  0  0  0  0  0  0  0
  -25.0646  -31.2529   21.3974 C   0  0  0  0  0  0  0  0  0  0  0  0
  -24.1167  -28.6092   20.4715 C   0  0  0  0  0  0  0  0  0  0  0  0
  -22.1478  -32.2968   26.3567 C   0  0  0  0  0  0  0  0  0  0  0  0
  -26.0247  -19.7013   22.3897 C   0  0  0  0  0  0  0  0  0  0  0  0
  -22.4547  -30.8289   26.0777 C   0  0  0  0  0  0  0  0  0  0  0  0
  -26.1107  -18.1766   22.3045 C   0  0  0  0  0  0  0  0  0  0  0  0
  -26.3101  -20.3401   21.0360 C   0  0  0  0  0  0  0  0  0  0  0  0
  -27.7148  -18.4380   20.3508 C   0  0  0  0  0  0  0  0  0  0  0  0
  -28.4776  -22.5978   21.8062 C   0  0  0  0  0  0  0  0  0  0  0  0
  -29.6536  -23.0409   20.0880 C   0  0  0  0  0  0  0  0  0  0  0  0
  -23.8692  -30.6592   25.5103 C   0  0  1  0  0  0  0  0  0  0  0  0
  -23.6621  -30.7452   21.7178 C   0  0  1  0  0  0  0  0  0  0  0  0
  -27.4493  -17.7269   21.6907 C   0  0  2  0  0  0  0  0  0  0  0  0
  -29.7467  -23.4276   21.5682 C   0  0  0  0  0  0  0  0  0  0  0  0
  -20.2666  -28.4265   15.1529 C   0  0  0  0  0  0  0  0  0  0  0  0
  -31.8771  -25.6922   21.8416 C   0  0  0  0  0  0  0  0  0  0  0  0
  -20.5782  -27.3031   21.6730 C   0  0  0  0  0  0  0  0  0  0  0  0
  -19.8086  -26.5738   19.4050 C   0  0  0  0  0  0  0  0  0  0  0  0
  -19.0025  -28.7331   20.3591 C   0  0  0  0  0  0  0  0  0  0  0  0
  -23.4499  -30.4878   15.4588 C   0  0  0  0  0  0  0  0  0  0  0  0
  -29.5365  -25.2214   23.2825 C   0  0  0  0  0  0  0  0  0  0  0  0
  -30.0012  -27.1377   20.9605 C   0  0  0  0  0  0  0  0  0  1  0  0
  -21.3947  -28.5463   19.5626 C   0  0  1  0  0  0  0  0  0  0  0  0
  -21.2768  -29.3214   15.8538 C   0  0  2  0  0  0  0  0  0  0  0  0
  -30.5665  -25.7263   21.0723 C   0  0  2  0  0  0  0  0  0  0  0  0
  -20.2236  -27.7936   20.2551 C   0  0  0  0  0  0  0  0  0  0  0  0
  -26.4006  -15.5287   21.3025 N   0  0  0  0  0  0  0  0  0  0  0  0
  -27.5265  -16.2174   21.5556 N   0  0  0  0  0  0  0  0  0  0  0  0
  -23.2025  -29.7223   20.7762 N   0  0  0  0  0  0  0  0  0  0  0  0
  -27.6024  -19.8919   20.5080 N   0  0  0  0  0  0  0  0  0  0  0  0
  -28.7496  -21.9765   20.5179 N   0  0  0  0  0  0  0  0  0  0  0  0
  -29.8544  -15.9658   21.9139 N   0  0  0  0  0  0  0  0  0  0  0  0
  -28.4358  -11.7274   21.2655 N   0  0  0  0  0  0  0  0  0  0  0  0
  -23.8993  -31.0243   24.1102 N   0  0  0  0  0  0  0  0  0  0  0  0
  -21.0783  -29.0458   18.2289 N   0  0  0  0  0  0  0  0  0  0  0  0
  -22.3943  -29.5994   14.9078 N   0  3  0  0  0  0  0  0  0  0  0  0
  -29.5630  -24.8633   21.8102 N   0  3  1  0  0  0  0  0  0  0  0  0
  -30.2701  -13.0292   21.7120 O   0  0  0  0  0  0  0  0  0  0  0  0
  -23.1989  -28.9876   23.2249 O   0  0  0  0  0  0  0  0  0  0  0  0
  -21.0732  -30.6555   20.5991 O   0  0  0  0  0  0  0  0  0  0  0  0
  -22.7669  -27.9047   17.1227 O   0  0  0  0  0  0  0  0  0  0  0  0
  -29.3840  -20.3203   19.1109 O   0  0  0  0  0  0  0  0  0  0  0  0
  -23.1983  -10.1275   20.2436 O   0  0  0  0  0  0  0  0  0  0  0  0
  -28.7818  -27.1286   20.2277 O   0  0  0  0  0  0  0  0  0  1  0  0
  -18.4098  -10.2030   22.9764 F   0  0  0  0  0  0  0  0  0  0  0  0
  -22.4816   -8.0391   21.9071 F   0  0  0  0  0  0  0  0  0  0  0  0
  1  2  1  0  0  0  0
  1  5  2  0  0  0  0
  2  6  2  0  0  0  0
  3  8  2  0  0  0  0
  3 15  1  0  0  0  0
  4  9  1  0  0  0  0
  4 15  2  0  0  0  0
  5 17  1  0  0  0  0
  6 19  1  0  0  0  0
  7 10  2  0  0  0  0
  7 18  1  0  0  0  0
  8 21  1  0  0  0  0
  9 21  2  0  0  0  0
 10 22  1  0  0  0  0
 11 12  2  0  0  0  0
 11 23  1  0  0  0  0
 12 24  1  0  0  0  0
 13 20  1  0  0  0  0
 13 22  2  0  0  0  0
 14 24  2  0  0  0  0
 14 25  1  0  0  0  0
 15 26  1  0  0  0  0
 16 26  1  0  0  0  0
 16 27  2  0  0  0  0
 16 28  1  0  0  0  0
 17 19  2  0  0  0  0
 17 33  1  0  0  0  0
 18 20  2  0  0  0  0
 18 34  1  0  0  0  0
 19 44  1  0  0  0  0
 20 35  1  0  0  0  0
 21 76  1  0  0  0  0
 22 77  1  0  0  0  0
 23 25  2  0  0  0  0
 23 76  1  0  0  0  0
 24 78  1  0  0  0  0
 25 79  1  0  0  0  0
 26 60  2  0  0  0  0
 27 61  1  0  0  0  0
 27 65  1  0  0  0  0
 28 66  1  0  0  0  0
 28 71  2  0  0  0  0
 29 45  1  0  0  0  0
 29 67  1  0  0  0  0
 29 72  2  0  0  0  0
 30 56  1  0  0  0  0
 30 62  1  0  0  0  0
 30 73  2  0  0  0  0
 31 57  1  0  0  0  0
 31 68  1  0  0  0  0
 31 74  2  0  0  0  0
 32 63  1  0  0  0  0
 32 64  1  0  0  0  0
 32 75  2  0  0  0  0
 33 36  1  0  0  0  0
 34 45  1  0  0  0  0
 35 62  1  0  0  0  0
 36 38  1  0  0  0  0
 37 39  1  0  0  0  0
 37 40  1  0  0  0  0
 38 44  1  0  0  0  0
 39 46  1  0  0  0  0
 40 63  1  0  0  0  0
 41 46  1  0  0  0  0
 41 63  1  0  0  0  0
 42 47  1  0  0  0  0
 42 64  1  0  0  0  0
 43 47  1  0  0  0  0
 43 64  1  0  0  0  0
 44 67  1  0  0  0  0
 45 62  1  0  0  0  0
 46 61  1  0  0  0  0
 47 70  1  0  0  0  0
 48 57  1  0  0  0  0
 49 58  1  0  0  0  0
 50 59  1  0  0  0  0
 51 59  1  0  0  0  0
 52 59  1  0  0  0  0
 53 69  1  0  0  0  0
 54 70  1  0  0  0  0
 55 58  1  0  0  0  0
 55 77  1  0  0  0  0
 56 59  1  0  0  0  0
 56 68  1  0  0  0  0
 57 69  1  0  0  0  0
 58 70  1  0  0  0  0
 60 61  1  0  0  0  0
M  CHG  2  69   1  70   1
M  ISO  4  32 100  55 101  64 100  77 101
M  END
> <Batch ID>
0184

> <Smiles>
CNC(C)C(=O)NC(C(=O)N1Cc2cc([101O:1][101CH2:1]C(C)N(C)C3C[100N:0]([100C:0](=O)N4CCCC(n5nc(-c6ccc(Oc7ccc(F)cc7F)cc6)c(C(N)=O)c5N)C4)C3)ccc2CC1C(=O)NC1CCCc2ccccc21)C(C)(C)C

> <Shape>
0.278

> <Color>
0.080

> <Negative vol penalty>
0.000

$$$$

  -OEChem-04052323103D

 84 94  0     1  0  0  0  0  0999 V2000
  -19.0684  -33.5812   20.6177 C   0  0  0  0  0  0  0  0  0  0  0  0
  -20.2287  -33.0220   20.0921 C   0  0  0  0  0  0  0  0  0  0  0  0
  -25.6595  -14.1810   19.8713 C   0  0  0  0  0  0  0  0  0  0  0  0
  -26.3280  -12.9392   21.8330 C   0  0  0  0  0  0  0  0  0  0  0  0
  -18.7055  -33.3185   21.9380 C   0  0  0  0  0  0  0  0  0  0  0  0
  -21.0275  -32.2006   20.8870 C   0  0  0  0  0  0  0  0  0  0  0  0
  -24.2426  -27.3162   19.0671 C   0  0  0  0  0  0  0  0  0  0  0  0
  -31.9740  -26.9682   18.9533 C   0  0  0  0  0  0  0  0  0  0  0  0
  -25.1109  -13.0212   19.3241 C   0  0  0  0  0  0  0  0  0  0  0  0
  -25.7794  -11.7794   21.2857 C   0  0  0  0  0  0  0  0  0  0  0  0
  -25.5882  -27.1461   18.7443 C   0  0  0  0  0  0  0  0  0  0  0  0
  -24.2355   -8.5681   20.5630 C   0  0  0  0  0  0  0  0  0  0  0  0
  -23.4573   -7.7630   21.3947 C   0  0  0  0  0  0  0  0  0  0  0  0
  -30.6749  -27.0832   19.4354 C   0  0  0  0  0  0  0  0  0  0  0  0
  -26.0215  -26.3689   20.9865 C   0  0  0  0  0  0  0  0  0  0  0  0
  -21.9321   -9.6030   21.7488 C   0  0  0  0  0  0  0  0  0  0  0  0
  -26.2682  -14.1400   21.1258 C   0  0  0  0  0  0  0  0  0  0  0  0
  -26.1866  -16.2811   22.5101 C   0  0  0  0  0  0  0  0  0  0  0  0
  -19.4951  -32.4857   22.7465 C   0  0  0  0  0  0  0  0  0  0  0  0
  -23.7776  -27.0237   20.3573 C   0  0  0  0  0  0  0  0  0  0  0  0
  -20.6755  -31.9276   22.2197 C   0  0  0  0  0  0  0  0  0  0  0  0
  -32.6006  -25.7269   18.9488 C   0  0  0  0  0  0  0  0  0  0  0  0
  -24.6691  -26.5336   21.3224 C   0  0  0  0  0  0  0  0  0  0  0  0
  -25.1708  -11.8204   20.0313 C   0  0  0  0  0  0  0  0  0  0  0  0
  -26.4785  -26.6751   19.7049 C   0  0  0  0  0  0  0  0  0  0  0  0
  -23.8621   -9.8907   20.3242 C   0  0  0  0  0  0  0  0  0  0  0  0
  -22.3055   -8.2804   21.9875 C   0  0  0  0  0  0  0  0  0  0  0  0
  -22.7104  -10.4081   20.9171 C   0  0  0  0  0  0  0  0  0  0  0  0
  -26.8356  -15.3376   21.6914 C   0  0  0  0  0  0  0  0  0  0  0  0
  -31.8906  -24.6403   19.4335 C   0  0  0  0  0  0  0  0  0  0  0  0
  -30.0510  -25.9358   19.8981 C   0  0  0  0  0  0  0  0  0  0  0  0
  -27.1499  -17.2226   22.7789 C   0  0  0  0  0  0  0  0  0  0  0  0
  -24.8341  -16.3045   22.9852 C   0  0  0  0  0  0  0  0  0  0  0  0
  -22.4260  -28.7077   22.6899 C   0  0  0  0  0  0  0  0  0  0  0  0
  -22.1397  -25.7983   24.0954 C   0  0  0  0  0  0  0  0  0  0  0  0
  -23.2591  -22.5851   24.3586 C   0  0  0  0  0  0  0  0  0  0  0  0
  -31.1079  -20.5713   20.9153 C   0  0  0  0  0  0  0  0  0  0  0  0
  -19.0871  -32.2689   24.1822 C   0  0  0  0  0  0  0  0  0  0  0  0
  -22.3181  -27.1872   20.6819 C   0  0  0  0  0  0  0  0  0  0  0  0
  -24.2164  -26.1858   22.7161 C   0  0  0  0  0  0  0  0  0  0  0  0
  -19.7902  -31.0862   24.8433 C   0  0  0  0  0  0  0  0  0  0  0  0
  -32.1251  -17.1855   21.9708 C   0  0  0  0  0  0  0  0  0  0  0  0
  -34.3054  -26.0797   17.0402 C   0  0  0  0  0  0  0  0  0  0  0  0
  -34.2804  -24.6119   17.3323 C   0  0  0  0  0  0  0  0  0  0  0  0
  -21.2865  -31.1220   24.5486 C   0  0  0  0  0  0  0  0  0  0  0  0
  -30.7772  -16.4714   22.0047 C   0  0  0  0  0  0  0  0  0  0  0  0
  -33.8472  -23.1090   20.1402 C   0  0  0  0  0  0  0  0  0  0  0  0
  -32.1863  -18.2432   20.8696 C   0  0  0  0  0  0  0  0  0  0  0  0
  -29.7250  -18.5199   20.9695 C   0  0  0  0  0  0  0  0  0  0  0  0
  -33.9930  -25.5992   18.4337 C   0  0  0  0  0  0  0  0  0  0  0  0
  -21.5549  -31.0115   23.0429 C   0  0  1  0  0  0  0  0  0  0  0  0
  -32.5236  -23.2862   19.4498 C   0  0  1  0  0  0  0  0  0  0  0  0
  -22.0523  -27.3463   22.1757 C   0  0  1  0  0  0  0  0  0  0  0  0
  -29.6279  -17.4863   22.1021 C   0  0  1  0  0  0  0  0  0  0  0  0
  -32.6055  -22.5371   20.7578 C   0  0  1  0  0  0  0  0  0  0  0  0
  -22.8520  -20.4544   25.6202 C   0  0  0  0  0  0  0  0  0  0  0  0
  -23.5414  -26.9780   26.5354 C   0  0  0  0  0  0  0  0  0  0  0  0
  -23.9524  -24.6435   27.3413 C   0  0  0  0  0  0  0  0  0  0  0  0
  -21.6159  -25.4725   27.0649 C   0  0  0  0  0  0  0  0  0  0  0  0
  -22.5949  -21.1089   21.8810 C   0  0  0  0  0  0  0  0  0  0  0  0
  -28.6489  -26.0225   20.4254 C   0  0  0  0  0  0  0  0  0  1  0  0
  -23.0017  -24.9644   25.0122 C   0  0  1  0  0  0  0  0  0  0  0  0
  -22.5203  -21.2591   24.3732 C   0  0  2  0  0  0  0  0  0  0  0  0
  -23.0371  -25.5229   26.4628 C   0  0  0  0  0  0  0  0  0  0  0  0
  -28.1123  -15.6511   21.4554 N   0  0  0  0  0  0  0  0  0  0  0  0
  -30.6274  -24.7130   19.9097 N   0  0  0  0  0  0  0  0  0  0  0  0
  -28.2733  -16.8023   22.1298 N   0  0  0  0  0  0  0  0  0  0  0  0
  -22.7809  -26.3687   22.9867 N   0  0  0  0  0  0  0  0  0  0  0  0
  -31.0428  -19.1664   20.9420 N   0  0  0  0  0  0  0  0  0  0  0  0
  -27.1369  -18.3608   23.5047 N   0  0  0  0  0  0  0  0  0  0  0  0
  -23.9775  -15.2589   22.6144 N   0  0  0  0  0  0  0  0  0  0  0  0
  -21.4102  -29.6404   22.6030 N   0  0  0  0  0  0  0  0  0  0  0  0
  -22.5026  -23.5973   24.9103 N   0  0  0  0  0  0  0  0  0  0  0  0
  -32.3818  -21.1168   20.8038 N   0  0  0  0  0  0  0  0  0  0  0  0
  -22.8887  -20.4478   23.1786 N   0  3  0  0  0  0  0  0  0  0  0  0
  -24.3934  -17.2337   23.7035 O   0  0  0  0  0  0  0  0  0  0  0  0
  -23.5522  -28.8976   23.1342 O   0  0  0  0  0  0  0  0  0  0  0  0
  -20.9401  -25.9325   24.3497 O   0  0  0  0  0  0  0  0  0  0  0  0
  -24.3953  -22.7097   23.9068 O   0  0  0  0  0  0  0  0  0  0  0  0
  -30.1042  -21.2897   20.9803 O   0  0  0  0  0  0  0  0  0  0  0  0
  -24.6353  -10.6885   19.4977 O   0  0  0  0  0  0  0  0  0  0  0  0
  -27.7925  -26.5088   19.3927 O   0  0  0  0  0  0  0  0  0  1  0  0
  -21.5575   -7.5066   22.7849 F   0  0  0  0  0  0  0  0  0  0  0  0
  -22.3459  -11.6776   20.6905 F   0  0  0  0  0  0  0  0  0  0  0  0
  1  2  1  0  0  0  0
  1  5  2  0  0  0  0
  2  6  2  0  0  0  0
  3  9  2  0  0  0  0
  3 17  1  0  0  0  0
  4 10  1  0  0  0  0
  4 17  2  0  0  0  0
  5 19  1  0  0  0  0
  6 21  1  0  0  0  0
  7 11  2  0  0  0  0
  7 20  1  0  0  0  0
  8 14  2  0  0  0  0
  8 22  1  0  0  0  0
  9 24  1  0  0  0  0
 10 24  2  0  0  0  0
 11 25  1  0  0  0  0
 12 13  2  0  0  0  0
 12 26  1  0  0  0  0
 13 27  1  0  0  0  0
 14 31  1  0  0  0  0
 15 23  1  0  0  0  0
 15 25  2  0  0  0  0
 16 27  2  0  0  0  0
 16 28  1  0  0  0  0
 17 29  1  0  0  0  0
 18 29  1  0  0  0  0
 18 32  2  0  0  0  0
 18 33  1  0  0  0  0
 19 21  2  0  0  0  0
 19 38  1  0  0  0  0
 20 23  2  0  0  0  0
 20 39  1  0  0  0  0
 21 51  1  0  0  0  0
 22 30  2  0  0  0  0
 22 50  1  0  0  0  0
 23 40  1  0  0  0  0
 24 81  1  0  0  0  0
 25 82  1  0  0  0  0
 26 28  2  0  0  0  0
 26 81  1  0  0  0  0
 27 83  1  0  0  0  0
 28 84  1  0  0  0  0
 29 65  2  0  0  0  0
 30 52  1  0  0  0  0
 30 66  1  0  0  0  0
 31 61  1  0  0  0  0
 31 66  2  0  0  0  0
 32 67  1  0  0  0  0
 32 70  1  0  0  0  0
 33 71  1  0  0  0  0
 33 76  2  0  0  0  0
 34 53  1  0  0  0  0
 34 72  1  0  0  0  0
 34 77  2  0  0  0  0
 35 62  1  0  0  0  0
 35 68  1  0  0  0  0
 35 78  2  0  0  0  0
 36 63  1  0  0  0  0
 36 73  1  0  0  0  0
 36 79  2  0  0  0  0
 37 69  1  0  0  0  0
 37 74  1  0  0  0  0
 37 80  2  0  0  0  0
 38 41  1  0  0  0  0
 39 53  1  0  0  0  0
 40 68  1  0  0  0  0
 41 45  1  0  0  0  0
 42 46  1  0  0  0  0
 42 48  1  0  0  0  0
 43 44  1  0  0  0  0
 43 50  1  0  0  0  0
 44 50  1  0  0  0  0
 45 51  1  0  0  0  0
 46 54  1  0  0  0  0
 47 52  1  0  0  0  0
 47 55  1  0  0  0  0
 48 69  1  0  0  0  0
 49 54  1  0  0  0  0
 49 69  1  0  0  0  0
 51 72  1  0  0  0  0
 52 55  1  0  0  0  0
 53 68  1  0  0  0  0
 54 67  1  0  0  0  0
 55 74  1  0  0  0  0
 56 63  1  0  0  0  0
 57 64  1  0  0  0  0
 58 64  1  0  0  0  0
 59 64  1  0  0  0  0
 60 75  1  0  0  0  0
 61 82  1  0  0  0  0
 62 64  1  0  0  0  0
 62 73  1  0  0  0  0
 63 75  1  0  0  0  0
 65 67  1  0  0  0  0
M  CHG  1  75   1
M  ISO  4  37 100  61 101  74 100  82 101
M  END
> <Batch ID>
0184

> <Smiles>
CNC(C)C(=O)NC(C(=O)N1Cc2cc([101O:1][101CH2:1]c3ccc(C4CC4)c(C4CC4[100NH:0][100C:0](=O)N4CCCC(n5nc(-c6ccc(Oc7ccc(F)cc7F)cc6)c(C(N)=O)c5N)C4)n3)ccc2CC1C(=O)NC1CCCc2ccccc21)C(C)(C)C

> <Shape>
0.184

> <Color>
0.093

> <Negative vol penalty>
0.000

$$$$

  -OEChem-04052323103D

 85 94  0     1  0  0  0  0  0999 V2000
  -32.5068  -13.0178   20.0022 C   0  0  0  0  0  0  0  0  0  0  0  0
  -32.0277  -14.2773   20.3476 C   0  0  0  0  0  0  0  0  0  0  0  0
  -29.6729  -23.3782   19.7176 C   0  0  0  0  0  0  0  0  0  0  0  0
  -29.8762  -24.6185   17.6542 C   0  0  0  0  0  0  0  0  0  0  0  0
  -31.6213  -12.0298   19.5738 C   0  0  0  0  0  0  0  0  0  0  0  0
  -30.6628  -14.5500   20.2639 C   0  0  0  0  0  0  0  0  0  0  0  0
  -27.4012  -18.1857   23.9583 C   0  0  0  0  0  0  0  0  0  0  0  0
  -29.8253  -22.1833   19.0144 C   0  0  0  0  0  0  0  0  0  0  0  0
  -30.0287  -23.4236   16.9510 C   0  0  0  0  0  0  0  0  0  0  0  0
  -26.9707  -19.5059   23.8339 C   0  0  0  0  0  0  0  0  0  0  0  0
  -27.9153  -20.1651   17.0901 C   0  0  0  0  0  0  0  0  0  0  0  0
  -27.0465  -19.1179   17.3971 C   0  0  0  0  0  0  0  0  0  0  0  0
  -24.8383  -18.7273   23.0179 C   0  0  0  0  0  0  0  0  0  0  0  0
  -28.9294  -17.7392   18.0225 C   0  0  0  0  0  0  0  0  0  0  0  0
  -23.4238  -23.4641   23.7846 C   0  0  0  0  0  0  0  0  0  0  0  0
  -29.6983  -24.5958   19.0375 C   0  0  0  0  0  0  0  0  0  0  0  0
  -30.5584  -26.6163   20.3358 C   0  0  0  0  0  0  0  0  0  0  0  0
  -30.2436  -12.2874   19.4939 C   0  0  0  0  0  0  0  0  0  0  0  0
  -26.5559  -17.1249   23.6026 C   0  0  0  0  0  0  0  0  0  0  0  0
  -29.7581  -13.5649   19.8327 C   0  0  0  0  0  0  0  0  0  0  0  0
  -25.2596  -17.3945   23.1412 C   0  0  0  0  0  0  0  0  0  0  0  0
  -30.0032  -22.2059   17.6311 C   0  0  0  0  0  0  0  0  0  0  0  0
  -25.6901  -19.7770   23.3609 C   0  0  0  0  0  0  0  0  0  0  0  0
  -29.2911  -19.9993   17.2491 C   0  0  0  0  0  0  0  0  0  0  0  0
  -27.5536  -17.9050   17.8633 C   0  0  0  0  0  0  0  0  0  0  0  0
  -29.7982  -18.7864   17.7154 C   0  0  0  0  0  0  0  0  0  0  0  0
  -29.5403  -25.8305   19.7633 C   0  0  0  0  0  0  0  0  0  0  0  0
  -23.1792  -24.8087   23.5931 C   0  0  0  0  0  0  0  0  0  0  0  0
  -23.6691  -22.7330   22.6403 C   0  0  0  0  0  0  0  0  0  0  0  0
  -29.8952  -27.6753   20.9060 C   0  0  0  0  0  0  0  0  0  0  0  0
  -23.4254  -24.5846   21.3445 C   0  0  0  0  0  0  0  0  0  0  0  0
  -31.9768  -26.4077   20.3507 C   0  0  0  0  0  0  0  0  0  0  0  0
  -22.9014  -25.6978   24.7555 C   0  0  0  0  0  0  0  0  0  0  0  0
  -26.6687  -14.7935   21.4449 C   0  0  0  0  0  0  0  0  0  0  0  0
  -23.9754  -13.7967   22.9531 C   0  0  0  0  0  0  0  0  0  0  0  0
  -21.2731  -14.5878   24.8815 C   0  0  0  0  0  0  0  0  0  0  0  0
  -24.2317  -28.2494   22.8778 C   0  0  0  0  0  0  0  0  0  0  0  0
  -29.3307  -11.2024   18.9801 C   0  0  0  0  0  0  0  0  0  0  0  0
  -27.0258  -15.7057   23.7679 C   0  0  0  0  0  0  0  0  0  0  0  0
  -24.3062  -16.2908   22.7650 C   0  0  0  0  0  0  0  0  0  0  0  0
  -27.8551  -11.4566   19.2771 C   0  0  0  0  0  0  0  0  0  0  0  0
  -25.9221  -30.3023   20.4398 C   0  0  0  0  0  0  0  0  0  0  0  0
  -27.4811  -12.8945   18.9317 C   0  0  0  0  0  0  0  0  0  0  0  0
  -27.1226  -29.4491   20.0260 C   0  0  0  0  0  0  0  0  0  0  0  0
  -25.2215  -26.6110   25.6337 C   0  0  0  0  0  0  0  0  0  0  0  0
  -24.6997  -29.4469   20.7688 C   0  0  0  0  0  0  0  0  0  0  0  0
  -25.8386  -26.6938   24.2357 C   0  0  0  0  0  0  0  0  0  0  0  0
  -26.1353  -27.5306   21.3326 C   0  0  0  0  0  0  0  0  0  0  0  0
  -28.2814  -13.8914   19.7787 C   0  0  1  0  0  0  0  0  0  0  0  0
  -23.8491  -26.8755   24.9980 C   0  0  1  0  0  0  0  0  0  0  0  0
  -26.2638  -14.7178   22.8899 C   0  0  1  0  0  0  0  0  0  0  0  0
  -27.4078  -28.3478   21.0644 C   0  0  1  0  0  0  0  0  0  0  0  0
  -23.4263  -25.2068   19.9894 C   0  0  0  0  0  0  0  0  0  0  0  0
  -19.2275  -13.5697   25.9189 C   0  0  0  0  0  0  0  0  0  0  0  0
  -22.6070  -13.7735   20.2261 C   0  0  0  0  0  0  0  0  0  0  0  0
  -20.4028  -13.6891   21.4105 C   0  0  0  0  0  0  0  0  0  0  0  0
  -22.0410  -11.8293   21.6938 C   0  0  0  0  0  0  0  0  0  0  0  0
  -21.6160  -26.2676   26.6616 C   0  0  0  0  0  0  0  0  0  0  0  0
  -22.1829  -15.2612   27.6161 C   0  0  0  0  0  0  0  0  0  0  0  0
  -23.9442  -21.2706   22.7470 C   0  0  0  0  0  0  0  0  0  1  0  0
  -22.4982  -14.0615   22.7895 C   0  0  1  0  0  0  0  0  0  0  0  0
  -20.6915  -13.9291   26.1194 C   0  0  2  0  0  0  0  0  0  0  0  0
  -21.9057  -13.3594   21.5351 C   0  0  0  0  0  0  0  0  0  0  0  0
  -28.3228  -26.3461   19.9527 N   0  0  0  0  0  0  0  0  0  0  0  0
  -23.1723  -25.4043   22.3825 N   0  0  0  0  0  0  0  0  0  0  0  0
  -23.6775  -23.2629   21.3995 N   0  0  0  0  0  0  0  0  0  0  0  0
  -21.8851  -25.4277   25.5051 N   0  0  0  0  0  0  0  0  0  0  0  0
  -28.5716  -27.4673   20.6507 N   0  0  0  0  0  0  0  0  0  0  0  0
  -24.8144  -14.9200   22.9384 N   0  0  0  0  0  0  0  0  0  0  0  0
  -25.0390  -28.4125   21.7494 N   0  0  0  0  0  0  0  0  0  0  0  0
  -24.5885  -27.2956   23.8036 N   0  0  0  0  0  0  0  0  0  0  0  0
  -30.3208  -28.7547   21.5960 N   0  0  0  0  0  0  0  0  0  0  0  0
  -32.4913  -25.2682   19.7173 N   0  0  0  0  0  0  0  0  0  0  0  0
  -27.7318  -13.9747   21.1149 N   0  0  0  0  0  0  0  0  0  0  0  0
  -21.8712  -13.6678   24.0466 N   0  0  0  0  0  0  0  0  0  0  0  0
  -20.7944  -14.8451   27.2904 N   0  3  0  0  0  0  0  0  0  0  0  0
  -32.7633  -27.1996   20.9233 O   0  0  0  0  0  0  0  0  0  0  0  0
  -26.0606  -15.5384   20.6853 O   0  0  0  0  0  0  0  0  0  0  0  0
  -24.3696  -12.6367   23.0962 O   0  0  0  0  0  0  0  0  0  0  0  0
  -21.2006  -15.7971   24.6741 O   0  0  0  0  0  0  0  0  0  0  0  0
  -23.2342  -28.9569   23.0729 O   0  0  0  0  0  0  0  0  0  0  0  0
  -30.1523  -21.0401   16.9446 O   0  0  0  0  0  0  0  0  0  0  0  0
  -25.2647  -21.0737   23.2370 O   0  0  0  0  0  0  0  0  0  1  0  0
  -26.7191  -16.9000   18.1596 F   0  0  0  0  0  0  0  0  0  0  0  0
  -31.1189  -18.6216   17.8713 F   0  0  0  0  0  0  0  0  0  0  0  0
  1  2  1  0  0  0  0
  1  5  2  0  0  0  0
  2  6  2  0  0  0  0
  3  8  2  0  0  0  0
  3 16  1  0  0  0  0
  4  9  1  0  0  0  0
  4 16  2  0  0  0  0
  5 18  1  0  0  0  0
  6 20  1  0  0  0  0
  7 10  2  0  0  0  0
  7 19  1  0  0  0  0
  8 22  1  0  0  0  0
  9 22  2  0  0  0  0
 10 23  1  0  0  0  0
 11 12  2  0  0  0  0
 11 24  1  0  0  0  0
 12 25  1  0  0  0  0
 13 21  1  0  0  0  0
 13 23  2  0  0  0  0
 14 25  2  0  0  0  0
 14 26  1  0  0  0  0
 15 28  1  0  0  0  0
 15 29  2  0  0  0  0
 16 27  1  0  0  0  0
 17 27  1  0  0  0  0
 17 30  2  0  0  0  0
 17 32  1  0  0  0  0
 18 20  2  0  0  0  0
 18 38  1  0  0  0  0
 19 21  2  0  0  0  0
 19 39  1  0  0  0  0
 20 49  1  0  0  0  0
 21 40  1  0  0  0  0
 22 82  1  0  0  0  0
 23 83  1  0  0  0  0
 24 26  2  0  0  0  0
 24 82  1  0  0  0  0
 25 84  1  0  0  0  0
 26 85  1  0  0  0  0
 27 64  2  0  0  0  0
 28 33  1  0  0  0  0
 28 65  2  0  0  0  0
 29 60  1  0  0  0  0
 29 66  1  0  0  0  0
 30 68  1  0  0  0  0
 30 72  1  0  0  0  0
 31 53  1  0  0  0  0
 31 65  1  0  0  0  0
 31 66  2  0  0  0  0
 32 73  1  0  0  0  0
 32 77  2  0  0  0  0
 33 50  1  0  0  0  0
 33 67  2  0  0  0  0
 34 51  1  0  0  0  0
 34 74  1  0  0  0  0
 34 78  2  0  0  0  0
 35 61  1  0  0  0  0
 35 69  1  0  0  0  0
 35 79  2  0  0  0  0
 36 62  1  0  0  0  0
 36 75  1  0  0  0  0
 36 80  2  0  0  0  0
 37 70  1  0  0  0  0
 37 71  1  0  0  0  0
 37 81  2  0  0  0  0
 38 41  1  0  0  0  0
 39 51  1  0  0  0  0
 40 69  1  0  0  0  0
 41 43  1  0  0  0  0
 42 44  1  0  0  0  0
 42 46  1  0  0  0  0
 43 49  1  0  0  0  0
 44 52  1  0  0  0  0
 45 47  1  0  0  0  0
 45 50  1  0  0  0  0
 46 70  1  0  0  0  0
 47 71  1  0  0  0  0
 48 52  1  0  0  0  0
 48 70  1  0  0  0  0
 49 74  1  0  0  0  0
 50 71  1  0  0  0  0
 51 69  1  0  0  0  0
 52 68  1  0  0  0  0
 54 62  1  0  0  0  0
 55 63  1  0  0  0  0
 56 63  1  0  0  0  0
 57 63  1  0  0  0  0
 58 67  1  0  0  0  0
 59 76  1  0  0  0  0
 60 83  1  0  0  0  0
 61 63  1  0  0  0  0
 61 75  1  0  0  0  0
 62 76  1  0  0  0  0
 64 68  1  0  0  0  0
M  CHG  1  76   1
M  ISO  4  37 100  60 101  71 100  83 101
M  END
> <Batch ID>
0184

> <Smiles>
CN=C(c1cc([101CH2:1][101O:1]c2ccc3c(c2)CN(C(=O)C(NC(=O)C(C)NC)C(C)(C)C)C(C(=O)NC2CCCc4ccccc42)C3)nc(C)n1)C1CC[100N:0]1[100C:0](=O)N1CCCC(n2nc(-c3ccc(Oc4ccc(F)cc4F)cc3)c(C(N)=O)c2N)C1

> <Shape>
0.199

> <Color>
0.067

> <Negative vol penalty>
0.000

$$$$

  -OEChem-04052323103D

 85 95  0     1  0  0  0  0  0999 V2000
  -22.9159   -8.3724   20.6211 C   0  0  0  0  0  0  0  0  0  0  0  0
  -22.1544   -9.4760   20.2502 C   0  0  0  0  0  0  0  0  0  0  0  0
  -27.6190  -25.3275   20.1030 C   0  0  0  0  0  0  0  0  0  0  0  0
  -28.9498  -25.8674   22.0458 C   0  0  0  0  0  0  0  0  0  0  0  0
  -23.9876   -8.5296   21.4989 C   0  0  0  0  0  0  0  0  0  0  0  0
  -22.4635  -10.7374   20.7578 C   0  0  0  0  0  0  0  0  0  0  0  0
  -22.3358  -17.6679   18.9498 C   0  0  0  0  0  0  0  0  0  0  0  0
  -28.7817  -25.0543   19.3825 C   0  0  0  0  0  0  0  0  0  0  0  0
  -30.1125  -25.5942   21.3253 C   0  0  0  0  0  0  0  0  0  0  0  0
  -21.8719  -18.8954   19.4207 C   0  0  0  0  0  0  0  0  0  0  0  0
  -31.4163  -24.5616   16.9249 C   0  0  0  0  0  0  0  0  0  0  0  0
  -31.5137  -25.0715   15.6303 C   0  0  0  0  0  0  0  0  0  0  0  0
  -23.7949  -19.0601   20.8679 C   0  0  0  0  0  0  0  0  0  0  0  0
  -31.2965  -27.3159   16.4981 C   0  0  0  0  0  0  0  0  0  0  0  0
  -20.7728  -23.7596   20.1339 C   0  0  0  0  0  0  0  0  0  0  0  0
  -27.7031  -25.7342   21.4347 C   0  0  0  0  0  0  0  0  0  0  0  0
  -25.7464  -25.1126   22.9488 C   0  0  0  0  0  0  0  0  0  0  0  0
  -24.3160   -9.7951   22.0100 C   0  0  0  0  0  0  0  0  0  0  0  0
  -23.5291  -17.1211   19.4433 C   0  0  0  0  0  0  0  0  0  0  0  0
  -23.5399  -10.9115   21.6444 C   0  0  0  0  0  0  0  0  0  0  0  0
  -24.2730  -17.8267   20.3998 C   0  0  0  0  0  0  0  0  0  0  0  0
  -20.6038  -22.6056   20.8715 C   0  0  0  0  0  0  0  0  0  0  0  0
  -30.0284  -25.1876   19.9936 C   0  0  0  0  0  0  0  0  0  0  0  0
  -22.6000  -19.5904   20.3819 C   0  0  0  0  0  0  0  0  0  0  0  0
  -31.2589  -25.4287   18.0061 C   0  0  0  0  0  0  0  0  0  0  0  0
  -31.4539  -26.4487   15.4169 C   0  0  0  0  0  0  0  0  0  0  0  0
  -31.1991  -26.8058   17.7927 C   0  0  0  0  0  0  0  0  0  0  0  0
  -26.5024  -26.0171   22.1793 C   0  0  0  0  0  0  0  0  0  0  0  0
  -20.1268  -22.7816   22.1544 C   0  0  0  0  0  0  0  0  0  0  0  0
  -24.7129  -25.8669   23.4482 C   0  0  0  0  0  0  0  0  0  0  0  0
  -20.0408  -25.0349   21.8673 C   0  0  0  0  0  0  0  0  0  0  0  0
  -25.9593  -23.7155   23.1907 C   0  0  0  0  0  0  0  0  0  0  0  0
  -24.2973  -14.4752   21.0284 C   0  0  0  0  0  0  0  0  0  0  0  0
  -27.3263  -15.5274   20.5383 C   0  0  0  0  0  0  0  0  0  0  0  0
  -29.0683  -18.6848   20.6545 C   0  0  0  0  0  0  0  0  0  0  0  0
  -20.7396  -29.6577   22.8239 C   0  0  0  0  0  0  0  0  0  0  0  0
  -25.4543   -9.9080   22.9930 C   0  0  0  0  0  0  0  0  0  0  0  0
  -24.0296  -15.8086   18.9056 C   0  0  0  0  0  0  0  0  0  0  0  0
  -25.5707  -17.2927   20.9469 C   0  0  0  0  0  0  0  0  0  0  0  0
  -25.9473  -11.3389   23.1924 C   0  0  0  0  0  0  0  0  0  0  0  0
  -23.9700  -30.8597   23.4763 C   0  0  0  0  0  0  0  0  0  0  0  0
  -24.7687  -12.2871   23.3889 C   0  0  0  0  0  0  0  0  0  0  0  0
  -24.8683  -29.6455   23.2465 C   0  0  0  0  0  0  0  0  0  0  0  0
  -17.7801  -28.2986   22.7025 C   0  0  0  0  0  0  0  0  0  0  0  0
  -18.3778  -27.9506   21.3110 C   0  0  0  0  0  0  0  0  0  0  0  0
  -22.8438  -30.9078   22.4506 C   0  0  0  0  0  0  0  0  0  0  0  0
  -22.8829  -28.4436   22.2062 C   0  0  0  0  0  0  0  0  0  0  0  0
  -19.2402  -26.5420   23.7346 C   0  0  0  0  0  0  0  0  0  0  0  0
  -23.8592  -12.3000   22.1543 C   0  0  1  0  0  0  0  0  0  0  0  0
  -24.9936  -15.1028   19.8542 C   0  0  1  0  0  0  0  0  0  0  0  0
  -24.0407  -28.3498   23.2194 C   0  0  1  0  0  0  0  0  0  0  0  0
  -18.9755  -28.0610   23.6474 C   0  0  1  0  0  0  0  0  0  0  0  0
  -19.8275  -27.5558   21.6593 C   0  0  2  0  0  0  0  0  0  0  0  0
  -19.9016  -21.6036   23.0439 C   0  0  0  0  0  0  0  0  0  0  0  0
  -31.1252  -19.4588   19.4431 C   0  0  0  0  0  0  0  0  0  0  0  0
  -28.8000  -14.5921   23.0409 C   0  0  0  0  0  0  0  0  0  0  0  0
  -30.3084  -16.5770   22.8099 C   0  0  0  0  0  0  0  0  0  0  0  0
  -30.2431  -14.8465   21.0144 C   0  0  0  0  0  0  0  0  0  0  0  0
  -27.6704  -21.0489   19.5520 C   0  0  0  0  0  0  0  0  0  0  0  0
  -20.9215  -21.2731   20.2980 C   0  0  0  0  0  0  0  0  0  1  0  0
  -28.2832  -16.4194   21.2917 C   0  0  1  0  0  0  0  0  0  0  0  0
  -29.6048  -19.4708   19.4718 C   0  0  2  0  0  0  0  0  0  0  0  0
  -29.3805  -15.6121   22.0412 C   0  0  0  0  0  0  0  0  0  0  0  0
  -20.5002  -24.9952   20.6021 N   0  0  0  0  0  0  0  0  0  0  0  0
  -25.9926  -27.2516   22.1861 N   0  0  0  0  0  0  0  0  0  0  0  0
  -19.8339  -23.9863   22.6866 N   0  0  0  0  0  0  0  0  0  0  0  0
  -24.9050  -27.1282   22.9659 N   0  0  0  0  0  0  0  0  0  0  0  0
  -19.7527  -26.2754   22.3753 N   0  0  3  0  0  0  0  0  0  0  0  0
  -26.0150  -16.0024   20.3944 N   0  0  0  0  0  0  0  0  0  0  0  0
  -22.0843  -29.6570   22.4328 N   0  0  0  0  0  0  0  0  0  0  0  0
  -20.0729  -28.4490   22.7828 N   0  0  0  0  0  0  0  0  0  0  0  0
  -23.6675  -25.5678   24.2482 N   0  0  0  0  0  0  0  0  0  0  0  0
  -27.0700  -23.0970   22.6008 N   0  0  0  0  0  0  0  0  0  0  0  0
  -24.4456  -13.1034   21.1030 N   0  0  0  0  0  0  0  0  0  0  0  0
  -28.8034  -17.3739   20.3187 N   0  0  0  0  0  0  0  0  0  0  0  0
  -29.1471  -20.8874   19.5408 N   0  3  0  0  0  0  0  0  0  0  0  0
  -25.1783  -23.0321   23.8953 O   0  0  0  0  0  0  0  0  0  0  0  0
  -23.6729  -15.1832   21.8097 O   0  0  0  0  0  0  0  0  0  0  0  0
  -27.7293  -14.4521   20.0877 O   0  0  0  0  0  0  0  0  0  0  0  0
  -28.9045  -19.1828   21.7661 O   0  0  0  0  0  0  0  0  0  0  0  0
  -20.1639  -30.6902   23.1881 O   0  0  0  0  0  0  0  0  0  0  0  0
  -31.1631  -24.9209   19.2909 O   0  0  0  0  0  0  0  0  0  0  0  0
  -22.1464  -20.7959   20.8466 O   0  0  0  0  0  0  0  0  0  1  0  0
  -31.5490  -26.9384   14.1738 F   0  0  0  0  0  0  0  0  0  0  0  0
  -31.0492  -27.6439   18.8276 F   0  0  0  0  0  0  0  0  0  0  0  0
  1  2  1  0  0  0  0
  1  5  2  0  0  0  0
  2  6  2  0  0  0  0
  3  8  2  0  0  0  0
  3 16  1  0  0  0  0
  4  9  1  0  0  0  0
  4 16  2  0  0  0  0
  5 18  1  0  0  0  0
  6 20  1  0  0  0  0
  7 10  2  0  0  0  0
  7 19  1  0  0  0  0
  8 23  1  0  0  0  0
  9 23  2  0  0  0  0
 10 24  1  0  0  0  0
 11 12  2  0  0  0  0
 11 25  1  0  0  0  0
 12 26  1  0  0  0  0
 13 21  1  0  0  0  0
 13 24  2  0  0  0  0
 14 26  2  0  0  0  0
 14 27  1  0  0  0  0
 15 22  1  0  0  0  0
 15 64  2  0  0  0  0
 16 28  1  0  0  0  0
 17 28  1  0  0  0  0
 17 30  2  0  0  0  0
 17 32  1  0  0  0  0
 18 20  2  0  0  0  0
 18 37  1  0  0  0  0
 19 21  2  0  0  0  0
 19 38  1  0  0  0  0
 20 49  1  0  0  0  0
 21 39  1  0  0  0  0
 22 29  2  0  0  0  0
 22 60  1  0  0  0  0
 23 82  1  0  0  0  0
 24 83  1  0  0  0  0
 25 27  2  0  0  0  0
 25 82  1  0  0  0  0
 26 84  1  0  0  0  0
 27 85  1  0  0  0  0
 28 65  2  0  0  0  0
 29 54  1  0  0  0  0
 29 66  1  0  0  0  0
 30 67  1  0  0  0  0
 30 72  1  0  0  0  0
 31 64  1  0  0  0  0
 31 66  2  0  0  0  0
 31 68  1  0  0  0  0
 32 73  1  0  0  0  0
 32 77  2  0  0  0  0
 33 50  1  0  0  0  0
 33 74  1  0  0  0  0
 33 78  2  0  0  0  0
 34 61  1  0  0  0  0
 34 69  1  0  0  0  0
 34 79  2  0  0  0  0
 35 62  1  0  0  0  0
 35 75  1  0  0  0  0
 35 80  2  0  0  0  0
 36 70  1  0  0  0  0
 36 71  1  0  0  0  0
 36 81  2  0  0  0  0
 37 40  1  0  0  0  0
 38 50  1  0  0  0  0
 39 69  1  0  0  0  0
 40 42  1  0  0  0  0
 41 43  1  0  0  0  0
 41 46  1  0  0  0  0
 42 49  1  0  0  0  0
 43 51  1  0  0  0  0
 44 45  1  0  0  0  0
 44 52  1  0  0  0  0
 45 53  1  0  0  0  0
 46 70  1  0  0  0  0
 47 51  1  0  0  0  0
 47 70  1  0  0  0  0
 48 52  1  0  0  0  0
 48 68  1  0  0  0  0
 49 74  1  0  0  0  0
 50 69  1  0  0  0  0
 51 67  1  0  0  0  0
 52 71  1  0  0  0  0
 53 68  1  0  0  0  0
 53 71  1  0  0  0  0
 55 62  1  0  0  0  0
 56 63  1  0  0  0  0
 57 63  1  0  0  0  0
 58 63  1  0  0  0  0
 59 76  1  0  0  0  0
 60 83  1  0  0  0  0
 61 63  1  0  0  0  0
 61 75  1  0  0  0  0
 62 76  1  0  0  0  0
 65 67  1  0  0  0  0
M  CHG  1  76   1
M  ISO  4  36 100  60 101  71 100  83 101
M  END
> <Batch ID>
0184

> <Smiles>
CNC(C)C(=O)NC(C(=O)N1Cc2cc([101O:1][101CH2:1]c3cnc(N4CC5CCC4[100N:0]5[100C:0](=O)N4CCCC(n5nc(-c6ccc(Oc7ccc(F)cc7F)cc6)c(C(N)=O)c5N)C4)nc3C)ccc2CC1C(=O)NC1CCCc2ccccc21)C(C)(C)C

> <Shape>
0.240

> <Color>
0.070

> <Negative vol penalty>
0.000

$$$$

  -OEChem-04052323103D

 81 90  0     1  0  0  0  0  0999 V2000
  -22.9254  -35.7394   16.2839 C   0  0  0  0  0  0  0  0  0  0  0  0
  -23.6296  -34.5460   16.1592 C   0  0  0  0  0  0  0  0  0  0  0  0
  -24.1395  -10.0048   20.9801 C   0  0  0  0  0  0  0  0  0  0  0  0
  -24.7435  -10.8029   23.1790 C   0  0  0  0  0  0  0  0  0  0  0  0
  -22.9434  -36.4352   17.4919 C   0  0  0  0  0  0  0  0  0  0  0  0
  -24.3531  -34.0484   17.2424 C   0  0  0  0  0  0  0  0  0  0  0  0
  -25.1796  -28.1644   18.7262 C   0  0  0  0  0  0  0  0  0  0  0  0
  -28.0261  -21.3327   21.6544 C   0  0  0  0  0  0  0  0  0  0  0  0
  -23.7693   -8.7765   21.5275 C   0  0  0  0  0  0  0  0  0  0  0  0
  -24.3732   -9.5746   23.7265 C   0  0  0  0  0  0  0  0  0  0  0  0
  -26.2327  -27.2791   18.5004 C   0  0  0  0  0  0  0  0  0  0  0  0
  -21.1323   -7.4926   23.2100 C   0  0  0  0  0  0  0  0  0  0  0  0
  -19.9277   -6.9310   22.7869 C   0  0  0  0  0  0  0  0  0  0  0  0
  -27.9684  -19.9472   21.5520 C   0  0  0  0  0  0  0  0  0  0  0  0
  -27.1054  -27.7668   20.6958 C   0  0  0  0  0  0  0  0  0  0  0  0
  -21.1178   -4.9928   21.9717 C   0  0  0  0  0  0  0  0  0  0  0  0
  -30.1220  -21.2764   20.5316 C   0  0  0  0  0  0  0  0  0  0  0  0
  -24.6267  -11.0180   21.8058 C   0  0  0  0  0  0  0  0  0  0  0  0
  -24.1911  -13.4170   21.0556 C   0  0  0  0  0  0  0  0  0  0  0  0
  -29.1200  -22.0175   21.1371 C   0  0  0  0  0  0  0  0  0  0  0  0
  -23.6596  -35.9408   18.5934 C   0  0  0  0  0  0  0  0  0  0  0  0
  -25.0873  -28.8669   19.9363 C   0  0  0  0  0  0  0  0  0  0  0  0
  -24.3818  -34.7389   18.4660 C   0  0  0  0  0  0  0  0  0  0  0  0
  -26.0487  -28.6585   20.9355 C   0  0  0  0  0  0  0  0  0  0  0  0
  -23.8861   -8.5614   22.9007 C   0  0  0  0  0  0  0  0  0  0  0  0
  -27.1974  -27.0823   19.4842 C   0  0  0  0  0  0  0  0  0  0  0  0
  -22.3297   -6.8044   23.0140 C   0  0  0  0  0  0  0  0  0  0  0  0
  -19.9204   -5.6811   22.1677 C   0  0  0  0  0  0  0  0  0  0  0  0
  -22.3224   -5.5545   22.3948 C   0  0  0  0  0  0  0  0  0  0  0  0
  -25.0098  -12.2869   21.2407 C   0  0  0  0  0  0  0  0  0  0  0  0
  -29.0219  -19.2988   20.9278 C   0  0  0  0  0  0  0  0  0  0  0  0
  -25.0211  -14.3532   20.4888 C   0  0  0  0  0  0  0  0  0  0  0  0
  -22.8043  -13.6039   21.3682 C   0  0  0  0  0  0  0  0  0  0  0  0
  -25.1307  -31.9377   20.7562 C   0  0  0  0  0  0  0  0  0  0  0  0
  -24.4446  -30.7596   23.6997 C   0  0  0  0  0  0  0  0  0  0  0  0
  -24.5626  -28.1247   25.8654 C   0  0  0  0  0  0  0  0  0  0  0  0
  -29.8951  -17.0346   20.2514 C   0  0  0  0  0  0  0  0  0  0  0  0
  -23.6880  -36.7523   19.8644 C   0  0  0  0  0  0  0  0  0  0  0  0
  -23.9305  -29.7982   20.1748 C   0  0  0  0  0  0  0  0  0  0  0  0
  -25.9840  -29.3730   22.2598 C   0  0  0  0  0  0  0  0  0  0  0  0
  -24.1736  -35.9653   21.0789 C   0  0  0  0  0  0  0  0  0  0  0  0
  -29.6887  -13.8950   18.5849 C   0  0  0  0  0  0  0  0  0  0  0  0
  -25.4332  -35.1765   20.7350 C   0  0  0  0  0  0  0  0  0  0  0  0
  -28.3857  -13.2897   19.1121 C   0  0  0  0  0  0  0  0  0  0  0  0
  -29.8016  -24.3933   20.0374 C   0  0  0  0  0  0  0  0  0  0  0  0
  -27.9291  -24.4447   21.0411 C   0  0  0  0  0  0  0  0  0  0  0  0
  -30.4286  -14.6789   19.6674 C   0  0  0  0  0  0  0  0  0  0  0  0
  -28.3239  -15.0969   20.8776 C   0  0  0  0  0  0  0  0  0  0  0  0
  -29.2175  -23.5953   21.2383 C   0  0  0  0  0  0  0  0  0  0  0  0
  -25.1582  -34.1540   19.6258 C   0  0  1  0  0  0  0  0  0  0  0  0
  -24.2188  -30.8476   21.2439 C   0  0  1  0  0  0  0  0  0  0  0  0
  -27.5110  -14.3522   19.8060 C   0  0  2  0  0  0  0  0  0  0  0  0
  -28.8111  -25.5274   20.3818 C   0  0  0  0  0  0  0  0  0  1  0  0
  -23.9574  -27.4756   28.2127 C   0  0  0  0  0  0  0  0  0  0  0  0
  -26.8416  -32.3290   24.7491 C   0  0  0  0  0  0  0  0  0  0  0  0
  -26.7632  -30.9275   26.8223 C   0  0  0  0  0  0  0  0  0  0  0  0
  -24.8277  -32.3858   26.2308 C   0  0  0  0  0  0  0  0  0  0  0  0
  -22.7260  -26.0017   24.9283 C   0  0  0  0  0  0  0  0  0  0  0  0
  -25.2603  -30.2923   24.8809 C   0  0  1  0  0  0  0  0  0  0  0  0
  -23.5032  -27.5094   26.7618 C   0  0  2  0  0  0  0  0  0  0  0  0
  -25.9257  -31.4715   25.6452 C   0  0  0  0  0  0  0  0  0  0  0  0
  -30.1010  -19.9298   20.4133 N   0  0  0  0  0  0  0  0  0  0  0  0
  -26.2636  -12.4849   20.8251 N   0  0  0  0  0  0  0  0  0  0  0  0
  -26.2389  -13.7502   20.3731 N   0  0  0  0  0  0  0  0  0  0  0  0
  -24.8372  -30.2780   22.4428 N   0  0  0  0  0  0  0  0  0  0  0  0
  -29.5390  -15.6696   20.2773 N   0  0  0  0  0  0  0  0  0  0  0  0
  -24.8206  -15.6250   20.0831 N   0  0  0  0  0  0  0  0  0  0  0  0
  -22.1005  -12.5391   21.9471 N   0  0  0  0  0  0  0  0  0  0  0  0
  -28.9565  -17.8865   20.8328 N   0  0  0  0  0  0  0  0  0  0  0  0
  -24.4727  -32.9980   20.1627 N   0  0  0  0  0  0  0  0  0  0  0  0
  -24.3662  -29.4793   25.6983 N   0  0  0  0  0  0  0  0  0  0  0  0
  -23.2058  -26.1144   26.3298 N   0  3  0  0  0  0  0  0  0  0  0  0
  -22.2029  -14.6777   21.1257 O   0  0  0  0  0  0  0  0  0  0  0  0
  -26.3414  -31.8258   20.9086 O   0  0  0  0  0  0  0  0  0  0  0  0
  -23.4898  -31.5180   23.8861 O   0  0  0  0  0  0  0  0  0  0  0  0
  -25.4754  -27.4701   25.3667 O   0  0  0  0  0  0  0  0  0  0  0  0
  -30.9419  -17.4224   19.7262 O   0  0  0  0  0  0  0  0  0  0  0  0
  -23.5247   -7.3630   23.4354 O   0  0  0  0  0  0  0  0  0  0  0  0
  -28.2267  -26.2193   19.2661 O   0  0  0  0  0  0  0  0  0  1  0  0
  -18.7634   -5.1411   21.7628 F   0  0  0  0  0  0  0  0  0  0  0  0
  -23.4694   -4.8880   22.2048 F   0  0  0  0  0  0  0  0  0  0  0  0
  1  2  1  0  0  0  0
  1  5  2  0  0  0  0
  2  6  2  0  0  0  0
  3  9  2  0  0  0  0
  3 18  1  0  0  0  0
  4 10  1  0  0  0  0
  4 18  2  0  0  0  0
  5 21  1  0  0  0  0
  6 23  1  0  0  0  0
  7 11  2  0  0  0  0
  7 22  1  0  0  0  0
  8 14  2  0  0  0  0
  8 20  1  0  0  0  0
  9 25  1  0  0  0  0
 10 25  2  0  0  0  0
 11 26  1  0  0  0  0
 12 13  2  0  0  0  0
 12 27  1  0  0  0  0
 13 28  1  0  0  0  0
 14 31  1  0  0  0  0
 15 24  1  0  0  0  0
 15 26  2  0  0  0  0
 16 28  2  0  0  0  0
 16 29  1  0  0  0  0
 17 20  2  0  0  0  0
 17 62  1  0  0  0  0
 18 30  1  0  0  0  0
 19 30  1  0  0  0  0
 19 32  2  0  0  0  0
 19 33  1  0  0  0  0
 20 49  1  0  0  0  0
 21 23  2  0  0  0  0
 21 38  1  0  0  0  0
 22 24  2  0  0  0  0
 22 39  1  0  0  0  0
 23 50  1  0  0  0  0
 24 40  1  0  0  0  0
 25 78  1  0  0  0  0
 26 79  1  0  0  0  0
 27 29  2  0  0  0  0
 27 78  1  0  0  0  0
 28 80  1  0  0  0  0
 29 81  1  0  0  0  0
 30 63  2  0  0  0  0
 31 62  2  0  0  0  0
 31 69  1  0  0  0  0
 32 64  1  0  0  0  0
 32 67  1  0  0  0  0
 33 68  1  0  0  0  0
 33 73  2  0  0  0  0
 34 51  1  0  0  0  0
 34 70  1  0  0  0  0
 34 74  2  0  0  0  0
 35 59  1  0  0  0  0
 35 65  1  0  0  0  0
 35 75  2  0  0  0  0
 36 60  1  0  0  0  0
 36 71  1  0  0  0  0
 36 76  2  0  0  0  0
 37 66  1  0  0  0  0
 37 69  1  0  0  0  0
 37 77  2  0  0  0  0
 38 41  1  0  0  0  0
 39 51  1  0  0  0  0
 40 65  1  0  0  0  0
 41 43  1  0  0  0  0
 42 44  1  0  0  0  0
 42 47  1  0  0  0  0
 43 50  1  0  0  0  0
 44 52  1  0  0  0  0
 45 49  1  0  0  0  0
 45 53  1  0  0  0  0
 46 49  1  0  0  0  0
 46 53  1  0  0  0  0
 47 66  1  0  0  0  0
 48 52  1  0  0  0  0
 48 66  1  0  0  0  0
 50 70  1  0  0  0  0
 51 65  1  0  0  0  0
 52 64  1  0  0  0  0
 53 79  1  0  0  0  0
 54 60  1  0  0  0  0
 55 61  1  0  0  0  0
 56 61  1  0  0  0  0
 57 61  1  0  0  0  0
 58 72  1  0  0  0  0
 59 61  1  0  0  0  0
 59 71  1  0  0  0  0
 60 72  1  0  0  0  0
 63 64  1  0  0  0  0
M  CHG  1  72   1
M  ISO  4  37 100  53 101  69 100  79 101
M  END
> <Batch ID>
0184

> <Smiles>
CNC(C)C(=O)NC(C(=O)N1Cc2cc([101O:1][101CH:1]3CC(c4ccc([100NH:0][100C:0](=O)N5CCCC(n6nc(-c7ccc(Oc8ccc(F)cc8F)cc7)c(C(N)=O)c6N)C5)nc4)C3)ccc2CC1C(=O)NC1CCCc2ccccc21)C(C)(C)C

> <Shape>
0.304

> <Color>
0.171

> <Negative vol penalty>
0.000

$$$$

  -OEChem-04052323103D

 82 91  0     1  0  0  0  0  0999 V2000
  -21.0707  -28.4025   25.9175 C   0  0  0  0  0  0  0  0  0  0  0  0
  -22.1883  -27.9398   25.2302 C   0  0  0  0  0  0  0  0  0  0  0  0
  -26.4349  -13.1190   20.5984 C   0  0  0  0  0  0  0  0  0  0  0  0
  -24.0381  -13.3922   20.7330 C   0  0  0  0  0  0  0  0  0  0  0  0
  -19.8189  -28.3829   25.3039 C   0  0  0  0  0  0  0  0  0  0  0  0
  -22.0545  -27.4562   23.9292 C   0  0  0  0  0  0  0  0  0  0  0  0
  -25.6609  -29.1967   20.8293 C   0  0  0  0  0  0  0  0  0  0  0  0
  -26.3091  -11.8003   21.0350 C   0  0  0  0  0  0  0  0  0  0  0  0
  -23.9123  -12.0734   21.1696 C   0  0  0  0  0  0  0  0  0  0  0  0
  -26.9172  -28.5984   20.9148 C   0  0  0  0  0  0  0  0  0  0  0  0
  -23.9326   -8.9848   19.7983 C   0  0  0  0  0  0  0  0  0  0  0  0
  -22.9310   -8.2051   19.2201 C   0  0  0  0  0  0  0  0  0  0  0  0
  -26.4074  -27.2642   18.9707 C   0  0  0  0  0  0  0  0  0  0  0  0
  -21.9241   -7.8870   21.3931 C   0  0  0  0  0  0  0  0  0  0  0  0
  -25.2994  -13.9150   20.4475 C   0  0  0  0  0  0  0  0  0  0  0  0
  -25.4064  -15.7391   18.6673 C   0  0  0  0  0  0  0  0  0  0  0  0
  -19.6713  -27.9079   23.9912 C   0  0  0  0  0  0  0  0  0  0  0  0
  -24.7627  -28.8248   19.8186 C   0  0  0  0  0  0  0  0  0  0  0  0
  -20.7993  -27.4290   23.2979 C   0  0  0  0  0  0  0  0  0  0  0  0
  -25.1413  -27.8612   18.8730 C   0  0  0  0  0  0  0  0  0  0  0  0
  -25.0479  -11.2774   21.3206 C   0  0  0  0  0  0  0  0  0  0  0  0
  -27.2896  -27.6299   19.9871 C   0  0  0  0  0  0  0  0  0  0  0  0
  -23.9301   -9.2156   21.1740 C   0  0  0  0  0  0  0  0  0  0  0  0
  -21.9267   -7.6562   20.0175 C   0  0  0  0  0  0  0  0  0  0  0  0
  -22.9258   -8.6667   21.9714 C   0  0  0  0  0  0  0  0  0  0  0  0
  -25.4287  -15.2776   19.9971 C   0  0  0  0  0  0  0  0  0  0  0  0
  -25.5665  -17.0991   18.7731 C   0  0  0  0  0  0  0  0  0  0  0  0
  -32.6720  -26.2640   20.7753 C   0  0  0  0  0  0  0  0  0  0  0  0
  -30.6730  -26.7978   21.0515 C   0  0  0  0  0  0  0  0  0  0  0  0
  -25.2545  -15.0041   17.4456 C   0  0  0  0  0  0  0  0  0  0  0  0
  -21.8674  -27.5141   19.7617 C   0  0  0  0  0  0  0  0  0  0  0  0
  -22.0901  -28.1021   16.5794 C   0  0  0  0  0  0  0  0  0  0  0  0
  -24.0883  -28.6206   13.8618 C   0  0  0  0  0  0  0  0  0  0  0  0
  -28.1199  -21.4307   20.8106 C   0  0  0  0  0  0  0  0  0  0  0  0
  -18.2903  -27.8623   23.3867 C   0  0  0  0  0  0  0  0  0  0  0  0
  -23.4214  -29.4990   19.7241 C   0  0  0  0  0  0  0  0  0  0  0  0
  -24.2214  -27.4413   17.7568 C   0  0  0  0  0  0  0  0  0  0  0  0
  -18.2946  -27.6826   21.8708 C   0  0  0  0  0  0  0  0  0  0  0  0
  -25.3924  -20.1495   22.7820 C   0  0  0  0  0  0  0  0  0  0  0  0
  -19.2618  -26.5742   21.4673 C   0  0  0  0  0  0  0  0  0  0  0  0
  -25.1829  -18.7790   22.1443 C   0  0  0  0  0  0  0  0  0  0  0  0
  -30.4168  -23.4360   22.8620 C   0  0  0  0  0  0  0  0  0  0  0  0
  -26.8690  -20.5467   22.8379 C   0  0  0  0  0  0  0  0  0  0  0  0
  -29.3091  -22.3893   22.8704 C   0  0  0  0  0  0  0  0  0  0  0  0
  -27.3456  -19.0855   20.8920 C   0  0  0  0  0  0  0  0  0  0  0  0
  -29.1481  -23.6839   20.8528 C   0  0  0  0  0  0  0  0  0  0  0  0
  -20.6987  -26.9199   21.8764 C   0  0  1  0  0  0  0  0  0  0  0  0
  -22.3901  -28.6733   18.9612 C   0  0  1  0  0  0  0  0  0  0  0  0
  -25.8618  -18.7128   20.7670 C   0  0  1  0  0  0  0  0  0  0  0  0
  -29.8475  -24.5146   21.9317 C   0  0  2  0  0  0  0  0  0  0  0  0
  -34.0945  -26.3727   20.4310 C   0  0  0  0  0  0  0  0  0  0  0  0
  -23.9822  -29.0349   11.3891 C   0  0  0  0  0  0  0  0  0  0  0  0
  -21.4342  -25.1583   16.1167 C   0  0  0  0  0  0  0  0  0  0  0  0
  -22.2651  -25.4142   13.7688 C   0  0  0  0  0  0  0  0  0  0  0  0
  -20.2997  -26.7393   14.5458 C   0  0  0  0  0  0  0  0  0  0  0  0
  -25.4424  -31.2390   14.1252 C   0  0  0  0  0  0  0  0  0  0  0  0
  -29.3665  -27.4747   21.1353 C   0  0  0  0  0  0  0  0  0  1  0  0
  -22.6082  -27.3382   15.3848 C   0  0  1  0  0  0  0  0  0  0  0  0
  -24.0483  -29.6726   12.7681 C   0  0  2  0  0  0  0  0  0  0  0  0
  -21.6686  -26.1688   14.9761 C   0  0  0  0  0  0  0  0  0  0  0  0
  -25.5904  -16.2643   20.8826 N   0  0  0  0  0  0  0  0  0  0  0  0
  -31.8089  -27.3138   20.6430 N   0  0  0  0  0  0  0  0  0  0  0  0
  -32.1416  -25.1307   21.2399 N   0  0  0  0  0  0  0  0  0  0  0  0
  -25.6713  -17.3594   20.1078 N   0  0  0  0  0  0  0  0  0  0  0  0
  -30.8625  -25.4991   21.4084 N   0  0  0  0  0  0  0  0  0  0  0  0
  -22.9183  -28.1249   17.7105 N   0  0  0  0  0  0  0  0  0  0  0  0
  -27.5190  -20.3930   21.5316 N   0  0  0  0  0  0  0  0  0  0  0  0
  -28.7215  -22.4620   21.5309 N   0  0  0  0  0  0  0  0  0  0  0  0
  -25.6267  -18.0857   17.8537 N   0  0  0  0  0  0  0  0  0  0  0  0
  -25.1007  -13.6129   17.5176 N   0  0  0  0  0  0  0  0  0  0  0  0
  -21.2703  -27.8773   20.9538 N   0  0  0  0  0  0  0  0  0  0  0  0
  -22.8264  -28.3250   14.3326 N   0  0  0  0  0  0  0  0  0  0  0  0
  -25.2644  -30.5316   12.8310 N   0  3  0  0  0  0  0  0  0  0  0  0
  -25.2716  -15.5626   16.3225 O   0  0  0  0  0  0  0  0  0  0  0  0
  -21.9950  -26.3747   19.3291 O   0  0  0  0  0  0  0  0  0  0  0  0
  -20.9942  -28.6640   16.5090 O   0  0  0  0  0  0  0  0  0  0  0  0
  -25.1340  -28.1092   14.2562 O   0  0  0  0  0  0  0  0  0  0  0  0
  -28.1559  -21.4162   19.5727 O   0  0  0  0  0  0  0  0  0  0  0  0
  -24.9247   -9.9905   21.7464 O   0  0  0  0  0  0  0  0  0  0  0  0
  -28.5211  -27.0409   20.0691 O   0  0  0  0  0  0  0  0  0  1  0  0
  -20.9640   -6.9087   19.4619 F   0  0  0  0  0  0  0  0  0  0  0  0
  -22.9174   -8.8859   23.2934 F   0  0  0  0  0  0  0  0  0  0  0  0
  1  2  1  0  0  0  0
  1  5  2  0  0  0  0
  2  6  2  0  0  0  0
  3  8  2  0  0  0  0
  3 15  1  0  0  0  0
  4  9  1  0  0  0  0
  4 15  2  0  0  0  0
  5 17  1  0  0  0  0
  6 19  1  0  0  0  0
  7 10  2  0  0  0  0
  7 18  1  0  0  0  0
  8 21  1  0  0  0  0
  9 21  2  0  0  0  0
 10 22  1  0  0  0  0
 11 12  2  0  0  0  0
 11 23  1  0  0  0  0
 12 24  1  0  0  0  0
 13 20  1  0  0  0  0
 13 22  2  0  0  0  0
 14 24  2  0  0  0  0
 14 25  1  0  0  0  0
 15 26  1  0  0  0  0
 16 26  1  0  0  0  0
 16 27  2  0  0  0  0
 16 30  1  0  0  0  0
 17 19  2  0  0  0  0
 17 35  1  0  0  0  0
 18 20  2  0  0  0  0
 18 36  1  0  0  0  0
 19 47  1  0  0  0  0
 20 37  1  0  0  0  0
 21 79  1  0  0  0  0
 22 80  1  0  0  0  0
 23 25  2  0  0  0  0
 23 79  1  0  0  0  0
 24 81  1  0  0  0  0
 25 82  1  0  0  0  0
 26 61  2  0  0  0  0
 27 64  1  0  0  0  0
 27 69  1  0  0  0  0
 28 51  1  0  0  0  0
 28 62  1  0  0  0  0
 28 63  2  0  0  0  0
 29 57  1  0  0  0  0
 29 62  2  0  0  0  0
 29 65  1  0  0  0  0
 30 70  1  0  0  0  0
 30 74  2  0  0  0  0
 31 48  1  0  0  0  0
 31 71  1  0  0  0  0
 31 75  2  0  0  0  0
 32 58  1  0  0  0  0
 32 66  1  0  0  0  0
 32 76  2  0  0  0  0
 33 59  1  0  0  0  0
 33 72  1  0  0  0  0
 33 77  2  0  0  0  0
 34 67  1  0  0  0  0
 34 68  1  0  0  0  0
 34 78  2  0  0  0  0
 35 38  1  0  0  0  0
 36 48  1  0  0  0  0
 37 66  1  0  0  0  0
 38 40  1  0  0  0  0
 39 41  1  0  0  0  0
 39 43  1  0  0  0  0
 40 47  1  0  0  0  0
 41 49  1  0  0  0  0
 42 44  1  0  0  0  0
 42 50  1  0  0  0  0
 43 67  1  0  0  0  0
 44 68  1  0  0  0  0
 45 49  1  0  0  0  0
 45 67  1  0  0  0  0
 46 50  1  0  0  0  0
 46 68  1  0  0  0  0
 47 71  1  0  0  0  0
 48 66  1  0  0  0  0
 49 64  1  0  0  0  0
 50 65  1  0  0  0  0
 52 59  1  0  0  0  0
 53 60  1  0  0  0  0
 54 60  1  0  0  0  0
 55 60  1  0  0  0  0
 56 73  1  0  0  0  0
 57 80  1  0  0  0  0
 58 60  1  0  0  0  0
 58 72  1  0  0  0  0
 59 73  1  0  0  0  0
 61 64  1  0  0  0  0
 63 65  1  0  0  0  0
M  CHG  1  73   1
M  ISO  4  34 100  57 101  68 100  80 101
M  END
> <Batch ID>
0184

> <Smiles>
CNC(C)C(=O)NC(C(=O)N1Cc2cc([101O:1][101CH2:1]c3nc(C)nn3C3CC[100N:0]([100C:0](=O)N4CCCC(n5nc(-c6ccc(Oc7ccc(F)cc7F)cc6)c(C(N)=O)c5N)C4)C3)ccc2CC1C(=O)NC1CCCc2ccccc21)C(C)(C)C

> <Shape>
0.220

> <Color>
0.086

> <Negative vol penalty>
0.000

$$$$

  -OEChem-04052323103D

 84 93  0     1  0  0  0  0  0999 V2000
  -23.9493  -35.0250   19.2974 C   0  0  0  0  0  0  0  0  0  0  0  0
  -24.8117  -33.9890   19.6414 C   0  0  0  0  0  0  0  0  0  0  0  0
  -25.0713  -13.8095   19.2383 C   0  0  0  0  0  0  0  0  0  0  0  0
  -24.8349  -13.5451   21.6281 C   0  0  0  0  0  0  0  0  0  0  0  0
  -22.6908  -35.1092   19.8914 C   0  0  0  0  0  0  0  0  0  0  0  0
  -24.4165  -33.0371   20.5806 C   0  0  0  0  0  0  0  0  0  0  0  0
  -25.5229  -28.3101   19.1395 C   0  0  0  0  0  0  0  0  0  0  0  0
  -25.1525  -12.4247   19.0931 C   0  0  0  0  0  0  0  0  0  0  0  0
  -24.9161  -12.1602   21.4829 C   0  0  0  0  0  0  0  0  0  0  0  0
  -26.8454  -27.8934   19.2844 C   0  0  0  0  0  0  0  0  0  0  0  0
  -24.6993   -8.5377   21.7042 C   0  0  0  0  0  0  0  0  0  0  0  0
  -23.7852   -7.7561   22.4106 C   0  0  0  0  0  0  0  0  0  0  0  0
  -26.2527  -26.7398   21.3184 C   0  0  0  0  0  0  0  0  0  0  0  0
  -21.9627   -8.8466   21.2589 C   0  0  0  0  0  0  0  0  0  0  0  0
  -31.5439  -27.0835   20.8460 C   0  0  0  0  0  0  0  0  0  0  0  0
  -24.9125  -14.3698   20.5058 C   0  0  0  0  0  0  0  0  0  0  0  0
  -23.6650  -16.5915   20.6292 C   0  0  0  0  0  0  0  0  0  0  0  0
  -22.2761  -34.1523   20.8312 C   0  0  0  0  0  0  0  0  0  0  0  0
  -24.5559  -27.9534   20.0903 C   0  0  0  0  0  0  0  0  0  0  0  0
  -23.1517  -33.1093   21.1887 C   0  0  0  0  0  0  0  0  0  0  0  0
  -24.9180  -27.1512   21.1819 C   0  0  0  0  0  0  0  0  0  0  0  0
  -25.0749  -11.6000   20.2153 C   0  0  0  0  0  0  0  0  0  0  0  0
  -27.2111  -27.1105   20.3755 C   0  0  0  0  0  0  0  0  0  0  0  0
  -24.2451   -9.4739   20.7751 C   0  0  0  0  0  0  0  0  0  0  0  0
  -22.4169   -7.9105   22.1880 C   0  0  0  0  0  0  0  0  0  0  0  0
  -22.8768   -9.6283   20.5525 C   0  0  0  0  0  0  0  0  0  0  0  0
  -24.8291  -15.8003   20.6565 C   0  0  0  0  0  0  0  0  0  0  0  0
  -30.7796  -26.5448   19.8345 C   0  0  0  0  0  0  0  0  0  0  0  0
  -32.4228  -25.0121   19.4092 C   0  0  0  0  0  0  0  0  0  0  0  0
  -33.1874  -25.5514   20.4202 C   0  0  0  0  0  0  0  0  0  0  0  0
  -24.1176  -17.8747   20.8167 C   0  0  0  0  0  0  0  0  0  0  0  0
  -22.2970  -16.2015   20.4502 C   0  0  0  0  0  0  0  0  0  0  0  0
  -22.6810  -29.5579   22.0938 C   0  0  0  0  0  0  0  0  0  0  0  0
  -21.4322  -26.6187   22.6631 C   0  0  0  0  0  0  0  0  0  0  0  0
  -21.8576  -23.2328   22.6233 C   0  0  0  0  0  0  0  0  0  0  0  0
  -29.4337  -20.2876   19.6266 C   0  0  0  0  0  0  0  0  0  0  0  0
  -20.9247  -34.3117   21.4815 C   0  0  0  0  0  0  0  0  0  0  0  0
  -23.1281  -28.3886   19.9054 C   0  0  0  0  0  0  0  0  0  0  0  0
  -23.9137  -26.7240   22.2198 C   0  0  0  0  0  0  0  0  0  0  0  0
  -20.4371  -33.0504   22.1898 C   0  0  0  0  0  0  0  0  0  0  0  0
  -27.6457  -20.3516   22.8534 C   0  0  0  0  0  0  0  0  0  0  0  0
  -21.5498  -32.4552   23.0467 C   0  0  0  0  0  0  0  0  0  0  0  0
  -26.6460  -19.2157   22.6574 C   0  0  0  0  0  0  0  0  0  0  0  0
  -32.4008  -21.2911   18.3429 C   0  0  0  0  0  0  0  0  0  0  0  0
  -28.9703  -20.0789   22.1420 C   0  0  0  0  0  0  0  0  0  0  0  0
  -27.8126  -18.6321   20.4956 C   0  0  0  0  0  0  0  0  0  0  0  0
  -22.7495  -32.0434   22.1849 C   0  0  1  0  0  0  0  0  0  0  0  0
  -22.3323  -28.3961   21.2070 C   0  0  1  0  0  0  0  0  0  0  0  0
  -32.5017  -22.5140   19.2100 C   0  0  2  0  0  0  0  0  0  0  0  0
  -26.4574  -18.9107   21.1635 C   0  0  1  0  0  0  0  0  0  0  0  0
  -31.1509  -21.9186   18.9037 C   0  0  2  0  0  0  0  0  0  0  0  0
  -35.6654  -25.8738   20.2161 C   0  0  0  0  0  0  0  0  0  0  0  0
  -21.2485  -20.8070   22.8274 C   0  0  0  0  0  0  0  0  0  0  0  0
  -21.9422  -27.1144   25.6303 C   0  0  0  0  0  0  0  0  0  0  0  0
  -21.6475  -24.6588   26.0197 C   0  0  0  0  0  0  0  0  0  0  0  0
  -19.7565  -26.0125   25.1172 C   0  0  0  0  0  0  0  0  0  0  0  0
  -20.9756  -23.0972   19.8015 C   0  0  0  0  0  0  0  0  0  0  0  0
  -32.9053  -23.8554   18.6025 C   0  0  0  0  0  0  0  0  0  0  0  0
  -34.5326  -25.0031   20.7544 C   0  0  0  0  0  0  0  0  0  0  0  0
  -29.4284  -27.1139   19.5156 C   0  0  0  0  0  0  0  0  0  1  0  0
  -21.7338  -25.4976   23.6281 C   0  0  1  0  0  0  0  0  0  0  0  0
  -20.9777  -22.1132   22.0972 C   0  0  2  0  0  0  0  0  0  0  0  0
  -21.2896  -25.8303   25.0805 C   0  0  0  0  0  0  0  0  0  0  0  0
  -32.7616  -26.5965   21.1570 N   0  0  0  0  0  0  0  0  0  0  0  0
  -25.9378  -16.5206   20.8464 N   0  0  0  0  0  0  0  0  0  0  0  0
  -31.2053  -25.4994   19.0980 N   0  0  0  0  0  0  0  0  0  0  0  0
  -25.4724  -17.7779   20.9399 N   0  0  0  0  0  0  0  0  0  0  0  0
  -22.5316  -27.1802   21.9982 N   0  0  0  0  0  0  0  0  0  0  0  0
  -28.7630  -19.7266   20.7285 N   0  0  0  0  0  0  0  0  0  0  0  0
  -23.4848  -19.0651   20.8866 N   0  0  0  0  0  0  0  0  0  0  0  0
  -22.0079  -14.8419   20.2705 N   0  0  0  0  0  0  0  0  0  0  0  0
  -22.4799  -30.7931   21.5078 N   0  0  0  0  0  0  0  0  0  0  0  0
  -21.1106  -24.3015   23.0718 N   0  0  0  0  0  0  0  0  0  0  0  0
  -30.3812  -21.2601   19.9252 N   0  0  0  0  0  0  0  0  0  0  0  0
  -21.2257  -21.8990   20.6434 N   0  3  0  0  0  0  0  0  0  0  0  0
  -21.3604  -17.0358   20.4334 O   0  0  0  0  0  0  0  0  0  0  0  0
  -23.0999  -29.3492   23.2263 O   0  0  0  0  0  0  0  0  0  0  0  0
  -20.2636  -26.9780   22.4997 O   0  0  0  0  0  0  0  0  0  0  0  0
  -23.0846  -23.1645   22.6385 O   0  0  0  0  0  0  0  0  0  0  0  0
  -29.2100  -19.9441   18.4606 O   0  0  0  0  0  0  0  0  0  0  0  0
  -25.1539  -10.2486   20.0740 O   0  0  0  0  0  0  0  0  0  0  0  0
  -28.5014  -26.7029   20.5197 O   0  0  0  0  0  0  0  0  0  1  0  0
  -21.5393   -7.1588   22.8653 F   0  0  0  0  0  0  0  0  0  0  0  0
  -22.4345  -10.5251   19.6603 F   0  0  0  0  0  0  0  0  0  0  0  0
  1  2  1  0  0  0  0
  1  5  2  0  0  0  0
  2  6  2  0  0  0  0
  3  8  2  0  0  0  0
  3 16  1  0  0  0  0
  4  9  1  0  0  0  0
  4 16  2  0  0  0  0
  5 18  1  0  0  0  0
  6 20  1  0  0  0  0
  7 10  2  0  0  0  0
  7 19  1  0  0  0  0
  8 22  1  0  0  0  0
  9 22  2  0  0  0  0
 10 23  1  0  0  0  0
 11 12  2  0  0  0  0
 11 24  1  0  0  0  0
 12 25  1  0  0  0  0
 13 21  1  0  0  0  0
 13 23  2  0  0  0  0
 14 25  2  0  0  0  0
 14 26  1  0  0  0  0
 15 28  1  0  0  0  0
 15 64  2  0  0  0  0
 16 27  1  0  0  0  0
 17 27  1  0  0  0  0
 17 31  2  0  0  0  0
 17 32  1  0  0  0  0
 18 20  2  0  0  0  0
 18 37  1  0  0  0  0
 19 21  2  0  0  0  0
 19 38  1  0  0  0  0
 20 47  1  0  0  0  0
 21 39  1  0  0  0  0
 22 81  1  0  0  0  0
 23 82  1  0  0  0  0
 24 26  2  0  0  0  0
 24 81  1  0  0  0  0
 25 83  1  0  0  0  0
 26 84  1  0  0  0  0
 27 65  2  0  0  0  0
 28 60  1  0  0  0  0
 28 66  2  0  0  0  0
 29 30  2  0  0  0  0
 29 58  1  0  0  0  0
 29 66  1  0  0  0  0
 30 59  1  0  0  0  0
 30 64  1  0  0  0  0
 31 67  1  0  0  0  0
 31 70  1  0  0  0  0
 32 71  1  0  0  0  0
 32 76  2  0  0  0  0
 33 48  1  0  0  0  0
 33 72  1  0  0  0  0
 33 77  2  0  0  0  0
 34 61  1  0  0  0  0
 34 68  1  0  0  0  0
 34 78  2  0  0  0  0
 35 62  1  0  0  0  0
 35 73  1  0  0  0  0
 35 79  2  0  0  0  0
 36 69  1  0  0  0  0
 36 74  1  0  0  0  0
 36 80  2  0  0  0  0
 37 40  1  0  0  0  0
 38 48  1  0  0  0  0
 39 68  1  0  0  0  0
 40 42  1  0  0  0  0
 41 43  1  0  0  0  0
 41 45  1  0  0  0  0
 42 47  1  0  0  0  0
 43 50  1  0  0  0  0
 44 49  1  0  0  0  0
 44 51  1  0  0  0  0
 45 69  1  0  0  0  0
 46 50  1  0  0  0  0
 46 69  1  0  0  0  0
 47 72  1  0  0  0  0
 48 68  1  0  0  0  0
 49 51  1  0  0  0  0
 49 58  1  0  0  0  0
 50 67  1  0  0  0  0
 51 74  1  0  0  0  0
 52 59  1  0  0  0  0
 53 62  1  0  0  0  0
 54 63  1  0  0  0  0
 55 63  1  0  0  0  0
 56 63  1  0  0  0  0
 57 75  1  0  0  0  0
 60 82  1  0  0  0  0
 61 63  1  0  0  0  0
 61 73  1  0  0  0  0
 62 75  1  0  0  0  0
 65 67  1  0  0  0  0
M  CHG  1  75   1
M  ISO  4  36 100  60 101  74 100  82 101
M  END
> <Batch ID>
0184

> <Smiles>
CCc1ncc([101CH2:1][101O:1]c2ccc3c(c2)CN(C(=O)C(NC(=O)C(C)NC)C(C)(C)C)C(C(=O)NC2CCCc4ccccc42)C3)nc1CC1CC1[100NH:0][100C:0](=O)N1CCCC(n2nc(-c3ccc(Oc4ccc(F)cc4F)cc3)c(C(N)=O)c2N)C1

> <Shape>
0.213

> <Color>
0.084

> <Negative vol penalty>
0.000

$$$$

  -OEChem-04052323103D

 83 92  0     1  0  0  0  0  0999 V2000
  -27.7532  -37.8864   22.1096 C   0  0  0  0  0  0  0  0  0  0  0  0
  -28.2425  -36.8286   21.3500 C   0  0  0  0  0  0  0  0  0  0  0  0
  -23.5279  -10.0372   22.0728 C   0  0  0  0  0  0  0  0  0  0  0  0
  -24.3308   -8.7433   20.1971 C   0  0  0  0  0  0  0  0  0  0  0  0
  -27.0126  -37.6309   23.2629 C   0  0  0  0  0  0  0  0  0  0  0  0
  -27.9923  -35.5145   21.7439 C   0  0  0  0  0  0  0  0  0  0  0  0
  -26.8519  -28.9896   19.0161 C   0  0  0  0  0  0  0  0  0  0  0  0
  -22.2499   -9.5091   21.8901 C   0  0  0  0  0  0  0  0  0  0  0  0
  -23.0527   -8.2151   20.0144 C   0  0  0  0  0  0  0  0  0  0  0  0
  -27.3208  -27.6809   19.1220 C   0  0  0  0  0  0  0  0  0  0  0  0
  -21.1258   -5.8191   21.4166 C   0  0  0  0  0  0  0  0  0  0  0  0
  -21.0193   -4.4464   21.1932 C   0  0  0  0  0  0  0  0  0  0  0  0
  -25.9621  -27.3597   21.0893 C   0  0  0  0  0  0  0  0  0  0  0  0
  -19.9781   -4.8750   19.0556 C   0  0  0  0  0  0  0  0  0  0  0  0
  -24.5683   -9.6544   21.2262 C   0  0  0  0  0  0  0  0  0  0  0  0
  -26.9190   -9.6752   22.2170 C   0  0  0  0  0  0  0  0  0  0  0  0
  -26.7450  -36.3131   23.6659 C   0  0  0  0  0  0  0  0  0  0  0  0
  -25.9414  -29.4975   19.9539 C   0  0  0  0  0  0  0  0  0  0  0  0
  -27.2485  -35.2412   22.9044 C   0  0  0  0  0  0  0  0  0  0  0  0
  -25.4812  -28.6743   20.9916 C   0  0  0  0  0  0  0  0  0  0  0  0
  -29.2668  -21.1543   20.0323 C   0  0  0  0  0  0  0  0  0  0  0  0
  -22.0123   -8.5981   20.8609 C   0  0  0  0  0  0  0  0  0  0  0  0
  -26.8781  -26.8666   20.1604 C   0  0  0  0  0  0  0  0  0  0  0  0
  -20.6583   -6.7198   20.4596 C   0  0  0  0  0  0  0  0  0  0  0  0
  -20.4455   -3.9743   20.0127 C   0  0  0  0  0  0  0  0  0  0  0  0
  -20.0845   -6.2478   19.2791 C   0  0  0  0  0  0  0  0  0  0  0  0
  -25.8886  -10.2000   21.4141 C   0  0  0  0  0  0  0  0  0  0  0  0
  -28.4184  -21.5186   19.0067 C   0  0  0  0  0  0  0  0  0  0  0  0
  -29.7636  -22.1926   20.7935 C   0  0  0  0  0  0  0  0  0  0  0  0
  -27.9617  -10.5545   22.0556 C   0  0  0  0  0  0  0  0  0  0  0  0
  -28.6245  -23.7164   19.5494 C   0  0  0  0  0  0  0  0  0  0  0  0
  -26.9324   -8.4980   23.0354 C   0  0  0  0  0  0  0  0  0  0  0  0
  -25.9886  -31.8695   22.0693 C   0  0  0  0  0  0  0  0  0  0  0  0
  -22.8763  -31.0501   22.4743 C   0  0  0  0  0  0  0  0  0  0  0  0
  -20.4542  -28.6586   22.2271 C   0  0  0  0  0  0  0  0  0  0  0  0
  -27.9275  -16.3281   20.5845 C   0  0  0  0  0  0  0  0  0  0  0  0
  -25.9800  -36.0865   24.9458 C   0  0  0  0  0  0  0  0  0  0  0  0
  -25.4247  -30.9028   19.8102 C   0  0  0  0  0  0  0  0  0  0  0  0
  -24.4886  -29.1653   22.0124 C   0  0  0  0  0  0  0  0  0  0  0  0
  -25.4407  -34.6657   25.0897 C   0  0  0  0  0  0  0  0  0  0  0  0
  -29.8276  -13.6330   18.9296 C   0  0  0  0  0  0  0  0  0  0  0  0
  -26.5210  -33.6468   24.7414 C   0  0  0  0  0  0  0  0  0  0  0  0
  -29.0772  -12.3994   19.4229 C   0  0  0  0  0  0  0  0  0  0  0  0
  -29.3983  -19.1668   21.6771 C   0  0  0  0  0  0  0  0  0  0  0  0
  -28.8988  -14.8315   18.7400 C   0  0  0  0  0  0  0  0  0  0  0  0
  -27.3474  -13.9263   20.4482 C   0  0  0  0  0  0  0  0  0  0  0  0
  -29.6232  -19.7331   20.2999 C   0  0  1  0  0  0  0  0  0  0  0  0
  -26.9771  -33.8020   23.2856 C   0  0  1  0  0  0  0  0  0  0  0  0
  -24.8925  -31.4803   21.1181 C   0  0  1  0  0  0  0  0  0  0  0  0
  -28.2733  -12.7246   20.6911 C   0  0  1  0  0  0  0  0  0  0  0  0
  -28.5155  -18.7332   20.5444 C   0  0  1  0  0  0  0  0  0  0  0  0
  -27.8185  -20.4818   18.1145 C   0  0  0  0  0  0  0  0  0  0  0  0
  -30.6920  -21.9215   21.9317 C   0  0  0  0  0  0  0  0  0  0  0  0
  -18.0142  -28.2730   22.6691 C   0  0  0  0  0  0  0  0  0  0  0  0
  -23.4570  -30.8138   25.4604 C   0  0  0  0  0  0  0  0  0  0  0  0
  -21.3160  -29.5392   25.7050 C   0  0  0  0  0  0  0  0  0  0  0  0
  -21.2746  -31.9016   24.9050 C   0  0  0  0  0  0  0  0  0  0  0  0
  -19.9046  -28.1106   19.3711 C   0  0  0  0  0  0  0  0  0  0  0  0
  -28.2660  -25.1481   19.2793 C   0  0  0  0  0  0  0  0  0  1  0  0
  -22.1318  -30.0870   23.3672 C   0  0  1  0  0  0  0  0  0  0  0  0
  -19.0532  -28.7004   21.6440 C   0  0  2  0  0  0  0  0  0  0  0  0
  -22.0650  -30.5765   24.8414 C   0  0  0  0  0  0  0  0  0  0  0  0
  -26.2443  -11.3256   20.7892 N   0  0  0  0  0  0  0  0  0  0  0  0
  -28.0745  -22.7949   18.7359 N   0  0  0  0  0  0  0  0  0  0  0  0
  -29.4624  -23.4902   20.5791 N   0  0  0  0  0  0  0  0  0  0  0  0
  -27.5099  -11.5153   21.1995 N   0  0  0  0  0  0  0  0  0  0  0  0
  -24.0178  -30.5486   21.8329 N   0  0  0  0  0  0  0  0  0  0  0  0
  -28.0920  -15.0867   19.9438 N   0  0  0  0  0  0  0  0  0  0  0  0
  -29.2117  -10.5919   22.5640 N   0  0  0  0  0  0  0  0  0  0  0  0
  -25.7766   -7.7071   23.0872 N   0  0  0  0  0  0  0  0  0  0  0  0
  -26.0070  -33.2143   22.3867 N   0  0  0  0  0  0  0  0  0  0  0  0
  -20.8277  -29.8800   22.7467 N   0  0  0  0  0  0  0  0  0  0  0  0
  -28.5942  -17.4018   20.0053 N   0  0  0  0  0  0  0  0  0  0  0  0
  -18.9545  -27.7909   20.4675 N   0  3  0  0  0  0  0  0  0  0  0  0
  -27.9341   -8.1665   23.7138 O   0  0  0  0  0  0  0  0  0  0  0  0
  -26.7597  -31.0129   22.4857 O   0  0  0  0  0  0  0  0  0  0  0  0
  -22.4563  -32.2027   22.3449 O   0  0  0  0  0  0  0  0  0  0  0  0
  -21.1464  -27.6431   22.2254 O   0  0  0  0  0  0  0  0  0  0  0  0
  -27.2326  -16.4727   21.5964 O   0  0  0  0  0  0  0  0  0  0  0  0
  -20.7654   -8.0823   20.6825 O   0  0  0  0  0  0  0  0  0  0  0  0
  -27.3347  -25.5891   20.2665 O   0  0  0  0  0  0  0  0  0  1  0  0
  -20.3448   -2.6561   19.7976 F   0  0  0  0  0  0  0  0  0  0  0  0
  -19.6347   -7.1082   18.3554 F   0  0  0  0  0  0  0  0  0  0  0  0
  1  2  1  0  0  0  0
  1  5  2  0  0  0  0
  2  6  2  0  0  0  0
  3  8  2  0  0  0  0
  3 15  1  0  0  0  0
  4  9  1  0  0  0  0
  4 15  2  0  0  0  0
  5 17  1  0  0  0  0
  6 19  1  0  0  0  0
  7 10  2  0  0  0  0
  7 18  1  0  0  0  0
  8 22  1  0  0  0  0
  9 22  2  0  0  0  0
 10 23  1  0  0  0  0
 11 12  2  0  0  0  0
 11 24  1  0  0  0  0
 12 25  1  0  0  0  0
 13 20  1  0  0  0  0
 13 23  2  0  0  0  0
 14 25  2  0  0  0  0
 14 26  1  0  0  0  0
 15 27  1  0  0  0  0
 16 27  1  0  0  0  0
 16 30  2  0  0  0  0
 16 32  1  0  0  0  0
 17 19  2  0  0  0  0
 17 37  1  0  0  0  0
 18 20  2  0  0  0  0
 18 38  1  0  0  0  0
 19 48  1  0  0  0  0
 20 39  1  0  0  0  0
 21 28  1  0  0  0  0
 21 29  2  0  0  0  0
 21 47  1  0  0  0  0
 22 80  1  0  0  0  0
 23 81  1  0  0  0  0
 24 26  2  0  0  0  0
 24 80  1  0  0  0  0
 25 82  1  0  0  0  0
 26 83  1  0  0  0  0
 27 63  2  0  0  0  0
 28 52  1  0  0  0  0
 28 64  2  0  0  0  0
 29 53  1  0  0  0  0
 29 65  1  0  0  0  0
 30 66  1  0  0  0  0
 30 69  1  0  0  0  0
 31 59  1  0  0  0  0
 31 64  1  0  0  0  0
 31 65  2  0  0  0  0
 32 70  1  0  0  0  0
 32 75  2  0  0  0  0
 33 49  1  0  0  0  0
 33 71  1  0  0  0  0
 33 76  2  0  0  0  0
 34 60  1  0  0  0  0
 34 67  1  0  0  0  0
 34 77  2  0  0  0  0
 35 61  1  0  0  0  0
 35 72  1  0  0  0  0
 35 78  2  0  0  0  0
 36 68  1  0  0  0  0
 36 73  1  0  0  0  0
 36 79  2  0  0  0  0
 37 40  1  0  0  0  0
 38 49  1  0  0  0  0
 39 67  1  0  0  0  0
 40 42  1  0  0  0  0
 41 43  1  0  0  0  0
 41 45  1  0  0  0  0
 42 48  1  0  0  0  0
 43 50  1  0  0  0  0
 44 47  1  0  0  0  0
 44 51  1  0  0  0  0
 45 68  1  0  0  0  0
 46 50  1  0  0  0  0
 46 68  1  0  0  0  0
 47 51  1  0  0  0  0
 48 71  1  0  0  0  0
 49 67  1  0  0  0  0
 50 66  1  0  0  0  0
 51 73  1  0  0  0  0
 54 61  1  0  0  0  0
 55 62  1  0  0  0  0
 56 62  1  0  0  0  0
 57 62  1  0  0  0  0
 58 74  1  0  0  0  0
 59 81  1  0  0  0  0
 60 62  1  0  0  0  0
 60 72  1  0  0  0  0
 61 74  1  0  0  0  0
 63 66  1  0  0  0  0
M  CHG  1  74   1
M  ISO  4  36 100  59 101  73 100  81 101
M  END
> <Batch ID>
0184

> <Smiles>
CNC(C)C(=O)NC(C(=O)N1Cc2cc([101O:1][101CH2:1]c3nc(C)c(C4CC4[100NH:0][100C:0](=O)N4CCCC(n5nc(-c6ccc(Oc7ccc(F)cc7F)cc6)c(C(N)=O)c5N)C4)c(C)n3)ccc2CC1C(=O)NC1CCCc2ccccc21)C(C)(C)C

> <Shape>
0.301

> <Color>
0.096

> <Negative vol penalty>
0.000

$$$$

  -OEChem-04052323103D

 84 93  0     1  0  0  0  0  0999 V2000
  -28.5239  -31.0688   27.3054 C   0  0  0  0  0  0  0  0  0  0  0  0
  -28.3409  -29.9848   26.4529 C   0  0  0  0  0  0  0  0  0  0  0  0
  -23.8759   -9.7863   22.3444 C   0  0  0  0  0  0  0  0  0  0  0  0
  -24.4910   -9.0441   20.1290 C   0  0  0  0  0  0  0  0  0  0  0  0
  -27.4523  -31.9102   27.6013 C   0  0  0  0  0  0  0  0  0  0  0  0
  -27.0857  -29.7407   25.8967 C   0  0  0  0  0  0  0  0  0  0  0  0
  -27.3288  -28.6419   20.9593 C   0  0  0  0  0  0  0  0  0  0  0  0
  -22.8684   -8.8226   22.3875 C   0  0  0  0  0  0  0  0  0  0  0  0
  -23.4836   -8.0803   20.1722 C   0  0  0  0  0  0  0  0  0  0  0  0
  -27.7252  -27.3509   20.6131 C   0  0  0  0  0  0  0  0  0  0  0  0
  -20.3691   -6.3195   23.2260 C   0  0  0  0  0  0  0  0  0  0  0  0
  -20.2389   -5.5693   24.3947 C   0  0  0  0  0  0  0  0  0  0  0  0
  -25.4178  -26.7445   20.2565 C   0  0  0  0  0  0  0  0  0  0  0  0
  -28.5095  -22.4076   20.3712 C   0  0  0  0  0  0  0  0  0  0  0  0
  -22.4934   -4.7462   24.1176 C   0  0  0  0  0  0  0  0  0  0  0  0
  -24.6872   -9.8971   21.2151 C   0  0  0  0  0  0  0  0  0  0  0  0
  -27.0634  -10.7463   21.5894 C   0  0  0  0  0  0  0  0  0  0  0  0
  -26.1856  -31.6820   27.0408 C   0  0  0  0  0  0  0  0  0  0  0  0
  -25.9708  -28.9915   20.9673 C   0  0  0  0  0  0  0  0  0  0  0  0
  -25.9957  -30.5790   26.1865 C   0  0  0  0  0  0  0  0  0  0  0  0
  -25.0069  -28.0414   20.6007 C   0  0  0  0  0  0  0  0  0  0  0  0
  -28.7463  -21.1207   19.9211 C   0  0  0  0  0  0  0  0  0  0  0  0
  -22.6723   -7.9696   21.3015 C   0  0  0  0  0  0  0  0  0  0  0  0
  -26.7695  -26.4011   20.2644 C   0  0  0  0  0  0  0  0  0  0  0  0
  -21.5615   -6.2830   22.5030 C   0  0  0  0  0  0  0  0  0  0  0  0
  -21.3011   -4.7827   24.8405 C   0  0  0  0  0  0  0  0  0  0  0  0
  -22.6236   -5.4964   22.9488 C   0  0  0  0  0  0  0  0  0  0  0  0
  -25.7276  -10.8928   21.1697 C   0  0  0  0  0  0  0  0  0  0  0  0
  -29.2485  -20.9648   18.6447 C   0  0  0  0  0  0  0  0  0  0  0  0
  -28.7908  -23.4535   19.5152 C   0  0  0  0  0  0  0  0  0  0  0  0
  -27.6381  -11.9683   21.3387 C   0  0  0  0  0  0  0  0  0  0  0  0
  -27.7254   -9.6074   22.1553 C   0  0  0  0  0  0  0  0  0  0  0  0
  -23.9223  -29.9809   23.1872 C   0  0  0  0  0  0  0  0  0  0  0  0
  -21.9342  -30.3184   20.6463 C   0  0  0  0  0  0  0  0  0  0  0  0
  -21.1198  -29.3979   17.4626 C   0  0  0  0  0  0  0  0  0  0  0  0
  -28.3437  -16.1030   17.6365 C   0  0  0  0  0  0  0  0  0  0  0  0
  -25.0461  -32.5912   27.4276 C   0  0  0  0  0  0  0  0  0  0  0  0
  -25.5615  -30.3959   21.3173 C   0  0  0  0  0  0  0  0  0  0  0  0
  -23.5378  -28.3719   20.5738 C   0  0  0  0  0  0  0  0  0  0  0  0
  -23.8380  -32.4816   26.5010 C   0  0  0  0  0  0  0  0  0  0  0  0
  -25.5556  -16.3962   20.0696 C   0  0  0  0  0  0  0  0  0  0  0  0
  -23.4957  -31.0181   26.2408 C   0  0  0  0  0  0  0  0  0  0  0  0
  -25.4443  -14.9559   20.5713 C   0  0  0  0  0  0  0  0  0  0  0  0
  -29.3747  -19.4815   16.5411 C   0  0  0  0  0  0  0  0  0  0  0  0
  -26.0390  -16.4352   18.6257 C   0  0  0  0  0  0  0  0  0  0  0  0
  -29.1560  -17.9995   16.2711 C   0  0  0  0  0  0  0  0  0  0  0  0
  -27.2292  -14.2923   18.8894 C   0  0  0  0  0  0  0  0  0  0  0  0
  -28.5151  -18.5013   18.5264 C   0  0  0  0  0  0  0  0  0  0  0  0
  -24.6552  -30.2958   25.5440 C   0  0  1  0  0  0  0  0  0  0  0  0
  -24.1142  -30.4964   21.7890 C   0  0  1  0  0  0  0  0  0  0  0  0
  -26.7593  -14.1862   20.3509 C   0  0  2  0  0  0  0  0  0  0  0  0
  -29.5346  -19.5764   18.0787 C   0  0  2  0  0  0  0  0  0  0  0  0
  -28.4606  -19.9568   20.8056 C   0  0  0  0  0  0  0  0  0  0  0  0
  -30.9609  -19.1692   18.5035 C   0  0  0  0  0  0  0  0  0  0  0  0
  -19.4203  -29.8173   15.6645 C   0  0  0  0  0  0  0  0  0  0  0  0
  -19.9161  -28.5985   22.1560 C   0  0  0  0  0  0  0  0  0  0  0  0
  -18.6903  -28.2662   19.9984 C   0  0  0  0  0  0  0  0  0  0  0  0
  -18.9267  -30.5572   20.9564 C   0  0  0  0  0  0  0  0  0  0  0  0
  -23.1779  -30.4098   15.5920 C   0  0  0  0  0  0  0  0  0  0  0  0
  -28.5522  -24.8586   19.9508 C   0  0  0  0  0  0  0  0  0  1  0  0
  -20.9448  -29.4257   19.9370 C   0  0  1  0  0  0  0  0  0  0  0  0
  -20.7717  -30.2193   16.2344 C   0  0  2  0  0  0  0  0  0  0  0  0
  -19.6470  -29.2048   20.7642 C   0  0  0  0  0  0  0  0  0  0  0  0
  -25.4690  -12.1118   20.6889 N   0  0  0  0  0  0  0  0  0  0  0  0
  -29.5145  -22.0066   17.8287 N   0  0  0  0  0  0  0  0  0  0  0  0
  -29.2821  -23.2715   18.2712 N   0  0  0  0  0  0  0  0  0  0  0  0
  -26.6500  -12.7424   20.8051 N   0  0  0  0  0  0  0  0  0  0  0  0
  -23.1871  -29.7567   20.9301 N   0  0  0  0  0  0  0  0  0  0  0  0
  -27.2925  -15.6924   18.4645 N   0  0  0  0  0  0  0  0  0  0  0  0
  -28.5481  -17.4735   17.4841 N   0  0  0  0  0  0  0  0  0  0  0  0
  -28.8871  -12.4455   21.5249 N   0  0  0  0  0  0  0  0  0  0  0  0
  -26.9871   -8.4314   22.3452 N   0  0  0  0  0  0  0  0  0  0  0  0
  -24.6870  -30.6315   24.1366 N   0  0  0  0  0  0  0  0  0  0  0  0
  -20.7226  -30.0240   18.6251 N   0  0  0  0  0  0  0  0  0  0  0  0
  -21.8033  -30.0305   15.1755 N   0  3  0  0  0  0  0  0  0  0  0  0
  -28.9317   -9.6370   22.4982 O   0  0  0  0  0  0  0  0  0  0  0  0
  -23.1374  -29.0619   23.3899 O   0  0  0  0  0  0  0  0  0  0  0  0
  -21.6100  -31.4739   20.9314 O   0  0  0  0  0  0  0  0  0  0  0  0
  -21.6840  -28.3080   17.3970 O   0  0  0  0  0  0  0  0  0  0  0  0
  -29.0966  -15.2817   17.0965 O   0  0  0  0  0  0  0  0  0  0  0  0
  -21.6895   -7.0289   21.3433 O   0  0  0  0  0  0  0  0  0  0  0  0
  -27.1562  -25.1316   19.9244 O   0  0  0  0  0  0  0  0  0  1  0  0
  -21.1764   -4.0636   25.9637 F   0  0  0  0  0  0  0  0  0  0  0  0
  -23.7719   -5.4582   22.2591 F   0  0  0  0  0  0  0  0  0  0  0  0
  1  2  1  0  0  0  0
  1  5  2  0  0  0  0
  2  6  2  0  0  0  0
  3  8  2  0  0  0  0
  3 16  1  0  0  0  0
  4  9  1  0  0  0  0
  4 16  2  0  0  0  0
  5 18  1  0  0  0  0
  6 20  1  0  0  0  0
  7 10  2  0  0  0  0
  7 19  1  0  0  0  0
  8 23  1  0  0  0  0
  9 23  2  0  0  0  0
 10 24  1  0  0  0  0
 11 12  2  0  0  0  0
 11 25  1  0  0  0  0
 12 26  1  0  0  0  0
 13 21  1  0  0  0  0
 13 24  2  0  0  0  0
 14 22  2  0  0  0  0
 14 30  1  0  0  0  0
 15 26  2  0  0  0  0
 15 27  1  0  0  0  0
 16 28  1  0  0  0  0
 17 28  1  0  0  0  0
 17 31  2  0  0  0  0
 17 32  1  0  0  0  0
 18 20  2  0  0  0  0
 18 37  1  0  0  0  0
 19 21  2  0  0  0  0
 19 38  1  0  0  0  0
 20 49  1  0  0  0  0
 21 39  1  0  0  0  0
 22 29  1  0  0  0  0
 22 53  1  0  0  0  0
 23 81  1  0  0  0  0
 24 82  1  0  0  0  0
 25 27  2  0  0  0  0
 25 81  1  0  0  0  0
 26 83  1  0  0  0  0
 27 84  1  0  0  0  0
 28 64  2  0  0  0  0
 29 52  1  0  0  0  0
 29 65  2  0  0  0  0
 30 60  1  0  0  0  0
 30 66  2  0  0  0  0
 31 67  1  0  0  0  0
 31 71  1  0  0  0  0
 32 72  1  0  0  0  0
 32 76  2  0  0  0  0
 33 50  1  0  0  0  0
 33 73  1  0  0  0  0
 33 77  2  0  0  0  0
 34 61  1  0  0  0  0
 34 68  1  0  0  0  0
 34 78  2  0  0  0  0
 35 62  1  0  0  0  0
 35 74  1  0  0  0  0
 35 79  2  0  0  0  0
 36 69  1  0  0  0  0
 36 70  1  0  0  0  0
 36 80  2  0  0  0  0
 37 40  1  0  0  0  0
 38 50  1  0  0  0  0
 39 68  1  0  0  0  0
 40 42  1  0  0  0  0
 41 43  1  0  0  0  0
 41 45  1  0  0  0  0
 42 49  1  0  0  0  0
 43 51  1  0  0  0  0
 44 46  1  0  0  0  0
 44 52  1  0  0  0  0
 45 69  1  0  0  0  0
 46 70  1  0  0  0  0
 47 51  1  0  0  0  0
 47 69  1  0  0  0  0
 48 52  1  0  0  0  0
 48 70  1  0  0  0  0
 49 73  1  0  0  0  0
 50 68  1  0  0  0  0
 51 67  1  0  0  0  0
 52 54  1  0  0  0  0
 55 62  1  0  0  0  0
 56 63  1  0  0  0  0
 57 63  1  0  0  0  0
 58 63  1  0  0  0  0
 59 75  1  0  0  0  0
 60 82  1  0  0  0  0
 61 63  1  0  0  0  0
 61 74  1  0  0  0  0
 62 75  1  0  0  0  0
 64 67  1  0  0  0  0
 65 66  1  0  0  0  0
M  CHG  1  75   1
M  ISO  4  36 100  60 101  70 100  82 101
M  END
> <Batch ID>
0184

> <Smiles>
CNC(C)C(=O)NC(C(=O)N1Cc2cc([101O:1][101CH2:1]c3cc(C)c(C4(C)CC[100N:0]([100C:0](=O)N5CCCC(n6nc(-c7ccc(Oc8ccc(F)cc8F)cc7)c(C(N)=O)c6N)C5)C4)nn3)ccc2CC1C(=O)NC1CCCc2ccccc21)C(C)(C)C

> <Shape>
0.292

> <Color>
0.118

> <Negative vol penalty>
0.000

$$$$

  -OEChem-04052323103D

 82 91  0     1  0  0  0  0  0999 V2000
  -26.4132  -38.0386   20.8359 C   0  0  0  0  0  0  0  0  0  0  0  0
  -26.7392  -36.9860   19.9867 C   0  0  0  0  0  0  0  0  0  0  0  0
  -23.0809  -10.9029   21.9201 C   0  0  0  0  0  0  0  0  0  0  0  0
  -24.7828   -9.2118   21.6353 C   0  0  0  0  0  0  0  0  0  0  0  0
  -26.3017  -37.8171   22.2079 C   0  0  0  0  0  0  0  0  0  0  0  0
  -26.9550  -35.7113   20.5093 C   0  0  0  0  0  0  0  0  0  0  0  0
  -26.1291  -28.7889   18.8617 C   0  0  0  0  0  0  0  0  0  0  0  0
  -22.0910   -9.9300   21.7813 C   0  0  0  0  0  0  0  0  0  0  0  0
  -23.7929   -8.2389   21.4966 C   0  0  0  0  0  0  0  0  0  0  0  0
  -26.8558  -27.6003   18.8084 C   0  0  0  0  0  0  0  0  0  0  0  0
  -21.7407   -6.4702   23.5167 C   0  0  0  0  0  0  0  0  0  0  0  0
  -21.9081   -5.2736   24.2136 C   0  0  0  0  0  0  0  0  0  0  0  0
  -26.5580  -27.3187   21.1856 C   0  0  0  0  0  0  0  0  0  0  0  0
  -21.8874   -4.0556   22.1272 C   0  0  0  0  0  0  0  0  0  0  0  0
  -24.4268  -10.5438   21.8470 C   0  0  0  0  0  0  0  0  0  0  0  0
  -26.0677  -11.9690   23.1825 C   0  0  0  0  0  0  0  0  0  0  0  0
  -26.5067  -36.5370   22.7464 C   0  0  0  0  0  0  0  0  0  0  0  0
  -25.6198  -29.2577   20.0812 C   0  0  0  0  0  0  0  0  0  0  0  0
  -26.8474  -35.4727   21.8899 C   0  0  0  0  0  0  0  0  0  0  0  0
  -25.8230  -28.5122   21.2513 C   0  0  0  0  0  0  0  0  0  0  0  0
  -22.4470   -8.5981   21.5696 C   0  0  0  0  0  0  0  0  0  0  0  0
  -27.0729  -26.8665   19.9709 C   0  0  0  0  0  0  0  0  0  0  0  0
  -21.6466   -6.4595   22.1250 C   0  0  0  0  0  0  0  0  0  0  0  0
  -21.9814   -4.0663   23.5189 C   0  0  0  0  0  0  0  0  0  0  0  0
  -21.7200   -5.2522   21.4303 C   0  0  0  0  0  0  0  0  0  0  0  0
  -25.4498  -11.5484   21.9896 C   0  0  0  0  0  0  0  0  0  0  0  0
  -26.9609  -12.9337   22.7849 C   0  0  0  0  0  0  0  0  0  0  0  0
  -28.9538  -24.0093   18.7270 C   0  0  0  0  0  0  0  0  0  0  0  0
  -30.4235  -22.5893   19.1522 C   0  0  0  0  0  0  0  0  0  0  0  0
  -25.8535  -11.5273   24.5296 C   0  0  0  0  0  0  0  0  0  0  0  0
  -26.0729  -31.8600   21.8494 C   0  0  0  0  0  0  0  0  0  0  0  0
  -23.6676  -30.5993   23.6234 C   0  0  0  0  0  0  0  0  0  0  0  0
  -21.9166  -27.8302   24.5788 C   0  0  0  0  0  0  0  0  0  0  0  0
  -28.1750  -17.3915   19.9409 C   0  0  0  0  0  0  0  0  0  0  0  0
  -26.4215  -36.3561   24.2413 C   0  0  0  0  0  0  0  0  0  0  0  0
  -24.8151  -30.5280   20.1175 C   0  0  0  0  0  0  0  0  0  0  0  0
  -25.2800  -28.9617   22.5823 C   0  0  0  0  0  0  0  0  0  0  0  0
  -26.2981  -34.8969   24.6722 C   0  0  0  0  0  0  0  0  0  0  0  0
  -28.5685  -14.2656   18.1970 C   0  0  0  0  0  0  0  0  0  0  0  0
  -27.3120  -34.0331   23.9289 C   0  0  0  0  0  0  0  0  0  0  0  0
  -27.8025  -13.3156   19.1134 C   0  0  0  0  0  0  0  0  0  0  0  0
  -27.8121  -20.1908   17.5878 C   0  0  0  0  0  0  0  0  0  0  0  0
  -27.9152  -15.6467   18.1122 C   0  0  0  0  0  0  0  0  0  0  0  0
  -27.7332  -18.6796   17.7680 C   0  0  0  0  0  0  0  0  0  0  0  0
  -26.9001  -15.3146   20.3500 C   0  0  0  0  0  0  0  0  0  0  0  0
  -29.1955  -19.5926   19.4414 C   0  0  0  0  0  0  0  0  0  0  0  0
  -27.0647  -34.0705   22.4160 C   0  0  1  0  0  0  0  0  0  0  0  0
  -24.7823  -31.1753   21.4985 C   0  0  1  0  0  0  0  0  0  0  0  0
  -27.5897  -13.9510   20.4965 C   0  0  1  0  0  0  0  0  0  0  0  0
  -29.1608  -20.5324   18.2337 C   0  0  2  0  0  0  0  0  0  0  0  0
  -31.6302  -21.8532   19.5700 C   0  0  0  0  0  0  0  0  0  0  0  0
  -20.0310  -27.1091   26.0695 C   0  0  0  0  0  0  0  0  0  0  0  0
  -25.4953  -30.8524   26.0535 C   0  0  0  0  0  0  0  0  0  0  0  0
  -23.9719  -29.2856   27.2753 C   0  0  0  0  0  0  0  0  0  0  0  0
  -23.1118  -31.4845   26.4704 C   0  0  0  0  0  0  0  0  0  0  0  0
  -20.3323  -26.8322   22.2869 C   0  0  0  0  0  0  0  0  0  0  0  0
  -28.2733  -25.3065   18.6363 C   0  0  0  0  0  0  0  0  0  1  0  0
  -23.5872  -29.6513   24.7955 C   0  0  1  0  0  0  0  0  0  0  0  0
  -20.4249  -27.5645   24.6730 C   0  0  2  0  0  0  0  0  0  0  0  0
  -24.0536  -30.3107   26.1241 C   0  0  0  0  0  0  0  0  0  0  0  0
  -25.9113  -12.1931   20.9147 N   0  0  0  0  0  0  0  0  0  0  0  0
  -30.2001  -23.8776   19.2694 N   0  0  0  0  0  0  0  0  0  0  0  0
  -28.3921  -22.8835   18.2815 N   0  0  0  0  0  0  0  0  0  0  0  0
  -26.8286  -13.0288   21.4308 N   0  0  0  0  0  0  0  0  0  0  0  0
  -29.3525  -21.9906   18.5653 N   0  0  0  0  0  0  0  0  0  0  0  0
  -24.5050  -30.2134   22.5672 N   0  0  0  0  0  0  0  0  0  0  0  0
  -27.6416  -16.1969   19.4444 N   0  0  0  0  0  0  0  0  0  0  0  0
  -28.4221  -18.4217   19.0343 N   0  0  0  0  0  0  0  0  0  0  0  0
  -27.8386  -13.7015   23.4650 N   0  0  0  0  0  0  0  0  0  0  0  0
  -24.8984  -10.5281   24.7612 N   0  0  0  0  0  0  0  0  0  0  0  0
  -25.9482  -33.2192   22.0652 N   0  0  0  0  0  0  0  0  0  0  0  0
  -22.2162  -29.1535   24.8246 N   0  0  0  0  0  0  0  0  0  0  0  0
  -20.0250  -26.5060   23.7032 N   0  3  0  0  0  0  0  0  0  0  0  0
  -26.4786  -12.0160   25.5012 O   0  0  0  0  0  0  0  0  0  0  0  0
  -27.1053  -31.2036   21.9205 O   0  0  0  0  0  0  0  0  0  0  0  0
  -23.0060  -31.6403   23.6410 O   0  0  0  0  0  0  0  0  0  0  0  0
  -22.7345  -26.9510   24.3173 O   0  0  0  0  0  0  0  0  0  0  0  0
  -28.3824  -17.5482   21.1518 O   0  0  0  0  0  0  0  0  0  0  0  0
  -21.4813   -7.6485   21.4345 O   0  0  0  0  0  0  0  0  0  0  0  0
  -27.7855  -25.7014   19.9216 O   0  0  0  0  0  0  0  0  0  1  0  0
  -22.1437   -2.9174   24.1881 F   0  0  0  0  0  0  0  0  0  0  0  0
  -21.6315   -5.2358   20.0932 F   0  0  0  0  0  0  0  0  0  0  0  0
  1  2  1  0  0  0  0
  1  5  2  0  0  0  0
  2  6  2  0  0  0  0
  3  8  2  0  0  0  0
  3 15  1  0  0  0  0
  4  9  1  0  0  0  0
  4 15  2  0  0  0  0
  5 17  1  0  0  0  0
  6 19  1  0  0  0  0
  7 10  2  0  0  0  0
  7 18  1  0  0  0  0
  8 21  1  0  0  0  0
  9 21  2  0  0  0  0
 10 22  1  0  0  0  0
 11 12  2  0  0  0  0
 11 23  1  0  0  0  0
 12 24  1  0  0  0  0
 13 20  1  0  0  0  0
 13 22  2  0  0  0  0
 14 24  2  0  0  0  0
 14 25  1  0  0  0  0
 15 26  1  0  0  0  0
 16 26  1  0  0  0  0
 16 27  2  0  0  0  0
 16 30  1  0  0  0  0
 17 19  2  0  0  0  0
 17 35  1  0  0  0  0
 18 20  2  0  0  0  0
 18 36  1  0  0  0  0
 19 47  1  0  0  0  0
 20 37  1  0  0  0  0
 21 79  1  0  0  0  0
 22 80  1  0  0  0  0
 23 25  2  0  0  0  0
 23 79  1  0  0  0  0
 24 81  1  0  0  0  0
 25 82  1  0  0  0  0
 26 61  2  0  0  0  0
 27 64  1  0  0  0  0
 27 69  1  0  0  0  0
 28 57  1  0  0  0  0
 28 62  1  0  0  0  0
 28 63  2  0  0  0  0
 29 51  1  0  0  0  0
 29 62  2  0  0  0  0
 29 65  1  0  0  0  0
 30 70  1  0  0  0  0
 30 74  2  0  0  0  0
 31 48  1  0  0  0  0
 31 71  1  0  0  0  0
 31 75  2  0  0  0  0
 32 58  1  0  0  0  0
 32 66  1  0  0  0  0
 32 76  2  0  0  0  0
 33 59  1  0  0  0  0
 33 72  1  0  0  0  0
 33 77  2  0  0  0  0
 34 67  1  0  0  0  0
 34 68  1  0  0  0  0
 34 78  2  0  0  0  0
 35 38  1  0  0  0  0
 36 48  1  0  0  0  0
 37 66  1  0  0  0  0
 38 40  1  0  0  0  0
 39 41  1  0  0  0  0
 39 43  1  0  0  0  0
 40 47  1  0  0  0  0
 41 49  1  0  0  0  0
 42 44  1  0  0  0  0
 42 50  1  0  0  0  0
 43 67  1  0  0  0  0
 44 68  1  0  0  0  0
 45 49  1  0  0  0  0
 45 67  1  0  0  0  0
 46 50  1  0  0  0  0
 46 68  1  0  0  0  0
 47 71  1  0  0  0  0
 48 66  1  0  0  0  0
 49 64  1  0  0  0  0
 50 65  1  0  0  0  0
 52 59  1  0  0  0  0
 53 60  1  0  0  0  0
 54 60  1  0  0  0  0
 55 60  1  0  0  0  0
 56 73  1  0  0  0  0
 57 80  1  0  0  0  0
 58 60  1  0  0  0  0
 58 72  1  0  0  0  0
 59 73  1  0  0  0  0
 61 64  1  0  0  0  0
 63 65  1  0  0  0  0
M  CHG  1  73   1
M  ISO  4  34 100  57 101  68 100  80 101
M  END
> <Batch ID>
0184

> <Smiles>
CNC(C)C(=O)NC(C(=O)N1Cc2cc([101O:1][101CH2:1]c3nc(C)n(C4CC[100N:0]([100C:0](=O)N5CCCC(n6nc(-c7ccc(Oc8ccc(F)cc8F)cc7)c(C(N)=O)c6N)C5)C4)n3)ccc2CC1C(=O)NC1CCCc2ccccc21)C(C)(C)C

> <Shape>
0.309

> <Color>
0.109

> <Negative vol penalty>
0.000

$$$$

  -OEChem-04052323103D

 80 88  0     1  0  0  0  0  0999 V2000
  -27.9476  -32.3101   21.8811 C   0  0  0  0  0  0  0  0  0  0  0  0
  -28.6152  -31.0999   21.7226 C   0  0  0  0  0  0  0  0  0  0  0  0
  -23.3945   -9.6069   20.5246 C   0  0  0  0  0  0  0  0  0  0  0  0
  -24.1140  -10.1489   22.7664 C   0  0  0  0  0  0  0  0  0  0  0  0
  -26.5602  -32.3615   21.7539 C   0  0  0  0  0  0  0  0  0  0  0  0
  -27.8954  -29.9400   21.4378 C   0  0  0  0  0  0  0  0  0  0  0  0
  -29.6931  -25.2631   17.9163 C   0  0  0  0  0  0  0  0  0  0  0  0
  -22.7882   -8.4442   21.0003 C   0  0  0  0  0  0  0  0  0  0  0  0
  -23.5076   -8.9862   23.2421 C   0  0  0  0  0  0  0  0  0  0  0  0
  -30.2462  -24.0197   18.2189 C   0  0  0  0  0  0  0  0  0  0  0  0
  -20.7412   -5.5178   21.6791 C   0  0  0  0  0  0  0  0  0  0  0  0
  -19.4577   -5.2215   21.2204 C   0  0  0  0  0  0  0  0  0  0  0  0
  -28.0521  -23.0233   18.1071 C   0  0  0  0  0  0  0  0  0  0  0  0
  -18.6477   -7.3027   22.1423 C   0  0  0  0  0  0  0  0  0  0  0  0
  -24.0575  -10.4592   21.4077 C   0  0  0  0  0  0  0  0  0  0  0  0
  -24.1009  -12.9354   20.7960 C   0  0  0  0  0  0  0  0  0  0  0  0
  -25.8240  -31.2035   21.4578 C   0  0  0  0  0  0  0  0  0  0  0  0
  -28.3116  -25.3982   17.7172 C   0  0  0  0  0  0  0  0  0  0  0  0
  -26.4966  -29.9757   21.3078 C   0  0  0  0  0  0  0  0  0  0  0  0
  -27.4843  -24.2691   17.7996 C   0  0  0  0  0  0  0  0  0  0  0  0
  -22.8447   -8.1339   22.3590 C   0  0  0  0  0  0  0  0  0  0  0  0
  -29.4254  -22.9000   18.3172 C   0  0  0  0  0  0  0  0  0  0  0  0
  -20.9780   -6.7065   22.3695 C   0  0  0  0  0  0  0  0  0  0  0  0
  -18.4110   -6.1139   21.4520 C   0  0  0  0  0  0  0  0  0  0  0  0
  -19.9313   -7.5990   22.6010 C   0  0  0  0  0  0  0  0  0  0  0  0
  -24.6845  -11.6600   20.9169 C   0  0  0  0  0  0  0  0  0  0  0  0
  -25.1023  -13.7242   20.2848 C   0  0  0  0  0  0  0  0  0  0  0  0
  -22.7724  -13.3683   21.1173 C   0  0  0  0  0  0  0  0  0  0  0  0
  -25.9847  -27.0128   19.1603 C   0  0  0  0  0  0  0  0  0  0  0  0
  -24.2070  -25.8969   16.6870 C   0  0  0  0  0  0  0  0  0  0  0  0
  -23.7757  -23.5329   14.2638 C   0  0  0  0  0  0  0  0  0  0  0  0
  -30.5817  -15.1877   20.7265 C   0  0  0  0  0  0  0  0  0  0  0  0
  -24.3210  -31.2997   21.3766 C   0  0  0  0  0  0  0  0  0  0  0  0
  -27.7340  -26.7417   17.3652 C   0  0  0  0  0  0  0  0  0  0  0  0
  -25.9977  -24.3572   17.5748 C   0  0  0  0  0  0  0  0  0  0  0  0
  -23.6691  -30.0948   20.7033 C   0  0  0  0  0  0  0  0  0  0  0  0
  -29.6047  -12.5184   18.3472 C   0  0  0  0  0  0  0  0  0  0  0  0
  -24.2490  -28.7963   21.2551 C   0  0  0  0  0  0  0  0  0  0  0  0
  -28.2195  -12.1178   18.8514 C   0  0  0  0  0  0  0  0  0  0  0  0
  -30.8691  -18.3583   22.1056 C   0  0  0  0  0  0  0  0  0  0  0  0
  -28.8923  -18.2735   20.5347 C   0  0  0  0  0  0  0  0  0  0  0  0
  -30.4799  -13.0657   19.4703 C   0  0  0  0  0  0  0  0  0  0  0  0
  -30.5738  -16.9143   22.5025 C   0  0  0  0  0  0  0  0  0  0  0  0
  -28.6516  -16.8175   20.9445 C   0  0  0  0  0  0  0  0  0  0  0  0
  -28.4747  -13.7956   20.7226 C   0  0  0  0  0  0  0  0  0  0  0  0
  -25.7533  -28.7006   20.9738 C   0  0  1  0  0  0  0  0  0  0  0  0
  -26.2477  -26.8565   17.6892 C   0  0  1  0  0  0  0  0  0  0  0  0
  -27.5538  -13.2814   19.6058 C   0  0  2  0  0  0  0  0  0  0  0  0
  -29.5866  -19.0517   21.6504 C   0  0  0  0  0  0  0  0  0  0  0  0
  -22.2096  -22.8643   12.4205 C   0  0  0  0  0  0  0  0  0  0  0  0
  -22.2452  -24.8051   18.7532 C   0  0  0  0  0  0  0  0  0  0  0  0
  -21.2558  -23.3723   16.9542 C   0  0  0  0  0  0  0  0  0  0  0  0
  -21.1751  -25.8573   16.7527 C   0  0  0  0  0  0  0  0  0  0  0  0
  -25.8803  -23.8420   12.2061 C   0  0  0  0  0  0  0  0  0  0  0  0
  -30.0253  -21.4220   22.2746 C   0  0  0  0  0  0  0  0  0  0  0  0
  -31.1519  -20.4289   20.2883 C   0  0  0  0  0  0  0  0  0  0  0  0
  -31.1369  -21.6726   19.4216 C   0  0  0  0  0  0  0  0  0  1  0  0
  -23.3791  -24.6593   16.4383 C   0  0  1  0  0  0  0  0  0  0  0  0
  -23.4577  -23.6533   12.7843 C   0  0  2  0  0  0  0  0  0  0  0  0
  -22.0415  -24.6718   17.2308 C   0  0  0  0  0  0  0  0  0  0  0  0
  -25.9580  -11.6355   20.5146 N   0  0  0  0  0  0  0  0  0  0  0  0
  -26.1827  -12.9052   20.1360 N   0  0  0  0  0  0  0  0  0  0  0  0
  -25.4796  -25.6938   17.2393 N   0  0  0  0  0  0  0  0  0  0  0  0
  -29.8075  -14.1385   20.2033 N   0  0  0  0  0  0  0  0  0  0  0  0
  -29.8970  -16.1971   21.4202 N   0  0  0  0  0  0  0  0  0  0  0  0
  -25.1553  -15.0316   19.9525 N   0  0  0  0  0  0  0  0  0  0  0  0
  -21.8698  -12.4285   21.6334 N   0  0  0  0  0  0  0  0  0  0  0  0
  -25.9869  -28.3241   19.5960 N   0  0  0  0  0  0  0  0  0  0  0  0
  -23.2158  -24.5613   14.9919 N   0  0  0  0  0  0  0  0  0  0  0  0
  -24.5932  -23.1397   11.9670 N   0  3  0  0  0  0  0  0  0  0  0  0
  -29.9198  -20.4134   21.1581 N   0  3  1  0  0  0  0  0  0  0  0  0
  -22.3918  -14.5498   20.9362 O   0  0  0  0  0  0  0  0  0  0  0  0
  -25.7924  -26.0174   19.8488 O   0  0  0  0  0  0  0  0  0  0  0  0
  -23.7444  -27.0026   16.3952 O   0  0  0  0  0  0  0  0  0  0  0  0
  -24.4499  -22.6160   14.7278 O   0  0  0  0  0  0  0  0  0  0  0  0
  -31.8099  -15.2204   20.5798 O   0  0  0  0  0  0  0  0  0  0  0  0
  -22.2530   -6.9997   22.8236 O   0  0  0  0  0  0  0  0  0  0  0  0
  -29.9664  -21.6765   18.6152 O   0  0  0  0  0  0  0  0  0  1  0  0
  -17.1788   -5.8299   21.0101 F   0  0  0  0  0  0  0  0  0  0  0  0
  -20.1529   -8.7431   23.2626 F   0  0  0  0  0  0  0  0  0  0  0  0
  1  2  1  0  0  0  0
  1  5  2  0  0  0  0
  2  6  2  0  0  0  0
  3  8  2  0  0  0  0
  3 15  1  0  0  0  0
  4  9  1  0  0  0  0
  4 15  2  0  0  0  0
  5 17  1  0  0  0  0
  6 19  1  0  0  0  0
  7 10  2  0  0  0  0
  7 18  1  0  0  0  0
  8 21  1  0  0  0  0
  9 21  2  0  0  0  0
 10 22  1  0  0  0  0
 11 12  2  0  0  0  0
 11 23  1  0  0  0  0
 12 24  1  0  0  0  0
 13 20  1  0  0  0  0
 13 22  2  0  0  0  0
 14 24  2  0  0  0  0
 14 25  1  0  0  0  0
 15 26  1  0  0  0  0
 16 26  1  0  0  0  0
 16 27  2  0  0  0  0
 16 28  1  0  0  0  0
 17 19  2  0  0  0  0
 17 33  1  0  0  0  0
 18 20  2  0  0  0  0
 18 34  1  0  0  0  0
 19 46  1  0  0  0  0
 20 35  1  0  0  0  0
 21 77  1  0  0  0  0
 22 78  1  0  0  0  0
 23 25  2  0  0  0  0
 23 77  1  0  0  0  0
 24 79  1  0  0  0  0
 25 80  1  0  0  0  0
 26 61  2  0  0  0  0
 27 62  1  0  0  0  0
 27 66  1  0  0  0  0
 28 67  1  0  0  0  0
 28 72  2  0  0  0  0
 29 47  1  0  0  0  0
 29 68  1  0  0  0  0
 29 73  2  0  0  0  0
 30 58  1  0  0  0  0
 30 63  1  0  0  0  0
 30 74  2  0  0  0  0
 31 59  1  0  0  0  0
 31 69  1  0  0  0  0
 31 75  2  0  0  0  0
 32 64  1  0  0  0  0
 32 65  1  0  0  0  0
 32 76  2  0  0  0  0
 33 36  1  0  0  0  0
 34 47  1  0  0  0  0
 35 63  1  0  0  0  0
 36 38  1  0  0  0  0
 37 39  1  0  0  0  0
 37 42  1  0  0  0  0
 38 46  1  0  0  0  0
 39 48  1  0  0  0  0
 40 43  1  0  0  0  0
 40 49  1  0  0  0  0
 41 44  1  0  0  0  0
 41 49  1  0  0  0  0
 42 64  1  0  0  0  0
 43 65  1  0  0  0  0
 44 65  1  0  0  0  0
 45 48  1  0  0  0  0
 45 64  1  0  0  0  0
 46 68  1  0  0  0  0
 47 63  1  0  0  0  0
 48 62  1  0  0  0  0
 49 71  1  0  0  0  0
 50 59  1  0  0  0  0
 51 60  1  0  0  0  0
 52 60  1  0  0  0  0
 53 60  1  0  0  0  0
 54 70  1  0  0  0  0
 55 71  1  0  0  0  0
 56 57  1  0  0  0  0
 56 71  1  0  0  0  0
 57 78  1  0  0  0  0
 58 60  1  0  0  0  0
 58 69  1  0  0  0  0
 59 70  1  0  0  0  0
 61 62  1  0  0  0  0
M  CHG  2  70   1  71   1
M  ISO  4  32 100  57 101  65 100  78 101
M  END
> <Batch ID>
0184

> <Smiles>
CNC(C)C(=O)NC(C(=O)N1Cc2cc([101O:1][101CH2:1]CN(C)C3CC[100N:0]([100C:0](=O)N4CCCC(n5nc(-c6ccc(Oc7ccc(F)cc7F)cc6)c(C(N)=O)c5N)C4)CC3)ccc2CC1C(=O)NC1CCCc2ccccc21)C(C)(C)C

> <Shape>
0.283

> <Color>
0.174

> <Negative vol penalty>
0.000

$$$$

  -OEChem-04052323103D

 84 93  0     1  0  0  0  0  0999 V2000
  -20.4370  -37.0200   20.3952 C   0  0  0  0  0  0  0  0  0  0  0  0
  -20.8025  -36.0763   19.4406 C   0  0  0  0  0  0  0  0  0  0  0  0
  -22.8690  -13.6957   19.2198 C   0  0  0  0  0  0  0  0  0  0  0  0
  -24.0615  -12.3211   20.8090 C   0  0  0  0  0  0  0  0  0  0  0  0
  -21.2343  -37.2146   21.5223 C   0  0  0  0  0  0  0  0  0  0  0  0
  -21.9662  -35.3275   19.6121 C   0  0  0  0  0  0  0  0  0  0  0  0
  -24.6824  -28.8407   18.2479 C   0  0  0  0  0  0  0  0  0  0  0  0
  -22.3230  -12.5509   18.6393 C   0  0  0  0  0  0  0  0  0  0  0  0
  -23.5155  -11.1763   20.2285 C   0  0  0  0  0  0  0  0  0  0  0  0
  -25.7957  -28.2409   17.6608 C   0  0  0  0  0  0  0  0  0  0  0  0
  -20.5801   -9.5037   20.3069 C   0  0  0  0  0  0  0  0  0  0  0  0
  -20.0788   -8.5218   21.1614 C   0  0  0  0  0  0  0  0  0  0  0  0
  -27.0535  -28.6069   19.6865 C   0  0  0  0  0  0  0  0  0  0  0  0
  -21.6501   -6.9279   20.2515 C   0  0  0  0  0  0  0  0  0  0  0  0
  -30.9409  -26.3856   14.5462 C   0  0  0  0  0  0  0  0  0  0  0  0
  -31.4739  -25.2987   15.2037 C   0  0  0  0  0  0  0  0  0  0  0  0
  -23.7383  -13.5808   20.3046 C   0  0  0  0  0  0  0  0  0  0  0  0
  -23.7650  -15.5193   21.9627 C   0  0  0  0  0  0  0  0  0  0  0  0
  -22.4032  -36.4609   21.7125 C   0  0  0  0  0  0  0  0  0  0  0  0
  -24.7497  -29.3388   19.5570 C   0  0  0  0  0  0  0  0  0  0  0  0
  -22.7806  -35.5131   20.7421 C   0  0  0  0  0  0  0  0  0  0  0  0
  -25.9389  -29.2103   20.2888 C   0  0  0  0  0  0  0  0  0  0  0  0
  -22.6462  -11.2912   19.1437 C   0  0  0  0  0  0  0  0  0  0  0  0
  -26.9823  -28.1265   18.3791 C   0  0  0  0  0  0  0  0  0  0  0  0
  -21.6163   -9.1978   19.4247 C   0  0  0  0  0  0  0  0  0  0  0  0
  -20.6138   -7.2339   21.1337 C   0  0  0  0  0  0  0  0  0  0  0  0
  -22.1513   -7.9099   19.3970 C   0  0  0  0  0  0  0  0  0  0  0  0
  -24.3031  -14.7629   20.9044 C   0  0  0  0  0  0  0  0  0  0  0  0
  -29.1974  -26.4255   16.0253 C   0  0  0  0  0  0  0  0  0  0  0  0
  -29.7298  -25.3382   16.6824 C   0  0  0  0  0  0  0  0  0  0  0  0
  -24.6729  -16.5312   22.1579 C   0  0  0  0  0  0  0  0  0  0  0  0
  -22.5528  -15.3245   22.7032 C   0  0  0  0  0  0  0  0  0  0  0  0
  -24.4288  -32.2092   20.8842 C   0  0  0  0  0  0  0  0  0  0  0  0
  -24.6715  -30.5284   23.6480 C   0  0  0  0  0  0  0  0  0  0  0  0
  -25.7638  -27.7153   25.2418 C   0  0  0  0  0  0  0  0  0  0  0  0
  -27.9523  -20.4100   20.4240 C   0  0  0  0  0  0  0  0  0  0  0  0
  -23.2580  -36.7401   22.9233 C   0  0  0  0  0  0  0  0  0  0  0  0
  -23.5320  -29.9590   20.1853 C   0  0  0  0  0  0  0  0  0  0  0  0
  -26.0569  -29.7105   21.7045 C   0  0  0  0  0  0  0  0  0  0  0  0
  -24.2772  -35.6418   23.2157 C   0  0  0  0  0  0  0  0  0  0  0  0
  -29.3365  -17.1845   20.3294 C   0  0  0  0  0  0  0  0  0  0  0  0
  -25.0027  -35.2329   21.9377 C   0  0  0  0  0  0  0  0  0  0  0  0
  -28.0991  -16.3165   20.5569 C   0  0  0  0  0  0  0  0  0  0  0  0
  -29.2017  -22.3967   17.8011 C   0  0  0  0  0  0  0  0  0  0  0  0
  -28.9221  -23.7014   19.9429 C   0  0  0  0  0  0  0  0  0  0  0  0
  -29.0456  -18.3651   19.4012 C   0  0  0  0  0  0  0  0  0  0  0  0
  -29.5721  -21.1590   18.6235 C   0  0  0  0  0  0  0  0  0  0  0  0
  -29.3241  -22.4502   20.7189 C   0  0  0  0  0  0  0  0  0  0  0  0
  -26.6608  -18.3285   20.0568 C   0  0  0  0  0  0  0  0  0  0  0  0
  -24.0225  -34.6638   20.9048 C   0  0  1  0  0  0  0  0  0  0  0  0
  -23.8675  -30.8933   21.3437 C   0  0  1  0  0  0  0  0  0  0  0  0
  -26.9076  -17.1670   21.0320 C   0  0  1  0  0  0  0  0  0  0  0  0
  -29.5453  -23.6895   18.5446 C   0  0  0  0  0  0  0  0  0  0  0  0
  -25.8495  -26.6434   27.5091 C   0  0  0  0  0  0  0  0  0  0  0  0
  -26.9239  -32.4219   24.4554 C   0  0  0  0  0  0  0  0  0  0  0  0
  -27.5847  -30.7720   26.2188 C   0  0  0  0  0  0  0  0  0  0  0  0
  -25.3344  -31.8457   26.2982 C   0  0  0  0  0  0  0  0  0  0  0  0
  -24.1729  -25.3918   24.3313 C   0  0  0  0  0  0  0  0  0  0  0  0
  -27.9271  -27.0680   16.4705 C   0  0  0  0  0  0  0  0  0  1  0  0
  -25.8105  -30.0939   24.5385 C   0  0  1  0  0  0  0  0  0  0  0  0
  -25.0712  -26.7724   26.2090 C   0  0  2  0  0  0  0  0  0  0  0  0
  -26.4121  -31.2756   25.3504 C   0  0  0  0  0  0  0  0  0  0  0  0
  -29.7932  -26.9685   14.9453 N   0  0  0  0  0  0  0  0  0  0  0  0
  -30.8778  -24.7555   16.2836 N   0  0  0  0  0  0  0  0  0  0  0  0
  -25.4630  -15.2526   20.4583 N   0  0  0  0  0  0  0  0  0  0  0  0
  -25.6611  -16.3276   21.2402 N   0  0  0  0  0  0  0  0  0  0  0  0
  -24.8406  -30.3150   22.2726 N   0  0  0  0  0  0  0  0  0  0  0  0
  -27.8777  -19.1222   19.8726 N   0  0  0  0  0  0  0  0  0  0  0  0
  -28.9913  -21.2369   19.9716 N   0  0  0  0  0  0  0  0  0  0  0  0
  -24.7144  -17.5664   23.0233 N   0  0  0  0  0  0  0  0  0  0  0  0
  -21.7357  -14.2348   22.3726 N   0  0  0  0  0  0  0  0  0  0  0  0
  -29.0711  -24.8260   17.7861 N   0  0  0  0  0  0  0  0  0  0  0  0
  -23.6648  -33.3031   21.2436 N   0  0  0  0  0  0  0  0  0  0  0  0
  -25.2931  -29.0058   25.3612 N   0  0  0  0  0  0  0  0  0  0  0  0
  -24.9377  -25.4167   25.6047 N   0  3  0  0  0  0  0  0  0  0  0  0
  -22.1963  -16.1034   23.6196 O   0  0  0  0  0  0  0  0  0  0  0  0
  -25.4782  -32.2306   20.2518 O   0  0  0  0  0  0  0  0  0  0  0  0
  -23.6659  -31.0319   24.1547 O   0  0  0  0  0  0  0  0  0  0  0  0
  -26.6378  -27.3449   24.4611 O   0  0  0  0  0  0  0  0  0  0  0  0
  -27.1382  -20.7986   21.2710 O   0  0  0  0  0  0  0  0  0  0  0  0
  -22.1134  -10.1740   18.5776 O   0  0  0  0  0  0  0  0  0  0  0  0
  -28.0781  -27.5380   17.8044 O   0  0  0  0  0  0  0  0  0  1  0  0
  -20.1333   -6.2914   21.9554 F   0  0  0  0  0  0  0  0  0  0  0  0
  -23.1478   -7.6103   18.5525 F   0  0  0  0  0  0  0  0  0  0  0  0
  1  2  1  0  0  0  0
  1  5  2  0  0  0  0
  2  6  2  0  0  0  0
  3  8  2  0  0  0  0
  3 17  1  0  0  0  0
  4  9  1  0  0  0  0
  4 17  2  0  0  0  0
  5 19  1  0  0  0  0
  6 21  1  0  0  0  0
  7 10  2  0  0  0  0
  7 20  1  0  0  0  0
  8 23  1  0  0  0  0
  9 23  2  0  0  0  0
 10 24  1  0  0  0  0
 11 12  2  0  0  0  0
 11 25  1  0  0  0  0
 12 26  1  0  0  0  0
 13 22  1  0  0  0  0
 13 24  2  0  0  0  0
 14 26  2  0  0  0  0
 14 27  1  0  0  0  0
 15 16  1  0  0  0  0
 15 63  2  0  0  0  0
 16 64  2  0  0  0  0
 17 28  1  0  0  0  0
 18 28  1  0  0  0  0
 18 31  2  0  0  0  0
 18 32  1  0  0  0  0
 19 21  2  0  0  0  0
 19 37  1  0  0  0  0
 20 22  2  0  0  0  0
 20 38  1  0  0  0  0
 21 50  1  0  0  0  0
 22 39  1  0  0  0  0
 23 81  1  0  0  0  0
 24 82  1  0  0  0  0
 25 27  2  0  0  0  0
 25 81  1  0  0  0  0
 26 83  1  0  0  0  0
 27 84  1  0  0  0  0
 28 65  2  0  0  0  0
 29 30  2  0  0  0  0
 29 59  1  0  0  0  0
 29 63  1  0  0  0  0
 30 64  1  0  0  0  0
 30 72  1  0  0  0  0
 31 66  1  0  0  0  0
 31 70  1  0  0  0  0
 32 71  1  0  0  0  0
 32 76  2  0  0  0  0
 33 51  1  0  0  0  0
 33 73  1  0  0  0  0
 33 77  2  0  0  0  0
 34 60  1  0  0  0  0
 34 67  1  0  0  0  0
 34 78  2  0  0  0  0
 35 61  1  0  0  0  0
 35 74  1  0  0  0  0
 35 79  2  0  0  0  0
 36 68  1  0  0  0  0
 36 69  1  0  0  0  0
 36 80  2  0  0  0  0
 37 40  1  0  0  0  0
 38 51  1  0  0  0  0
 39 67  1  0  0  0  0
 40 42  1  0  0  0  0
 41 43  1  0  0  0  0
 41 46  1  0  0  0  0
 42 50  1  0  0  0  0
 43 52  1  0  0  0  0
 44 47  1  0  0  0  0
 44 53  1  0  0  0  0
 45 48  1  0  0  0  0
 45 53  1  0  0  0  0
 46 68  1  0  0  0  0
 47 69  1  0  0  0  0
 48 69  1  0  0  0  0
 49 52  1  0  0  0  0
 49 68  1  0  0  0  0
 50 73  1  0  0  0  0
 51 67  1  0  0  0  0
 52 66  1  0  0  0  0
 53 72  1  0  0  0  0
 54 61  1  0  0  0  0
 55 62  1  0  0  0  0
 56 62  1  0  0  0  0
 57 62  1  0  0  0  0
 58 75  1  0  0  0  0
 59 82  1  0  0  0  0
 60 62  1  0  0  0  0
 60 74  1  0  0  0  0
 61 75  1  0  0  0  0
 65 66  1  0  0  0  0
M  CHG  1  75   1
M  ISO  4  36 100  59 101  69 100  82 101
M  END
> <Batch ID>
0184

> <Smiles>
CNC(C)C(=O)NC(C(=O)N1Cc2cc([101O:1][101CH2:1]c3nccnc3NC3CC[100N:0]([100C:0](=O)N4CCCC(n5nc(-c6ccc(Oc7ccc(F)cc7F)cc6)c(C(N)=O)c5N)C4)CC3)ccc2CC1C(=O)NC1CCCc2ccccc21)C(C)(C)C

> <Shape>
0.242

> <Color>
0.064

> <Negative vol penalty>
0.000

$$$$

  -OEChem-04052323103D

 88 97  0     1  0  0  0  0  0999 V2000
  -29.3727  -33.3405   27.3583 C   0  0  0  0  0  0  0  0  0  0  0  0
  -28.9910  -32.2458   26.5893 C   0  0  0  0  0  0  0  0  0  0  0  0
  -24.3714   -9.3852   22.2510 C   0  0  0  0  0  0  0  0  0  0  0  0
  -23.4301   -9.8488   20.0748 C   0  0  0  0  0  0  0  0  0  0  0  0
  -28.4705  -34.3785   27.5874 C   0  0  0  0  0  0  0  0  0  0  0  0
  -27.7065  -32.1879   26.0499 C   0  0  0  0  0  0  0  0  0  0  0  0
  -27.6971  -30.6990   21.2096 C   0  0  0  0  0  0  0  0  0  0  0  0
  -23.3031   -8.5333   22.5316 C   0  0  0  0  0  0  0  0  0  0  0  0
  -22.3619   -8.9969   20.3553 C   0  0  0  0  0  0  0  0  0  0  0  0
  -27.8544  -29.3359   20.9625 C   0  0  0  0  0  0  0  0  0  0  0  0
  -22.3677   -5.3755   21.7661 C   0  0  0  0  0  0  0  0  0  0  0  0
  -22.6584   -4.1402   22.3450 C   0  0  0  0  0  0  0  0  0  0  0  0
  -25.4723  -29.1243   20.6467 C   0  0  0  0  0  0  0  0  0  0  0  0
  -28.6354  -24.8052   18.9279 C   0  0  0  0  0  0  0  0  0  0  0  0
  -21.3020   -4.7181   24.2590 C   0  0  0  0  0  0  0  0  0  0  0  0
  -24.4349  -10.0430   21.0226 C   0  0  0  0  0  0  0  0  0  0  0  0
  -26.7630  -10.5812   20.1294 C   0  0  0  0  0  0  0  0  0  0  0  0
  -27.1774  -34.3378   27.0425 C   0  0  0  0  0  0  0  0  0  0  0  0
  -26.4227  -31.2838   21.1879 C   0  0  0  0  0  0  0  0  0  0  0  0
  -26.7857  -33.2257   26.2731 C   0  0  0  0  0  0  0  0  0  0  0  0
  -25.3017  -30.4955   20.8914 C   0  0  0  0  0  0  0  0  0  0  0  0
  -28.5979  -23.4462   18.6700 C   0  0  0  0  0  0  0  0  0  0  0  0
  -22.2984   -8.3391   21.5838 C   0  0  0  0  0  0  0  0  0  0  0  0
  -26.7417  -28.5478   20.6838 C   0  0  0  0  0  0  0  0  0  0  0  0
  -21.5442   -6.2821   22.4336 C   0  0  0  0  0  0  0  0  0  0  0  0
  -22.1255   -3.8115   23.5915 C   0  0  0  0  0  0  0  0  0  0  0  0
  -21.0113   -5.9534   23.6800 C   0  0  0  0  0  0  0  0  0  0  0  0
  -25.5379  -10.9235   20.7324 C   0  0  0  0  0  0  0  0  0  0  0  0
  -28.2001  -25.2406   20.1634 C   0  0  0  0  0  0  0  0  0  0  0  0
  -28.1279  -22.6125   19.6648 C   0  0  0  0  0  0  0  0  0  0  0  0
  -27.4621  -11.7623   20.0777 C   0  0  0  0  0  0  0  0  0  0  0  0
  -27.2275   -9.3093   19.6580 C   0  0  0  0  0  0  0  0  0  0  0  0
  -24.6064  -32.7839   23.3220 C   0  0  0  0  0  0  0  0  0  0  0  0
  -22.6822  -33.2791   20.7580 C   0  0  0  0  0  0  0  0  0  0  0  0
  -21.6828  -32.2836   17.6505 C   0  0  0  0  0  0  0  0  0  0  0  0
  -27.8932  -17.0227   19.0847 C   0  0  0  0  0  0  0  0  0  0  0  0
  -26.2215  -35.4613   27.3570 C   0  0  0  0  0  0  0  0  0  0  0  0
  -26.2728  -32.7607   21.4303 C   0  0  0  0  0  0  0  0  0  0  0  0
  -23.9142  -31.0788   20.8361 C   0  0  0  0  0  0  0  0  0  0  0  0
  -25.0031  -35.4994   26.4382 C   0  0  0  0  0  0  0  0  0  0  0  0
  -26.5495  -16.2380   22.2339 C   0  0  0  0  0  0  0  0  0  0  0  0
  -24.4039  -34.1047   26.2879 C   0  0  0  0  0  0  0  0  0  0  0  0
  -26.2602  -14.7454   22.0774 C   0  0  0  0  0  0  0  0  0  0  0  0
  -26.2001  -17.0250   20.9698 C   0  0  0  0  0  0  0  0  0  0  0  0
  -29.2489  -20.4075   19.7612 C   0  0  0  0  0  0  0  0  0  0  0  0
  -26.7724  -20.5736   19.4684 C   0  0  0  0  0  0  0  0  0  0  0  0
  -29.2335  -19.0911   18.9887 C   0  0  0  0  0  0  0  0  0  0  0  0
  -26.8027  -19.2623   18.6910 C   0  0  0  0  0  0  0  0  0  0  0  0
  -26.5444  -15.0056   19.5837 C   0  0  0  0  0  0  0  0  0  0  0  0
  -25.4092  -33.1381   25.6503 C   0  0  1  0  0  0  0  0  0  0  0  0
  -24.8715  -33.1516   21.8895 C   0  0  1  0  0  0  0  0  0  0  0  0
  -26.9402  -14.1801   20.8178 C   0  0  2  0  0  0  0  0  0  0  0  0
  -20.0651  -32.8632   15.8217 C   0  0  0  0  0  0  0  0  0  0  0  0
  -20.4076  -32.0623   22.3876 C   0  0  0  0  0  0  0  0  0  0  0  0
  -19.1189  -31.7934   20.2581 C   0  0  0  0  0  0  0  0  0  0  0  0
  -19.7683  -34.0709   21.0418 C   0  0  0  0  0  0  0  0  0  0  0  0
  -27.3563  -21.7397   14.1305 C   0  0  0  0  0  0  0  0  0  0  0  0
  -23.8672  -32.7717   15.7143 C   0  0  0  0  0  0  0  0  0  0  0  0
  -28.2191  -26.6941   20.4915 C   0  0  0  0  0  0  0  0  0  1  0  0
  -27.9657  -22.8590   16.2787 C   0  0  0  0  0  0  0  0  0  0  0  0
  -29.0613  -22.9336   17.3489 C   0  0  1  0  0  0  0  0  0  0  0  0
  -21.5424  -32.5261   20.1154 C   0  0  1  0  0  0  0  0  0  0  0  0
  -21.4725  -33.0601   16.3631 C   0  0  2  0  0  0  0  0  0  0  0  0
  -20.2351  -32.6015   20.9536 C   0  0  0  0  0  0  0  0  0  0  0  0
  -25.4601  -12.2205   21.0418 N   0  0  0  0  0  0  0  0  0  0  0  0
  -27.7450  -24.4020   21.1183 N   0  0  0  0  0  0  0  0  0  0  0  0
  -27.7086  -23.0663   20.8649 N   0  0  0  0  0  0  0  0  0  0  0  0
  -26.6452  -12.7035   20.6317 N   0  0  0  0  0  0  0  0  0  0  0  0
  -28.0846  -21.2334   19.4234 N   0  0  0  0  0  0  0  0  0  0  0  0
  -23.8186  -32.5265   21.0864 N   0  0  0  0  0  0  0  0  0  0  0  0
  -26.8380  -16.4253   19.7902 N   0  0  0  0  0  0  0  0  0  0  0  0
  -27.9396  -18.4257   19.0807 N   0  0  0  0  0  0  0  0  0  0  0  0
  -28.6898  -12.0772   19.6130 N   0  0  0  0  0  0  0  0  0  0  0  0
  -26.3820   -8.1991   19.7880 N   0  0  0  0  0  0  0  0  0  0  0  0
  -25.4847  -33.3572   24.2218 N   0  0  0  0  0  0  0  0  0  0  0  0
  -21.4156  -33.0550   18.7617 N   0  0  0  0  0  0  0  0  0  0  0  0
  -28.3799  -21.9351   15.1923 N   0  3  0  0  0  0  0  0  0  0  0  0
  -22.4426  -32.6127   15.3240 N   0  3  0  0  0  0  0  0  0  0  0  0
  -28.3653   -9.1585   19.1519 O   0  0  0  0  0  0  0  0  0  0  0  0
  -23.6733  -32.0367   23.5913 O   0  0  0  0  0  0  0  0  0  0  0  0
  -22.5711  -34.4918   20.9546 O   0  0  0  0  0  0  0  0  0  0  0  0
  -22.0440  -31.1089   17.6684 O   0  0  0  0  0  0  0  0  0  0  0  0
  -28.7452  -16.3457   18.4959 O   0  0  0  0  0  0  0  0  0  0  0  0
  -21.2560   -7.5078   21.8571 O   0  0  0  0  0  0  0  0  0  0  0  0
  -26.8934  -27.2080   20.4412 O   0  0  0  0  0  0  0  0  0  1  0  0
  -22.4035   -2.6246   24.1466 F   0  0  0  0  0  0  0  0  0  0  0  0
  -20.2186   -6.8198   24.3256 F   0  0  0  0  0  0  0  0  0  0  0  0
  -30.1020  -23.6523   16.8100 F   0  0  0  0  0  0  0  0  0  0  0  0
  1  2  1  0  0  0  0
  1  5  2  0  0  0  0
  2  6  2  0  0  0  0
  3  8  2  0  0  0  0
  3 16  1  0  0  0  0
  4  9  1  0  0  0  0
  4 16  2  0  0  0  0
  5 18  1  0  0  0  0
  6 20  1  0  0  0  0
  7 10  2  0  0  0  0
  7 19  1  0  0  0  0
  8 23  1  0  0  0  0
  9 23  2  0  0  0  0
 10 24  1  0  0  0  0
 11 12  2  0  0  0  0
 11 25  1  0  0  0  0
 12 26  1  0  0  0  0
 13 21  1  0  0  0  0
 13 24  2  0  0  0  0
 14 22  1  0  0  0  0
 14 29  2  0  0  0  0
 15 26  2  0  0  0  0
 15 27  1  0  0  0  0
 16 28  1  0  0  0  0
 17 28  1  0  0  0  0
 17 31  2  0  0  0  0
 17 32  1  0  0  0  0
 18 20  2  0  0  0  0
 18 37  1  0  0  0  0
 19 21  2  0  0  0  0
 19 38  1  0  0  0  0
 20 50  1  0  0  0  0
 21 39  1  0  0  0  0
 22 30  2  0  0  0  0
 22 61  1  0  0  0  0
 23 84  1  0  0  0  0
 24 85  1  0  0  0  0
 25 27  2  0  0  0  0
 25 84  1  0  0  0  0
 26 86  1  0  0  0  0
 27 87  1  0  0  0  0
 28 65  2  0  0  0  0
 29 59  1  0  0  0  0
 29 66  1  0  0  0  0
 30 67  1  0  0  0  0
 30 69  1  0  0  0  0
 31 68  1  0  0  0  0
 31 73  1  0  0  0  0
 32 74  1  0  0  0  0
 32 79  2  0  0  0  0
 33 51  1  0  0  0  0
 33 75  1  0  0  0  0
 33 80  2  0  0  0  0
 34 62  1  0  0  0  0
 34 70  1  0  0  0  0
 34 81  2  0  0  0  0
 35 63  1  0  0  0  0
 35 76  1  0  0  0  0
 35 82  2  0  0  0  0
 36 71  1  0  0  0  0
 36 72  1  0  0  0  0
 36 83  2  0  0  0  0
 37 40  1  0  0  0  0
 38 51  1  0  0  0  0
 39 70  1  0  0  0  0
 40 42  1  0  0  0  0
 41 43  1  0  0  0  0
 41 44  1  0  0  0  0
 42 50  1  0  0  0  0
 43 52  1  0  0  0  0
 44 71  1  0  0  0  0
 45 47  1  0  0  0  0
 45 69  1  0  0  0  0
 46 48  1  0  0  0  0
 46 69  1  0  0  0  0
 47 72  1  0  0  0  0
 48 72  1  0  0  0  0
 49 52  1  0  0  0  0
 49 71  1  0  0  0  0
 50 75  1  0  0  0  0
 51 70  1  0  0  0  0
 52 68  1  0  0  0  0
 53 63  1  0  0  0  0
 54 64  1  0  0  0  0
 55 64  1  0  0  0  0
 56 64  1  0  0  0  0
 57 77  1  0  0  0  0
 58 78  1  0  0  0  0
 59 85  1  0  0  0  0
 60 61  1  0  0  0  0
 60 77  1  0  0  0  0
 61 88  1  0  0  0  0
 62 64  1  0  0  0  0
 62 76  1  0  0  0  0
 63 78  1  0  0  0  0
 65 68  1  0  0  0  0
 66 67  2  0  0  0  0
M  CHG  2  77   1  78   1
M  ISO  4  36 100  59 101  72 100  85 101
M  END
> <Batch ID>
0184

> <Smiles>
CNCC(F)c1cc([101CH2:1][101O:1]c2ccc3c(c2)CN(C(=O)C(NC(=O)C(C)NC)C(C)(C)C)C(C(=O)NC2CCCc4ccccc42)C3)nnc1N1CC[100N:0]([100C:0](=O)N2CCCC(n3nc(-c4ccc(Oc5ccc(F)cc5F)cc4)c(C(N)=O)c3N)C2)CC1

> <Shape>
0.283

> <Color>
0.084

> <Negative vol penalty>
0.000

$$$$

  -OEChem-04052323103D

 78 86  0     1  0  0  0  0  0999 V2000
  -26.4126  -37.2933   23.2413 C   0  0  0  0  0  0  0  0  0  0  0  0
  -27.1079  -36.1912   22.7544 C   0  0  0  0  0  0  0  0  0  0  0  0
  -27.0704  -12.9169   22.5395 C   0  0  0  0  0  0  0  0  0  0  0  0
  -27.3427  -11.4888   20.6099 C   0  0  0  0  0  0  0  0  0  0  0  0
  -25.2829  -37.1075   24.0371 C   0  0  0  0  0  0  0  0  0  0  0  0
  -26.6746  -34.9024   23.0639 C   0  0  0  0  0  0  0  0  0  0  0  0
  -26.9815  -29.9527   19.4706 C   0  0  0  0  0  0  0  0  0  0  0  0
  -26.1628  -12.0084   23.0839 C   0  0  0  0  0  0  0  0  0  0  0  0
  -26.4352  -10.5802   21.1543 C   0  0  0  0  0  0  0  0  0  0  0  0
  -27.8838  -28.8916   19.4107 C   0  0  0  0  0  0  0  0  0  0  0  0
  -23.0805  -10.2879   21.4571 C   0  0  0  0  0  0  0  0  0  0  0  0
  -22.1004   -9.7662   20.6129 C   0  0  0  0  0  0  0  0  0  0  0  0
  -26.4139  -27.5715   20.7949 C   0  0  0  0  0  0  0  0  0  0  0  0
  -22.9346   -7.5361   21.0223 C   0  0  0  0  0  0  0  0  0  0  0  0
  -27.6603  -12.6572   21.3025 C   0  0  0  0  0  0  0  0  0  0  0  0
  -29.9933  -13.6160   20.9210 C   0  0  0  0  0  0  0  0  0  0  0  0
  -24.8299  -35.8159   24.3486 C   0  0  0  0  0  0  0  0  0  0  0  0
  -25.7917  -29.8348   20.2033 C   0  0  0  0  0  0  0  0  0  0  0  0
  -25.5386  -34.6992   23.8658 C   0  0  0  0  0  0  0  0  0  0  0  0
  -25.4970  -28.6317   20.8604 C   0  0  0  0  0  0  0  0  0  0  0  0
  -25.8452  -10.8400   22.3913 C   0  0  0  0  0  0  0  0  0  0  0  0
  -27.6015  -27.7018   20.0752 C   0  0  0  0  0  0  0  0  0  0  0  0
  -23.9878   -9.4337   22.0839 C   0  0  0  0  0  0  0  0  0  0  0  0
  -22.0274   -8.3904   20.3955 C   0  0  0  0  0  0  0  0  0  0  0  0
  -23.9148   -8.0578   21.8665 C   0  0  0  0  0  0  0  0  0  0  0  0
  -28.5975  -13.5957   20.7393 C   0  0  0  0  0  0  0  0  0  0  0  0
  -30.4200  -14.6930   20.1831 C   0  0  0  0  0  0  0  0  0  0  0  0
  -30.8295  -12.7396   21.6882 C   0  0  0  0  0  0  0  0  0  0  0  0
  -24.5487  -31.3293   22.7183 C   0  0  0  0  0  0  0  0  0  0  0  0
  -21.9623  -29.4924   22.0408 C   0  0  0  0  0  0  0  0  0  0  0  0
  -20.7173  -26.6607   20.5992 C   0  0  0  0  0  0  0  0  0  0  0  0
  -27.5803  -19.6428   18.5824 C   0  0  0  0  0  0  0  0  0  0  0  0
  -23.6313  -35.6650   25.2515 C   0  0  0  0  0  0  0  0  0  0  0  0
  -24.8162  -30.9793   20.2360 C   0  0  0  0  0  0  0  0  0  0  0  0
  -24.2240  -28.4472   21.6439 C   0  0  0  0  0  0  0  0  0  0  0  0
  -23.0200  -34.2666   25.2237 C   0  0  0  0  0  0  0  0  0  0  0  0
  -29.3092  -17.3006   16.3542 C   0  0  0  0  0  0  0  0  0  0  0  0
  -24.1095  -33.2052   25.3394 C   0  0  0  0  0  0  0  0  0  0  0  0
  -29.3924  -16.0618   17.2396 C   0  0  0  0  0  0  0  0  0  0  0  0
  -26.5405  -22.2712   16.7686 C   0  0  0  0  0  0  0  0  0  0  0  0
  -28.0314  -18.1046   16.5976 C   0  0  0  0  0  0  0  0  0  0  0  0
  -27.0970  -20.9082   16.3457 C   0  0  0  0  0  0  0  0  0  0  0  0
  -27.9026  -17.2165   18.9102 C   0  0  0  0  0  0  0  0  0  0  0  0
  -25.0853  -33.2855   24.1592 C   0  0  1  0  0  0  0  0  0  0  0  0
  -23.8757  -30.9287   21.4361 C   0  0  1  0  0  0  0  0  0  0  0  0
  -29.2147  -16.4435   18.7166 C   0  0  1  0  0  0  0  0  0  0  0  0
  -27.3242  -22.1360   18.0831 C   0  0  2  0  0  0  0  0  0  0  0  0
  -18.5696  -25.4131   20.2413 C   0  0  0  0  0  0  0  0  0  0  0  0
  -22.0334  -28.5431   24.9397 C   0  0  0  0  0  0  0  0  0  0  0  0
  -20.5301  -26.6515   24.2841 C   0  0  0  0  0  0  0  0  0  0  0  0
  -19.7427  -29.0069   24.0498 C   0  0  0  0  0  0  0  0  0  0  0  0
  -20.9481  -26.8751   17.6565 C   0  0  0  0  0  0  0  0  0  0  0  0
  -28.6572  -22.8513   18.1816 C   0  0  0  0  0  0  0  0  0  0  0  0
  -29.6556  -25.0994   18.6155 C   0  0  0  0  0  0  0  0  0  0  0  0
  -29.2767  -26.5497   18.8415 C   0  0  0  0  0  0  0  0  0  1  0  0
  -21.4892  -28.1190   22.4518 C   0  0  1  0  0  0  0  0  0  0  0  0
  -19.5371  -26.4383   19.6707 C   0  0  2  0  0  0  0  0  0  0  0  0
  -20.9738  -28.0840   23.9183 C   0  0  0  0  0  0  0  0  0  0  0  0
  -28.1661  -14.5816   19.9482 N   0  0  0  0  0  0  0  0  0  0  0  0
  -29.2975  -15.2315   19.6262 N   0  0  0  0  0  0  0  0  0  0  0  0
  -23.3050  -29.5974   21.6511 N   0  0  0  0  0  0  0  0  0  0  0  0
  -27.8223  -18.3832   18.0234 N   0  0  0  0  0  0  0  0  0  0  0  0
  -27.4955  -20.7240   17.7336 N   0  0  0  0  0  0  0  0  0  0  0  0
  -31.6421  -15.2224   19.9628 N   0  0  0  0  0  0  0  0  0  0  0  0
  -30.2280  -11.6834   22.3860 N   0  0  0  0  0  0  0  0  0  0  0  0
  -24.5012  -32.6855   22.9788 N   0  0  0  0  0  0  0  0  0  0  0  0
  -20.4981  -27.7151   21.4603 N   0  0  0  0  0  0  0  0  0  0  0  0
  -20.0073  -25.9526   18.3426 N   0  3  0  0  0  0  0  0  0  0  0  0
  -28.4178  -24.2894   18.4401 N   0  3  0  0  0  0  0  0  0  0  0  0
  -32.0713  -12.8986   21.7662 O   0  0  0  0  0  0  0  0  0  0  0  0
  -25.0710  -30.4712   23.4202 O   0  0  0  0  0  0  0  0  0  0  0  0
  -21.1678  -30.4359   22.0579 O   0  0  0  0  0  0  0  0  0  0  0  0
  -21.7307  -25.9660   20.5666 O   0  0  0  0  0  0  0  0  0  0  0  0
  -27.4135  -19.7968   19.7995 O   0  0  0  0  0  0  0  0  0  0  0  0
  -24.9598   -9.9531   22.9224 O   0  0  0  0  0  0  0  0  0  0  0  0
  -28.4871  -26.6573   20.0185 O   0  0  0  0  0  0  0  0  0  1  0  0
  -21.0851   -7.8894   19.5859 F   0  0  0  0  0  0  0  0  0  0  0  0
  -24.7829   -7.2321   22.4668 F   0  0  0  0  0  0  0  0  0  0  0  0
  1  2  1  0  0  0  0
  1  5  2  0  0  0  0
  2  6  2  0  0  0  0
  3  8  2  0  0  0  0
  3 15  1  0  0  0  0
  4  9  1  0  0  0  0
  4 15  2  0  0  0  0
  5 17  1  0  0  0  0
  6 19  1  0  0  0  0
  7 10  2  0  0  0  0
  7 18  1  0  0  0  0
  8 21  1  0  0  0  0
  9 21  2  0  0  0  0
 10 22  1  0  0  0  0
 11 12  2  0  0  0  0
 11 23  1  0  0  0  0
 12 24  1  0  0  0  0
 13 20  1  0  0  0  0
 13 22  2  0  0  0  0
 14 24  2  0  0  0  0
 14 25  1  0  0  0  0
 15 26  1  0  0  0  0
 16 26  1  0  0  0  0
 16 27  2  0  0  0  0
 16 28  1  0  0  0  0
 17 19  2  0  0  0  0
 17 33  1  0  0  0  0
 18 20  2  0  0  0  0
 18 34  1  0  0  0  0
 19 44  1  0  0  0  0
 20 35  1  0  0  0  0
 21 75  1  0  0  0  0
 22 76  1  0  0  0  0
 23 25  2  0  0  0  0
 23 75  1  0  0  0  0
 24 77  1  0  0  0  0
 25 78  1  0  0  0  0
 26 59  2  0  0  0  0
 27 60  1  0  0  0  0
 27 64  1  0  0  0  0
 28 65  1  0  0  0  0
 28 70  2  0  0  0  0
 29 45  1  0  0  0  0
 29 66  1  0  0  0  0
 29 71  2  0  0  0  0
 30 56  1  0  0  0  0
 30 61  1  0  0  0  0
 30 72  2  0  0  0  0
 31 57  1  0  0  0  0
 31 67  1  0  0  0  0
 31 73  2  0  0  0  0
 32 62  1  0  0  0  0
 32 63  1  0  0  0  0
 32 74  2  0  0  0  0
 33 36  1  0  0  0  0
 34 45  1  0  0  0  0
 35 61  1  0  0  0  0
 36 38  1  0  0  0  0
 37 39  1  0  0  0  0
 37 41  1  0  0  0  0
 38 44  1  0  0  0  0
 39 46  1  0  0  0  0
 40 42  1  0  0  0  0
 40 47  1  0  0  0  0
 41 62  1  0  0  0  0
 42 63  1  0  0  0  0
 43 46  1  0  0  0  0
 43 62  1  0  0  0  0
 44 66  1  0  0  0  0
 45 61  1  0  0  0  0
 46 60  1  0  0  0  0
 47 53  1  0  0  0  0
 47 63  1  0  0  0  0
 48 57  1  0  0  0  0
 49 58  1  0  0  0  0
 50 58  1  0  0  0  0
 51 58  1  0  0  0  0
 52 68  1  0  0  0  0
 53 69  1  0  0  0  0
 54 55  1  0  0  0  0
 54 69  1  0  0  0  0
 55 76  1  0  0  0  0
 56 58  1  0  0  0  0
 56 67  1  0  0  0  0
 57 68  1  0  0  0  0
 59 60  1  0  0  0  0
M  CHG  2  68   1  69   1
M  ISO  4  32 100  55 101  63 100  76 101
M  END
> <Batch ID>
0184

> <Smiles>
CNC(C)C(=O)NC(C(=O)N1Cc2cc([101O:1][101CH2:1]CNCC3CC[100N:0]3[100C:0](=O)N3CCCC(n4nc(-c5ccc(Oc6ccc(F)cc6F)cc5)c(C(N)=O)c4N)C3)ccc2CC1C(=O)NC1CCCc2ccccc21)C(C)(C)C

> <Shape>
0.307

> <Color>
0.080

> <Negative vol penalty>
0.000

$$$$

  -OEChem-04052323103D

 83 92  0     1  0  0  0  0  0999 V2000
  -31.0485  -19.5017   29.7176 C   0  0  0  0  0  0  0  0  0  0  0  0
  -30.4428  -18.8507   28.6477 C   0  0  0  0  0  0  0  0  0  0  0  0
  -27.2975  -25.8339   17.4406 C   0  0  0  0  0  0  0  0  0  0  0  0
  -28.4551  -26.5395   19.4403 C   0  0  0  0  0  0  0  0  0  0  0  0
  -32.1504  -20.3270   29.4965 C   0  0  0  0  0  0  0  0  0  0  0  0
  -30.9379  -19.0254   27.3559 C   0  0  0  0  0  0  0  0  0  0  0  0
  -31.2897  -14.6654   24.8040 C   0  0  0  0  0  0  0  0  0  0  0  0
  -26.5652  -27.0210   17.4455 C   0  0  0  0  0  0  0  0  0  0  0  0
  -27.7228  -27.7267   19.4453 C   0  0  0  0  0  0  0  0  0  0  0  0
  -30.1117  -14.1412   24.2738 C   0  0  0  0  0  0  0  0  0  0  0  0
  -24.6239  -28.7387   20.3418 C   0  0  0  0  0  0  0  0  0  0  0  0
  -24.0864  -29.1635   21.5567 C   0  0  0  0  0  0  0  0  0  0  0  0
  -30.6987  -15.0279   22.1086 C   0  0  0  0  0  0  0  0  0  0  0  0
  -25.3637  -31.2088   21.4068 C   0  0  0  0  0  0  0  0  0  0  0  0
  -28.2424  -25.5931   18.4380 C   0  0  0  0  0  0  0  0  0  0  0  0
  -30.2344  -24.1322   17.8015 C   0  0  0  0  0  0  0  0  0  0  0  0
  -32.6652  -20.5042   28.2026 C   0  0  0  0  0  0  0  0  0  0  0  0
  -32.1773  -15.3855   23.9915 C   0  0  0  0  0  0  0  0  0  0  0  0
  -32.0469  -19.8548   27.1172 C   0  0  0  0  0  0  0  0  0  0  0  0
  -31.8886  -15.5581   22.6303 C   0  0  0  0  0  0  0  0  0  0  0  0
  -26.7779  -27.9675   18.4478 C   0  0  0  0  0  0  0  0  0  0  0  0
  -29.8146  -14.3248   22.9266 C   0  0  0  0  0  0  0  0  0  0  0  0
  -25.5315  -29.5489   19.6593 C   0  0  0  0  0  0  0  0  0  0  0  0
  -24.4562  -30.3986   22.0892 C   0  0  0  0  0  0  0  0  0  0  0  0
  -25.9013  -30.7840   20.1918 C   0  0  0  0  0  0  0  0  0  0  0  0
  -28.9987  -24.3667   18.4338 C   0  0  0  0  0  0  0  0  0  0  0  0
  -30.5273  -22.8228   18.0950 C   0  0  0  0  0  0  0  0  0  0  0  0
  -31.0451  -25.0187   17.0188 C   0  0  0  0  0  0  0  0  0  0  0  0
  -33.2867  -18.3642   23.9718 C   0  0  0  0  0  0  0  0  0  0  0  0
  -35.1594  -17.2365   21.5751 C   0  0  0  0  0  0  0  0  0  0  0  0
  -35.6278  -14.9272   19.1064 C   0  0  0  0  0  0  0  0  0  0  0  0
  -26.9085  -18.2798   19.4233 C   0  0  0  0  0  0  0  0  0  0  0  0
  -33.8289  -21.4434   28.0068 C   0  0  0  0  0  0  0  0  0  0  0  0
  -33.4568  -15.9217   24.5728 C   0  0  0  0  0  0  0  0  0  0  0  0
  -32.8182  -16.3059   21.7111 C   0  0  0  0  0  0  0  0  0  0  0  0
  -34.5233  -21.2798   26.6573 C   0  0  0  0  0  0  0  0  0  0  0  0
  -29.7951  -19.4603   21.3948 C   0  0  0  0  0  0  0  0  0  0  0  0
  -33.4950  -21.2106   25.5327 C   0  0  0  0  0  0  0  0  0  0  0  0
  -29.9872  -20.8619   20.8231 C   0  0  0  0  0  0  0  0  0  0  0  0
  -24.2434  -12.8000   20.3900 C   0  0  0  0  0  0  0  0  0  0  0  0
  -28.3238  -19.0485   21.4212 C   0  0  0  0  0  0  0  0  0  0  0  0
  -27.8421  -20.5693   19.5239 C   0  0  0  0  0  0  0  0  0  0  0  0
  -24.4741  -15.8461   19.7718 C   0  0  0  0  0  0  0  0  0  0  0  0
  -32.5701  -19.9996   25.7046 C   0  0  1  0  0  0  0  0  0  0  0  0
  -34.0394  -17.0797   23.7684 C   0  0  1  0  0  0  0  0  0  0  0  0
  -26.2630  -12.7126   21.1019 C   0  0  1  0  0  0  0  0  0  0  0  0
  -29.3200  -20.9816   19.4444 C   0  0  1  0  0  0  0  0  0  0  0  0
  -25.5265  -13.5948   20.0554 C   0  0  2  0  0  0  0  0  0  0  0  0
  -25.1667  -11.6433   20.8365 C   0  0  1  0  0  0  0  0  0  0  0  0
  -25.9560  -15.9952   19.4983 C   0  0  1  0  0  0  0  0  0  0  0  0
  -37.2347  -14.2847   17.2891 C   0  0  0  0  0  0  0  0  0  0  0  0
  -28.0687  -11.0607   21.5498 C   0  0  0  0  0  0  0  0  0  0  0  0
  -34.1408  -19.5462   19.8611 C   0  0  0  0  0  0  0  0  0  0  0  0
  -35.0007  -18.3372   17.8444 C   0  0  0  0  0  0  0  0  0  0  0  0
  -36.5849  -19.0714   19.6260 C   0  0  0  0  0  0  0  0  0  0  0  0
  -23.4722  -10.1392   21.8877 C   0  0  0  0  0  0  0  0  0  0  0  0
  -36.1260  -12.2764   20.3245 C   0  0  0  0  0  0  0  0  0  0  0  0
  -28.6861  -13.4373   21.0306 C   0  0  0  0  0  0  0  0  0  1  0  0
  -35.0277  -17.1309   20.0749 C   0  0  1  0  0  0  0  0  0  0  0  0
  -36.8288  -14.0743   18.7396 C   0  0  2  0  0  0  0  0  0  0  0  0
  -27.6844  -12.3123   20.7566 C   0  0  2  0  0  0  0  0  0  0  0  0
  -35.1699  -18.5089   19.3691 C   0  0  0  0  0  0  0  0  0  0  0  0
  -28.5382  -23.2924   19.0801 N   0  0  0  0  0  0  0  0  0  0  0  0
  -29.4895  -22.3701   18.8554 N   0  0  0  0  0  0  0  0  0  0  0  0
  -34.0536  -16.8166   22.3280 N   0  0  0  0  0  0  0  0  0  0  0  0
  -27.6871  -19.2310   20.1072 N   0  0  0  0  0  0  0  0  0  0  0  0
  -31.5687  -22.0260   17.7742 N   0  0  0  0  0  0  0  0  0  0  0  0
  -30.5956  -26.3305   16.8152 N   0  0  0  0  0  0  0  0  0  0  0  0
  -33.2414  -18.7876   25.2863 N   0  0  0  0  0  0  0  0  0  0  0  0
  -36.0069  -16.1371   19.6482 N   0  0  0  0  0  0  0  0  0  0  0  0
  -26.7324  -17.0623   20.0711 N   0  0  0  0  0  0  0  0  0  0  0  0
  -25.4524  -15.0099   20.4354 N   0  3  1  0  0  0  0  0  0  0  0  0
  -24.7069  -10.9659   22.0541 N   0  3  0  0  0  0  0  0  0  0  0  0
  -36.5180  -12.6301   18.9359 N   0  3  0  0  0  0  0  0  0  0  0  0
  -32.1278  -24.6535   16.5013 O   0  0  0  0  0  0  0  0  0  0  0  0
  -32.7856  -18.9300   23.0072 O   0  0  0  0  0  0  0  0  0  0  0  0
  -36.2075  -17.6686   22.0613 O   0  0  0  0  0  0  0  0  0  0  0  0
  -34.4692  -14.5586   18.9265 O   0  0  0  0  0  0  0  0  0  0  0  0
  -26.4010  -18.4994   18.3179 O   0  0  0  0  0  0  0  0  0  0  0  0
  -26.0637  -29.1261   18.4528 O   0  0  0  0  0  0  0  0  0  0  0  0
  -28.6651  -13.8147   22.4066 O   0  0  0  0  0  0  0  0  0  1  0  0
  -23.9387  -30.8071   23.2552 F   0  0  0  0  0  0  0  0  0  0  0  0
  -26.7718  -31.5672   19.5402 F   0  0  0  0  0  0  0  0  0  0  0  0
  1  2  1  0  0  0  0
  1  5  2  0  0  0  0
  2  6  2  0  0  0  0
  3  8  2  0  0  0  0
  3 15  1  0  0  0  0
  4  9  1  0  0  0  0
  4 15  2  0  0  0  0
  5 17  1  0  0  0  0
  6 19  1  0  0  0  0
  7 10  2  0  0  0  0
  7 18  1  0  0  0  0
  8 21  1  0  0  0  0
  9 21  2  0  0  0  0
 10 22  1  0  0  0  0
 11 12  2  0  0  0  0
 11 23  1  0  0  0  0
 12 24  1  0  0  0  0
 13 20  1  0  0  0  0
 13 22  2  0  0  0  0
 14 24  2  0  0  0  0
 14 25  1  0  0  0  0
 15 26  1  0  0  0  0
 16 26  1  0  0  0  0
 16 27  2  0  0  0  0
 16 28  1  0  0  0  0
 17 19  2  0  0  0  0
 17 33  1  0  0  0  0
 18 20  2  0  0  0  0
 18 34  1  0  0  0  0
 19 44  1  0  0  0  0
 20 35  1  0  0  0  0
 21 80  1  0  0  0  0
 22 81  1  0  0  0  0
 23 25  2  0  0  0  0
 23 80  1  0  0  0  0
 24 82  1  0  0  0  0
 25 83  1  0  0  0  0
 26 63  2  0  0  0  0
 27 64  1  0  0  0  0
 27 67  1  0  0  0  0
 28 68  1  0  0  0  0
 28 75  2  0  0  0  0
 29 45  1  0  0  0  0
 29 69  1  0  0  0  0
 29 76  2  0  0  0  0
 30 59  1  0  0  0  0
 30 65  1  0  0  0  0
 30 77  2  0  0  0  0
 31 60  1  0  0  0  0
 31 70  1  0  0  0  0
 31 78  2  0  0  0  0
 32 66  1  0  0  0  0
 32 71  1  0  0  0  0
 32 79  2  0  0  0  0
 33 36  1  0  0  0  0
 34 45  1  0  0  0  0
 35 65  1  0  0  0  0
 36 38  1  0  0  0  0
 37 39  1  0  0  0  0
 37 41  1  0  0  0  0
 38 44  1  0  0  0  0
 39 47  1  0  0  0  0
 40 48  1  0  0  0  0
 40 49  1  0  0  0  0
 41 66  1  0  0  0  0
 42 47  1  0  0  0  0
 42 66  1  0  0  0  0
 43 50  1  0  0  0  0
 43 72  1  0  0  0  0
 44 69  1  0  0  0  0
 45 65  1  0  0  0  0
 46 48  1  0  0  0  0
 46 49  1  0  0  0  0
 46 61  1  0  0  0  0
 47 64  1  0  0  0  0
 48 72  1  0  0  0  0
 49 73  1  0  0  0  0
 50 71  1  0  0  0  0
 50 72  1  0  0  0  0
 51 60  1  0  0  0  0
 52 61  1  0  0  0  0
 53 62  1  0  0  0  0
 54 62  1  0  0  0  0
 55 62  1  0  0  0  0
 56 73  1  0  0  0  0
 57 74  1  0  0  0  0
 58 61  1  0  0  0  0
 58 81  1  0  0  0  0
 59 62  1  0  0  0  0
 59 70  1  0  0  0  0
 60 74  1  0  0  0  0
 63 64  1  0  0  0  0
M  CHG  3  72   1  73   1  74   1
M  ISO  4  32 100  58 101  71 100  81 101
M  END
> <Batch ID>
0184

> <Smiles>
CNC(C)C(=O)NC(C(=O)N1Cc2cc([101O:1][101CH2:1]C(C)C3C(NC)CC3N3CC3[100NH:0][100C:0](=O)N3CCCC(n4nc(-c5ccc(Oc6ccc(F)cc6F)cc5)c(C(N)=O)c4N)C3)ccc2CC1C(=O)NC1CCCc2ccccc21)C(C)(C)C

> <Shape>
0.190

> <Color>
0.065

> <Negative vol penalty>
0.000

$$$$

  -OEChem-04052323103D

 85 94  0     1  0  0  0  0  0999 V2000
  -16.6477  -29.6175   23.9250 C   0  0  0  0  0  0  0  0  0  0  0  0
  -17.2505  -28.4081   23.5945 C   0  0  0  0  0  0  0  0  0  0  0  0
  -24.5990  -13.4358   23.9110 C   0  0  0  0  0  0  0  0  0  0  0  0
  -23.8730  -15.0878   22.3045 C   0  0  0  0  0  0  0  0  0  0  0  0
  -17.2487  -30.8193   23.5528 C   0  0  0  0  0  0  0  0  0  0  0  0
  -18.4542  -28.3997   22.8906 C   0  0  0  0  0  0  0  0  0  0  0  0
  -23.0428  -24.3886   23.4921 C   0  0  0  0  0  0  0  0  0  0  0  0
  -24.1394  -14.2446   24.9504 C   0  0  0  0  0  0  0  0  0  0  0  0
  -23.4134  -15.8966   23.3439 C   0  0  0  0  0  0  0  0  0  0  0  0
  -23.4025  -23.2581   22.7597 C   0  0  0  0  0  0  0  0  0  0  0  0
  -24.7331  -18.0283   25.6122 C   0  0  0  0  0  0  0  0  0  0  0  0
  -25.0403  -19.3879   25.5598 C   0  0  0  0  0  0  0  0  0  0  0  0
  -24.9697  -24.5845   21.4933 C   0  0  0  0  0  0  0  0  0  0  0  0
  -22.6836  -19.9196   25.5395 C   0  0  0  0  0  0  0  0  0  0  0  0
  -24.4658  -13.8575   22.5881 C   0  0  0  0  0  0  0  0  0  0  0  0
  -24.2170  -12.0328   20.8228 C   0  0  0  0  0  0  0  0  0  0  0  0
  -18.4652  -30.8258   22.8524 C   0  0  0  0  0  0  0  0  0  0  0  0
  -23.6370  -25.6299   23.2227 C   0  0  0  0  0  0  0  0  0  0  0  0
  -19.0713  -29.6026   22.5075 C   0  0  0  0  0  0  0  0  0  0  0  0
  -24.6177  -25.7287   22.2254 C   0  0  0  0  0  0  0  0  0  0  0  0
  -28.1538  -20.2465   20.7184 C   0  0  0  0  0  0  0  0  0  0  0  0
  -23.5466  -15.4749   24.6669 C   0  0  0  0  0  0  0  0  0  0  0  0
  -24.3639  -23.3565   21.7582 C   0  0  0  0  0  0  0  0  0  0  0  0
  -23.4011  -17.6144   25.6281 C   0  0  0  0  0  0  0  0  0  0  0  0
  -24.0156  -20.3336   25.5235 C   0  0  0  0  0  0  0  0  0  0  0  0
  -22.3764  -18.5600   25.5918 C   0  0  0  0  0  0  0  0  0  0  0  0
  -24.9409  -13.0228   21.5140 C   0  0  0  0  0  0  0  0  0  0  0  0
  -28.4045  -18.9233   20.4175 C   0  0  0  0  0  0  0  0  0  0  0  0
  -29.1098  -21.1467   20.2942 C   0  0  0  0  0  0  0  0  0  0  0  0
  -25.1086  -11.5334   19.9051 C   0  0  0  0  0  0  0  0  0  0  0  0
  -30.3579  -19.4738   19.3937 C   0  0  0  0  0  0  0  0  0  0  0  0
  -22.8600  -11.6031   20.9948 C   0  0  0  0  0  0  0  0  0  0  0  0
  -22.5743  -28.4587   22.2367 C   0  0  0  0  0  0  0  0  0  0  0  0
  -25.6355  -29.3699   22.8033 C   0  0  0  0  0  0  0  0  0  0  0  0
  -28.9154  -28.4769   23.1057 C   0  0  0  0  0  0  0  0  0  0  0  0
  -27.8139  -15.6113   19.4310 C   0  0  0  0  0  0  0  0  0  0  0  0
  -19.0528  -32.1491   22.4302 C   0  0  0  0  0  0  0  0  0  0  0  0
  -23.2574  -26.8344   24.0397 C   0  0  0  0  0  0  0  0  0  0  0  0
  -25.3002  -27.0340   21.9109 C   0  0  0  0  0  0  0  0  0  0  0  0
  -20.5185  -32.0595   22.0131 C   0  0  0  0  0  0  0  0  0  0  0  0
  -29.5009  -12.7734   20.9164 C   0  0  0  0  0  0  0  0  0  0  0  0
  -20.7350  -30.8769   21.0742 C   0  0  0  0  0  0  0  0  0  0  0  0
  -28.8188  -11.6298   20.1518 C   0  0  0  0  0  0  0  0  0  0  0  0
  -27.3217  -17.3312   22.2943 C   0  0  0  0  0  0  0  0  0  0  0  0
  -29.7063  -14.0009   20.0390 C   0  0  0  0  0  0  0  0  0  0  0  0
  -28.1249  -16.0664   21.9889 C   0  0  0  0  0  0  0  0  0  0  0  0
  -27.9232  -13.3225   18.5066 C   0  0  0  0  0  0  0  0  0  0  0  0
  -20.3897  -29.5527   21.7662 C   0  0  1  0  0  0  0  0  0  0  0  0
  -27.4398  -17.7283   20.8127 C   0  0  2  0  0  0  0  0  0  0  0  0
  -23.5550  -28.1535   23.3334 C   0  0  1  0  0  0  0  0  0  0  0  0
  -27.5790  -12.0620   19.3313 C   0  0  2  0  0  0  0  0  0  0  0  0
  -28.9496  -22.6077   20.5613 C   0  0  0  0  0  0  0  0  0  0  0  0
  -31.5815  -19.0450   18.6577 C   0  0  0  0  0  0  0  0  0  0  0  0
  -31.1897  -29.4470   23.5342 C   0  0  0  0  0  0  0  0  0  0  0  0
  -25.7106  -30.4481   19.9499 C   0  0  0  0  0  0  0  0  0  0  0  0
  -28.2075  -30.5231   20.1181 C   0  0  0  0  0  0  0  0  0  0  0  0
  -26.8137  -31.9150   21.6487 C   0  0  0  0  0  0  0  0  0  0  0  0
  -29.2698  -26.8610   25.5597 C   0  0  0  0  0  0  0  0  0  0  0  0
  -25.7072  -20.0659   21.1736 C   0  0  0  0  0  0  0  0  0  0  0  0
  -24.6262  -20.9935   21.7027 C   0  0  0  0  0  0  0  0  0  1  0  0
  -26.9066  -29.4116   21.9898 C   0  0  1  0  0  0  0  0  0  0  0  0
  -29.9574  -28.8106   24.1580 C   0  0  2  0  0  0  0  0  0  0  0  0
  -26.8955  -30.5501   20.9310 C   0  0  0  0  0  0  0  0  0  0  0  0
  -26.1957  -13.1463   21.0732 N   0  0  0  0  0  0  0  0  0  0  0  0
  -29.5004  -18.5000   19.7541 N   0  0  0  0  0  0  0  0  0  0  0  0
  -30.2281  -20.7938   19.6270 N   0  0  0  0  0  0  0  0  0  0  0  0
  -26.2673  -12.2273   20.0952 N   0  0  0  0  0  0  0  0  0  0  0  0
  -24.8902  -28.1844   22.7331 N   0  0  0  0  0  0  0  0  0  0  0  0
  -28.4571  -14.3740   19.3752 N   0  0  0  0  0  0  0  0  0  0  0  0
  -27.9265  -16.3591   20.5804 N   0  0  0  0  0  0  0  0  0  0  0  0
  -25.0067  -10.5727   18.9622 N   0  0  0  0  0  0  0  0  0  0  0  0
  -22.0834  -12.2223   21.9837 N   0  0  0  0  0  0  0  0  0  0  0  0
  -27.0146  -20.6370   21.4026 N   0  0  0  0  0  0  0  0  0  0  0  0
  -21.4577  -29.1551   22.6582 N   0  0  0  0  0  0  0  0  0  0  0  0
  -28.0024  -29.4982   22.9490 N   0  0  0  0  0  0  0  0  0  0  0  0
  -30.3795  -27.5764   24.8787 N   0  3  0  0  0  0  0  0  0  0  0  0
  -22.3562  -10.6856   20.3035 O   0  0  0  0  0  0  0  0  0  0  0  0
  -22.8137  -28.0911   21.0925 O   0  0  0  0  0  0  0  0  0  0  0  0
  -25.3194  -30.3504   23.4818 O   0  0  0  0  0  0  0  0  0  0  0  0
  -28.9139  -27.4177   22.4822 O   0  0  0  0  0  0  0  0  0  0  0  0
  -27.1271  -16.0314   18.4898 O   0  0  0  0  0  0  0  0  0  0  0  0
  -23.0978  -16.2642   25.6808 O   0  0  0  0  0  0  0  0  0  0  0  0
  -24.7164  -22.2548   21.0414 O   0  0  0  0  0  0  0  0  0  1  0  0
  -24.3108  -21.6392   25.4748 F   0  0  0  0  0  0  0  0  0  0  0  0
  -21.0949  -18.1684   25.6080 F   0  0  0  0  0  0  0  0  0  0  0  0
  1  2  1  0  0  0  0
  1  5  2  0  0  0  0
  2  6  2  0  0  0  0
  3  8  2  0  0  0  0
  3 15  1  0  0  0  0
  4  9  1  0  0  0  0
  4 15  2  0  0  0  0
  5 17  1  0  0  0  0
  6 19  1  0  0  0  0
  7 10  2  0  0  0  0
  7 18  1  0  0  0  0
  8 22  1  0  0  0  0
  9 22  2  0  0  0  0
 10 23  1  0  0  0  0
 11 12  2  0  0  0  0
 11 24  1  0  0  0  0
 12 25  1  0  0  0  0
 13 20  1  0  0  0  0
 13 23  2  0  0  0  0
 14 25  2  0  0  0  0
 14 26  1  0  0  0  0
 15 27  1  0  0  0  0
 16 27  1  0  0  0  0
 16 30  2  0  0  0  0
 16 32  1  0  0  0  0
 17 19  2  0  0  0  0
 17 37  1  0  0  0  0
 18 20  2  0  0  0  0
 18 38  1  0  0  0  0
 19 48  1  0  0  0  0
 20 39  1  0  0  0  0
 21 28  2  0  0  0  0
 21 29  1  0  0  0  0
 21 73  1  0  0  0  0
 22 82  1  0  0  0  0
 23 83  1  0  0  0  0
 24 26  2  0  0  0  0
 24 82  1  0  0  0  0
 25 84  1  0  0  0  0
 26 85  1  0  0  0  0
 27 64  2  0  0  0  0
 28 49  1  0  0  0  0
 28 65  1  0  0  0  0
 29 52  1  0  0  0  0
 29 66  2  0  0  0  0
 30 67  1  0  0  0  0
 30 71  1  0  0  0  0
 31 53  1  0  0  0  0
 31 65  2  0  0  0  0
 31 66  1  0  0  0  0
 32 72  1  0  0  0  0
 32 77  2  0  0  0  0
 33 50  1  0  0  0  0
 33 74  1  0  0  0  0
 33 78  2  0  0  0  0
 34 61  1  0  0  0  0
 34 68  1  0  0  0  0
 34 79  2  0  0  0  0
 35 62  1  0  0  0  0
 35 75  1  0  0  0  0
 35 80  2  0  0  0  0
 36 69  1  0  0  0  0
 36 70  1  0  0  0  0
 36 81  2  0  0  0  0
 37 40  1  0  0  0  0
 38 50  1  0  0  0  0
 39 68  1  0  0  0  0
 40 42  1  0  0  0  0
 41 43  1  0  0  0  0
 41 45  1  0  0  0  0
 42 48  1  0  0  0  0
 43 51  1  0  0  0  0
 44 46  1  0  0  0  0
 44 49  1  0  0  0  0
 45 69  1  0  0  0  0
 46 70  1  0  0  0  0
 47 51  1  0  0  0  0
 47 69  1  0  0  0  0
 48 74  1  0  0  0  0
 49 70  1  0  0  0  0
 50 68  1  0  0  0  0
 51 67  1  0  0  0  0
 54 62  1  0  0  0  0
 55 63  1  0  0  0  0
 56 63  1  0  0  0  0
 57 63  1  0  0  0  0
 58 76  1  0  0  0  0
 59 60  1  0  0  0  0
 59 73  1  0  0  0  0
 60 83  1  0  0  0  0
 61 63  1  0  0  0  0
 61 75  1  0  0  0  0
 62 76  1  0  0  0  0
 64 67  1  0  0  0  0
M  CHG  1  76   1
M  ISO  4  36 100  60 101  70 100  83 101
M  END
> <Batch ID>
0184

> <Smiles>
CNC(C)C(=O)NC(C(=O)N1Cc2cc([101O:1][101CH2:1]CNc3c(C)nc(C)nc3C3CC[100N:0]3[100C:0](=O)N3CCCC(n4nc(-c5ccc(Oc6ccc(F)cc6F)cc5)c(C(N)=O)c4N)C3)ccc2CC1C(=O)NC1CCCc2ccccc21)C(C)(C)C

> <Shape>
0.217

> <Color>
0.096

> <Negative vol penalty>
0.000

$$$$

  -OEChem-04052323103D

 84 93  0     1  0  0  0  0  0999 V2000
  -28.3057  -37.4371   20.3911 C   0  0  0  0  0  0  0  0  0  0  0  0
  -28.7102  -36.1222   20.1837 C   0  0  0  0  0  0  0  0  0  0  0  0
  -24.2345   -9.4431   21.4737 C   0  0  0  0  0  0  0  0  0  0  0  0
  -23.7908   -8.6464   19.2364 C   0  0  0  0  0  0  0  0  0  0  0  0
  -27.3354  -37.7236   21.3504 C   0  0  0  0  0  0  0  0  0  0  0  0
  -28.1454  -35.0932   20.9364 C   0  0  0  0  0  0  0  0  0  0  0  0
  -26.9646  -29.3831   19.0641 C   0  0  0  0  0  0  0  0  0  0  0  0
  -23.1945   -8.6520   21.9617 C   0  0  0  0  0  0  0  0  0  0  0  0
  -22.7509   -7.8552   19.7244 C   0  0  0  0  0  0  0  0  0  0  0  0
  -27.6582  -28.1834   19.2173 C   0  0  0  0  0  0  0  0  0  0  0  0
  -22.6915   -5.3992   22.7360 C   0  0  0  0  0  0  0  0  0  0  0  0
  -22.9287   -4.6588   23.8940 C   0  0  0  0  0  0  0  0  0  0  0  0
  -26.2914  -27.6444   21.1305 C   0  0  0  0  0  0  0  0  0  0  0  0
  -21.1286   -5.8237   25.0075 C   0  0  0  0  0  0  0  0  0  0  0  0
  -28.4348  -22.9843   20.7228 C   0  0  0  0  0  0  0  0  0  0  0  0
  -24.5326   -9.4404   20.1110 C   0  0  0  0  0  0  0  0  0  0  0  0
  -26.9591   -9.8937   19.4675 C   0  0  0  0  0  0  0  0  0  0  0  0
  -26.7514  -36.6965   22.1085 C   0  0  0  0  0  0  0  0  0  0  0  0
  -25.9347  -29.7280   19.9511 C   0  0  0  0  0  0  0  0  0  0  0  0
  -27.1673  -35.3664   21.9077 C   0  0  0  0  0  0  0  0  0  0  0  0
  -25.5845  -28.8479   20.9849 C   0  0  0  0  0  0  0  0  0  0  0  0
  -22.4527   -7.8580   21.0871 C   0  0  0  0  0  0  0  0  0  0  0  0
  -27.3236  -27.3152   20.2524 C   0  0  0  0  0  0  0  0  0  0  0  0
  -21.6728   -6.3519   22.7137 C   0  0  0  0  0  0  0  0  0  0  0  0
  -22.1472   -4.8710   25.0298 C   0  0  0  0  0  0  0  0  0  0  0  0
  -20.8914   -6.5641   23.8494 C   0  0  0  0  0  0  0  0  0  0  0  0
  -25.6064  -10.2579   19.6063 C   0  0  0  0  0  0  0  0  0  0  0  0
  -28.4594  -24.1126   21.5643 C   0  0  0  0  0  0  0  0  0  0  0  0
  -29.4290  -22.1712   21.2096 C   0  0  0  0  0  0  0  0  0  0  0  0
  -27.5643  -11.0121   18.9483 C   0  0  0  0  0  0  0  0  0  0  0  0
  -27.6105   -8.6552   19.7799 C   0  0  0  0  0  0  0  0  0  0  0  0
  -25.4524  -32.0953   22.0167 C   0  0  0  0  0  0  0  0  0  0  0  0
  -22.5256  -30.7267   22.3045 C   0  0  0  0  0  0  0  0  0  0  0  0
  -20.5927  -27.9303   22.0032 C   0  0  0  0  0  0  0  0  0  0  0  0
  -28.4747  -16.2978   18.7523 C   0  0  0  0  0  0  0  0  0  0  0  0
  -25.7405  -37.0604   23.1669 C   0  0  0  0  0  0  0  0  0  0  0  0
  -25.1783  -31.0134   19.7561 C   0  0  0  0  0  0  0  0  0  0  0  0
  -24.4732  -29.1622   21.9517 C   0  0  0  0  0  0  0  0  0  0  0  0
  -24.9209  -35.8710   23.6609 C   0  0  0  0  0  0  0  0  0  0  0  0
  -25.5903  -15.2541   17.0436 C   0  0  0  0  0  0  0  0  0  0  0  0
  -25.8295  -34.6813   23.9538 C   0  0  0  0  0  0  0  0  0  0  0  0
  -25.4408  -13.8193   17.5488 C   0  0  0  0  0  0  0  0  0  0  0  0
  -28.0420  -19.5162   20.1098 C   0  0  0  0  0  0  0  0  0  0  0  0
  -30.3703  -19.1628   19.2032 C   0  0  0  0  0  0  0  0  0  0  0  0
  -26.0124  -16.2131   18.1581 C   0  0  0  0  0  0  0  0  0  0  0  0
  -27.4910  -18.6215   18.9956 C   0  0  0  0  0  0  0  0  0  0  0  0
  -29.7723  -18.3014   18.0944 C   0  0  0  0  0  0  0  0  0  0  0  0
  -27.0796  -14.3535   19.3917 C   0  0  0  0  0  0  0  0  0  0  0  0
  -26.5601  -34.2201   22.6870 C   0  0  1  0  0  0  0  0  0  0  0  0
  -24.4903  -31.5006   21.0276 C   0  0  1  0  0  0  0  0  0  0  0  0
  -26.7127  -13.3564   18.2816 C   0  0  1  0  0  0  0  0  0  0  0  0
  -29.3494  -20.1935   19.6923 C   0  0  0  0  0  0  0  0  0  0  0  0
  -18.2458  -27.1113   22.3477 C   0  0  0  0  0  0  0  0  0  0  0  0
  -23.0014  -30.6381   25.3171 C   0  0  0  0  0  0  0  0  0  0  0  0
  -21.1188  -28.9972   25.4958 C   0  0  0  0  0  0  0  0  0  0  0  0
  -20.6856  -31.3021   24.6457 C   0  0  0  0  0  0  0  0  0  0  0  0
  -31.0533  -22.3967   23.1192 C   0  0  0  0  0  0  0  0  0  0  0  0
  -20.2841  -27.2551   19.1383 C   0  0  0  0  0  0  0  0  0  0  0  0
  -27.5974  -25.3043   21.4922 C   0  0  0  0  0  0  0  0  0  1  0  0
  -21.9283  -29.6552   23.1843 C   0  0  1  0  0  0  0  0  0  0  0  0
  -19.2358  -27.7082   21.3597 C   0  0  2  0  0  0  0  0  0  0  0  0
  -21.7058  -30.1428   24.6439 C   0  0  0  0  0  0  0  0  0  0  0  0
  -25.3659  -11.5098   19.2076 N   0  0  0  0  0  0  0  0  0  0  0  0
  -29.3950  -24.0275   22.5138 N   0  0  0  0  0  0  0  0  0  0  0  0
  -26.5758  -11.9420   18.8133 N   0  0  0  0  0  0  0  0  0  0  0  0
  -29.9674  -22.8359   22.2719 N   0  0  0  0  0  0  0  0  0  0  0  0
  -23.7675  -30.4339   21.7234 N   0  0  0  0  0  0  0  0  0  0  0  0
  -27.2050  -15.7098   18.8537 N   0  0  0  0  0  0  0  0  0  0  0  0
  -28.5191  -17.6816   18.5263 N   0  0  0  0  0  0  0  0  0  0  0  0
  -28.8402  -11.2809   18.5988 N   0  0  0  0  0  0  0  0  0  0  0  0
  -26.8400   -7.6093   20.3060 N   0  0  0  0  0  0  0  0  0  0  0  0
  -29.8932  -20.9299   20.8121 N   0  0  0  0  0  0  0  0  0  0  0  0
  -25.6721  -33.4486   21.8439 N   0  0  0  0  0  0  0  0  0  0  0  0
  -20.7136  -29.2058   22.5128 N   0  0  0  0  0  0  0  0  0  0  0  0
  -19.3584  -26.7812   20.1992 N   0  3  0  0  0  0  0  0  0  0  0  0
  -28.8423   -8.4867   19.6133 O   0  0  0  0  0  0  0  0  0  0  0  0
  -25.9569  -31.3798   22.8741 O   0  0  0  0  0  0  0  0  0  0  0  0
  -21.9095  -31.7815   22.1332 O   0  0  0  0  0  0  0  0  0  0  0  0
  -21.4573  -27.0582   22.0524 O   0  0  0  0  0  0  0  0  0  0  0  0
  -29.5084  -15.6259   18.8576 O   0  0  0  0  0  0  0  0  0  0  0  0
  -21.4380   -7.0856   21.5629 O   0  0  0  0  0  0  0  0  0  0  0  0
  -28.0027  -26.1383   20.4053 O   0  0  0  0  0  0  0  0  0  1  0  0
  -22.3741   -4.1589   26.1413 F   0  0  0  0  0  0  0  0  0  0  0  0
  -19.9106   -7.4772   23.8336 F   0  0  0  0  0  0  0  0  0  0  0  0
  1  2  1  0  0  0  0
  1  5  2  0  0  0  0
  2  6  2  0  0  0  0
  3  8  2  0  0  0  0
  3 16  1  0  0  0  0
  4  9  1  0  0  0  0
  4 16  2  0  0  0  0
  5 18  1  0  0  0  0
  6 20  1  0  0  0  0
  7 10  2  0  0  0  0
  7 19  1  0  0  0  0
  8 22  1  0  0  0  0
  9 22  2  0  0  0  0
 10 23  1  0  0  0  0
 11 12  2  0  0  0  0
 11 24  1  0  0  0  0
 12 25  1  0  0  0  0
 13 21  1  0  0  0  0
 13 23  2  0  0  0  0
 14 25  2  0  0  0  0
 14 26  1  0  0  0  0
 15 28  1  0  0  0  0
 15 29  2  0  0  0  0
 16 27  1  0  0  0  0
 17 27  1  0  0  0  0
 17 30  2  0  0  0  0
 17 31  1  0  0  0  0
 18 20  2  0  0  0  0
 18 36  1  0  0  0  0
 19 21  2  0  0  0  0
 19 37  1  0  0  0  0
 20 49  1  0  0  0  0
 21 38  1  0  0  0  0
 22 81  1  0  0  0  0
 23 82  1  0  0  0  0
 24 26  2  0  0  0  0
 24 81  1  0  0  0  0
 25 83  1  0  0  0  0
 26 84  1  0  0  0  0
 27 63  2  0  0  0  0
 28 59  1  0  0  0  0
 28 64  2  0  0  0  0
 29 66  1  0  0  0  0
 29 72  1  0  0  0  0
 30 65  1  0  0  0  0
 30 70  1  0  0  0  0
 31 71  1  0  0  0  0
 31 76  2  0  0  0  0
 32 50  1  0  0  0  0
 32 73  1  0  0  0  0
 32 77  2  0  0  0  0
 33 60  1  0  0  0  0
 33 67  1  0  0  0  0
 33 78  2  0  0  0  0
 34 61  1  0  0  0  0
 34 74  1  0  0  0  0
 34 79  2  0  0  0  0
 35 68  1  0  0  0  0
 35 69  1  0  0  0  0
 35 80  2  0  0  0  0
 36 39  1  0  0  0  0
 37 50  1  0  0  0  0
 38 67  1  0  0  0  0
 39 41  1  0  0  0  0
 40 42  1  0  0  0  0
 40 45  1  0  0  0  0
 41 49  1  0  0  0  0
 42 51  1  0  0  0  0
 43 46  1  0  0  0  0
 43 52  1  0  0  0  0
 44 47  1  0  0  0  0
 44 52  1  0  0  0  0
 45 68  1  0  0  0  0
 46 69  1  0  0  0  0
 47 69  1  0  0  0  0
 48 51  1  0  0  0  0
 48 68  1  0  0  0  0
 49 73  1  0  0  0  0
 50 67  1  0  0  0  0
 51 65  1  0  0  0  0
 52 72  1  0  0  0  0
 53 61  1  0  0  0  0
 54 62  1  0  0  0  0
 55 62  1  0  0  0  0
 56 62  1  0  0  0  0
 57 66  1  0  0  0  0
 58 75  1  0  0  0  0
 59 82  1  0  0  0  0
 60 62  1  0  0  0  0
 60 74  1  0  0  0  0
 61 75  1  0  0  0  0
 63 65  1  0  0  0  0
 64 66  1  0  0  0  0
M  CHG  1  75   1
M  ISO  4  35 100  59 101  69 100  82 101
M  END
> <Batch ID>
0184

> <Smiles>
CNC(C)C(=O)NC(C(=O)N1Cc2cc([101O:1][101CH2:1]c3cc(NC4CC[100N:0]([100C:0](=O)N5CCCC(n6nc(-c7ccc(Oc8ccc(F)cc8F)cc7)c(C(N)=O)c6N)C5)CC4)n(C)n3)ccc2CC1C(=O)NC1CCCc2ccccc21)C(C)(C)C

> <Shape>
0.299

> <Color>
0.097

> <Negative vol penalty>
0.000

$$$$

  -OEChem-04052323103D

 84 93  0     1  0  0  0  0  0999 V2000
  -25.9772  -34.3266   14.8867 C   0  0  0  0  0  0  0  0  0  0  0  0
  -26.4962  -33.1757   15.4710 C   0  0  0  0  0  0  0  0  0  0  0  0
  -22.0981  -10.9543   22.6337 C   0  0  0  0  0  0  0  0  0  0  0  0
  -21.5137  -10.8994   20.2901 C   0  0  0  0  0  0  0  0  0  0  0  0
  -25.5898  -35.3999   15.6879 C   0  0  0  0  0  0  0  0  0  0  0  0
  -26.6293  -33.0978   16.8569 C   0  0  0  0  0  0  0  0  0  0  0  0
  -25.0302  -28.6672   18.7163 C   0  0  0  0  0  0  0  0  0  0  0  0
  -21.3634   -9.7875   22.8443 C   0  0  0  0  0  0  0  0  0  0  0  0
  -20.7790   -9.7325   20.5006 C   0  0  0  0  0  0  0  0  0  0  0  0
  -25.8846  -27.5740   18.5801 C   0  0  0  0  0  0  0  0  0  0  0  0
  -21.7701   -6.4661   22.3588 C   0  0  0  0  0  0  0  0  0  0  0  0
  -22.3524   -5.4647   23.1358 C   0  0  0  0  0  0  0  0  0  0  0  0
  -26.5988  -27.8549   20.8671 C   0  0  0  0  0  0  0  0  0  0  0  0
  -20.5231   -5.6197   24.7065 C   0  0  0  0  0  0  0  0  0  0  0  0
  -28.1261  -21.2669   19.3034 C   0  0  0  0  0  0  0  0  0  0  0  0
  -22.1732  -11.5103   21.3566 C   0  0  0  0  0  0  0  0  0  0  0  0
  -24.2936  -12.8133   20.7965 C   0  0  0  0  0  0  0  0  0  0  0  0
  -25.7092  -35.3314   17.0849 C   0  0  0  0  0  0  0  0  0  0  0  0
  -24.9616  -29.3705   19.9276 C   0  0  0  0  0  0  0  0  0  0  0  0
  -26.2445  -34.1718   17.6774 C   0  0  0  0  0  0  0  0  0  0  0  0
  -25.7408  -28.9552   21.0169 C   0  0  0  0  0  0  0  0  0  0  0  0
  -20.7039   -9.1766   21.7777 C   0  0  0  0  0  0  0  0  0  0  0  0
  -26.6711  -27.1694   19.6547 C   0  0  0  0  0  0  0  0  0  0  0  0
  -20.5643   -7.0443   22.7557 C   0  0  0  0  0  0  0  0  0  0  0  0
  -21.7289   -5.0415   24.3096 C   0  0  0  0  0  0  0  0  0  0  0  0
  -19.9408   -6.6211   23.9295 C   0  0  0  0  0  0  0  0  0  0  0  0
  -22.9315  -12.7159   21.1386 C   0  0  0  0  0  0  0  0  0  0  0  0
  -28.0917  -19.9845   18.7947 C   0  0  0  0  0  0  0  0  0  0  0  0
  -26.9842  -22.0170   19.1093 C   0  0  0  0  0  0  0  0  0  0  0  0
  -24.5291  -14.1634   20.7053 C   0  0  0  0  0  0  0  0  0  0  0  0
  -25.9774  -20.2946   18.0199 C   0  0  0  0  0  0  0  0  0  0  0  0
  -25.2596  -11.7761   20.5804 C   0  0  0  0  0  0  0  0  0  0  0  0
  -25.5801  -32.3560   20.8262 C   0  0  0  0  0  0  0  0  0  0  0  0
  -24.3399  -31.3498   23.6496 C   0  0  0  0  0  0  0  0  0  0  0  0
  -23.6484  -28.7482   25.7473 C   0  0  0  0  0  0  0  0  0  0  0  0
  -23.0320  -19.2599   18.9938 C   0  0  0  0  0  0  0  0  0  0  0  0
  -25.3213  -36.5353   17.9065 C   0  0  0  0  0  0  0  0  0  0  0  0
  -24.0152  -30.5312   20.0666 C   0  0  0  0  0  0  0  0  0  0  0  0
  -25.6891  -29.6638   22.3449 C   0  0  0  0  0  0  0  0  0  0  0  0
  -25.1458  -36.2284   19.3915 C   0  0  0  0  0  0  0  0  0  0  0  0
  -21.6676  -18.1041   22.0726 C   0  0  0  0  0  0  0  0  0  0  0  0
  -26.3115  -35.3888   19.9045 C   0  0  0  0  0  0  0  0  0  0  0  0
  -29.1209  -17.7643   19.6225 C   0  0  0  0  0  0  0  0  0  0  0  0
  -29.8295  -18.8662   20.3464 C   0  0  0  0  0  0  0  0  0  0  0  0
  -21.9816  -16.6070   22.0727 C   0  0  0  0  0  0  0  0  0  0  0  0
  -21.3297  -18.6097   20.6718 C   0  0  0  0  0  0  0  0  0  0  0  0
  -22.6530  -16.8037   19.6418 C   0  0  0  0  0  0  0  0  0  0  0  0
  -26.3812  -34.0398   19.1788 C   0  0  1  0  0  0  0  0  0  0  0  0
  -29.2868  -19.1078   18.9624 C   0  0  0  0  0  0  0  0  0  0  0  0
  -24.4063  -31.4902   21.1868 C   0  0  1  0  0  0  0  0  0  0  0  0
  -23.0544  -16.2589   21.0232 C   0  0  2  0  0  0  0  0  0  0  0  0
  -22.6659  -28.2418   28.0002 C   0  0  0  0  0  0  0  0  0  0  0  0
  -26.8916  -32.3563   24.9860 C   0  0  0  0  0  0  0  0  0  0  0  0
  -26.2869  -31.0013   27.0026 C   0  0  0  0  0  0  0  0  0  0  0  0
  -24.7893  -32.8480   26.2480 C   0  0  0  0  0  0  0  0  0  0  0  0
  -21.5082  -27.0790   24.5675 C   0  0  0  0  0  0  0  0  0  0  0  0
  -24.7841  -19.7547   17.3072 C   0  0  0  0  0  0  0  0  0  0  0  0
  -28.0940  -23.9044   20.3059 C   0  0  0  0  0  0  0  0  0  0  0  0
  -27.7684  -25.3357   20.6986 C   0  0  0  0  0  0  0  0  0  1  0  0
  -24.9018  -30.7134   24.8979 C   0  0  1  0  0  0  0  0  0  0  0  0
  -22.3900  -28.3770   26.5108 C   0  0  2  0  0  0  0  0  0  0  0  0
  -25.7200  -31.7174   25.7581 C   0  0  0  0  0  0  0  0  0  0  0  0
  -22.3430  -13.9091   21.2569 N   0  0  0  0  0  0  0  0  0  0  0  0
  -27.0299  -19.4641   18.1451 N   0  0  0  0  0  0  0  0  0  0  0  0
  -25.8875  -21.5609   18.4694 N   0  0  0  0  0  0  0  0  0  0  0  0
  -23.3401  -14.7690   20.9877 N   0  0  0  0  0  0  0  0  0  0  0  0
  -24.7528  -30.7968   22.4292 N   0  0  0  0  0  0  0  0  0  0  0  0
  -22.3875  -18.2485   19.7250 N   0  0  0  0  0  0  0  0  0  0  0  0
  -25.6351  -14.8797   20.4120 N   0  0  0  0  0  0  0  0  0  0  0  0
  -24.8496  -10.4426   20.7147 N   0  0  0  0  0  0  0  0  0  0  0  0
  -26.9787  -23.3102   19.6051 N   0  0  0  0  0  0  0  0  0  0  0  0
  -25.3815  -33.1328   19.7007 N   0  0  0  0  0  0  0  0  0  0  0  0
  -23.7696  -30.1133   25.5953 N   0  0  0  0  0  0  0  0  0  0  0  0
  -24.0269  -18.8320   18.1232 N   0  0  0  0  0  0  0  0  0  0  0  0
  -21.8460  -27.0814   26.0142 N   0  3  0  0  0  0  0  0  0  0  0  0
  -26.4551  -12.0248   20.2933 O   0  0  0  0  0  0  0  0  0  0  0  0
  -26.5906  -32.3230   21.5187 O   0  0  0  0  0  0  0  0  0  0  0  0
  -23.5577  -32.2979   23.7538 O   0  0  0  0  0  0  0  0  0  0  0  0
  -24.4463  -27.9112   25.3309 O   0  0  0  0  0  0  0  0  0  0  0  0
  -22.7459  -20.4562   19.1121 O   0  0  0  0  0  0  0  0  0  0  0  0
  -19.9870   -8.0378   21.9828 O   0  0  0  0  0  0  0  0  0  0  0  0
  -27.5064  -26.1030   19.5243 O   0  0  0  0  0  0  0  0  0  1  0  0
  -22.2875   -4.0788   25.0549 F   0  0  0  0  0  0  0  0  0  0  0  0
  -18.7818   -7.1721   24.3153 F   0  0  0  0  0  0  0  0  0  0  0  0
  1  2  1  0  0  0  0
  1  5  2  0  0  0  0
  2  6  2  0  0  0  0
  3  8  2  0  0  0  0
  3 16  1  0  0  0  0
  4  9  1  0  0  0  0
  4 16  2  0  0  0  0
  5 18  1  0  0  0  0
  6 20  1  0  0  0  0
  7 10  2  0  0  0  0
  7 19  1  0  0  0  0
  8 22  1  0  0  0  0
  9 22  2  0  0  0  0
 10 23  1  0  0  0  0
 11 12  2  0  0  0  0
 11 24  1  0  0  0  0
 12 25  1  0  0  0  0
 13 21  1  0  0  0  0
 13 23  2  0  0  0  0
 14 25  2  0  0  0  0
 14 26  1  0  0  0  0
 15 28  2  0  0  0  0
 15 29  1  0  0  0  0
 16 27  1  0  0  0  0
 17 27  1  0  0  0  0
 17 30  2  0  0  0  0
 17 32  1  0  0  0  0
 18 20  2  0  0  0  0
 18 37  1  0  0  0  0
 19 21  2  0  0  0  0
 19 38  1  0  0  0  0
 20 48  1  0  0  0  0
 21 39  1  0  0  0  0
 22 81  1  0  0  0  0
 23 82  1  0  0  0  0
 24 26  2  0  0  0  0
 24 81  1  0  0  0  0
 25 83  1  0  0  0  0
 26 84  1  0  0  0  0
 27 63  2  0  0  0  0
 28 49  1  0  0  0  0
 28 64  1  0  0  0  0
 29 65  2  0  0  0  0
 29 71  1  0  0  0  0
 30 66  1  0  0  0  0
 30 69  1  0  0  0  0
 31 57  1  0  0  0  0
 31 64  2  0  0  0  0
 31 65  1  0  0  0  0
 32 70  1  0  0  0  0
 32 76  2  0  0  0  0
 33 50  1  0  0  0  0
 33 72  1  0  0  0  0
 33 77  2  0  0  0  0
 34 60  1  0  0  0  0
 34 67  1  0  0  0  0
 34 78  2  0  0  0  0
 35 61  1  0  0  0  0
 35 73  1  0  0  0  0
 35 79  2  0  0  0  0
 36 68  1  0  0  0  0
 36 74  1  0  0  0  0
 36 80  2  0  0  0  0
 37 40  1  0  0  0  0
 38 50  1  0  0  0  0
 39 67  1  0  0  0  0
 40 42  1  0  0  0  0
 41 45  1  0  0  0  0
 41 46  1  0  0  0  0
 42 48  1  0  0  0  0
 43 44  1  0  0  0  0
 43 49  1  0  0  0  0
 44 49  1  0  0  0  0
 45 51  1  0  0  0  0
 46 68  1  0  0  0  0
 47 51  1  0  0  0  0
 47 68  1  0  0  0  0
 48 72  1  0  0  0  0
 50 67  1  0  0  0  0
 51 66  1  0  0  0  0
 52 61  1  0  0  0  0
 53 62  1  0  0  0  0
 54 62  1  0  0  0  0
 55 62  1  0  0  0  0
 56 75  1  0  0  0  0
 57 74  1  0  0  0  0
 58 59  1  0  0  0  0
 58 71  1  0  0  0  0
 59 82  1  0  0  0  0
 60 62  1  0  0  0  0
 60 73  1  0  0  0  0
 61 75  1  0  0  0  0
 63 66  1  0  0  0  0
M  CHG  1  75   1
M  ISO  4  36 100  59 101  74 100  82 101
M  END
> <Batch ID>
0184

> <Smiles>
CNC(C)C(=O)NC(C(=O)N1Cc2cc([101O:1][101CH2:1]CNc3cc(C4CC4)nc(C[100NH:0][100C:0](=O)N4CCCC(n5nc(-c6ccc(Oc7ccc(F)cc7F)cc6)c(C(N)=O)c5N)C4)n3)ccc2CC1C(=O)NC1CCCc2ccccc21)C(C)(C)C

> <Shape>
0.237

> <Color>
0.129

> <Negative vol penalty>
0.000

$$$$

  -OEChem-04052323103D

 81 90  0     1  0  0  0  0  0999 V2000
  -17.7053  -26.0055   23.4686 C   0  0  0  0  0  0  0  0  0  0  0  0
  -18.9599  -25.6171   23.0099 C   0  0  0  0  0  0  0  0  0  0  0  0
  -26.2334  -11.5162   20.7366 C   0  0  0  0  0  0  0  0  0  0  0  0
  -25.6777  -11.8393   23.0655 C   0  0  0  0  0  0  0  0  0  0  0  0
  -17.2953  -27.3314   23.3351 C   0  0  0  0  0  0  0  0  0  0  0  0
  -19.8049  -26.5542   22.4164 C   0  0  0  0  0  0  0  0  0  0  0  0
  -25.9147  -26.7560   22.7842 C   0  0  0  0  0  0  0  0  0  0  0  0
  -26.4362  -10.1567   20.9736 C   0  0  0  0  0  0  0  0  0  0  0  0
  -25.8805  -10.4798   23.3025 C   0  0  0  0  0  0  0  0  0  0  0  0
  -26.9211  -26.3243   21.9213 C   0  0  0  0  0  0  0  0  0  0  0  0
  -24.1877   -7.5922   22.8369 C   0  0  0  0  0  0  0  0  0  0  0  0
  -23.2392   -6.9221   23.6095 C   0  0  0  0  0  0  0  0  0  0  0  0
  -27.0842  -28.5507   21.0072 C   0  0  0  0  0  0  0  0  0  0  0  0
  -24.9495   -6.3586   25.2203 C   0  0  0  0  0  0  0  0  0  0  0  0
  -25.8542  -12.3575   21.7825 C   0  0  0  0  0  0  0  0  0  0  0  0
  -24.4419  -14.3900   21.1645 C   0  0  0  0  0  0  0  0  0  0  0  0
  -18.1395  -28.2873   22.7484 C   0  0  0  0  0  0  0  0  0  0  0  0
  -25.4772  -28.0880   22.7575 C   0  0  0  0  0  0  0  0  0  0  0  0
  -19.4053  -27.8938   22.2737 C   0  0  0  0  0  0  0  0  0  0  0  0
  -26.0738  -28.9974   21.8726 C   0  0  0  0  0  0  0  0  0  0  0  0
  -26.2598   -9.6385   22.2565 C   0  0  0  0  0  0  0  0  0  0  0  0
  -27.5040  -27.2210   21.0307 C   0  0  0  0  0  0  0  0  0  0  0  0
  -25.5171   -7.6455   23.2559 C   0  0  0  0  0  0  0  0  0  0  0  0
  -23.6201   -6.3053   24.8012 C   0  0  0  0  0  0  0  0  0  0  0  0
  -25.8980   -7.0287   24.4476 C   0  0  0  0  0  0  0  0  0  0  0  0
  -25.6451  -13.7621   21.5385 C   0  0  0  0  0  0  0  0  0  0  0  0
  -24.7673  -15.7202   21.0584 C   0  0  0  0  0  0  0  0  0  0  0  0
  -23.1459  -13.8218   20.9336 C   0  0  0  0  0  0  0  0  0  0  0  0
  -22.7152  -29.5295   22.1271 C   0  0  0  0  0  0  0  0  0  0  0  0
  -24.3269  -32.1783   23.0805 C   0  0  0  0  0  0  0  0  0  0  0  0
  -27.3283  -33.7427   23.5178 C   0  0  0  0  0  0  0  0  0  0  0  0
  -28.1226  -19.6135   19.1549 C   0  0  0  0  0  0  0  0  0  0  0  0
  -17.6338  -29.6985   22.5831 C   0  0  0  0  0  0  0  0  0  0  0  0
  -24.4091  -28.5443   23.7133 C   0  0  0  0  0  0  0  0  0  0  0  0
  -25.6541  -30.4429   21.8185 C   0  0  0  0  0  0  0  0  0  0  0  0
  -18.7371  -30.7095   22.2817 C   0  0  0  0  0  0  0  0  0  0  0  0
  -28.8964  -18.2384   22.4640 C   0  0  0  0  0  0  0  0  0  0  0  0
  -19.6665  -30.1774   21.1955 C   0  0  0  0  0  0  0  0  0  0  0  0
  -28.0582  -16.9645   22.4547 C   0  0  0  0  0  0  0  0  0  0  0  0
  -30.5173  -21.1297   17.3531 C   0  0  0  0  0  0  0  0  0  0  0  0
  -28.0877  -25.7645   17.2362 C   0  0  0  0  0  0  0  0  0  0  0  0
  -29.4445  -18.5841   21.0789 C   0  0  0  0  0  0  0  0  0  0  0  0
  -30.6033  -20.1771   18.5496 C   0  0  0  0  0  0  0  0  0  0  0  0
  -27.5579  -17.3705   20.0199 C   0  0  0  0  0  0  0  0  0  0  0  0
  -27.8161  -24.2601   17.0698 C   0  0  0  0  0  0  0  0  0  0  0  0
  -20.3601  -28.8864   21.6467 C   0  0  1  0  0  0  0  0  0  0  0  0
  -23.6839  -29.8014   23.2431 C   0  0  1  0  0  0  0  0  0  0  0  0
  -26.9508  -17.0571   21.3946 C   0  0  1  0  0  0  0  0  0  0  0  0
  -29.1334  -21.5684   17.8558 C   0  0  2  0  0  0  0  0  0  0  0  0
  -29.0672  -25.3546   18.3680 C   0  0  1  0  0  0  0  0  0  0  0  0
  -30.4320  -26.0331   18.3025 C   0  0  0  0  0  0  0  0  0  0  0  0
  -28.3241  -35.9170   24.2781 C   0  0  0  0  0  0  0  0  0  0  0  0
  -23.5108  -33.4724   20.4406 C   0  0  0  0  0  0  0  0  0  0  0  0
  -25.2727  -35.2086   20.8272 C   0  0  0  0  0  0  0  0  0  0  0  0
  -23.3739  -34.9829   22.4291 C   0  0  0  0  0  0  0  0  0  0  0  0
  -28.8078  -32.4289   25.7187 C   0  0  0  0  0  0  0  0  0  0  0  0
  -29.0529  -22.8539   18.6553 C   0  0  0  0  0  0  0  0  0  0  0  0
  -28.4512  -25.4450   19.7640 C   0  0  0  0  0  0  0  0  0  1  0  0
  -25.1813  -33.2154   22.3923 C   0  0  1  0  0  0  0  0  0  0  0  0
  -27.8990  -34.5168   24.6923 C   0  0  2  0  0  0  0  0  0  0  0  0
  -24.3414  -34.1922   21.5217 C   0  0  0  0  0  0  0  0  0  0  0  0
  -26.6592  -14.6226   21.6615 N   0  0  0  0  0  0  0  0  0  0  0  0
  -26.0940  -15.8048   21.3631 N   0  0  0  0  0  0  0  0  0  0  0  0
  -24.6016  -30.8392   22.7686 N   0  0  0  0  0  0  0  0  0  0  0  0
  -28.3922  -18.5775   20.0558 N   0  0  0  0  0  0  0  0  0  0  0  0
  -29.1749  -20.3931   18.7289 N   0  0  0  0  0  0  0  0  0  0  0  0
  -24.0452  -16.8140   20.7351 N   0  0  0  0  0  0  0  0  0  0  0  0
  -22.9863  -12.4378   21.0868 N   0  0  0  0  0  0  0  0  0  0  0  0
  -21.4465  -29.1869   22.5544 N   0  0  0  0  0  0  0  0  0  0  0  0
  -25.9571  -33.8669   23.4421 N   0  0  0  0  0  0  0  0  0  0  0  0
  -29.1117  -24.0043   17.7293 N   0  3  1  0  0  0  0  0  0  0  0  0
  -29.0870  -33.8107   25.2499 N   0  3  0  0  0  0  0  0  0  0  0  0
  -22.1626  -14.5184   20.5854 O   0  0  0  0  0  0  0  0  0  0  0  0
  -23.0906  -29.6251   20.9645 O   0  0  0  0  0  0  0  0  0  0  0  0
  -23.4530  -32.5426   23.8712 O   0  0  0  0  0  0  0  0  0  0  0  0
  -28.0292  -33.0958   22.7427 O   0  0  0  0  0  0  0  0  0  0  0  0
  -26.9828  -19.8199   18.7180 O   0  0  0  0  0  0  0  0  0  0  0  0
  -26.4574   -8.3119   22.4881 O   0  0  0  0  0  0  0  0  0  0  0  0
  -28.4947  -26.7984   20.1794 O   0  0  0  0  0  0  0  0  0  1  0  0
  -22.7089   -5.6631   25.5438 F   0  0  0  0  0  0  0  0  0  0  0  0
  -27.1734   -7.0775   24.8559 F   0  0  0  0  0  0  0  0  0  0  0  0
  1  2  1  0  0  0  0
  1  5  2  0  0  0  0
  2  6  2  0  0  0  0
  3  8  2  0  0  0  0
  3 15  1  0  0  0  0
  4  9  1  0  0  0  0
  4 15  2  0  0  0  0
  5 17  1  0  0  0  0
  6 19  1  0  0  0  0
  7 10  2  0  0  0  0
  7 18  1  0  0  0  0
  8 21  1  0  0  0  0
  9 21  2  0  0  0  0
 10 22  1  0  0  0  0
 11 12  2  0  0  0  0
 11 23  1  0  0  0  0
 12 24  1  0  0  0  0
 13 20  1  0  0  0  0
 13 22  2  0  0  0  0
 14 24  2  0  0  0  0
 14 25  1  0  0  0  0
 15 26  1  0  0  0  0
 16 26  1  0  0  0  0
 16 27  2  0  0  0  0
 16 28  1  0  0  0  0
 17 19  2  0  0  0  0
 17 33  1  0  0  0  0
 18 20  2  0  0  0  0
 18 34  1  0  0  0  0
 19 46  1  0  0  0  0
 20 35  1  0  0  0  0
 21 78  1  0  0  0  0
 22 79  1  0  0  0  0
 23 25  2  0  0  0  0
 23 78  1  0  0  0  0
 24 80  1  0  0  0  0
 25 81  1  0  0  0  0
 26 62  2  0  0  0  0
 27 63  1  0  0  0  0
 27 67  1  0  0  0  0
 28 68  1  0  0  0  0
 28 73  2  0  0  0  0
 29 47  1  0  0  0  0
 29 69  1  0  0  0  0
 29 74  2  0  0  0  0
 30 59  1  0  0  0  0
 30 64  1  0  0  0  0
 30 75  2  0  0  0  0
 31 60  1  0  0  0  0
 31 70  1  0  0  0  0
 31 76  2  0  0  0  0
 32 65  1  0  0  0  0
 32 66  1  0  0  0  0
 32 77  2  0  0  0  0
 33 36  1  0  0  0  0
 34 47  1  0  0  0  0
 35 64  1  0  0  0  0
 36 38  1  0  0  0  0
 37 39  1  0  0  0  0
 37 42  1  0  0  0  0
 38 46  1  0  0  0  0
 39 48  1  0  0  0  0
 40 43  1  0  0  0  0
 40 49  1  0  0  0  0
 41 45  1  0  0  0  0
 41 50  1  0  0  0  0
 42 65  1  0  0  0  0
 43 66  1  0  0  0  0
 44 48  1  0  0  0  0
 44 65  1  0  0  0  0
 45 71  1  0  0  0  0
 46 69  1  0  0  0  0
 47 64  1  0  0  0  0
 48 63  1  0  0  0  0
 49 57  1  0  0  0  0
 49 66  1  0  0  0  0
 50 51  1  0  0  0  0
 50 58  1  0  0  0  0
 50 71  1  0  0  0  0
 52 60  1  0  0  0  0
 53 61  1  0  0  0  0
 54 61  1  0  0  0  0
 55 61  1  0  0  0  0
 56 72  1  0  0  0  0
 57 71  1  0  0  0  0
 58 79  1  0  0  0  0
 59 61  1  0  0  0  0
 59 70  1  0  0  0  0
 60 72  1  0  0  0  0
 62 63  1  0  0  0  0
M  CHG  2  71   1  72   1
M  ISO  4  32 100  58 101  66 100  79 101
M  END
> <Batch ID>
0184

> <Smiles>
CNC(C)C(=O)NC(C(=O)N1Cc2cc([101O:1][101CH2:1]C3(C)CCN3CC3CC[100N:0]3[100C:0](=O)N3CCCC(n4nc(-c5ccc(Oc6ccc(F)cc6F)cc5)c(C(N)=O)c4N)C3)ccc2CC1C(=O)NC1CCCc2ccccc21)C(C)(C)C

> <Shape>
0.276

> <Color>
0.094

> <Negative vol penalty>
0.000

$$$$

  -OEChem-04052323103D

 90100  0     1  0  0  0  0  0999 V2000
  -32.2156  -14.0927   19.7968 C   0  0  0  0  0  0  0  0  0  0  0  0
  -31.4965  -15.2442   20.1007 C   0  0  0  0  0  0  0  0  0  0  0  0
  -29.7989  -24.1971   20.7175 C   0  0  0  0  0  0  0  0  0  0  0  0
  -27.4577  -23.6041   20.6527 C   0  0  0  0  0  0  0  0  0  0  0  0
  -31.5414  -12.9195   19.4607 C   0  0  0  0  0  0  0  0  0  0  0  0
  -30.1026  -15.2235   20.0676 C   0  0  0  0  0  0  0  0  0  0  0  0
  -26.2866  -18.3180   23.7238 C   0  0  0  0  0  0  0  0  0  0  0  0
  -30.1421  -22.8710   20.4548 C   0  0  0  0  0  0  0  0  0  0  0  0
  -27.8009  -22.2779   20.3900 C   0  0  0  0  0  0  0  0  0  0  0  0
  -25.5856  -19.5110   23.5536 C   0  0  0  0  0  0  0  0  0  0  0  0
  -28.7988  -20.4447   17.7322 C   0  0  0  0  0  0  0  0  0  0  0  0
  -28.0935  -19.7810   16.7283 C   0  0  0  0  0  0  0  0  0  0  0  0
  -23.6354  -18.2618   22.8788 C   0  0  0  0  0  0  0  0  0  0  0  0
  -27.3457  -18.1415   18.3377 C   0  0  0  0  0  0  0  0  0  0  0  0
  -28.4566  -24.5637   20.8165 C   0  0  0  0  0  0  0  0  0  0  0  0
  -28.4155  -27.0636   20.3102 C   0  0  0  0  0  0  0  0  0  0  0  0
  -30.1384  -12.8818   19.4328 C   0  0  0  0  0  0  0  0  0  0  0  0
  -25.6696  -17.0863   23.4619 C   0  0  0  0  0  0  0  0  0  0  0  0
  -29.4090  -14.0490   19.7294 C   0  0  0  0  0  0  0  0  0  0  0  0
  -24.3299  -17.0545   23.0490 C   0  0  0  0  0  0  0  0  0  0  0  0
  -23.3460  -23.0187   23.0246 C   0  0  0  0  0  0  0  0  0  0  0  0
  -29.1431  -21.9113   20.2910 C   0  0  0  0  0  0  0  0  0  0  0  0
  -24.2607  -19.4832   23.1282 C   0  0  0  0  0  0  0  0  0  0  0  0
  -28.7776  -19.9567   19.0388 C   0  0  0  0  0  0  0  0  0  0  0  0
  -27.3669  -18.6294   17.0311 C   0  0  0  0  0  0  0  0  0  0  0  0
  -28.0510  -18.8052   19.3415 C   0  0  0  0  0  0  0  0  0  0  0  0
  -28.1015  -25.9334   21.0885 C   0  0  0  0  0  0  0  0  0  0  0  0
  -22.7849  -23.7179   24.0738 C   0  0  0  0  0  0  0  0  0  0  0  0
  -22.9987  -23.4554   21.7626 C   0  0  0  0  0  0  0  0  0  0  0  0
  -27.8559  -28.1164   20.9921 C   0  0  0  0  0  0  0  0  0  0  0  0
  -21.6869  -25.0938   22.6356 C   0  0  0  0  0  0  0  0  0  0  0  0
  -29.1474  -27.1538   19.0806 C   0  0  0  0  0  0  0  0  0  0  0  0
  -26.1903  -14.7055   21.4213 C   0  0  0  0  0  0  0  0  0  0  0  0
  -23.8200  -13.2643   23.1025 C   0  0  0  0  0  0  0  0  0  0  0  0
  -21.0823  -13.5921   25.1136 C   0  0  0  0  0  0  0  0  0  0  0  0
  -23.2913  -28.5129   24.8468 C   0  0  0  0  0  0  0  0  0  0  0  0
  -29.4547  -11.6032   19.0177 C   0  0  0  0  0  0  0  0  0  0  0  0
  -26.4312  -15.8071   23.6761 C   0  0  0  0  0  0  0  0  0  0  0  0
  -23.6155  -15.7574   22.7740 C   0  0  0  0  0  0  0  0  0  0  0  0
  -27.9700  -11.5640   19.3705 C   0  0  0  0  0  0  0  0  0  0  0  0
  -26.6638  -29.5041   25.4130 C   0  0  0  0  0  0  0  0  0  0  0  0
  -27.2918  -12.8707   18.9713 C   0  0  0  0  0  0  0  0  0  0  0  0
  -22.9871  -24.3622   26.5673 C   0  0  0  0  0  0  0  0  0  0  0  0
  -24.3350  -23.8755   26.1355 C   0  0  0  0  0  0  0  0  0  0  0  0
  -27.4430  -28.8033   24.2987 C   0  0  0  0  0  0  0  0  0  0  0  0
  -25.5160  -28.6390   25.9291 C   0  0  0  0  0  0  0  0  0  0  0  0
  -20.4723  -26.6158   21.0825 C   0  0  0  0  0  0  0  0  0  0  0  0
  -25.3699  -27.4520   23.7742 C   0  0  0  0  0  0  0  0  0  0  0  0
  -18.9652  -26.7867   20.9678 C   0  0  0  0  0  0  0  0  0  0  0  0
  -18.8410  -27.2259   23.4198 C   0  0  0  0  0  0  0  0  0  0  0  0
  -27.8957  -14.0595   19.7285 C   0  0  1  0  0  0  0  0  0  0  0  0
  -23.0961  -23.3259   25.4817 C   0  0  0  0  0  0  0  0  0  0  0  0
  -25.8618  -14.6331   22.8857 C   0  0  1  0  0  0  0  0  0  0  0  0
  -26.5030  -28.3081   23.1831 C   0  0  2  0  0  0  0  0  0  0  0  0
  -20.3540  -27.0008   23.5541 C   0  0  2  0  0  0  0  0  0  0  0  0
  -23.5443  -22.7758   20.5499 C   0  0  0  0  0  0  0  0  0  0  0  0
  -19.3327  -12.2361   26.2957 C   0  0  0  0  0  0  0  0  0  0  0  0
  -22.3907  -12.7981   20.4474 C   0  0  0  0  0  0  0  0  0  0  0  0
  -20.2963  -12.3300   21.7367 C   0  0  0  0  0  0  0  0  0  0  0  0
  -22.2959  -10.8689   22.0359 C   0  0  0  0  0  0  0  0  0  0  0  0
  -17.0278  -28.0418   21.9129 C   0  0  0  0  0  0  0  0  0  0  0  0
  -21.9277  -14.5989   27.7651 C   0  0  0  0  0  0  0  0  0  0  0  0
  -24.2735  -21.8589   23.2387 C   0  0  0  0  0  0  0  0  0  1  0  0
  -21.1348  -28.3151   23.6345 C   0  0  0  0  0  0  0  0  0  0  0  0
  -22.3152  -13.2079   22.9954 C   0  0  1  0  0  0  0  0  0  0  0  0
  -20.6954  -12.9015   26.4089 C   0  0  2  0  0  0  0  0  0  0  0  0
  -21.8383  -12.3259   21.8071 C   0  0  0  0  0  0  0  0  0  0  0  0
  -27.3972  -26.2394   22.1814 N   0  0  0  0  0  0  0  0  0  0  0  0
  -21.9482  -24.7643   23.9149 N   0  0  0  0  0  0  0  0  0  0  0  0
  -22.1686  -24.4934   21.5305 N   0  0  0  0  0  0  0  0  0  0  0  0
  -27.2642  -27.5739   22.0947 N   0  0  0  0  0  0  0  0  0  0  0  0
  -20.8271  -26.1694   22.4339 N   0  0  3  0  0  0  0  0  0  0  0  0
  -24.4047  -14.5338   22.9919 N   0  0  0  0  0  0  0  0  0  0  0  0
  -24.6613  -28.2038   24.8218 N   0  0  0  0  0  0  0  0  0  0  0  0
  -27.8174  -29.4439   20.7503 N   0  0  0  0  0  0  0  0  0  0  0  0
  -28.4419  -27.0502   17.8740 N   0  0  0  0  0  0  0  0  0  0  0  0
  -27.3886  -14.1061   21.0832 N   0  0  0  0  0  0  0  0  0  0  0  0
  -21.8294  -12.7680   24.2988 N   0  0  0  0  0  0  0  0  0  0  0  0
  -22.5545  -28.0687   23.7556 N   0  0  0  0  0  0  0  0  0  0  0  0
  -18.4948  -27.7380   22.0419 N   0  3  2  0  0  0  0  0  0  0  0  0
  -20.6462  -13.8864   27.5263 N   0  3  0  0  0  0  0  0  0  0  0  0
  -30.3923  -27.3048   19.0528 O   0  0  0  0  0  0  0  0  0  0  0  0
  -25.4134  -15.2625   20.6546 O   0  0  0  0  0  0  0  0  0  0  0  0
  -24.4527  -12.2212   23.2850 O   0  0  0  0  0  0  0  0  0  0  0  0
  -20.7514  -14.7459   24.8492 O   0  0  0  0  0  0  0  0  0  0  0  0
  -22.7649  -29.1429   25.7703 O   0  0  0  0  0  0  0  0  0  0  0  0
  -29.4777  -20.6172   20.0344 O   0  0  0  0  0  0  0  0  0  0  0  0
  -23.5744  -20.6463   22.9606 O   0  0  0  0  0  0  0  0  0  1  0  0
  -26.6884  -17.9931   16.0673 F   0  0  0  0  0  0  0  0  0  0  0  0
  -28.0260  -18.3323   20.5951 F   0  0  0  0  0  0  0  0  0  0  0  0
  1  2  1  0  0  0  0
  1  5  2  0  0  0  0
  2  6  2  0  0  0  0
  3  8  2  0  0  0  0
  3 15  1  0  0  0  0
  4  9  1  0  0  0  0
  4 15  2  0  0  0  0
  5 17  1  0  0  0  0
  6 19  1  0  0  0  0
  7 10  2  0  0  0  0
  7 18  1  0  0  0  0
  8 22  1  0  0  0  0
  9 22  2  0  0  0  0
 10 23  1  0  0  0  0
 11 12  2  0  0  0  0
 11 24  1  0  0  0  0
 12 25  1  0  0  0  0
 13 20  1  0  0  0  0
 13 23  2  0  0  0  0
 14 25  2  0  0  0  0
 14 26  1  0  0  0  0
 15 27  1  0  0  0  0
 16 27  1  0  0  0  0
 16 30  2  0  0  0  0
 16 32  1  0  0  0  0
 17 19  2  0  0  0  0
 17 37  1  0  0  0  0
 18 20  2  0  0  0  0
 18 38  1  0  0  0  0
 19 51  1  0  0  0  0
 20 39  1  0  0  0  0
 21 28  2  0  0  0  0
 21 29  1  0  0  0  0
 21 63  1  0  0  0  0
 22 87  1  0  0  0  0
 23 88  1  0  0  0  0
 24 26  2  0  0  0  0
 24 87  1  0  0  0  0
 25 89  1  0  0  0  0
 26 90  1  0  0  0  0
 27 68  2  0  0  0  0
 28 52  1  0  0  0  0
 28 69  1  0  0  0  0
 29 56  1  0  0  0  0
 29 70  2  0  0  0  0
 30 71  1  0  0  0  0
 30 75  1  0  0  0  0
 31 69  2  0  0  0  0
 31 70  1  0  0  0  0
 31 72  1  0  0  0  0
 32 76  1  0  0  0  0
 32 82  2  0  0  0  0
 33 53  1  0  0  0  0
 33 77  1  0  0  0  0
 33 83  2  0  0  0  0
 34 65  1  0  0  0  0
 34 73  1  0  0  0  0
 34 84  2  0  0  0  0
 35 66  1  0  0  0  0
 35 78  1  0  0  0  0
 35 85  2  0  0  0  0
 36 74  1  0  0  0  0
 36 79  1  0  0  0  0
 36 86  2  0  0  0  0
 37 40  1  0  0  0  0
 38 53  1  0  0  0  0
 39 73  1  0  0  0  0
 40 42  1  0  0  0  0
 41 45  1  0  0  0  0
 41 46  1  0  0  0  0
 42 51  1  0  0  0  0
 43 44  1  0  0  0  0
 43 52  1  0  0  0  0
 44 52  1  0  0  0  0
 45 54  1  0  0  0  0
 46 74  1  0  0  0  0
 47 49  1  0  0  0  0
 47 72  1  0  0  0  0
 48 54  1  0  0  0  0
 48 74  1  0  0  0  0
 49 80  1  0  0  0  0
 50 55  1  0  0  0  0
 50 80  1  0  0  0  0
 51 77  1  0  0  0  0
 53 73  1  0  0  0  0
 54 71  1  0  0  0  0
 55 64  1  0  0  0  0
 55 72  1  0  0  0  0
 57 66  1  0  0  0  0
 58 67  1  0  0  0  0
 59 67  1  0  0  0  0
 60 67  1  0  0  0  0
 61 80  1  0  0  0  0
 62 81  1  0  0  0  0
 63 88  1  0  0  0  0
 64 79  1  0  0  0  0
 65 67  1  0  0  0  0
 65 78  1  0  0  0  0
 66 81  1  0  0  0  0
 68 71  1  0  0  0  0
M  CHG  2  80   1  81   1
M  ISO  4  36 100  63 101  79 100  88 101
M  END
> <Batch ID>
0184

> <Smiles>
CNC(C)C(=O)NC(C(=O)N1Cc2cc([101O:1][101CH2:1]c3c(C)nc(N4CCN(C)CC4C[100NH:0][100C:0](=O)N4CCCC(n5nc(-c6ccc(Oc7ccc(F)cc7F)cc6)c(C(N)=O)c5N)C4)nc3C3CC3)ccc2CC1C(=O)NC1CCCc2ccccc21)C(C)(C)C

> <Shape>
0.227

> <Color>
0.059

> <Negative vol penalty>
0.000

$$$$

  -OEChem-04052323103D

 85 94  0     1  0  0  0  0  0999 V2000
  -24.2659  -35.2530   25.6003 C   0  0  0  0  0  0  0  0  0  0  0  0
  -25.1674  -34.3733   25.0096 C   0  0  0  0  0  0  0  0  0  0  0  0
  -26.4832  -13.0120   20.0200 C   0  0  0  0  0  0  0  0  0  0  0  0
  -25.4618  -14.6853   21.4320 C   0  0  0  0  0  0  0  0  0  0  0  0
  -22.9874  -34.8140   25.9419 C   0  0  0  0  0  0  0  0  0  0  0  0
  -24.7912  -33.0538   24.7611 C   0  0  0  0  0  0  0  0  0  0  0  0
  -26.5160  -29.5617   20.0350 C   0  0  0  0  0  0  0  0  0  0  0  0
  -25.8226  -12.0096   20.7300 C   0  0  0  0  0  0  0  0  0  0  0  0
  -24.8011  -13.6829   22.1420 C   0  0  0  0  0  0  0  0  0  0  0  0
  -27.4978  -28.5807   19.9026 C   0  0  0  0  0  0  0  0  0  0  0  0
  -22.7210  -10.6678   20.8431 C   0  0  0  0  0  0  0  0  0  0  0  0
  -22.1067   -9.6520   20.1107 C   0  0  0  0  0  0  0  0  0  0  0  0
  -25.8432  -26.8765   20.3233 C   0  0  0  0  0  0  0  0  0  0  0  0
  -23.5062   -8.0156   21.2064 C   0  0  0  0  0  0  0  0  0  0  0  0
  -29.9667  -24.1689   20.7978 C   0  0  0  0  0  0  0  0  0  0  0  0
  -26.3029  -14.3500   20.3710 C   0  0  0  0  0  0  0  0  0  0  0  0
  -26.5216  -16.0665   18.4966 C   0  0  0  0  0  0  0  0  0  0  0  0
  -22.5921  -33.4910   25.6887 C   0  0  0  0  0  0  0  0  0  0  0  0
  -25.1903  -29.2075   20.3237 C   0  0  0  0  0  0  0  0  0  0  0  0
  -23.5067  -32.5964   25.1008 C   0  0  0  0  0  0  0  0  0  0  0  0
  -24.8459  -27.8547   20.4563 C   0  0  0  0  0  0  0  0  0  0  0  0
  -24.9815  -12.3449   21.7910 C   0  0  0  0  0  0  0  0  0  0  0  0
  -27.1621  -27.2381   20.0497 C   0  0  0  0  0  0  0  0  0  0  0  0
  -23.7281  -10.3575   21.7570 C   0  0  0  0  0  0  0  0  0  0  0  0
  -22.4992   -8.3259   20.2924 C   0  0  0  0  0  0  0  0  0  0  0  0
  -24.1206   -9.0314   21.9387 C   0  0  0  0  0  0  0  0  0  0  0  0
  -26.9855  -15.3859   19.6383 C   0  0  0  0  0  0  0  0  0  0  0  0
  -28.8978  -24.0254   19.9369 C   0  0  0  0  0  0  0  0  0  0  0  0
  -31.0209  -23.3029   20.5903 C   0  0  0  0  0  0  0  0  0  0  0  0
  -27.5309  -16.9451   18.1869 C   0  0  0  0  0  0  0  0  0  0  0  0
  -29.9399  -22.3250   18.8461 C   0  0  0  0  0  0  0  0  0  0  0  0
  -25.2886  -15.9178   17.7802 C   0  0  0  0  0  0  0  0  0  0  0  0
  -23.1839  -29.7897   22.7194 C   0  0  0  0  0  0  0  0  0  0  0  0
  -21.0592  -28.2738   20.7932 C   0  0  0  0  0  0  0  0  0  0  0  0
  -20.5196  -26.0717   18.2424 C   0  0  0  0  0  0  0  0  0  0  0  0
  -31.6879  -19.4870   21.5074 C   0  0  0  0  0  0  0  0  0  0  0  0
  -21.2155  -33.0497   26.1187 C   0  0  0  0  0  0  0  0  0  0  0  0
  -24.1377  -30.2760   20.4369 C   0  0  0  0  0  0  0  0  0  0  0  0
  -23.4332  -27.4208   20.7465 C   0  0  0  0  0  0  0  0  0  0  0  0
  -20.7693  -31.7372   25.4796 C   0  0  0  0  0  0  0  0  0  0  0  0
  -32.2722  -17.4816   18.5532 C   0  0  0  0  0  0  0  0  0  0  0  0
  -21.8837  -30.6986   25.5593 C   0  0  0  0  0  0  0  0  0  0  0  0
  -30.9226  -16.7800   18.3924 C   0  0  0  0  0  0  0  0  0  0  0  0
  -34.4490  -23.0566   22.2357 C   0  0  0  0  0  0  0  0  0  0  0  0
  -34.6980  -21.5699   22.5687 C   0  0  0  0  0  0  0  0  0  0  0  0
  -32.6519  -17.6217   20.0247 C   0  0  0  0  0  0  0  0  0  0  0  0
  -30.2832  -17.6140   20.7013 C   0  0  0  0  0  0  0  0  0  0  0  0
  -23.1275  -31.1641   24.7927 C   0  0  1  0  0  0  0  0  0  0  0  0
  -22.9196  -29.8320   21.2409 C   0  0  1  0  0  0  0  0  0  0  0  0
  -29.8318  -17.4642   19.2372 C   0  0  2  0  0  0  0  0  0  0  0  0
  -33.2804  -22.5813   21.3453 C   0  0  1  0  0  0  0  0  0  0  0  0
  -33.2051  -21.3216   22.2434 C   0  0  1  0  0  0  0  0  0  0  0  0
  -18.6742  -25.0078   16.9158 C   0  0  0  0  0  0  0  0  0  0  0  0
  -20.4418  -26.4240   23.1399 C   0  0  0  0  0  0  0  0  0  0  0  0
  -19.3550  -24.8508   21.5237 C   0  0  0  0  0  0  0  0  0  0  0  0
  -18.4395  -27.1510   21.8298 C   0  0  0  0  0  0  0  0  0  0  0  0
  -21.5079  -27.2423   15.7103 C   0  0  0  0  0  0  0  0  0  0  0  0
  -28.7640  -21.3352   17.0313 C   0  0  0  0  0  0  0  0  0  0  0  0
  -27.7044  -24.9228   20.0848 C   0  0  0  0  0  0  0  0  0  1  0  0
  -20.6258  -26.8408   20.5986 C   0  0  1  0  0  0  0  0  0  0  0  0
  -19.6574  -26.1651   16.9965 C   0  0  2  0  0  0  0  0  0  0  0  0
  -19.7426  -26.3246   21.7695 C   0  0  0  0  0  0  0  0  0  0  0  0
  -28.1954  -15.7968   20.0274 N   0  0  0  0  0  0  0  0  0  0  0  0
  -28.8507  -23.1106   18.9463 N   0  0  0  0  0  0  0  0  0  0  0  0
  -31.0409  -22.3651   19.6205 N   0  0  0  0  0  0  0  0  0  0  0  0
  -28.5003  -16.7450   19.1251 N   0  0  0  0  0  0  0  0  0  0  0  0
  -22.4411  -28.5031   20.8544 N   0  0  0  0  0  0  0  0  0  0  0  0
  -31.5794  -18.2979   20.7688 N   0  0  0  0  0  0  0  0  0  0  0  0
  -27.6748  -17.8616   17.2062 N   0  0  0  0  0  0  0  0  0  0  0  0
  -24.3626  -14.9686   18.2338 N   0  0  0  0  0  0  0  0  0  0  0  0
  -32.1364  -23.4154   21.4561 N   0  0  0  0  0  0  0  0  0  0  0  0
  -22.9402  -30.9847   23.3689 N   0  0  0  0  0  0  0  0  0  0  0  0
  -19.9790  -26.7838   19.2921 N   0  0  0  0  0  0  0  0  0  0  0  0
  -32.9445  -20.0826   21.5253 N   0  0  0  0  0  0  0  0  0  0  0  0
  -20.5097  -26.1439   15.7741 N   0  3  0  0  0  0  0  0  0  0  0  0
  -25.0232  -16.5947   16.7580 O   0  0  0  0  0  0  0  0  0  0  0  0
  -23.5782  -28.7494   23.2331 O   0  0  0  0  0  0  0  0  0  0  0  0
  -20.2034  -29.1579   20.8803 O   0  0  0  0  0  0  0  0  0  0  0  0
  -21.5658  -25.4280   18.2818 O   0  0  0  0  0  0  0  0  0  0  0  0
  -30.7330  -19.9927   22.1076 O   0  0  0  0  0  0  0  0  0  0  0  0
  -24.3365  -11.3670   22.4839 O   0  0  0  0  0  0  0  0  0  0  0  0
  -28.1186  -26.2786   19.9217 O   0  0  0  0  0  0  0  0  0  1  0  0
  -29.9256  -21.3793   17.8473 O   0  0  0  0  0  0  0  0  0  0  0  0
  -21.9081   -7.3504   19.5901 F   0  0  0  0  0  0  0  0  0  0  0  0
  -25.0867   -8.7270   22.8161 F   0  0  0  0  0  0  0  0  0  0  0  0
  1  2  1  0  0  0  0
  1  5  2  0  0  0  0
  2  6  2  0  0  0  0
  3  8  2  0  0  0  0
  3 16  1  0  0  0  0
  4  9  1  0  0  0  0
  4 16  2  0  0  0  0
  5 18  1  0  0  0  0
  6 20  1  0  0  0  0
  7 10  2  0  0  0  0
  7 19  1  0  0  0  0
  8 22  1  0  0  0  0
  9 22  2  0  0  0  0
 10 23  1  0  0  0  0
 11 12  2  0  0  0  0
 11 24  1  0  0  0  0
 12 25  1  0  0  0  0
 13 21  1  0  0  0  0
 13 23  2  0  0  0  0
 14 25  2  0  0  0  0
 14 26  1  0  0  0  0
 15 28  1  0  0  0  0
 15 29  2  0  0  0  0
 16 27  1  0  0  0  0
 17 27  1  0  0  0  0
 17 30  2  0  0  0  0
 17 32  1  0  0  0  0
 18 20  2  0  0  0  0
 18 37  1  0  0  0  0
 19 21  2  0  0  0  0
 19 38  1  0  0  0  0
 20 48  1  0  0  0  0
 21 39  1  0  0  0  0
 22 81  1  0  0  0  0
 23 82  1  0  0  0  0
 24 26  2  0  0  0  0
 24 81  1  0  0  0  0
 25 84  1  0  0  0  0
 26 85  1  0  0  0  0
 27 63  2  0  0  0  0
 28 59  1  0  0  0  0
 28 64  2  0  0  0  0
 29 65  1  0  0  0  0
 29 71  1  0  0  0  0
 30 66  1  0  0  0  0
 30 69  1  0  0  0  0
 31 64  1  0  0  0  0
 31 65  2  0  0  0  0
 31 83  1  0  0  0  0
 32 70  1  0  0  0  0
 32 76  2  0  0  0  0
 33 49  1  0  0  0  0
 33 72  1  0  0  0  0
 33 77  2  0  0  0  0
 34 60  1  0  0  0  0
 34 67  1  0  0  0  0
 34 78  2  0  0  0  0
 35 61  1  0  0  0  0
 35 73  1  0  0  0  0
 35 79  2  0  0  0  0
 36 68  1  0  0  0  0
 36 74  1  0  0  0  0
 36 80  2  0  0  0  0
 37 40  1  0  0  0  0
 38 49  1  0  0  0  0
 39 67  1  0  0  0  0
 40 42  1  0  0  0  0
 41 43  1  0  0  0  0
 41 46  1  0  0  0  0
 42 48  1  0  0  0  0
 43 50  1  0  0  0  0
 44 45  1  0  0  0  0
 44 51  1  0  0  0  0
 45 52  1  0  0  0  0
 46 68  1  0  0  0  0
 47 50  1  0  0  0  0
 47 68  1  0  0  0  0
 48 72  1  0  0  0  0
 49 67  1  0  0  0  0
 50 66  1  0  0  0  0
 51 52  1  0  0  0  0
 51 71  1  0  0  0  0
 52 74  1  0  0  0  0
 53 61  1  0  0  0  0
 54 62  1  0  0  0  0
 55 62  1  0  0  0  0
 56 62  1  0  0  0  0
 57 75  1  0  0  0  0
 58 83  1  0  0  0  0
 59 82  1  0  0  0  0
 60 62  1  0  0  0  0
 60 73  1  0  0  0  0
 61 75  1  0  0  0  0
 63 66  1  0  0  0  0
M  CHG  1  75   1
M  ISO  4  36 100  59 101  74 100  82 101
M  END
> <Batch ID>
0184

> <Smiles>
CNC(C)C(=O)NC(C(=O)N1Cc2cc([101O:1][101CH2:1]c3cc(NC4CCC4[100NH:0][100C:0](=O)N4CCCC(n5nc(-c6ccc(Oc7ccc(F)cc7F)cc6)c(C(N)=O)c5N)C4)nc(OC)n3)ccc2CC1C(=O)NC1CCCc2ccccc21)C(C)(C)C

> <Shape>
0.249

> <Color>
0.096

> <Negative vol penalty>
0.000

$$$$

  -OEChem-04052323103D

 82 91  0     1  0  0  0  0  0999 V2000
  -30.4118  -27.8570   11.1288 C   0  0  0  0  0  0  0  0  0  0  0  0
  -29.7450  -26.7372   11.6155 C   0  0  0  0  0  0  0  0  0  0  0  0
  -23.3303   -9.7728   19.9756 C   0  0  0  0  0  0  0  0  0  0  0  0
  -23.7935   -9.9992   22.3359 C   0  0  0  0  0  0  0  0  0  0  0  0
  -31.5816  -28.2945   11.7486 C   0  0  0  0  0  0  0  0  0  0  0  0
  -30.2484  -26.0535   12.7217 C   0  0  0  0  0  0  0  0  0  0  0  0
  -28.0810  -22.3097   18.4316 C   0  0  0  0  0  0  0  0  0  0  0  0
  -22.6311   -8.5921   20.2260 C   0  0  0  0  0  0  0  0  0  0  0  0
  -23.0942   -8.8186   22.5864 C   0  0  0  0  0  0  0  0  0  0  0  0
  -28.2979  -21.0855   19.0625 C   0  0  0  0  0  0  0  0  0  0  0  0
  -21.1237   -6.0552   23.8898 C   0  0  0  0  0  0  0  0  0  0  0  0
  -20.2299   -6.0447   24.9605 C   0  0  0  0  0  0  0  0  0  0  0  0
  -30.2834  -21.9793   20.1008 C   0  0  0  0  0  0  0  0  0  0  0  0
  -18.9740   -7.8328   23.9297 C   0  0  0  0  0  0  0  0  0  0  0  0
  -30.1198  -16.6860   20.6424 C   0  0  0  0  0  0  0  0  0  0  0  0
  -23.9116  -10.4763   21.0305 C   0  0  0  0  0  0  0  0  0  0  0  0
  -24.1145  -13.0036   20.7492 C   0  0  0  0  0  0  0  0  0  0  0  0
  -32.0943  -27.6215   12.8688 C   0  0  0  0  0  0  0  0  0  0  0  0
  -28.9712  -23.3763   18.6223 C   0  0  0  0  0  0  0  0  0  0  0  0
  -31.4269  -26.4816   13.3562 C   0  0  0  0  0  0  0  0  0  0  0  0
  -30.0742  -23.2168   19.4732 C   0  0  0  0  0  0  0  0  0  0  0  0
  -22.5130   -8.1150   21.5314 C   0  0  0  0  0  0  0  0  0  0  0  0
  -29.4008  -20.9192   19.8950 C   0  0  0  0  0  0  0  0  0  0  0  0
  -20.9427   -6.9545   22.8390 C   0  0  0  0  0  0  0  0  0  0  0  0
  -19.1550   -6.9334   24.9805 C   0  0  0  0  0  0  0  0  0  0  0  0
  -19.8678   -7.8433   22.8589 C   0  0  0  0  0  0  0  0  0  0  0  0
  -24.6346  -11.6956   20.7724 C   0  0  0  0  0  0  0  0  0  0  0  0
  -29.7775  -15.3002   22.4289 C   0  0  0  0  0  0  0  0  0  0  0  0
  -29.0609  -17.4689   21.0467 C   0  0  0  0  0  0  0  0  0  0  0  0
  -28.7191  -16.0834   22.8338 C   0  0  0  0  0  0  0  0  0  0  0  0
  -25.1970  -13.7985   20.4613 C   0  0  0  0  0  0  0  0  0  0  0  0
  -22.7729  -13.4593   20.9682 C   0  0  0  0  0  0  0  0  0  0  0  0
  -30.8784  -25.0723   16.7276 C   0  0  0  0  0  0  0  0  0  0  0  0
  -31.3471  -26.8230   19.4179 C   0  0  0  0  0  0  0  0  0  0  0  0
  -31.3000  -26.9644   22.8274 C   0  0  0  0  0  0  0  0  0  0  0  0
  -31.1790  -12.5027   21.1961 C   0  0  0  0  0  0  0  0  0  0  0  0
  -33.3877  -28.1038   13.4762 C   0  0  0  0  0  0  0  0  0  0  0  0
  -28.7085  -24.6988   17.9555 C   0  0  0  0  0  0  0  0  0  0  0  0
  -31.0485  -24.3369   19.7270 C   0  0  0  0  0  0  0  0  0  0  0  0
  -33.6506  -27.5452   14.8724 C   0  0  0  0  0  0  0  0  0  0  0  0
  -29.3867  -13.7605   18.2068 C   0  0  0  0  0  0  0  0  0  0  0  0
  -33.3912  -26.0423   14.9036 C   0  0  0  0  0  0  0  0  0  0  0  0
  -27.9358  -13.3929   18.5020 C   0  0  0  0  0  0  0  0  0  0  0  0
  -31.4749  -14.1791   24.1407 C   0  0  0  0  0  0  0  0  0  0  0  0
  -30.3589  -12.8141   18.9021 C   0  0  0  0  0  0  0  0  0  0  0  0
  -32.1372  -12.9619   23.5057 C   0  0  0  0  0  0  0  0  0  0  0  0
  -28.7029  -12.3691   20.6832 C   0  0  0  0  0  0  0  0  0  0  0  0
  -31.9281  -25.7279   14.5691 C   0  0  1  0  0  0  0  0  0  0  0  0
  -30.2783  -13.9961   23.1801 C   0  0  2  0  0  0  0  0  0  0  0  0
  -29.9621  -25.5568   17.8154 C   0  0  1  0  0  0  0  0  0  0  0  0
  -27.6957  -13.3212   20.0175 C   0  0  2  0  0  0  0  0  0  0  0  0
  -27.9373  -15.7471   24.0565 C   0  0  0  0  0  0  0  0  0  0  0  0
  -31.7697  -28.5181   24.7412 C   0  0  0  0  0  0  0  0  0  0  0  0
  -34.3433  -26.4118   19.0131 C   0  0  0  0  0  0  0  0  0  0  0  0
  -34.6920  -27.1325   21.3853 C   0  0  0  0  0  0  0  0  0  0  0  0
  -33.6949  -28.7164   19.7362 C   0  0  0  0  0  0  0  0  0  0  0  0
  -28.4999  -26.8290   23.7761 C   0  0  0  0  0  0  0  0  0  0  0  0
  -28.6701  -18.6858   20.2608 C   0  0  0  0  0  0  0  0  0  1  0  0
  -32.3173  -26.7687   20.5732 C   0  0  1  0  0  0  0  0  0  0  0  0
  -30.7136  -27.9858   23.7851 C   0  0  2  0  0  0  0  0  0  0  0  0
  -33.7448  -27.2355   20.1708 C   0  0  0  0  0  0  0  0  0  0  0  0
  -30.4971  -15.5876   21.3262 N   0  0  0  0  0  0  0  0  0  0  0  0
  -25.9455  -11.6574   20.5193 N   0  0  0  0  0  0  0  0  0  0  0  0
  -28.3416  -17.1816   22.1497 N   0  0  0  0  0  0  0  0  0  0  0  0
  -26.2583  -12.9512   20.3343 N   0  0  0  0  0  0  0  0  0  0  0  0
  -30.7520  -25.6088   19.0473 N   0  0  0  0  0  0  0  0  0  0  0  0
  -30.0907  -12.7058   20.3386 N   0  0  0  0  0  0  0  0  0  0  0  0
  -31.1168  -13.0265   22.4668 N   0  0  0  0  0  0  0  0  0  0  0  0
  -25.3351  -15.1324   20.3070 N   0  0  0  0  0  0  0  0  0  0  0  0
  -21.7826  -12.5092   21.2530 N   0  0  0  0  0  0  0  0  0  0  0  0
  -31.0808  -25.9885   15.7131 N   0  0  0  0  0  0  0  0  0  0  0  0
  -31.7148  -27.5483   21.6491 N   0  0  0  0  0  0  0  0  0  0  0  0
  -29.6181  -27.3733   24.5887 N   0  3  0  0  0  0  0  0  0  0  0  0
  -22.4583  -14.6715   20.8970 O   0  0  0  0  0  0  0  0  0  0  0  0
  -31.3668  -23.9510   16.8037 O   0  0  0  0  0  0  0  0  0  0  0  0
  -31.1201  -27.9042   18.8692 O   0  0  0  0  0  0  0  0  0  0  0  0
  -31.3851  -25.7688   23.0988 O   0  0  0  0  0  0  0  0  0  0  0  0
  -32.1919  -11.8928   20.8273 O   0  0  0  0  0  0  0  0  0  0  0  0
  -21.8305   -6.9632   21.7762 O   0  0  0  0  0  0  0  0  0  0  0  0
  -29.6152  -19.7252   20.5115 O   0  0  0  0  0  0  0  0  0  1  0  0
  -18.2959   -6.9222   26.0081 F   0  0  0  0  0  0  0  0  0  0  0  0
  -19.6881   -8.7087   21.8517 F   0  0  0  0  0  0  0  0  0  0  0  0
  1  2  1  0  0  0  0
  1  5  2  0  0  0  0
  2  6  2  0  0  0  0
  3  8  2  0  0  0  0
  3 16  1  0  0  0  0
  4  9  1  0  0  0  0
  4 16  2  0  0  0  0
  5 18  1  0  0  0  0
  6 20  1  0  0  0  0
  7 10  2  0  0  0  0
  7 19  1  0  0  0  0
  8 22  1  0  0  0  0
  9 22  2  0  0  0  0
 10 23  1  0  0  0  0
 11 12  2  0  0  0  0
 11 24  1  0  0  0  0
 12 25  1  0  0  0  0
 13 21  1  0  0  0  0
 13 23  2  0  0  0  0
 14 25  2  0  0  0  0
 14 26  1  0  0  0  0
 15 29  1  0  0  0  0
 15 62  2  0  0  0  0
 16 27  1  0  0  0  0
 17 27  1  0  0  0  0
 17 31  2  0  0  0  0
 17 32  1  0  0  0  0
 18 20  2  0  0  0  0
 18 37  1  0  0  0  0
 19 21  2  0  0  0  0
 19 38  1  0  0  0  0
 20 48  1  0  0  0  0
 21 39  1  0  0  0  0
 22 79  1  0  0  0  0
 23 80  1  0  0  0  0
 24 26  2  0  0  0  0
 24 79  1  0  0  0  0
 25 81  1  0  0  0  0
 26 82  1  0  0  0  0
 27 63  2  0  0  0  0
 28 30  2  0  0  0  0
 28 49  1  0  0  0  0
 28 62  1  0  0  0  0
 29 58  1  0  0  0  0
 29 64  2  0  0  0  0
 30 52  1  0  0  0  0
 30 64  1  0  0  0  0
 31 65  1  0  0  0  0
 31 69  1  0  0  0  0
 32 70  1  0  0  0  0
 32 74  2  0  0  0  0
 33 50  1  0  0  0  0
 33 71  1  0  0  0  0
 33 75  2  0  0  0  0
 34 59  1  0  0  0  0
 34 66  1  0  0  0  0
 34 76  2  0  0  0  0
 35 60  1  0  0  0  0
 35 72  1  0  0  0  0
 35 77  2  0  0  0  0
 36 67  1  0  0  0  0
 36 68  1  0  0  0  0
 36 78  2  0  0  0  0
 37 40  1  0  0  0  0
 38 50  1  0  0  0  0
 39 66  1  0  0  0  0
 40 42  1  0  0  0  0
 41 43  1  0  0  0  0
 41 45  1  0  0  0  0
 42 48  1  0  0  0  0
 43 51  1  0  0  0  0
 44 46  1  0  0  0  0
 44 49  1  0  0  0  0
 45 67  1  0  0  0  0
 46 68  1  0  0  0  0
 47 51  1  0  0  0  0
 47 67  1  0  0  0  0
 48 71  1  0  0  0  0
 49 68  1  0  0  0  0
 50 66  1  0  0  0  0
 51 65  1  0  0  0  0
 53 60  1  0  0  0  0
 54 61  1  0  0  0  0
 55 61  1  0  0  0  0
 56 61  1  0  0  0  0
 57 73  1  0  0  0  0
 58 80  1  0  0  0  0
 59 61  1  0  0  0  0
 59 72  1  0  0  0  0
 60 73  1  0  0  0  0
 63 65  1  0  0  0  0
M  CHG  1  73   1
M  ISO  4  36 100  58 101  68 100  80 101
M  END
> <Batch ID>
0184

> <Smiles>
CNC(C)C(=O)NC(C(=O)N1Cc2cc([101O:1][101CH2:1]c3cnc(C4CC[100N:0]4[100C:0](=O)N4CCCC(n5nc(-c6ccc(Oc7ccc(F)cc7F)cc6)c(C(N)=O)c5N)C4)c(C)n3)ccc2CC1C(=O)NC1CCCc2ccccc21)C(C)(C)C

> <Shape>
0.254

> <Color>
0.180

> <Negative vol penalty>
0.000

$$$$

  -OEChem-04052323103D

 81 90  0     1  0  0  0  0  0999 V2000
  -17.2983  -30.7234   24.5429 C   0  0  0  0  0  0  0  0  0  0  0  0
  -18.2072  -29.8556   25.1397 C   0  0  0  0  0  0  0  0  0  0  0  0
  -23.1662   -9.8021   21.3816 C   0  0  0  0  0  0  0  0  0  0  0  0
  -23.8956  -10.6919   23.5060 C   0  0  0  0  0  0  0  0  0  0  0  0
  -17.2172  -30.7983   23.1530 C   0  0  0  0  0  0  0  0  0  0  0  0
  -19.0349  -29.0613   24.3469 C   0  0  0  0  0  0  0  0  0  0  0  0
  -25.5891  -26.1714   24.2653 C   0  0  0  0  0  0  0  0  0  0  0  0
  -29.9254  -20.1546   22.2980 C   0  0  0  0  0  0  0  0  0  0  0  0
  -22.4731   -8.7889   22.0439 C   0  0  0  0  0  0  0  0  0  0  0  0
  -23.2024   -9.6787   24.1684 C   0  0  0  0  0  0  0  0  0  0  0  0
  -26.2223  -24.9426   24.0835 C   0  0  0  0  0  0  0  0  0  0  0  0
  -23.1939   -5.8439   23.5379 C   0  0  0  0  0  0  0  0  0  0  0  0
  -23.3202   -4.5448   23.0459 C   0  0  0  0  0  0  0  0  0  0  0  0
  -29.3048  -21.3503   22.6421 C   0  0  0  0  0  0  0  0  0  0  0  0
  -26.0496  -25.2141   21.6928 C   0  0  0  0  0  0  0  0  0  0  0  0
  -20.9352   -4.4554   22.6701 C   0  0  0  0  0  0  0  0  0  0  0  0
  -28.2178  -18.9899   23.4745 C   0  0  0  0  0  0  0  0  0  0  0  0
  -23.8775  -10.7536   22.1127 C   0  0  0  0  0  0  0  0  0  0  0  0
  -24.1042  -13.0689   21.0660 C   0  0  0  0  0  0  0  0  0  0  0  0
  -29.3780  -18.9475   22.7181 C   0  0  0  0  0  0  0  0  0  0  0  0
  -18.0511  -30.0116   22.3428 C   0  0  0  0  0  0  0  0  0  0  0  0
  -25.1710  -26.9269   23.1604 C   0  0  0  0  0  0  0  0  0  0  0  0
  -18.9640  -29.1248   22.9449 C   0  0  0  0  0  0  0  0  0  0  0  0
  -25.4137  -26.4533   21.8631 C   0  0  0  0  0  0  0  0  0  0  0  0
  -22.4912   -8.7272   23.4373 C   0  0  0  0  0  0  0  0  0  0  0  0
  -26.4500  -24.4624   22.7972 C   0  0  0  0  0  0  0  0  0  0  0  0
  -21.9383   -6.4488   23.5960 C   0  0  0  0  0  0  0  0  0  0  0  0
  -22.1908   -3.8506   22.6120 C   0  0  0  0  0  0  0  0  0  0  0  0
  -20.8090   -5.7545   23.1621 C   0  0  0  0  0  0  0  0  0  0  0  0
  -24.5942  -11.8001   21.4290 C   0  0  0  0  0  0  0  0  0  0  0  0
  -28.1478  -21.2851   23.4016 C   0  0  0  0  0  0  0  0  0  0  0  0
  -25.1652  -13.6822   20.4458 C   0  0  0  0  0  0  0  0  0  0  0  0
  -22.8060  -13.6420   21.2712 C   0  0  0  0  0  0  0  0  0  0  0  0
  -22.3659  -27.9665   22.0859 C   0  0  0  0  0  0  0  0  0  0  0  0
  -24.2120  -29.5185   19.9167 C   0  0  0  0  0  0  0  0  0  0  0  0
  -27.1727  -29.6923   18.2282 C   0  0  0  0  0  0  0  0  0  0  0  0
  -30.6774  -14.8959   20.4253 C   0  0  0  0  0  0  0  0  0  0  0  0
  -17.8941  -30.0925   20.8450 C   0  0  0  0  0  0  0  0  0  0  0  0
  -24.5134  -28.2629   23.3730 C   0  0  0  0  0  0  0  0  0  0  0  0
  -25.0025  -27.2355   20.6435 C   0  0  0  0  0  0  0  0  0  0  0  0
  -19.0678  -29.4912   20.0761 C   0  0  0  0  0  0  0  0  0  0  0  0
  -29.5798  -11.8518   18.8563 C   0  0  0  0  0  0  0  0  0  0  0  0
  -19.4477  -28.1334   20.6582 C   0  0  0  0  0  0  0  0  0  0  0  0
  -28.1690  -11.6375   19.3945 C   0  0  0  0  0  0  0  0  0  0  0  0
  -30.4730  -12.4914   19.9109 C   0  0  0  0  0  0  0  0  0  0  0  0
  -29.1637  -16.3563   21.9860 C   0  0  0  0  0  0  0  0  0  0  0  0
  -30.6860  -17.3963   20.9399 C   0  0  0  0  0  0  0  0  0  0  0  0
  -28.5239  -13.6249   20.9454 C   0  0  0  0  0  0  0  0  0  0  0  0
  -30.0602  -17.5665   22.3434 C   0  0  0  0  0  0  0  0  0  0  0  0
  -19.8960  -28.2652   22.1187 C   0  0  1  0  0  0  0  0  0  0  0  0
  -23.6685  -28.7090   22.1836 C   0  0  1  0  0  0  0  0  0  0  0  0
  -27.5875  -12.9585   19.9180 C   0  0  2  0  0  0  0  0  0  0  0  0
  -28.3744  -31.0503   16.4935 C   0  0  0  0  0  0  0  0  0  0  0  0
  -22.5096  -28.2334   17.7348 C   0  0  0  0  0  0  0  0  0  0  0  0
  -24.2941  -28.8353   16.0851 C   0  0  0  0  0  0  0  0  0  0  0  0
  -23.0900  -30.6318   17.3282 C   0  0  0  0  0  0  0  0  0  0  0  0
  -29.3386  -30.4013   20.1164 C   0  0  0  0  0  0  0  0  0  0  0  0
  -27.4551  -22.5488   23.7891 C   0  0  0  0  0  0  0  0  0  1  0  0
  -24.7655  -29.1870   18.5519 C   0  0  1  0  0  0  0  0  0  0  0  0
  -28.1243  -30.8487   17.9800 C   0  0  2  0  0  0  0  0  0  0  0  0
  -23.6710  -29.2060   17.4478 C   0  0  0  0  0  0  0  0  0  0  0  0
  -27.5863  -20.1317   23.8283 N   0  0  0  0  0  0  0  0  0  0  0  0
  -25.8673  -11.6167   21.0693 N   0  0  0  0  0  0  0  0  0  0  0  0
  -26.1863  -12.7784   20.4737 N   0  0  0  0  0  0  0  0  0  0  0  0
  -24.3573  -28.5331   20.9034 N   0  0  0  0  0  0  0  0  0  0  0  0
  -29.8999  -13.7325   20.4406 N   0  0  0  0  0  0  0  0  0  0  0  0
  -30.1398  -16.0448   20.9557 N   0  0  0  0  0  0  0  0  0  0  0  0
  -25.3150  -14.9008   19.8848 N   0  0  0  0  0  0  0  0  0  0  0  0
  -21.8328  -12.8748   21.9258 N   0  0  0  0  0  0  0  0  0  0  0  0
  -21.2491  -28.7738   22.1882 N   0  0  0  0  0  0  0  0  0  0  0  0
  -25.8644  -30.1182   18.3199 N   0  0  0  0  0  0  0  0  0  0  0  0
  -29.4329  -30.5948   18.6465 N   0  3  0  0  0  0  0  0  0  0  0  0
  -22.5126  -14.7940   20.8708 O   0  0  0  0  0  0  0  0  0  0  0  0
  -22.3735  -26.7513   21.9279 O   0  0  0  0  0  0  0  0  0  0  0  0
  -23.6770  -30.6144   20.1024 O   0  0  0  0  0  0  0  0  0  0  0  0
  -27.5515  -28.5273   18.3269 O   0  0  0  0  0  0  0  0  0  0  0  0
  -31.8319  -14.9040   19.9778 O   0  0  0  0  0  0  0  0  0  0  0  0
  -21.8148   -7.7388   24.0839 O   0  0  0  0  0  0  0  0  0  0  0  0
  -27.0715  -23.2547   22.6157 O   0  0  0  0  0  0  0  0  0  1  0  0
  -22.3124   -2.6036   22.1382 F   0  0  0  0  0  0  0  0  0  0  0  0
  -19.6003   -6.3308   23.2144 F   0  0  0  0  0  0  0  0  0  0  0  0
  1  2  1  0  0  0  0
  1  5  2  0  0  0  0
  2  6  2  0  0  0  0
  3  9  2  0  0  0  0
  3 18  1  0  0  0  0
  4 10  1  0  0  0  0
  4 18  2  0  0  0  0
  5 21  1  0  0  0  0
  6 23  1  0  0  0  0
  7 11  2  0  0  0  0
  7 22  1  0  0  0  0
  8 14  2  0  0  0  0
  8 20  1  0  0  0  0
  9 25  1  0  0  0  0
 10 25  2  0  0  0  0
 11 26  1  0  0  0  0
 12 13  2  0  0  0  0
 12 27  1  0  0  0  0
 13 28  1  0  0  0  0
 14 31  1  0  0  0  0
 15 24  1  0  0  0  0
 15 26  2  0  0  0  0
 16 28  2  0  0  0  0
 16 29  1  0  0  0  0
 17 20  2  0  0  0  0
 17 62  1  0  0  0  0
 18 30  1  0  0  0  0
 19 30  1  0  0  0  0
 19 32  2  0  0  0  0
 19 33  1  0  0  0  0
 20 49  1  0  0  0  0
 21 23  2  0  0  0  0
 21 38  1  0  0  0  0
 22 24  2  0  0  0  0
 22 39  1  0  0  0  0
 23 50  1  0  0  0  0
 24 40  1  0  0  0  0
 25 78  1  0  0  0  0
 26 79  1  0  0  0  0
 27 29  2  0  0  0  0
 27 78  1  0  0  0  0
 28 80  1  0  0  0  0
 29 81  1  0  0  0  0
 30 63  2  0  0  0  0
 31 58  1  0  0  0  0
 31 62  2  0  0  0  0
 32 64  1  0  0  0  0
 32 68  1  0  0  0  0
 33 69  1  0  0  0  0
 33 73  2  0  0  0  0
 34 51  1  0  0  0  0
 34 70  1  0  0  0  0
 34 74  2  0  0  0  0
 35 59  1  0  0  0  0
 35 65  1  0  0  0  0
 35 75  2  0  0  0  0
 36 60  1  0  0  0  0
 36 71  1  0  0  0  0
 36 76  2  0  0  0  0
 37 66  1  0  0  0  0
 37 67  1  0  0  0  0
 37 77  2  0  0  0  0
 38 41  1  0  0  0  0
 39 51  1  0  0  0  0
 40 65  1  0  0  0  0
 41 43  1  0  0  0  0
 42 44  1  0  0  0  0
 42 45  1  0  0  0  0
 43 50  1  0  0  0  0
 44 52  1  0  0  0  0
 45 66  1  0  0  0  0
 46 49  1  0  0  0  0
 46 67  1  0  0  0  0
 47 49  1  0  0  0  0
 47 67  1  0  0  0  0
 48 52  1  0  0  0  0
 48 66  1  0  0  0  0
 50 70  1  0  0  0  0
 51 65  1  0  0  0  0
 52 64  1  0  0  0  0
 53 60  1  0  0  0  0
 54 61  1  0  0  0  0
 55 61  1  0  0  0  0
 56 61  1  0  0  0  0
 57 72  1  0  0  0  0
 58 79  1  0  0  0  0
 59 61  1  0  0  0  0
 59 71  1  0  0  0  0
 60 72  1  0  0  0  0
 63 64  1  0  0  0  0
M  CHG  1  72   1
M  ISO  4  37 100  58 101  67 100  79 101
M  END
> <Batch ID>
0184

> <Smiles>
CNC(C)C(=O)NC(C(=O)N1Cc2cc([101O:1][101CH2:1]c3ccc(C4C[100N:0]([100C:0](=O)N5CCCC(n6nc(-c7ccc(Oc8ccc(F)cc8F)cc7)c(C(N)=O)c6N)C5)C4)cn3)ccc2CC1C(=O)NC1CCCc2ccccc21)C(C)(C)C

> <Shape>
0.261

> <Color>
0.191

> <Negative vol penalty>
0.000

$$$$

  -OEChem-04052323103D

 87 96  0     1  0  0  0  0  0999 V2000
  -26.1575  -31.3585   28.7355 C   0  0  0  0  0  0  0  0  0  0  0  0
  -26.7013  -30.6553   27.6653 C   0  0  0  0  0  0  0  0  0  0  0  0
  -24.7720   -8.4015   21.5524 C   0  0  0  0  0  0  0  0  0  0  0  0
  -23.1518   -9.7970   20.4280 C   0  0  0  0  0  0  0  0  0  0  0  0
  -24.7752  -31.5076   28.8398 C   0  0  0  0  0  0  0  0  0  0  0  0
  -25.8630  -30.0998   26.6994 C   0  0  0  0  0  0  0  0  0  0  0  0
  -27.5115  -30.9341   21.9844 C   0  0  0  0  0  0  0  0  0  0  0  0
  -23.7827   -7.9611   22.4315 C   0  0  0  0  0  0  0  0  0  0  0  0
  -22.1624   -9.3567   21.3071 C   0  0  0  0  0  0  0  0  0  0  0  0
  -28.5579  -30.1355   21.5251 C   0  0  0  0  0  0  0  0  0  0  0  0
  -21.6046   -6.1952   24.7452 C   0  0  0  0  0  0  0  0  0  0  0  0
  -21.5416   -4.8290   25.0189 C   0  0  0  0  0  0  0  0  0  0  0  0
  -26.9760  -28.7589   20.3327 C   0  0  0  0  0  0  0  0  0  0  0  0
  -21.1666   -4.3768   22.6754 C   0  0  0  0  0  0  0  0  0  0  0  0
  -24.4566   -9.3195   20.5507 C   0  0  0  0  0  0  0  0  0  0  0  0
  -25.8379   -9.1993   18.4094 C   0  0  0  0  0  0  0  0  0  0  0  0
  -23.9200  -30.9619   27.8695 C   0  0  0  0  0  0  0  0  0  0  0  0
  -26.1862  -30.6442   21.6296 C   0  0  0  0  0  0  0  0  0  0  0  0
  -24.4678  -30.2406   26.7915 C   0  0  0  0  0  0  0  0  0  0  0  0
  -25.9148  -29.5569   20.7867 C   0  0  0  0  0  0  0  0  0  0  0  0
  -29.6099  -23.4391   20.8838 C   0  0  0  0  0  0  0  0  0  0  0  0
  -22.4779   -8.4387   22.3089 C   0  0  0  0  0  0  0  0  0  0  0  0
  -28.2900  -29.0460   20.7015 C   0  0  0  0  0  0  0  0  0  0  0  0
  -21.4485   -6.6523   23.4366 C   0  0  0  0  0  0  0  0  0  0  0  0
  -21.3226   -3.9198   23.9840 C   0  0  0  0  0  0  0  0  0  0  0  0
  -21.2295   -5.7431   22.4017 C   0  0  0  0  0  0  0  0  0  0  0  0
  -25.4783   -9.7752   19.6426 C   0  0  0  0  0  0  0  0  0  0  0  0
  -30.0272  -22.1320   20.7359 C   0  0  0  0  0  0  0  0  0  0  0  0
  -30.6153  -24.3788   20.9858 C   0  0  0  0  0  0  0  0  0  0  0  0
  -26.8512   -9.9987   17.9396 C   0  0  0  0  0  0  0  0  0  0  0  0
  -32.2085  -22.7682   20.7998 C   0  0  0  0  0  0  0  0  0  0  0  0
  -25.3037   -8.0451   17.7475 C   0  0  0  0  0  0  0  0  0  0  0  0
  -23.5564  -29.8558   23.2315 C   0  0  0  0  0  0  0  0  0  0  0  0
  -22.1642  -30.1396   20.3154 C   0  0  0  0  0  0  0  0  0  0  0  0
  -22.5126  -30.0842   16.9209 C   0  0  0  0  0  0  0  0  0  0  0  0
  -28.0866  -15.6940   19.0053 C   0  0  0  0  0  0  0  0  0  0  0  0
  -22.4298  -31.1086   28.0501 C   0  0  0  0  0  0  0  0  0  0  0  0
  -25.0712  -31.5312   22.1116 C   0  0  0  0  0  0  0  0  0  0  0  0
  -24.5113  -29.2152   20.3602 C   0  0  0  0  0  0  0  0  0  0  0  0
  -21.6305  -30.8101   26.7843 C   0  0  0  0  0  0  0  0  0  0  0  0
  -30.3692  -12.8564   19.4026 C   0  0  0  0  0  0  0  0  0  0  0  0
  -22.1236  -29.5220   26.1329 C   0  0  0  0  0  0  0  0  0  0  0  0
  -29.3840  -11.6932   19.4533 C   0  0  0  0  0  0  0  0  0  0  0  0
  -29.8067  -14.1235   20.0480 C   0  0  0  0  0  0  0  0  0  0  0  0
  -27.4986  -13.3600   19.5581 C   0  0  0  0  0  0  0  0  0  0  0  0
  -28.4204  -18.2215   19.1582 C   0  0  0  0  0  0  0  0  0  0  0  0
  -29.3628  -17.1701   20.7520 C   0  0  0  0  0  0  0  0  0  0  0  0
  -23.5926  -29.6446   25.7104 C   0  0  1  0  0  0  0  0  0  0  0  0
  -23.7118  -30.8388   22.1058 C   0  0  1  0  0  0  0  0  0  0  0  0
  -28.0325  -12.1060   18.8516 C   0  0  2  0  0  0  0  0  0  0  0  0
  -28.6947  -18.5466   20.6310 C   0  0  0  0  0  0  0  0  0  0  0  0
  -28.1666  -23.8013   20.9292 C   0  0  0  0  0  0  0  0  0  0  0  0
  -33.6516  -22.3957   20.7531 C   0  0  0  0  0  0  0  0  0  0  0  0
  -21.1892  -30.3115   14.8009 C   0  0  0  0  0  0  0  0  0  0  0  0
  -21.0499  -27.3270   20.7123 C   0  0  0  0  0  0  0  0  0  0  0  0
  -20.5697  -27.2460   18.2564 C   0  0  0  0  0  0  0  0  0  0  0  0
  -19.4454  -28.9501   19.6898 C   0  0  0  0  0  0  0  0  0  0  0  0
  -24.0816  -32.4402   16.0572 C   0  0  0  0  0  0  0  0  0  0  0  0
  -29.0246  -21.0224   20.6150 C   0  0  0  0  0  0  0  0  0  0  0  0
  -31.1410  -26.8138   20.8438 C   0  0  0  0  0  0  0  0  0  0  0  0
  -30.4577  -28.1484   21.0904 C   0  0  0  0  0  0  0  0  0  1  0  0
  -21.9042  -29.2043   19.1592 C   0  0  1  0  0  0  0  0  0  0  0  0
  -22.0270  -31.0362   15.8428 C   0  0  2  0  0  0  0  0  0  0  0  0
  -20.7687  -28.1869   19.4639 C   0  0  0  0  0  0  0  0  0  0  0  0
  -26.2043  -10.8567   19.9379 N   0  0  0  0  0  0  0  0  0  0  0  0
  -31.3231  -21.7595   20.6898 N   0  0  0  0  0  0  0  0  0  0  0  0
  -31.9299  -24.0774   20.9478 N   0  0  0  0  0  0  0  0  0  0  0  0
  -27.0302  -10.9669   18.8835 N   0  0  0  0  0  0  0  0  0  0  0  0
  -23.4547  -30.1087   20.8628 N   0  0  0  0  0  0  0  0  0  0  0  0
  -28.4742  -14.4562   19.5299 N   0  0  0  0  0  0  0  0  0  0  0  0
  -28.6772  -16.8279   19.5134 N   0  0  0  0  0  0  0  0  0  0  0  0
  -27.5977   -9.9609   16.8155 N   0  0  0  0  0  0  0  0  0  0  0  0
  -24.2650   -7.3392   18.3697 N   0  0  0  0  0  0  0  0  0  0  0  0
  -30.2504  -25.7391   21.1396 N   0  0  0  0  0  0  0  0  0  0  0  0
  -23.7047  -30.4112   24.4880 N   0  0  0  0  0  0  0  0  0  0  0  0
  -21.6524  -30.0508   17.9981 N   0  0  0  0  0  0  0  0  0  0  0  0
  -29.6228  -19.6676   20.8196 N   0  3  0  0  0  0  0  0  0  0  0  0
  -23.1851  -31.6733   15.1544 N   0  3  0  0  0  0  0  0  0  0  0  0
  -25.7458   -7.6418   16.6451 O   0  0  0  0  0  0  0  0  0  0  0  0
  -23.3180  -28.6806   22.9788 O   0  0  0  0  0  0  0  0  0  0  0  0
  -21.2579  -30.8757   20.7133 O   0  0  0  0  0  0  0  0  0  0  0  0
  -23.5492  -29.4322   16.8162 O   0  0  0  0  0  0  0  0  0  0  0  0
  -27.2158  -15.7892   18.1304 O   0  0  0  0  0  0  0  0  0  0  0  0
  -21.5121   -8.0090   23.1664 O   0  0  0  0  0  0  0  0  0  0  0  0
  -29.3166  -28.2590   20.2492 O   0  0  0  0  0  0  0  0  0  1  0  0
  -21.2637   -2.6076   24.2467 F   0  0  0  0  0  0  0  0  0  0  0  0
  -21.0800   -6.1762   21.1424 F   0  0  0  0  0  0  0  0  0  0  0  0
  1  2  1  0  0  0  0
  1  5  2  0  0  0  0
  2  6  2  0  0  0  0
  3  8  2  0  0  0  0
  3 15  1  0  0  0  0
  4  9  1  0  0  0  0
  4 15  2  0  0  0  0
  5 17  1  0  0  0  0
  6 19  1  0  0  0  0
  7 10  2  0  0  0  0
  7 18  1  0  0  0  0
  8 22  1  0  0  0  0
  9 22  2  0  0  0  0
 10 23  1  0  0  0  0
 11 12  2  0  0  0  0
 11 24  1  0  0  0  0
 12 25  1  0  0  0  0
 13 20  1  0  0  0  0
 13 23  2  0  0  0  0
 14 25  2  0  0  0  0
 14 26  1  0  0  0  0
 15 27  1  0  0  0  0
 16 27  1  0  0  0  0
 16 30  2  0  0  0  0
 16 32  1  0  0  0  0
 17 19  2  0  0  0  0
 17 37  1  0  0  0  0
 18 20  2  0  0  0  0
 18 38  1  0  0  0  0
 19 48  1  0  0  0  0
 20 39  1  0  0  0  0
 21 28  1  0  0  0  0
 21 29  2  0  0  0  0
 21 52  1  0  0  0  0
 22 84  1  0  0  0  0
 23 85  1  0  0  0  0
 24 26  2  0  0  0  0
 24 84  1  0  0  0  0
 25 86  1  0  0  0  0
 26 87  1  0  0  0  0
 27 65  2  0  0  0  0
 28 59  1  0  0  0  0
 28 66  2  0  0  0  0
 29 67  1  0  0  0  0
 29 74  1  0  0  0  0
 30 68  1  0  0  0  0
 30 72  1  0  0  0  0
 31 53  1  0  0  0  0
 31 66  1  0  0  0  0
 31 67  2  0  0  0  0
 32 73  1  0  0  0  0
 32 79  2  0  0  0  0
 33 49  1  0  0  0  0
 33 75  1  0  0  0  0
 33 80  2  0  0  0  0
 34 62  1  0  0  0  0
 34 69  1  0  0  0  0
 34 81  2  0  0  0  0
 35 63  1  0  0  0  0
 35 76  1  0  0  0  0
 35 82  2  0  0  0  0
 36 70  1  0  0  0  0
 36 71  1  0  0  0  0
 36 83  2  0  0  0  0
 37 40  1  0  0  0  0
 38 49  1  0  0  0  0
 39 69  1  0  0  0  0
 40 42  1  0  0  0  0
 41 43  1  0  0  0  0
 41 44  1  0  0  0  0
 42 48  1  0  0  0  0
 43 50  1  0  0  0  0
 44 70  1  0  0  0  0
 45 50  1  0  0  0  0
 45 70  1  0  0  0  0
 46 51  1  0  0  0  0
 46 71  1  0  0  0  0
 47 51  1  0  0  0  0
 47 71  1  0  0  0  0
 48 75  1  0  0  0  0
 49 69  1  0  0  0  0
 50 68  1  0  0  0  0
 51 77  1  0  0  0  0
 54 63  1  0  0  0  0
 55 64  1  0  0  0  0
 56 64  1  0  0  0  0
 57 64  1  0  0  0  0
 58 78  1  0  0  0  0
 59 77  1  0  0  0  0
 60 61  1  0  0  0  0
 60 74  1  0  0  0  0
 61 85  1  0  0  0  0
 62 64  1  0  0  0  0
 62 76  1  0  0  0  0
 63 78  1  0  0  0  0
 65 68  1  0  0  0  0
M  CHG  2  77   1  78   1
M  ISO  4  36 100  61 101  71 100  85 101
M  END
> <Batch ID>
0184

> <Smiles>
CNC(C)C(=O)NC(C(=O)N1Cc2cc([101O:1][101CH2:1]CNc3nc(C)nc(CNC4C[100N:0]([100C:0](=O)N5CCCC(n6nc(-c7ccc(Oc8ccc(F)cc8F)cc7)c(C(N)=O)c6N)C5)C4)c3C)ccc2CC1C(=O)NC1CCCc2ccccc21)C(C)(C)C

> <Shape>
0.285

> <Color>
0.086

> <Negative vol penalty>
0.000

$$$$

  -OEChem-04052323103D

 86 95  0     1  0  0  0  0  0999 V2000
  -21.1136  -34.1169   15.5016 C   0  0  0  0  0  0  0  0  0  0  0  0
  -21.9796  -33.0294   15.5556 C   0  0  0  0  0  0  0  0  0  0  0  0
  -22.9478  -10.3536   20.4931 C   0  0  0  0  0  0  0  0  0  0  0  0
  -23.2874  -10.1472   22.8762 C   0  0  0  0  0  0  0  0  0  0  0  0
  -21.1913  -35.1171   16.4698 C   0  0  0  0  0  0  0  0  0  0  0  0
  -22.9246  -32.9421   16.5773 C   0  0  0  0  0  0  0  0  0  0  0  0
  -24.9175  -27.8435   19.3229 C   0  0  0  0  0  0  0  0  0  0  0  0
  -22.9394   -8.9639   20.3739 C   0  0  0  0  0  0  0  0  0  0  0  0
  -23.2790   -8.7574   22.7570 C   0  0  0  0  0  0  0  0  0  0  0  0
  -26.0583  -27.0636   19.1387 C   0  0  0  0  0  0  0  0  0  0  0  0
  -20.9818   -6.3019   22.4197 C   0  0  0  0  0  0  0  0  0  0  0  0
  -20.2347   -5.5778   23.3488 C   0  0  0  0  0  0  0  0  0  0  0  0
  -27.1473  -28.2418   20.9402 C   0  0  0  0  0  0  0  0  0  0  0  0
  -29.5097  -24.5300   20.3238 C   0  0  0  0  0  0  0  0  0  0  0  0
  -22.2365   -4.4288   24.0629 C   0  0  0  0  0  0  0  0  0  0  0  0
  -23.1218  -10.9453   21.7443 C   0  0  0  0  0  0  0  0  0  0  0  0
  -22.0257  -13.2213   22.0985 C   0  0  0  0  0  0  0  0  0  0  0  0
  -22.1313  -35.0372   17.5094 C   0  0  0  0  0  0  0  0  0  0  0  0
  -24.8868  -28.8375   20.3116 C   0  0  0  0  0  0  0  0  0  0  0  0
  -23.0158  -33.9429   17.5595 C   0  0  0  0  0  0  0  0  0  0  0  0
  -26.0039  -29.0312   21.1366 C   0  0  0  0  0  0  0  0  0  0  0  0
  -29.5822  -23.3495   21.0549 C   0  0  0  0  0  0  0  0  0  0  0  0
  -28.5434  -23.0044   21.9124 C   0  0  0  0  0  0  0  0  0  0  0  0
  -23.1050   -8.1658   21.5058 C   0  0  0  0  0  0  0  0  0  0  0  0
  -27.1745  -27.2646   19.9455 C   0  0  0  0  0  0  0  0  0  0  0  0
  -22.3562   -6.0894   22.3122 C   0  0  0  0  0  0  0  0  0  0  0  0
  -20.8621   -4.6412   24.1704 C   0  0  0  0  0  0  0  0  0  0  0  0
  -22.9835   -5.1529   23.1338 C   0  0  0  0  0  0  0  0  0  0  0  0
  -23.1312  -12.3808   21.8680 C   0  0  0  0  0  0  0  0  0  0  0  0
  -28.3858  -25.3243   20.4846 C   0  0  0  0  0  0  0  0  0  1  0  0
  -27.4628  -23.8670   22.0021 C   0  0  0  0  0  0  0  0  0  0  0  0
  -22.5580  -14.4870   22.1332 C   0  0  0  0  0  0  0  0  0  0  0  0
  -20.6414  -12.8879   22.2665 C   0  0  0  0  0  0  0  0  0  0  0  0
  -24.5408  -31.9972   20.3057 C   0  0  0  0  0  0  0  0  0  0  0  0
  -24.4926  -31.6073   23.5257 C   0  0  0  0  0  0  0  0  0  0  0  0
  -25.3566  -29.7100   26.2276 C   0  0  0  0  0  0  0  0  0  0  0  0
  -26.4274  -17.9044   24.0759 C   0  0  0  0  0  0  0  0  0  0  0  0
  -22.2091  -36.1664   18.5061 C   0  0  0  0  0  0  0  0  0  0  0  0
  -23.6390  -29.6523   20.5153 C   0  0  0  0  0  0  0  0  0  0  0  0
  -26.0146  -30.0716   22.2256 C   0  0  0  0  0  0  0  0  0  0  0  0
  -22.9888  -35.8111   19.7695 C   0  0  0  0  0  0  0  0  0  0  0  0
  -27.1327  -16.1853   20.8782 C   0  0  0  0  0  0  0  0  0  0  0  0
  -24.2980  -35.1153   19.4108 C   0  0  0  0  0  0  0  0  0  0  0  0
  -26.0910  -15.0715   20.9103 C   0  0  0  0  0  0  0  0  0  0  0  0
  -27.7309  -19.6996   26.3897 C   0  0  0  0  0  0  0  0  0  0  0  0
  -28.6487  -20.9400   26.4307 C   0  0  0  0  0  0  0  0  0  0  0  0
  -27.6409  -16.5387   22.2755 C   0  0  0  0  0  0  0  0  0  0  0  0
  -25.5058  -15.7564   23.2678 C   0  0  0  0  0  0  0  0  0  0  0  0
  -24.0379  -33.8001   18.6664 C   0  0  1  0  0  0  0  0  0  0  0  0
  -23.9019  -30.9836   21.2124 C   0  0  1  0  0  0  0  0  0  0  0  0
  -24.9494  -15.4267   21.8745 C   0  0  2  0  0  0  0  0  0  0  0  0
  -27.5187  -19.9942   24.8853 C   0  0  1  0  0  0  0  0  0  0  0  0
  -28.8884  -20.7173   24.9208 C   0  0  1  0  0  0  0  0  0  0  0  0
  -30.7817  -22.4736   20.9020 C   0  0  0  0  0  0  0  0  0  0  0  0
  -25.2135  -29.6688   28.7326 C   0  0  0  0  0  0  0  0  0  0  0  0
  -26.7239  -33.6824   23.6848 C   0  0  0  0  0  0  0  0  0  0  0  0
  -27.1792  -32.9115   26.0228 C   0  0  0  0  0  0  0  0  0  0  0  0
  -24.9645  -33.9051   25.4481 C   0  0  0  0  0  0  0  0  0  0  0  0
  -23.7796  -27.2056   26.2122 C   0  0  0  0  0  0  0  0  0  0  0  0
  -30.2003  -22.7152   24.3498 C   0  0  0  0  0  0  0  0  0  0  0  0
  -28.6044  -21.7412   22.7051 C   0  0  0  0  0  0  0  0  0  0  0  0
  -25.5366  -31.5873   24.6159 C   0  0  1  0  0  0  0  0  0  0  0  0
  -24.5545  -29.2444   27.4294 C   0  0  2  0  0  0  0  0  0  0  0  0
  -26.1019  -33.0032   24.9212 C   0  0  0  0  0  0  0  0  0  0  0  0
  -24.2791  -13.0556   21.7634 N   0  0  0  0  0  0  0  0  0  0  0  0
  -27.3569  -25.0222   21.3078 N   0  0  0  0  0  0  0  0  0  0  0  0
  -23.8978  -14.3336   21.9289 N   0  0  0  0  0  0  0  0  0  0  0  0
  -24.7730  -30.8472   22.3814 N   0  0  0  0  0  0  0  0  0  0  0  0
  -26.5332  -16.8033   23.2074 N   0  0  0  0  0  0  0  0  0  0  0  0
  -22.0061  -15.7050   22.3181 N   0  0  0  0  0  0  0  0  0  0  0  0
  -20.2665  -11.5389   22.2022 N   0  0  0  0  0  0  0  0  0  0  0  0
  -23.6379  -32.7645   19.5947 N   0  0  0  0  0  0  0  0  0  0  0  0
  -24.9171  -30.9313   25.7623 N   0  0  0  0  0  0  0  0  0  0  0  0
  -27.4826  -18.8107   24.0392 N   0  0  0  0  0  0  0  0  0  0  0  0
  -24.4321  -27.7591   27.4266 N   0  3  0  0  0  0  0  0  0  0  0  0
  -28.9105  -21.9626   24.1450 N   0  3  1  0  0  0  0  0  0  0  0  0
  -19.7606  -13.7617   22.4511 O   0  0  0  0  0  0  0  0  0  0  0  0
  -25.7626  -32.0783   20.2561 O   0  0  0  0  0  0  0  0  0  0  0  0
  -23.4629  -32.2672   23.6865 O   0  0  0  0  0  0  0  0  0  0  0  0
  -26.2829  -29.0574   25.7516 O   0  0  0  0  0  0  0  0  0  0  0  0
  -25.4681  -18.0703   24.8371 O   0  0  0  0  0  0  0  0  0  0  0  0
  -23.0966   -6.8097   21.3898 O   0  0  0  0  0  0  0  0  0  0  0  0
  -28.2896  -26.5051   19.7674 O   0  0  0  0  0  0  0  0  0  1  0  0
  -20.1448   -3.9471   25.0636 F   0  0  0  0  0  0  0  0  0  0  0  0
  -24.3038   -4.9453   23.0359 F   0  0  0  0  0  0  0  0  0  0  0  0
  -26.1161  -23.5534   23.0259 Cl  0  0  0  0  0  0  0  0  0  0  0  0
  1  2  1  0  0  0  0
  1  5  2  0  0  0  0
  2  6  2  0  0  0  0
  3  8  2  0  0  0  0
  3 16  1  0  0  0  0
  4  9  1  0  0  0  0
  4 16  2  0  0  0  0
  5 18  1  0  0  0  0
  6 20  1  0  0  0  0
  7 10  2  0  0  0  0
  7 19  1  0  0  0  0
  8 24  1  0  0  0  0
  9 24  2  0  0  0  0
 10 25  1  0  0  0  0
 11 12  2  0  0  0  0
 11 26  1  0  0  0  0
 12 27  1  0  0  0  0
 13 21  1  0  0  0  0
 13 25  2  0  0  0  0
 14 22  2  0  0  0  0
 14 30  1  0  0  0  0
 15 27  2  0  0  0  0
 15 28  1  0  0  0  0
 16 29  1  0  0  0  0
 17 29  1  0  0  0  0
 17 32  2  0  0  0  0
 17 33  1  0  0  0  0
 18 20  2  0  0  0  0
 18 38  1  0  0  0  0
 19 21  2  0  0  0  0
 19 39  1  0  0  0  0
 20 49  1  0  0  0  0
 21 40  1  0  0  0  0
 22 23  1  0  0  0  0
 22 54  1  0  0  0  0
 23 31  2  0  0  0  0
 23 61  1  0  0  0  0
 24 82  1  0  0  0  0
 25 83  1  0  0  0  0
 26 28  2  0  0  0  0
 26 82  1  0  0  0  0
 27 84  1  0  0  0  0
 28 85  1  0  0  0  0
 29 65  2  0  0  0  0
 30 66  2  0  0  0  0
 30 83  1  0  0  0  0
 31 66  1  0  0  0  0
 31 86  1  0  0  0  0
 32 67  1  0  0  0  0
 32 70  1  0  0  0  0
 33 71  1  0  0  0  0
 33 77  2  0  0  0  0
 34 50  1  0  0  0  0
 34 72  1  0  0  0  0
 34 78  2  0  0  0  0
 35 62  1  0  0  0  0
 35 68  1  0  0  0  0
 35 79  2  0  0  0  0
 36 63  1  0  0  0  0
 36 73  1  0  0  0  0
 36 80  2  0  0  0  0
 37 69  1  0  0  0  0
 37 74  1  0  0  0  0
 37 81  2  0  0  0  0
 38 41  1  0  0  0  0
 39 50  1  0  0  0  0
 40 68  1  0  0  0  0
 41 43  1  0  0  0  0
 42 44  1  0  0  0  0
 42 47  1  0  0  0  0
 43 49  1  0  0  0  0
 44 51  1  0  0  0  0
 45 46  1  0  0  0  0
 45 52  1  0  0  0  0
 46 53  1  0  0  0  0
 47 69  1  0  0  0  0
 48 51  1  0  0  0  0
 48 69  1  0  0  0  0
 49 72  1  0  0  0  0
 50 68  1  0  0  0  0
 51 67  1  0  0  0  0
 52 53  1  0  0  0  0
 52 74  1  0  0  0  0
 53 76  1  0  0  0  0
 55 63  1  0  0  0  0
 56 64  1  0  0  0  0
 57 64  1  0  0  0  0
 58 64  1  0  0  0  0
 59 75  1  0  0  0  0
 60 76  1  0  0  0  0
 61 76  1  0  0  0  0
 62 64  1  0  0  0  0
 62 73  1  0  0  0  0
 63 75  1  0  0  0  0
 65 67  1  0  0  0  0
M  CHG  2  75   1  76   1
M  ISO  4  30 101  37 100  74 100  83 101
M  END
> <Batch ID>
0184

> <Smiles>
CNC(C)C(=O)NC(C(=O)N1Cc2cc([101O:1][101c:1]3cc(C)c(CN(C)C4CCC4[100NH:0][100C:0](=O)N4CCCC(n5nc(-c6ccc(Oc7ccc(F)cc7F)cc6)c(C(N)=O)c5N)C4)c(Cl)n3)ccc2CC1C(=O)NC1CCCc2ccccc21)C(C)(C)C

> <Shape>
0.237

> <Color>
0.103

> <Negative vol penalty>
0.000

$$$$

  -OEChem-04052323103D

 79 88  0     1  0  0  0  0  0999 V2000
  -29.0521  -30.6163   20.3045 C   0  0  0  0  0  0  0  0  0  0  0  0
  -29.5970  -29.3545   20.5143 C   0  0  0  0  0  0  0  0  0  0  0  0
  -23.0085  -15.5612   20.5823 C   0  0  0  0  0  0  0  0  0  0  0  0
  -22.5496  -13.9288   18.8613 C   0  0  0  0  0  0  0  0  0  0  0  0
  -27.6793  -30.7551   20.1109 C   0  0  0  0  0  0  0  0  0  0  0  0
  -28.7710  -28.2300   20.5187 C   0  0  0  0  0  0  0  0  0  0  0  0
  -30.0484  -22.3814   21.6545 C   0  0  0  0  0  0  0  0  0  0  0  0
  -21.9655  -16.3559   20.1067 C   0  0  0  0  0  0  0  0  0  0  0  0
  -21.5065  -14.7235   18.3857 C   0  0  0  0  0  0  0  0  0  0  0  0
  -30.0569  -21.5247   22.7545 C   0  0  0  0  0  0  0  0  0  0  0  0
  -19.1920  -18.6437   19.5694 C   0  0  0  0  0  0  0  0  0  0  0  0
  -18.3183  -19.1959   20.5061 C   0  0  0  0  0  0  0  0  0  0  0  0
  -27.8567  -20.7399   22.1526 C   0  0  0  0  0  0  0  0  0  0  0  0
  -17.7168  -16.9781   21.2523 C   0  0  0  0  0  0  0  0  0  0  0  0
  -23.3006  -14.3476   19.9596 C   0  0  0  0  0  0  0  0  0  0  0  0
  -24.3005  -12.5170   21.4281 C   0  0  0  0  0  0  0  0  0  0  0  0
  -26.8352  -29.6325   20.1256 C   0  0  0  0  0  0  0  0  0  0  0  0
  -28.9376  -22.4317   20.8001 C   0  0  0  0  0  0  0  0  0  0  0  0
  -27.3862  -28.3468   20.3014 C   0  0  0  0  0  0  0  0  0  0  0  0
  -27.8376  -21.5962   21.0410 C   0  0  0  0  0  0  0  0  0  0  0  0
  -21.2145  -15.9370   19.0084 C   0  0  0  0  0  0  0  0  0  0  0  0
  -28.9597  -20.7059   23.0053 C   0  0  0  0  0  0  0  0  0  0  0  0
  -19.3281  -17.2587   19.4741 C   0  0  0  0  0  0  0  0  0  0  0  0
  -17.5808  -18.3631   21.3475 C   0  0  0  0  0  0  0  0  0  0  0  0
  -18.5905  -16.4260   20.3156 C   0  0  0  0  0  0  0  0  0  0  0  0
  -24.3782  -13.5265   20.4501 C   0  0  0  0  0  0  0  0  0  0  0  0
  -25.5850  -12.0424   21.5345 C   0  0  0  0  0  0  0  0  0  0  0  0
  -23.1684  -12.0498   22.1736 C   0  0  0  0  0  0  0  0  0  0  0  0
  -26.8483  -24.6778   19.9671 C   0  0  0  0  0  0  0  0  0  0  0  0
  -25.8230  -22.4050   17.8922 C   0  0  0  0  0  0  0  0  0  0  0  0
  -25.5967  -19.0925   17.1031 C   0  0  0  0  0  0  0  0  0  0  0  0
  -30.9013  -14.5684   20.3615 C   0  0  0  0  0  0  0  0  0  0  0  0
  -25.3578  -29.8392   19.9030 C   0  0  0  0  0  0  0  0  0  0  0  0
  -28.9550  -23.3418   19.6027 C   0  0  0  0  0  0  0  0  0  0  0  0
  -26.6289  -21.5976   20.1425 C   0  0  0  0  0  0  0  0  0  0  0  0
  -24.5155  -28.6544   20.3644 C   0  0  0  0  0  0  0  0  0  0  0  0
  -29.6106  -11.5097   18.9905 C   0  0  0  0  0  0  0  0  0  0  0  0
  -25.0877  -27.3606   19.8047 C   0  0  0  0  0  0  0  0  0  0  0  0
  -28.1112  -11.5902   19.2859 C   0  0  0  0  0  0  0  0  0  0  0  0
  -30.8567  -15.8592   24.6721 C   0  0  0  0  0  0  0  0  0  0  0  0
  -30.2090  -12.8840   18.6920 C   0  0  0  0  0  0  0  0  0  0  0  0
  -28.4392  -13.9890   19.9911 C   0  0  0  0  0  0  0  0  0  0  0  0
  -29.5326  -15.4821   22.4027 C   0  0  0  0  0  0  0  0  0  0  0  0
  -31.4597  -16.3175   22.1336 C   0  0  0  0  0  0  0  0  0  0  0  0
  -26.5033  -27.1126   20.3407 C   0  0  1  0  0  0  0  0  0  0  0  0
  -27.5588  -23.6843   19.0921 C   0  0  1  0  0  0  0  0  0  0  0  0
  -30.2489  -17.1964   24.3298 C   0  0  1  0  0  0  0  0  0  0  0  0
  -27.8113  -12.6405   20.3727 C   0  0  1  0  0  0  0  0  0  0  0  0
  -30.5099  -16.1924   23.2548 C   0  0  0  0  0  0  0  0  0  0  0  0
  -25.0731  -17.0554   15.7342 C   0  0  0  0  0  0  0  0  0  0  0  0
  -23.0228  -22.8002   19.0378 C   0  0  0  0  0  0  0  0  0  0  0  0
  -22.3594  -20.6301   17.9802 C   0  0  0  0  0  0  0  0  0  0  0  0
  -23.1052  -22.5348   16.5524 C   0  0  0  0  0  0  0  0  0  0  0  0
  -28.2347  -19.1720   15.7638 C   0  0  0  0  0  0  0  0  0  0  0  0
  -28.2228  -18.6568   23.9613 C   0  0  0  0  0  0  0  0  0  1  0  0
  -24.8081  -21.2887   17.9450 C   0  0  1  0  0  0  0  0  0  0  0  0
  -25.8792  -18.3425   15.8138 C   0  0  2  0  0  0  0  0  0  0  0  0
  -28.8601  -17.5151   24.7644 C   0  0  2  0  0  0  0  0  0  0  0  0
  -23.3457  -21.8146   17.8971 C   0  0  0  0  0  0  0  0  0  0  0  0
  -25.6144  -13.6849   19.9696 N   0  0  0  0  0  0  0  0  0  0  0  0
  -26.3252  -12.7685   20.6486 N   0  0  0  0  0  0  0  0  0  0  0  0
  -26.6911  -22.5094   18.9882 N   0  0  0  0  0  0  0  0  0  0  0  0
  -29.8789  -13.8322   19.7592 N   0  0  0  0  0  0  0  0  0  0  0  0
  -30.5744  -15.4248   21.3867 N   0  0  0  0  0  0  0  0  0  0  0  0
  -26.1422  -11.0790   22.2986 N   0  0  0  0  0  0  0  0  0  0  0  0
  -21.9221  -12.6472   21.9404 N   0  0  0  0  0  0  0  0  0  0  0  0
  -27.0881  -25.9964   19.6308 N   0  0  0  0  0  0  0  0  0  0  0  0
  -25.1501  -20.3743   16.8609 N   0  0  0  0  0  0  0  0  0  0  0  0
  -28.7454  -17.8586   26.2188 N   0  3  0  0  0  0  0  0  0  0  0  0
  -27.3260  -17.9974   15.7217 N   0  3  0  0  0  0  0  0  0  0  0  0
  -23.2624  -11.1412   23.0333 O   0  0  0  0  0  0  0  0  0  0  0  0
  -26.1341  -24.2776   20.8790 O   0  0  0  0  0  0  0  0  0  0  0  0
  -25.8494  -23.1523   16.9111 O   0  0  0  0  0  0  0  0  0  0  0  0
  -25.7528  -18.5900   18.2138 O   0  0  0  0  0  0  0  0  0  0  0  0
  -32.0844  -14.4421   20.0178 O   0  0  0  0  0  0  0  0  0  0  0  0
  -20.1965  -16.7121   18.5442 O   0  0  0  0  0  0  0  0  0  0  0  0
  -28.9652  -19.8635   24.0860 O   0  0  0  0  0  0  0  0  0  1  0  0
  -16.7429  -18.8935   22.2480 F   0  0  0  0  0  0  0  0  0  0  0  0
  -18.7179  -15.0947   20.2295 F   0  0  0  0  0  0  0  0  0  0  0  0
  1  2  1  0  0  0  0
  1  5  2  0  0  0  0
  2  6  2  0  0  0  0
  3  8  2  0  0  0  0
  3 15  1  0  0  0  0
  4  9  1  0  0  0  0
  4 15  2  0  0  0  0
  5 17  1  0  0  0  0
  6 19  1  0  0  0  0
  7 10  2  0  0  0  0
  7 18  1  0  0  0  0
  8 21  1  0  0  0  0
  9 21  2  0  0  0  0
 10 22  1  0  0  0  0
 11 12  2  0  0  0  0
 11 23  1  0  0  0  0
 12 24  1  0  0  0  0
 13 20  1  0  0  0  0
 13 22  2  0  0  0  0
 14 24  2  0  0  0  0
 14 25  1  0  0  0  0
 15 26  1  0  0  0  0
 16 26  1  0  0  0  0
 16 27  2  0  0  0  0
 16 28  1  0  0  0  0
 17 19  2  0  0  0  0
 17 33  1  0  0  0  0
 18 20  2  0  0  0  0
 18 34  1  0  0  0  0
 19 45  1  0  0  0  0
 20 35  1  0  0  0  0
 21 76  1  0  0  0  0
 22 77  1  0  0  0  0
 23 25  2  0  0  0  0
 23 76  1  0  0  0  0
 24 78  1  0  0  0  0
 25 79  1  0  0  0  0
 26 60  2  0  0  0  0
 27 61  1  0  0  0  0
 27 65  1  0  0  0  0
 28 66  1  0  0  0  0
 28 71  2  0  0  0  0
 29 46  1  0  0  0  0
 29 67  1  0  0  0  0
 29 72  2  0  0  0  0
 30 56  1  0  0  0  0
 30 62  1  0  0  0  0
 30 73  2  0  0  0  0
 31 57  1  0  0  0  0
 31 68  1  0  0  0  0
 31 74  2  0  0  0  0
 32 63  1  0  0  0  0
 32 64  1  0  0  0  0
 32 75  2  0  0  0  0
 33 36  1  0  0  0  0
 34 46  1  0  0  0  0
 35 62  1  0  0  0  0
 36 38  1  0  0  0  0
 37 39  1  0  0  0  0
 37 41  1  0  0  0  0
 38 45  1  0  0  0  0
 39 48  1  0  0  0  0
 40 47  1  0  0  0  0
 40 49  1  0  0  0  0
 41 63  1  0  0  0  0
 42 48  1  0  0  0  0
 42 63  1  0  0  0  0
 43 49  1  0  0  0  0
 43 64  1  0  0  0  0
 44 49  1  0  0  0  0
 44 64  1  0  0  0  0
 45 67  1  0  0  0  0
 46 62  1  0  0  0  0
 47 49  1  0  0  0  0
 47 58  1  0  0  0  0
 48 61  1  0  0  0  0
 50 57  1  0  0  0  0
 51 59  1  0  0  0  0
 52 59  1  0  0  0  0
 53 59  1  0  0  0  0
 54 70  1  0  0  0  0
 55 58  1  0  0  0  0
 55 77  1  0  0  0  0
 56 59  1  0  0  0  0
 56 68  1  0  0  0  0
 57 70  1  0  0  0  0
 58 69  1  0  0  0  0
 60 61  1  0  0  0  0
M  CHG  2  69   1  70   1
M  ISO  4  32 100  55 101  64 100  77 101
M  END
> <Batch ID>
0184

> <Smiles>
CNC(C)C(=O)NC(C(=O)N1Cc2cc([101O:1][101CH2:1]C(N)C3CC34C[100N:0]([100C:0](=O)N3CCCC(n5nc(-c6ccc(Oc7ccc(F)cc7F)cc6)c(C(N)=O)c5N)C3)C4)ccc2CC1C(=O)NC1CCCc2ccccc21)C(C)(C)C

> <Shape>
0.186

> <Color>
0.095

> <Negative vol penalty>
0.000

$$$$

  -OEChem-04052323103D

 83 92  0     1  0  0  0  0  0999 V2000
  -23.5748  -30.9583   13.2933 C   0  0  0  0  0  0  0  0  0  0  0  0
  -24.4708  -30.2880   14.1200 C   0  0  0  0  0  0  0  0  0  0  0  0
  -23.5065   -9.7160   19.8992 C   0  0  0  0  0  0  0  0  0  0  0  0
  -24.0105   -9.8617   22.2576 C   0  0  0  0  0  0  0  0  0  0  0  0
  -23.1787  -32.2582   13.6054 C   0  0  0  0  0  0  0  0  0  0  0  0
  -24.9722  -30.9178   15.2586 C   0  0  0  0  0  0  0  0  0  0  0  0
  -24.9399  -27.8966   19.3227 C   0  0  0  0  0  0  0  0  0  0  0  0
  -23.3287   -8.3380   20.0223 C   0  0  0  0  0  0  0  0  0  0  0  0
  -23.8326   -8.4837   22.3807 C   0  0  0  0  0  0  0  0  0  0  0  0
  -25.9516  -26.9417   19.4142 C   0  0  0  0  0  0  0  0  0  0  0  0
  -21.2485   -6.3180   22.6101 C   0  0  0  0  0  0  0  0  0  0  0  0
  -20.5001   -5.8569   23.6931 C   0  0  0  0  0  0  0  0  0  0  0  0
  -27.1523  -28.3690   20.9439 C   0  0  0  0  0  0  0  0  0  0  0  0
  -22.4073   -4.5957   24.4739 C   0  0  0  0  0  0  0  0  0  0  0  0
  -23.8474  -10.4778   21.0169 C   0  0  0  0  0  0  0  0  0  0  0  0
  -23.0526  -12.9017   21.0379 C   0  0  0  0  0  0  0  0  0  0  0  0
  -23.6680  -32.9006   14.7536 C   0  0  0  0  0  0  0  0  0  0  0  0
  -25.0323  -29.1017   20.0338 C   0  0  0  0  0  0  0  0  0  0  0  0
  -24.5833  -32.2280   15.5856 C   0  0  0  0  0  0  0  0  0  0  0  0
  -26.1393  -29.3366   20.8617 C   0  0  0  0  0  0  0  0  0  0  0  0
  -23.4917   -7.7218   21.2630 C   0  0  0  0  0  0  0  0  0  0  0  0
  -27.0594  -27.1790   20.2226 C   0  0  0  0  0  0  0  0  0  0  0  0
  -22.5762   -5.9180   22.4589 C   0  0  0  0  0  0  0  0  0  0  0  0
  -21.0795   -4.9958   24.6250 C   0  0  0  0  0  0  0  0  0  0  0  0
  -23.1556   -5.0569   23.3908 C   0  0  0  0  0  0  0  0  0  0  0  0
  -24.0318  -11.9012   20.8902 C   0  0  0  0  0  0  0  0  0  0  0  0
  -23.7281  -14.0779   20.8217 C   0  0  0  0  0  0  0  0  0  0  0  0
  -31.2165  -23.6284   19.4867 C   0  0  0  0  0  0  0  0  0  0  0  0
  -29.0570  -24.1485   19.8070 C   0  0  0  0  0  0  0  0  0  0  0  0
  -29.9297  -22.3274   20.7862 C   0  0  0  0  0  0  0  0  0  0  0  0
  -21.6571  -12.7789   21.3432 C   0  0  0  0  0  0  0  0  0  0  0  0
  -25.1798  -32.1739   19.2317 C   0  0  0  0  0  0  0  0  0  0  0  0
  -24.9701  -32.6194   22.4379 C   0  0  0  0  0  0  0  0  0  0  0  0
  -25.4443  -31.3617   25.5748 C   0  0  0  0  0  0  0  0  0  0  0  0
  -28.1085  -17.2481   21.9109 C   0  0  0  0  0  0  0  0  0  0  0  0
  -23.2475  -34.3235   15.0242 C   0  0  0  0  0  0  0  0  0  0  0  0
  -23.9198  -30.1101   19.9452 C   0  0  0  0  0  0  0  0  0  0  0  0
  -26.2764  -30.6055   21.6614 C   0  0  0  0  0  0  0  0  0  0  0  0
  -23.5357  -34.7830   16.4511 C   0  0  0  0  0  0  0  0  0  0  0  0
  -28.3520  -14.9524   19.0215 C   0  0  0  0  0  0  0  0  0  0  0  0
  -24.9514  -34.3913   16.8624 C   0  0  0  0  0  0  0  0  0  0  0  0
  -27.1951  -14.0004   19.3075 C   0  0  0  0  0  0  0  0  0  0  0  0
  -29.0081  -15.4627   20.3039 C   0  0  0  0  0  0  0  0  0  0  0  0
  -26.8840  -15.1313   21.5421 C   0  0  0  0  0  0  0  0  0  0  0  0
  -28.5970  -20.4423   21.7867 C   0  0  0  0  0  0  0  0  0  0  0  0
  -30.6695  -20.1017   21.6969 C   0  0  0  0  0  0  0  0  0  0  0  0
  -25.1301  -32.8684   16.8430 C   0  0  1  0  0  0  0  0  0  0  0  0
  -24.3633  -31.5229   20.3121 C   0  0  1  0  0  0  0  0  0  0  0  0
  -26.1831  -14.6510   20.2623 C   0  0  2  0  0  0  0  0  0  0  0  0
  -29.4982  -19.3060   22.2902 C   0  0  0  0  0  0  0  0  0  0  0  0
  -32.5381  -23.9277   18.8656 C   0  0  0  0  0  0  0  0  0  0  0  0
  -25.2175  -31.9742   27.9978 C   0  0  0  0  0  0  0  0  0  0  0  0
  -27.4895  -34.3291   22.2391 C   0  0  0  0  0  0  0  0  0  0  0  0
  -27.7459  -34.1159   24.7204 C   0  0  0  0  0  0  0  0  0  0  0  0
  -25.7309  -35.2366   23.7682 C   0  0  0  0  0  0  0  0  0  0  0  0
  -23.5000  -29.1844   26.0630 C   0  0  0  0  0  0  0  0  0  0  0  0
  -27.8865  -25.0523   19.5528 C   0  0  0  0  0  0  0  0  0  1  0  0
  -25.9635  -32.7269   23.5696 C   0  0  1  0  0  0  0  0  0  0  0  0
  -24.5423  -31.3329   26.7955 C   0  0  2  0  0  0  0  0  0  0  0  0
  -26.7311  -34.0789   23.5579 C   0  0  0  0  0  0  0  0  0  0  0  0
  -25.2376  -12.3984   20.6023 N   0  0  0  0  0  0  0  0  0  0  0  0
  -30.2152  -24.4808   19.2146 N   0  0  0  0  0  0  0  0  0  0  0  0
  -31.1484  -22.5337   20.2616 N   0  0  0  0  0  0  0  0  0  0  0  0
  -28.8395  -23.0899   20.6038 N   0  0  0  0  0  0  0  0  0  0  0  0
  -25.0205  -13.7242   20.5673 N   0  0  0  0  0  0  0  0  0  0  0  0
  -29.7792  -21.1937   21.6137 N   0  0  0  0  0  0  0  0  0  0  0  0
  -25.1655  -31.5634   21.5365 N   0  0  0  0  0  0  0  0  0  0  0  0
  -28.0168  -16.0151   21.2407 N   0  0  0  0  0  0  0  0  0  0  0  0
  -23.3367  -15.3699   20.8263 N   0  0  0  0  0  0  0  0  0  0  0  0
  -21.1255  -11.4964   21.5353 N   0  0  0  0  0  0  0  0  0  0  0  0
  -24.5283  -32.2738   18.0172 N   0  0  0  0  0  0  0  0  0  0  0  0
  -25.2140  -32.4759   24.7958 N   0  0  0  0  0  0  0  0  0  0  0  0
  -29.2546  -17.9947   21.6553 N   0  0  0  0  0  0  0  0  0  0  0  0
  -24.1917  -29.9278   27.1474 N   0  3  0  0  0  0  0  0  0  0  0  0
  -20.9004  -13.7759   21.4266 O   0  0  0  0  0  0  0  0  0  0  0  0
  -26.3161  -32.5586   19.4819 O   0  0  0  0  0  0  0  0  0  0  0  0
  -24.0503  -33.4378   22.3608 O   0  0  0  0  0  0  0  0  0  0  0  0
  -26.2730  -30.4855   25.3382 O   0  0  0  0  0  0  0  0  0  0  0  0
  -27.2390  -17.6571   22.6880 O   0  0  0  0  0  0  0  0  0  0  0  0
  -23.3180   -6.3773   21.3836 O   0  0  0  0  0  0  0  0  0  0  0  0
  -28.0486  -26.2489   20.3132 O   0  0  0  0  0  0  0  0  0  1  0  0
  -20.3613   -4.5543   25.6659 F   0  0  0  0  0  0  0  0  0  0  0  0
  -24.4310   -4.6700   23.2515 F   0  0  0  0  0  0  0  0  0  0  0  0
  1  2  1  0  0  0  0
  1  5  2  0  0  0  0
  2  6  2  0  0  0  0
  3  8  2  0  0  0  0
  3 15  1  0  0  0  0
  4  9  1  0  0  0  0
  4 15  2  0  0  0  0
  5 17  1  0  0  0  0
  6 19  1  0  0  0  0
  7 10  2  0  0  0  0
  7 18  1  0  0  0  0
  8 21  1  0  0  0  0
  9 21  2  0  0  0  0
 10 22  1  0  0  0  0
 11 12  2  0  0  0  0
 11 23  1  0  0  0  0
 12 24  1  0  0  0  0
 13 20  1  0  0  0  0
 13 22  2  0  0  0  0
 14 24  2  0  0  0  0
 14 25  1  0  0  0  0
 15 26  1  0  0  0  0
 16 26  1  0  0  0  0
 16 27  2  0  0  0  0
 16 31  1  0  0  0  0
 17 19  2  0  0  0  0
 17 36  1  0  0  0  0
 18 20  2  0  0  0  0
 18 37  1  0  0  0  0
 19 47  1  0  0  0  0
 20 38  1  0  0  0  0
 21 80  1  0  0  0  0
 22 81  1  0  0  0  0
 23 25  2  0  0  0  0
 23 80  1  0  0  0  0
 24 82  1  0  0  0  0
 25 83  1  0  0  0  0
 26 61  2  0  0  0  0
 27 65  1  0  0  0  0
 27 69  1  0  0  0  0
 28 51  1  0  0  0  0
 28 62  2  0  0  0  0
 28 63  1  0  0  0  0
 29 57  1  0  0  0  0
 29 62  1  0  0  0  0
 29 64  2  0  0  0  0
 30 63  2  0  0  0  0
 30 64  1  0  0  0  0
 30 66  1  0  0  0  0
 31 70  1  0  0  0  0
 31 75  2  0  0  0  0
 32 48  1  0  0  0  0
 32 71  1  0  0  0  0
 32 76  2  0  0  0  0
 33 58  1  0  0  0  0
 33 67  1  0  0  0  0
 33 77  2  0  0  0  0
 34 59  1  0  0  0  0
 34 72  1  0  0  0  0
 34 78  2  0  0  0  0
 35 68  1  0  0  0  0
 35 73  1  0  0  0  0
 35 79  2  0  0  0  0
 36 39  1  0  0  0  0
 37 48  1  0  0  0  0
 38 67  1  0  0  0  0
 39 41  1  0  0  0  0
 40 42  1  0  0  0  0
 40 43  1  0  0  0  0
 41 47  1  0  0  0  0
 42 49  1  0  0  0  0
 43 68  1  0  0  0  0
 44 49  1  0  0  0  0
 44 68  1  0  0  0  0
 45 50  1  0  0  0  0
 45 66  1  0  0  0  0
 46 50  1  0  0  0  0
 46 66  1  0  0  0  0
 47 71  1  0  0  0  0
 48 67  1  0  0  0  0
 49 65  1  0  0  0  0
 50 73  1  0  0  0  0
 52 59  1  0  0  0  0
 53 60  1  0  0  0  0
 54 60  1  0  0  0  0
 55 60  1  0  0  0  0
 56 74  1  0  0  0  0
 57 81  1  0  0  0  0
 58 60  1  0  0  0  0
 58 72  1  0  0  0  0
 59 74  1  0  0  0  0
 61 65  1  0  0  0  0
M  CHG  1  74   1
M  ISO  4  35 100  57 101  73 100  81 101
M  END
> <Batch ID>
0184

> <Smiles>
CNC(C)C(=O)NC(C(=O)N1Cc2cc([101O:1][101CH2:1]c3nc(C)nc(N4CC([100NH:0][100C:0](=O)N5CCCC(n6nc(-c7ccc(Oc8ccc(F)cc8F)cc7)c(C(N)=O)c6N)C5)C4)n3)ccc2CC1C(=O)NC1CCCc2ccccc21)C(C)(C)C

> <Shape>
0.311

> <Color>
0.106

> <Negative vol penalty>
0.000

$$$$

  -OEChem-04052323103D

 84 93  0     1  0  0  0  0  0999 V2000
  -26.3240  -34.9458   24.4041 C   0  0  0  0  0  0  0  0  0  0  0  0
  -26.8222  -33.7059   24.0172 C   0  0  0  0  0  0  0  0  0  0  0  0
  -22.8547  -13.1533   21.2303 C   0  0  0  0  0  0  0  0  0  0  0  0
  -23.3921  -13.1055   18.8753 C   0  0  0  0  0  0  0  0  0  0  0  0
  -24.9909  -35.0695   24.7932 C   0  0  0  0  0  0  0  0  0  0  0  0
  -25.9878  -32.5886   24.0201 C   0  0  0  0  0  0  0  0  0  0  0  0
  -26.4914  -29.7766   19.8387 C   0  0  0  0  0  0  0  0  0  0  0  0
  -21.5908  -12.6326   20.9525 C   0  0  0  0  0  0  0  0  0  0  0  0
  -22.1283  -12.5847   18.5975 C   0  0  0  0  0  0  0  0  0  0  0  0
  -27.6025  -28.9377   19.7656 C   0  0  0  0  0  0  0  0  0  0  0  0
  -18.3544  -10.9779   20.9001 C   0  0  0  0  0  0  0  0  0  0  0  0
  -17.8863   -9.9442   21.7112 C   0  0  0  0  0  0  0  0  0  0  0  0
  -26.2243  -27.0662   20.4120 C   0  0  0  0  0  0  0  0  0  0  0  0
  -19.7706   -8.5797   21.0599 C   0  0  0  0  0  0  0  0  0  0  0  0
  -32.7380  -24.4211   19.4240 C   0  0  0  0  0  0  0  0  0  0  0  0
  -23.7553  -13.3898   20.1917 C   0  0  0  0  0  0  0  0  0  0  0  0
  -26.2352  -13.2053   20.7606 C   0  0  0  0  0  0  0  0  0  0  0  0
  -24.1372  -33.9551   24.7917 C   0  0  0  0  0  0  0  0  0  0  0  0
  -25.2386  -29.2679   20.2102 C   0  0  0  0  0  0  0  0  0  0  0  0
  -24.6424  -32.6973   24.4109 C   0  0  0  0  0  0  0  0  0  0  0  0
  -25.0984  -27.9004   20.4866 C   0  0  0  0  0  0  0  0  0  0  0  0
  -21.2277  -12.3483   19.6361 C   0  0  0  0  0  0  0  0  0  0  0  0
  -27.4697  -27.5828   20.0551 C   0  0  0  0  0  0  0  0  0  0  0  0
  -19.5307  -10.8125   20.1688 C   0  0  0  0  0  0  0  0  0  0  0  0
  -18.5944   -8.7451   21.7912 C   0  0  0  0  0  0  0  0  0  0  0  0
  -20.2388   -9.6134   20.2487 C   0  0  0  0  0  0  0  0  0  0  0  0
  -25.0608  -13.9282   20.4780 C   0  0  0  0  0  0  0  0  0  0  0  0
  -32.1898  -26.6399   19.5014 C   0  0  0  0  0  0  0  0  0  0  0  0
  -30.8534  -26.3083   19.5430 C   0  0  0  0  0  0  0  0  0  0  0  0
  -31.4017  -24.0894   19.4664 C   0  0  0  0  0  0  0  0  0  0  0  0
  -27.1928  -14.1698   20.9587 C   0  0  0  0  0  0  0  0  0  0  0  0
  -26.4421  -11.7886   20.8370 C   0  0  0  0  0  0  0  0  0  0  0  0
  -23.2246  -29.7981   22.6116 C   0  0  0  0  0  0  0  0  0  0  0  0
  -21.2999  -27.8064   20.9232 C   0  0  0  0  0  0  0  0  0  0  0  0
  -21.0284  -25.3020   18.6208 C   0  0  0  0  0  0  0  0  0  0  0  0
  -29.7323  -18.7218   19.6649 C   0  0  0  0  0  0  0  0  0  0  0  0
  -22.7160  -34.1288   25.2657 C   0  0  0  0  0  0  0  0  0  0  0  0
  -24.0443  -30.1811   20.2585 C   0  0  0  0  0  0  0  0  0  0  0  0
  -23.7711  -27.3009   20.8705 C   0  0  0  0  0  0  0  0  0  0  0  0
  -21.8001  -32.9692   24.8825 C   0  0  0  0  0  0  0  0  0  0  0  0
  -26.7768  -19.1736   21.5089 C   0  0  0  0  0  0  0  0  0  0  0  0
  -22.4720  -31.6345   25.1891 C   0  0  0  0  0  0  0  0  0  0  0  0
  -26.1526  -17.7808   21.4283 C   0  0  0  0  0  0  0  0  0  0  0  0
  -27.4107  -19.5951   20.1822 C   0  0  0  0  0  0  0  0  0  0  0  0
  -31.5341  -21.8501   20.5132 C   0  0  0  0  0  0  0  0  0  0  0  0
  -29.7799  -22.3657   18.8093 C   0  0  0  0  0  0  0  0  0  0  0  0
  -31.5039  -20.3882   20.0752 C   0  0  0  0  0  0  0  0  0  0  0  0
  -29.7900  -20.8989   18.3933 C   0  0  0  0  0  0  0  0  0  0  0  0
  -27.7603  -17.2258   19.5643 C   0  0  0  0  0  0  0  0  0  0  0  0
  -23.7620  -31.4669   24.3772 C   0  0  1  0  0  0  0  0  0  0  0  0
  -22.9228  -29.6517   21.1470 C   0  0  1  0  0  0  0  0  0  0  0  0
  -27.1666  -16.7508   20.8997 C   0  0  2  0  0  0  0  0  0  0  0  0
  -32.6389  -28.0609   19.5206 C   0  0  0  0  0  0  0  0  0  0  0  0
  -19.3278  -23.8561   17.4742 C   0  0  0  0  0  0  0  0  0  0  0  0
  -21.0133  -26.1357   23.4603 C   0  0  0  0  0  0  0  0  0  0  0  0
  -20.1305  -24.2673   22.0467 C   0  0  0  0  0  0  0  0  0  0  0  0
  -18.8966  -26.4322   22.1618 C   0  0  0  0  0  0  0  0  0  0  0  0
  -21.7765  -26.3382   15.9515 C   0  0  0  0  0  0  0  0  0  0  0  0
  -29.7945  -27.3551   19.6088 C   0  0  0  0  0  0  0  0  0  1  0  0
  -21.0757  -26.3139   20.8853 C   0  0  1  0  0  0  0  0  0  0  0  0
  -20.1333  -25.1442   17.4049 C   0  0  2  0  0  0  0  0  0  0  0  0
  -20.3046  -25.7986   22.1332 C   0  0  0  0  0  0  0  0  0  0  0  0
  -33.1560  -25.7023   19.4408 N   0  0  0  0  0  0  0  0  0  0  0  0
  -25.2524  -15.2500   20.4944 N   0  0  0  0  0  0  0  0  0  0  0  0
  -30.4354  -25.0271   19.5266 N   0  0  0  0  0  0  0  0  0  0  0  0
  -26.5583  -15.3652   20.7897 N   0  0  0  0  0  0  0  0  0  0  0  0
  -31.0526  -22.7330   19.4453 N   0  0  0  0  0  0  0  0  0  0  0  0
  -22.6345  -28.2358   20.9099 N   0  0  0  0  0  0  0  0  0  0  0  0
  -28.3387  -18.5645   19.6978 N   0  0  0  0  0  0  0  0  0  0  0  0
  -30.2193  -20.0264   19.4882 N   0  0  0  0  0  0  0  0  0  0  0  0
  -28.5072  -14.1035   21.2593 N   0  0  0  0  0  0  0  0  0  0  0  0
  -25.3505  -10.9405   20.6059 N   0  0  0  0  0  0  0  0  0  0  0  0
  -23.4554  -31.1007   23.0110 N   0  0  0  0  0  0  0  0  0  0  0  0
  -20.4141  -26.0326   19.6158 N   0  0  0  0  0  0  0  0  0  0  0  0
  -20.9510  -25.1208   16.1593 N   0  3  0  0  0  0  0  0  0  0  0  0
  -27.5582  -11.2899   21.1186 O   0  0  0  0  0  0  0  0  0  0  0  0
  -23.2450  -28.8031   23.3267 O   0  0  0  0  0  0  0  0  0  0  0  0
  -20.3265  -28.5634   20.9560 O   0  0  0  0  0  0  0  0  0  0  0  0
  -22.1580  -24.8217   18.6832 O   0  0  0  0  0  0  0  0  0  0  0  0
  -30.4971  -17.7571   19.7887 O   0  0  0  0  0  0  0  0  0  0  0  0
  -19.9946  -11.8399   19.3646 O   0  0  0  0  0  0  0  0  0  0  0  0
  -28.5600  -26.7562   19.9847 O   0  0  0  0  0  0  0  0  0  1  0  0
  -18.1455   -7.7532   22.5713 F   0  0  0  0  0  0  0  0  0  0  0  0
  -21.3701   -9.4490   19.5495 F   0  0  0  0  0  0  0  0  0  0  0  0
  1  2  1  0  0  0  0
  1  5  2  0  0  0  0
  2  6  2  0  0  0  0
  3  8  2  0  0  0  0
  3 16  1  0  0  0  0
  4  9  1  0  0  0  0
  4 16  2  0  0  0  0
  5 18  1  0  0  0  0
  6 20  1  0  0  0  0
  7 10  2  0  0  0  0
  7 19  1  0  0  0  0
  8 22  1  0  0  0  0
  9 22  2  0  0  0  0
 10 23  1  0  0  0  0
 11 12  2  0  0  0  0
 11 24  1  0  0  0  0
 12 25  1  0  0  0  0
 13 21  1  0  0  0  0
 13 23  2  0  0  0  0
 14 25  2  0  0  0  0
 14 26  1  0  0  0  0
 15 30  1  0  0  0  0
 15 63  2  0  0  0  0
 16 27  1  0  0  0  0
 17 27  1  0  0  0  0
 17 31  2  0  0  0  0
 17 32  1  0  0  0  0
 18 20  2  0  0  0  0
 18 37  1  0  0  0  0
 19 21  2  0  0  0  0
 19 38  1  0  0  0  0
 20 50  1  0  0  0  0
 21 39  1  0  0  0  0
 22 81  1  0  0  0  0
 23 82  1  0  0  0  0
 24 26  2  0  0  0  0
 24 81  1  0  0  0  0
 25 83  1  0  0  0  0
 26 84  1  0  0  0  0
 27 64  2  0  0  0  0
 28 29  2  0  0  0  0
 28 53  1  0  0  0  0
 28 63  1  0  0  0  0
 29 59  1  0  0  0  0
 29 65  1  0  0  0  0
 30 65  2  0  0  0  0
 30 67  1  0  0  0  0
 31 66  1  0  0  0  0
 31 71  1  0  0  0  0
 32 72  1  0  0  0  0
 32 76  2  0  0  0  0
 33 51  1  0  0  0  0
 33 73  1  0  0  0  0
 33 77  2  0  0  0  0
 34 60  1  0  0  0  0
 34 68  1  0  0  0  0
 34 78  2  0  0  0  0
 35 61  1  0  0  0  0
 35 74  1  0  0  0  0
 35 79  2  0  0  0  0
 36 69  1  0  0  0  0
 36 70  1  0  0  0  0
 36 80  2  0  0  0  0
 37 40  1  0  0  0  0
 38 51  1  0  0  0  0
 39 68  1  0  0  0  0
 40 42  1  0  0  0  0
 41 43  1  0  0  0  0
 41 44  1  0  0  0  0
 42 50  1  0  0  0  0
 43 52  1  0  0  0  0
 44 69  1  0  0  0  0
 45 47  1  0  0  0  0
 45 67  1  0  0  0  0
 46 48  1  0  0  0  0
 46 67  1  0  0  0  0
 47 70  1  0  0  0  0
 48 70  1  0  0  0  0
 49 52  1  0  0  0  0
 49 69  1  0  0  0  0
 50 73  1  0  0  0  0
 51 68  1  0  0  0  0
 52 66  1  0  0  0  0
 54 61  1  0  0  0  0
 55 62  1  0  0  0  0
 56 62  1  0  0  0  0
 57 62  1  0  0  0  0
 58 75  1  0  0  0  0
 59 82  1  0  0  0  0
 60 62  1  0  0  0  0
 60 74  1  0  0  0  0
 61 75  1  0  0  0  0
 64 66  1  0  0  0  0
M  CHG  1  75   1
M  ISO  4  36 100  59 101  70 100  82 101
M  END
> <Batch ID>
0184

> <Smiles>
CNC(C)C(=O)NC(C(=O)N1Cc2cc([101O:1][101CH2:1]c3nc(N4CC[100N:0]([100C:0](=O)N5CCCC(n6nc(-c7ccc(Oc8ccc(F)cc8F)cc7)c(C(N)=O)c6N)C5)CC4)cnc3C)ccc2CC1C(=O)NC1CCCc2ccccc21)C(C)(C)C

> <Shape>
0.282

> <Color>
0.113

> <Negative vol penalty>
0.000

$$$$

  -OEChem-04052323103D

 80 89  0     1  0  0  0  0  0999 V2000
  -27.9351  -30.5087   28.8104 C   0  0  0  0  0  0  0  0  0  0  0  0
  -28.3759  -30.2525   27.5160 C   0  0  0  0  0  0  0  0  0  0  0  0
  -26.2772  -12.9530   21.1471 C   0  0  0  0  0  0  0  0  0  0  0  0
  -26.4839  -12.9969   18.7404 C   0  0  0  0  0  0  0  0  0  0  0  0
  -26.6395  -30.1568   29.1868 C   0  0  0  0  0  0  0  0  0  0  0  0
  -27.5217  -29.6433   26.5975 C   0  0  0  0  0  0  0  0  0  0  0  0
  -27.2523  -30.6844   20.5685 C   0  0  0  0  0  0  0  0  0  0  0  0
  -25.0733  -12.2582   21.0310 C   0  0  0  0  0  0  0  0  0  0  0  0
  -25.2801  -12.3020   18.6243 C   0  0  0  0  0  0  0  0  0  0  0  0
  -27.7898  -30.0073   19.4747 C   0  0  0  0  0  0  0  0  0  0  0  0
  -24.0777   -9.0818   20.4378 C   0  0  0  0  0  0  0  0  0  0  0  0
  -23.8790   -7.9847   21.2759 C   0  0  0  0  0  0  0  0  0  0  0  0
  -25.7017  -28.8354   19.1817 C   0  0  0  0  0  0  0  0  0  0  0  0
  -21.9289   -9.0565   22.2168 C   0  0  0  0  0  0  0  0  0  0  0  0
  -28.8732  -25.6305   19.4087 C   0  0  0  0  0  0  0  0  0  0  0  0
  -26.9825  -13.3224   20.0018 C   0  0  0  0  0  0  0  0  0  0  0  0
  -29.5183  -13.4919   20.2218 C   0  0  0  0  0  0  0  0  0  0  0  0
  -25.7658  -29.5518   28.2697 C   0  0  0  0  0  0  0  0  0  0  0  0
  -25.9368  -30.4338   20.9844 C   0  0  0  0  0  0  0  0  0  0  0  0
  -26.2137  -29.2818   26.9624 C   0  0  0  0  0  0  0  0  0  0  0  0
  -25.1490  -29.5126   20.2794 C   0  0  0  0  0  0  0  0  0  0  0  0
  -24.5747  -11.9327   19.7696 C   0  0  0  0  0  0  0  0  0  0  0  0
  -27.0155  -29.0805   18.7829 C   0  0  0  0  0  0  0  0  0  0  0  0
  -23.2020  -10.1664   20.4893 C   0  0  0  0  0  0  0  0  0  0  0  0
  -22.8046   -7.9720   22.1654 C   0  0  0  0  0  0  0  0  0  0  0  0
  -22.1276  -10.1537   21.3787 C   0  0  0  0  0  0  0  0  0  0  0  0
  -28.2259  -14.0407   20.1210 C   0  0  0  0  0  0  0  0  0  0  0  0
  -29.4131  -24.9319   18.3595 C   0  0  0  0  0  0  0  0  0  0  0  0
  -30.3484  -14.5825   20.3122 C   0  0  0  0  0  0  0  0  0  0  0  0
  -28.1821  -27.2156   17.9561 C   0  0  0  0  0  0  0  0  0  1  0  0
  -29.9317  -12.1190   20.2328 C   0  0  0  0  0  0  0  0  0  0  0  0
  -24.5998  -29.3061   23.6386 C   0  0  0  0  0  0  0  0  0  0  0  0
  -21.8434  -30.0852   22.1162 C   0  0  0  0  0  0  0  0  0  0  0  0
  -20.2248  -30.6581   19.1668 C   0  0  0  0  0  0  0  0  0  0  0  0
  -29.5887  -20.1590   18.3857 C   0  0  0  0  0  0  0  0  0  0  0  0
  -24.3901  -29.1464   28.7365 C   0  0  0  0  0  0  0  0  0  0  0  0
  -25.3629  -31.1921   22.1498 C   0  0  0  0  0  0  0  0  0  0  0  0
  -23.7245  -29.2223   20.6732 C   0  0  0  0  0  0  0  0  0  0  0  0
  -23.4235  -28.8451   27.5940 C   0  0  0  0  0  0  0  0  0  0  0  0
  -30.4722  -19.1032   21.7945 C   0  0  0  0  0  0  0  0  0  0  0  0
  -24.0901  -27.9522   26.5522 C   0  0  0  0  0  0  0  0  0  0  0  0
  -30.0368  -17.6423   21.7701 C   0  0  0  0  0  0  0  0  0  0  0  0
  -29.5852  -19.9915   20.9216 C   0  0  0  0  0  0  0  0  0  0  0  0
  -29.6605  -22.5015   19.5067 C   0  0  0  0  0  0  0  0  0  0  0  0
  -29.9682  -22.4707   17.4046 C   0  0  0  0  0  0  0  0  0  0  0  0
  -29.0149  -18.0311   19.5023 C   0  0  0  0  0  0  0  0  0  0  0  0
  -25.3085  -28.6451   25.9302 C   0  0  1  0  0  0  0  0  0  0  0  0
  -30.1753  -23.5472   18.4900 C   0  0  0  0  0  0  0  0  0  0  0  0
  -24.1807  -30.4813   22.8014 C   0  0  1  0  0  0  0  0  0  0  0  0
  -29.9504  -17.1339   20.3238 C   0  0  2  0  0  0  0  0  0  0  0  0
  -17.9662  -31.2380   18.2396 C   0  0  0  0  0  0  0  0  0  0  0  0
  -20.9091  -27.2226   22.6084 C   0  0  0  0  0  0  0  0  0  0  0  0
  -19.1311  -27.5801   20.8823 C   0  0  0  0  0  0  0  0  0  0  0  0
  -19.1516  -28.9678   22.9552 C   0  0  0  0  0  0  0  0  0  0  0  0
  -21.2339  -33.1676   17.9655 C   0  0  0  0  0  0  0  0  0  0  0  0
  -20.9024  -29.3709   21.1763 C   0  0  1  0  0  0  0  0  0  0  0  0
  -19.3015  -31.7795   18.7258 C   0  0  2  0  0  0  0  0  0  0  0  0
  -20.0510  -28.2892   21.8991 C   0  0  0  0  0  0  0  0  0  0  0  0
  -28.2392  -26.7994   19.2301 N   0  0  0  0  0  0  0  0  0  0  0  0
  -28.2294  -15.3761   20.1451 N   0  0  0  0  0  0  0  0  0  0  0  0
  -29.3245  -25.3998   17.1012 N   0  0  0  0  0  0  0  0  0  0  0  0
  -28.6929  -26.5728   16.8875 N   0  0  0  0  0  0  0  0  0  0  0  0
  -29.5343  -15.6756   20.2623 N   0  0  0  0  0  0  0  0  0  0  0  0
  -23.2109  -29.9846   21.8232 N   0  0  0  0  0  0  0  0  0  0  0  0
  -29.4064  -19.4428   19.5734 N   0  0  0  0  0  0  0  0  0  0  0  0
  -29.9286  -21.4931   18.4885 N   0  0  0  0  0  0  0  0  0  0  0  0
  -31.6878  -14.7034   20.4287 N   0  0  0  0  0  0  0  0  0  0  0  0
  -28.9492  -11.1247   20.1310 N   0  0  0  0  0  0  0  0  0  0  0  0
  -24.8879  -29.6251   24.9519 N   0  0  0  0  0  0  0  0  0  0  0  0
  -20.1163  -30.4091   20.5186 N   0  0  0  0  0  0  0  0  0  0  0  0
  -19.9244  -32.5579   17.6181 N   0  3  0  0  0  0  0  0  0  0  0  0
  -31.1351  -11.7838   20.3464 O   0  0  0  0  0  0  0  0  0  0  0  0
  -24.6561  -28.1921   23.1310 O   0  0  0  0  0  0  0  0  0  0  0  0
  -21.3817  -30.7154   23.0708 O   0  0  0  0  0  0  0  0  0  0  0  0
  -20.9653  -30.0602   18.3891 O   0  0  0  0  0  0  0  0  0  0  0  0
  -29.4227  -19.6410   17.2740 O   0  0  0  0  0  0  0  0  0  0  0  0
  -23.4001  -11.2545   19.6560 O   0  0  0  0  0  0  0  0  0  0  0  0
  -27.5379  -28.4177   17.7154 O   0  0  0  0  0  0  0  0  0  1  0  0
  -22.6131   -6.9177   22.9691 F   0  0  0  0  0  0  0  0  0  0  0  0
  -21.2823  -11.1922   21.4318 F   0  0  0  0  0  0  0  0  0  0  0  0
  1  2  1  0  0  0  0
  1  5  2  0  0  0  0
  2  6  2  0  0  0  0
  3  8  2  0  0  0  0
  3 16  1  0  0  0  0
  4  9  1  0  0  0  0
  4 16  2  0  0  0  0
  5 18  1  0  0  0  0
  6 20  1  0  0  0  0
  7 10  2  0  0  0  0
  7 19  1  0  0  0  0
  8 22  1  0  0  0  0
  9 22  2  0  0  0  0
 10 23  1  0  0  0  0
 11 12  2  0  0  0  0
 11 24  1  0  0  0  0
 12 25  1  0  0  0  0
 13 21  1  0  0  0  0
 13 23  2  0  0  0  0
 14 25  2  0  0  0  0
 14 26  1  0  0  0  0
 15 28  1  0  0  0  0
 15 59  2  0  0  0  0
 16 27  1  0  0  0  0
 17 27  1  0  0  0  0
 17 29  2  0  0  0  0
 17 31  1  0  0  0  0
 18 20  2  0  0  0  0
 18 36  1  0  0  0  0
 19 21  2  0  0  0  0
 19 37  1  0  0  0  0
 20 47  1  0  0  0  0
 21 38  1  0  0  0  0
 22 77  1  0  0  0  0
 23 78  1  0  0  0  0
 24 26  2  0  0  0  0
 24 77  1  0  0  0  0
 25 79  1  0  0  0  0
 26 80  1  0  0  0  0
 27 60  2  0  0  0  0
 28 48  1  0  0  0  0
 28 61  2  0  0  0  0
 29 63  1  0  0  0  0
 29 67  1  0  0  0  0
 30 59  1  0  0  0  0
 30 62  2  0  0  0  0
 30 78  1  0  0  0  0
 31 68  1  0  0  0  0
 31 72  2  0  0  0  0
 32 49  1  0  0  0  0
 32 69  1  0  0  0  0
 32 73  2  0  0  0  0
 33 56  1  0  0  0  0
 33 64  1  0  0  0  0
 33 74  2  0  0  0  0
 34 57  1  0  0  0  0
 34 70  1  0  0  0  0
 34 75  2  0  0  0  0
 35 65  1  0  0  0  0
 35 66  1  0  0  0  0
 35 76  2  0  0  0  0
 36 39  1  0  0  0  0
 37 49  1  0  0  0  0
 38 64  1  0  0  0  0
 39 41  1  0  0  0  0
 40 42  1  0  0  0  0
 40 43  1  0  0  0  0
 41 47  1  0  0  0  0
 42 50  1  0  0  0  0
 43 65  1  0  0  0  0
 44 48  1  0  0  0  0
 44 66  1  0  0  0  0
 45 48  1  0  0  0  0
 45 66  1  0  0  0  0
 46 50  1  0  0  0  0
 46 65  1  0  0  0  0
 47 69  1  0  0  0  0
 49 64  1  0  0  0  0
 50 63  1  0  0  0  0
 51 57  1  0  0  0  0
 52 58  1  0  0  0  0
 53 58  1  0  0  0  0
 54 58  1  0  0  0  0
 55 71  1  0  0  0  0
 56 58  1  0  0  0  0
 56 70  1  0  0  0  0
 57 71  1  0  0  0  0
 60 63  1  0  0  0  0
 61 62  1  0  0  0  0
M  CHG  1  71   1
M  ISO  4  30 101  35 100  66 100  78 101
M  END
> <Batch ID>
0184

> <Smiles>
CNC(C)C(=O)NC(C(=O)N1Cc2cc([101O:1][101c:1]3ncc(C4C[100N:0]([100C:0](=O)N5CCCC(n6nc(-c7ccc(Oc8ccc(F)cc8F)cc7)c(C(N)=O)c6N)C5)C4)nn3)ccc2CC1C(=O)NC1CCCc2ccccc21)C(C)(C)C

> <Shape>
0.299

> <Color>
0.071

> <Negative vol penalty>
0.000

$$$$

  -OEChem-04052323103D

 85 95  0     1  0  0  0  0  0999 V2000
  -29.7251  -31.5723   26.2609 C   0  0  0  0  0  0  0  0  0  0  0  0
  -29.1842  -30.4326   25.6743 C   0  0  0  0  0  0  0  0  0  0  0  0
  -24.7456   -8.7955   21.5040 C   0  0  0  0  0  0  0  0  0  0  0  0
  -23.1102  -10.4343   20.8134 C   0  0  0  0  0  0  0  0  0  0  0  0
  -28.9303  -32.7022   26.4491 C   0  0  0  0  0  0  0  0  0  0  0  0
  -27.8478  -30.4219   25.2766 C   0  0  0  0  0  0  0  0  0  0  0  0
  -27.2046  -28.3929   20.6815 C   0  0  0  0  0  0  0  0  0  0  0  0
  -23.8277   -8.2602   22.4075 C   0  0  0  0  0  0  0  0  0  0  0  0
  -22.1922   -9.8989   21.7169 C   0  0  0  0  0  0  0  0  0  0  0  0
  -27.2356  -27.0021   20.5896 C   0  0  0  0  0  0  0  0  0  0  0  0
  -21.7950   -6.2338   24.6384 C   0  0  0  0  0  0  0  0  0  0  0  0
  -21.6726   -4.8454   24.6925 C   0  0  0  0  0  0  0  0  0  0  0  0
  -24.8242  -26.9576   20.5407 C   0  0  0  0  0  0  0  0  0  0  0  0
  -21.0246   -4.8118   22.3653 C   0  0  0  0  0  0  0  0  0  0  0  0
  -25.6901  -22.1383   21.3434 C   0  0  0  0  0  0  0  0  0  0  0  0
  -24.3869   -9.8827   20.7069 C   0  0  0  0  0  0  0  0  0  0  0  0
  -25.5246  -10.0601   18.4306 C   0  0  0  0  0  0  0  0  0  0  0  0
  -27.5860  -32.7086   26.0447 C   0  0  0  0  0  0  0  0  0  0  0  0
  -25.9809  -29.0769   20.7148 C   0  0  0  0  0  0  0  0  0  0  0  0
  -27.0338  -31.5525   25.4608 C   0  0  0  0  0  0  0  0  0  0  0  0
  -24.7804  -28.3572   20.6305 C   0  0  0  0  0  0  0  0  0  0  0  0
  -22.5510   -8.8119   22.5140 C   0  0  0  0  0  0  0  0  0  0  0  0
  -26.0453  -26.2840   20.5221 C   0  0  0  0  0  0  0  0  0  0  0  0
  -21.5322   -6.9112   23.4477 C   0  0  0  0  0  0  0  0  0  0  0  0
  -21.2874   -4.1344   23.5560 C   0  0  0  0  0  0  0  0  0  0  0  0
  -21.1470   -6.2002   22.3112 C   0  0  0  0  0  0  0  0  0  0  0  0
  -25.3348  -10.4365   19.7738 C   0  0  0  0  0  0  0  0  0  0  0  0
  -25.4339  -20.1438   20.2545 C   0  0  0  0  0  0  0  0  0  0  0  0
  -24.7750  -20.7875   19.2303 C   0  0  0  0  0  0  0  0  0  0  0  0
  -25.0319  -22.7822   20.3188 C   0  0  0  0  0  0  0  0  0  0  0  0
  -26.5326  -10.8791   17.9837 C   0  0  0  0  0  0  0  0  0  0  0  0
  -24.8500   -9.0598   17.6561 C   0  0  0  0  0  0  0  0  0  0  0  0
  -24.5203  -30.9603   22.8180 C   0  0  0  0  0  0  0  0  0  0  0  0
  -22.3692  -31.3184   20.4166 C   0  0  0  0  0  0  0  0  0  0  0  0
  -20.9685  -30.0604   17.5701 C   0  0  0  0  0  0  0  0  0  0  0  0
  -28.4726  -16.2533   19.7596 C   0  0  0  0  0  0  0  0  0  0  0  0
  -26.7534  -33.9374   26.3119 C   0  0  0  0  0  0  0  0  0  0  0  0
  -25.9649  -30.5792   20.7872 C   0  0  0  0  0  0  0  0  0  0  0  0
  -23.4408  -29.0455   20.6421 C   0  0  0  0  0  0  0  0  0  0  0  0
  -25.4481  -33.9725   25.5211 C   0  0  0  0  0  0  0  0  0  0  0  0
  -30.3656  -13.2829   19.4844 C   0  0  0  0  0  0  0  0  0  0  0  0
  -24.7373  -32.6254   25.6040 C   0  0  0  0  0  0  0  0  0  0  0  0
  -23.1044  -20.5841   17.2703 C   0  0  0  0  0  0  0  0  0  0  0  0
  -22.9100  -19.3756   18.1317 C   0  0  0  0  0  0  0  0  0  0  0  0
  -29.3193  -12.1729   19.4360 C   0  0  0  0  0  0  0  0  0  0  0  0
  -25.7801  -17.9426   21.5903 C   0  0  0  0  0  0  0  0  0  0  0  0
  -29.9391  -14.3870   20.4425 C   0  0  0  0  0  0  0  0  0  0  0  0
  -26.4026  -16.6006   21.2290 C   0  0  0  0  0  0  0  0  0  0  0  0
  -26.9826  -18.2211   19.5618 C   0  0  0  0  0  0  0  0  0  0  0  0
  -27.5430  -13.9020   20.0257 C   0  0  0  0  0  0  0  0  0  0  0  0
  -25.5951  -31.5106   24.9935 C   0  0  1  0  0  0  0  0  0  0  0  0
  -25.6683  -18.6495   20.2297 C   0  0  2  0  0  0  0  0  0  0  0  0
  -24.2652  -20.0279   18.0521 C   0  0  0  0  0  0  0  0  0  0  0  0
  -24.6537  -31.1372   21.3318 C   0  0  1  0  0  0  0  0  0  0  0  0
  -27.9377  -12.7458   19.0838 C   0  0  2  0  0  0  0  0  0  0  0  0
  -19.2073  -30.5607   15.8539 C   0  0  0  0  0  0  0  0  0  0  0  0
  -20.2038  -30.4934   22.4016 C   0  0  0  0  0  0  0  0  0  0  0  0
  -18.6749  -30.0914   20.4602 C   0  0  0  0  0  0  0  0  0  0  0  0
  -19.5680  -32.3808   20.8891 C   0  0  0  0  0  0  0  0  0  0  0  0
  -22.9587  -30.1366   15.3810 C   0  0  0  0  0  0  0  0  0  0  0  0
  -24.8152  -24.2545   20.3674 C   0  0  0  0  0  0  0  0  0  1  0  0
  -21.1150  -30.5956   19.9881 C   0  0  1  0  0  0  0  0  0  0  0  0
  -20.6758  -30.6988   16.2243 C   0  0  2  0  0  0  0  0  0  0  0  0
  -19.9155  -30.8769   20.9365 C   0  0  0  0  0  0  0  0  0  0  0  0
  -25.9029  -20.8075   21.3296 N   0  0  0  0  0  0  0  0  0  0  0  0
  -26.1565  -11.4180   20.1553 N   0  0  0  0  0  0  0  0  0  0  0  0
  -24.5625  -22.1184   19.2439 N   0  0  0  0  0  0  0  0  0  0  0  0
  -26.8724  -11.6653   19.0452 N   0  0  0  0  0  0  0  0  0  0  0  0
  -23.4774  -30.5152   20.7205 N   0  0  0  0  0  0  0  0  0  0  0  0
  -28.6101  -14.9071   20.1159 N   0  0  0  0  0  0  0  0  0  0  0  0
  -27.2878  -16.9018   20.1059 N   0  0  0  0  0  0  0  0  0  0  0  0
  -27.1528  -10.9961   16.7903 N   0  0  0  0  0  0  0  0  0  0  0  0
  -23.8388   -8.3085   18.2704 N   0  0  0  0  0  0  0  0  0  0  0  0
  -25.5302  -31.5569   23.5485 N   0  0  0  0  0  0  0  0  0  0  0  0
  -20.8800  -30.9742   18.5989 N   0  0  0  0  0  0  0  0  0  0  0  0
  -21.4924  -30.0547   15.1569 N   0  3  0  0  0  0  0  0  0  0  0  0
  -25.1466   -8.8276   16.4596 O   0  0  0  0  0  0  0  0  0  0  0  0
  -23.5706  -30.3304   23.2686 O   0  0  0  0  0  0  0  0  0  0  0  0
  -22.3677  -32.5507   20.4725 O   0  0  0  0  0  0  0  0  0  0  0  0
  -21.2440  -28.8694   17.6965 O   0  0  0  0  0  0  0  0  0  0  0  0
  -29.3876  -16.8645   19.1914 O   0  0  0  0  0  0  0  0  0  0  0  0
  -21.6549   -8.2896   23.3954 O   0  0  0  0  0  0  0  0  0  0  0  0
  -26.0729  -24.9174   20.4324 O   0  0  0  0  0  0  0  0  0  1  0  0
  -21.1714   -2.8009   23.6077 F   0  0  0  0  0  0  0  0  0  0  0  0
  -20.8943   -6.8454   21.1641 F   0  0  0  0  0  0  0  0  0  0  0  0
  1  2  1  0  0  0  0
  1  5  2  0  0  0  0
  2  6  2  0  0  0  0
  3  8  2  0  0  0  0
  3 16  1  0  0  0  0
  4  9  1  0  0  0  0
  4 16  2  0  0  0  0
  5 18  1  0  0  0  0
  6 20  1  0  0  0  0
  7 10  2  0  0  0  0
  7 19  1  0  0  0  0
  8 22  1  0  0  0  0
  9 22  2  0  0  0  0
 10 23  1  0  0  0  0
 11 12  2  0  0  0  0
 11 24  1  0  0  0  0
 12 25  1  0  0  0  0
 13 21  1  0  0  0  0
 13 23  2  0  0  0  0
 14 25  2  0  0  0  0
 14 26  1  0  0  0  0
 15 30  1  0  0  0  0
 15 65  2  0  0  0  0
 16 27  1  0  0  0  0
 17 27  1  0  0  0  0
 17 31  2  0  0  0  0
 17 32  1  0  0  0  0
 18 20  2  0  0  0  0
 18 37  1  0  0  0  0
 19 21  2  0  0  0  0
 19 38  1  0  0  0  0
 20 51  1  0  0  0  0
 21 39  1  0  0  0  0
 22 82  1  0  0  0  0
 23 83  1  0  0  0  0
 24 26  2  0  0  0  0
 24 82  1  0  0  0  0
 25 84  1  0  0  0  0
 26 85  1  0  0  0  0
 27 66  2  0  0  0  0
 28 29  2  0  0  0  0
 28 52  1  0  0  0  0
 28 65  1  0  0  0  0
 29 53  1  0  0  0  0
 29 67  1  0  0  0  0
 30 61  1  0  0  0  0
 30 67  2  0  0  0  0
 31 68  1  0  0  0  0
 31 72  1  0  0  0  0
 32 73  1  0  0  0  0
 32 77  2  0  0  0  0
 33 54  1  0  0  0  0
 33 74  1  0  0  0  0
 33 78  2  0  0  0  0
 34 62  1  0  0  0  0
 34 69  1  0  0  0  0
 34 79  2  0  0  0  0
 35 63  1  0  0  0  0
 35 75  1  0  0  0  0
 35 80  2  0  0  0  0
 36 70  1  0  0  0  0
 36 71  1  0  0  0  0
 36 81  2  0  0  0  0
 37 40  1  0  0  0  0
 38 54  1  0  0  0  0
 39 69  1  0  0  0  0
 40 42  1  0  0  0  0
 41 45  1  0  0  0  0
 41 47  1  0  0  0  0
 42 51  1  0  0  0  0
 43 44  1  0  0  0  0
 43 53  1  0  0  0  0
 44 53  1  0  0  0  0
 45 55  1  0  0  0  0
 46 48  1  0  0  0  0
 46 52  1  0  0  0  0
 47 70  1  0  0  0  0
 48 71  1  0  0  0  0
 49 52  1  0  0  0  0
 49 71  1  0  0  0  0
 50 55  1  0  0  0  0
 50 70  1  0  0  0  0
 51 74  1  0  0  0  0
 54 69  1  0  0  0  0
 55 68  1  0  0  0  0
 56 63  1  0  0  0  0
 57 64  1  0  0  0  0
 58 64  1  0  0  0  0
 59 64  1  0  0  0  0
 60 76  1  0  0  0  0
 61 83  1  0  0  0  0
 62 64  1  0  0  0  0
 62 75  1  0  0  0  0
 63 76  1  0  0  0  0
 66 68  1  0  0  0  0
M  CHG  1  76   1
M  ISO  4  36 100  61 101  71 100  83 101
M  END
> <Batch ID>
0184

> <Smiles>
CNC(C)C(=O)NC(C(=O)N1Cc2cc([101O:1][101CH2:1]c3cnc(C4CC[100N:0]([100C:0](=O)N5CCCC(n6nc(-c7ccc(Oc8ccc(F)cc8F)cc7)c(C(N)=O)c6N)C5)C4)c(C4CC4)n3)ccc2CC1C(=O)NC1CCCc2ccccc21)C(C)(C)C

> <Shape>
0.260

> <Color>
0.088

> <Negative vol penalty>
0.000

$$$$

  -OEChem-04052323103D

 83 92  0     1  0  0  0  0  0999 V2000
  -24.6820  -38.4439   20.5249 C   0  0  0  0  0  0  0  0  0  0  0  0
  -25.4045  -37.4820   19.8263 C   0  0  0  0  0  0  0  0  0  0  0  0
  -25.6726  -10.7990   17.8015 C   0  0  0  0  0  0  0  0  0  0  0  0
  -25.9861   -9.4648   19.7911 C   0  0  0  0  0  0  0  0  0  0  0  0
  -24.1992  -38.1604   21.8018 C   0  0  0  0  0  0  0  0  0  0  0  0
  -25.6455  -36.2363   20.4046 C   0  0  0  0  0  0  0  0  0  0  0  0
  -26.4191  -29.3299   18.6668 C   0  0  0  0  0  0  0  0  0  0  0  0
  -25.9900   -9.6947   17.0109 C   0  0  0  0  0  0  0  0  0  0  0  0
  -26.3035   -8.3604   19.0005 C   0  0  0  0  0  0  0  0  0  0  0  0
  -27.3009  -28.2656   18.8494 C   0  0  0  0  0  0  0  0  0  0  0  0
  -24.6486   -6.0506   17.1711 C   0  0  0  0  0  0  0  0  0  0  0  0
  -24.0650   -4.8281   17.5037 C   0  0  0  0  0  0  0  0  0  0  0  0
  -26.3503  -27.8598   21.0291 C   0  0  0  0  0  0  0  0  0  0  0  0
  -26.2586   -3.8702   17.8319 C   0  0  0  0  0  0  0  0  0  0  0  0
  -29.4014  -23.7228   19.7200 C   0  0  0  0  0  0  0  0  0  0  0  0
  -25.6707  -10.6841   19.1917 C   0  0  0  0  0  0  0  0  0  0  0  0
  -24.0673  -12.2053   20.4656 C   0  0  0  0  0  0  0  0  0  0  0  0
  -24.4262  -36.9072   22.3923 C   0  0  0  0  0  0  0  0  0  0  0  0
  -25.5021  -29.6746   19.6701 C   0  0  0  0  0  0  0  0  0  0  0  0
  -25.1665  -35.9362   21.6912 C   0  0  0  0  0  0  0  0  0  0  0  0
  -25.4562  -28.9273   20.8557 C   0  0  0  0  0  0  0  0  0  0  0  0
  -26.3055   -8.4753   17.6103 C   0  0  0  0  0  0  0  0  0  0  0  0
  -27.2686  -27.5321   20.0318 C   0  0  0  0  0  0  0  0  0  0  0  0
  -26.0372   -6.1829   17.1688 C   0  0  0  0  0  0  0  0  0  0  0  0
  -24.8700   -3.7380   17.8341 C   0  0  0  0  0  0  0  0  0  0  0  0
  -26.8422   -5.0927   17.4992 C   0  0  0  0  0  0  0  0  0  0  0  0
  -25.3434  -11.8247   20.0090 C   0  0  0  0  0  0  0  0  0  0  0  0
  -29.8533  -25.0303   19.4590 C   0  0  0  0  0  0  0  0  0  0  0  0
  -30.5480  -23.0036   19.9537 C   0  0  0  0  0  0  0  0  0  0  0  0
  -24.2904  -13.3464   21.1967 C   0  0  0  0  0  0  0  0  0  0  0  0
  -22.7940  -11.5829   20.2483 C   0  0  0  0  0  0  0  0  0  0  0  0
  -25.0010  -32.2521   21.4616 C   0  0  0  0  0  0  0  0  0  0  0  0
  -22.3963  -30.5855   22.4418 C   0  0  0  0  0  0  0  0  0  0  0  0
  -20.8836  -27.5546   22.8569 C   0  0  0  0  0  0  0  0  0  0  0  0
  -28.9900  -17.1635   20.6516 C   0  0  0  0  0  0  0  0  0  0  0  0
  -23.9251  -36.6635   23.7938 C   0  0  0  0  0  0  0  0  0  0  0  0
  -24.5395  -30.8086   19.4468 C   0  0  0  0  0  0  0  0  0  0  0  0
  -24.4770  -29.2441   21.9553 C   0  0  0  0  0  0  0  0  0  0  0  0
  -23.9024  -35.1881   24.1846 C   0  0  0  0  0  0  0  0  0  0  0  0
  -28.1140  -15.0331   23.6484 C   0  0  0  0  0  0  0  0  0  0  0  0
  -25.2121  -34.5117   23.7922 C   0  0  0  0  0  0  0  0  0  0  0  0
  -26.7994  -14.3785   23.2289 C   0  0  0  0  0  0  0  0  0  0  0  0
  -29.0841  -20.7357   21.7941 C   0  0  0  0  0  0  0  0  0  0  0  0
  -28.3248  -16.3911   22.9864 C   0  0  0  0  0  0  0  0  0  0  0  0
  -28.4758  -19.3425   21.9389 C   0  0  0  0  0  0  0  0  0  0  0  0
  -27.6186  -15.1444   20.9450 C   0  0  0  0  0  0  0  0  0  0  0  0
  -30.2393  -19.2753   20.3184 C   0  0  0  0  0  0  0  0  0  0  0  0
  -25.4274  -34.5646   22.2749 C   0  0  1  0  0  0  0  0  0  0  0  0
  -23.9955  -31.3952   20.7457 C   0  0  1  0  0  0  0  0  0  0  0  0
  -26.4045  -14.7099   21.7786 C   0  0  1  0  0  0  0  0  0  0  0  0
  -29.7123  -20.6975   20.4096 C   0  0  2  0  0  0  0  0  0  0  0  0
  -18.7710  -26.5088   23.7175 C   0  0  0  0  0  0  0  0  0  0  0  0
  -23.3496  -31.0234   25.3070 C   0  0  0  0  0  0  0  0  0  0  0  0
  -21.7878  -29.2052   26.0305 C   0  0  0  0  0  0  0  0  0  0  0  0
  -20.8836  -31.2780   24.9776 C   0  0  0  0  0  0  0  0  0  0  0  0
  -32.9890  -23.6175   19.9701 C   0  0  0  0  0  0  0  0  0  0  0  0
  -20.2318  -26.4123   20.2057 C   0  0  0  0  0  0  0  0  0  0  0  0
  -29.0376  -26.2147   19.1425 C   0  0  0  0  0  0  0  0  0  1  0  0
  -22.1137  -29.5958   23.5461 C   0  0  1  0  0  0  0  0  0  0  0  0
  -19.4913  -27.0664   22.4997 C   0  0  2  0  0  0  0  0  0  0  0  0
  -22.0536  -30.2706   24.9456 C   0  0  0  0  0  0  0  0  0  0  0  0
  -26.3059  -12.6567   20.4158 N   0  0  0  0  0  0  0  0  0  0  0  0
  -31.1831  -25.1383   19.5212 N   0  0  0  0  0  0  0  0  0  0  0  0
  -25.6342  -13.5715   21.1357 N   0  0  0  0  0  0  0  0  0  0  0  0
  -31.5767  -23.8895   19.8239 N   0  0  0  0  0  0  0  0  0  0  0  0
  -23.5607  -30.3660   21.6922 N   0  0  0  0  0  0  0  0  0  0  0  0
  -28.2808  -16.3229   21.5212 N   0  0  0  0  0  0  0  0  0  0  0  0
  -29.2470  -18.4783   21.0398 N   0  0  0  0  0  0  0  0  0  0  0  0
  -23.4662  -14.1693   21.8793 N   0  0  0  0  0  0  0  0  0  0  0  0
  -22.7442  -10.4164   19.4730 N   0  0  0  0  0  0  0  0  0  0  0  0
  -30.7647  -21.6675   20.2627 N   0  0  0  0  0  0  0  0  0  0  0  0
  -24.6112  -33.5690   21.6136 N   0  0  0  0  0  0  0  0  0  0  0  0
  -20.8900  -28.8984   23.1660 N   0  0  0  0  0  0  0  0  0  0  0  0
  -19.5674  -25.9946   21.4671 N   0  3  0  0  0  0  0  0  0  0  0  0
  -21.7299  -12.0566   20.7138 O   0  0  0  0  0  0  0  0  0  0  0  0
  -26.0519  -31.7548   21.8488 O   0  0  0  0  0  0  0  0  0  0  0  0
  -21.6091  -31.5150   22.2466 O   0  0  0  0  0  0  0  0  0  0  0  0
  -21.8666  -26.8169   22.8649 O   0  0  0  0  0  0  0  0  0  0  0  0
  -29.3534  -16.7521   19.5396 O   0  0  0  0  0  0  0  0  0  0  0  0
  -26.6151   -7.3974   16.8391 O   0  0  0  0  0  0  0  0  0  0  0  0
  -28.1327  -26.4882   20.2138 O   0  0  0  0  0  0  0  0  0  1  0  0
  -24.3094   -2.5645   18.1550 F   0  0  0  0  0  0  0  0  0  0  0  0
  -28.1768   -5.2140   17.4999 F   0  0  0  0  0  0  0  0  0  0  0  0
  1  2  1  0  0  0  0
  1  5  2  0  0  0  0
  2  6  2  0  0  0  0
  3  8  2  0  0  0  0
  3 16  1  0  0  0  0
  4  9  1  0  0  0  0
  4 16  2  0  0  0  0
  5 18  1  0  0  0  0
  6 20  1  0  0  0  0
  7 10  2  0  0  0  0
  7 19  1  0  0  0  0
  8 22  1  0  0  0  0
  9 22  2  0  0  0  0
 10 23  1  0  0  0  0
 11 12  2  0  0  0  0
 11 24  1  0  0  0  0
 12 25  1  0  0  0  0
 13 21  1  0  0  0  0
 13 23  2  0  0  0  0
 14 25  2  0  0  0  0
 14 26  1  0  0  0  0
 15 28  1  0  0  0  0
 15 29  2  0  0  0  0
 16 27  1  0  0  0  0
 17 27  1  0  0  0  0
 17 30  2  0  0  0  0
 17 31  1  0  0  0  0
 18 20  2  0  0  0  0
 18 36  1  0  0  0  0
 19 21  2  0  0  0  0
 19 37  1  0  0  0  0
 20 48  1  0  0  0  0
 21 38  1  0  0  0  0
 22 80  1  0  0  0  0
 23 81  1  0  0  0  0
 24 26  2  0  0  0  0
 24 80  1  0  0  0  0
 25 82  1  0  0  0  0
 26 83  1  0  0  0  0
 27 62  2  0  0  0  0
 28 58  1  0  0  0  0
 28 63  2  0  0  0  0
 29 65  1  0  0  0  0
 29 71  1  0  0  0  0
 30 64  1  0  0  0  0
 30 69  1  0  0  0  0
 31 70  1  0  0  0  0
 31 75  2  0  0  0  0
 32 49  1  0  0  0  0
 32 72  1  0  0  0  0
 32 76  2  0  0  0  0
 33 59  1  0  0  0  0
 33 66  1  0  0  0  0
 33 77  2  0  0  0  0
 34 60  1  0  0  0  0
 34 73  1  0  0  0  0
 34 78  2  0  0  0  0
 35 67  1  0  0  0  0
 35 68  1  0  0  0  0
 35 79  2  0  0  0  0
 36 39  1  0  0  0  0
 37 49  1  0  0  0  0
 38 66  1  0  0  0  0
 39 41  1  0  0  0  0
 40 42  1  0  0  0  0
 40 44  1  0  0  0  0
 41 48  1  0  0  0  0
 42 50  1  0  0  0  0
 43 45  1  0  0  0  0
 43 51  1  0  0  0  0
 44 67  1  0  0  0  0
 45 68  1  0  0  0  0
 46 50  1  0  0  0  0
 46 67  1  0  0  0  0
 47 51  1  0  0  0  0
 47 68  1  0  0  0  0
 48 72  1  0  0  0  0
 49 66  1  0  0  0  0
 50 64  1  0  0  0  0
 51 71  1  0  0  0  0
 52 60  1  0  0  0  0
 53 61  1  0  0  0  0
 54 61  1  0  0  0  0
 55 61  1  0  0  0  0
 56 65  1  0  0  0  0
 57 74  1  0  0  0  0
 58 81  1  0  0  0  0
 59 61  1  0  0  0  0
 59 73  1  0  0  0  0
 60 74  1  0  0  0  0
 62 64  1  0  0  0  0
 63 65  1  0  0  0  0
M  CHG  1  74   1
M  ISO  4  35 100  58 101  68 100  81 101
M  END
> <Batch ID>
0184

> <Smiles>
CNC(C)C(=O)NC(C(=O)N1Cc2cc([101O:1][101CH2:1]c3cc(NC4CC[100N:0]([100C:0](=O)N5CCCC(n6nc(-c7ccc(Oc8ccc(F)cc8F)cc7)c(C(N)=O)c6N)C5)C4)n(C)n3)ccc2CC1C(=O)NC1CCCc2ccccc21)C(C)(C)C

> <Shape>
0.266

> <Color>
0.101

> <Negative vol penalty>
0.000

$$$$

  -OEChem-04052323103D

 86 95  0     1  0  0  0  0  0999 V2000
  -20.9304  -19.1842   27.7278 C   0  0  0  0  0  0  0  0  0  0  0  0
  -22.1354  -19.5050   27.1109 C   0  0  0  0  0  0  0  0  0  0  0  0
  -26.6209  -13.5636   22.3941 C   0  0  0  0  0  0  0  0  0  0  0  0
  -27.5100  -13.8546   20.1666 C   0  0  0  0  0  0  0  0  0  0  0  0
  -19.7335  -19.6899   27.2223 C   0  0  0  0  0  0  0  0  0  0  0  0
  -22.1440  -20.3308   25.9873 C   0  0  0  0  0  0  0  0  0  0  0  0
  -26.4297  -24.4323   24.4656 C   0  0  0  0  0  0  0  0  0  0  0  0
  -26.1362  -12.3056   22.0364 C   0  0  0  0  0  0  0  0  0  0  0  0
  -27.0253  -12.5965   19.8088 C   0  0  0  0  0  0  0  0  0  0  0  0
  -27.5071  -24.3794   23.5823 C   0  0  0  0  0  0  0  0  0  0  0  0
  -23.5022  -11.0429   20.3357 C   0  0  0  0  0  0  0  0  0  0  0  0
  -22.2019  -10.7166   20.7208 C   0  0  0  0  0  0  0  0  0  0  0  0
  -26.1567  -25.4300   21.8817 C   0  0  0  0  0  0  0  0  0  0  0  0
  -23.0478   -8.8420   21.9887 C   0  0  0  0  0  0  0  0  0  0  0  0
  -27.3078  -14.3382   21.4592 C   0  0  0  0  0  0  0  0  0  0  0  0
  -29.0713  -15.9399   22.3714 C   0  0  0  0  0  0  0  0  0  0  0  0
  -19.7283  -20.5301   26.0977 C   0  0  0  0  0  0  0  0  0  0  0  0
  -25.2023  -24.9755   24.0594 C   0  0  0  0  0  0  0  0  0  0  0  0
  -20.9457  -20.8471   25.4655 C   0  0  0  0  0  0  0  0  0  0  0  0
  -25.0660  -25.4909   22.7626 C   0  0  0  0  0  0  0  0  0  0  0  0
  -30.3722  -24.3781   18.0424 C   0  0  0  0  0  0  0  0  0  0  0  0
  -26.3384  -11.8220   20.7437 C   0  0  0  0  0  0  0  0  0  0  0  0
  -27.3698  -24.8756   22.2892 C   0  0  0  0  0  0  0  0  0  0  0  0
  -24.5754  -10.2687   20.7770 C   0  0  0  0  0  0  0  0  0  0  0  0
  -21.9747   -9.6162   21.5474 C   0  0  0  0  0  0  0  0  0  0  0  0
  -24.3482   -9.1683   21.6035 C   0  0  0  0  0  0  0  0  0  0  0  0
  -27.8082  -15.6380   21.8280 C   0  0  0  0  0  0  0  0  0  0  0  0
  -29.7208  -24.2413   16.8276 C   0  0  0  0  0  0  0  0  0  0  0  0
  -29.8130  -23.7297   19.1131 C   0  0  0  0  0  0  0  0  0  0  0  0
  -29.0549  -17.3027   22.5420 C   0  0  0  0  0  0  0  0  0  0  0  0
  -28.1439  -22.9390   17.7566 C   0  0  0  0  0  0  0  0  0  0  0  0
  -30.1619  -15.0665   22.6932 C   0  0  0  0  0  0  0  0  0  0  0  0
  -22.2440  -23.8534   23.7540 C   0  0  0  0  0  0  0  0  0  0  0  0
  -21.5505  -26.9564   23.1117 C   0  0  0  0  0  0  0  0  0  0  0  0
  -22.6392  -30.0043   22.0292 C   0  0  0  0  0  0  0  0  0  0  0  0
  -25.9893  -21.7076   19.8869 C   0  0  0  0  0  0  0  0  0  0  0  0
  -18.4052  -21.0141   25.5594 C   0  0  0  0  0  0  0  0  0  0  0  0
  -24.0579  -25.0496   25.0327 C   0  0  0  0  0  0  0  0  0  0  0  0
  -23.7756  -26.1027   22.2839 C   0  0  0  0  0  0  0  0  0  0  0  0
  -30.4307  -25.0127   15.7591 C   0  0  0  0  0  0  0  0  0  0  0  0
  -18.5342  -22.1856   24.5892 C   0  0  0  0  0  0  0  0  0  0  0  0
  -26.0544  -20.9378   23.3625 C   0  0  0  0  0  0  0  0  0  0  0  0
  -19.6372  -21.9161   23.5706 C   0  0  0  0  0  0  0  0  0  0  0  0
  -26.6252  -19.5195   23.4124 C   0  0  0  0  0  0  0  0  0  0  0  0
  -25.1512  -21.1403   22.1479 C   0  0  0  0  0  0  0  0  0  0  0  0
  -26.3379  -19.3749   20.9033 C   0  0  0  0  0  0  0  0  0  0  0  0
  -20.9982  -21.7598   24.2595 C   0  0  1  0  0  0  0  0  0  0  0  0
  -22.6982  -25.1562   24.3492 C   0  0  1  0  0  0  0  0  0  0  0  0
  -27.2997  -19.1394   22.0805 C   0  0  2  0  0  0  0  0  0  0  0  0
  -31.5875  -25.2507   17.9236 C   0  0  0  0  0  0  0  0  0  0  0  0
  -32.8650  -24.6130   18.4790 C   0  0  0  0  0  0  0  0  0  0  0  0
  -31.3228  -26.6221   18.5588 C   0  0  0  0  0  0  0  0  0  0  0  0
  -21.8331  -32.3374   21.5770 C   0  0  0  0  0  0  0  0  0  0  0  0
  -20.2253  -25.9969   20.5363 C   0  0  0  0  0  0  0  0  0  0  0  0
  -20.2978  -28.3563   19.7021 C   0  0  0  0  0  0  0  0  0  0  0  0
  -18.9777  -27.7970   21.7434 C   0  0  0  0  0  0  0  0  0  0  0  0
  -32.3757  -26.6442   15.8367 C   0  0  0  0  0  0  0  0  0  0  0  0
  -24.4860  -31.1554   24.0350 C   0  0  0  0  0  0  0  0  0  0  0  0
  -30.4076  -23.8143   20.4979 C   0  0  0  0  0  0  0  0  0  0  0  0
  -26.8993  -22.1286   17.6167 C   0  0  0  0  0  0  0  0  0  0  0  0
  -29.3453  -23.7512   21.5899 C   0  0  0  0  0  0  0  0  0  1  0  0
  -21.5030  -27.8052   21.8642 C   0  0  1  0  0  0  0  0  0  0  0  0
  -22.4571  -31.3996   22.5988 C   0  0  2  0  0  0  0  0  0  0  0  0
  -20.2748  -27.4756   20.9696 C   0  0  0  0  0  0  0  0  0  0  0  0
  -27.0449  -16.7218   21.6644 N   0  0  0  0  0  0  0  0  0  0  0  0
  -28.5992  -23.5340   16.6345 N   0  0  0  0  0  0  0  0  0  0  0  0
  -28.6868  -22.9926   18.9977 N   0  0  0  0  0  0  0  0  0  0  0  0
  -27.8306  -17.7180   22.1076 N   0  0  0  0  0  0  0  0  0  0  0  0
  -22.6838  -26.1464   23.2706 N   0  0  0  0  0  0  0  0  0  0  0  0
  -25.8510  -20.7632   20.9174 N   0  0  0  0  0  0  0  0  0  0  0  0
  -29.9685  -18.1742   23.0197 N   0  0  0  0  0  0  0  0  0  0  0  0
  -30.0113  -13.6937   22.4546 N   0  0  0  0  0  0  0  0  0  0  0  0
  -21.5304  -23.0545   24.6269 N   0  0  0  0  0  0  0  0  0  0  0  0
  -21.5611  -29.1925   22.3118 N   0  0  0  0  0  0  0  0  0  0  0  0
  -26.6713  -21.2705   18.7579 N   0  0  0  0  0  0  0  0  0  0  0  0
  -31.7777  -25.3879   16.3839 N   0  3  2  0  0  0  0  0  0  0  0  0
  -23.7717  -31.9651   23.0145 N   0  3  0  0  0  0  0  0  0  0  0  0
  -31.2320  -15.4890   23.1932 O   0  0  0  0  0  0  0  0  0  0  0  0
  -22.5193  -23.5930   22.5886 O   0  0  0  0  0  0  0  0  0  0  0  0
  -20.6198  -27.0155   23.9191 O   0  0  0  0  0  0  0  0  0  0  0  0
  -23.6364  -29.6693   21.3936 O   0  0  0  0  0  0  0  0  0  0  0  0
  -25.5431  -22.8570   19.9691 O   0  0  0  0  0  0  0  0  0  0  0  0
  -25.8658  -10.5944   20.3944 O   0  0  0  0  0  0  0  0  0  0  0  0
  -28.4196  -24.8246   21.4249 O   0  0  0  0  0  0  0  0  0  1  0  0
  -20.7261   -9.3039   21.9184 F   0  0  0  0  0  0  0  0  0  0  0  0
  -25.3752   -8.4215   22.0316 F   0  0  0  0  0  0  0  0  0  0  0  0
  1  2  1  0  0  0  0
  1  5  2  0  0  0  0
  2  6  2  0  0  0  0
  3  8  2  0  0  0  0
  3 15  1  0  0  0  0
  4  9  1  0  0  0  0
  4 15  2  0  0  0  0
  5 17  1  0  0  0  0
  6 19  1  0  0  0  0
  7 10  2  0  0  0  0
  7 18  1  0  0  0  0
  8 22  1  0  0  0  0
  9 22  2  0  0  0  0
 10 23  1  0  0  0  0
 11 12  2  0  0  0  0
 11 24  1  0  0  0  0
 12 25  1  0  0  0  0
 13 20  1  0  0  0  0
 13 23  2  0  0  0  0
 14 25  2  0  0  0  0
 14 26  1  0  0  0  0
 15 27  1  0  0  0  0
 16 27  1  0  0  0  0
 16 30  2  0  0  0  0
 16 32  1  0  0  0  0
 17 19  2  0  0  0  0
 17 37  1  0  0  0  0
 18 20  2  0  0  0  0
 18 38  1  0  0  0  0
 19 47  1  0  0  0  0
 20 39  1  0  0  0  0
 21 28  1  0  0  0  0
 21 29  2  0  0  0  0
 21 50  1  0  0  0  0
 22 83  1  0  0  0  0
 23 84  1  0  0  0  0
 24 26  2  0  0  0  0
 24 83  1  0  0  0  0
 25 85  1  0  0  0  0
 26 86  1  0  0  0  0
 27 65  2  0  0  0  0
 28 40  1  0  0  0  0
 28 66  2  0  0  0  0
 29 59  1  0  0  0  0
 29 67  1  0  0  0  0
 30 68  1  0  0  0  0
 30 71  1  0  0  0  0
 31 60  1  0  0  0  0
 31 66  1  0  0  0  0
 31 67  2  0  0  0  0
 32 72  1  0  0  0  0
 32 78  2  0  0  0  0
 33 48  1  0  0  0  0
 33 73  1  0  0  0  0
 33 79  2  0  0  0  0
 34 62  1  0  0  0  0
 34 69  1  0  0  0  0
 34 80  2  0  0  0  0
 35 63  1  0  0  0  0
 35 74  1  0  0  0  0
 35 81  2  0  0  0  0
 36 70  1  0  0  0  0
 36 75  1  0  0  0  0
 36 82  2  0  0  0  0
 37 41  1  0  0  0  0
 38 48  1  0  0  0  0
 39 69  1  0  0  0  0
 40 76  1  0  0  0  0
 41 43  1  0  0  0  0
 42 44  1  0  0  0  0
 42 45  1  0  0  0  0
 43 47  1  0  0  0  0
 44 49  1  0  0  0  0
 45 70  1  0  0  0  0
 46 49  1  0  0  0  0
 46 70  1  0  0  0  0
 47 73  1  0  0  0  0
 48 69  1  0  0  0  0
 49 68  1  0  0  0  0
 50 51  1  0  0  0  0
 50 52  1  0  0  0  0
 50 76  1  0  0  0  0
 53 63  1  0  0  0  0
 54 64  1  0  0  0  0
 55 64  1  0  0  0  0
 56 64  1  0  0  0  0
 57 76  1  0  0  0  0
 58 77  1  0  0  0  0
 59 61  1  0  0  0  0
 60 75  1  0  0  0  0
 61 84  1  0  0  0  0
 62 64  1  0  0  0  0
 62 74  1  0  0  0  0
 63 77  1  0  0  0  0
 65 68  1  0  0  0  0
M  CHG  2  76   1  77   1
M  ISO  4  36 100  61 101  75 100  84 101
M  END
> <Batch ID>
0184

> <Smiles>
CNC(C)C(=O)NC(C(=O)N1Cc2cc([101O:1][101CH2:1]Cc3nc(C[100NH:0][100C:0](=O)N4CCCC(n5nc(-c6ccc(Oc7ccc(F)cc7F)cc6)c(C(N)=O)c5N)C4)nc4c3C(C)(C)N(C)C4)ccc2CC1C(=O)NC1CCCc2ccccc21)C(C)(C)C

> <Shape>
0.195

> <Color>
0.049

> <Negative vol penalty>
0.000

$$$$

  -OEChem-04052323103D

 86 96  0     1  0  0  0  0  0999 V2000
  -27.6242  -37.9009   21.2746 C   0  0  0  0  0  0  0  0  0  0  0  0
  -27.8466  -36.8479   20.3931 C   0  0  0  0  0  0  0  0  0  0  0  0
  -22.6993  -11.3270   19.2204 C   0  0  0  0  0  0  0  0  0  0  0  0
  -23.2801   -9.9213   21.0976 C   0  0  0  0  0  0  0  0  0  0  0  0
  -27.4033  -37.6418   22.6267 C   0  0  0  0  0  0  0  0  0  0  0  0
  -27.8493  -35.5351   20.8633 C   0  0  0  0  0  0  0  0  0  0  0  0
  -26.1490  -28.8768   18.8405 C   0  0  0  0  0  0  0  0  0  0  0  0
  -21.6891  -10.4338   18.8640 C   0  0  0  0  0  0  0  0  0  0  0  0
  -22.2697   -9.0281   20.7412 C   0  0  0  0  0  0  0  0  0  0  0  0
  -26.7021  -27.5992   18.7668 C   0  0  0  0  0  0  0  0  0  0  0  0
  -18.5436   -9.7020   19.8658 C   0  0  0  0  0  0  0  0  0  0  0  0
  -17.2992  -10.2327   19.5261 C   0  0  0  0  0  0  0  0  0  0  0  0
  -26.2304  -27.2665   21.1090 C   0  0  0  0  0  0  0  0  0  0  0  0
  -17.4741   -9.2383   17.3312 C   0  0  0  0  0  0  0  0  0  0  0  0
  -27.3039  -22.4718   20.0974 C   0  0  0  0  0  0  0  0  0  0  0  0
  -23.4949  -11.0708   20.3372 C   0  0  0  0  0  0  0  0  0  0  0  0
  -24.4302  -13.0998   21.5684 C   0  0  0  0  0  0  0  0  0  0  0  0
  -27.3937  -36.3247   23.1120 C   0  0  0  0  0  0  0  0  0  0  0  0
  -25.6415  -29.3638   20.0536 C   0  0  0  0  0  0  0  0  0  0  0  0
  -27.6294  -35.2583   22.2234 C   0  0  0  0  0  0  0  0  0  0  0  0
  -25.6691  -28.5497   21.1948 C   0  0  0  0  0  0  0  0  0  0  0  0
  -21.4742   -9.2843   19.6244 C   0  0  0  0  0  0  0  0  0  0  0  0
  -26.7455  -26.7949   19.9018 C   0  0  0  0  0  0  0  0  0  0  0  0
  -19.2533   -8.9395   18.9381 C   0  0  0  0  0  0  0  0  0  0  0  0
  -16.7644  -10.0009   18.2589 C   0  0  0  0  0  0  0  0  0  0  0  0
  -18.7186   -8.7076   17.6709 C   0  0  0  0  0  0  0  0  0  0  0  0
  -24.5391  -11.9928   20.7055 C   0  0  0  0  0  0  0  0  0  0  0  0
  -29.7814  -22.1051   21.0220 C   0  0  0  0  0  0  0  0  0  0  0  0
  -27.9595  -23.4674   20.7877 C   0  0  0  0  0  0  0  0  0  0  0  0
  -29.1254  -21.1093   20.3324 C   0  0  0  0  0  0  0  0  0  0  0  0
  -25.6907  -13.6451   21.5879 C   0  0  0  0  0  0  0  0  0  0  0  0
  -23.2916  -13.5911   22.2880 C   0  0  0  0  0  0  0  0  0  0  0  0
  -26.3552  -31.7994   21.9673 C   0  0  0  0  0  0  0  0  0  0  0  0
  -23.6971  -30.8267   23.5518 C   0  0  0  0  0  0  0  0  0  0  0  0
  -21.5196  -28.3018   24.2800 C   0  0  0  0  0  0  0  0  0  0  0  0
  -30.1638  -15.3291   18.5825 C   0  0  0  0  0  0  0  0  0  0  0  0
  -27.1975  -36.0971   24.5900 C   0  0  0  0  0  0  0  0  0  0  0  0
  -25.0239  -30.7342   20.1102 C   0  0  0  0  0  0  0  0  0  0  0  0
  -25.1191  -29.0179   22.5165 C   0  0  0  0  0  0  0  0  0  0  0  0
  -26.8441  -34.6544   24.9425 C   0  0  0  0  0  0  0  0  0  0  0  0
  -30.0870  -11.8760   19.8247 C   0  0  0  0  0  0  0  0  0  0  0  0
  -27.7669  -33.6848   24.2111 C   0  0  0  0  0  0  0  0  0  0  0  0
  -31.3565  -21.2481   22.8817 C   0  0  0  0  0  0  0  0  0  0  0  0
  -31.6286  -22.7115   22.7245 C   0  0  0  0  0  0  0  0  0  0  0  0
  -28.6147  -11.6798   20.1891 C   0  0  0  0  0  0  0  0  0  0  0  0
  -28.2630  -17.9607   20.3083 C   0  0  0  0  0  0  0  0  0  0  0  0
  -30.2645  -12.8650   18.6750 C   0  0  0  0  0  0  0  0  0  0  0  0
  -28.1850  -16.6377   19.5535 C   0  0  0  0  0  0  0  0  0  0  0  0
  -28.1343  -13.9669   19.2417 C   0  0  0  0  0  0  0  0  0  0  0  0
  -30.2132  -17.7778   18.9603 C   0  0  0  0  0  0  0  0  0  0  0  0
  -27.6153  -33.8191   22.6910 C   0  0  1  0  0  0  0  0  0  0  0  0
  -31.1669  -21.9046   21.5403 C   0  0  0  0  0  0  0  0  0  0  0  0
  -25.0031  -31.3225   21.5176 C   0  0  1  0  0  0  0  0  0  0  0  0
  -27.9197  -13.0312   20.4394 C   0  0  1  0  0  0  0  0  0  0  0  0
  -29.1718  -18.7918   19.4092 C   0  0  2  0  0  0  0  0  0  0  0  0
  -19.4680  -27.7993   25.6349 C   0  0  0  0  0  0  0  0  0  0  0  0
  -25.3986  -30.7146   26.0821 C   0  0  0  0  0  0  0  0  0  0  0  0
  -23.6008  -29.3349   27.1462 C   0  0  0  0  0  0  0  0  0  0  0  0
  -23.1084  -31.6657   26.4062 C   0  0  0  0  0  0  0  0  0  0  0  0
  -19.9453  -27.6367   21.8637 C   0  0  0  0  0  0  0  0  0  0  0  0
  -27.2972  -24.7778   21.0346 C   0  0  0  0  0  0  0  0  0  1  0  0
  -23.4157  -29.8531   24.6707 C   0  0  1  0  0  0  0  0  0  0  0  0
  -20.0024  -28.2500   24.2844 C   0  0  2  0  0  0  0  0  0  0  0  0
  -23.8931  -30.3837   26.0520 C   0  0  0  0  0  0  0  0  0  0  0  0
  -27.8751  -21.2749   19.8574 N   0  0  0  0  0  0  0  0  0  0  0  0
  -25.7713  -11.8426   20.2124 N   0  0  0  0  0  0  0  0  0  0  0  0
  -29.2101  -23.3019   21.2624 N   0  0  0  0  0  0  0  0  0  0  0  0
  -26.4482  -12.8624   20.7672 N   0  0  0  0  0  0  0  0  0  0  0  0
  -24.5312  -30.3677   22.5225 N   0  0  0  0  0  0  0  0  0  0  0  0
  -29.5635  -14.1196   18.9492 N   0  0  0  0  0  0  0  0  0  0  0  0
  -29.4930  -16.5078   18.9060 N   0  0  0  0  0  0  0  0  0  0  0  0
  -26.2138  -14.7131   22.2268 N   0  0  0  0  0  0  0  0  0  0  0  0
  -22.0731  -12.9116   22.1551 N   0  0  0  0  0  0  0  0  0  0  0  0
  -29.7649  -19.8962   20.1159 N   0  0  0  0  0  0  0  0  0  0  0  0
  -26.4117  -33.1524   22.2423 N   0  0  0  0  0  0  0  0  0  0  0  0
  -21.9887  -29.5570   24.6049 N   0  0  0  0  0  0  0  0  0  0  0  0
  -19.5136  -27.3005   23.2449 N   0  3  0  0  0  0  0  0  0  0  0  0
  -23.3490  -14.6124   23.0141 O   0  0  0  0  0  0  0  0  0  0  0  0
  -27.2784  -30.9989   22.0594 O   0  0  0  0  0  0  0  0  0  0  0  0
  -23.1896  -31.9504   23.5861 O   0  0  0  0  0  0  0  0  0  0  0  0
  -22.2187  -27.3254   24.0184 O   0  0  0  0  0  0  0  0  0  0  0  0
  -31.2728  -15.3570   18.0325 O   0  0  0  0  0  0  0  0  0  0  0  0
  -20.4883   -8.4126   19.2771 O   0  0  0  0  0  0  0  0  0  0  0  0
  -27.2890  -25.5394   19.8324 O   0  0  0  0  0  0  0  0  0  1  0  0
  -15.5687  -10.5093   17.9334 F   0  0  0  0  0  0  0  0  0  0  0  0
  -19.3952   -7.9748   16.7759 F   0  0  0  0  0  0  0  0  0  0  0  0
  1  2  1  0  0  0  0
  1  5  2  0  0  0  0
  2  6  2  0  0  0  0
  3  8  2  0  0  0  0
  3 16  1  0  0  0  0
  4  9  1  0  0  0  0
  4 16  2  0  0  0  0
  5 18  1  0  0  0  0
  6 20  1  0  0  0  0
  7 10  2  0  0  0  0
  7 19  1  0  0  0  0
  8 22  1  0  0  0  0
  9 22  2  0  0  0  0
 10 23  1  0  0  0  0
 11 12  2  0  0  0  0
 11 24  1  0  0  0  0
 12 25  1  0  0  0  0
 13 21  1  0  0  0  0
 13 23  2  0  0  0  0
 14 25  2  0  0  0  0
 14 26  1  0  0  0  0
 15 29  1  0  0  0  0
 15 65  2  0  0  0  0
 16 27  1  0  0  0  0
 17 27  1  0  0  0  0
 17 31  2  0  0  0  0
 17 32  1  0  0  0  0
 18 20  2  0  0  0  0
 18 37  1  0  0  0  0
 19 21  2  0  0  0  0
 19 38  1  0  0  0  0
 20 51  1  0  0  0  0
 21 39  1  0  0  0  0
 22 83  1  0  0  0  0
 23 84  1  0  0  0  0
 24 26  2  0  0  0  0
 24 83  1  0  0  0  0
 25 85  1  0  0  0  0
 26 86  1  0  0  0  0
 27 66  2  0  0  0  0
 28 30  2  0  0  0  0
 28 52  1  0  0  0  0
 28 67  1  0  0  0  0
 29 61  1  0  0  0  0
 29 67  2  0  0  0  0
 30 65  1  0  0  0  0
 30 74  1  0  0  0  0
 31 68  1  0  0  0  0
 31 72  1  0  0  0  0
 32 73  1  0  0  0  0
 32 78  2  0  0  0  0
 33 53  1  0  0  0  0
 33 75  1  0  0  0  0
 33 79  2  0  0  0  0
 34 62  1  0  0  0  0
 34 69  1  0  0  0  0
 34 80  2  0  0  0  0
 35 63  1  0  0  0  0
 35 76  1  0  0  0  0
 35 81  2  0  0  0  0
 36 70  1  0  0  0  0
 36 71  1  0  0  0  0
 36 82  2  0  0  0  0
 37 40  1  0  0  0  0
 38 53  1  0  0  0  0
 39 69  1  0  0  0  0
 40 42  1  0  0  0  0
 41 45  1  0  0  0  0
 41 47  1  0  0  0  0
 42 51  1  0  0  0  0
 43 44  1  0  0  0  0
 43 52  1  0  0  0  0
 44 52  1  0  0  0  0
 45 54  1  0  0  0  0
 46 48  1  0  0  0  0
 46 55  1  0  0  0  0
 47 70  1  0  0  0  0
 48 71  1  0  0  0  0
 49 54  1  0  0  0  0
 49 70  1  0  0  0  0
 50 55  1  0  0  0  0
 50 71  1  0  0  0  0
 51 75  1  0  0  0  0
 53 69  1  0  0  0  0
 54 68  1  0  0  0  0
 55 74  1  0  0  0  0
 56 63  1  0  0  0  0
 57 64  1  0  0  0  0
 58 64  1  0  0  0  0
 59 64  1  0  0  0  0
 60 77  1  0  0  0  0
 61 84  1  0  0  0  0
 62 64  1  0  0  0  0
 62 76  1  0  0  0  0
 63 77  1  0  0  0  0
 66 68  1  0  0  0  0
M  CHG  1  77   1
M  ISO  4  36 100  61 101  71 100  84 101
M  END
> <Batch ID>
0184

> <Smiles>
CNC(C)C(=O)NC(C(=O)N1Cc2cc([101O:1][101CH2:1]c3cnc(NC4CC[100N:0]([100C:0](=O)N5CCCC(n6nc(-c7ccc(Oc8ccc(F)cc8F)cc7)c(C(N)=O)c6N)C5)C4)c(C4CC4)n3)ccc2CC1C(=O)NC1CCCc2ccccc21)C(C)(C)C

> <Shape>
0.302

> <Color>
0.126

> <Negative vol penalty>
0.000

$$$$

  -OEChem-04052323103D

 81 90  0     1  0  0  0  0  0999 V2000
  -16.4610  -30.0612   23.2354 C   0  0  0  0  0  0  0  0  0  0  0  0
  -17.4294  -30.4486   22.3149 C   0  0  0  0  0  0  0  0  0  0  0  0
  -25.2737  -15.8656   21.1816 C   0  0  0  0  0  0  0  0  0  0  0  0
  -25.5918  -14.8133   19.0302 C   0  0  0  0  0  0  0  0  0  0  0  0
  -16.8415  -29.4586   24.4338 C   0  0  0  0  0  0  0  0  0  0  0  0
  -18.7791  -30.2347   22.5926 C   0  0  0  0  0  0  0  0  0  0  0  0
  -24.9781  -28.7247   19.3356 C   0  0  0  0  0  0  0  0  0  0  0  0
  -24.1057  -15.1268   21.3702 C   0  0  0  0  0  0  0  0  0  0  0  0
  -24.4238  -14.0745   19.2188 C   0  0  0  0  0  0  0  0  0  0  0  0
  -26.2888  -29.1911   19.2452 C   0  0  0  0  0  0  0  0  0  0  0  0
  -23.4702  -11.3185   20.9263 C   0  0  0  0  0  0  0  0  0  0  0  0
  -23.5078   -9.9591   20.6161 C   0  0  0  0  0  0  0  0  0  0  0  0
  -26.8243  -28.0696   21.3127 C   0  0  0  0  0  0  0  0  0  0  0  0
  -21.7587  -10.2838   18.9814 C   0  0  0  0  0  0  0  0  0  0  0  0
  -26.0167  -15.7089   20.0115 C   0  0  0  0  0  0  0  0  0  0  0  0
  -28.5305  -16.1061   20.1880 C   0  0  0  0  0  0  0  0  0  0  0  0
  -18.1959  -29.2284   24.7222 C   0  0  0  0  0  0  0  0  0  0  0  0
  -24.5771  -27.9349   20.4228 C   0  0  0  0  0  0  0  0  0  0  0  0
  -19.1781  -29.6297   23.7966 C   0  0  0  0  0  0  0  0  0  0  0  0
  -25.5086  -27.5922   21.4133 C   0  0  0  0  0  0  0  0  0  0  0  0
  -23.6808  -14.2313   20.3889 C   0  0  0  0  0  0  0  0  0  0  0  0
  -27.2114  -28.8660   20.2352 C   0  0  0  0  0  0  0  0  0  0  0  0
  -22.5768  -12.1606   20.2641 C   0  0  0  0  0  0  0  0  0  0  0  0
  -22.6521   -9.4418   19.6436 C   0  0  0  0  0  0  0  0  0  0  0  0
  -21.7210  -11.6432   19.2917 C   0  0  0  0  0  0  0  0  0  0  0  0
  -27.2231  -16.4722   19.8158 C   0  0  0  0  0  0  0  0  0  0  0  0
  -29.3105  -17.1625   19.7857 C   0  0  0  0  0  0  0  0  0  0  0  0
  -28.9980  -14.9173   20.8390 C   0  0  0  0  0  0  0  0  0  0  0  0
  -22.4455  -28.2508   22.7595 C   0  0  0  0  0  0  0  0  0  0  0  0
  -23.3154  -25.2002   23.4374 C   0  0  0  0  0  0  0  0  0  0  0  0
  -25.6758  -22.7447   23.2221 C   0  0  0  0  0  0  0  0  0  0  0  0
  -29.9533  -22.7196   19.7372 C   0  0  0  0  0  0  0  0  0  0  0  0
  -18.5614  -28.6168   26.0515 C   0  0  0  0  0  0  0  0  0  0  0  0
  -23.1665  -27.4174   20.4920 C   0  0  0  0  0  0  0  0  0  0  0  0
  -25.1337  -26.7305   22.5903 C   0  0  0  0  0  0  0  0  0  0  0  0
  -19.9914  -28.0854   26.1049 C   0  0  0  0  0  0  0  0  0  0  0  0
  -28.2244  -21.1412   16.8616 C   0  0  0  0  0  0  0  0  0  0  0  0
  -20.9631  -29.1085   25.5251 C   0  0  0  0  0  0  0  0  0  0  0  0
  -27.8857  -19.7639   17.4338 C   0  0  0  0  0  0  0  0  0  0  0  0
  -31.8840  -24.8478   17.4466 C   0  0  0  0  0  0  0  0  0  0  0  0
  -32.8554  -26.6521   18.9871 C   0  0  0  0  0  0  0  0  0  0  0  0
  -28.2341  -22.1990   17.9574 C   0  0  0  0  0  0  0  0  0  0  0  0
  -30.7322  -23.8588   17.5806 C   0  0  0  0  0  0  0  0  0  0  0  0
  -28.8228  -20.5264   19.6696 C   0  0  0  0  0  0  0  0  0  0  0  0
  -31.1395  -24.8958   19.7104 C   0  0  0  0  0  0  0  0  0  0  0  0
  -32.2887  -27.8004   19.8069 C   0  0  0  0  0  0  0  0  0  0  0  0
  -30.6207  -26.9150   18.2519 C   0  0  0  0  0  0  0  0  0  0  0  0
  -20.6509  -29.3920   24.0508 C   0  0  1  0  0  0  0  0  0  0  0  0
  -22.7346  -27.0473   21.9076 C   0  0  1  0  0  0  0  0  0  0  0  0
  -28.8096  -19.4076   18.6128 C   0  0  1  0  0  0  0  0  0  0  0  0
  -31.6368  -25.8266   18.5959 C   0  0  2  0  0  0  0  0  0  0  0  0
  -26.6845  -20.4582   23.4495 C   0  0  0  0  0  0  0  0  0  0  0  0
  -23.8684  -26.1248   26.2920 C   0  0  0  0  0  0  0  0  0  0  0  0
  -25.1700  -24.0161   26.6487 C   0  0  0  0  0  0  0  0  0  0  0  0
  -22.7356  -23.9021   26.1164 C   0  0  0  0  0  0  0  0  0  0  0  0
  -24.6365  -21.8970   20.5839 C   0  0  0  0  0  0  0  0  0  0  0  0
  -30.5293  -29.3586   18.8671 C   0  0  0  0  0  0  0  0  0  0  0  0
  -29.0228  -29.5258   18.8426 C   0  0  0  0  0  0  0  0  0  1  0  0
  -24.3715  -24.5570   24.3033 C   0  0  1  0  0  0  0  0  0  0  0  0
  -25.5770  -21.2855   22.8155 C   0  0  2  0  0  0  0  0  0  0  0  0
  -24.0433  -24.6679   25.8191 C   0  0  0  0  0  0  0  0  0  0  0  0
  -27.1715  -17.6679   19.2228 N   0  0  0  0  0  0  0  0  0  0  0  0
  -28.4562  -18.0623   19.2194 N   0  0  0  0  0  0  0  0  0  0  0  0
  -23.7409  -26.2542   22.6164 N   0  0  0  0  0  0  0  0  0  0  0  0
  -29.1301  -21.8184   19.0528 N   0  0  0  0  0  0  0  0  0  0  0  0
  -30.4651  -23.7991   19.0182 N   0  0  0  0  0  0  0  0  0  0  0  0
  -30.6370  -17.4004   19.8647 N   0  0  0  0  0  0  0  0  0  0  0  0
  -28.0624  -13.9321   21.1834 N   0  0  0  0  0  0  0  0  0  0  0  0
  -21.1425  -28.3181   23.2145 N   0  0  0  0  0  0  0  0  0  0  0  0
  -24.5158  -23.1874   23.8218 N   0  0  0  0  0  0  0  0  0  0  0  0
  -30.8647  -27.9713   19.3121 N   0  3  2  0  0  0  0  0  0  0  0  0
  -25.6798  -21.1523   21.3348 N   0  3  0  0  0  0  0  0  0  0  0  0
  -30.2073  -14.7413   21.1222 O   0  0  0  0  0  0  0  0  0  0  0  0
  -23.3389  -29.0577   22.9883 O   0  0  0  0  0  0  0  0  0  0  0  0
  -22.1572  -24.7782   23.4822 O   0  0  0  0  0  0  0  0  0  0  0  0
  -26.6827  -23.4230   23.0305 O   0  0  0  0  0  0  0  0  0  0  0  0
  -30.2574  -22.5414   20.9240 O   0  0  0  0  0  0  0  0  0  0  0  0
  -22.5412  -13.5101   20.5727 O   0  0  0  0  0  0  0  0  0  0  0  0
  -28.5004  -29.3238   20.1491 O   0  0  0  0  0  0  0  0  0  1  0  0
  -22.6894   -8.1366   19.3447 F   0  0  0  0  0  0  0  0  0  0  0  0
  -20.8614  -12.4474   18.6513 F   0  0  0  0  0  0  0  0  0  0  0  0
  1  2  1  0  0  0  0
  1  5  2  0  0  0  0
  2  6  2  0  0  0  0
  3  8  2  0  0  0  0
  3 15  1  0  0  0  0
  4  9  1  0  0  0  0
  4 15  2  0  0  0  0
  5 17  1  0  0  0  0
  6 19  1  0  0  0  0
  7 10  2  0  0  0  0
  7 18  1  0  0  0  0
  8 21  1  0  0  0  0
  9 21  2  0  0  0  0
 10 22  1  0  0  0  0
 11 12  2  0  0  0  0
 11 23  1  0  0  0  0
 12 24  1  0  0  0  0
 13 20  1  0  0  0  0
 13 22  2  0  0  0  0
 14 24  2  0  0  0  0
 14 25  1  0  0  0  0
 15 26  1  0  0  0  0
 16 26  1  0  0  0  0
 16 27  2  0  0  0  0
 16 28  1  0  0  0  0
 17 19  2  0  0  0  0
 17 33  1  0  0  0  0
 18 20  2  0  0  0  0
 18 34  1  0  0  0  0
 19 48  1  0  0  0  0
 20 35  1  0  0  0  0
 21 78  1  0  0  0  0
 22 79  1  0  0  0  0
 23 25  2  0  0  0  0
 23 78  1  0  0  0  0
 24 80  1  0  0  0  0
 25 81  1  0  0  0  0
 26 62  2  0  0  0  0
 27 63  1  0  0  0  0
 27 67  1  0  0  0  0
 28 68  1  0  0  0  0
 28 73  2  0  0  0  0
 29 49  1  0  0  0  0
 29 69  1  0  0  0  0
 29 74  2  0  0  0  0
 30 59  1  0  0  0  0
 30 64  1  0  0  0  0
 30 75  2  0  0  0  0
 31 60  1  0  0  0  0
 31 70  1  0  0  0  0
 31 76  2  0  0  0  0
 32 65  1  0  0  0  0
 32 66  1  0  0  0  0
 32 77  2  0  0  0  0
 33 36  1  0  0  0  0
 34 49  1  0  0  0  0
 35 64  1  0  0  0  0
 36 38  1  0  0  0  0
 37 39  1  0  0  0  0
 37 42  1  0  0  0  0
 38 48  1  0  0  0  0
 39 50  1  0  0  0  0
 40 43  1  0  0  0  0
 40 51  1  0  0  0  0
 41 46  1  0  0  0  0
 41 51  1  0  0  0  0
 42 65  1  0  0  0  0
 43 66  1  0  0  0  0
 44 50  1  0  0  0  0
 44 65  1  0  0  0  0
 45 51  1  0  0  0  0
 45 66  1  0  0  0  0
 46 71  1  0  0  0  0
 47 51  1  0  0  0  0
 47 71  1  0  0  0  0
 48 69  1  0  0  0  0
 49 64  1  0  0  0  0
 50 63  1  0  0  0  0
 52 60  1  0  0  0  0
 53 61  1  0  0  0  0
 54 61  1  0  0  0  0
 55 61  1  0  0  0  0
 56 72  1  0  0  0  0
 57 58  1  0  0  0  0
 57 71  1  0  0  0  0
 58 79  1  0  0  0  0
 59 61  1  0  0  0  0
 59 70  1  0  0  0  0
 60 72  1  0  0  0  0
 62 63  1  0  0  0  0
M  CHG  2  71   1  72   1
M  ISO  4  32 100  58 101  66 100  79 101
M  END
> <Batch ID>
0184

> <Smiles>
CNC(C)C(=O)NC(C(=O)N1Cc2cc([101O:1][101CH2:1]CN3CCC4(CC[100N:0]([100C:0](=O)N5CCCC(n6nc(-c7ccc(Oc8ccc(F)cc8F)cc7)c(C(N)=O)c6N)C5)C4)C3)ccc2CC1C(=O)NC1CCCc2ccccc21)C(C)(C)C

> <Shape>
0.239

> <Color>
0.076

> <Negative vol penalty>
0.000

$$$$

  -OEChem-04052323103D

 81 90  0     1  0  0  0  0  0999 V2000
  -25.3816  -10.5576   19.6196 C   0  0  0  0  0  0  0  0  0  0  0  0
  -26.3880  -11.4331   19.2248 C   0  0  0  0  0  0  0  0  0  0  0  0
  -19.1661  -27.4586   18.3878 C   0  0  0  0  0  0  0  0  0  0  0  0
  -20.7463  -25.7803   17.6646 C   0  0  0  0  0  0  0  0  0  0  0  0
  -24.1359  -11.0552   19.9999 C   0  0  0  0  0  0  0  0  0  0  0  0
  -26.1490  -12.8068   19.2090 C   0  0  0  0  0  0  0  0  0  0  0  0
  -29.4761  -19.0647   20.2506 C   0  0  0  0  0  0  0  0  0  0  0  0
  -18.3674  -27.1851   17.2774 C   0  0  0  0  0  0  0  0  0  0  0  0
  -19.9477  -25.5066   16.5543 C   0  0  0  0  0  0  0  0  0  0  0  0
  -29.6860  -20.2909   19.6211 C   0  0  0  0  0  0  0  0  0  0  0  0
  -17.1228  -23.7765   15.8856 C   0  0  0  0  0  0  0  0  0  0  0  0
  -16.8915  -22.4378   15.5697 C   0  0  0  0  0  0  0  0  0  0  0  0
  -27.5209  -21.0416   20.3746 C   0  0  0  0  0  0  0  0  0  0  0  0
  -17.9134  -22.7718   13.4061 C   0  0  0  0  0  0  0  0  0  0  0  0
  -20.3556  -26.7563   18.5814 C   0  0  0  0  0  0  0  0  0  0  0  0
  -21.1140  -26.4292   20.9950 C   0  0  0  0  0  0  0  0  0  0  0  0
  -23.8846  -12.4363   19.9981 C   0  0  0  0  0  0  0  0  0  0  0  0
  -28.2804  -18.8135   20.9388 C   0  0  0  0  0  0  0  0  0  0  0  0
  -24.8984  -13.3233   19.5884 C   0  0  0  0  0  0  0  0  0  0  0  0
  -27.2993  -19.8124   21.0142 C   0  0  0  0  0  0  0  0  0  0  0  0
  -18.7582  -26.2091   16.3607 C   0  0  0  0  0  0  0  0  0  0  0  0
  -28.7071  -21.2785   19.6805 C   0  0  0  0  0  0  0  0  0  0  0  0
  -17.7493  -24.6130   14.9618 C   0  0  0  0  0  0  0  0  0  0  0  0
  -17.2868  -21.9354   14.3299 C   0  0  0  0  0  0  0  0  0  0  0  0
  -18.1446  -24.1106   13.7220 C   0  0  0  0  0  0  0  0  0  0  0  0
  -21.1813  -27.0388   19.7278 C   0  0  0  0  0  0  0  0  0  0  0  0
  -22.1020  -27.0439   21.7247 C   0  0  0  0  0  0  0  0  0  0  0  0
  -20.2368  -25.3993   21.4699 C   0  0  0  0  0  0  0  0  0  0  0  0
  -25.9051  -16.7255   20.6201 C   0  0  0  0  0  0  0  0  0  0  0  0
  -30.0535  -25.1872   18.7161 C   0  0  0  0  0  0  0  0  0  0  0  0
  -24.8892  -18.0475   23.4027 C   0  0  0  0  0  0  0  0  0  0  0  0
  -24.9032  -20.7319   25.5099 C   0  0  0  0  0  0  0  0  0  0  0  0
  -27.1619  -29.8363   20.0320 C   0  0  0  0  0  0  0  0  0  0  0  0
  -22.5073  -12.9240   20.3722 C   0  0  0  0  0  0  0  0  0  0  0  0
  -28.0805  -17.4953   21.6353 C   0  0  0  0  0  0  0  0  0  0  0  0
  -26.0067  -19.5999   21.7575 C   0  0  0  0  0  0  0  0  0  0  0  0
  -22.4543  -14.4169   20.6861 C   0  0  0  0  0  0  0  0  0  0  0  0
  -24.4972  -31.1763   22.0618 C   0  0  0  0  0  0  0  0  0  0  0  0
  -23.2033  -15.2131   19.6223 C   0  0  0  0  0  0  0  0  0  0  0  0
  -23.3306  -30.2239   21.7927 C   0  0  0  0  0  0  0  0  0  0  0  0
  -31.0489  -24.2439   16.5598 C   0  0  0  0  0  0  0  0  0  0  0  0
  -29.5588  -24.2140   16.4061 C   0  0  0  0  0  0  0  0  0  0  0  0
  -25.3849  -31.3548   20.8310 C   0  0  0  0  0  0  0  0  0  0  0  0
  -24.6999  -29.1579   19.9620 C   0  0  0  0  0  0  0  0  0  0  0  0
  -28.8865  -28.1238   19.2520 C   0  0  0  0  0  0  0  0  0  0  0  0
  -26.9761  -27.2581   19.6012 C   0  0  0  0  0  0  0  0  0  0  0  0
  -24.6854  -14.8215   19.5817 C   0  0  1  0  0  0  0  0  0  0  0  0
  -26.6109  -17.1618   21.8727 C   0  0  1  0  0  0  0  0  0  0  0  0
  -23.8244  -28.8926   21.1958 C   0  0  2  0  0  0  0  0  0  0  0  0
  -28.4181  -26.7501   19.7484 C   0  0  0  0  0  0  0  0  0  0  0  0
  -30.1746  -24.0359   17.7737 C   0  0  0  0  0  0  0  0  0  0  0  0
  -23.9486  -21.5308   27.6888 C   0  0  0  0  0  0  0  0  0  0  0  0
  -22.2030  -18.5410   22.0422 C   0  0  0  0  0  0  0  0  0  0  0  0
  -21.6445  -20.1442   23.8823 C   0  0  0  0  0  0  0  0  0  0  0  0
  -22.0436  -17.7380   24.4053 C   0  0  0  0  0  0  0  0  0  0  0  0
  -27.5909  -21.0188   26.7152 C   0  0  0  0  0  0  0  0  0  0  0  0
  -30.1400  -22.6601   18.3791 C   0  0  0  0  0  0  0  0  0  1  0  0
  -23.9994  -19.2097   23.7719 C   0  0  1  0  0  0  0  0  0  0  0  0
  -25.1173  -20.8344   27.0092 C   0  0  2  0  0  0  0  0  0  0  0  0
  -22.4960  -18.9119   23.5097 C   0  0  0  0  0  0  0  0  0  0  0  0
  -22.1365  -27.9695   19.6535 N   0  0  0  0  0  0  0  0  0  0  0  0
  -22.6784  -27.9493   20.8832 N   0  0  0  0  0  0  0  0  0  0  0  0
  -25.8556  -18.2922   22.4168 N   0  0  0  0  0  0  0  0  0  0  0  0
  -25.8093  -30.0550   20.3046 N   0  0  0  0  0  0  0  0  0  0  0  0
  -27.5427  -28.5979   19.5717 N   0  0  0  0  0  0  0  0  0  0  0  0
  -22.5252  -26.8929   22.9977 N   0  0  0  0  0  0  0  0  0  0  0  0
  -19.2793  -24.8784   20.5889 N   0  0  0  0  0  0  0  0  0  0  0  0
  -25.4017  -15.4398   20.6768 N   0  0  0  0  0  0  0  0  0  0  0  0
  -28.7629  -25.6384   18.8748 N   0  0  0  0  0  0  0  0  0  0  0  0
  -24.3105  -19.5374   25.1591 N   0  0  0  0  0  0  0  0  0  0  0  0
  -26.3589  -21.6044   27.3037 N   0  3  0  0  0  0  0  0  0  0  0  0
  -20.2894  -24.9657   22.6458 O   0  0  0  0  0  0  0  0  0  0  0  0
  -25.8219  -17.4985   19.6729 O   0  0  0  0  0  0  0  0  0  0  0  0
  -31.0581  -25.6313   19.2596 O   0  0  0  0  0  0  0  0  0  0  0  0
  -24.7372  -16.9644   23.9732 O   0  0  0  0  0  0  0  0  0  0  0  0
  -25.2258  -21.6240   24.7284 O   0  0  0  0  0  0  0  0  0  0  0  0
  -28.0152  -30.7130   20.2234 O   0  0  0  0  0  0  0  0  0  0  0  0
  -17.9789  -25.9417   15.2772 O   0  0  0  0  0  0  0  0  0  0  0  0
  -28.9110  -22.4866   19.0609 O   0  0  0  0  0  0  0  0  0  1  0  0
  -17.0660  -20.6494   14.0273 F   0  0  0  0  0  0  0  0  0  0  0  0
  -18.7480  -24.9091   12.8308 F   0  0  0  0  0  0  0  0  0  0  0  0
  1  2  1  0  0  0  0
  1  5  2  0  0  0  0
  2  6  2  0  0  0  0
  3  8  2  0  0  0  0
  3 15  1  0  0  0  0
  4  9  1  0  0  0  0
  4 15  2  0  0  0  0
  5 17  1  0  0  0  0
  6 19  1  0  0  0  0
  7 10  2  0  0  0  0
  7 18  1  0  0  0  0
  8 21  1  0  0  0  0
  9 21  2  0  0  0  0
 10 22  1  0  0  0  0
 11 12  2  0  0  0  0
 11 23  1  0  0  0  0
 12 24  1  0  0  0  0
 13 20  1  0  0  0  0
 13 22  2  0  0  0  0
 14 24  2  0  0  0  0
 14 25  1  0  0  0  0
 15 26  1  0  0  0  0
 16 26  1  0  0  0  0
 16 27  2  0  0  0  0
 16 28  1  0  0  0  0
 17 19  2  0  0  0  0
 17 34  1  0  0  0  0
 18 20  2  0  0  0  0
 18 35  1  0  0  0  0
 19 47  1  0  0  0  0
 20 36  1  0  0  0  0
 21 78  1  0  0  0  0
 22 79  1  0  0  0  0
 23 25  2  0  0  0  0
 23 78  1  0  0  0  0
 24 80  1  0  0  0  0
 25 81  1  0  0  0  0
 26 61  2  0  0  0  0
 27 62  1  0  0  0  0
 27 66  1  0  0  0  0
 28 67  1  0  0  0  0
 28 72  2  0  0  0  0
 29 48  1  0  0  0  0
 29 68  1  0  0  0  0
 29 73  2  0  0  0  0
 30 51  1  0  0  0  0
 30 69  1  0  0  0  0
 30 74  2  0  0  0  0
 31 58  1  0  0  0  0
 31 63  1  0  0  0  0
 31 75  2  0  0  0  0
 32 59  1  0  0  0  0
 32 70  1  0  0  0  0
 32 76  2  0  0  0  0
 33 64  1  0  0  0  0
 33 65  1  0  0  0  0
 33 77  2  0  0  0  0
 34 37  1  0  0  0  0
 35 48  1  0  0  0  0
 36 63  1  0  0  0  0
 37 39  1  0  0  0  0
 38 40  1  0  0  0  0
 38 43  1  0  0  0  0
 39 47  1  0  0  0  0
 40 49  1  0  0  0  0
 41 42  1  0  0  0  0
 41 51  1  0  0  0  0
 42 51  1  0  0  0  0
 43 64  1  0  0  0  0
 44 49  1  0  0  0  0
 44 64  1  0  0  0  0
 45 50  1  0  0  0  0
 45 65  1  0  0  0  0
 46 50  1  0  0  0  0
 46 65  1  0  0  0  0
 47 68  1  0  0  0  0
 48 63  1  0  0  0  0
 49 62  1  0  0  0  0
 50 69  1  0  0  0  0
 51 57  1  0  0  0  0
 52 59  1  0  0  0  0
 53 60  1  0  0  0  0
 54 60  1  0  0  0  0
 55 60  1  0  0  0  0
 56 71  1  0  0  0  0
 57 79  1  0  0  0  0
 58 60  1  0  0  0  0
 58 70  1  0  0  0  0
 59 71  1  0  0  0  0
 61 62  1  0  0  0  0
M  CHG  1  71   1
M  ISO  4  33 100  57 101  65 100  79 101
M  END
> <Batch ID>
0184

> <Smiles>
CNC(C)C(=O)NC(C(=O)N1Cc2cc([101O:1][101CH2:1]C3(C(=O)NC4C[100N:0]([100C:0](=O)N5CCCC(n6nc(-c7ccc(Oc8ccc(F)cc8F)cc7)c(C(N)=O)c6N)C5)C4)CC3)ccc2CC1C(=O)NC1CCCc2ccccc21)C(C)(C)C

> <Shape>
0.194

> <Color>
0.071

> <Negative vol penalty>
0.000

$$$$

  -OEChem-04052323103D

 83 92  0     1  0  0  0  0  0999 V2000
  -32.5391   -7.7666   38.4675 C   0  0  0  0  0  0  0  0  0  0  0  0
  -33.0495   -8.6162   37.4912 C   0  0  0  0  0  0  0  0  0  0  0  0
  -23.1431   -9.8551   19.9047 C   0  0  0  0  0  0  0  0  0  0  0  0
  -23.7731   -9.8884   22.2369 C   0  0  0  0  0  0  0  0  0  0  0  0
  -31.3064   -7.1447   38.2735 C   0  0  0  0  0  0  0  0  0  0  0  0
  -32.3280   -8.8436   36.3199 C   0  0  0  0  0  0  0  0  0  0  0  0
  -31.0322  -13.9470   31.4627 C   0  0  0  0  0  0  0  0  0  0  0  0
  -30.9908  -13.7994   23.7328 C   0  0  0  0  0  0  0  0  0  0  0  0
  -22.3785   -8.7100   20.1276 C   0  0  0  0  0  0  0  0  0  0  0  0
  -23.0084   -8.7433   22.4598 C   0  0  0  0  0  0  0  0  0  0  0  0
  -31.0567  -14.1529   30.0840 C   0  0  0  0  0  0  0  0  0  0  0  0
  -19.7461   -7.9735   22.8903 C   0  0  0  0  0  0  0  0  0  0  0  0
  -18.9244   -7.9540   24.0172 C   0  0  0  0  0  0  0  0  0  0  0  0
  -31.1534  -13.6359   25.1074 C   0  0  0  0  0  0  0  0  0  0  0  0
  -28.9015  -13.0863   29.8925 C   0  0  0  0  0  0  0  0  0  0  0  0
  -20.1091   -6.0191   24.8477 C   0  0  0  0  0  0  0  0  0  0  0  0
  -23.8405  -10.4443   20.9594 C   0  0  0  0  0  0  0  0  0  0  0  0
  -24.2058  -12.9654   20.8256 C   0  0  0  0  0  0  0  0  0  0  0  0
  -30.5649   -7.3721   37.1034 C   0  0  0  0  0  0  0  0  0  0  0  0
  -29.9454  -13.2984   32.0663 C   0  0  0  0  0  0  0  0  0  0  0  0
  -31.0848   -8.2231   36.1095 C   0  0  0  0  0  0  0  0  0  0  0  0
  -28.8645  -12.8757   31.2794 C   0  0  0  0  0  0  0  0  0  0  0  0
  -30.6512  -15.0549   23.2631 C   0  0  0  0  0  0  0  0  0  0  0  0
  -22.3111   -8.1541   21.4051 C   0  0  0  0  0  0  0  0  0  0  0  0
  -29.9926  -13.7199   29.2983 C   0  0  0  0  0  0  0  0  0  0  0  0
  -20.7493   -7.0157   22.7420 C   0  0  0  0  0  0  0  0  0  0  0  0
  -19.1059   -6.9768   24.9959 C   0  0  0  0  0  0  0  0  0  0  0  0
  -20.9308   -6.0386   23.7207 C   0  0  0  0  0  0  0  0  0  0  0  0
  -24.6310  -11.6268   20.7297 C   0  0  0  0  0  0  0  0  0  0  0  0
  -30.5432  -16.1000   24.1671 C   0  0  0  0  0  0  0  0  0  0  0  0
  -30.9903  -14.7435   25.9365 C   0  0  0  0  0  0  0  0  0  0  0  0
  -25.3218  -13.7032   20.5145 C   0  0  0  0  0  0  0  0  0  0  0  0
  -22.9174  -13.4946   21.1656 C   0  0  0  0  0  0  0  0  0  0  0  0
  -29.5770  -10.6165   33.7323 C   0  0  0  0  0  0  0  0  0  0  0  0
  -26.5467  -11.7165   34.0923 C   0  0  0  0  0  0  0  0  0  0  0  0
  -24.0198  -13.6845   32.9140 C   0  0  0  0  0  0  0  0  0  0  0  0
  -30.6514  -14.7992   20.7724 C   0  0  0  0  0  0  0  0  0  0  0  0
  -29.2592   -6.6404   36.9178 C   0  0  0  0  0  0  0  0  0  0  0  0
  -29.9220  -13.1078   33.5581 C   0  0  0  0  0  0  0  0  0  0  0  0
  -27.6648  -12.1924   31.8812 C   0  0  0  0  0  0  0  0  0  0  0  0
  -30.2695  -17.4013   23.4713 C   0  0  0  0  0  0  0  0  0  0  0  0
  -28.3837   -7.2274   35.8136 C   0  0  0  0  0  0  0  0  0  0  0  0
  -29.7765  -12.2995   18.5794 C   0  0  0  0  0  0  0  0  0  0  0  0
  -29.2114   -7.4919   34.5599 C   0  0  0  0  0  0  0  0  0  0  0  0
  -28.3175  -12.0083   18.9341 C   0  0  0  0  0  0  0  0  0  0  0  0
  -30.6158  -12.5073   19.8358 C   0  0  0  0  0  0  0  0  0  0  0  0
  -28.6452  -13.2864   21.1057 C   0  0  0  0  0  0  0  0  0  0  0  0
  -30.3203   -8.5143   34.8363 C   0  0  1  0  0  0  0  0  0  0  0  0
  -28.9990  -11.9770   34.0016 C   0  0  1  0  0  0  0  0  0  0  0  0
  -27.7454  -13.0899   19.8692 C   0  0  2  0  0  0  0  0  0  0  0  0
  -30.4003  -17.0031   21.9850 C   0  0  2  0  0  0  0  0  0  0  0  0
  -28.0090  -19.6034   20.4169 C   0  0  0  0  0  0  0  0  0  0  0  0
  -21.6491  -14.3479   33.4009 C   0  0  0  0  0  0  0  0  0  0  0  0
  -25.5773   -9.0285   33.0225 C   0  0  0  0  0  0  0  0  0  0  0  0
  -23.3332  -10.0698   32.6376 C   0  0  0  0  0  0  0  0  0  0  0  0
  -24.2574   -9.9216   34.9499 C   0  0  0  0  0  0  0  0  0  0  0  0
  -24.7608  -16.5313   33.2384 C   0  0  0  0  0  0  0  0  0  0  0  0
  -31.1574  -14.5778   27.4106 C   0  0  0  0  0  0  0  0  0  1  0  0
  -29.2359  -17.5443   21.1598 C   0  0  0  0  0  0  0  0  0  0  0  0
  -29.1535  -19.0620   21.2585 C   0  0  0  0  0  0  0  0  0  0  0  0
  -25.2584  -11.5734   33.3185 C   0  0  1  0  0  0  0  0  0  0  0  0
  -23.1168  -14.6877   33.6087 C   0  0  2  0  0  0  0  0  0  0  0  0
  -24.6299  -10.1594   33.4703 C   0  0  0  0  0  0  0  0  0  0  0  0
  -25.9166  -11.5176   20.3845 N   0  0  0  0  0  0  0  0  0  0  0  0
  -30.6931  -15.9890   25.4987 N   0  0  0  0  0  0  0  0  0  0  0  0
  -26.3089  -12.7970   20.2607 N   0  0  0  0  0  0  0  0  0  0  0  0
  -30.4628  -15.5210   21.9458 N   0  0  0  0  0  0  0  0  0  0  0  0
  -27.6917  -12.0234   33.3435 N   0  0  0  0  0  0  0  0  0  0  0  0
  -30.0319  -13.5441   20.6859 N   0  0  0  0  0  0  0  0  0  0  0  0
  -25.5451  -15.0323   20.4359 N   0  0  0  0  0  0  0  0  0  0  0  0
  -21.8819  -12.5963   21.4574 N   0  0  0  0  0  0  0  0  0  0  0  0
  -29.7755   -9.8547   34.8679 N   0  0  0  0  0  0  0  0  0  0  0  0
  -24.3938  -12.6622   33.7604 N   0  0  0  0  0  0  0  0  0  0  0  0
  -23.3614  -16.0588   33.0785 N   0  3  0  0  0  0  0  0  0  0  0  0
  -22.6868  -14.7273   21.1934 O   0  0  0  0  0  0  0  0  0  0  0  0
  -29.8233  -10.2821   32.5793 O   0  0  0  0  0  0  0  0  0  0  0  0
  -26.5362  -11.5687   35.3169 O   0  0  0  0  0  0  0  0  0  0  0  0
  -24.3564  -13.7945   31.7371 O   0  0  0  0  0  0  0  0  0  0  0  0
  -31.2984  -15.2743   19.8307 O   0  0  0  0  0  0  0  0  0  0  0  0
  -21.5648   -7.0369   21.6230 O   0  0  0  0  0  0  0  0  0  0  0  0
  -30.0144  -13.9205   27.9428 O   0  0  0  0  0  0  0  0  0  1  0  0
  -18.3177   -6.9592   26.0788 F   0  0  0  0  0  0  0  0  0  0  0  0
  -21.8937   -5.1166   23.5844 F   0  0  0  0  0  0  0  0  0  0  0  0
  1  2  1  0  0  0  0
  1  5  2  0  0  0  0
  2  6  2  0  0  0  0
  3  9  2  0  0  0  0
  3 17  1  0  0  0  0
  4 10  1  0  0  0  0
  4 17  2  0  0  0  0
  5 19  1  0  0  0  0
  6 21  1  0  0  0  0
  7 11  2  0  0  0  0
  7 20  1  0  0  0  0
  8 14  2  0  0  0  0
  8 23  1  0  0  0  0
  9 24  1  0  0  0  0
 10 24  2  0  0  0  0
 11 25  1  0  0  0  0
 12 13  2  0  0  0  0
 12 26  1  0  0  0  0
 13 27  1  0  0  0  0
 14 31  1  0  0  0  0
 15 22  1  0  0  0  0
 15 25  2  0  0  0  0
 16 27  2  0  0  0  0
 16 28  1  0  0  0  0
 17 29  1  0  0  0  0
 18 29  1  0  0  0  0
 18 32  2  0  0  0  0
 18 33  1  0  0  0  0
 19 21  2  0  0  0  0
 19 38  1  0  0  0  0
 20 22  2  0  0  0  0
 20 39  1  0  0  0  0
 21 48  1  0  0  0  0
 22 40  1  0  0  0  0
 23 30  2  0  0  0  0
 23 67  1  0  0  0  0
 24 80  1  0  0  0  0
 25 81  1  0  0  0  0
 26 28  2  0  0  0  0
 26 80  1  0  0  0  0
 27 82  1  0  0  0  0
 28 83  1  0  0  0  0
 29 64  2  0  0  0  0
 30 41  1  0  0  0  0
 30 65  1  0  0  0  0
 31 58  1  0  0  0  0
 31 65  2  0  0  0  0
 32 66  1  0  0  0  0
 32 70  1  0  0  0  0
 33 71  1  0  0  0  0
 33 75  2  0  0  0  0
 34 49  1  0  0  0  0
 34 72  1  0  0  0  0
 34 76  2  0  0  0  0
 35 61  1  0  0  0  0
 35 68  1  0  0  0  0
 35 77  2  0  0  0  0
 36 62  1  0  0  0  0
 36 73  1  0  0  0  0
 36 78  2  0  0  0  0
 37 67  1  0  0  0  0
 37 69  1  0  0  0  0
 37 79  2  0  0  0  0
 38 42  1  0  0  0  0
 39 49  1  0  0  0  0
 40 68  1  0  0  0  0
 41 51  1  0  0  0  0
 42 44  1  0  0  0  0
 43 45  1  0  0  0  0
 43 46  1  0  0  0  0
 44 48  1  0  0  0  0
 45 50  1  0  0  0  0
 46 69  1  0  0  0  0
 47 50  1  0  0  0  0
 47 69  1  0  0  0  0
 48 72  1  0  0  0  0
 49 68  1  0  0  0  0
 50 66  1  0  0  0  0
 51 59  1  0  0  0  0
 51 67  1  0  0  0  0
 52 60  1  0  0  0  0
 53 62  1  0  0  0  0
 54 63  1  0  0  0  0
 55 63  1  0  0  0  0
 56 63  1  0  0  0  0
 57 74  1  0  0  0  0
 58 81  1  0  0  0  0
 59 60  1  0  0  0  0
 61 63  1  0  0  0  0
 61 73  1  0  0  0  0
 62 74  1  0  0  0  0
 64 66  1  0  0  0  0
M  CHG  1  74   1
M  ISO  4  37 100  58 101  67 100  81 101
M  END
> <Batch ID>
0184

> <Smiles>
CCCC1Cc2nc([101CH2:1][101O:1]c3ccc4c(c3)CN(C(=O)C(NC(=O)C(C)NC)C(C)(C)C)C(C(=O)NC3CCCc5ccccc53)C4)ccc2[100N:0]1[100C:0](=O)N1CCCC(n2nc(-c3ccc(Oc4ccc(F)cc4F)cc3)c(C(N)=O)c2N)C1

> <Shape>
0.180

> <Color>
0.180

> <Negative vol penalty>
0.000

$$$$

  -OEChem-04052323103D

 83 92  0     1  0  0  0  0  0999 V2000
  -19.1718  -30.9094   26.9101 C   0  0  0  0  0  0  0  0  0  0  0  0
  -20.2917  -30.0937   26.7840 C   0  0  0  0  0  0  0  0  0  0  0  0
  -23.0892   -9.9115   21.5309 C   0  0  0  0  0  0  0  0  0  0  0  0
  -23.6570  -11.0698   23.5738 C   0  0  0  0  0  0  0  0  0  0  0  0
  -18.1716  -30.8732   25.9395 C   0  0  0  0  0  0  0  0  0  0  0  0
  -20.4114  -29.2403   25.6877 C   0  0  0  0  0  0  0  0  0  0  0  0
  -25.5723  -27.6799   22.7833 C   0  0  0  0  0  0  0  0  0  0  0  0
  -22.3330   -8.9946   22.2610 C   0  0  0  0  0  0  0  0  0  0  0  0
  -22.9007  -10.1528   24.3038 C   0  0  0  0  0  0  0  0  0  0  0  0
  -26.3964  -26.5588   22.8721 C   0  0  0  0  0  0  0  0  0  0  0  0
  -22.8959   -6.2685   24.1783 C   0  0  0  0  0  0  0  0  0  0  0  0
  -23.0452   -4.9161   23.8712 C   0  0  0  0  0  0  0  0  0  0  0  0
  -25.2541  -25.5774   20.9876 C   0  0  0  0  0  0  0  0  0  0  0  0
  -20.6971   -4.7824   23.3184 C   0  0  0  0  0  0  0  0  0  0  0  0
  -30.7538  -22.0606   22.4271 C   0  0  0  0  0  0  0  0  0  0  0  0
  -28.2822  -21.9426   23.4295 C   0  0  0  0  0  0  0  0  0  0  0  0
  -23.7513  -10.9491   22.1873 C   0  0  0  0  0  0  0  0  0  0  0  0
  -24.0892  -13.1077   20.8706 C   0  0  0  0  0  0  0  0  0  0  0  0
  -18.2837  -30.0261   24.8257 C   0  0  0  0  0  0  0  0  0  0  0  0
  -24.5741  -27.7535   21.8012 C   0  0  0  0  0  0  0  0  0  0  0  0
  -19.4111  -29.1918   24.7020 C   0  0  0  0  0  0  0  0  0  0  0  0
  -24.4204  -26.7016   20.8869 C   0  0  0  0  0  0  0  0  0  0  0  0
  -22.2387   -9.1152   23.6474 C   0  0  0  0  0  0  0  0  0  0  0  0
  -26.2354  -25.5061   21.9760 C   0  0  0  0  0  0  0  0  0  0  0  0
  -21.6471   -6.8779   24.0555 C   0  0  0  0  0  0  0  0  0  0  0  0
  -21.9458   -4.1731   23.4412 C   0  0  0  0  0  0  0  0  0  0  0  0
  -20.5478   -6.1348   23.6255 C   0  0  0  0  0  0  0  0  0  0  0  0
  -24.5330  -11.8962   21.4338 C   0  0  0  0  0  0  0  0  0  0  0  0
  -30.2162  -20.8664   22.8542 C   0  0  0  0  0  0  0  0  0  0  0  0
  -28.8200  -23.1370   23.0031 C   0  0  0  0  0  0  0  0  0  0  0  0
  -25.2039  -13.6330   20.2639 C   0  0  0  0  0  0  0  0  0  0  0  0
  -22.7859  -13.7048   20.8937 C   0  0  0  0  0  0  0  0  0  0  0  0
  -21.4034  -27.9752   21.8378 C   0  0  0  0  0  0  0  0  0  0  0  0
  -21.7787  -28.3041   18.6326 C   0  0  0  0  0  0  0  0  0  0  0  0
  -23.6975  -27.7402   15.8673 C   0  0  0  0  0  0  0  0  0  0  0  0
  -30.6482  -14.8590   20.3104 C   0  0  0  0  0  0  0  0  0  0  0  0
  -17.1544  -29.9871   23.8268 C   0  0  0  0  0  0  0  0  0  0  0  0
  -23.7110  -28.9814   21.7019 C   0  0  0  0  0  0  0  0  0  0  0  0
  -23.3770  -26.7405   19.8014 C   0  0  0  0  0  0  0  0  0  0  0  0
  -17.5347  -29.3287   22.5031 C   0  0  0  0  0  0  0  0  0  0  0  0
  -29.7236  -11.5652   19.3242 C   0  0  0  0  0  0  0  0  0  0  0  0
  -18.2818  -28.0223   22.7519 C   0  0  0  0  0  0  0  0  0  0  0  0
  -28.2568  -11.4558   19.7442 C   0  0  0  0  0  0  0  0  0  0  0  0
  -30.5372  -12.3843   20.3236 C   0  0  0  0  0  0  0  0  0  0  0  0
  -28.5238  -13.6127   21.0385 C   0  0  0  0  0  0  0  0  0  0  0  0
  -31.6801  -17.7108   21.3698 C   0  0  0  0  0  0  0  0  0  0  0  0
  -29.8203  -18.5375   20.9080 C   0  0  0  0  0  0  0  0  0  0  0  0
  -19.5889  -28.2708   23.5143 C   0  0  1  0  0  0  0  0  0  0  0  0
  -22.3881  -28.7256   20.9864 C   0  0  1  0  0  0  0  0  0  0  0  0
  -27.6512  -12.8426   20.0326 C   0  0  2  0  0  0  0  0  0  0  0  0
  -30.6008  -17.3402   20.3371 C   0  0  0  0  0  0  0  0  0  0  0  0
  -23.7233  -28.0910   13.3826 C   0  0  0  0  0  0  0  0  0  0  0  0
  -19.7905  -26.0148   18.2911 C   0  0  0  0  0  0  0  0  0  0  0  0
  -20.5694  -25.7842   15.9229 C   0  0  0  0  0  0  0  0  0  0  0  0
  -19.4934  -27.9038   16.6793 C   0  0  0  0  0  0  0  0  0  0  0  0
  -26.1392  -29.4063   16.0112 C   0  0  0  0  0  0  0  0  0  0  0  0
  -31.0056  -19.6074   22.7654 C   0  0  0  0  0  0  0  0  0  0  0  0
  -28.0242  -24.4059   23.0923 C   0  0  0  0  0  0  0  0  0  1  0  0
  -21.8347  -27.3552   17.4598 C   0  0  1  0  0  0  0  0  0  0  0  0
  -24.1271  -28.6561   14.7355 C   0  0  2  0  0  0  0  0  0  0  0  0
  -20.4405  -26.7626   17.1098 C   0  0  0  0  0  0  0  0  0  0  0  0
  -28.9707  -20.7859   23.3627 N   0  0  0  0  0  0  0  0  0  0  0  0
  -30.0654  -23.2174   22.4942 N   0  0  0  0  0  0  0  0  0  0  0  0
  -25.8286  -11.6654   21.2052 N   0  0  0  0  0  0  0  0  0  0  0  0
  -26.2084  -12.7389   20.4915 N   0  0  0  0  0  0  0  0  0  0  0  0
  -22.5535  -27.9598   19.7493 N   0  0  0  0  0  0  0  0  0  0  0  0
  -29.9102  -13.6884   20.5518 N   0  0  0  0  0  0  0  0  0  0  0  0
  -25.4130  -14.7678   19.5632 N   0  0  0  0  0  0  0  0  0  0  0  0
  -21.7541  -13.0311   21.5615 N   0  0  0  0  0  0  0  0  0  0  0  0
  -20.6047  -28.7859   22.6215 N   0  0  0  0  0  0  0  0  0  0  0  0
  -22.4619  -28.0921   16.3681 N   0  0  0  0  0  0  0  0  0  0  0  0
  -29.9768  -16.0526   20.5458 N   0  0  0  0  0  0  0  0  0  0  0  0
  -31.1103  -19.0688   21.3799 N   0  3  0  0  0  0  0  0  0  0  0  0
  -25.6066  -28.8353   14.7474 N   0  3  0  0  0  0  0  0  0  0  0  0
  -22.5396  -14.7952   20.3246 O   0  0  0  0  0  0  0  0  0  0  0  0
  -21.3697  -26.7513   21.7864 O   0  0  0  0  0  0  0  0  0  0  0  0
  -21.0789  -29.3172   18.5579 O   0  0  0  0  0  0  0  0  0  0  0  0
  -24.3871  -26.8037   16.2647 O   0  0  0  0  0  0  0  0  0  0  0  0
  -31.8168  -14.8417   19.9093 O   0  0  0  0  0  0  0  0  0  0  0  0
  -21.5007   -8.2208   24.3601 O   0  0  0  0  0  0  0  0  0  0  0  0
  -27.0380  -24.4104   22.0609 O   0  0  0  0  0  0  0  0  0  1  0  0
  -22.0897   -2.8748   23.1448 F   0  0  0  0  0  0  0  0  0  0  0  0
  -19.3459   -6.7150   23.5045 F   0  0  0  0  0  0  0  0  0  0  0  0
  1  2  1  0  0  0  0
  1  5  2  0  0  0  0
  2  6  2  0  0  0  0
  3  8  2  0  0  0  0
  3 17  1  0  0  0  0
  4  9  1  0  0  0  0
  4 17  2  0  0  0  0
  5 19  1  0  0  0  0
  6 21  1  0  0  0  0
  7 10  2  0  0  0  0
  7 20  1  0  0  0  0
  8 23  1  0  0  0  0
  9 23  2  0  0  0  0
 10 24  1  0  0  0  0
 11 12  2  0  0  0  0
 11 25  1  0  0  0  0
 12 26  1  0  0  0  0
 13 22  1  0  0  0  0
 13 24  2  0  0  0  0
 14 26  2  0  0  0  0
 14 27  1  0  0  0  0
 15 29  2  0  0  0  0
 15 63  1  0  0  0  0
 16 30  1  0  0  0  0
 16 62  2  0  0  0  0
 17 28  1  0  0  0  0
 18 28  1  0  0  0  0
 18 31  2  0  0  0  0
 18 32  1  0  0  0  0
 19 21  2  0  0  0  0
 19 37  1  0  0  0  0
 20 22  2  0  0  0  0
 20 38  1  0  0  0  0
 21 48  1  0  0  0  0
 22 39  1  0  0  0  0
 23 80  1  0  0  0  0
 24 81  1  0  0  0  0
 25 27  2  0  0  0  0
 25 80  1  0  0  0  0
 26 82  1  0  0  0  0
 27 83  1  0  0  0  0
 28 64  2  0  0  0  0
 29 57  1  0  0  0  0
 29 62  1  0  0  0  0
 30 58  1  0  0  0  0
 30 63  2  0  0  0  0
 31 65  1  0  0  0  0
 31 68  1  0  0  0  0
 32 69  1  0  0  0  0
 32 75  2  0  0  0  0
 33 49  1  0  0  0  0
 33 70  1  0  0  0  0
 33 76  2  0  0  0  0
 34 59  1  0  0  0  0
 34 66  1  0  0  0  0
 34 77  2  0  0  0  0
 35 60  1  0  0  0  0
 35 71  1  0  0  0  0
 35 78  2  0  0  0  0
 36 67  1  0  0  0  0
 36 72  1  0  0  0  0
 36 79  2  0  0  0  0
 37 40  1  0  0  0  0
 38 49  1  0  0  0  0
 39 66  1  0  0  0  0
 40 42  1  0  0  0  0
 41 43  1  0  0  0  0
 41 44  1  0  0  0  0
 42 48  1  0  0  0  0
 43 50  1  0  0  0  0
 44 67  1  0  0  0  0
 45 50  1  0  0  0  0
 45 67  1  0  0  0  0
 46 51  1  0  0  0  0
 46 73  1  0  0  0  0
 47 51  1  0  0  0  0
 47 73  1  0  0  0  0
 48 70  1  0  0  0  0
 49 66  1  0  0  0  0
 50 65  1  0  0  0  0
 51 72  1  0  0  0  0
 52 60  1  0  0  0  0
 53 61  1  0  0  0  0
 54 61  1  0  0  0  0
 55 61  1  0  0  0  0
 56 74  1  0  0  0  0
 57 73  1  0  0  0  0
 58 81  1  0  0  0  0
 59 61  1  0  0  0  0
 59 71  1  0  0  0  0
 60 74  1  0  0  0  0
 64 65  1  0  0  0  0
M  CHG  2  73   1  74   1
M  ISO  4  36 100  58 101  72 100  81 101
M  END
> <Batch ID>
0184

> <Smiles>
CNC(C)C(=O)NC(C(=O)N1Cc2cc([101O:1][101CH2:1]c3cnc(CN4CC([100NH:0][100C:0](=O)N5CCCC(n6nc(-c7ccc(Oc8ccc(F)cc8F)cc7)c(C(N)=O)c6N)C5)C4)cn3)ccc2CC1C(=O)NC1CCCc2ccccc21)C(C)(C)C

> <Shape>
0.234

> <Color>
0.147

> <Negative vol penalty>
0.000

$$$$

  -OEChem-04052323103D

 87 97  0     1  0  0  0  0  0999 V2000
  -28.1982  -33.6634   25.8012 C   0  0  0  0  0  0  0  0  0  0  0  0
  -28.2606  -32.4042   25.2131 C   0  0  0  0  0  0  0  0  0  0  0  0
  -25.3277  -10.0201   22.9137 C   0  0  0  0  0  0  0  0  0  0  0  0
  -23.9605   -9.2092   21.0943 C   0  0  0  0  0  0  0  0  0  0  0  0
  -26.9619  -34.2164   26.1324 C   0  0  0  0  0  0  0  0  0  0  0  0
  -27.0866  -31.6967   24.9568 C   0  0  0  0  0  0  0  0  0  0  0  0
  -27.0523  -29.5934   20.3503 C   0  0  0  0  0  0  0  0  0  0  0  0
  -24.4885   -9.3836   23.8281 C   0  0  0  0  0  0  0  0  0  0  0  0
  -23.1212   -8.5727   22.0087 C   0  0  0  0  0  0  0  0  0  0  0  0
  -27.7875  -28.4210   20.1801 C   0  0  0  0  0  0  0  0  0  0  0  0
  -23.1393   -5.7389   23.8499 C   0  0  0  0  0  0  0  0  0  0  0  0
  -22.7491   -4.4301   23.5669 C   0  0  0  0  0  0  0  0  0  0  0  0
  -25.7607  -27.1282   20.3805 C   0  0  0  0  0  0  0  0  0  0  0  0
  -20.4343   -5.1220   23.5587 C   0  0  0  0  0  0  0  0  0  0  0  0
  -29.3971  -23.9528   18.5886 C   0  0  0  0  0  0  0  0  0  0  0  0
  -25.0637   -9.9329   21.5468 C   0  0  0  0  0  0  0  0  0  0  0  0
  -27.0740  -10.0542   19.9809 C   0  0  0  0  0  0  0  0  0  0  0  0
  -25.7716  -33.5194   25.8711 C   0  0  0  0  0  0  0  0  0  0  0  0
  -25.6650  -29.5412   20.5480 C   0  0  0  0  0  0  0  0  0  0  0  0
  -25.8333  -32.2403   25.2860 C   0  0  0  0  0  0  0  0  0  0  0  0
  -25.0099  -28.3015   20.5503 C   0  0  0  0  0  0  0  0  0  0  0  0
  -23.3852   -8.6599   23.3756 C   0  0  0  0  0  0  0  0  0  0  0  0
  -27.1421  -27.1880   20.1981 C   0  0  0  0  0  0  0  0  0  0  0  0
  -22.1771   -6.7394   23.9874 C   0  0  0  0  0  0  0  0  0  0  0  0
  -21.3966   -4.1216   23.4213 C   0  0  0  0  0  0  0  0  0  0  0  0
  -20.8246   -6.4309   23.8417 C   0  0  0  0  0  0  0  0  0  0  0  0
  -25.9300  -10.5906   20.6017 C   0  0  0  0  0  0  0  0  0  0  0  0
  -31.2300  -23.0547   20.3095 C   0  0  0  0  0  0  0  0  0  0  0  0
  -29.8278  -24.7324   19.6394 C   0  0  0  0  0  0  0  0  0  0  0  0
  -30.7986  -22.2748   19.2591 C   0  0  0  0  0  0  0  0  0  0  0  0
  -27.5373  -11.0688   19.1794 C   0  0  0  0  0  0  0  0  0  0  0  0
  -27.6649   -8.7549   20.1165 C   0  0  0  0  0  0  0  0  0  0  0  0
  -23.6991  -30.4063   22.8912 C   0  0  0  0  0  0  0  0  0  0  0  0
  -21.4088  -29.5744   20.7501 C   0  0  0  0  0  0  0  0  0  0  0  0
  -20.5385  -27.7491   18.0009 C   0  0  0  0  0  0  0  0  0  0  0  0
  -28.8348  -16.1894   18.2222 C   0  0  0  0  0  0  0  0  0  0  0  0
  -24.4614  -34.1378   26.2901 C   0  0  0  0  0  0  0  0  0  0  0  0
  -24.8827  -30.8165   20.7033 C   0  0  0  0  0  0  0  0  0  0  0  0
  -23.5196  -28.1925   20.7388 C   0  0  0  0  0  0  0  0  0  0  0  0
  -23.2440  -33.4826   25.6427 C   0  0  0  0  0  0  0  0  0  0  0  0
  -25.4191  -15.4571   17.8483 C   0  0  0  0  0  0  0  0  0  0  0  0
  -23.3482  -31.9631   25.7259 C   0  0  0  0  0  0  0  0  0  0  0  0
  -31.8101  -21.7147   22.4407 C   0  0  0  0  0  0  0  0  0  0  0  0
  -32.2950  -23.1131   22.6634 C   0  0  0  0  0  0  0  0  0  0  0  0
  -25.3345  -14.0711   18.4869 C   0  0  0  0  0  0  0  0  0  0  0  0
  -26.3415  -16.3937   18.6306 C   0  0  0  0  0  0  0  0  0  0  0  0
  -28.2717  -18.6254   18.6386 C   0  0  0  0  0  0  0  0  0  0  0  0
  -29.9665  -17.9939   16.9602 C   0  0  0  0  0  0  0  0  0  0  0  0
  -27.6112  -14.4583   19.5031 C   0  0  0  0  0  0  0  0  0  0  0  0
  -29.2977  -19.4911   19.3627 C   0  0  0  0  0  0  0  0  0  0  0  0
  -31.0213  -18.8268   17.6702 C   0  0  0  0  0  0  0  0  0  0  0  0
  -24.5806  -31.4524   24.9696 C   0  0  1  0  0  0  0  0  0  0  0  0
  -32.2548  -22.5482   21.2678 C   0  0  0  0  0  0  0  0  0  0  0  0
  -23.5463  -30.6152   21.4111 C   0  0  1  0  0  0  0  0  0  0  0  0
  -26.7374  -13.4775   18.7061 C   0  0  1  0  0  0  0  0  0  0  0  0
  -18.5856  -27.2467   16.5073 C   0  0  0  0  0  0  0  0  0  0  0  0
  -20.2329  -27.7589   22.9022 C   0  0  0  0  0  0  0  0  0  0  0  0
  -18.9173  -26.6051   21.1116 C   0  0  0  0  0  0  0  0  0  0  0  0
  -18.5401  -29.0282   21.5689 C   0  0  0  0  0  0  0  0  0  0  0  0
  -21.9294  -28.8323   15.6237 C   0  0  0  0  0  0  0  0  0  0  0  0
  -31.3360  -20.8920   19.0350 C   0  0  0  0  0  0  0  0  0  0  0  0
  -29.2774  -26.1012   19.8400 C   0  0  0  0  0  0  0  0  0  1  0  0
  -20.6694  -28.3013   20.4159 C   0  0  1  0  0  0  0  0  0  0  0  0
  -19.8023  -28.1315   16.7296 C   0  0  2  0  0  0  0  0  0  0  0  0
  -19.6183  -27.9250   21.4980 C   0  0  0  0  0  0  0  0  0  0  0  0
  -29.8747  -22.7099   18.3797 N   0  0  0  0  0  0  0  0  0  0  0  0
  -25.6819  -11.8484   20.2269 N   0  0  0  0  0  0  0  0  0  0  0  0
  -30.7521  -24.2974   20.5186 N   0  0  0  0  0  0  0  0  0  0  0  0
  -26.6764  -12.1108   19.3620 N   0  0  0  0  0  0  0  0  0  0  0  0
  -22.7995  -29.4673   20.8927 N   0  0  0  0  0  0  0  0  0  0  0  0
  -27.6532  -15.7686   18.8505 N   0  0  0  0  0  0  0  0  0  0  0  0
  -28.9295  -17.5486   17.8885 N   0  0  0  0  0  0  0  0  0  0  0  0
  -28.5931  -11.1624   18.3433 N   0  0  0  0  0  0  0  0  0  0  0  0
  -27.0607   -7.8332   20.9824 N   0  0  0  0  0  0  0  0  0  0  0  0
  -24.3322  -31.4469   23.5438 N   0  0  0  0  0  0  0  0  0  0  0  0
  -20.1114  -28.4915   19.0815 N   0  0  0  0  0  0  0  0  0  0  0  0
  -30.3416  -19.9721   18.3837 N   0  3  0  0  0  0  0  0  0  0  0  0
  -20.7026  -27.9979   15.5495 N   0  3  0  0  0  0  0  0  0  0  0  0
  -28.7074   -8.4268   19.5010 O   0  0  0  0  0  0  0  0  0  0  0  0
  -23.2729  -29.3779   23.4034 O   0  0  0  0  0  0  0  0  0  0  0  0
  -20.7765  -30.6264   20.8727 O   0  0  0  0  0  0  0  0  0  0  0  0
  -21.4032  -26.8763   18.0330 O   0  0  0  0  0  0  0  0  0  0  0  0
  -29.7524  -15.3968   17.9744 O   0  0  0  0  0  0  0  0  0  0  0  0
  -22.5662   -8.0385   24.2676 O   0  0  0  0  0  0  0  0  0  0  0  0
  -27.8692  -26.0232   20.0302 O   0  0  0  0  0  0  0  0  0  1  0  0
  -21.0220   -2.8649   23.1480 F   0  0  0  0  0  0  0  0  0  0  0  0
  -19.8956   -7.3880   23.9714 F   0  0  0  0  0  0  0  0  0  0  0  0
  1  2  1  0  0  0  0
  1  5  2  0  0  0  0
  2  6  2  0  0  0  0
  3  8  2  0  0  0  0
  3 16  1  0  0  0  0
  4  9  1  0  0  0  0
  4 16  2  0  0  0  0
  5 18  1  0  0  0  0
  6 20  1  0  0  0  0
  7 10  2  0  0  0  0
  7 19  1  0  0  0  0
  8 22  1  0  0  0  0
  9 22  2  0  0  0  0
 10 23  1  0  0  0  0
 11 12  2  0  0  0  0
 11 24  1  0  0  0  0
 12 25  1  0  0  0  0
 13 21  1  0  0  0  0
 13 23  2  0  0  0  0
 14 25  2  0  0  0  0
 14 26  1  0  0  0  0
 15 29  1  0  0  0  0
 15 66  2  0  0  0  0
 16 27  1  0  0  0  0
 17 27  1  0  0  0  0
 17 31  2  0  0  0  0
 17 32  1  0  0  0  0
 18 20  2  0  0  0  0
 18 37  1  0  0  0  0
 19 21  2  0  0  0  0
 19 38  1  0  0  0  0
 20 52  1  0  0  0  0
 21 39  1  0  0  0  0
 22 84  1  0  0  0  0
 23 85  1  0  0  0  0
 24 26  2  0  0  0  0
 24 84  1  0  0  0  0
 25 86  1  0  0  0  0
 26 87  1  0  0  0  0
 27 67  2  0  0  0  0
 28 30  2  0  0  0  0
 28 53  1  0  0  0  0
 28 68  1  0  0  0  0
 29 62  1  0  0  0  0
 29 68  2  0  0  0  0
 30 61  1  0  0  0  0
 30 66  1  0  0  0  0
 31 69  1  0  0  0  0
 31 73  1  0  0  0  0
 32 74  1  0  0  0  0
 32 79  2  0  0  0  0
 33 54  1  0  0  0  0
 33 75  1  0  0  0  0
 33 80  2  0  0  0  0
 34 63  1  0  0  0  0
 34 70  1  0  0  0  0
 34 81  2  0  0  0  0
 35 64  1  0  0  0  0
 35 76  1  0  0  0  0
 35 82  2  0  0  0  0
 36 71  1  0  0  0  0
 36 72  1  0  0  0  0
 36 83  2  0  0  0  0
 37 40  1  0  0  0  0
 38 54  1  0  0  0  0
 39 70  1  0  0  0  0
 40 42  1  0  0  0  0
 41 45  1  0  0  0  0
 41 46  1  0  0  0  0
 42 52  1  0  0  0  0
 43 44  1  0  0  0  0
 43 53  1  0  0  0  0
 44 53  1  0  0  0  0
 45 55  1  0  0  0  0
 46 71  1  0  0  0  0
 47 50  1  0  0  0  0
 47 72  1  0  0  0  0
 48 51  1  0  0  0  0
 48 72  1  0  0  0  0
 49 55  1  0  0  0  0
 49 71  1  0  0  0  0
 50 77  1  0  0  0  0
 51 77  1  0  0  0  0
 52 75  1  0  0  0  0
 54 70  1  0  0  0  0
 55 69  1  0  0  0  0
 56 64  1  0  0  0  0
 57 65  1  0  0  0  0
 58 65  1  0  0  0  0
 59 65  1  0  0  0  0
 60 78  1  0  0  0  0
 61 77  1  0  0  0  0
 62 85  1  0  0  0  0
 63 65  1  0  0  0  0
 63 76  1  0  0  0  0
 64 78  1  0  0  0  0
 67 69  1  0  0  0  0
M  CHG  2  77   1  78   1
M  ISO  4  36 100  62 101  72 100  85 101
M  END
> <Batch ID>
0184

> <Smiles>
CNC(C)C(=O)NC(C(=O)N1Cc2cc([101O:1][101CH2:1]c3cnc(CN4CC[100N:0]([100C:0](=O)N5CCCC(n6nc(-c7ccc(Oc8ccc(F)cc8F)cc7)c(C(N)=O)c6N)C5)CC4)c(C4CC4)n3)ccc2CC1C(=O)NC1CCCc2ccccc21)C(C)(C)C

> <Shape>
0.300

> <Color>
0.089

> <Negative vol penalty>
0.000

$$$$

  -OEChem-04052323103D

 85 95  0     1  0  0  0  0  0999 V2000
  -27.9150  -36.1668   23.7377 C   0  0  0  0  0  0  0  0  0  0  0  0
  -28.3469  -34.9009   23.3554 C   0  0  0  0  0  0  0  0  0  0  0  0
  -25.2574  -10.7341   23.9507 C   0  0  0  0  0  0  0  0  0  0  0  0
  -22.9593  -10.8017   23.2080 C   0  0  0  0  0  0  0  0  0  0  0  0
  -26.6288  -36.3388   24.2476 C   0  0  0  0  0  0  0  0  0  0  0  0
  -27.4932  -33.8058   23.4838 C   0  0  0  0  0  0  0  0  0  0  0  0
  -27.1484  -28.9506   19.7671 C   0  0  0  0  0  0  0  0  0  0  0  0
  -25.0536   -9.4535   24.4646 C   0  0  0  0  0  0  0  0  0  0  0  0
  -22.7555   -9.5211   23.7219 C   0  0  0  0  0  0  0  0  0  0  0  0
  -27.6855  -27.6667   19.8489 C   0  0  0  0  0  0  0  0  0  0  0  0
  -23.4253   -6.3370   22.8092 C   0  0  0  0  0  0  0  0  0  0  0  0
  -22.7380   -5.4220   22.0116 C   0  0  0  0  0  0  0  0  0  0  0  0
  -25.6129  -26.8661   20.7885 C   0  0  0  0  0  0  0  0  0  0  0  0
  -21.0408   -5.2097   23.7179 C   0  0  0  0  0  0  0  0  0  0  0  0
  -29.5332  -23.0156   21.1268 C   0  0  0  0  0  0  0  0  0  0  0  0
  -24.2102  -11.4082   23.3224 C   0  0  0  0  0  0  0  0  0  0  0  0
  -24.8490  -13.0687   21.4941 C   0  0  0  0  0  0  0  0  0  0  0  0
  -25.7555  -35.2469   24.3734 C   0  0  0  0  0  0  0  0  0  0  0  0
  -25.8410  -29.2046   20.2062 C   0  0  0  0  0  0  0  0  0  0  0  0
  -26.1946  -33.9631   23.9972 C   0  0  0  0  0  0  0  0  0  0  0  0
  -25.0607  -28.1537   20.7088 C   0  0  0  0  0  0  0  0  0  0  0  0
  -23.8027   -8.8470   24.3503 C   0  0  0  0  0  0  0  0  0  0  0  0
  -26.9187  -26.6248   20.3624 C   0  0  0  0  0  0  0  0  0  0  0  0
  -22.9204   -6.6882   24.0612 C   0  0  0  0  0  0  0  0  0  0  0  0
  -21.5458   -4.8584   22.4660 C   0  0  0  0  0  0  0  0  0  0  0  0
  -21.7282   -6.1246   24.5155 C   0  0  0  0  0  0  0  0  0  0  0  0
  -24.4199  -12.7313   22.7918 C   0  0  0  0  0  0  0  0  0  0  0  0
  -29.1881  -23.7967   20.0602 C   0  0  0  0  0  0  0  0  0  0  0  0
  -24.8893  -14.4416   21.4918 C   0  0  0  0  0  0  0  0  0  0  0  0
  -29.6600  -21.7719   19.2999 C   0  0  0  0  0  0  0  0  0  0  0  0
  -25.1814  -12.2171   20.3895 C   0  0  0  0  0  0  0  0  0  0  0  0
  -24.5478  -31.0334   22.4616 C   0  0  0  0  0  0  0  0  0  0  0  0
  -21.7649  -30.0514   21.1149 C   0  0  0  0  0  0  0  0  0  0  0  0
  -20.1087  -27.7082   19.2675 C   0  0  0  0  0  0  0  0  0  0  0  0
  -26.2585  -19.2452   23.9792 C   0  0  0  0  0  0  0  0  0  0  0  0
  -24.3909  -35.4741   24.9741 C   0  0  0  0  0  0  0  0  0  0  0  0
  -25.2671  -30.5898   20.0863 C   0  0  0  0  0  0  0  0  0  0  0  0
  -23.6448  -28.3698   21.1747 C   0  0  0  0  0  0  0  0  0  0  0  0
  -23.4178  -34.3240   24.7280 C   0  0  0  0  0  0  0  0  0  0  0  0
  -23.1335  -17.8089   24.8047 C   0  0  0  0  0  0  0  0  0  0  0  0
  -24.0877  -32.9856   25.0227 C   0  0  0  0  0  0  0  0  0  0  0  0
  -31.2672  -20.3358   17.8176 C   0  0  0  0  0  0  0  0  0  0  0  0
  -30.2212  -20.8895   16.9013 C   0  0  0  0  0  0  0  0  0  0  0  0
  -23.2286  -16.3772   24.2851 C   0  0  0  0  0  0  0  0  0  0  0  0
  -29.5117  -18.4240   22.4870 C   0  0  0  0  0  0  0  0  0  0  0  0
  -24.4695  -18.2677   25.3732 C   0  0  0  0  0  0  0  0  0  0  0  0
  -28.1678  -17.8765   22.9506 C   0  0  0  0  0  0  0  0  0  0  0  0
  -27.9354  -20.2085   22.4322 C   0  0  0  0  0  0  0  0  0  0  0  0
  -25.7052  -16.7678   23.8321 C   0  0  0  0  0  0  0  0  0  0  0  0
  -25.2892  -32.7547   24.0981 C   0  0  1  0  0  0  0  0  0  0  0  0
  -29.8712  -20.5995   18.3482 C   0  0  0  0  0  0  0  0  0  0  0  0
  -24.1025  -30.8386   21.0398 C   0  0  1  0  0  0  0  0  0  0  0  0
  -29.1041  -19.6299   21.6398 C   0  0  1  0  0  0  0  0  0  0  0  0
  -24.3691  -16.2469   23.2637 C   0  0  1  0  0  0  0  0  0  0  0  0
  -17.8324  -27.1599   18.3646 C   0  0  0  0  0  0  0  0  0  0  0  0
  -20.8797  -29.1591   23.8952 C   0  0  0  0  0  0  0  0  0  0  0  0
  -19.0795  -27.7994   22.8095 C   0  0  0  0  0  0  0  0  0  0  0  0
  -19.0991  -30.2796   22.5430 C   0  0  0  0  0  0  0  0  0  0  0  0
  -21.0670  -27.8083   16.4692 C   0  0  0  0  0  0  0  0  0  0  0  0
  -28.7872  -25.2038   19.9809 C   0  0  0  0  0  0  0  0  0  1  0  0
  -30.2346  -20.6199   21.4246 C   0  0  0  0  0  0  0  0  0  0  0  0
  -20.8258  -28.8888   21.3281 C   0  0  1  0  0  0  0  0  0  0  0  0
  -19.1639  -27.8399   18.0866 C   0  0  2  0  0  0  0  0  0  0  0  0
  -19.9983  -29.0277   22.6371 C   0  0  0  0  0  0  0  0  0  0  0  0
  -24.2033  -13.8035   23.5582 N   0  0  0  0  0  0  0  0  0  0  0  0
  -29.8197  -21.7680   20.6273 N   0  0  0  0  0  0  0  0  0  0  0  0
  -24.4975  -14.8280   22.7398 N   0  0  0  0  0  0  0  0  0  0  0  0
  -29.2755  -23.0016   18.9430 N   0  3  0  0  0  0  0  0  0  0  0  0
  -23.1308  -29.7431   21.0431 N   0  0  0  0  0  0  0  0  0  0  0  0
  -25.5563  -18.1121   24.4045 N   0  0  0  0  0  0  0  0  0  0  0  0
  -27.3189  -19.0612   23.0928 N   0  0  0  0  0  0  0  0  0  0  0  0
  -25.2213  -15.3438   20.5442 N   0  0  0  0  0  0  0  0  0  0  0  0
  -25.0853  -10.8297   20.5629 N   0  0  0  0  0  0  0  0  0  0  0  0
  -24.8439  -32.3441   22.7837 N   0  0  0  0  0  0  0  0  0  0  0  0
  -20.0173  -28.7898   20.1178 N   0  0  0  0  0  0  0  0  0  0  0  0
  -19.7638  -27.2195   16.8716 N   0  3  0  0  0  0  0  0  0  0  0  0
  -25.5684  -12.6727   19.2867 O   0  0  0  0  0  0  0  0  0  0  0  0
  -24.6162  -30.0664   23.2112 O   0  0  0  0  0  0  0  0  0  0  0  0
  -21.3030  -31.1903   21.0087 O   0  0  0  0  0  0  0  0  0  0  0  0
  -20.8506  -26.7406   19.4223 O   0  0  0  0  0  0  0  0  0  0  0  0
  -25.9777  -20.3733   24.4064 O   0  0  0  0  0  0  0  0  0  0  0  0
  -23.6036   -7.5973   24.8514 O   0  0  0  0  0  0  0  0  0  0  0  0
  -27.4428  -25.3657   20.4444 O   0  0  0  0  0  0  0  0  0  1  0  0
  -20.8851   -3.9810   21.6993 F   0  0  0  0  0  0  0  0  0  0  0  0
  -21.2375   -6.4590   25.7169 F   0  0  0  0  0  0  0  0  0  0  0  0
  1  2  1  0  0  0  0
  1  5  2  0  0  0  0
  2  6  2  0  0  0  0
  3  8  2  0  0  0  0
  3 16  1  0  0  0  0
  4  9  1  0  0  0  0
  4 16  2  0  0  0  0
  5 18  1  0  0  0  0
  6 20  1  0  0  0  0
  7 10  2  0  0  0  0
  7 19  1  0  0  0  0
  8 22  1  0  0  0  0
  9 22  2  0  0  0  0
 10 23  1  0  0  0  0
 11 12  2  0  0  0  0
 11 24  1  0  0  0  0
 12 25  1  0  0  0  0
 13 21  1  0  0  0  0
 13 23  2  0  0  0  0
 14 25  2  0  0  0  0
 14 26  1  0  0  0  0
 15 28  2  0  0  0  0
 15 66  1  0  0  0  0
 16 27  1  0  0  0  0
 17 27  1  0  0  0  0
 17 29  2  0  0  0  0
 17 31  1  0  0  0  0
 18 20  2  0  0  0  0
 18 36  1  0  0  0  0
 19 21  2  0  0  0  0
 19 37  1  0  0  0  0
 20 50  1  0  0  0  0
 21 38  1  0  0  0  0
 22 82  1  0  0  0  0
 23 83  1  0  0  0  0
 24 26  2  0  0  0  0
 24 82  1  0  0  0  0
 25 84  1  0  0  0  0
 26 85  1  0  0  0  0
 27 65  2  0  0  0  0
 28 60  1  0  0  0  0
 28 68  1  0  0  0  0
 29 67  1  0  0  0  0
 29 72  1  0  0  0  0
 30 51  1  0  0  0  0
 30 66  1  0  0  0  0
 30 68  2  0  0  0  0
 31 73  1  0  0  0  0
 31 77  2  0  0  0  0
 32 52  1  0  0  0  0
 32 74  1  0  0  0  0
 32 78  2  0  0  0  0
 33 62  1  0  0  0  0
 33 69  1  0  0  0  0
 33 79  2  0  0  0  0
 34 63  1  0  0  0  0
 34 75  1  0  0  0  0
 34 80  2  0  0  0  0
 35 70  1  0  0  0  0
 35 71  1  0  0  0  0
 35 81  2  0  0  0  0
 36 39  1  0  0  0  0
 37 52  1  0  0  0  0
 38 69  1  0  0  0  0
 39 41  1  0  0  0  0
 40 44  1  0  0  0  0
 40 46  1  0  0  0  0
 41 50  1  0  0  0  0
 42 43  1  0  0  0  0
 42 51  1  0  0  0  0
 43 51  1  0  0  0  0
 44 54  1  0  0  0  0
 45 47  1  0  0  0  0
 45 53  1  0  0  0  0
 46 70  1  0  0  0  0
 47 71  1  0  0  0  0
 48 53  1  0  0  0  0
 48 71  1  0  0  0  0
 49 54  1  0  0  0  0
 49 70  1  0  0  0  0
 50 74  1  0  0  0  0
 52 69  1  0  0  0  0
 53 61  1  0  0  0  0
 54 67  1  0  0  0  0
 55 63  1  0  0  0  0
 56 64  1  0  0  0  0
 57 64  1  0  0  0  0
 58 64  1  0  0  0  0
 59 76  1  0  0  0  0
 60 83  1  0  0  0  0
 61 66  1  0  0  0  0
 62 64  1  0  0  0  0
 62 75  1  0  0  0  0
 63 76  1  0  0  0  0
 65 67  1  0  0  0  0
M  CHG  2  68   1  76   1
M  ISO  4  35 100  60 101  71 100  83 101
M  END
> <Batch ID>
0184

> <Smiles>
CNC(C)C(=O)NC(C(=O)N1Cc2cc([101O:1][101CH2:1]c3cn(CC4CC[100N:0]([100C:0](=O)N5CCCC(n6nc(-c7ccc(Oc8ccc(F)cc8F)cc7)c(C(N)=O)c6N)C5)C4)c(C4CC4)n3)ccc2CC1C(=O)NC1CCCc2ccccc21)C(C)(C)C

> <Shape>
0.264

> <Color>
0.074

> <Negative vol penalty>
0.000

$$$$

  -OEChem-04052323103D

 82 91  0     1  0  0  0  0  0999 V2000
  -34.0569  -30.0926   11.6884 C   0  0  0  0  0  0  0  0  0  0  0  0
  -33.7999  -28.8666   12.2936 C   0  0  0  0  0  0  0  0  0  0  0  0
  -23.0795   -9.8448   19.9458 C   0  0  0  0  0  0  0  0  0  0  0  0
  -23.8285   -9.8773   22.2425 C   0  0  0  0  0  0  0  0  0  0  0  0
  -33.8243  -31.2762   12.3877 C   0  0  0  0  0  0  0  0  0  0  0  0
  -33.3111  -28.8234   13.5989 C   0  0  0  0  0  0  0  0  0  0  0  0
  -29.3790  -24.7449   15.9247 C   0  0  0  0  0  0  0  0  0  0  0  0
  -22.3638   -8.6740   20.1957 C   0  0  0  0  0  0  0  0  0  0  0  0
  -23.1127   -8.7065   22.4925 C   0  0  0  0  0  0  0  0  0  0  0  0
  -29.5642  -23.5943   16.6899 C   0  0  0  0  0  0  0  0  0  0  0  0
  -23.4896   -5.3913   21.9460 C   0  0  0  0  0  0  0  0  0  0  0  0
  -24.1274   -4.3838   22.6697 C   0  0  0  0  0  0  0  0  0  0  0  0
  -29.1469  -24.8683   18.6954 C   0  0  0  0  0  0  0  0  0  0  0  0
  -22.4144   -4.5193   24.3681 C   0  0  0  0  0  0  0  0  0  0  0  0
  -31.3932  -18.5720   20.0744 C   0  0  0  0  0  0  0  0  0  0  0  0
  -23.8120  -10.4465   20.9691 C   0  0  0  0  0  0  0  0  0  0  0  0
  -24.0907  -12.9791   20.8433 C   0  0  0  0  0  0  0  0  0  0  0  0
  -33.3233  -31.2478   13.6987 C   0  0  0  0  0  0  0  0  0  0  0  0
  -29.0866  -25.9701   16.5409 C   0  0  0  0  0  0  0  0  0  0  0  0
  -33.0729  -30.0078   14.3168 C   0  0  0  0  0  0  0  0  0  0  0  0
  -28.9559  -26.0324   17.9356 C   0  0  0  0  0  0  0  0  0  0  0  0
  -29.1916  -18.8286   20.8533 C   0  0  0  0  0  0  0  0  0  0  0  0
  -29.0185  -19.8617   19.9332 C   0  0  0  0  0  0  0  0  0  0  0  0
  -30.3958  -18.1611   20.9469 C   0  0  0  0  0  0  0  0  0  0  0  0
  -22.3803   -8.1049   21.4690 C   0  0  0  0  0  0  0  0  0  0  0  0
  -29.4510  -23.6564   18.0757 C   0  0  0  0  0  0  0  0  0  0  0  0
  -22.3142   -5.9629   22.4334 C   0  0  0  0  0  0  0  0  0  0  0  0
  -23.5898   -3.9478   23.8807 C   0  0  0  0  0  0  0  0  0  0  0  0
  -21.7766   -5.5269   23.6444 C   0  0  0  0  0  0  0  0  0  0  0  0
  -24.5520  -11.6556   20.7114 C   0  0  0  0  0  0  0  0  0  0  0  0
  -30.0683  -20.2092   19.1161 C   0  0  0  0  0  0  0  0  0  0  0  0
  -25.1653  -13.7548   20.4828 C   0  0  0  0  0  0  0  0  0  0  0  0
  -22.8058  -13.4639   21.2551 C   0  0  0  0  0  0  0  0  0  0  0  0
  -30.5293  -28.7975   16.7081 C   0  0  0  0  0  0  0  0  0  0  0  0
  -27.7966  -29.6657   18.2251 C   0  0  0  0  0  0  0  0  0  0  0  0
  -25.0638  -28.7212   20.0379 C   0  0  0  0  0  0  0  0  0  0  0  0
  -30.6208  -14.9120   20.6928 C   0  0  0  0  0  0  0  0  0  0  0  0
  -33.1325  -32.5522   14.4313 C   0  0  0  0  0  0  0  0  0  0  0  0
  -28.8633  -27.1967   15.6994 C   0  0  0  0  0  0  0  0  0  0  0  0
  -27.9576  -18.6398   21.6766 C   0  0  0  0  0  0  0  0  0  0  0  0
  -27.6607  -20.4679   20.0446 C   0  0  0  0  0  0  0  0  0  0  0  0
  -28.6234  -27.3192   18.6442 C   0  0  0  0  0  0  0  0  0  0  0  0
  -32.2595  -32.4288   15.6775 C   0  0  0  0  0  0  0  0  0  0  0  0
  -26.9127  -19.3691   20.8163 C   0  0  0  0  0  0  0  0  0  0  0  0
  -29.5544  -12.4930   18.3079 C   0  0  0  0  0  0  0  0  0  0  0  0
  -32.6862  -31.2247   16.5111 C   0  0  0  0  0  0  0  0  0  0  0  0
  -28.1229  -12.1644   18.7352 C   0  0  0  0  0  0  0  0  0  0  0  0
  -30.4602  -12.7401   19.5122 C   0  0  0  0  0  0  0  0  0  0  0  0
  -28.5344  -13.4270   20.8882 C   0  0  0  0  0  0  0  0  0  0  0  0
  -32.5188  -29.9204   15.7223 C   0  0  1  0  0  0  0  0  0  0  0  0
  -29.0768  -28.4964   16.4691 C   0  0  1  0  0  0  0  0  0  0  0  0
  -27.5703  -13.2247   19.7067 C   0  0  2  0  0  0  0  0  0  0  0  0
  -23.0283  -29.6594   21.1666 C   0  0  0  0  0  0  0  0  0  0  0  0
  -29.5388  -30.6871   20.5124 C   0  0  0  0  0  0  0  0  0  0  0  0
  -27.4964  -30.7214   21.9601 C   0  0  0  0  0  0  0  0  0  0  0  0
  -27.6087  -32.1669   19.9301 C   0  0  0  0  0  0  0  0  0  0  0  0
  -23.2415  -27.1471   18.3173 C   0  0  0  0  0  0  0  0  0  0  0  0
  -30.6269  -17.0669   21.9238 C   0  0  0  0  0  0  0  0  0  0  0  0
  -29.9353  -21.3286   18.1259 C   0  0  0  0  0  0  0  0  0  1  0  0
  -27.3248  -29.6693   19.6591 C   0  0  1  0  0  0  0  0  0  0  0  0
  -23.5909  -29.0569   19.8886 C   0  0  2  0  0  0  0  0  0  0  0  0
  -28.0004  -30.7872   20.5025 C   0  0  0  0  0  0  0  0  0  0  0  0
  -31.2622  -19.5746   19.1638 N   0  0  0  0  0  0  0  0  0  0  0  0
  -25.8208  -11.5904   20.2991 N   0  0  0  0  0  0  0  0  0  0  0  0
  -26.1659  -12.8827   20.1687 N   0  0  0  0  0  0  0  0  0  0  0  0
  -28.4205  -28.4923   17.7781 N   0  0  0  0  0  0  0  0  0  0  0  0
  -29.8799  -13.7569   20.3927 N   0  0  0  0  0  0  0  0  0  0  0  0
  -25.3425  -15.0909   20.4069 N   0  0  0  0  0  0  0  0  0  0  0  0
  -21.8155  -12.5305   21.5904 N   0  0  0  0  0  0  0  0  0  0  0  0
  -31.1280  -29.5214   15.6947 N   0  0  0  0  0  0  0  0  0  0  0  0
  -25.8692  -29.7552   19.6096 N   0  0  0  0  0  0  0  0  0  0  0  0
  -29.9947  -15.8278   21.5295 N   0  0  0  0  0  0  0  0  0  0  0  0
  -22.8101  -27.8297   19.5642 N   0  3  0  0  0  0  0  0  0  0  0  0
  -22.5384  -14.6884   21.3078 O   0  0  0  0  0  0  0  0  0  0  0  0
  -31.0667  -28.4037   17.7366 O   0  0  0  0  0  0  0  0  0  0  0  0
  -27.6119  -30.6645   17.5252 O   0  0  0  0  0  0  0  0  0  0  0  0
  -25.4601  -27.6504   20.4926 O   0  0  0  0  0  0  0  0  0  0  0  0
  -31.7541  -15.1147   20.2438 O   0  0  0  0  0  0  0  0  0  0  0  0
  -21.6818   -6.9625   21.7134 O   0  0  0  0  0  0  0  0  0  0  0  0
  -29.6319  -22.5350   18.8251 O   0  0  0  0  0  0  0  0  0  1  0  0
  -24.2016   -2.9792   24.5748 F   0  0  0  0  0  0  0  0  0  0  0  0
  -20.6471   -6.0714   24.1171 F   0  0  0  0  0  0  0  0  0  0  0  0
  1  2  1  0  0  0  0
  1  5  2  0  0  0  0
  2  6  2  0  0  0  0
  3  8  2  0  0  0  0
  3 16  1  0  0  0  0
  4  9  1  0  0  0  0
  4 16  2  0  0  0  0
  5 18  1  0  0  0  0
  6 20  1  0  0  0  0
  7 10  2  0  0  0  0
  7 19  1  0  0  0  0
  8 25  1  0  0  0  0
  9 25  2  0  0  0  0
 10 26  1  0  0  0  0
 11 12  2  0  0  0  0
 11 27  1  0  0  0  0
 12 28  1  0  0  0  0
 13 21  1  0  0  0  0
 13 26  2  0  0  0  0
 14 28  2  0  0  0  0
 14 29  1  0  0  0  0
 15 24  1  0  0  0  0
 15 63  2  0  0  0  0
 16 30  1  0  0  0  0
 17 30  1  0  0  0  0
 17 32  2  0  0  0  0
 17 33  1  0  0  0  0
 18 20  2  0  0  0  0
 18 38  1  0  0  0  0
 19 21  2  0  0  0  0
 19 39  1  0  0  0  0
 20 50  1  0  0  0  0
 21 42  1  0  0  0  0
 22 23  1  0  0  0  0
 22 24  2  0  0  0  0
 22 40  1  0  0  0  0
 23 31  2  0  0  0  0
 23 41  1  0  0  0  0
 24 58  1  0  0  0  0
 25 79  1  0  0  0  0
 26 80  1  0  0  0  0
 27 29  2  0  0  0  0
 27 79  1  0  0  0  0
 28 81  1  0  0  0  0
 29 82  1  0  0  0  0
 30 64  2  0  0  0  0
 31 59  1  0  0  0  0
 31 63  1  0  0  0  0
 32 65  1  0  0  0  0
 32 68  1  0  0  0  0
 33 69  1  0  0  0  0
 33 74  2  0  0  0  0
 34 51  1  0  0  0  0
 34 70  1  0  0  0  0
 34 75  2  0  0  0  0
 35 60  1  0  0  0  0
 35 66  1  0  0  0  0
 35 76  2  0  0  0  0
 36 61  1  0  0  0  0
 36 71  1  0  0  0  0
 36 77  2  0  0  0  0
 37 67  1  0  0  0  0
 37 72  1  0  0  0  0
 37 78  2  0  0  0  0
 38 43  1  0  0  0  0
 39 51  1  0  0  0  0
 40 44  1  0  0  0  0
 41 44  1  0  0  0  0
 42 66  1  0  0  0  0
 43 46  1  0  0  0  0
 45 47  1  0  0  0  0
 45 48  1  0  0  0  0
 46 50  1  0  0  0  0
 47 52  1  0  0  0  0
 48 67  1  0  0  0  0
 49 52  1  0  0  0  0
 49 67  1  0  0  0  0
 50 70  1  0  0  0  0
 51 66  1  0  0  0  0
 52 65  1  0  0  0  0
 53 61  1  0  0  0  0
 54 62  1  0  0  0  0
 55 62  1  0  0  0  0
 56 62  1  0  0  0  0
 57 73  1  0  0  0  0
 58 72  1  0  0  0  0
 59 80  1  0  0  0  0
 60 62  1  0  0  0  0
 60 71  1  0  0  0  0
 61 73  1  0  0  0  0
 64 65  1  0  0  0  0
M  CHG  1  73   1
M  ISO  4  37 100  59 101  72 100  80 101
M  END
> <Batch ID>
0184

> <Smiles>
CNC(C)C(=O)NC(C(=O)N1Cc2cc([101O:1][101CH2:1]c3ncc(C[100NH:0][100C:0](=O)N4CCCC(n5nc(-c6ccc(Oc7ccc(F)cc7F)cc6)c(C(N)=O)c5N)C4)c4c3CCC4)ccc2CC1C(=O)NC1CCCc2ccccc21)C(C)(C)C

> <Shape>
0.295

> <Color>
0.206

> <Negative vol penalty>
0.000

$$$$

  -OEChem-04052323103D

 83 92  0     1  0  0  0  0  0999 V2000
  -24.1803  -34.1810   27.5822 C   0  0  0  0  0  0  0  0  0  0  0  0
  -25.1159  -33.4641   26.8433 C   0  0  0  0  0  0  0  0  0  0  0  0
  -26.5067  -12.4658   21.7193 C   0  0  0  0  0  0  0  0  0  0  0  0
  -25.9902  -13.6865   19.6993 C   0  0  0  0  0  0  0  0  0  0  0  0
  -22.8596  -33.7391   27.6489 C   0  0  0  0  0  0  0  0  0  0  0  0
  -24.7316  -32.3042   26.1715 C   0  0  0  0  0  0  0  0  0  0  0  0
  -26.8686  -30.2813   20.8005 C   0  0  0  0  0  0  0  0  0  0  0  0
  -25.2329  -11.8977   21.7017 C   0  0  0  0  0  0  0  0  0  0  0  0
  -24.7163  -13.1184   19.6818 C   0  0  0  0  0  0  0  0  0  0  0  0
  -27.8302  -29.3263   20.4733 C   0  0  0  0  0  0  0  0  0  0  0  0
  -23.6400   -9.4038   20.0660 C   0  0  0  0  0  0  0  0  0  0  0  0
  -23.5378   -8.0337   20.3069 C   0  0  0  0  0  0  0  0  0  0  0  0
  -26.0905  -27.6786   20.1952 C   0  0  0  0  0  0  0  0  0  0  0  0
  -22.1416   -8.4756   22.2285 C   0  0  0  0  0  0  0  0  0  0  0  0
  -26.8854  -13.3602   20.7181 C   0  0  0  0  0  0  0  0  0  0  0  0
  -29.3666  -13.4408   20.1312 C   0  0  0  0  0  0  0  0  0  0  0  0
  -22.4567  -32.5786   26.9697 C   0  0  0  0  0  0  0  0  0  0  0  0
  -25.5093  -29.9388   20.8382 C   0  0  0  0  0  0  0  0  0  0  0  0
  -23.4046  -31.8457   26.2302 C   0  0  0  0  0  0  0  0  0  0  0  0
  -25.1134  -28.6317   20.5207 C   0  0  0  0  0  0  0  0  0  0  0  0
  -30.8707  -25.3339   20.3340 C   0  0  0  0  0  0  0  0  0  0  0  0
  -24.3377  -12.2240   20.6830 C   0  0  0  0  0  0  0  0  0  0  0  0
  -27.4415  -28.0240   20.1734 C   0  0  0  0  0  0  0  0  0  0  0  0
  -22.9930  -10.3098   20.9064 C   0  0  0  0  0  0  0  0  0  0  0  0
  -22.7886   -7.5696   21.3881 C   0  0  0  0  0  0  0  0  0  0  0  0
  -22.2438   -9.8458   21.9876 C   0  0  0  0  0  0  0  0  0  0  0  0
  -28.2008  -13.9478   20.7360 C   0  0  0  0  0  0  0  0  0  0  0  0
  -31.6815  -24.3231   19.8593 C   0  0  0  0  0  0  0  0  0  0  0  0
  -30.6098  -26.3570   19.4455 C   0  0  0  0  0  0  0  0  0  0  0  0
  -30.3399  -14.3604   20.4371 C   0  0  0  0  0  0  0  0  0  0  0  0
  -31.8747  -25.3562   17.8438 C   0  0  0  0  0  0  0  0  0  0  0  0
  -29.5531  -12.2455   19.3617 C   0  0  0  0  0  0  0  0  0  0  0  0
  -23.2671  -29.9018   23.0909 C   0  0  0  0  0  0  0  0  0  0  0  0
  -21.3264  -29.1618   20.5992 C   0  0  0  0  0  0  0  0  0  0  0  0
  -21.0098  -27.8575   17.4615 C   0  0  0  0  0  0  0  0  0  0  0  0
  -31.9347  -19.6209   20.6571 C   0  0  0  0  0  0  0  0  0  0  0  0
  -21.0287  -32.1141   27.1100 C   0  0  0  0  0  0  0  0  0  0  0  0
  -24.4821  -30.9872   21.1670 C   0  0  0  0  0  0  0  0  0  0  0  0
  -23.6651  -28.2181   20.5271 C   0  0  0  0  0  0  0  0  0  0  0  0
  -20.6184  -31.0816   26.0632 C   0  0  0  0  0  0  0  0  0  0  0  0
  -30.3514  -18.2215   23.6654 C   0  0  0  0  0  0  0  0  0  0  0  0
  -21.6864  -30.0004   25.9324 C   0  0  0  0  0  0  0  0  0  0  0  0
  -29.6842  -16.9763   23.0922 C   0  0  0  0  0  0  0  0  0  0  0  0
  -30.3936  -19.3752   22.6630 C   0  0  0  0  0  0  0  0  0  0  0  0
  -31.0300  -22.0158   21.0985 C   0  0  0  0  0  0  0  0  0  0  0  0
  -32.8562  -21.8999   20.0188 C   0  0  0  0  0  0  0  0  0  0  0  0
  -30.3284  -17.7480   20.7840 C   0  0  0  0  0  0  0  0  0  0  0  0
  -23.0207  -30.5964   25.4674 C   0  0  1  0  0  0  0  0  0  0  0  0
  -32.1074  -23.0563   20.7130 C   0  0  0  0  0  0  0  0  0  0  0  0
  -23.1699  -30.3990   21.6764 C   0  0  1  0  0  0  0  0  0  0  0  0
  -30.3518  -16.5721   21.7699 C   0  0  2  0  0  0  0  0  0  0  0  0
  -32.4317  -25.3685   16.4609 C   0  0  0  0  0  0  0  0  0  0  0  0
  -19.2931  -27.3523   15.7022 C   0  0  0  0  0  0  0  0  0  0  0  0
  -20.3989  -26.7379   22.2037 C   0  0  0  0  0  0  0  0  0  0  0  0
  -19.4532  -25.7875   20.0894 C   0  0  0  0  0  0  0  0  0  0  0  0
  -18.5763  -27.9433   20.9873 C   0  0  0  0  0  0  0  0  0  0  0  0
  -22.3066  -29.6671   15.5115 C   0  0  0  0  0  0  0  0  0  0  0  0
  -29.7409  -27.5128   19.8460 C   0  0  0  0  0  0  0  0  0  1  0  0
  -20.8759  -27.8813   19.9385 C   0  0  1  0  0  0  0  0  0  0  0  0
  -20.2944  -28.3706   16.2248 C   0  0  2  0  0  0  0  0  0  0  0  0
  -19.8536  -27.0945   20.8064 C   0  0  0  0  0  0  0  0  0  0  0  0
  -28.4122  -15.1000   21.3776 N   0  0  0  0  0  0  0  0  0  0  0  0
  -32.2027  -24.3022   18.6150 N   0  0  0  0  0  0  0  0  0  0  0  0
  -31.0973  -26.4005   18.1882 N   0  0  0  0  0  0  0  0  0  0  0  0
  -29.7220  -15.3246   21.1779 N   0  0  0  0  0  0  0  0  0  0  0  0
  -22.6989  -29.2776   20.8610 N   0  0  0  0  0  0  0  0  0  0  0  0
  -30.9226  -18.9589   21.3601 N   0  0  0  0  0  0  0  0  0  0  0  0
  -32.0234  -20.9910   20.8014 N   0  0  0  0  0  0  0  0  0  0  0  0
  -30.3513  -25.3152   21.6348 N   0  0  0  0  0  0  0  0  0  0  0  0
  -31.6553  -14.4303   20.1420 N   0  0  0  0  0  0  0  0  0  0  0  0
  -28.4472  -11.4129   19.1422 N   0  0  0  0  0  0  0  0  0  0  0  0
  -22.9874  -30.8614   24.0450 N   0  0  0  0  0  0  0  0  0  0  0  0
  -20.3769  -28.2560   18.6199 N   0  0  0  0  0  0  0  0  0  0  0  0
  -21.2761  -28.6628   15.1423 N   0  3  0  0  0  0  0  0  0  0  0  0
  -30.6708  -11.9169   18.8968 O   0  0  0  0  0  0  0  0  0  0  0  0
  -23.5716  -28.7336   23.3011 O   0  0  0  0  0  0  0  0  0  0  0  0
  -20.4922  -30.0303   20.8665 O   0  0  0  0  0  0  0  0  0  0  0  0
  -22.0261  -27.1687   17.4054 O   0  0  0  0  0  0  0  0  0  0  0  0
  -32.7106  -19.0212   19.9021 O   0  0  0  0  0  0  0  0  0  0  0  0
  -23.0948  -11.6697   20.6655 O   0  0  0  0  0  0  0  0  0  0  0  0
  -28.3781  -27.0898   19.8543 O   0  0  0  0  0  0  0  0  0  1  0  0
  -22.6894   -6.2538   21.6184 F   0  0  0  0  0  0  0  0  0  0  0  0
  -21.6191  -10.7113   22.7977 F   0  0  0  0  0  0  0  0  0  0  0  0
  1  2  1  0  0  0  0
  1  5  2  0  0  0  0
  2  6  2  0  0  0  0
  3  8  2  0  0  0  0
  3 15  1  0  0  0  0
  4  9  1  0  0  0  0
  4 15  2  0  0  0  0
  5 17  1  0  0  0  0
  6 19  1  0  0  0  0
  7 10  2  0  0  0  0
  7 18  1  0  0  0  0
  8 22  1  0  0  0  0
  9 22  2  0  0  0  0
 10 23  1  0  0  0  0
 11 12  2  0  0  0  0
 11 24  1  0  0  0  0
 12 25  1  0  0  0  0
 13 20  1  0  0  0  0
 13 23  2  0  0  0  0
 14 25  2  0  0  0  0
 14 26  1  0  0  0  0
 15 27  1  0  0  0  0
 16 27  1  0  0  0  0
 16 30  2  0  0  0  0
 16 32  1  0  0  0  0
 17 19  2  0  0  0  0
 17 37  1  0  0  0  0
 18 20  2  0  0  0  0
 18 38  1  0  0  0  0
 19 48  1  0  0  0  0
 20 39  1  0  0  0  0
 21 28  1  0  0  0  0
 21 29  2  0  0  0  0
 21 69  1  0  0  0  0
 22 80  1  0  0  0  0
 23 81  1  0  0  0  0
 24 26  2  0  0  0  0
 24 80  1  0  0  0  0
 25 82  1  0  0  0  0
 26 83  1  0  0  0  0
 27 62  2  0  0  0  0
 28 49  1  0  0  0  0
 28 63  2  0  0  0  0
 29 58  1  0  0  0  0
 29 64  1  0  0  0  0
 30 65  1  0  0  0  0
 30 70  1  0  0  0  0
 31 52  1  0  0  0  0
 31 63  1  0  0  0  0
 31 64  2  0  0  0  0
 32 71  1  0  0  0  0
 32 75  2  0  0  0  0
 33 50  1  0  0  0  0
 33 72  1  0  0  0  0
 33 76  2  0  0  0  0
 34 59  1  0  0  0  0
 34 66  1  0  0  0  0
 34 77  2  0  0  0  0
 35 60  1  0  0  0  0
 35 73  1  0  0  0  0
 35 78  2  0  0  0  0
 36 67  1  0  0  0  0
 36 68  1  0  0  0  0
 36 79  2  0  0  0  0
 37 40  1  0  0  0  0
 38 50  1  0  0  0  0
 39 66  1  0  0  0  0
 40 42  1  0  0  0  0
 41 43  1  0  0  0  0
 41 44  1  0  0  0  0
 42 48  1  0  0  0  0
 43 51  1  0  0  0  0
 44 67  1  0  0  0  0
 45 49  1  0  0  0  0
 45 68  1  0  0  0  0
 46 49  1  0  0  0  0
 46 68  1  0  0  0  0
 47 51  1  0  0  0  0
 47 67  1  0  0  0  0
 48 72  1  0  0  0  0
 50 66  1  0  0  0  0
 51 65  1  0  0  0  0
 53 60  1  0  0  0  0
 54 61  1  0  0  0  0
 55 61  1  0  0  0  0
 56 61  1  0  0  0  0
 57 74  1  0  0  0  0
 58 81  1  0  0  0  0
 59 61  1  0  0  0  0
 59 73  1  0  0  0  0
 60 74  1  0  0  0  0
 62 65  1  0  0  0  0
M  CHG  1  74   1
M  ISO  4  36 100  58 101  68 100  81 101
M  END
> <Batch ID>
0184

> <Smiles>
CNC(C)C(=O)NC(C(=O)N1Cc2cc([101O:1][101CH2:1]c3nc(C)nc(C4C[100N:0]([100C:0](=O)N5CCCC(n6nc(-c7ccc(Oc8ccc(F)cc8F)cc7)c(C(N)=O)c6N)C5)C4)c3N)ccc2CC1C(=O)NC1CCCc2ccccc21)C(C)(C)C

> <Shape>
0.292

> <Color>
0.105

> <Negative vol penalty>
0.000

$$$$

  -OEChem-04052323103D

 80 89  0     1  0  0  0  0  0999 V2000
  -23.3798  -37.9030   18.9594 C   0  0  0  0  0  0  0  0  0  0  0  0
  -23.5435  -36.7473   18.2026 C   0  0  0  0  0  0  0  0  0  0  0  0
  -23.5648  -11.0590   23.1901 C   0  0  0  0  0  0  0  0  0  0  0  0
  -23.4542   -9.7019   21.1944 C   0  0  0  0  0  0  0  0  0  0  0  0
  -24.0078  -38.0181   20.1989 C   0  0  0  0  0  0  0  0  0  0  0  0
  -24.3363  -35.7062   18.6844 C   0  0  0  0  0  0  0  0  0  0  0  0
  -24.8336  -28.5606   18.5836 C   0  0  0  0  0  0  0  0  0  0  0  0
  -22.6283  -10.2292   23.8064 C   0  0  0  0  0  0  0  0  0  0  0  0
  -22.5177   -8.8720   21.8106 C   0  0  0  0  0  0  0  0  0  0  0  0
  -25.7501  -27.5486   18.3013 C   0  0  0  0  0  0  0  0  0  0  0  0
  -22.5251   -6.3526   24.0629 C   0  0  0  0  0  0  0  0  0  0  0  0
  -22.6979   -4.9746   23.9332 C   0  0  0  0  0  0  0  0  0  0  0  0
  -26.7222  -27.8262   20.4915 C   0  0  0  0  0  0  0  0  0  0  0  0
  -20.5423   -4.8057   22.8553 C   0  0  0  0  0  0  0  0  0  0  0  0
  -23.9778  -10.7955   21.8841 C   0  0  0  0  0  0  0  0  0  0  0  0
  -26.3455  -11.5138   21.2634 C   0  0  0  0  0  0  0  0  0  0  0  0
  -24.8008  -36.9739   20.7005 C   0  0  0  0  0  0  0  0  0  0  0  0
  -24.8616  -29.2216   19.8200 C   0  0  0  0  0  0  0  0  0  0  0  0
  -24.9765  -35.8079   19.9312 C   0  0  0  0  0  0  0  0  0  0  0  0
  -25.8034  -28.8445   20.7880 C   0  0  0  0  0  0  0  0  0  0  0  0
  -22.1047   -9.1356   23.1166 C   0  0  0  0  0  0  0  0  0  0  0  0
  -26.6964  -27.1833   19.2542 C   0  0  0  0  0  0  0  0  0  0  0  0
  -21.3608   -6.9571   23.5889 C   0  0  0  0  0  0  0  0  0  0  0  0
  -21.7066   -4.2011   23.3294 C   0  0  0  0  0  0  0  0  0  0  0  0
  -20.3694   -6.1837   22.9851 C   0  0  0  0  0  0  0  0  0  0  0  0
  -24.9448  -11.6527   21.2468 C   0  0  0  0  0  0  0  0  0  0  0  0
  -26.8044  -12.5719   20.5175 C   0  0  0  0  0  0  0  0  0  0  0  0
  -27.1592  -10.5174   21.8964 C   0  0  0  0  0  0  0  0  0  0  0  0
  -25.3435  -32.2232   20.7486 C   0  0  0  0  0  0  0  0  0  0  0  0
  -24.5560  -31.0368   23.6631 C   0  0  0  0  0  0  0  0  0  0  0  0
  -24.3491  -28.3286   25.7294 C   0  0  0  0  0  0  0  0  0  0  0  0
  -26.8537  -17.7507   19.0944 C   0  0  0  0  0  0  0  0  0  0  0  0
  -25.4980  -37.1634   22.0244 C   0  0  0  0  0  0  0  0  0  0  0  0
  -23.8490  -30.2929   20.1191 C   0  0  0  0  0  0  0  0  0  0  0  0
  -25.8623  -29.5092   22.1383 C   0  0  0  0  0  0  0  0  0  0  0  0
  -26.0177  -35.8625   22.6308 C   0  0  0  0  0  0  0  0  0  0  0  0
  -24.3425  -15.8369   17.5518 C   0  0  0  0  0  0  0  0  0  0  0  0
  -26.7495  -35.0373   21.5770 C   0  0  0  0  0  0  0  0  0  0  0  0
  -24.3849  -14.5545   18.3821 C   0  0  0  0  0  0  0  0  0  0  0  0
  -26.3187  -24.1417   19.7290 C   0  0  0  0  0  0  0  0  0  0  0  0
  -28.4054  -23.8310   19.4035 C   0  0  0  0  0  0  0  0  0  0  0  0
  -24.5024  -17.0868   18.4191 C   0  0  0  0  0  0  0  0  0  0  0  0
  -25.4816  -19.8513   18.7287 C   0  0  0  0  0  0  0  0  0  0  0  0
  -27.8546  -19.7556   18.0391 C   0  0  0  0  0  0  0  0  0  0  0  0
  -25.7461  -15.7841   20.1149 C   0  0  0  0  0  0  0  0  0  0  0  0
  -25.7747  -21.0692   19.6014 C   0  0  0  0  0  0  0  0  0  0  0  0
  -28.1873  -20.9530   18.9166 C   0  0  0  0  0  0  0  0  0  0  0  0
  -25.8085  -34.6467   20.4309 C   0  0  1  0  0  0  0  0  0  0  0  0
  -24.2991  -31.2504   21.2181 C   0  0  1  0  0  0  0  0  0  0  0  0
  -25.6454  -14.5088   19.2639 C   0  0  1  0  0  0  0  0  0  0  0  0
  -27.2608  -22.9354   19.9197 C   0  0  0  0  0  0  0  0  0  0  0  0
  -27.5647  -25.0510   19.8510 C   0  0  0  0  0  0  0  0  0  1  0  0
  -23.7036  -27.6779   28.0654 C   0  0  0  0  0  0  0  0  0  0  0  0
  -27.1656  -32.2205   24.7114 C   0  0  0  0  0  0  0  0  0  0  0  0
  -26.9328  -30.7635   26.7340 C   0  0  0  0  0  0  0  0  0  0  0  0
  -25.2065  -32.4955   26.2413 C   0  0  0  0  0  0  0  0  0  0  0  0
  -22.2200  -26.5157   24.7602 C   0  0  0  0  0  0  0  0  0  0  0  0
  -25.3210  -30.4166   24.8072 C   0  0  1  0  0  0  0  0  0  0  0  0
  -23.2316  -27.8301   26.6278 C   0  0  2  0  0  0  0  0  0  0  0  0
  -26.1569  -31.4627   25.5974 C   0  0  0  0  0  0  0  0  0  0  0  0
  -24.5403  -12.7154   20.5460 N   0  0  0  0  0  0  0  0  0  0  0  0
  -25.6938  -13.2539   20.1154 N   0  0  0  0  0  0  0  0  0  0  0  0
  -24.8550  -30.5552   22.3808 N   0  0  0  0  0  0  0  0  0  0  0  0
  -25.6948  -16.9801   19.2713 N   0  0  0  0  0  0  0  0  0  0  0  0
  -26.6889  -19.0323   18.5480 N   0  0  0  0  0  0  0  0  0  0  0  0
  -28.0455  -12.9762   20.1730 N   0  0  0  0  0  0  0  0  0  0  0  0
  -26.5256   -9.5007   22.6238 N   0  0  0  0  0  0  0  0  0  0  0  0
  -24.9561  -33.5471   20.8292 N   0  0  0  0  0  0  0  0  0  0  0  0
  -24.3385  -29.7027   25.6157 N   0  0  0  0  0  0  0  0  0  0  0  0
  -26.9548  -21.8078   19.0340 N   0  3  0  0  0  0  0  0  0  0  0  0
  -22.7366  -26.5070   26.1531 N   0  3  0  0  0  0  0  0  0  0  0  0
  -28.4119  -10.5376   21.8330 O   0  0  0  0  0  0  0  0  0  0  0  0
  -26.4217  -31.8037   20.3445 O   0  0  0  0  0  0  0  0  0  0  0  0
  -23.7186  -31.9113   23.8992 O   0  0  0  0  0  0  0  0  0  0  0  0
  -25.1534  -27.5747   25.1860 O   0  0  0  0  0  0  0  0  0  0  0  0
  -27.9705  -17.3193   19.4072 O   0  0  0  0  0  0  0  0  0  0  0  0
  -21.1910   -8.3254   23.7177 O   0  0  0  0  0  0  0  0  0  0  0  0
  -27.5944  -26.1943   18.9804 O   0  0  0  0  0  0  0  0  0  1  0  0
  -21.8734   -2.8780   23.2035 F   0  0  0  0  0  0  0  0  0  0  0  0
  -19.2493   -6.7590   22.5267 F   0  0  0  0  0  0  0  0  0  0  0  0
  1  2  1  0  0  0  0
  1  5  2  0  0  0  0
  2  6  2  0  0  0  0
  3  8  2  0  0  0  0
  3 15  1  0  0  0  0
  4  9  1  0  0  0  0
  4 15  2  0  0  0  0
  5 17  1  0  0  0  0
  6 19  1  0  0  0  0
  7 10  2  0  0  0  0
  7 18  1  0  0  0  0
  8 21  1  0  0  0  0
  9 21  2  0  0  0  0
 10 22  1  0  0  0  0
 11 12  2  0  0  0  0
 11 23  1  0  0  0  0
 12 24  1  0  0  0  0
 13 20  1  0  0  0  0
 13 22  2  0  0  0  0
 14 24  2  0  0  0  0
 14 25  1  0  0  0  0
 15 26  1  0  0  0  0
 16 26  1  0  0  0  0
 16 27  2  0  0  0  0
 16 28  1  0  0  0  0
 17 19  2  0  0  0  0
 17 33  1  0  0  0  0
 18 20  2  0  0  0  0
 18 34  1  0  0  0  0
 19 48  1  0  0  0  0
 20 35  1  0  0  0  0
 21 77  1  0  0  0  0
 22 78  1  0  0  0  0
 23 25  2  0  0  0  0
 23 77  1  0  0  0  0
 24 79  1  0  0  0  0
 25 80  1  0  0  0  0
 26 61  2  0  0  0  0
 27 62  1  0  0  0  0
 27 66  1  0  0  0  0
 28 67  1  0  0  0  0
 28 72  2  0  0  0  0
 29 49  1  0  0  0  0
 29 68  1  0  0  0  0
 29 73  2  0  0  0  0
 30 58  1  0  0  0  0
 30 63  1  0  0  0  0
 30 74  2  0  0  0  0
 31 59  1  0  0  0  0
 31 69  1  0  0  0  0
 31 75  2  0  0  0  0
 32 64  1  0  0  0  0
 32 65  1  0  0  0  0
 32 76  2  0  0  0  0
 33 36  1  0  0  0  0
 34 49  1  0  0  0  0
 35 63  1  0  0  0  0
 36 38  1  0  0  0  0
 37 39  1  0  0  0  0
 37 42  1  0  0  0  0
 38 48  1  0  0  0  0
 39 50  1  0  0  0  0
 40 51  1  0  0  0  0
 40 52  1  0  0  0  0
 41 51  1  0  0  0  0
 41 52  1  0  0  0  0
 42 64  1  0  0  0  0
 43 46  1  0  0  0  0
 43 65  1  0  0  0  0
 44 47  1  0  0  0  0
 44 65  1  0  0  0  0
 45 50  1  0  0  0  0
 45 64  1  0  0  0  0
 46 70  1  0  0  0  0
 47 70  1  0  0  0  0
 48 68  1  0  0  0  0
 49 63  1  0  0  0  0
 50 62  1  0  0  0  0
 51 70  1  0  0  0  0
 52 78  1  0  0  0  0
 53 59  1  0  0  0  0
 54 60  1  0  0  0  0
 55 60  1  0  0  0  0
 56 60  1  0  0  0  0
 57 71  1  0  0  0  0
 58 60  1  0  0  0  0
 58 69  1  0  0  0  0
 59 71  1  0  0  0  0
 61 62  1  0  0  0  0
M  CHG  2  70   1  71   1
M  ISO  4  32 100  52 101  65 100  78 101
M  END
> <Batch ID>
0184

> <Smiles>
CNC(C)C(=O)NC(C(=O)N1Cc2cc([101O:1][101CH:1]3CC(N4CC[100N:0]([100C:0](=O)N5CCCC(n6nc(-c7ccc(Oc8ccc(F)cc8F)cc7)c(C(N)=O)c6N)C5)CC4)C3)ccc2CC1C(=O)NC1CCCc2ccccc21)C(C)(C)C

> <Shape>
0.243

> <Color>
0.100

> <Negative vol penalty>
0.000

$$$$

  -OEChem-04052323103D

 88 97  0     1  0  0  0  0  0999 V2000
  -25.6954  -38.5043   20.9711 C   0  0  0  0  0  0  0  0  0  0  0  0
  -26.2539  -37.4980   20.1895 C   0  0  0  0  0  0  0  0  0  0  0  0
  -24.0801  -12.3055   21.7649 C   0  0  0  0  0  0  0  0  0  0  0  0
  -24.4893  -13.2008   19.5585 C   0  0  0  0  0  0  0  0  0  0  0  0
  -25.2975  -38.2298   22.2789 C   0  0  0  0  0  0  0  0  0  0  0  0
  -26.4158  -36.2169   20.7156 C   0  0  0  0  0  0  0  0  0  0  0  0
  -26.3317  -29.3263   18.7587 C   0  0  0  0  0  0  0  0  0  0  0  0
  -25.3036  -11.6373   21.7207 C   0  0  0  0  0  0  0  0  0  0  0  0
  -25.7129  -12.5327   19.5144 C   0  0  0  0  0  0  0  0  0  0  0  0
  -27.1132  -28.1745   18.8382 C   0  0  0  0  0  0  0  0  0  0  0  0
  -28.8280  -12.9592   20.7533 C   0  0  0  0  0  0  0  0  0  0  0  0
  -29.9360  -13.6690   20.2906 C   0  0  0  0  0  0  0  0  0  0  0  0
  -26.3165  -27.7963   21.0835 C   0  0  0  0  0  0  0  0  0  0  0  0
  -30.2177  -12.0657   18.5053 C   0  0  0  0  0  0  0  0  0  0  0  0
  -23.6728  -13.0872   20.6837 C   0  0  0  0  0  0  0  0  0  0  0  0
  -21.1315  -13.2031   20.8723 C   0  0  0  0  0  0  0  0  0  0  0  0
  -25.4457  -36.9422   22.8181 C   0  0  0  0  0  0  0  0  0  0  0  0
  -25.5438  -29.7284   19.8468 C   0  0  0  0  0  0  0  0  0  0  0  0
  -26.0207  -35.9252   22.0323 C   0  0  0  0  0  0  0  0  0  0  0  0
  -25.5240  -28.9522   21.0144 C   0  0  0  0  0  0  0  0  0  0  0  0
  -26.1201  -11.7509   20.5955 C   0  0  0  0  0  0  0  0  0  0  0  0
  -27.1079  -27.4108   20.0018 C   0  0  0  0  0  0  0  0  0  0  0  0
  -28.4149  -11.8025   20.0920 C   0  0  0  0  0  0  0  0  0  0  0  0
  -30.6308  -13.2224   19.1666 C   0  0  0  0  0  0  0  0  0  0  0  0
  -29.1097  -11.3558   18.9680 C   0  0  0  0  0  0  0  0  0  0  0  0
  -22.4087  -13.7772   20.7285 C   0  0  0  0  0  0  0  0  0  0  0  0
  -20.2703  -14.2729   20.8565 C   0  0  0  0  0  0  0  0  0  0  0  0
  -20.7569  -11.8258   21.0082 C   0  0  0  0  0  0  0  0  0  0  0  0
  -28.3818  -18.5256   18.4947 C   0  0  0  0  0  0  0  0  0  0  0  0
  -25.4626  -32.2848   21.7341 C   0  0  0  0  0  0  0  0  0  0  0  0
  -22.7956  -30.8549   22.9023 C   0  0  0  0  0  0  0  0  0  0  0  0
  -21.0239  -27.9774   23.3802 C   0  0  0  0  0  0  0  0  0  0  0  0
  -23.9006  -18.5915   20.8599 C   0  0  0  0  0  0  0  0  0  0  0  0
  -25.0444  -36.7053   24.2525 C   0  0  0  0  0  0  0  0  0  0  0  0
  -24.6859  -30.9589   19.7354 C   0  0  0  0  0  0  0  0  0  0  0  0
  -24.6798  -29.3296   22.2033 C   0  0  0  0  0  0  0  0  0  0  0  0
  -24.9054  -35.2277   24.6099 C   0  0  0  0  0  0  0  0  0  0  0  0
  -21.3791  -17.5240   18.3080 C   0  0  0  0  0  0  0  0  0  0  0  0
  -26.1011  -34.4374   24.0879 C   0  0  0  0  0  0  0  0  0  0  0  0
  -20.1773  -17.2170   19.1992 C   0  0  0  0  0  0  0  0  0  0  0  0
  -27.3191  -18.9542   20.7009 C   0  0  0  0  0  0  0  0  0  0  0  0
  -26.5779  -16.9836   19.2726 C   0  0  0  0  0  0  0  0  0  0  0  0
  -32.0783  -21.2966   17.0424 C   0  0  0  0  0  0  0  0  0  0  0  0
  -22.2693  -18.5842   18.9411 C   0  0  0  0  0  0  0  0  0  0  0  0
  -26.0451  -19.6796   20.2761 C   0  0  0  0  0  0  0  0  0  0  0  0
  -25.3039  -17.7580   18.9208 C   0  0  0  0  0  0  0  0  0  0  0  0
  -21.5618  -17.8831   21.2120 C   0  0  0  0  0  0  0  0  0  0  0  0
  -32.2782  -22.7021   17.5839 C   0  0  0  0  0  0  0  0  0  0  0  0
  -30.2043  -21.7149   18.4240 C   0  0  0  0  0  0  0  0  0  0  0  0
  -26.1898  -34.5167   22.5591 C   0  0  1  0  0  0  0  0  0  0  0  0
  -27.7432  -17.8836   19.6919 C   0  0  0  0  0  0  0  0  0  0  0  0
  -24.3176  -31.5551   21.0905 C   0  0  1  0  0  0  0  0  0  0  0  0
  -31.2067  -20.6223   18.0917 C   0  0  1  0  0  0  0  0  0  0  0  0
  -20.5938  -16.8318   20.6327 C   0  0  2  0  0  0  0  0  0  0  0  0
  -18.8975  -27.1197   24.4001 C   0  0  0  0  0  0  0  0  0  0  0  0
  -24.0304  -31.1050   25.6813 C   0  0  0  0  0  0  0  0  0  0  0  0
  -22.3598  -29.4288   26.4983 C   0  0  0  0  0  0  0  0  0  0  0  0
  -21.5840  -31.6134   25.5772 C   0  0  0  0  0  0  0  0  0  0  0  0
  -20.0347  -26.9899   20.7716 C   0  0  0  0  0  0  0  0  0  0  0  0
  -30.5506  -19.3456   17.5966 C   0  0  0  0  0  0  0  0  0  0  0  0
  -29.4140  -24.6587   19.2209 C   0  0  0  0  0  0  0  0  0  0  0  0
  -30.3025  -24.2084   18.0711 C   0  0  0  0  0  0  0  0  0  0  0  0
  -28.6514  -25.9472   18.9382 C   0  0  0  0  0  0  0  0  0  1  0  0
  -22.5096  -29.8636   24.0044 C   0  0  1  0  0  0  0  0  0  0  0  0
  -19.5638  -27.6413   23.1365 C   0  0  2  0  0  0  0  0  0  0  0  0
  -22.6384  -30.4964   25.4188 C   0  0  0  0  0  0  0  0  0  0  0  0
  -22.3673  -15.1085   20.6285 N   0  0  0  0  0  0  0  0  0  0  0  0
  -21.0536  -15.3797   20.7095 N   0  0  0  0  0  0  0  0  0  0  0  0
  -23.8631  -30.5446   22.0479 N   0  0  0  0  0  0  0  0  0  0  0  0
  -22.6647  -18.2157   20.3056 N   0  0  0  0  0  0  0  0  0  0  0  0
  -24.9780  -18.7294   19.9713 N   0  0  0  0  0  0  0  0  0  0  0  0
  -18.9270  -14.3655   20.9540 N   0  0  0  0  0  0  0  0  0  0  0  0
  -20.4872  -11.0890   19.8468 N   0  0  0  0  0  0  0  0  0  0  0  0
  -25.2231  -33.6285   21.9500 N   0  0  0  0  0  0  0  0  0  0  0  0
  -29.7401  -18.7413   18.6295 N   0  0  0  0  0  0  0  0  0  0  0  0
  -21.1932  -29.3035   23.7181 N   0  0  0  0  0  0  0  0  0  0  0  0
  -31.0530  -22.9692   18.4397 N   0  3  2  0  0  0  0  0  0  0  0  0
  -19.4417  -26.6005   22.0769 N   0  3  0  0  0  0  0  0  0  0  0  0
  -20.6483  -11.2694   22.1272 O   0  0  0  0  0  0  0  0  0  0  0  0
  -27.6940  -18.8038   17.5194 O   0  0  0  0  0  0  0  0  0  0  0  0
  -26.4868  -31.6737   22.0153 O   0  0  0  0  0  0  0  0  0  0  0  0
  -22.0931  -31.8635   22.7989 O   0  0  0  0  0  0  0  0  0  0  0  0
  -21.9239  -27.1459   23.2844 O   0  0  0  0  0  0  0  0  0  0  0  0
  -24.0329  -18.7817   22.0753 O   0  0  0  0  0  0  0  0  0  0  0  0
  -27.3143  -11.0993   20.5522 O   0  0  0  0  0  0  0  0  0  0  0  0
  -27.8756  -26.2786   20.0829 O   0  0  0  0  0  0  0  0  0  1  0  0
  -31.6938  -13.9050   18.7215 F   0  0  0  0  0  0  0  0  0  0  0  0
  -28.7169  -10.2460   18.3279 F   0  0  0  0  0  0  0  0  0  0  0  0
  1  2  1  0  0  0  0
  1  5  2  0  0  0  0
  2  6  2  0  0  0  0
  3  8  2  0  0  0  0
  3 15  1  0  0  0  0
  4  9  1  0  0  0  0
  4 15  2  0  0  0  0
  5 17  1  0  0  0  0
  6 19  1  0  0  0  0
  7 10  2  0  0  0  0
  7 18  1  0  0  0  0
  8 21  1  0  0  0  0
  9 21  2  0  0  0  0
 10 22  1  0  0  0  0
 11 12  2  0  0  0  0
 11 23  1  0  0  0  0
 12 24  1  0  0  0  0
 13 20  1  0  0  0  0
 13 22  2  0  0  0  0
 14 24  2  0  0  0  0
 14 25  1  0  0  0  0
 15 26  1  0  0  0  0
 16 26  1  0  0  0  0
 16 27  2  0  0  0  0
 16 28  1  0  0  0  0
 17 19  2  0  0  0  0
 17 34  1  0  0  0  0
 18 20  2  0  0  0  0
 18 35  1  0  0  0  0
 19 50  1  0  0  0  0
 20 36  1  0  0  0  0
 21 85  1  0  0  0  0
 22 86  1  0  0  0  0
 23 25  2  0  0  0  0
 23 85  1  0  0  0  0
 24 87  1  0  0  0  0
 25 88  1  0  0  0  0
 26 67  2  0  0  0  0
 27 68  1  0  0  0  0
 27 72  1  0  0  0  0
 28 73  1  0  0  0  0
 28 79  2  0  0  0  0
 29 51  1  0  0  0  0
 29 75  1  0  0  0  0
 29 80  2  0  0  0  0
 30 52  1  0  0  0  0
 30 74  1  0  0  0  0
 30 81  2  0  0  0  0
 31 64  1  0  0  0  0
 31 69  1  0  0  0  0
 31 82  2  0  0  0  0
 32 65  1  0  0  0  0
 32 76  1  0  0  0  0
 32 83  2  0  0  0  0
 33 70  1  0  0  0  0
 33 71  1  0  0  0  0
 33 84  2  0  0  0  0
 34 37  1  0  0  0  0
 35 52  1  0  0  0  0
 36 69  1  0  0  0  0
 37 39  1  0  0  0  0
 38 40  1  0  0  0  0
 38 44  1  0  0  0  0
 39 50  1  0  0  0  0
 40 54  1  0  0  0  0
 41 45  1  0  0  0  0
 41 51  1  0  0  0  0
 42 46  1  0  0  0  0
 42 51  1  0  0  0  0
 43 48  1  0  0  0  0
 43 53  1  0  0  0  0
 44 70  1  0  0  0  0
 45 71  1  0  0  0  0
 46 71  1  0  0  0  0
 47 54  1  0  0  0  0
 47 70  1  0  0  0  0
 48 77  1  0  0  0  0
 49 53  1  0  0  0  0
 49 77  1  0  0  0  0
 50 74  1  0  0  0  0
 52 69  1  0  0  0  0
 53 60  1  0  0  0  0
 54 68  1  0  0  0  0
 55 65  1  0  0  0  0
 56 66  1  0  0  0  0
 57 66  1  0  0  0  0
 58 66  1  0  0  0  0
 59 78  1  0  0  0  0
 60 75  1  0  0  0  0
 61 62  1  0  0  0  0
 61 63  1  0  0  0  0
 62 77  1  0  0  0  0
 63 86  1  0  0  0  0
 64 66  1  0  0  0  0
 64 76  1  0  0  0  0
 65 78  1  0  0  0  0
 67 68  1  0  0  0  0
M  CHG  2  77   1  78   1
M  ISO  4  33 100  63 101  71 100  86 101
M  END
> <Batch ID>
0184

> <Smiles>
CNC(C)C(=O)NC(C(=O)N1Cc2cc([101O:1][101CH2:1]CCN3CCC(CNC(=O)C4CC[100N:0]([100C:0](=O)N5CCCC(n6nc(-c7ccc(Oc8ccc(F)cc8F)cc7)c(C(N)=O)c6N)C5)CC4)C3)ccc2CC1C(=O)NC1CCCc2ccccc21)C(C)(C)C

> <Shape>
0.289

> <Color>
0.095

> <Negative vol penalty>
0.000

$$$$

  -OEChem-04052323103D

 83 92  0     1  0  0  0  0  0999 V2000
  -28.1634  -29.9365   11.1694 C   0  0  0  0  0  0  0  0  0  0  0  0
  -28.7212  -29.0118   12.0465 C   0  0  0  0  0  0  0  0  0  0  0  0
  -23.2973   -9.8071   19.8698 C   0  0  0  0  0  0  0  0  0  0  0  0
  -23.6988   -9.9073   22.2501 C   0  0  0  0  0  0  0  0  0  0  0  0
  -27.0779  -30.7123   11.5737 C   0  0  0  0  0  0  0  0  0  0  0  0
  -28.1943  -28.8633   13.3290 C   0  0  0  0  0  0  0  0  0  0  0  0
  -27.6555  -24.0063   14.6574 C   0  0  0  0  0  0  0  0  0  0  0  0
  -22.5632   -8.6338   20.0430 C   0  0  0  0  0  0  0  0  0  0  0  0
  -22.9647   -8.7339   22.4233 C   0  0  0  0  0  0  0  0  0  0  0  0
  -28.8038  -23.3246   15.0580 C   0  0  0  0  0  0  0  0  0  0  0  0
  -19.4570   -7.7658   21.0583 C   0  0  0  0  0  0  0  0  0  0  0  0
  -18.2414   -7.6560   20.3831 C   0  0  0  0  0  0  0  0  0  0  0  0
  -28.1790  -23.6411   17.3664 C   0  0  0  0  0  0  0  0  0  0  0  0
  -19.0607   -5.6996   19.2262 C   0  0  0  0  0  0  0  0  0  0  0  0
  -23.8652  -10.4439   20.9734 C   0  0  0  0  0  0  0  0  0  0  0  0
  -24.1362  -12.9759   20.8221 C   0  0  0  0  0  0  0  0  0  0  0  0
  -26.5313  -30.5664   12.8585 C   0  0  0  0  0  0  0  0  0  0  0  0
  -26.7644  -24.5209   15.6100 C   0  0  0  0  0  0  0  0  0  0  0  0
  -27.1012  -29.6388   13.7514 C   0  0  0  0  0  0  0  0  0  0  0  0
  -27.0188  -24.3267   16.9752 C   0  0  0  0  0  0  0  0  0  0  0  0
  -30.0738  -18.4577   17.5222 C   0  0  0  0  0  0  0  0  0  0  0  0
  -22.3969   -8.0972   21.3197 C   0  0  0  0  0  0  0  0  0  0  0  0
  -29.0672  -23.1445   16.4127 C   0  0  0  0  0  0  0  0  0  0  0  0
  -20.4745   -6.8425   20.8174 C   0  0  0  0  0  0  0  0  0  0  0  0
  -18.0433   -6.6229   19.4671 C   0  0  0  0  0  0  0  0  0  0  0  0
  -20.2763   -5.8094   19.9014 C   0  0  0  0  0  0  0  0  0  0  0  0
  -24.6240  -11.6557   20.7951 C   0  0  0  0  0  0  0  0  0  0  0  0
  -29.3127  -17.9116   18.5525 C   0  0  0  0  0  0  0  0  0  0  0  0
  -30.5752  -19.7282   17.7518 C   0  0  0  0  0  0  0  0  0  0  0  0
  -25.2451  -13.7562   20.6030 C   0  0  0  0  0  0  0  0  0  0  0  0
  -29.5834  -19.8130   19.7919 C   0  0  0  0  0  0  0  0  0  0  0  0
  -22.8002  -13.4542   21.0269 C   0  0  0  0  0  0  0  0  0  0  0  0
  -25.7337  -27.4282   16.3774 C   0  0  0  0  0  0  0  0  0  0  0  0
  -23.7646  -25.7821   18.3612 C   0  0  0  0  0  0  0  0  0  0  0  0
  -23.1656  -22.9305   20.1377 C   0  0  0  0  0  0  0  0  0  0  0  0
  -29.8793  -14.5205   17.4119 C   0  0  0  0  0  0  0  0  0  0  0  0
  -25.3876  -31.4608   13.2667 C   0  0  0  0  0  0  0  0  0  0  0  0
  -25.5165  -25.2306   15.1612 C   0  0  0  0  0  0  0  0  0  0  0  0
  -30.3850  -17.6981   16.2677 C   0  0  0  0  0  0  0  0  0  0  0  0
  -26.0834  -24.8420   18.0373 C   0  0  0  0  0  0  0  0  0  0  0  0
  -28.7058  -16.5352   18.4233 C   0  0  0  0  0  0  0  0  0  0  0  0
  -24.6510  -30.9771   14.5132 C   0  0  0  0  0  0  0  0  0  0  0  0
  -30.1587  -12.5923   20.5574 C   0  0  0  0  0  0  0  0  0  0  0  0
  -25.6448  -30.5864   15.6025 C   0  0  0  0  0  0  0  0  0  0  0  0
  -28.7048  -12.2290   20.8553 C   0  0  0  0  0  0  0  0  0  0  0  0
  -29.4134  -16.5400   16.0579 C   0  0  0  0  0  0  0  0  0  0  0  0
  -30.4066  -12.7613   19.0614 C   0  0  0  0  0  0  0  0  0  0  0  0
  -28.0367  -13.3667   18.7021 C   0  0  0  0  0  0  0  0  0  0  0  0
  -26.5420  -29.4311   15.1421 C   0  0  1  0  0  0  0  0  0  0  0  0
  -24.9420  -26.1602   16.2257 C   0  0  1  0  0  0  0  0  0  0  0  0
  -27.7428  -13.2380   20.2041 C   0  0  1  0  0  0  0  0  0  0  0  0
  -29.3025  -20.5661   21.0478 C   0  0  0  0  0  0  0  0  0  0  0  0
  -21.4914  -21.8937   21.6931 C   0  0  0  0  0  0  0  0  0  0  0  0
  -24.7946  -27.5364   20.6353 C   0  0  0  0  0  0  0  0  0  0  0  0
  -23.8461  -25.8767   22.2521 C   0  0  0  0  0  0  0  0  0  0  0  0
  -22.3331  -27.0974   20.6890 C   0  0  0  0  0  0  0  0  0  0  0  0
  -22.6327  -20.7017   18.2649 C   0  0  0  0  0  0  0  0  0  0  0  0
  -31.4376  -20.4075   16.7386 C   0  0  0  0  0  0  0  0  0  0  0  0
  -30.6852  -21.4690   15.9322 C   0  0  0  0  0  0  0  0  0  1  0  0
  -23.8508  -25.2886   19.7853 C   0  0  1  0  0  0  0  0  0  0  0  0
  -21.9326  -22.0517   20.2464 C   0  0  2  0  0  0  0  0  0  0  0  0
  -23.7250  -26.4416   20.8207 C   0  0  0  0  0  0  0  0  0  0  0  0
  -25.9403  -11.5967   20.5760 N   0  0  0  0  0  0  0  0  0  0  0  0
  -29.0467  -18.5817   19.6977 N   0  0  0  0  0  0  0  0  0  0  0  0
  -30.3454  -20.4363   18.8758 N   0  0  0  0  0  0  0  0  0  0  0  0
  -26.2890  -12.8896   20.4633 N   0  0  0  0  0  0  0  0  0  0  0  0
  -24.8799  -25.5348   17.5483 N   0  0  0  0  0  0  0  0  0  0  0  0
  -29.2598  -15.7738   17.2940 N   0  0  0  0  0  0  0  0  0  0  0  0
  -29.4502  -13.6917   18.4610 N   0  0  0  0  0  0  0  0  0  0  0  0
  -25.4193  -15.0922   20.5182 N   0  0  0  0  0  0  0  0  0  0  0  0
  -21.7799  -12.5167   21.2377 N   0  0  0  0  0  0  0  0  0  0  0  0
  -25.8275  -28.1749   15.2184 N   0  0  0  0  0  0  0  0  0  0  0  0
  -22.8341  -24.2510   19.9199 N   0  0  0  0  0  0  0  0  0  0  0  0
  -22.2108  -20.6977   19.6893 N   0  3  0  0  0  0  0  0  0  0  0  0
  -22.5167  -14.6760   21.0067 O   0  0  0  0  0  0  0  0  0  0  0  0
  -26.2219  -27.7092   17.4657 O   0  0  0  0  0  0  0  0  0  0  0  0
  -22.7425  -26.3592   17.9819 O   0  0  0  0  0  0  0  0  0  0  0  0
  -24.3085  -22.4901   20.2399 O   0  0  0  0  0  0  0  0  0  0  0  0
  -30.7724  -14.1649   16.6324 O   0  0  0  0  0  0  0  0  0  0  0  0
  -21.6805   -6.9524   21.4891 O   0  0  0  0  0  0  0  0  0  0  0  0
  -30.1954  -22.4754   16.8093 O   0  0  0  0  0  0  0  0  0  1  0  0
  -16.8753   -6.5167   18.8199 F   0  0  0  0  0  0  0  0  0  0  0  0
  -21.2497   -4.9187   19.6666 F   0  0  0  0  0  0  0  0  0  0  0  0
  1  2  1  0  0  0  0
  1  5  2  0  0  0  0
  2  6  2  0  0  0  0
  3  8  2  0  0  0  0
  3 15  1  0  0  0  0
  4  9  1  0  0  0  0
  4 15  2  0  0  0  0
  5 17  1  0  0  0  0
  6 19  1  0  0  0  0
  7 10  2  0  0  0  0
  7 18  1  0  0  0  0
  8 22  1  0  0  0  0
  9 22  2  0  0  0  0
 10 23  1  0  0  0  0
 11 12  2  0  0  0  0
 11 24  1  0  0  0  0
 12 25  1  0  0  0  0
 13 20  1  0  0  0  0
 13 23  2  0  0  0  0
 14 25  2  0  0  0  0
 14 26  1  0  0  0  0
 15 27  1  0  0  0  0
 16 27  1  0  0  0  0
 16 30  2  0  0  0  0
 16 32  1  0  0  0  0
 17 19  2  0  0  0  0
 17 37  1  0  0  0  0
 18 20  2  0  0  0  0
 18 38  1  0  0  0  0
 19 49  1  0  0  0  0
 20 40  1  0  0  0  0
 21 28  1  0  0  0  0
 21 29  2  0  0  0  0
 21 39  1  0  0  0  0
 22 80  1  0  0  0  0
 23 81  1  0  0  0  0
 24 26  2  0  0  0  0
 24 80  1  0  0  0  0
 25 82  1  0  0  0  0
 26 83  1  0  0  0  0
 27 63  2  0  0  0  0
 28 41  1  0  0  0  0
 28 64  2  0  0  0  0
 29 58  1  0  0  0  0
 29 65  1  0  0  0  0
 30 66  1  0  0  0  0
 30 70  1  0  0  0  0
 31 52  1  0  0  0  0
 31 64  1  0  0  0  0
 31 65  2  0  0  0  0
 32 71  1  0  0  0  0
 32 75  2  0  0  0  0
 33 50  1  0  0  0  0
 33 72  1  0  0  0  0
 33 76  2  0  0  0  0
 34 60  1  0  0  0  0
 34 67  1  0  0  0  0
 34 77  2  0  0  0  0
 35 61  1  0  0  0  0
 35 73  1  0  0  0  0
 35 78  2  0  0  0  0
 36 68  1  0  0  0  0
 36 69  1  0  0  0  0
 36 79  2  0  0  0  0
 37 42  1  0  0  0  0
 38 50  1  0  0  0  0
 39 46  1  0  0  0  0
 40 67  1  0  0  0  0
 41 68  1  0  0  0  0
 42 44  1  0  0  0  0
 43 45  1  0  0  0  0
 43 47  1  0  0  0  0
 44 49  1  0  0  0  0
 45 51  1  0  0  0  0
 46 68  1  0  0  0  0
 47 69  1  0  0  0  0
 48 51  1  0  0  0  0
 48 69  1  0  0  0  0
 49 72  1  0  0  0  0
 50 67  1  0  0  0  0
 51 66  1  0  0  0  0
 53 61  1  0  0  0  0
 54 62  1  0  0  0  0
 55 62  1  0  0  0  0
 56 62  1  0  0  0  0
 57 74  1  0  0  0  0
 58 59  1  0  0  0  0
 59 81  1  0  0  0  0
 60 62  1  0  0  0  0
 60 73  1  0  0  0  0
 61 74  1  0  0  0  0
 63 66  1  0  0  0  0
M  CHG  1  74   1
M  ISO  4  36 100  59 101  68 100  81 101
M  END
> <Batch ID>
0184

> <Smiles>
CNC(C)C(=O)NC(C(=O)N1Cc2cc([101O:1][101CH2:1]Cc3nc(C)nc4c3CC[100N:0]([100C:0](=O)N3CCCC(n5nc(-c6ccc(Oc7ccc(F)cc7F)cc6)c(C(N)=O)c5N)C3)C4)ccc2CC1C(=O)NC1CCCc2ccccc21)C(C)(C)C

> <Shape>
0.169

> <Color>
0.178

> <Negative vol penalty>
0.000

$$$$

  -OEChem-04052323103D

 81 89  0     1  0  0  0  0  0999 V2000
  -17.2312  -10.1626   26.7480 C   0  0  0  0  0  0  0  0  0  0  0  0
  -18.4072   -9.6093   26.2518 C   0  0  0  0  0  0  0  0  0  0  0  0
  -23.2863   -9.8003   19.9132 C   0  0  0  0  0  0  0  0  0  0  0  0
  -23.7341   -9.9421   22.2831 C   0  0  0  0  0  0  0  0  0  0  0  0
  -17.0843  -11.5479   26.8061 C   0  0  0  0  0  0  0  0  0  0  0  0
  -19.4366  -10.4410   25.8124 C   0  0  0  0  0  0  0  0  0  0  0  0
  -25.4554   -9.4093   26.2769 C   0  0  0  0  0  0  0  0  0  0  0  0
  -22.5587   -8.6286   20.1207 C   0  0  0  0  0  0  0  0  0  0  0  0
  -23.0064   -8.7704   22.4907 C   0  0  0  0  0  0  0  0  0  0  0  0
  -26.3957   -8.9191   25.3717 C   0  0  0  0  0  0  0  0  0  0  0  0
  -20.8853   -5.4030   19.9824 C   0  0  0  0  0  0  0  0  0  0  0  0
  -21.1104   -4.3355   19.1133 C   0  0  0  0  0  0  0  0  0  0  0  0
  -27.0118  -11.1795   24.7970 C   0  0  0  0  0  0  0  0  0  0  0  0
  -23.4325   -4.2837   19.7784 C   0  0  0  0  0  0  0  0  0  0  0  0
  -23.8741  -10.4571   20.9943 C   0  0  0  0  0  0  0  0  0  0  0  0
  -24.1358  -12.9868   20.7944 C   0  0  0  0  0  0  0  0  0  0  0  0
  -18.1162  -12.3970   26.3762 C   0  0  0  0  0  0  0  0  0  0  0  0
  -25.2784  -10.7906   26.4413 C   0  0  0  0  0  0  0  0  0  0  0  0
  -19.3028  -11.8389   25.8636 C   0  0  0  0  0  0  0  0  0  0  0  0
  -26.0704  -11.6846   25.7068 C   0  0  0  0  0  0  0  0  0  0  0  0
  -22.4187   -8.1136   21.4094 C   0  0  0  0  0  0  0  0  0  0  0  0
  -27.1720   -9.8042   24.6294 C   0  0  0  0  0  0  0  0  0  0  0  0
  -21.9338   -5.9110   20.7495 C   0  0  0  0  0  0  0  0  0  0  0  0
  -22.3840   -3.7758   19.0113 C   0  0  0  0  0  0  0  0  0  0  0  0
  -23.2074   -5.3513   20.6475 C   0  0  0  0  0  0  0  0  0  0  0  0
  -24.6263  -11.6673   20.7805 C   0  0  0  0  0  0  0  0  0  0  0  0
  -25.2383  -13.7656   20.5404 C   0  0  0  0  0  0  0  0  0  0  0  0
  -22.8029  -13.4657   21.0171 C   0  0  0  0  0  0  0  0  0  0  0  0
  -22.8650  -12.8112   25.9977 C   0  0  0  0  0  0  0  0  0  0  0  0
  -24.9084  -14.9376   27.3489 C   0  0  0  0  0  0  0  0  0  0  0  0
  -28.1313  -15.8171   28.0464 C   0  0  0  0  0  0  0  0  0  0  0  0
  -31.1075  -12.9182   21.3683 C   0  0  0  0  0  0  0  0  0  0  0  0
  -17.8927  -13.8881   26.4144 C   0  0  0  0  0  0  0  0  0  0  0  0
  -24.2786  -11.3033   27.4413 C   0  0  0  0  0  0  0  0  0  0  0  0
  -25.9333  -13.1766   25.8610 C   0  0  0  0  0  0  0  0  0  0  0  0
  -19.1779  -14.7003   26.2778 C   0  0  0  0  0  0  0  0  0  0  0  0
  -29.4633  -13.6570   18.2979 C   0  0  0  0  0  0  0  0  0  0  0  0
  -20.0326  -14.1592   25.1361 C   0  0  0  0  0  0  0  0  0  0  0  0
  -30.9079   -6.7481   23.6884 C   0  0  0  0  0  0  0  0  0  0  0  0
  -27.9929  -13.3499   18.5872 C   0  0  0  0  0  0  0  0  0  0  0  0
  -32.1521   -7.6498   23.8367 C   0  0  0  0  0  0  0  0  0  0  0  0
  -30.3948  -12.6772   19.0081 C   0  0  0  0  0  0  0  0  0  0  0  0
  -28.7055  -12.2504   20.7511 C   0  0  0  0  0  0  0  0  0  0  0  0
  -20.4518  -12.7081   25.4005 C   0  0  1  0  0  0  0  0  0  0  0  0
  -23.8227  -12.7303   27.1527 C   0  0  1  0  0  0  0  0  0  0  0  0
  -30.0849   -8.0421   23.4534 C   0  0  2  0  0  0  0  0  0  0  0  0
  -27.7292  -13.2460   20.1015 C   0  0  2  0  0  0  0  0  0  0  0  0
  -31.1898   -8.7836   24.2551 C   0  0  2  0  0  0  0  0  0  0  0  0
  -29.4884  -17.6287   29.1297 C   0  0  0  0  0  0  0  0  0  0  0  0
  -24.4562  -16.7263   24.9187 C   0  0  0  0  0  0  0  0  0  0  0  0
  -26.4972  -18.0182   25.5769 C   0  0  0  0  0  0  0  0  0  0  0  0
  -24.5280  -17.9367   27.1060 C   0  0  0  0  0  0  0  0  0  0  0  0
  -29.2481  -13.9440   30.0472 C   0  0  0  0  0  0  0  0  0  0  0  0
  -28.6888   -8.0683   24.0446 C   0  0  0  0  0  0  0  0  0  1  0  0
  -31.6664  -13.1330   23.7767 C   0  0  0  0  0  0  0  0  0  0  0  0
  -32.6052  -10.8339   24.4330 C   0  0  0  0  0  0  0  0  0  0  0  0
  -25.9696  -15.8780   26.8307 C   0  0  1  0  0  0  0  0  0  0  0  0
  -28.7908  -16.2920   29.3285 C   0  0  2  0  0  0  0  0  0  0  0  0
  -32.8794  -12.1916   23.7781 C   0  0  2  0  0  0  0  0  0  0  0  0
  -25.3642  -17.1118   26.1035 C   0  0  0  0  0  0  0  0  0  0  0  0
  -25.9382  -11.6074   20.5367 N   0  0  0  0  0  0  0  0  0  0  0  0
  -26.2814  -12.8990   20.3950 N   0  0  0  0  0  0  0  0  0  0  0  0
  -24.9377  -13.6288   26.8467 N   0  0  0  0  0  0  0  0  0  0  0  0
  -30.0936  -12.6270   20.4408 N   0  0  0  0  0  0  0  0  0  0  0  0
  -25.4075  -15.1003   20.4293 N   0  0  0  0  0  0  0  0  0  0  0  0
  -21.7892  -12.5298   21.2639 N   0  0  0  0  0  0  0  0  0  0  0  0
  -33.9717  -12.8268   24.5251 N   0  0  0  0  0  0  0  0  0  0  0  0
  -21.5386  -12.6619   26.3551 N   0  0  0  0  0  0  0  0  0  0  0  0
  -26.8123  -16.2122   27.9738 N   0  0  0  0  0  0  0  0  0  0  0  0
  -30.7360  -12.8538   22.7057 N   0  0  0  0  0  0  0  0  0  0  0  0
  -31.5439  -10.0893   23.6879 N   0  3  0  0  0  0  0  0  0  0  0  0
  -29.8013  -15.2986   29.7900 N   0  3  0  0  0  0  0  0  0  0  0  0
  -22.5161  -14.6863   20.9817 O   0  0  0  0  0  0  0  0  0  0  0  0
  -23.2974  -12.9970   24.8662 O   0  0  0  0  0  0  0  0  0  0  0  0
  -24.0883  -15.3471   28.1743 O   0  0  0  0  0  0  0  0  0  0  0  0
  -28.7277  -15.1642   27.1928 O   0  0  0  0  0  0  0  0  0  0  0  0
  -32.2572  -13.2188   21.0295 O   0  0  0  0  0  0  0  0  0  0  0  0
  -21.7086   -6.9703   21.6124 O   0  0  0  0  0  0  0  0  0  0  0  0
  -28.0900   -9.3285   23.7447 O   0  0  0  0  0  0  0  0  0  1  0  0
  -22.5997   -2.7497   18.1779 F   0  0  0  0  0  0  0  0  0  0  0  0
  -24.2184   -5.8342   21.3827 F   0  0  0  0  0  0  0  0  0  0  0  0
  1  2  1  0  0  0  0
  1  5  2  0  0  0  0
  2  6  2  0  0  0  0
  3  8  2  0  0  0  0
  3 15  1  0  0  0  0
  4  9  1  0  0  0  0
  4 15  2  0  0  0  0
  5 17  1  0  0  0  0
  6 19  1  0  0  0  0
  7 10  2  0  0  0  0
  7 18  1  0  0  0  0
  8 21  1  0  0  0  0
  9 21  2  0  0  0  0
 10 22  1  0  0  0  0
 11 12  2  0  0  0  0
 11 23  1  0  0  0  0
 12 24  1  0  0  0  0
 13 20  1  0  0  0  0
 13 22  2  0  0  0  0
 14 24  2  0  0  0  0
 14 25  1  0  0  0  0
 15 26  1  0  0  0  0
 16 26  1  0  0  0  0
 16 27  2  0  0  0  0
 16 28  1  0  0  0  0
 17 19  2  0  0  0  0
 17 33  1  0  0  0  0
 18 20  2  0  0  0  0
 18 34  1  0  0  0  0
 19 44  1  0  0  0  0
 20 35  1  0  0  0  0
 21 78  1  0  0  0  0
 22 79  1  0  0  0  0
 23 25  2  0  0  0  0
 23 78  1  0  0  0  0
 24 80  1  0  0  0  0
 25 81  1  0  0  0  0
 26 61  2  0  0  0  0
 27 62  1  0  0  0  0
 27 65  1  0  0  0  0
 28 66  1  0  0  0  0
 28 73  2  0  0  0  0
 29 45  1  0  0  0  0
 29 68  1  0  0  0  0
 29 74  2  0  0  0  0
 30 57  1  0  0  0  0
 30 63  1  0  0  0  0
 30 75  2  0  0  0  0
 31 58  1  0  0  0  0
 31 69  1  0  0  0  0
 31 76  2  0  0  0  0
 32 64  1  0  0  0  0
 32 70  1  0  0  0  0
 32 77  2  0  0  0  0
 33 36  1  0  0  0  0
 34 45  1  0  0  0  0
 35 63  1  0  0  0  0
 36 38  1  0  0  0  0
 37 40  1  0  0  0  0
 37 42  1  0  0  0  0
 38 44  1  0  0  0  0
 39 41  1  0  0  0  0
 39 46  1  0  0  0  0
 40 47  1  0  0  0  0
 41 48  1  0  0  0  0
 42 64  1  0  0  0  0
 43 47  1  0  0  0  0
 43 64  1  0  0  0  0
 44 68  1  0  0  0  0
 45 63  1  0  0  0  0
 46 48  1  0  0  0  0
 46 54  1  0  0  0  0
 47 62  1  0  0  0  0
 48 71  1  0  0  0  0
 49 58  1  0  0  0  0
 50 60  1  0  0  0  0
 51 60  1  0  0  0  0
 52 60  1  0  0  0  0
 53 72  1  0  0  0  0
 54 79  1  0  0  0  0
 55 59  1  0  0  0  0
 55 70  1  0  0  0  0
 56 59  1  0  0  0  0
 56 71  1  0  0  0  0
 57 60  1  0  0  0  0
 57 69  1  0  0  0  0
 58 72  1  0  0  0  0
 59 67  1  0  0  0  0
 61 62  1  0  0  0  0
M  CHG  2  71   1  72   1
M  ISO  4  32 100  54 101  70 100  79 101
M  END
> <Batch ID>
0184

> <Smiles>
CNC(C)C(=O)NC(C(=O)N1Cc2cc([101O:1][101CH2:1]C3CCC3NCC(N)C[100NH:0][100C:0](=O)N3CCCC(n4nc(-c5ccc(Oc6ccc(F)cc6F)cc5)c(C(N)=O)c4N)C3)ccc2CC1C(=O)NC1CCCc2ccccc21)C(C)(C)C

> <Shape>
0.122

> <Color>
0.167

> <Negative vol penalty>
0.000

$$$$

  -OEChem-04052323103D

 84 94  0     1  0  0  0  0  0999 V2000
  -32.6077  -34.4610   15.7220 C   0  0  0  0  0  0  0  0  0  0  0  0
  -31.8733  -33.2892   15.8740 C   0  0  0  0  0  0  0  0  0  0  0  0
  -24.6026   -9.3610   21.6669 C   0  0  0  0  0  0  0  0  0  0  0  0
  -24.4240  -10.7647   23.6252 C   0  0  0  0  0  0  0  0  0  0  0  0
  -32.8771  -35.2623   16.8307 C   0  0  0  0  0  0  0  0  0  0  0  0
  -31.4088  -32.9176   17.1352 C   0  0  0  0  0  0  0  0  0  0  0  0
  -26.1552  -30.0464   18.4244 C   0  0  0  0  0  0  0  0  0  0  0  0
  -24.2640   -8.2468   22.4346 C   0  0  0  0  0  0  0  0  0  0  0  0
  -24.0853   -9.6504   24.3930 C   0  0  0  0  0  0  0  0  0  0  0  0
  -25.8553  -28.7089   18.6793 C   0  0  0  0  0  0  0  0  0  0  0  0
  -23.0939   -5.0899   23.8057 C   0  0  0  0  0  0  0  0  0  0  0  0
  -22.1575   -4.2001   23.2794 C   0  0  0  0  0  0  0  0  0  0  0  0
  -25.9922  -29.1363   21.0495 C   0  0  0  0  0  0  0  0  0  0  0  0
  -20.5204   -5.9746   23.1919 C   0  0  0  0  0  0  0  0  0  0  0  0
  -28.7784  -21.2213   19.4917 C   0  0  0  0  0  0  0  0  0  0  0  0
  -26.6934  -19.7555   20.2865 C   0  0  0  0  0  0  0  0  0  0  0  0
  -24.6827  -10.6200   22.2622 C   0  0  0  0  0  0  0  0  0  0  0  0
  -24.1545  -12.6259   20.7774 C   0  0  0  0  0  0  0  0  0  0  0  0
  -32.4074  -34.9052   18.1045 C   0  0  0  0  0  0  0  0  0  0  0  0
  -26.3870  -30.9379   19.4817 C   0  0  0  0  0  0  0  0  0  0  0  0
  -31.6733  -33.7141   18.2622 C   0  0  0  0  0  0  0  0  0  0  0  0
  -26.2924  -30.4851   20.8054 C   0  0  0  0  0  0  0  0  0  0  0  0
  -24.0053   -8.3915   23.7976 C   0  0  0  0  0  0  0  0  0  0  0  0
  -25.7766  -28.2530   19.9920 C   0  0  0  0  0  0  0  0  0  0  0  0
  -22.7435   -6.4221   24.0252 C   0  0  0  0  0  0  0  0  0  0  0  0
  -20.8708   -4.6424   22.9725 C   0  0  0  0  0  0  0  0  0  0  0  0
  -21.4568   -6.8645   23.7182 C   0  0  0  0  0  0  0  0  0  0  0  0
  -25.0331  -11.7713   21.4698 C   0  0  0  0  0  0  0  0  0  0  0  0
  -27.5255  -21.7790   19.6212 C   0  0  0  0  0  0  0  0  0  0  0  0
  -27.9461  -19.1975   20.1564 C   0  0  0  0  0  0  0  0  0  0  0  0
  -24.9747  -13.5559   20.1866 C   0  0  0  0  0  0  0  0  0  0  0  0
  -22.7249  -12.5831   20.6771 C   0  0  0  0  0  0  0  0  0  0  0  0
  -28.8563  -32.7015   20.4283 C   0  0  0  0  0  0  0  0  0  0  0  0
  -26.7135  -33.8488   22.5765 C   0  0  0  0  0  0  0  0  0  0  0  0
  -23.8321  -33.3595   24.3385 C   0  0  0  0  0  0  0  0  0  0  0  0
  -29.2845  -17.0757   20.3863 C   0  0  0  0  0  0  0  0  0  0  0  0
  -32.7641  -35.7789   19.2810 C   0  0  0  0  0  0  0  0  0  0  0  0
  -26.6831  -32.3835   19.1904 C   0  0  0  0  0  0  0  0  0  0  0  0
  -26.5126  -31.4065   21.9763 C   0  0  0  0  0  0  0  0  0  0  0  0
  -31.9160  -35.5071   20.5208 C   0  0  0  0  0  0  0  0  0  0  0  0
  -30.0105  -13.6612   19.6853 C   0  0  0  0  0  0  0  0  0  0  0  0
  -31.8149  -34.0073   20.7801 C   0  0  0  0  0  0  0  0  0  0  0  0
  -28.7080  -12.9354   20.0301 C   0  0  0  0  0  0  0  0  0  0  0  0
  -28.0335  -24.1654   20.3099 C   0  0  0  0  0  0  0  0  0  0  0  0
  -30.2871  -14.8168   20.6454 C   0  0  0  0  0  0  0  0  0  0  0  0
  -27.8847  -15.0528   21.1374 C   0  0  0  0  0  0  0  0  0  0  0  0
  -25.7789  -24.0593   20.9886 C   0  0  0  0  0  0  0  0  0  0  0  0
  -25.6080  -24.9990   18.8174 C   0  0  0  0  0  0  0  0  0  0  0  0
  -31.1311  -33.2900   19.6099 C   0  0  1  0  0  0  0  0  0  0  0  0
  -27.3047  -23.2212   19.3194 C   0  0  2  0  0  0  0  0  0  0  0  0
  -27.4071  -33.0873   20.3340 C   0  0  1  0  0  0  0  0  0  0  0  0
  -26.9062  -25.0648   20.8519 C   0  0  2  0  0  0  0  0  0  0  0  0
  -27.5304  -13.9215   20.1585 C   0  0  2  0  0  0  0  0  0  0  0  0
  -26.3809  -25.9691   19.7191 C   0  0  2  0  0  0  0  0  0  1  0  0
  -22.3548  -34.4588   26.0434 C   0  0  0  0  0  0  0  0  0  0  0  0
  -28.7196  -33.1449   24.7651 C   0  0  0  0  0  0  0  0  0  0  0  0
  -26.8677  -33.3626   26.4358 C   0  0  0  0  0  0  0  0  0  0  0  0
  -27.5599  -35.3382   25.0792 C   0  0  0  0  0  0  0  0  0  0  0  0
  -21.5275  -33.4050   22.4823 C   0  0  0  0  0  0  0  0  0  0  0  0
  -26.2834  -33.4588   23.9700 C   0  0  1  0  0  0  0  0  0  0  0  0
  -22.6238  -34.2510   24.5611 C   0  0  2  0  0  0  0  0  0  0  0  0
  -27.3554  -33.8081   25.0407 C   0  0  0  0  0  0  0  0  0  0  0  0
  -26.4606  -21.0563   20.0212 N   0  0  0  0  0  0  0  0  0  0  0  0
  -29.0111  -19.9204   19.7566 N   0  0  0  0  0  0  0  0  0  0  0  0
  -26.3133  -12.1266   21.3325 N   0  0  0  0  0  0  0  0  0  0  0  0
  -26.2452  -13.2148   20.5469 N   0  0  0  0  0  0  0  0  0  0  0  0
  -26.8056  -32.8095   21.6399 N   0  0  0  0  0  0  0  0  0  0  0  0
  -29.1298  -15.7118   20.7127 N   0  0  0  0  0  0  0  0  0  0  0  0
  -24.7259  -14.6239   19.3993 N   0  0  0  0  0  0  0  0  0  0  0  0
  -22.0386  -11.5607   21.3464 N   0  0  0  0  0  0  0  0  0  0  0  0
  -28.1084  -17.8219   20.4547 N   0  0  0  0  0  0  0  0  0  0  0  0
  -29.6983  -33.4867   19.6642 N   0  0  0  0  0  0  0  0  0  0  0  0
  -24.9891  -34.0948   24.1907 N   0  0  0  0  0  0  0  0  0  0  0  0
  -25.8378  -23.6606   19.5252 N   0  3  1  0  0  0  0  0  0  0  0  0
  -21.4110  -33.6432   23.9441 N   0  3  0  0  0  0  0  0  0  0  0  0
  -22.0766  -13.4168   20.0003 O   0  0  0  0  0  0  0  0  0  0  0  0
  -29.1862  -31.7620   21.1425 O   0  0  0  0  0  0  0  0  0  0  0  0
  -26.9520  -35.0329   22.3263 O   0  0  0  0  0  0  0  0  0  0  0  0
  -23.7577  -32.1332   24.3034 O   0  0  0  0  0  0  0  0  0  0  0  0
  -30.3742  -17.5413   20.0430 O   0  0  0  0  0  0  0  0  0  0  0  0
  -23.6745   -7.3045   24.5470 O   0  0  0  0  0  0  0  0  0  0  0  0
  -25.4847  -26.9479   20.2436 O   0  0  0  0  0  0  0  0  0  1  0  0
  -19.9721   -3.7882   22.4657 F   0  0  0  0  0  0  0  0  0  0  0  0
  -21.1147   -8.1434   23.9258 F   0  0  0  0  0  0  0  0  0  0  0  0
  1  2  1  0  0  0  0
  1  5  2  0  0  0  0
  2  6  2  0  0  0  0
  3  8  2  0  0  0  0
  3 17  1  0  0  0  0
  4  9  1  0  0  0  0
  4 17  2  0  0  0  0
  5 19  1  0  0  0  0
  6 21  1  0  0  0  0
  7 10  2  0  0  0  0
  7 20  1  0  0  0  0
  8 23  1  0  0  0  0
  9 23  2  0  0  0  0
 10 24  1  0  0  0  0
 11 12  2  0  0  0  0
 11 25  1  0  0  0  0
 12 26  1  0  0  0  0
 13 22  1  0  0  0  0
 13 24  2  0  0  0  0
 14 26  2  0  0  0  0
 14 27  1  0  0  0  0
 15 29  1  0  0  0  0
 15 64  2  0  0  0  0
 16 30  2  0  0  0  0
 16 63  1  0  0  0  0
 17 28  1  0  0  0  0
 18 28  1  0  0  0  0
 18 31  2  0  0  0  0
 18 32  1  0  0  0  0
 19 21  2  0  0  0  0
 19 37  1  0  0  0  0
 20 22  2  0  0  0  0
 20 38  1  0  0  0  0
 21 49  1  0  0  0  0
 22 39  1  0  0  0  0
 23 81  1  0  0  0  0
 24 82  1  0  0  0  0
 25 27  2  0  0  0  0
 25 81  1  0  0  0  0
 26 83  1  0  0  0  0
 27 84  1  0  0  0  0
 28 65  2  0  0  0  0
 29 50  1  0  0  0  0
 29 63  2  0  0  0  0
 30 64  1  0  0  0  0
 30 71  1  0  0  0  0
 31 66  1  0  0  0  0
 31 69  1  0  0  0  0
 32 70  1  0  0  0  0
 32 76  2  0  0  0  0
 33 51  1  0  0  0  0
 33 72  1  0  0  0  0
 33 77  2  0  0  0  0
 34 60  1  0  0  0  0
 34 67  1  0  0  0  0
 34 78  2  0  0  0  0
 35 61  1  0  0  0  0
 35 73  1  0  0  0  0
 35 79  2  0  0  0  0
 36 68  1  0  0  0  0
 36 71  1  0  0  0  0
 36 80  2  0  0  0  0
 37 40  1  0  0  0  0
 38 51  1  0  0  0  0
 39 67  1  0  0  0  0
 40 42  1  0  0  0  0
 41 43  1  0  0  0  0
 41 45  1  0  0  0  0
 42 49  1  0  0  0  0
 43 53  1  0  0  0  0
 44 50  1  0  0  0  0
 44 52  1  0  0  0  0
 45 68  1  0  0  0  0
 46 53  1  0  0  0  0
 46 68  1  0  0  0  0
 47 52  1  0  0  0  0
 47 74  1  0  0  0  0
 48 54  1  0  0  0  0
 48 74  1  0  0  0  0
 49 72  1  0  0  0  0
 50 74  1  0  0  0  0
 51 67  1  0  0  0  0
 52 54  1  0  0  0  0
 53 66  1  0  0  0  0
 54 82  1  0  0  0  0
 55 61  1  0  0  0  0
 56 62  1  0  0  0  0
 57 62  1  0  0  0  0
 58 62  1  0  0  0  0
 59 75  1  0  0  0  0
 60 62  1  0  0  0  0
 60 73  1  0  0  0  0
 61 75  1  0  0  0  0
 65 66  1  0  0  0  0
M  CHG  2  74   1  75   1
M  ISO  4  36 100  54 101  71 100  82 101
M  END
> <Batch ID>
0184

> <Smiles>
CNC(C)C(=O)NC(C(=O)N1Cc2cc([101O:1][101CH:1]3CN4CC3CC4c3cnc([100NH:0][100C:0](=O)N4CCCC(n5nc(-c6ccc(Oc7ccc(F)cc7F)cc6)c(C(N)=O)c5N)C4)cn3)ccc2CC1C(=O)NC1CCCc2ccccc21)C(C)(C)C

> <Shape>
0.253

> <Color>
0.121

> <Negative vol penalty>
0.000

$$$$

  -OEChem-04052323103D

 84 94  0     1  0  0  0  0  0999 V2000
  -34.4238  -26.5347   31.7054 C   0  0  0  0  0  0  0  0  0  0  0  0
  -33.6333  -25.7951   30.8316 C   0  0  0  0  0  0  0  0  0  0  0  0
  -22.9689  -10.0539   19.9660 C   0  0  0  0  0  0  0  0  0  0  0  0
  -23.8620   -9.8955   22.2053 C   0  0  0  0  0  0  0  0  0  0  0  0
  -34.0936  -27.8587   31.9915 C   0  0  0  0  0  0  0  0  0  0  0  0
  -32.5115  -26.3789   30.2441 C   0  0  0  0  0  0  0  0  0  0  0  0
  -32.1586  -25.3613   25.2958 C   0  0  0  0  0  0  0  0  0  0  0  0
  -22.1958   -8.9155   20.1938 C   0  0  0  0  0  0  0  0  0  0  0  0
  -23.0889   -8.7571   22.4331 C   0  0  0  0  0  0  0  0  0  0  0  0
  -31.6817  -24.1012   24.9374 C   0  0  0  0  0  0  0  0  0  0  0  0
  -19.8726   -8.0418   23.1844 C   0  0  0  0  0  0  0  0  0  0  0  0
  -19.1848   -7.9589   24.3950 C   0  0  0  0  0  0  0  0  0  0  0  0
  -29.5038  -25.0509   24.5203 C   0  0  0  0  0  0  0  0  0  0  0  0
  -20.3895   -5.9371   24.9411 C   0  0  0  0  0  0  0  0  0  0  0  0
  -30.1903  -19.6713   22.6393 C   0  0  0  0  0  0  0  0  0  0  0  0
  -23.8020  -10.5439   20.9717 C   0  0  0  0  0  0  0  0  0  0  0  0
  -24.2362  -13.0577   20.9773 C   0  0  0  0  0  0  0  0  0  0  0  0
  -32.9727  -28.4620   31.3997 C   0  0  0  0  0  0  0  0  0  0  0  0
  -31.3075  -26.4756   25.2797 C   0  0  0  0  0  0  0  0  0  0  0  0
  -32.1653  -27.7118   30.5235 C   0  0  0  0  0  0  0  0  0  0  0  0
  -29.9730  -26.3244   24.8766 C   0  0  0  0  0  0  0  0  0  0  0  0
  -22.2558   -8.2671   21.4273 C   0  0  0  0  0  0  0  0  0  0  0  0
  -30.3533  -23.9453   24.5523 C   0  0  0  0  0  0  0  0  0  0  0  0
  -20.8188   -7.0722   22.8520 C   0  0  0  0  0  0  0  0  0  0  0  0
  -19.4433   -6.9066   25.2734 C   0  0  0  0  0  0  0  0  0  0  0  0
  -21.0772   -6.0199   23.7304 C   0  0  0  0  0  0  0  0  0  0  0  0
  -24.6013  -11.7195   20.7368 C   0  0  0  0  0  0  0  0  0  0  0  0
  -30.1166  -20.3766   23.8072 C   0  0  0  0  0  0  0  0  0  0  0  0
  -25.3340  -13.7877   20.5920 C   0  0  0  0  0  0  0  0  0  0  0  0
  -28.7585  -18.6363   23.9732 C   0  0  0  0  0  0  0  0  0  0  0  0
  -23.0140  -13.5930   21.5021 C   0  0  0  0  0  0  0  0  0  0  0  0
  -30.2487  -28.5214   27.4700 C   0  0  0  0  0  0  0  0  0  0  0  0
  -28.9648  -30.0139   24.8918 C   0  0  0  0  0  0  0  0  0  0  0  0
  -27.8432  -29.7915   21.6764 C   0  0  0  0  0  0  0  0  0  0  0  0
  -30.8644  -14.5526   20.5924 C   0  0  0  0  0  0  0  0  0  0  0  0
  -32.6288  -29.8814   31.7761 C   0  0  0  0  0  0  0  0  0  0  0  0
  -31.8442  -27.8327   25.6435 C   0  0  0  0  0  0  0  0  0  0  0  0
  -29.0237  -27.4925   24.8228 C   0  0  0  0  0  0  0  0  0  0  0  0
  -31.6373  -30.5415   30.8215 C   0  0  0  0  0  0  0  0  0  0  0  0
  -29.4829  -12.4253   18.0510 C   0  0  0  0  0  0  0  0  0  0  0  0
  -30.4710  -29.6026   30.5300 C   0  0  0  0  0  0  0  0  0  0  0  0
  -26.2784  -17.8405   24.2155 C   0  0  0  0  0  0  0  0  0  0  0  0
  -26.7780  -18.1102   25.6004 C   0  0  0  0  0  0  0  0  0  0  0  0
  -28.0697  -12.1378   18.5585 C   0  0  0  0  0  0  0  0  0  0  0  0
  -30.4807  -12.5267   19.2007 C   0  0  0  0  0  0  0  0  0  0  0  0
  -28.6874  -13.2373   20.7559 C   0  0  0  0  0  0  0  0  0  0  0  0
  -31.0821  -16.1006   22.5211 C   0  0  0  0  0  0  0  0  0  0  0  0
  -30.9546  -28.3176   29.8471 C   0  0  1  0  0  0  0  0  0  0  0  0
  -27.7479  -17.6412   24.5330 C   0  0  0  0  0  0  0  0  0  0  0  0
  -30.7563  -28.8069   26.0849 C   0  0  1  0  0  0  0  0  0  0  0  0
  -27.6455  -13.1620   19.6265 C   0  0  2  0  0  0  0  0  0  0  0  0
  -30.3457  -16.8156   21.4538 C   0  0  2  0  0  0  0  0  0  0  0  0
  -26.8163  -31.1705   19.8485 C   0  0  0  0  0  0  0  0  0  0  0  0
  -28.4893  -18.1775   20.4902 C   0  0  0  0  0  0  0  0  0  0  0  0
  -26.2750  -29.9108   26.3285 C   0  0  0  0  0  0  0  0  0  0  0  0
  -25.1655  -30.4058   24.1394 C   0  0  0  0  0  0  0  0  0  0  0  0
  -26.7410  -32.0611   25.1397 C   0  0  0  0  0  0  0  0  0  0  0  0
  -30.1368  -29.3131   19.8683 C   0  0  0  0  0  0  0  0  0  0  0  0
  -30.8096  -21.6306   24.2528 C   0  0  0  0  0  0  0  0  0  1  0  0
  -27.6551  -29.9234   24.1465 C   0  0  1  0  0  0  0  0  0  0  0  0
  -28.1110  -30.6514   20.4544 C   0  0  2  0  0  0  0  0  0  0  0  0
  -29.1115  -17.5882   21.7574 C   0  0  2  0  0  0  0  0  0  0  0  0
  -26.4763  -30.5527   24.9413 C   0  0  0  0  0  0  0  0  0  0  0  0
  -25.8346  -11.6033   20.2373 N   0  0  0  0  0  0  0  0  0  0  0  0
  -29.3404  -18.5996   22.7700 N   0  0  0  0  0  0  0  0  0  0  0  0
  -26.2540  -12.8778   20.1606 N   0  0  0  0  0  0  0  0  0  0  0  0
  -29.2233  -19.7137   24.6139 N   0  3  0  0  0  0  0  0  0  0  0  0
  -29.5943  -28.7980   25.1939 N   0  0  0  0  0  0  0  0  0  0  0  0
  -30.0271  -13.4888   20.2049 N   0  0  0  0  0  0  0  0  0  0  0  0
  -30.2967  -15.3885   21.5527 N   0  0  0  0  0  0  0  0  0  0  0  0
  -25.5925  -15.1126   20.5834 N   0  0  0  0  0  0  0  0  0  0  0  0
  -21.9884  -12.7024   21.8474 N   0  0  0  0  0  0  0  0  0  0  0  0
  -31.2256  -28.5607   28.4465 N   0  0  0  0  0  0  0  0  0  0  0  0
  -27.8863  -30.5300   22.8400 N   0  0  0  0  0  0  0  0  0  0  0  0
  -28.8338  -29.8645   19.4155 N   0  3  0  0  0  0  0  0  0  0  0  0
  -22.8306  -14.8257   21.6448 O   0  0  0  0  0  0  0  0  0  0  0  0
  -29.0585  -28.2845   27.6403 O   0  0  0  0  0  0  0  0  0  0  0  0
  -29.4164  -31.1228   25.1886 O   0  0  0  0  0  0  0  0  0  0  0  0
  -27.6147  -28.5860   21.6054 O   0  0  0  0  0  0  0  0  0  0  0  0
  -31.9923  -14.7322   20.1250 O   0  0  0  0  0  0  0  0  0  0  0  0
  -21.5013   -7.1563   21.6501 O   0  0  0  0  0  0  0  0  0  0  0  0
  -29.8850  -22.7164   24.2026 O   0  0  0  0  0  0  0  0  0  1  0  0
  -18.7838   -6.8281   26.4366 F   0  0  0  0  0  0  0  0  0  0  0  0
  -21.9860   -5.0862   23.4171 F   0  0  0  0  0  0  0  0  0  0  0  0
  1  2  1  0  0  0  0
  1  5  2  0  0  0  0
  2  6  2  0  0  0  0
  3  8  2  0  0  0  0
  3 16  1  0  0  0  0
  4  9  1  0  0  0  0
  4 16  2  0  0  0  0
  5 18  1  0  0  0  0
  6 20  1  0  0  0  0
  7 10  2  0  0  0  0
  7 19  1  0  0  0  0
  8 22  1  0  0  0  0
  9 22  2  0  0  0  0
 10 23  1  0  0  0  0
 11 12  2  0  0  0  0
 11 24  1  0  0  0  0
 12 25  1  0  0  0  0
 13 21  1  0  0  0  0
 13 23  2  0  0  0  0
 14 25  2  0  0  0  0
 14 26  1  0  0  0  0
 15 28  2  0  0  0  0
 15 65  1  0  0  0  0
 16 27  1  0  0  0  0
 17 27  1  0  0  0  0
 17 29  2  0  0  0  0
 17 31  1  0  0  0  0
 18 20  2  0  0  0  0
 18 36  1  0  0  0  0
 19 21  2  0  0  0  0
 19 37  1  0  0  0  0
 20 48  1  0  0  0  0
 21 38  1  0  0  0  0
 22 81  1  0  0  0  0
 23 82  1  0  0  0  0
 24 26  2  0  0  0  0
 24 81  1  0  0  0  0
 25 83  1  0  0  0  0
 26 84  1  0  0  0  0
 27 64  2  0  0  0  0
 28 59  1  0  0  0  0
 28 67  1  0  0  0  0
 29 66  1  0  0  0  0
 29 71  1  0  0  0  0
 30 49  1  0  0  0  0
 30 65  1  0  0  0  0
 30 67  2  0  0  0  0
 31 72  1  0  0  0  0
 31 76  2  0  0  0  0
 32 50  1  0  0  0  0
 32 73  1  0  0  0  0
 32 77  2  0  0  0  0
 33 60  1  0  0  0  0
 33 68  1  0  0  0  0
 33 78  2  0  0  0  0
 34 61  1  0  0  0  0
 34 74  1  0  0  0  0
 34 79  2  0  0  0  0
 35 69  1  0  0  0  0
 35 70  1  0  0  0  0
 35 80  2  0  0  0  0
 36 39  1  0  0  0  0
 37 50  1  0  0  0  0
 38 68  1  0  0  0  0
 39 41  1  0  0  0  0
 40 44  1  0  0  0  0
 40 45  1  0  0  0  0
 41 48  1  0  0  0  0
 42 43  1  0  0  0  0
 42 49  1  0  0  0  0
 43 49  1  0  0  0  0
 44 51  1  0  0  0  0
 45 69  1  0  0  0  0
 46 51  1  0  0  0  0
 46 69  1  0  0  0  0
 47 52  1  0  0  0  0
 47 70  1  0  0  0  0
 48 73  1  0  0  0  0
 50 68  1  0  0  0  0
 51 66  1  0  0  0  0
 52 62  1  0  0  0  0
 52 70  1  0  0  0  0
 53 61  1  0  0  0  0
 54 62  1  0  0  0  0
 55 63  1  0  0  0  0
 56 63  1  0  0  0  0
 57 63  1  0  0  0  0
 58 75  1  0  0  0  0
 59 82  1  0  0  0  0
 60 63  1  0  0  0  0
 60 74  1  0  0  0  0
 61 75  1  0  0  0  0
 62 65  1  0  0  0  0
 64 66  1  0  0  0  0
M  CHG  2  67   1  75   1
M  ISO  4  35 100  59 101  70 100  82 101
M  END
> <Batch ID>
0184

> <Smiles>
CNC(C)C(=O)NC(C(=O)N1Cc2cc([101O:1][101CH2:1]c3cn(C(C)C4C[100N:0]4[100C:0](=O)N4CCCC(n5nc(-c6ccc(Oc7ccc(F)cc7F)cc6)c(C(N)=O)c5N)C4)c(C4CC4)n3)ccc2CC1C(=O)NC1CCCc2ccccc21)C(C)(C)C

> <Shape>
0.241

> <Color>
0.201

> <Negative vol penalty>
0.000

$$$$

  -OEChem-04052323103D

 81 90  0     1  0  0  0  0  0999 V2000
  -18.8405  -31.9886   25.7805 C   0  0  0  0  0  0  0  0  0  0  0  0
  -20.0564  -31.3551   26.0165 C   0  0  0  0  0  0  0  0  0  0  0  0
  -23.1012   -9.9103   21.5218 C   0  0  0  0  0  0  0  0  0  0  0  0
  -23.7829  -10.9682   23.5841 C   0  0  0  0  0  0  0  0  0  0  0  0
  -17.9492  -31.4589   24.8484 C   0  0  0  0  0  0  0  0  0  0  0  0
  -20.3812  -30.1908   25.3213 C   0  0  0  0  0  0  0  0  0  0  0  0
  -26.0139  -26.7016   22.5984 C   0  0  0  0  0  0  0  0  0  0  0  0
  -27.6626  -20.5445   23.1248 C   0  0  0  0  0  0  0  0  0  0  0  0
  -22.3839   -8.9589   22.2470 C   0  0  0  0  0  0  0  0  0  0  0  0
  -23.0656  -10.0168   24.3093 C   0  0  0  0  0  0  0  0  0  0  0  0
  -26.6154  -25.4440   22.6207 C   0  0  0  0  0  0  0  0  0  0  0  0
  -23.0446   -6.1432   23.9962 C   0  0  0  0  0  0  0  0  0  0  0  0
  -23.1735   -4.8073   23.6162 C   0  0  0  0  0  0  0  0  0  0  0  0
  -28.1674  -19.2575   22.9759 C   0  0  0  0  0  0  0  0  0  0  0  0
  -25.0319  -24.6641   20.9765 C   0  0  0  0  0  0  0  0  0  0  0  0
  -20.7983   -4.7000   23.1872 C   0  0  0  0  0  0  0  0  0  0  0  0
  -29.5110  -21.3588   21.8692 C   0  0  0  0  0  0  0  0  0  0  0  0
  -23.8007  -10.9150   22.1904 C   0  0  0  0  0  0  0  0  0  0  0  0
  -24.0712  -13.1350   20.9631 C   0  0  0  0  0  0  0  0  0  0  0  0
  -18.2673  -30.2928   24.1345 C   0  0  0  0  0  0  0  0  0  0  0  0
  -24.9081  -26.9471   21.7717 C   0  0  0  0  0  0  0  0  0  0  0  0
  -19.4926  -29.6442   24.3798 C   0  0  0  0  0  0  0  0  0  0  0  0
  -24.4197  -25.9263   20.9437 C   0  0  0  0  0  0  0  0  0  0  0  0
  -28.3412  -21.6207   22.5639 C   0  0  0  0  0  0  0  0  0  0  0  0
  -22.3661   -9.0121   23.6407 C   0  0  0  0  0  0  0  0  0  0  0  0
  -26.1227  -24.4242   21.8118 C   0  0  0  0  0  0  0  0  0  0  0  0
  -21.7924   -6.7574   23.9718 C   0  0  0  0  0  0  0  0  0  0  0  0
  -22.0504   -4.0857   23.2117 C   0  0  0  0  0  0  0  0  0  0  0  0
  -20.6693   -6.0359   23.5673 C   0  0  0  0  0  0  0  0  0  0  0  0
  -24.5423  -11.8978   21.4418 C   0  0  0  0  0  0  0  0  0  0  0  0
  -29.3450  -19.1015   22.2626 C   0  0  0  0  0  0  0  0  0  0  0  0
  -25.1522  -13.6894   20.3224 C   0  0  0  0  0  0  0  0  0  0  0  0
  -22.7726  -13.7300   21.0867 C   0  0  0  0  0  0  0  0  0  0  0  0
  -21.8804  -27.7801   22.2639 C   0  0  0  0  0  0  0  0  0  0  0  0
  -21.8120  -27.9637   19.0260 C   0  0  0  0  0  0  0  0  0  0  0  0
  -23.1403  -26.9813   16.0398 C   0  0  0  0  0  0  0  0  0  0  0  0
  -30.6721  -14.8678   20.3451 C   0  0  0  0  0  0  0  0  0  0  0  0
  -17.2515  -29.7314   23.1714 C   0  0  0  0  0  0  0  0  0  0  0  0
  -24.2872  -28.3167   21.7394 C   0  0  0  0  0  0  0  0  0  0  0  0
  -23.2477  -26.1444   20.0232 C   0  0  0  0  0  0  0  0  0  0  0  0
  -17.8322  -28.7025   22.2048 C   0  0  0  0  0  0  0  0  0  0  0  0
  -29.5920  -11.7108   19.0038 C   0  0  0  0  0  0  0  0  0  0  0  0
  -18.7024  -27.6981   22.9536 C   0  0  0  0  0  0  0  0  0  0  0  0
  -28.1664  -11.5490   19.5210 C   0  0  0  0  0  0  0  0  0  0  0  0
  -30.4628  -12.4302   20.0251 C   0  0  0  0  0  0  0  0  0  0  0  0
  -29.1301  -16.4599   21.7407 C   0  0  0  0  0  0  0  0  0  0  0  0
  -30.6862  -17.4021   20.6525 C   0  0  0  0  0  0  0  0  0  0  0  0
  -28.4966  -13.6556   20.9120 C   0  0  0  0  0  0  0  0  0  0  0  0
  -19.8916  -28.3931   23.6277 C   0  0  1  0  0  0  0  0  0  0  0  0
  -30.0262  -17.6907   22.0205 C   0  0  0  0  0  0  0  0  0  0  0  0
  -22.8456  -28.3076   21.2403 C   0  0  1  0  0  0  0  0  0  0  0  0
  -27.5817  -12.9118   19.9189 C   0  0  2  0  0  0  0  0  0  0  0  0
  -22.8484  -27.2691   13.5641 C   0  0  0  0  0  0  0  0  0  0  0  0
  -19.3995  -26.0969   19.0960 C   0  0  0  0  0  0  0  0  0  0  0  0
  -19.7463  -25.6707   16.6534 C   0  0  0  0  0  0  0  0  0  0  0  0
  -19.2189  -27.9739   17.4532 C   0  0  0  0  0  0  0  0  0  0  0  0
  -25.8448  -28.1449   15.7390 C   0  0  0  0  0  0  0  0  0  0  0  0
  -27.8223  -23.0214   22.7058 C   0  0  0  0  0  0  0  0  0  1  0  0
  -21.5066  -26.9979   17.9067 C   0  0  1  0  0  0  0  0  0  0  0  0
  -23.5552  -27.7730   14.8128 C   0  0  2  0  0  0  0  0  0  0  0  0
  -19.9887  -26.6799   17.7960 C   0  0  0  0  0  0  0  0  0  0  0  0
  -30.0323  -20.1226   21.7035 N   0  0  0  0  0  0  0  0  0  0  0  0
  -25.8228  -11.6786   21.1315 N   0  0  0  0  0  0  0  0  0  0  0  0
  -26.1655  -12.7856   20.4509 N   0  0  0  0  0  0  0  0  0  0  0  0
  -22.6709  -27.4989   20.0321 N   0  0  0  0  0  0  0  0  0  0  0  0
  -29.8857  -13.7139   20.4359 N   0  0  0  0  0  0  0  0  0  0  0  0
  -30.1297  -16.0594   20.7652 N   0  0  0  0  0  0  0  0  0  0  0  0
  -25.3253  -14.8569   19.6671 N   0  0  0  0  0  0  0  0  0  0  0  0
  -21.7773  -13.0245   21.7767 N   0  0  0  0  0  0  0  0  0  0  0  0
  -20.9195  -28.6933   22.6543 N   0  0  0  0  0  0  0  0  0  0  0  0
  -22.0855  -27.5765   16.6990 N   0  0  0  0  0  0  0  0  0  0  0  0
  -25.0257  -27.6621   14.5976 N   0  3  0  0  0  0  0  0  0  0  0  0
  -22.4980  -14.8466   20.5855 O   0  0  0  0  0  0  0  0  0  0  0  0
  -21.9977  -26.6294   22.6685 O   0  0  0  0  0  0  0  0  0  0  0  0
  -21.3129  -29.0915   19.0047 O   0  0  0  0  0  0  0  0  0  0  0  0
  -23.6939  -25.9373   16.3775 O   0  0  0  0  0  0  0  0  0  0  0  0
  -31.8376  -14.8329   19.9286 O   0  0  0  0  0  0  0  0  0  0  0  0
  -21.6661   -8.0840   24.3486 O   0  0  0  0  0  0  0  0  0  0  0  0
  -26.7076  -23.1957   21.8321 O   0  0  0  0  0  0  0  0  0  1  0  0
  -22.1747   -2.8033   22.8453 F   0  0  0  0  0  0  0  0  0  0  0  0
  -19.4640   -6.6209   23.5407 F   0  0  0  0  0  0  0  0  0  0  0  0
  1  2  1  0  0  0  0
  1  5  2  0  0  0  0
  2  6  2  0  0  0  0
  3  9  2  0  0  0  0
  3 18  1  0  0  0  0
  4 10  1  0  0  0  0
  4 18  2  0  0  0  0
  5 20  1  0  0  0  0
  6 22  1  0  0  0  0
  7 11  2  0  0  0  0
  7 21  1  0  0  0  0
  8 14  2  0  0  0  0
  8 24  1  0  0  0  0
  9 25  1  0  0  0  0
 10 25  2  0  0  0  0
 11 26  1  0  0  0  0
 12 13  2  0  0  0  0
 12 27  1  0  0  0  0
 13 28  1  0  0  0  0
 14 31  1  0  0  0  0
 15 23  1  0  0  0  0
 15 26  2  0  0  0  0
 16 28  2  0  0  0  0
 16 29  1  0  0  0  0
 17 24  2  0  0  0  0
 17 62  1  0  0  0  0
 18 30  1  0  0  0  0
 19 30  1  0  0  0  0
 19 32  2  0  0  0  0
 19 33  1  0  0  0  0
 20 22  2  0  0  0  0
 20 38  1  0  0  0  0
 21 23  2  0  0  0  0
 21 39  1  0  0  0  0
 22 49  1  0  0  0  0
 23 40  1  0  0  0  0
 24 58  1  0  0  0  0
 25 78  1  0  0  0  0
 26 79  1  0  0  0  0
 27 29  2  0  0  0  0
 27 78  1  0  0  0  0
 28 80  1  0  0  0  0
 29 81  1  0  0  0  0
 30 63  2  0  0  0  0
 31 50  1  0  0  0  0
 31 62  2  0  0  0  0
 32 64  1  0  0  0  0
 32 68  1  0  0  0  0
 33 69  1  0  0  0  0
 33 73  2  0  0  0  0
 34 51  1  0  0  0  0
 34 70  1  0  0  0  0
 34 74  2  0  0  0  0
 35 59  1  0  0  0  0
 35 65  1  0  0  0  0
 35 75  2  0  0  0  0
 36 60  1  0  0  0  0
 36 71  1  0  0  0  0
 36 76  2  0  0  0  0
 37 66  1  0  0  0  0
 37 67  1  0  0  0  0
 37 77  2  0  0  0  0
 38 41  1  0  0  0  0
 39 51  1  0  0  0  0
 40 65  1  0  0  0  0
 41 43  1  0  0  0  0
 42 44  1  0  0  0  0
 42 45  1  0  0  0  0
 43 49  1  0  0  0  0
 44 52  1  0  0  0  0
 45 66  1  0  0  0  0
 46 50  1  0  0  0  0
 46 67  1  0  0  0  0
 47 50  1  0  0  0  0
 47 67  1  0  0  0  0
 48 52  1  0  0  0  0
 48 66  1  0  0  0  0
 49 70  1  0  0  0  0
 51 65  1  0  0  0  0
 52 64  1  0  0  0  0
 53 60  1  0  0  0  0
 54 61  1  0  0  0  0
 55 61  1  0  0  0  0
 56 61  1  0  0  0  0
 57 72  1  0  0  0  0
 58 79  1  0  0  0  0
 59 61  1  0  0  0  0
 59 71  1  0  0  0  0
 60 72  1  0  0  0  0
 63 64  1  0  0  0  0
M  CHG  1  72   1
M  ISO  4  37 100  58 101  67 100  79 101
M  END
> <Batch ID>
0184

> <Smiles>
CNC(C)C(=O)NC(C(=O)N1Cc2cc([101O:1][101CH2:1]c3ccc(C4C[100N:0]([100C:0](=O)N5CCCC(n6nc(-c7ccc(Oc8ccc(F)cc8F)cc7)c(C(N)=O)c6N)C5)C4)nc3)ccc2CC1C(=O)NC1CCCc2ccccc21)C(C)(C)C

> <Shape>
0.248

> <Color>
0.176

> <Negative vol penalty>
0.000

$$$$

  -OEChem-04052323103D

 86 96  0     1  0  0  0  0  0999 V2000
  -23.3869  -28.4482   19.7342 C   0  0  0  0  0  0  0  0  0  0  0  0
  -23.6762  -27.0905   19.6423 C   0  0  0  0  0  0  0  0  0  0  0  0
  -28.0556  -23.1698   20.7762 C   0  0  0  0  0  0  0  0  0  0  0  0
  -28.5545  -23.5955   18.4510 C   0  0  0  0  0  0  0  0  0  0  0  0
  -22.5146  -28.9088   20.7195 C   0  0  0  0  0  0  0  0  0  0  0  0
  -23.0942  -26.1927   20.5366 C   0  0  0  0  0  0  0  0  0  0  0  0
  -21.3571  -20.4374   19.3683 C   0  0  0  0  0  0  0  0  0  0  0  0
  -28.0188  -24.5427   21.0198 C   0  0  0  0  0  0  0  0  0  0  0  0
  -28.5176  -24.9685   18.6945 C   0  0  0  0  0  0  0  0  0  0  0  0
  -21.9693  -19.2070   19.6027 C   0  0  0  0  0  0  0  0  0  0  0  0
  -28.9107  -28.5808   18.7777 C   0  0  0  0  0  0  0  0  0  0  0  0
  -29.9270  -29.3638   18.2303 C   0  0  0  0  0  0  0  0  0  0  0  0
  -20.7124  -18.9782   21.6490 C   0  0  0  0  0  0  0  0  0  0  0  0
  -31.5692  -28.1030   19.4756 C   0  0  0  0  0  0  0  0  0  0  0  0
  -28.3235  -22.6962   19.4918 C   0  0  0  0  0  0  0  0  0  0  0  0
  -27.2875  -20.4528   18.8579 C   0  0  0  0  0  0  0  0  0  0  0  0
  -21.9141  -28.0150   21.6202 C   0  0  0  0  0  0  0  0  0  0  0  0
  -20.4245  -20.9535   20.2796 C   0  0  0  0  0  0  0  0  0  0  0  0
  -22.2141  -26.6420   21.5357 C   0  0  0  0  0  0  0  0  0  0  0  0
  -20.0879  -20.2143   21.4226 C   0  0  0  0  0  0  0  0  0  0  0  0
  -24.6708  -13.0979   21.1004 C   0  0  0  0  0  0  0  0  0  0  0  0
  -28.2498  -25.4421   19.9789 C   0  0  0  0  0  0  0  0  0  0  0  0
  -21.6492  -18.4785   20.7446 C   0  0  0  0  0  0  0  0  0  0  0  0
  -29.2237  -27.5589   19.6741 C   0  0  0  0  0  0  0  0  0  0  0  0
  -31.2562  -29.1249   18.5792 C   0  0  0  0  0  0  0  0  0  0  0  0
  -30.5529  -27.3200   20.0230 C   0  0  0  0  0  0  0  0  0  0  0  0
  -28.3622  -21.2781   19.2398 C   0  0  0  0  0  0  0  0  0  0  0  0
  -23.3248  -13.3170   20.8654 C   0  0  0  0  0  0  0  0  0  0  0  0
  -25.5050  -14.1751   20.9670 C   0  0  0  0  0  0  0  0  0  0  0  0
  -27.8395  -19.2001   18.7461 C   0  0  0  0  0  0  0  0  0  0  0  0
  -23.7084  -15.4814   20.4019 C   0  0  0  0  0  0  0  0  0  0  0  0
  -25.9133  -20.7887   18.6251 C   0  0  0  0  0  0  0  0  0  0  0  0
  -20.2742  -23.5496   22.1075 C   0  0  0  0  0  0  0  0  0  0  0  0
  -17.2835  -22.4604   22.7333 C   0  0  0  0  0  0  0  0  0  0  0  0
  -15.1314  -19.8149   22.8617 C   0  0  0  0  0  0  0  0  0  0  0  0
  -31.0867  -15.1514   20.4716 C   0  0  0  0  0  0  0  0  0  0  0  0
  -21.0145  -28.5656   22.6983 C   0  0  0  0  0  0  0  0  0  0  0  0
  -19.7531  -22.2698   19.9988 C   0  0  0  0  0  0  0  0  0  0  0  0
  -24.9428  -11.6952   21.5110 C   0  0  0  0  0  0  0  0  0  0  0  0
  -19.0780  -20.7147   22.4217 C   0  0  0  0  0  0  0  0  0  0  0  0
  -22.5350  -12.0625   21.1048 C   0  0  0  0  0  0  0  0  0  0  0  0
  -20.1480  -27.5034   23.3698 C   0  0  0  0  0  0  0  0  0  0  0  0
  -23.6482  -11.0037   21.0490 C   0  0  0  0  0  0  0  0  0  0  0  0
  -32.6626  -17.6987   18.7454 C   0  0  0  0  0  0  0  0  0  0  0  0
  -20.9852  -26.2794   23.7275 C   0  0  0  0  0  0  0  0  0  0  0  0
  -31.6045  -18.8001   18.6806 C   0  0  0  0  0  0  0  0  0  0  0  0
  -27.7617  -13.6077   19.9649 C   0  0  0  0  0  0  0  0  0  0  0  0
  -27.5937  -15.3426   21.7986 C   0  0  0  0  0  0  0  0  0  0  0  0
  -32.6669  -17.0248   20.1130 C   0  0  0  0  0  0  0  0  0  0  0  0
  -29.2621  -13.5069   20.2293 C   0  0  0  0  0  0  0  0  0  0  0  0
  -29.0965  -15.2015   22.0229 C   0  0  0  0  0  0  0  0  0  0  0  0
  -30.2751  -17.5521   20.4524 C   0  0  0  0  0  0  0  0  0  0  0  0
  -21.5833  -25.6339   22.4717 C   0  0  1  0  0  0  0  0  0  0  0  0
  -26.9948  -14.0466   21.2242 C   0  0  0  0  0  0  0  0  0  0  0  0
  -19.1997  -22.9380   21.2536 C   0  0  1  0  0  0  0  0  0  0  0  0
  -30.2208  -18.2608   19.0843 C   0  0  1  0  0  0  0  0  0  0  0  0
  -12.7624  -19.2293   23.4467 C   0  0  0  0  0  0  0  0  0  0  0  0
  -17.9742  -22.6395   25.6999 C   0  0  0  0  0  0  0  0  0  0  0  0
  -15.9937  -21.1843   26.1776 C   0  0  0  0  0  0  0  0  0  0  0  0
  -15.6706  -23.4186   25.1164 C   0  0  0  0  0  0  0  0  0  0  0  0
  -14.5612  -18.8799   20.1123 C   0  0  0  0  0  0  0  0  0  0  0  0
  -23.1900  -16.8235   20.0081 C   0  0  0  0  0  0  0  0  0  1  0  0
  -16.6754  -21.5361   23.7604 C   0  0  1  0  0  0  0  0  0  0  0  0
  -13.7177  -19.6400   22.3370 C   0  0  2  0  0  0  0  0  0  0  0  0
  -16.5990  -22.1858   25.1709 C   0  0  0  0  0  0  0  0  0  0  0  0
  -29.5100  -20.6061   19.3625 N   0  0  0  0  0  0  0  0  0  0  0  0
  -22.7929  -14.4963   20.5161 N   0  0  0  0  0  0  0  0  0  0  0  0
  -25.0461  -15.3939   20.6082 N   0  0  0  0  0  0  0  0  0  0  0  0
  -29.1597  -19.3454   19.0560 N   0  0  0  0  0  0  0  0  0  0  0  0
  -18.4536  -22.0100   22.1059 N   0  0  0  0  0  0  0  0  0  0  0  0
  -31.3345  -16.5325   20.4622 N   0  0  0  0  0  0  0  0  0  0  0  0
  -29.7858  -14.7432   20.8090 N   0  0  0  0  0  0  0  0  0  0  0  0
  -27.3194  -17.9994   18.4139 N   0  0  0  0  0  0  0  0  0  0  0  0
  -25.5152  -22.1230   18.7848 N   0  0  0  0  0  0  0  0  0  0  0  0
  -20.5802  -24.8559   21.7768 N   0  0  0  0  0  0  0  0  0  0  0  0
  -15.3842  -21.1214   23.2228 N   0  0  0  0  0  0  0  0  0  0  0  0
  -13.6845  -18.5932   21.2768 N   0  3  0  0  0  0  0  0  0  0  0  0
  -25.0600  -19.9280   18.3014 O   0  0  0  0  0  0  0  0  0  0  0  0
  -20.7866  -22.8860   23.0012 O   0  0  0  0  0  0  0  0  0  0  0  0
  -16.7363  -23.5392   22.4914 O   0  0  0  0  0  0  0  0  0  0  0  0
  -15.9302  -18.8847   22.9466 O   0  0  0  0  0  0  0  0  0  0  0  0
  -31.9698  -14.3315   20.1909 O   0  0  0  0  0  0  0  0  0  0  0  0
  -28.2136  -26.7818   20.2161 O   0  0  0  0  0  0  0  0  0  0  0  0
  -22.2498  -17.2692   20.9777 O   0  0  0  0  0  0  0  0  0  1  0  0
  -32.2321  -29.8759   18.0522 F   0  0  0  0  0  0  0  0  0  0  0  0
  -30.8598  -26.3389   20.8827 F   0  0  0  0  0  0  0  0  0  0  0  0
  1  2  1  0  0  0  0
  1  5  2  0  0  0  0
  2  6  2  0  0  0  0
  3  8  2  0  0  0  0
  3 15  1  0  0  0  0
  4  9  1  0  0  0  0
  4 15  2  0  0  0  0
  5 17  1  0  0  0  0
  6 19  1  0  0  0  0
  7 10  2  0  0  0  0
  7 18  1  0  0  0  0
  8 22  1  0  0  0  0
  9 22  2  0  0  0  0
 10 23  1  0  0  0  0
 11 12  2  0  0  0  0
 11 24  1  0  0  0  0
 12 25  1  0  0  0  0
 13 20  1  0  0  0  0
 13 23  2  0  0  0  0
 14 25  2  0  0  0  0
 14 26  1  0  0  0  0
 15 27  1  0  0  0  0
 16 27  1  0  0  0  0
 16 30  2  0  0  0  0
 16 32  1  0  0  0  0
 17 19  2  0  0  0  0
 17 37  1  0  0  0  0
 18 20  2  0  0  0  0
 18 38  1  0  0  0  0
 19 53  1  0  0  0  0
 20 40  1  0  0  0  0
 21 28  1  0  0  0  0
 21 29  2  0  0  0  0
 21 39  1  0  0  0  0
 22 83  1  0  0  0  0
 23 84  1  0  0  0  0
 24 26  2  0  0  0  0
 24 83  1  0  0  0  0
 25 85  1  0  0  0  0
 26 86  1  0  0  0  0
 27 66  2  0  0  0  0
 28 41  1  0  0  0  0
 28 67  2  0  0  0  0
 29 54  1  0  0  0  0
 29 68  1  0  0  0  0
 30 69  1  0  0  0  0
 30 73  1  0  0  0  0
 31 62  1  0  0  0  0
 31 67  1  0  0  0  0
 31 68  2  0  0  0  0
 32 74  1  0  0  0  0
 32 78  2  0  0  0  0
 33 55  1  0  0  0  0
 33 75  1  0  0  0  0
 33 79  2  0  0  0  0
 34 63  1  0  0  0  0
 34 70  1  0  0  0  0
 34 80  2  0  0  0  0
 35 64  1  0  0  0  0
 35 76  1  0  0  0  0
 35 81  2  0  0  0  0
 36 71  1  0  0  0  0
 36 72  1  0  0  0  0
 36 82  2  0  0  0  0
 37 42  1  0  0  0  0
 38 55  1  0  0  0  0
 39 43  1  0  0  0  0
 40 70  1  0  0  0  0
 41 43  1  0  0  0  0
 42 45  1  0  0  0  0
 44 46  1  0  0  0  0
 44 49  1  0  0  0  0
 45 53  1  0  0  0  0
 46 56  1  0  0  0  0
 47 50  1  0  0  0  0
 47 54  1  0  0  0  0
 48 51  1  0  0  0  0
 48 54  1  0  0  0  0
 49 71  1  0  0  0  0
 50 72  1  0  0  0  0
 51 72  1  0  0  0  0
 52 56  1  0  0  0  0
 52 71  1  0  0  0  0
 53 75  1  0  0  0  0
 55 70  1  0  0  0  0
 56 69  1  0  0  0  0
 57 64  1  0  0  0  0
 58 65  1  0  0  0  0
 59 65  1  0  0  0  0
 60 65  1  0  0  0  0
 61 77  1  0  0  0  0
 62 84  1  0  0  0  0
 63 65  1  0  0  0  0
 63 76  1  0  0  0  0
 64 77  1  0  0  0  0
 66 69  1  0  0  0  0
M  CHG  1  77   1
M  ISO  4  36 100  62 101  72 100  84 101
M  END
> <Batch ID>
0184

> <Smiles>
CNC(C)C(=O)NC(C(=O)N1Cc2cc([101O:1][101CH2:1]c3nc4c(c(C5CC[100N:0]([100C:0](=O)N6CCCC(n7nc(-c8ccc(Oc9ccc(F)cc9F)cc8)c(C(N)=O)c7N)C6)CC5)n3)CCC4)ccc2CC1C(=O)NC1CCCc2ccccc21)C(C)(C)C

> <Shape>
0.208

> <Color>
0.080

> <Negative vol penalty>
0.000

$$$$

  -OEChem-04052323103D

 85 94  0     1  0  0  0  0  0999 V2000
  -18.7111  -28.2329   26.3154 C   0  0  0  0  0  0  0  0  0  0  0  0
  -20.1003  -28.2825   26.3708 C   0  0  0  0  0  0  0  0  0  0  0  0
  -25.7756  -14.0148   21.5126 C   0  0  0  0  0  0  0  0  0  0  0  0
  -25.8513  -13.1128   19.2726 C   0  0  0  0  0  0  0  0  0  0  0  0
  -18.0736  -27.9021   25.1203 C   0  0  0  0  0  0  0  0  0  0  0  0
  -20.8529  -28.0003   25.2314 C   0  0  0  0  0  0  0  0  0  0  0  0
  -26.9755  -29.8256   21.9912 C   0  0  0  0  0  0  0  0  0  0  0  0
  -24.5244  -13.4294   21.7060 C   0  0  0  0  0  0  0  0  0  0  0  0
  -24.6002  -12.5273   19.4660 C   0  0  0  0  0  0  0  0  0  0  0  0
  -28.1216  -29.2458   21.4490 C   0  0  0  0  0  0  0  0  0  0  0  0
  -23.2927  -10.3616   22.4165 C   0  0  0  0  0  0  0  0  0  0  0  0
  -23.0697   -9.6913   23.6191 C   0  0  0  0  0  0  0  0  0  0  0  0
  -26.9101  -28.7636   19.4194 C   0  0  0  0  0  0  0  0  0  0  0  0
  -21.2485  -11.1975   24.1209 C   0  0  0  0  0  0  0  0  0  0  0  0
  -32.5175  -28.3094   19.1848 C   0  0  0  0  0  0  0  0  0  0  0  0
  -26.4390  -13.8566   20.2958 C   0  0  0  0  0  0  0  0  0  0  0  0
  -28.9888  -13.8905   20.3675 C   0  0  0  0  0  0  0  0  0  0  0  0
  -18.8186  -27.6251   23.9632 C   0  0  0  0  0  0  0  0  0  0  0  0
  -25.7831  -29.8691   21.2545 C   0  0  0  0  0  0  0  0  0  0  0  0
  -20.2248  -27.6641   24.0201 C   0  0  0  0  0  0  0  0  0  0  0  0
  -25.7510  -29.3468   19.9536 C   0  0  0  0  0  0  0  0  0  0  0  0
  -31.5076  -27.5231   19.7008 C   0  0  0  0  0  0  0  0  0  0  0  0
  -23.9367  -12.6856   20.6828 C   0  0  0  0  0  0  0  0  0  0  0  0
  -28.0883  -28.7120   20.1640 C   0  0  0  0  0  0  0  0  0  0  0  0
  -22.4937  -11.4500   22.0660 C   0  0  0  0  0  0  0  0  0  0  0  0
  -22.0475  -10.1092   24.4714 C   0  0  0  0  0  0  0  0  0  0  0  0
  -21.4716  -11.8679   22.9182 C   0  0  0  0  0  0  0  0  0  0  0  0
  -27.7312  -14.4616   20.0952 C   0  0  0  0  0  0  0  0  0  0  0  0
  -31.6302  -26.1678   19.4720 C   0  0  0  0  0  0  0  0  0  0  0  0
  -29.8918  -14.8604   20.0066 C   0  0  0  0  0  0  0  0  0  0  0  0
  -33.5763  -26.4836   18.3408 C   0  0  0  0  0  0  0  0  0  0  0  0
  -29.3118  -12.5986   20.8991 C   0  0  0  0  0  0  0  0  0  0  0  0
  -22.8643  -28.6702   21.6381 C   0  0  0  0  0  0  0  0  0  0  0  0
  -22.2126  -30.4421   19.0003 C   0  0  0  0  0  0  0  0  0  0  0  0
  -23.3734  -31.9778   16.1822 C   0  0  0  0  0  0  0  0  0  0  0  0
  -29.3235  -20.7537   19.7363 C   0  0  0  0  0  0  0  0  0  0  0  0
  -18.0862  -27.2260   22.7066 C   0  0  0  0  0  0  0  0  0  0  0  0
  -24.5627  -30.5220   21.8435 C   0  0  0  0  0  0  0  0  0  0  0  0
  -24.5015  -29.3867   19.1136 C   0  0  0  0  0  0  0  0  0  0  0  0
  -18.9468  -27.3068   21.4483 C   0  0  0  0  0  0  0  0  0  0  0  0
  -30.4632  -18.5449   17.0414 C   0  0  0  0  0  0  0  0  0  0  0  0
  -20.3071  -26.6601   21.6896 C   0  0  0  0  0  0  0  0  0  0  0  0
  -29.9452  -17.1963   17.5297 C   0  0  0  0  0  0  0  0  0  0  0  0
  -28.1982  -23.8384   19.0307 C   0  0  0  0  0  0  0  0  0  0  0  0
  -29.5339  -19.6977   17.4234 C   0  0  0  0  0  0  0  0  0  0  0  0
  -28.3903  -22.6051   18.1428 C   0  0  0  0  0  0  0  0  0  0  0  0
  -28.6989  -18.3941   19.3616 C   0  0  0  0  0  0  0  0  0  0  0  0
  -21.0753  -27.3886   22.7990 C   0  0  1  0  0  0  0  0  0  0  0  0
  -23.2629  -30.0507   21.1987 C   0  0  1  0  0  0  0  0  0  0  0  0
  -29.6621  -17.2433   19.0386 C   0  0  1  0  0  0  0  0  0  0  0  0
  -29.3094  -23.3006   19.9453 C   0  0  2  0  0  0  0  0  0  0  0  0
  -34.7249  -25.9063   17.5852 C   0  0  0  0  0  0  0  0  0  0  0  0
  -22.5972  -33.3143   14.2052 C   0  0  0  0  0  0  0  0  0  0  0  0
  -31.6935  -23.2752   20.7586 C   0  0  0  0  0  0  0  0  0  0  0  0
  -21.1061  -27.9026   17.7211 C   0  0  0  0  0  0  0  0  0  0  0  0
  -21.2366  -29.0485   15.4989 C   0  0  0  0  0  0  0  0  0  0  0  0
  -19.7566  -29.9629   17.2866 C   0  0  0  0  0  0  0  0  0  0  0  0
  -25.0454  -34.2970   16.9468 C   0  0  0  0  0  0  0  0  0  0  0  0
  -30.3769  -28.1316   20.4490 C   0  0  0  0  0  0  0  0  0  1  0  0
  -22.2636  -30.2008   17.5109 C   0  0  1  0  0  0  0  0  0  0  0  0
  -23.1395  -33.3703   15.6249 C   0  0  2  0  0  0  0  0  0  0  0  0
  -30.7028  -23.8701   19.7653 C   0  0  2  0  0  0  0  0  0  0  0  0
  -21.1139  -29.2760   17.0207 C   0  0  0  0  0  0  0  0  0  0  0  0
  -33.5706  -27.8212   18.4972 N   0  0  0  0  0  0  0  0  0  0  0  0
  -27.8231  -15.6985   19.5997 N   0  0  0  0  0  0  0  0  0  0  0  0
  -32.6551  -25.6118   18.7933 N   0  0  0  0  0  0  0  0  0  0  0  0
  -29.1492  -15.9127   19.5578 N   0  0  0  0  0  0  0  0  0  0  0  0
  -23.3326  -30.0298   19.7362 N   0  0  0  0  0  0  0  0  0  0  0  0
  -29.1942  -19.6779   18.8511 N   0  0  0  0  0  0  0  0  0  0  0  0
  -29.1530  -22.0268   19.2395 N   0  0  0  0  0  0  0  0  0  0  0  0
  -31.2407  -14.9073   20.0325 N   0  0  0  0  0  0  0  0  0  0  0  0
  -28.2626  -11.7252   21.2161 N   0  0  0  0  0  0  0  0  0  0  0  0
  -30.6610  -25.3420   19.9589 N   0  0  0  0  0  0  0  0  0  0  0  0
  -21.6490  -28.6174   22.2935 N   0  0  0  0  0  0  0  0  0  0  0  0
  -22.2792  -31.5182   16.8843 N   0  0  0  0  0  0  0  0  0  0  0  0
  -24.4135  -34.1434   15.6111 N   0  3  0  0  0  0  0  0  0  0  0  0
  -30.4953  -12.2360   21.1028 O   0  0  0  0  0  0  0  0  0  0  0  0
  -23.6039  -27.7229   21.3987 O   0  0  0  0  0  0  0  0  0  0  0  0
  -21.2189  -30.9831   19.4916 O   0  0  0  0  0  0  0  0  0  0  0  0
  -24.4205  -31.3581   16.0088 O   0  0  0  0  0  0  0  0  0  0  0  0
  -29.5537  -20.5850   20.9411 O   0  0  0  0  0  0  0  0  0  0  0  0
  -22.7159  -12.1140   20.8713 O   0  0  0  0  0  0  0  0  0  0  0  0
  -29.2124  -28.1413   19.6293 O   0  0  0  0  0  0  0  0  0  1  0  0
  -21.8325   -9.4644   25.6256 F   0  0  0  0  0  0  0  0  0  0  0  0
  -20.7000  -12.9121   22.5864 F   0  0  0  0  0  0  0  0  0  0  0  0
  1  2  1  0  0  0  0
  1  5  2  0  0  0  0
  2  6  2  0  0  0  0
  3  8  2  0  0  0  0
  3 16  1  0  0  0  0
  4  9  1  0  0  0  0
  4 16  2  0  0  0  0
  5 18  1  0  0  0  0
  6 20  1  0  0  0  0
  7 10  2  0  0  0  0
  7 19  1  0  0  0  0
  8 23  1  0  0  0  0
  9 23  2  0  0  0  0
 10 24  1  0  0  0  0
 11 12  2  0  0  0  0
 11 25  1  0  0  0  0
 12 26  1  0  0  0  0
 13 21  1  0  0  0  0
 13 24  2  0  0  0  0
 14 26  2  0  0  0  0
 14 27  1  0  0  0  0
 15 22  1  0  0  0  0
 15 64  2  0  0  0  0
 16 28  1  0  0  0  0
 17 28  1  0  0  0  0
 17 30  2  0  0  0  0
 17 32  1  0  0  0  0
 18 20  2  0  0  0  0
 18 37  1  0  0  0  0
 19 21  2  0  0  0  0
 19 38  1  0  0  0  0
 20 48  1  0  0  0  0
 21 39  1  0  0  0  0
 22 29  2  0  0  0  0
 22 59  1  0  0  0  0
 23 82  1  0  0  0  0
 24 83  1  0  0  0  0
 25 27  2  0  0  0  0
 25 82  1  0  0  0  0
 26 84  1  0  0  0  0
 27 85  1  0  0  0  0
 28 65  2  0  0  0  0
 29 66  1  0  0  0  0
 29 73  1  0  0  0  0
 30 67  1  0  0  0  0
 30 71  1  0  0  0  0
 31 52  1  0  0  0  0
 31 64  1  0  0  0  0
 31 66  2  0  0  0  0
 32 72  1  0  0  0  0
 32 77  2  0  0  0  0
 33 49  1  0  0  0  0
 33 74  1  0  0  0  0
 33 78  2  0  0  0  0
 34 60  1  0  0  0  0
 34 68  1  0  0  0  0
 34 79  2  0  0  0  0
 35 61  1  0  0  0  0
 35 75  1  0  0  0  0
 35 80  2  0  0  0  0
 36 69  1  0  0  0  0
 36 70  1  0  0  0  0
 36 81  2  0  0  0  0
 37 40  1  0  0  0  0
 38 49  1  0  0  0  0
 39 68  1  0  0  0  0
 40 42  1  0  0  0  0
 41 43  1  0  0  0  0
 41 45  1  0  0  0  0
 42 48  1  0  0  0  0
 43 50  1  0  0  0  0
 44 46  1  0  0  0  0
 44 51  1  0  0  0  0
 45 69  1  0  0  0  0
 46 70  1  0  0  0  0
 47 50  1  0  0  0  0
 47 69  1  0  0  0  0
 48 74  1  0  0  0  0
 49 68  1  0  0  0  0
 50 67  1  0  0  0  0
 51 62  1  0  0  0  0
 51 70  1  0  0  0  0
 53 61  1  0  0  0  0
 54 62  1  0  0  0  0
 55 63  1  0  0  0  0
 56 63  1  0  0  0  0
 57 63  1  0  0  0  0
 58 76  1  0  0  0  0
 59 83  1  0  0  0  0
 60 63  1  0  0  0  0
 60 75  1  0  0  0  0
 61 76  1  0  0  0  0
 62 73  1  0  0  0  0
 65 67  1  0  0  0  0
M  CHG  1  76   1
M  ISO  4  36 100  59 101  70 100  83 101
M  END
> <Batch ID>
0184

> <Smiles>
CNC(C)C(=O)NC(C(=O)N1Cc2cc([101O:1][101CH2:1]c3cnc(C)nc3NC(C)C3CC[100N:0]3[100C:0](=O)N3CCCC(n4nc(-c5ccc(Oc6ccc(F)cc6F)cc5)c(C(N)=O)c4N)C3)ccc2CC1C(=O)NC1CCCc2ccccc21)C(C)(C)C

> <Shape>
0.280

> <Color>
0.076

> <Negative vol penalty>
0.000

$$$$

  -OEChem-04052323103D

 90 99  0     1  0  0  0  0  0999 V2000
  -19.9024  -24.8631   24.3422 C   0  0  0  0  0  0  0  0  0  0  0  0
  -21.1909  -25.1868   23.9295 C   0  0  0  0  0  0  0  0  0  0  0  0
  -25.7627   -7.7460   24.2206 C   0  0  0  0  0  0  0  0  0  0  0  0
  -25.1761   -6.7340   22.1066 C   0  0  0  0  0  0  0  0  0  0  0  0
  -18.8277  -25.6662   23.9628 C   0  0  0  0  0  0  0  0  0  0  0  0
  -21.4053  -26.3133   23.1362 C   0  0  0  0  0  0  0  0  0  0  0  0
  -25.3695  -29.0561   24.6877 C   0  0  0  0  0  0  0  0  0  0  0  0
  -25.0676   -6.7417   24.8943 C   0  0  0  0  0  0  0  0  0  0  0  0
  -24.4810   -5.7296   22.7803 C   0  0  0  0  0  0  0  0  0  0  0  0
  -26.6388  -28.5870   24.3521 C   0  0  0  0  0  0  0  0  0  0  0  0
  -21.4826   -5.3632   24.2988 C   0  0  0  0  0  0  0  0  0  0  0  0
  -20.2200   -5.0151   23.8190 C   0  0  0  0  0  0  0  0  0  0  0  0
  -26.7326  -30.1634   22.5285 C   0  0  0  0  0  0  0  0  0  0  0  0
  -20.9839   -2.7530   23.4496 C   0  0  0  0  0  0  0  0  0  0  0  0
  -25.8168   -7.7422   22.8268 C   0  0  0  0  0  0  0  0  0  0  0  0
  -27.8916   -8.7714   21.7573 C   0  0  0  0  0  0  0  0  0  0  0  0
  -19.0303  -26.8086   23.1724 C   0  0  0  0  0  0  0  0  0  0  0  0
  -24.7667  -30.0766   23.9383 C   0  0  0  0  0  0  0  0  0  0  0  0
  -20.3322  -27.1317   22.7447 C   0  0  0  0  0  0  0  0  0  0  0  0
  -25.4566  -30.6454   22.8582 C   0  0  0  0  0  0  0  0  0  0  0  0
  -29.6224  -23.8607   21.5453 C   0  0  0  0  0  0  0  0  0  0  0  0
  -24.4268   -5.7335   24.1741 C   0  0  0  0  0  0  0  0  0  0  0  0
  -27.3193  -29.1386   23.2706 C   0  0  0  0  0  0  0  0  0  0  0  0
  -22.4960   -4.4062   24.3539 C   0  0  0  0  0  0  0  0  0  0  0  0
  -19.9706   -3.7100   23.3945 C   0  0  0  0  0  0  0  0  0  0  0  0
  -22.2466   -3.1011   23.9293 C   0  0  0  0  0  0  0  0  0  0  0  0
  -26.5342   -8.7797   22.1303 C   0  0  0  0  0  0  0  0  0  0  0  0
  -29.5026  -23.4081   22.8435 C   0  0  0  0  0  0  0  0  0  0  0  0
  -29.1467  -23.0086   20.5697 C   0  0  0  0  0  0  0  0  0  0  0  0
  -28.0818   -9.9766   21.1267 C   0  0  0  0  0  0  0  0  0  0  0  0
  -28.5345  -21.4775   22.1344 C   0  0  0  0  0  0  0  0  0  0  0  0
  -28.8912   -7.7643   21.9626 C   0  0  0  0  0  0  0  0  0  0  0  0
  -22.1334  -30.3069   22.1730 C   0  0  0  0  0  0  0  0  0  0  0  0
  -22.9780  -33.4351   22.0204 C   0  0  0  0  0  0  0  0  0  0  0  0
  -25.4477  -35.7822   22.2171 C   0  0  0  0  0  0  0  0  0  0  0  0
  -27.5101  -15.2972   20.7140 C   0  0  0  0  0  0  0  0  0  0  0  0
  -17.8316  -27.6196   22.7480 C   0  0  0  0  0  0  0  0  0  0  0  0
  -23.4081  -30.5898   24.3296 C   0  0  0  0  0  0  0  0  0  0  0  0
  -24.8618  -31.7570   22.0342 C   0  0  0  0  0  0  0  0  0  0  0  0
  -18.1905  -29.0055   22.2181 C   0  0  0  0  0  0  0  0  0  0  0  0
  -24.7611  -13.4446   19.5566 C   0  0  0  0  0  0  0  0  0  0  0  0
  -19.3485  -28.9155   21.2293 C   0  0  0  0  0  0  0  0  0  0  0  0
  -25.0851  -12.0518   20.0961 C   0  0  0  0  0  0  0  0  0  0  0  0
  -26.4739  -18.3660   22.0914 C   0  0  0  0  0  0  0  0  0  0  0  0
  -28.6252  -18.5769   20.7894 C   0  0  0  0  0  0  0  0  0  0  0  0
  -25.0950  -14.5429   20.5678 C   0  0  0  0  0  0  0  0  0  0  0  0
  -26.0005  -17.2964   21.1027 C   0  0  0  0  0  0  0  0  0  0  0  0
  -28.0993  -17.5275   19.8140 C   0  0  0  0  0  0  0  0  0  0  0  0
  -26.8095  -13.0979   21.6124 C   0  0  0  0  0  0  0  0  0  0  0  0
  -20.6083  -28.3595   21.9041 C   0  0  1  0  0  0  0  0  0  0  0  0
  -22.6763  -31.2789   23.1820 C   0  0  1  0  0  0  0  0  0  0  0  0
  -26.5388  -11.9776   20.5962 C   0  0  1  0  0  0  0  0  0  0  0  0
  -27.4649  -19.3339   21.4408 C   0  0  0  0  0  0  0  0  0  0  0  0
  -29.9830  -24.2446   23.9835 C   0  0  0  0  0  0  0  0  0  0  0  0
  -28.3739  -22.4837   18.2429 C   0  0  0  0  0  0  0  0  0  0  0  0
  -25.8389  -38.2523   22.0098 C   0  0  0  0  0  0  0  0  0  0  0  0
  -22.7977  -33.2064   18.9831 C   0  0  0  0  0  0  0  0  0  0  0  0
  -24.0875  -35.3456   18.8152 C   0  0  0  0  0  0  0  0  0  0  0  0
  -21.8550  -35.3214   19.9278 C   0  0  0  0  0  0  0  0  0  0  0  0
  -26.3868  -35.9858   25.0163 C   0  0  0  0  0  0  0  0  0  0  0  0
  -30.2253  -25.1808   21.2190 C   0  0  0  0  0  0  0  0  0  0  0  0
  -29.2221  -23.3918   19.1283 C   0  0  0  0  0  0  0  0  0  0  0  0
  -29.9406  -27.6621   21.2527 C   0  0  0  0  0  0  0  0  0  0  0  0
  -28.9311  -28.7488   21.5658 C   0  0  0  0  0  0  0  0  0  1  0  0
  -23.8338  -34.2676   21.0965 C   0  0  1  0  0  0  0  0  0  0  0  0
  -25.5232  -37.1054   22.9573 C   0  0  2  0  0  0  0  0  0  0  0  0
  -23.1542  -34.5130   19.7198 C   0  0  0  0  0  0  0  0  0  0  0  0
  -25.9065   -9.9013   21.7670 N   0  0  0  0  0  0  0  0  0  0  0  0
  -28.9618  -22.2174   23.1753 N   0  0  0  0  0  0  0  0  0  0  0  0
  -28.5948  -21.8052   20.8295 N   0  0  0  0  0  0  0  0  0  0  0  0
  -26.8738  -10.6091   21.1592 N   0  0  0  0  0  0  0  0  0  0  0  0
  -23.5285  -32.2202   22.4525 N   0  0  0  0  0  0  0  0  0  0  0  0
  -26.4780  -14.4070   21.0459 N   0  0  0  0  0  0  0  0  0  0  0  0
  -27.1469  -16.6298   20.4685 N   0  0  0  0  0  0  0  0  0  0  0  0
  -29.1628  -10.5466   20.5530 N   0  0  0  0  0  0  0  0  0  0  0  0
  -28.5261   -6.5864   22.6286 N   0  0  0  0  0  0  0  0  0  0  0  0
  -27.9743  -20.2494   22.4380 N   0  0  0  0  0  0  0  0  0  0  0  0
  -21.2497  -29.3843   22.6996 N   0  0  0  0  0  0  0  0  0  0  0  0
  -24.1580  -35.4871   21.8286 N   0  0  0  0  0  0  0  0  0  0  0  0
  -26.5838  -37.0541   24.0030 N   0  3  0  0  0  0  0  0  0  0  0  0
  -29.3306  -26.3343   21.5203 N   0  3  0  0  0  0  0  0  0  0  0  0
  -30.0773   -7.9117   21.5816 O   0  0  0  0  0  0  0  0  0  0  0  0
  -22.4886  -30.3890   21.0031 O   0  0  0  0  0  0  0  0  0  0  0  0
  -21.8651  -33.8510   22.3524 O   0  0  0  0  0  0  0  0  0  0  0  0
  -26.4347  -35.0823   22.0015 O   0  0  0  0  0  0  0  0  0  0  0  0
  -28.6875  -14.9236   20.6413 O   0  0  0  0  0  0  0  0  0  0  0  0
  -23.7487   -4.7532   24.8312 O   0  0  0  0  0  0  0  0  0  0  0  0
  -28.5670  -28.6789   22.9380 O   0  0  0  0  0  0  0  0  0  1  0  0
  -18.7576   -3.3755   22.9352 F   0  0  0  0  0  0  0  0  0  0  0  0
  -23.2158   -2.1771   23.9810 F   0  0  0  0  0  0  0  0  0  0  0  0
  1  2  1  0  0  0  0
  1  5  2  0  0  0  0
  2  6  2  0  0  0  0
  3  8  2  0  0  0  0
  3 15  1  0  0  0  0
  4  9  1  0  0  0  0
  4 15  2  0  0  0  0
  5 17  1  0  0  0  0
  6 19  1  0  0  0  0
  7 10  2  0  0  0  0
  7 18  1  0  0  0  0
  8 22  1  0  0  0  0
  9 22  2  0  0  0  0
 10 23  1  0  0  0  0
 11 12  2  0  0  0  0
 11 24  1  0  0  0  0
 12 25  1  0  0  0  0
 13 20  1  0  0  0  0
 13 23  2  0  0  0  0
 14 25  2  0  0  0  0
 14 26  1  0  0  0  0
 15 27  1  0  0  0  0
 16 27  1  0  0  0  0
 16 30  2  0  0  0  0
 16 32  1  0  0  0  0
 17 19  2  0  0  0  0
 17 37  1  0  0  0  0
 18 20  2  0  0  0  0
 18 38  1  0  0  0  0
 19 50  1  0  0  0  0
 20 39  1  0  0  0  0
 21 28  1  0  0  0  0
 21 29  2  0  0  0  0
 21 61  1  0  0  0  0
 22 87  1  0  0  0  0
 23 88  1  0  0  0  0
 24 26  2  0  0  0  0
 24 87  1  0  0  0  0
 25 89  1  0  0  0  0
 26 90  1  0  0  0  0
 27 68  2  0  0  0  0
 28 54  1  0  0  0  0
 28 69  2  0  0  0  0
 29 62  1  0  0  0  0
 29 70  1  0  0  0  0
 30 71  1  0  0  0  0
 30 75  1  0  0  0  0
 31 69  1  0  0  0  0
 31 70  2  0  0  0  0
 31 77  1  0  0  0  0
 32 76  1  0  0  0  0
 32 82  2  0  0  0  0
 33 51  1  0  0  0  0
 33 78  1  0  0  0  0
 33 83  2  0  0  0  0
 34 65  1  0  0  0  0
 34 72  1  0  0  0  0
 34 84  2  0  0  0  0
 35 66  1  0  0  0  0
 35 79  1  0  0  0  0
 35 85  2  0  0  0  0
 36 73  1  0  0  0  0
 36 74  1  0  0  0  0
 36 86  2  0  0  0  0
 37 40  1  0  0  0  0
 38 51  1  0  0  0  0
 39 72  1  0  0  0  0
 40 42  1  0  0  0  0
 41 43  1  0  0  0  0
 41 46  1  0  0  0  0
 42 50  1  0  0  0  0
 43 52  1  0  0  0  0
 44 47  1  0  0  0  0
 44 53  1  0  0  0  0
 45 48  1  0  0  0  0
 45 53  1  0  0  0  0
 46 73  1  0  0  0  0
 47 74  1  0  0  0  0
 48 74  1  0  0  0  0
 49 52  1  0  0  0  0
 49 73  1  0  0  0  0
 50 78  1  0  0  0  0
 51 72  1  0  0  0  0
 52 71  1  0  0  0  0
 53 77  1  0  0  0  0
 55 62  1  0  0  0  0
 56 66  1  0  0  0  0
 57 67  1  0  0  0  0
 58 67  1  0  0  0  0
 59 67  1  0  0  0  0
 60 80  1  0  0  0  0
 61 81  1  0  0  0  0
 63 64  1  0  0  0  0
 63 81  1  0  0  0  0
 64 88  1  0  0  0  0
 65 67  1  0  0  0  0
 65 79  1  0  0  0  0
 66 80  1  0  0  0  0
 68 71  1  0  0  0  0
M  CHG  2  80   1  81   1
M  ISO  4  36 100  64 101  74 100  88 101
M  END
> <Batch ID>
0184

> <Smiles>
CCc1nc(NC2CC[100N:0]([100C:0](=O)N3CCCC(n4nc(-c5ccc(Oc6ccc(F)cc6F)cc5)c(C(N)=O)c4N)C3)CC2)nc(C)c1CNC[101CH2:1][101O:1]c1ccc2c(c1)CN(C(=O)C(NC(=O)C(C)NC)C(C)(C)C)C(C(=O)NC1CCCc3ccccc31)C2

> <Shape>
0.259

> <Color>
0.092

> <Negative vol penalty>
0.000

$$$$

  -OEChem-04052323103D

 82 91  0     1  0  0  0  0  0999 V2000
  -24.1058   -8.6419   21.7252 C   0  0  0  0  0  0  0  0  0  0  0  0
  -25.2748   -9.3958   21.7026 C   0  0  0  0  0  0  0  0  0  0  0  0
  -20.3043  -28.2499   23.7787 C   0  0  0  0  0  0  0  0  0  0  0  0
  -20.5451  -26.8582   21.8185 C   0  0  0  0  0  0  0  0  0  0  0  0
  -22.9097   -9.1987   21.2742 C   0  0  0  0  0  0  0  0  0  0  0  0
  -25.2485  -10.7067   21.2280 C   0  0  0  0  0  0  0  0  0  0  0  0
  -28.3591  -17.0780   22.2518 C   0  0  0  0  0  0  0  0  0  0  0  0
  -18.9388  -28.3739   23.5229 C   0  0  0  0  0  0  0  0  0  0  0  0
  -19.1795  -26.9822   21.5628 C   0  0  0  0  0  0  0  0  0  0  0  0
  -29.0060  -18.0875   21.5403 C   0  0  0  0  0  0  0  0  0  0  0  0
  -16.2998  -25.6383   22.7124 C   0  0  0  0  0  0  0  0  0  0  0  0
  -15.5984  -24.4821   22.3708 C   0  0  0  0  0  0  0  0  0  0  0  0
  -26.8666  -18.9710   20.8606 C   0  0  0  0  0  0  0  0  0  0  0  0
  -14.9904  -25.4761   20.2544 C   0  0  0  0  0  0  0  0  0  0  0  0
  -29.8230  -21.4827   17.7755 C   0  0  0  0  0  0  0  0  0  0  0  0
  -21.1076  -27.4921   22.9264 C   0  0  0  0  0  0  0  0  0  0  0  0
  -23.1517  -26.3769   23.9682 C   0  0  0  0  0  0  0  0  0  0  0  0
  -22.8669  -10.5203   20.8029 C   0  0  0  0  0  0  0  0  0  0  0  0
  -26.9590  -17.0008   22.2641 C   0  0  0  0  0  0  0  0  0  0  0  0
  -24.0510  -11.2813   20.7691 C   0  0  0  0  0  0  0  0  0  0  0  0
  -26.2044  -17.9611   21.5751 C   0  0  0  0  0  0  0  0  0  0  0  0
  -18.3763  -27.7400   22.4150 C   0  0  0  0  0  0  0  0  0  0  0  0
  -28.2598  -19.0325   20.8422 C   0  0  0  0  0  0  0  0  0  0  0  0
  -16.3464  -26.7136   21.8250 C   0  0  0  0  0  0  0  0  0  0  0  0
  -14.9437  -24.4009   21.1418 C   0  0  0  0  0  0  0  0  0  0  0  0
  -15.6917  -26.6325   20.5960 C   0  0  0  0  0  0  0  0  0  0  0  0
  -22.5184  -27.3641   23.1898 C   0  0  0  0  0  0  0  0  0  0  0  0
  -30.5866  -22.4543   17.1613 C   0  0  0  0  0  0  0  0  0  0  0  0
  -28.9352  -21.9358   18.7299 C   0  0  0  0  0  0  0  0  0  0  0  0
  -24.4866  -26.6944   23.9058 C   0  0  0  0  0  0  0  0  0  0  0  0
  -29.5960  -24.0851   18.3968 C   0  0  0  0  0  0  0  0  0  0  0  0
  -22.5842  -25.2716   24.6838 C   0  0  0  0  0  0  0  0  0  0  0  0
  -24.8219  -14.8564   21.2954 C   0  0  0  0  0  0  0  0  0  0  0  0
  -22.7256  -16.8718   22.7327 C   0  0  0  0  0  0  0  0  0  0  0  0
  -22.0189  -20.0324   23.8088 C   0  0  0  0  0  0  0  0  0  0  0  0
  -28.9214  -28.2388   20.7744 C   0  0  0  0  0  0  0  0  0  0  0  0
  -21.5599  -11.0631   20.2816 C   0  0  0  0  0  0  0  0  0  0  0  0
  -26.2758  -15.9215   23.0583 C   0  0  0  0  0  0  0  0  0  0  0  0
  -24.6985  -17.9344   21.5733 C   0  0  0  0  0  0  0  0  0  0  0  0
  -21.5433  -12.5833   20.1442 C   0  0  0  0  0  0  0  0  0  0  0  0
  -26.8351  -30.8048   22.1870 C   0  0  0  0  0  0  0  0  0  0  0  0
  -22.8159  -13.0714   19.4593 C   0  0  0  0  0  0  0  0  0  0  0  0
  -25.5577  -30.0744   22.5877 C   0  0  0  0  0  0  0  0  0  0  0  0
  -27.4334  -30.2013   20.9234 C   0  0  0  0  0  0  0  0  0  0  0  0
  -28.1577  -26.1247   19.4300 C   0  0  0  0  0  0  0  0  0  0  0  0
  -30.1972  -26.1652   20.0064 C   0  0  0  0  0  0  0  0  0  0  0  0
  -26.4786  -27.9787   21.4735 C   0  0  0  0  0  0  0  0  0  0  0  0
  -24.0581  -12.7149   20.2847 C   0  0  1  0  0  0  0  0  0  0  0  0
  -29.4598  -25.6219   18.7608 C   0  0  0  0  0  0  0  0  0  0  0  0
  -24.8557  -15.6355   22.5798 C   0  0  1  0  0  0  0  0  0  0  0  0
  -25.8241  -28.5697   22.7379 C   0  0  2  0  0  0  0  0  0  0  0  0
  -31.5745  -22.0601   16.1153 C   0  0  0  0  0  0  0  0  0  0  0  0
  -20.2116  -21.3802   24.9108 C   0  0  0  0  0  0  0  0  0  0  0  0
  -21.1635  -16.9152   20.1120 C   0  0  0  0  0  0  0  0  0  0  0  0
  -19.9649  -18.9510   20.9409 C   0  0  0  0  0  0  0  0  0  0  0  0
  -19.7466  -16.7908   22.1691 C   0  0  0  0  0  0  0  0  0  0  0  0
  -23.7569  -20.6965   26.1105 C   0  0  0  0  0  0  0  0  0  0  0  0
  -28.0623  -20.9532   19.4538 C   0  0  0  0  0  0  0  0  0  1  0  0
  -21.9228  -18.0719   22.2918 C   0  0  1  0  0  0  0  0  0  0  0  0
  -21.4664  -20.5483   25.1253 C   0  0  2  0  0  0  0  0  0  0  0  0
  -20.7278  -17.6818   21.3767 C   0  0  0  0  0  0  0  0  0  0  0  0
  -23.3800  -28.2431   22.6710 N   0  0  0  0  0  0  0  0  0  0  0  0
  -30.4987  -23.7696   17.4486 N   0  0  0  0  0  0  0  0  0  0  0  0
  -28.7951  -23.2346   19.0669 N   0  0  0  0  0  0  0  0  0  0  0  0
  -24.5684  -27.8093   23.1244 N   0  0  0  0  0  0  0  0  0  0  0  0
  -24.0770  -16.8559   22.3595 N   0  0  0  0  0  0  0  0  0  0  0  0
  -27.6514  -28.7571   21.0512 N   0  0  0  0  0  0  0  0  0  0  0  0
  -29.0065  -26.9694   20.2529 N   0  0  0  0  0  0  0  0  0  0  0  0
  -25.5865  -26.1259   24.4436 N   0  0  0  0  0  0  0  0  0  0  0  0
  -21.1949  -25.0913   24.6421 N   0  0  0  0  0  0  0  0  0  0  0  0
  -24.2022  -13.6258   21.4001 N   0  0  0  0  0  0  0  0  0  0  0  0
  -21.5374  -18.7753   23.5104 N   0  0  0  0  0  0  0  0  0  0  0  0
  -22.4796  -21.3954   25.8158 N   0  3  0  0  0  0  0  0  0  0  0  0
  -23.2866  -24.4773   25.3541 O   0  0  0  0  0  0  0  0  0  0  0  0
  -25.3199  -15.3368   20.2841 O   0  0  0  0  0  0  0  0  0  0  0  0
  -22.1756  -15.9848   23.3902 O   0  0  0  0  0  0  0  0  0  0  0  0
  -22.7968  -20.6814   23.1129 O   0  0  0  0  0  0  0  0  0  0  0  0
  -29.9515  -28.9006   20.9591 O   0  0  0  0  0  0  0  0  0  0  0  0
  -17.0438  -27.8605   22.1653 O   0  0  0  0  0  0  0  0  0  0  0  0
  -28.8887  -20.0185   20.1464 O   0  0  0  0  0  0  0  0  0  1  0  0
  -14.2715  -23.2899   20.8132 F   0  0  0  0  0  0  0  0  0  0  0  0
  -15.7340  -27.6617   19.7389 F   0  0  0  0  0  0  0  0  0  0  0  0
  1  2  1  0  0  0  0
  1  5  2  0  0  0  0
  2  6  2  0  0  0  0
  3  8  2  0  0  0  0
  3 16  1  0  0  0  0
  4  9  1  0  0  0  0
  4 16  2  0  0  0  0
  5 18  1  0  0  0  0
  6 20  1  0  0  0  0
  7 10  2  0  0  0  0
  7 19  1  0  0  0  0
  8 22  1  0  0  0  0
  9 22  2  0  0  0  0
 10 23  1  0  0  0  0
 11 12  2  0  0  0  0
 11 24  1  0  0  0  0
 12 25  1  0  0  0  0
 13 21  1  0  0  0  0
 13 23  2  0  0  0  0
 14 25  2  0  0  0  0
 14 26  1  0  0  0  0
 15 28  2  0  0  0  0
 15 29  1  0  0  0  0
 16 27  1  0  0  0  0
 17 27  1  0  0  0  0
 17 30  2  0  0  0  0
 17 32  1  0  0  0  0
 18 20  2  0  0  0  0
 18 37  1  0  0  0  0
 19 21  2  0  0  0  0
 19 38  1  0  0  0  0
 20 48  1  0  0  0  0
 21 39  1  0  0  0  0
 22 79  1  0  0  0  0
 23 80  1  0  0  0  0
 24 26  2  0  0  0  0
 24 79  1  0  0  0  0
 25 81  1  0  0  0  0
 26 82  1  0  0  0  0
 27 62  2  0  0  0  0
 28 52  1  0  0  0  0
 28 63  1  0  0  0  0
 29 58  1  0  0  0  0
 29 64  2  0  0  0  0
 30 65  1  0  0  0  0
 30 69  1  0  0  0  0
 31 49  1  0  0  0  0
 31 63  2  0  0  0  0
 31 64  1  0  0  0  0
 32 70  1  0  0  0  0
 32 74  2  0  0  0  0
 33 50  1  0  0  0  0
 33 71  1  0  0  0  0
 33 75  2  0  0  0  0
 34 59  1  0  0  0  0
 34 66  1  0  0  0  0
 34 76  2  0  0  0  0
 35 60  1  0  0  0  0
 35 72  1  0  0  0  0
 35 77  2  0  0  0  0
 36 67  1  0  0  0  0
 36 68  1  0  0  0  0
 36 78  2  0  0  0  0
 37 40  1  0  0  0  0
 38 50  1  0  0  0  0
 39 66  1  0  0  0  0
 40 42  1  0  0  0  0
 41 43  1  0  0  0  0
 41 44  1  0  0  0  0
 42 48  1  0  0  0  0
 43 51  1  0  0  0  0
 44 67  1  0  0  0  0
 45 49  1  0  0  0  0
 45 68  1  0  0  0  0
 46 49  1  0  0  0  0
 46 68  1  0  0  0  0
 47 51  1  0  0  0  0
 47 67  1  0  0  0  0
 48 71  1  0  0  0  0
 50 66  1  0  0  0  0
 51 65  1  0  0  0  0
 53 60  1  0  0  0  0
 54 61  1  0  0  0  0
 55 61  1  0  0  0  0
 56 61  1  0  0  0  0
 57 73  1  0  0  0  0
 58 80  1  0  0  0  0
 59 61  1  0  0  0  0
 59 72  1  0  0  0  0
 60 73  1  0  0  0  0
 62 65  1  0  0  0  0
M  CHG  1  73   1
M  ISO  4  36 100  58 101  68 100  80 101
M  END
> <Batch ID>
0184

> <Smiles>
CNC(C)C(=O)NC(C(=O)N1Cc2cc([101O:1][101CH2:1]c3cc(C)nc(C4C[100N:0]([100C:0](=O)N5CCCC(n6nc(-c7ccc(Oc8ccc(F)cc8F)cc7)c(C(N)=O)c6N)C5)C4)n3)ccc2CC1C(=O)NC1CCCc2ccccc21)C(C)(C)C

> <Shape>
0.226

> <Color>
0.079

> <Negative vol penalty>
0.000

$$$$

  -OEChem-04052323103D

 84 93  0     1  0  0  0  0  0999 V2000
  -29.4235  -33.6285   25.2113 C   0  0  0  0  0  0  0  0  0  0  0  0
  -29.2278  -32.3497   24.6997 C   0  0  0  0  0  0  0  0  0  0  0  0
  -23.1642  -10.3473   21.8548 C   0  0  0  0  0  0  0  0  0  0  0  0
  -24.4426   -8.5220   20.9214 C   0  0  0  0  0  0  0  0  0  0  0  0
  -28.3315  -34.3798   25.6436 C   0  0  0  0  0  0  0  0  0  0  0  0
  -27.9398  -31.8210   24.6212 C   0  0  0  0  0  0  0  0  0  0  0  0
  -27.0415  -29.5442   20.1879 C   0  0  0  0  0  0  0  0  0  0  0  0
  -21.9849   -9.6390   21.6246 C   0  0  0  0  0  0  0  0  0  0  0  0
  -23.2633   -7.8137   20.6912 C   0  0  0  0  0  0  0  0  0  0  0  0
  -27.5692  -28.2661   20.0101 C   0  0  0  0  0  0  0  0  0  0  0  0
  -21.0832   -5.9583   22.4871 C   0  0  0  0  0  0  0  0  0  0  0  0
  -21.0612   -4.6082   22.8367 C   0  0  0  0  0  0  0  0  0  0  0  0
  -25.4124  -27.3117   20.5164 C   0  0  0  0  0  0  0  0  0  0  0  0
  -20.5945   -4.0211   20.5401 C   0  0  0  0  0  0  0  0  0  0  0  0
  -24.3931   -9.7888   21.5031 C   0  0  0  0  0  0  0  0  0  0  0  0
  -26.4112  -10.4876   22.8984 C   0  0  0  0  0  0  0  0  0  0  0  0
  -27.0286  -33.8639   25.5614 C   0  0  0  0  0  0  0  0  0  0  0  0
  -25.6957  -29.7156   20.5426 C   0  0  0  0  0  0  0  0  0  0  0  0
  -26.8295  -32.5657   25.0540 C   0  0  0  0  0  0  0  0  0  0  0  0
  -24.8694  -28.5931   20.6956 C   0  0  0  0  0  0  0  0  0  0  0  0
  -22.0344   -8.3722   21.0429 C   0  0  0  0  0  0  0  0  0  0  0  0
  -26.7554  -27.1494   20.1771 C   0  0  0  0  0  0  0  0  0  0  0  0
  -20.8608   -6.3399   21.1640 C   0  0  0  0  0  0  0  0  0  0  0  0
  -20.8169   -3.6395   21.8632 C   0  0  0  0  0  0  0  0  0  0  0  0
  -20.6165   -5.3712   20.1905 C   0  0  0  0  0  0  0  0  0  0  0  0
  -25.6117  -10.5202   21.7401 C   0  0  0  0  0  0  0  0  0  0  0  0
  -27.4452  -11.3498   22.6263 C   0  0  0  0  0  0  0  0  0  0  0  0
  -29.0396  -24.4083   19.4407 C   0  0  0  0  0  0  0  0  0  0  0  0
  -29.5732  -22.3483   19.8654 C   0  0  0  0  0  0  0  0  0  0  0  0
  -26.2350   -9.7443   24.1117 C   0  0  0  0  0  0  0  0  0  0  0  0
  -24.1754  -30.9776   23.0325 C   0  0  0  0  0  0  0  0  0  0  0  0
  -21.5466  -30.4140   21.2174 C   0  0  0  0  0  0  0  0  0  0  0  0
  -20.0919  -28.6237   18.7024 C   0  0  0  0  0  0  0  0  0  0  0  0
  -29.4517  -15.9792   20.7965 C   0  0  0  0  0  0  0  0  0  0  0  0
  -25.8842  -34.6951   26.0849 C   0  0  0  0  0  0  0  0  0  0  0  0
  -25.1351  -31.1019   20.7045 C   0  0  0  0  0  0  0  0  0  0  0  0
  -23.4129  -28.7239   21.0562 C   0  0  0  0  0  0  0  0  0  0  0  0
  -24.5145  -34.2073   25.6201 C   0  0  0  0  0  0  0  0  0  0  0  0
  -28.8448  -13.5736   18.3118 C   0  0  0  0  0  0  0  0  0  0  0  0
  -24.4018  -32.6951   25.7858 C   0  0  0  0  0  0  0  0  0  0  0  0
  -28.0060  -12.5511   19.0780 C   0  0  0  0  0  0  0  0  0  0  0  0
  -28.9564  -19.2333   19.5501 C   0  0  0  0  0  0  0  0  0  0  0  0
  -30.9191  -19.1002   21.1306 C   0  0  0  0  0  0  0  0  0  0  0  0
  -28.4656  -15.0112   18.6720 C   0  0  0  0  0  0  0  0  0  0  0  0
  -29.2769  -17.8181   19.0603 C   0  0  0  0  0  0  0  0  0  0  0  0
  -31.2166  -17.7039   20.5912 C   0  0  0  0  0  0  0  0  0  0  0  0
  -27.6597  -14.2719   20.8907 C   0  0  0  0  0  0  0  0  0  0  0  0
  -25.4452  -31.9671   24.9297 C   0  0  1  0  0  0  0  0  0  0  0  0
  -23.8785  -31.1411   21.5687 C   0  0  1  0  0  0  0  0  0  0  0  0
  -28.0579  -12.8180   20.5929 C   0  0  1  0  0  0  0  0  0  0  0  0
  -30.2074  -19.9450   20.0707 C   0  0  0  0  0  0  0  0  0  0  0  0
  -17.9210  -28.3623   17.4711 C   0  0  0  0  0  0  0  0  0  0  0  0
  -20.3822  -28.8998   23.5968 C   0  0  0  0  0  0  0  0  0  0  0  0
  -18.7048  -27.8839   22.0404 C   0  0  0  0  0  0  0  0  0  0  0  0
  -18.7481  -30.3541   22.3848 C   0  0  0  0  0  0  0  0  0  0  0  0
  -29.0904  -23.7911   21.8719 C   0  0  0  0  0  0  0  0  0  0  0  0
  -21.3321  -29.3719   16.1214 C   0  0  0  0  0  0  0  0  0  0  0  0
  -28.6525  -25.8148   19.6524 C   0  0  0  0  0  0  0  0  0  1  0  0
  -20.5923  -29.2565   21.0483 C   0  0  1  0  0  0  0  0  0  0  0  0
  -19.2731  -29.0579   17.5001 C   0  0  2  0  0  0  0  0  0  0  0  0
  -19.6347  -29.0957   22.2627 C   0  0  0  0  0  0  0  0  0  0  0  0
  -26.0961  -11.3385   20.8021 N   0  0  0  0  0  0  0  0  0  0  0  0
  -29.2542  -23.8110   18.2902 N   0  0  0  0  0  0  0  0  0  0  0  0
  -29.5937  -22.5003   18.5605 N   0  0  0  0  0  0  0  0  0  0  0  0
  -27.2111  -11.8281   21.3707 N   0  0  0  0  0  0  0  0  0  0  0  0
  -29.2292  -23.5246   20.4594 N   0  0  0  0  0  0  0  0  0  0  0  0
  -22.9131  -30.1001   21.2099 N   0  0  0  0  0  0  0  0  0  0  0  0
  -28.4902  -15.2065   20.1283 N   0  0  0  0  0  0  0  0  0  0  0  0
  -30.0003  -17.0614   20.0922 N   0  0  0  0  0  0  0  0  0  0  0  0
  -28.5226  -11.7380   23.3411 N   0  0  0  0  0  0  0  0  0  0  0  0
  -25.1182   -8.9052   24.2250 N   0  0  0  0  0  0  0  0  0  0  0  0
  -29.8386  -21.2265   20.6307 N   0  0  0  0  0  0  0  0  0  0  0  0
  -25.0292  -31.9362   23.5439 N   0  0  0  0  0  0  0  0  0  0  0  0
  -19.9124  -29.4707   19.7755 N   0  0  0  0  0  0  0  0  0  0  0  0
  -19.9953  -28.7343   16.2373 N   0  3  0  0  0  0  0  0  0  0  0  0
  -27.0352   -9.8345   25.0735 O   0  0  0  0  0  0  0  0  0  0  0  0
  -23.6663  -30.0512   23.6524 O   0  0  0  0  0  0  0  0  0  0  0  0
  -21.0964  -31.5554   21.3441 O   0  0  0  0  0  0  0  0  0  0  0  0
  -20.8154  -27.6302   18.6919 O   0  0  0  0  0  0  0  0  0  0  0  0
  -29.7999  -15.7178   21.9548 O   0  0  0  0  0  0  0  0  0  0  0  0
  -20.8838   -7.6806   20.8184 O   0  0  0  0  0  0  0  0  0  0  0  0
  -27.2706  -25.8945   20.0040 O   0  0  0  0  0  0  0  0  0  1  0  0
  -20.7973   -2.3429   22.1988 F   0  0  0  0  0  0  0  0  0  0  0  0
  -20.4034   -5.7316   18.9175 F   0  0  0  0  0  0  0  0  0  0  0  0
  1  2  1  0  0  0  0
  1  5  2  0  0  0  0
  2  6  2  0  0  0  0
  3  8  2  0  0  0  0
  3 15  1  0  0  0  0
  4  9  1  0  0  0  0
  4 15  2  0  0  0  0
  5 17  1  0  0  0  0
  6 19  1  0  0  0  0
  7 10  2  0  0  0  0
  7 18  1  0  0  0  0
  8 21  1  0  0  0  0
  9 21  2  0  0  0  0
 10 22  1  0  0  0  0
 11 12  2  0  0  0  0
 11 23  1  0  0  0  0
 12 24  1  0  0  0  0
 13 20  1  0  0  0  0
 13 22  2  0  0  0  0
 14 24  2  0  0  0  0
 14 25  1  0  0  0  0
 15 26  1  0  0  0  0
 16 26  1  0  0  0  0
 16 27  2  0  0  0  0
 16 30  1  0  0  0  0
 17 19  2  0  0  0  0
 17 35  1  0  0  0  0
 18 20  2  0  0  0  0
 18 36  1  0  0  0  0
 19 48  1  0  0  0  0
 20 37  1  0  0  0  0
 21 81  1  0  0  0  0
 22 82  1  0  0  0  0
 23 25  2  0  0  0  0
 23 81  1  0  0  0  0
 24 83  1  0  0  0  0
 25 84  1  0  0  0  0
 26 62  2  0  0  0  0
 27 65  1  0  0  0  0
 27 70  1  0  0  0  0
 28 58  1  0  0  0  0
 28 63  2  0  0  0  0
 28 66  1  0  0  0  0
 29 64  2  0  0  0  0
 29 66  1  0  0  0  0
 29 72  1  0  0  0  0
 30 71  1  0  0  0  0
 30 76  2  0  0  0  0
 31 49  1  0  0  0  0
 31 73  1  0  0  0  0
 31 77  2  0  0  0  0
 32 59  1  0  0  0  0
 32 67  1  0  0  0  0
 32 78  2  0  0  0  0
 33 60  1  0  0  0  0
 33 74  1  0  0  0  0
 33 79  2  0  0  0  0
 34 68  1  0  0  0  0
 34 69  1  0  0  0  0
 34 80  2  0  0  0  0
 35 38  1  0  0  0  0
 36 49  1  0  0  0  0
 37 67  1  0  0  0  0
 38 40  1  0  0  0  0
 39 41  1  0  0  0  0
 39 44  1  0  0  0  0
 40 48  1  0  0  0  0
 41 50  1  0  0  0  0
 42 45  1  0  0  0  0
 42 51  1  0  0  0  0
 43 46  1  0  0  0  0
 43 51  1  0  0  0  0
 44 68  1  0  0  0  0
 45 69  1  0  0  0  0
 46 69  1  0  0  0  0
 47 50  1  0  0  0  0
 47 68  1  0  0  0  0
 48 73  1  0  0  0  0
 49 67  1  0  0  0  0
 50 65  1  0  0  0  0
 51 72  1  0  0  0  0
 52 60  1  0  0  0  0
 53 61  1  0  0  0  0
 54 61  1  0  0  0  0
 55 61  1  0  0  0  0
 56 66  1  0  0  0  0
 57 75  1  0  0  0  0
 58 82  1  0  0  0  0
 59 61  1  0  0  0  0
 59 74  1  0  0  0  0
 60 75  1  0  0  0  0
 62 65  1  0  0  0  0
 63 64  1  0  0  0  0
M  CHG  1  75   1
M  ISO  4  34 100  58 101  69 100  82 101
M  END
> <Batch ID>
0184

> <Smiles>
CNC(C)C(=O)NC(C(=O)N1Cc2cc([101O:1][101CH2:1]c3nnc(NC4CC[100N:0]([100C:0](=O)N5CCCC(n6nc(-c7ccc(Oc8ccc(F)cc8F)cc7)c(C(N)=O)c6N)C5)CC4)n3C)ccc2CC1C(=O)NC1CCCc2ccccc21)C(C)(C)C

> <Shape>
0.333

> <Color>
0.096

> <Negative vol penalty>
0.000

$$$$

  -OEChem-04052323103D

 86 95  0     1  0  0  0  0  0999 V2000
  -24.5647  -35.0721   25.6199 C   0  0  0  0  0  0  0  0  0  0  0  0
  -24.8790  -34.9009   24.2765 C   0  0  0  0  0  0  0  0  0  0  0  0
  -22.9522   -9.9145   20.4254 C   0  0  0  0  0  0  0  0  0  0  0  0
  -24.4485   -9.0398   22.1085 C   0  0  0  0  0  0  0  0  0  0  0  0
  -24.8817  -34.0738   26.5387 C   0  0  0  0  0  0  0  0  0  0  0  0
  -25.4996  -33.7264   23.8495 C   0  0  0  0  0  0  0  0  0  0  0  0
  -28.7772  -28.5457   18.7109 C   0  0  0  0  0  0  0  0  0  0  0  0
  -22.2914   -8.6871   20.3749 C   0  0  0  0  0  0  0  0  0  0  0  0
  -23.7877   -7.8124   22.0581 C   0  0  0  0  0  0  0  0  0  0  0  0
  -29.5941  -27.4199   18.6160 C   0  0  0  0  0  0  0  0  0  0  0  0
  -20.9289   -6.4731   23.2639 C   0  0  0  0  0  0  0  0  0  0  0  0
  -20.6159   -5.8571   24.4756 C   0  0  0  0  0  0  0  0  0  0  0  0
  -28.1922  -26.2758   20.2110 C   0  0  0  0  0  0  0  0  0  0  0  0
  -21.9533   -3.9450   23.8489 C   0  0  0  0  0  0  0  0  0  0  0  0
  -24.0308  -10.0908   21.2922 C   0  0  0  0  0  0  0  0  0  0  0  0
  -24.4147  -12.4517   22.1789 C   0  0  0  0  0  0  0  0  0  0  0  0
  -25.5178  -32.8922   26.1239 C   0  0  0  0  0  0  0  0  0  0  0  0
  -27.6655  -28.5492   19.5658 C   0  0  0  0  0  0  0  0  0  0  0  0
  -25.8061  -32.6970   24.7578 C   0  0  0  0  0  0  0  0  0  0  0  0
  -27.3602  -27.4012   20.3112 C   0  0  0  0  0  0  0  0  0  0  0  0
  -29.7685  -20.1267   21.9017 C   0  0  0  0  0  0  0  0  0  0  0  0
  -22.7092   -7.6361   21.1913 C   0  0  0  0  0  0  0  0  0  0  0  0
  -29.3030  -26.2855   19.3678 C   0  0  0  0  0  0  0  0  0  0  0  0
  -21.7541   -5.8251   22.3447 C   0  0  0  0  0  0  0  0  0  0  0  0
  -21.1281   -4.5931   24.7681 C   0  0  0  0  0  0  0  0  0  0  0  0
  -22.2662   -4.5611   22.6372 C   0  0  0  0  0  0  0  0  0  0  0  0
  -24.7141  -11.3583   21.3443 C   0  0  0  0  0  0  0  0  0  0  0  0
  -30.8941  -19.6218   21.2728 C   0  0  0  0  0  0  0  0  0  0  0  0
  -29.1283  -19.2991   22.7828 C   0  0  0  0  0  0  0  0  0  0  0  0
  -25.3473  -13.4035   21.8457 C   0  0  0  0  0  0  0  0  0  0  0  0
  -30.6817  -17.6670   22.3541 C   0  0  0  0  0  0  0  0  0  0  0  0
  -23.3858  -12.5944   23.1671 C   0  0  0  0  0  0  0  0  0  0  0  0
  -26.6973  -30.2427   22.1035 C   0  0  0  0  0  0  0  0  0  0  0  0
  -30.7544  -22.9744   19.8057 C   0  0  0  0  0  0  0  0  0  0  0  0
  -23.9833  -28.3741   21.6614 C   0  0  0  0  0  0  0  0  0  0  0  0
  -21.8024  -30.8424   22.5511 C   0  0  0  0  0  0  0  0  0  0  0  0
  -30.6032  -14.8649   20.6691 C   0  0  0  0  0  0  0  0  0  0  0  0
  -25.8311  -31.8411   27.1594 C   0  0  0  0  0  0  0  0  0  0  0  0
  -26.7794  -29.7637   19.6306 C   0  0  0  0  0  0  0  0  0  0  0  0
  -26.1770  -27.3534   21.2398 C   0  0  0  0  0  0  0  0  0  0  0  0
  -29.4837  -21.5167   21.4677 C   0  0  0  0  0  0  0  0  0  0  0  0
  -31.4707  -20.6487   20.3471 C   0  0  0  0  0  0  0  0  0  0  0  0
  -26.8783  -30.8368   26.6891 C   0  0  0  0  0  0  0  0  0  0  0  0
  -28.6225  -13.5974   17.9958 C   0  0  0  0  0  0  0  0  0  0  0  0
  -26.5102  -30.3092   25.3104 C   0  0  0  0  0  0  0  0  0  0  0  0
  -27.4082  -12.9870   18.6978 C   0  0  0  0  0  0  0  0  0  0  0  0
  -29.9026  -13.3939   18.8032 C   0  0  0  0  0  0  0  0  0  0  0  0
  -28.6198  -13.2500   20.9027 C   0  0  0  0  0  0  0  0  0  0  0  0
  -26.5088  -31.4410   24.2750 C   0  0  1  0  0  0  0  0  0  0  0  0
  -25.9172  -29.8234   20.8899 C   0  0  1  0  0  0  0  0  0  0  0  0
  -27.2960  -13.4789   20.1533 C   0  0  2  0  0  0  0  0  0  0  0  0
  -26.6285  -19.1612   22.9174 C   0  0  0  0  0  0  0  0  0  0  0  0
  -19.6382  -31.8894   23.2703 C   0  0  0  0  0  0  0  0  0  0  0  0
  -23.3521  -28.2491   18.6795 C   0  0  0  0  0  0  0  0  0  0  0  0
  -21.2600  -29.5449   19.1399 C   0  0  0  0  0  0  0  0  0  0  0  0
  -21.5801  -27.2921   20.1622 C   0  0  0  0  0  0  0  0  0  0  0  0
  -22.4267  -30.4419   25.4162 C   0  0  0  0  0  0  0  0  0  0  0  0
  -27.9085  -19.7481   23.5092 C   0  0  0  0  0  0  0  0  0  0  0  0
  -31.1756  -16.2851   22.6223 C   0  0  0  0  0  0  0  0  0  0  0  0
  -29.7413  -24.0577   20.0754 C   0  0  0  0  0  0  0  0  0  1  0  0
  -22.9320  -29.2473   21.0232 C   0  0  1  0  0  0  0  0  0  0  0  0
  -20.7399  -30.9060   23.6335 C   0  0  2  0  0  0  0  0  0  0  0  0
  -22.3065  -28.5937   19.7587 C   0  0  0  0  0  0  0  0  0  0  0  0
  -25.7553  -11.5926   20.5411 N   0  0  0  0  0  0  0  0  0  0  0  0
  -31.3921  -18.3938   21.4659 N   0  0  0  0  0  0  0  0  0  0  0  0
  -29.5692  -18.0466   23.0321 N   0  0  0  0  0  0  0  0  0  0  0  0
  -26.1182  -12.8442   20.8695 N   0  0  0  0  0  0  0  0  0  0  0  0
  -30.5653  -21.7950   20.5052 N   0  0  0  0  0  0  0  0  0  0  0  0
  -25.2979  -28.5294   21.2037 N   0  0  0  0  0  0  0  0  0  0  0  0
  -29.7301  -13.8826   20.1734 N   0  0  0  0  0  0  0  0  0  0  0  0
  -25.5747  -14.6559   22.2953 N   0  0  0  0  0  0  0  0  0  0  0  0
  -22.5131  -11.5191   23.3831 N   0  0  0  0  0  0  0  0  0  0  0  0
  -25.9556  -30.9449   23.0342 N   0  0  0  0  0  0  0  0  0  0  0  0
  -21.9684  -29.5597   22.0732 N   0  0  0  0  0  0  0  0  0  0  0  0
  -30.3661  -15.2770   21.9748 N   0  0  0  0  0  0  0  0  0  0  0  0
  -21.3435  -31.3333   24.9273 N   0  3  0  0  0  0  0  0  0  0  0  0
  -23.2341  -13.6502   23.8272 O   0  0  0  0  0  0  0  0  0  0  0  0
  -27.8840  -29.9495   22.1900 O   0  0  0  0  0  0  0  0  0  0  0  0
  -31.6752  -23.1626   19.0092 O   0  0  0  0  0  0  0  0  0  0  0  0
  -23.6494  -27.5703   22.5364 O   0  0  0  0  0  0  0  0  0  0  0  0
  -22.4204  -31.8322   22.1653 O   0  0  0  0  0  0  0  0  0  0  0  0
  -31.5225  -15.3434   19.9961 O   0  0  0  0  0  0  0  0  0  0  0  0
  -22.0645   -6.4384   21.1425 O   0  0  0  0  0  0  0  0  0  0  0  0
  -30.0983  -25.1851   19.2767 O   0  0  0  0  0  0  0  0  0  1  0  0
  -20.8287   -4.0023   25.9323 F   0  0  0  0  0  0  0  0  0  0  0  0
  -23.0604   -3.9341   21.7586 F   0  0  0  0  0  0  0  0  0  0  0  0
  1  2  1  0  0  0  0
  1  5  2  0  0  0  0
  2  6  2  0  0  0  0
  3  8  2  0  0  0  0
  3 15  1  0  0  0  0
  4  9  1  0  0  0  0
  4 15  2  0  0  0  0
  5 17  1  0  0  0  0
  6 19  1  0  0  0  0
  7 10  2  0  0  0  0
  7 18  1  0  0  0  0
  8 22  1  0  0  0  0
  9 22  2  0  0  0  0
 10 23  1  0  0  0  0
 11 12  2  0  0  0  0
 11 24  1  0  0  0  0
 12 25  1  0  0  0  0
 13 20  1  0  0  0  0
 13 23  2  0  0  0  0
 14 25  2  0  0  0  0
 14 26  1  0  0  0  0
 15 27  1  0  0  0  0
 16 27  1  0  0  0  0
 16 30  2  0  0  0  0
 16 32  1  0  0  0  0
 17 19  2  0  0  0  0
 17 38  1  0  0  0  0
 18 20  2  0  0  0  0
 18 39  1  0  0  0  0
 19 49  1  0  0  0  0
 20 40  1  0  0  0  0
 21 28  1  0  0  0  0
 21 29  2  0  0  0  0
 21 41  1  0  0  0  0
 22 83  1  0  0  0  0
 23 84  1  0  0  0  0
 24 26  2  0  0  0  0
 24 83  1  0  0  0  0
 25 85  1  0  0  0  0
 26 86  1  0  0  0  0
 27 64  2  0  0  0  0
 28 42  1  0  0  0  0
 28 65  2  0  0  0  0
 29 58  1  0  0  0  0
 29 66  1  0  0  0  0
 30 67  1  0  0  0  0
 30 71  1  0  0  0  0
 31 59  1  0  0  0  0
 31 65  1  0  0  0  0
 31 66  2  0  0  0  0
 32 72  1  0  0  0  0
 32 77  2  0  0  0  0
 33 50  1  0  0  0  0
 33 73  1  0  0  0  0
 33 78  2  0  0  0  0
 34 60  1  0  0  0  0
 34 68  1  0  0  0  0
 34 79  2  0  0  0  0
 35 61  1  0  0  0  0
 35 69  1  0  0  0  0
 35 80  2  0  0  0  0
 36 62  1  0  0  0  0
 36 74  1  0  0  0  0
 36 81  2  0  0  0  0
 37 70  1  0  0  0  0
 37 75  1  0  0  0  0
 37 82  2  0  0  0  0
 38 43  1  0  0  0  0
 39 50  1  0  0  0  0
 40 69  1  0  0  0  0
 41 68  1  0  0  0  0
 42 68  1  0  0  0  0
 43 45  1  0  0  0  0
 44 46  1  0  0  0  0
 44 47  1  0  0  0  0
 45 49  1  0  0  0  0
 46 51  1  0  0  0  0
 47 70  1  0  0  0  0
 48 51  1  0  0  0  0
 48 70  1  0  0  0  0
 49 73  1  0  0  0  0
 50 69  1  0  0  0  0
 51 67  1  0  0  0  0
 52 58  1  0  0  0  0
 53 62  1  0  0  0  0
 54 63  1  0  0  0  0
 55 63  1  0  0  0  0
 56 63  1  0  0  0  0
 57 76  1  0  0  0  0
 59 75  1  0  0  0  0
 60 84  1  0  0  0  0
 61 63  1  0  0  0  0
 61 74  1  0  0  0  0
 62 76  1  0  0  0  0
 64 67  1  0  0  0  0
M  CHG  1  76   1
M  ISO  4  37 100  60 101  75 100  84 101
M  END
> <Batch ID>
0184

> <Smiles>
CCc1nc(C[100NH:0][100C:0](=O)N2CCCC(n3nc(-c4ccc(Oc5ccc(F)cc5F)cc4)c(C(N)=O)c3N)C2)nc2c1CN(C(=O)[101CH2:1][101O:1]c1ccc3c(c1)CN(C(=O)C(NC(=O)C(C)NC)C(C)(C)C)C(C(=O)NC1CCCc4ccccc41)C3)C2

> <Shape>
0.382

> <Color>
0.138

> <Negative vol penalty>
0.000

$$$$

  -OEChem-04052323103D

 84 94  0     1  0  0  0  0  0999 V2000
  -21.7834  -32.2140   15.8027 C   0  0  0  0  0  0  0  0  0  0  0  0
  -22.4674  -31.0031   15.8420 C   0  0  0  0  0  0  0  0  0  0  0  0
  -23.0948   -9.8626   20.8706 C   0  0  0  0  0  0  0  0  0  0  0  0
  -23.7784  -10.5179   23.0933 C   0  0  0  0  0  0  0  0  0  0  0  0
  -22.0045  -33.1706   16.7926 C   0  0  0  0  0  0  0  0  0  0  0  0
  -23.3737  -30.7487   16.8707 C   0  0  0  0  0  0  0  0  0  0  0  0
  -24.5069  -25.3480   19.5267 C   0  0  0  0  0  0  0  0  0  0  0  0
  -22.3310   -8.8279   21.4105 C   0  0  0  0  0  0  0  0  0  0  0  0
  -23.0145   -9.4832   23.6332 C   0  0  0  0  0  0  0  0  0  0  0  0
  -25.5137  -24.4023   19.3370 C   0  0  0  0  0  0  0  0  0  0  0  0
  -19.7600   -8.8910   24.3243 C   0  0  0  0  0  0  0  0  0  0  0  0
  -18.9643   -9.1846   25.4317 C   0  0  0  0  0  0  0  0  0  0  0  0
  -26.7506  -25.3597   21.1735 C   0  0  0  0  0  0  0  0  0  0  0  0
  -20.1602   -7.5340   26.7287 C   0  0  0  0  0  0  0  0  0  0  0  0
  -29.6696  -21.6480   18.0164 C   0  0  0  0  0  0  0  0  0  0  0  0
  -23.8186  -10.7076   21.7120 C   0  0  0  0  0  0  0  0  0  0  0  0
  -24.1908  -13.0952   20.8945 C   0  0  0  0  0  0  0  0  0  0  0  0
  -22.9068  -32.9238   17.8393 C   0  0  0  0  0  0  0  0  0  0  0  0
  -24.6198  -26.3151   20.5359 C   0  0  0  0  0  0  0  0  0  0  0  0
  -23.6081  -31.7034   17.8748 C   0  0  0  0  0  0  0  0  0  0  0  0
  -25.7427  -26.3149   21.3756 C   0  0  0  0  0  0  0  0  0  0  0  0
  -30.5213  -20.6396   18.3961 C   0  0  0  0  0  0  0  0  0  0  0  0
  -22.2908   -8.6382   22.7918 C   0  0  0  0  0  0  0  0  0  0  0  0
  -26.6370  -24.4099   20.1586 C   0  0  0  0  0  0  0  0  0  0  0  0
  -20.7557   -7.9187   24.4191 C   0  0  0  0  0  0  0  0  0  0  0  0
  -19.1644   -8.5062   26.6339 C   0  0  0  0  0  0  0  0  0  0  0  0
  -20.9558   -7.2403   25.6213 C   0  0  0  0  0  0  0  0  0  0  0  0
  -24.6083  -11.7762   21.1548 C   0  0  0  0  0  0  0  0  0  0  0  0
  -29.9096  -20.0704   19.5291 C   0  0  0  0  0  0  0  0  0  0  0  0
  -25.3022  -13.7104   20.3722 C   0  0  0  0  0  0  0  0  0  0  0  0
  -22.9127  -13.7095   21.1060 C   0  0  0  0  0  0  0  0  0  0  0  0
  -24.7736  -29.4895   20.5937 C   0  0  0  0  0  0  0  0  0  0  0  0
  -24.6233  -29.0495   23.8041 C   0  0  0  0  0  0  0  0  0  0  0  0
  -25.1441  -26.9878   26.4733 C   0  0  0  0  0  0  0  0  0  0  0  0
  -30.7807  -14.7420   20.4351 C   0  0  0  0  0  0  0  0  0  0  0  0
  -23.1479  -34.0072   18.8605 C   0  0  0  0  0  0  0  0  0  0  0  0
  -23.5126  -27.3116   20.7447 C   0  0  0  0  0  0  0  0  0  0  0  0
  -25.9023  -27.3193   22.4865 C   0  0  0  0  0  0  0  0  0  0  0  0
  -23.8459  -33.5094   20.1235 C   0  0  0  0  0  0  0  0  0  0  0  0
  -29.7063  -11.7755   18.8049 C   0  0  0  0  0  0  0  0  0  0  0  0
  -32.0275  -20.5621   16.2520 C   0  0  0  0  0  0  0  0  0  0  0  0
  -31.8276  -19.1433   16.6848 C   0  0  0  0  0  0  0  0  0  0  0  0
  -25.0343  -32.6237   19.7628 C   0  0  0  0  0  0  0  0  0  0  0  0
  -28.2513  -11.6177   19.2499 C   0  0  0  0  0  0  0  0  0  0  0  0
  -30.5828  -12.3276   19.9270 C   0  0  0  0  0  0  0  0  0  0  0  0
  -28.6435  -13.4216   20.9798 C   0  0  0  0  0  0  0  0  0  0  0  0
  -29.9405  -18.3783   21.3378 C   0  0  0  0  0  0  0  0  0  0  0  0
  -31.0243  -17.8600   19.6125 C   0  0  0  0  0  0  0  0  0  0  0  0
  -31.8276  -20.2506   17.7266 C   0  0  0  0  0  0  0  0  0  0  0  0
  -24.5808  -31.3805   18.9882 C   0  0  1  0  0  0  0  0  0  0  0  0
  -23.9720  -28.5713   21.4724 C   0  0  1  0  0  0  0  0  0  0  0  0
  -27.7080  -12.9214   19.8657 C   0  0  2  0  0  0  0  0  0  0  0  0
  -30.8484  -17.1921   20.9836 C   0  0  0  0  0  0  0  0  0  0  0  0
  -24.9640  -26.9210   28.9754 C   0  0  0  0  0  0  0  0  0  0  0  0
  -27.1501  -30.7449   24.0288 C   0  0  0  0  0  0  0  0  0  0  0  0
  -27.4487  -29.8667   26.3543 C   0  0  0  0  0  0  0  0  0  0  0  0
  -25.4248  -31.2068   25.7793 C   0  0  0  0  0  0  0  0  0  0  0  0
  -23.1943  -24.7629   26.3895 C   0  0  0  0  0  0  0  0  0  0  0  0
  -27.4442  -22.5376   18.9214 C   0  0  0  0  0  0  0  0  0  1  0  0
  -25.6371  -28.8446   24.9037 C   0  0  1  0  0  0  0  0  0  0  0  0
  -24.2636  -26.6306   27.6572 C   0  0  2  0  0  0  0  0  0  0  0  0
  -26.4134  -30.1479   25.2444 C   0  0  0  0  0  0  0  0  0  0  0  0
  -25.8852  -11.5650   20.8249 N   0  0  0  0  0  0  0  0  0  0  0  0
  -28.7584  -20.6676   19.8484 N   0  0  0  0  0  0  0  0  0  0  0  0
  -28.6399  -21.6227   18.9104 N   0  0  0  0  0  0  0  0  0  0  0  0
  -26.2797  -12.7595   20.3519 N   0  0  0  0  0  0  0  0  0  0  0  0
  -30.4670  -19.0243   20.1934 N   0  0  0  0  0  0  0  0  0  0  0  0
  -24.7958  -28.2771   22.6467 N   0  0  0  0  0  0  0  0  0  0  0  0
  -30.0130  -13.5670   20.4617 N   0  0  0  0  0  0  0  0  0  0  0  0
  -25.5290  -14.9666   19.9329 N   0  0  0  0  0  0  0  0  0  0  0  0
  -21.8806  -12.9337   21.6513 N   0  0  0  0  0  0  0  0  0  0  0  0
  -24.0114  -30.4026   19.8905 N   0  0  0  0  0  0  0  0  0  0  0  0
  -24.9077  -28.2718   26.0298 N   0  0  0  0  0  0  0  0  0  0  0  0
  -30.1700  -15.8801   20.9516 N   0  0  0  0  0  0  0  0  0  0  0  0
  -23.9098  -25.1834   27.6217 N   0  3  0  0  0  0  0  0  0  0  0  0
  -22.6876  -14.9062   20.8047 O   0  0  0  0  0  0  0  0  0  0  0  0
  -25.9935  -29.3786   20.5577 O   0  0  0  0  0  0  0  0  0  0  0  0
  -23.7078  -29.8596   23.9688 O   0  0  0  0  0  0  0  0  0  0  0  0
  -25.9627  -26.2072   25.9926 O   0  0  0  0  0  0  0  0  0  0  0  0
  -31.9278  -14.7835   19.9772 O   0  0  0  0  0  0  0  0  0  0  0  0
  -21.5454   -7.6288   23.3191 O   0  0  0  0  0  0  0  0  0  0  0  0
  -27.6215  -23.4883   19.9753 O   0  0  0  0  0  0  0  0  0  1  0  0
  -18.4013   -8.7894   27.6976 F   0  0  0  0  0  0  0  0  0  0  0  0
  -21.9117   -6.3061   25.7188 F   0  0  0  0  0  0  0  0  0  0  0  0
  1  2  1  0  0  0  0
  1  5  2  0  0  0  0
  2  6  2  0  0  0  0
  3  8  2  0  0  0  0
  3 16  1  0  0  0  0
  4  9  1  0  0  0  0
  4 16  2  0  0  0  0
  5 18  1  0  0  0  0
  6 20  1  0  0  0  0
  7 10  2  0  0  0  0
  7 19  1  0  0  0  0
  8 23  1  0  0  0  0
  9 23  2  0  0  0  0
 10 24  1  0  0  0  0
 11 12  2  0  0  0  0
 11 25  1  0  0  0  0
 12 26  1  0  0  0  0
 13 21  1  0  0  0  0
 13 24  2  0  0  0  0
 14 26  2  0  0  0  0
 14 27  1  0  0  0  0
 15 22  2  0  0  0  0
 15 65  1  0  0  0  0
 16 28  1  0  0  0  0
 17 28  1  0  0  0  0
 17 30  2  0  0  0  0
 17 31  1  0  0  0  0
 18 20  2  0  0  0  0
 18 36  1  0  0  0  0
 19 21  2  0  0  0  0
 19 37  1  0  0  0  0
 20 50  1  0  0  0  0
 21 38  1  0  0  0  0
 22 29  1  0  0  0  0
 22 49  1  0  0  0  0
 23 81  1  0  0  0  0
 24 82  1  0  0  0  0
 25 27  2  0  0  0  0
 25 81  1  0  0  0  0
 26 83  1  0  0  0  0
 27 84  1  0  0  0  0
 28 63  2  0  0  0  0
 29 64  2  0  0  0  0
 29 67  1  0  0  0  0
 30 66  1  0  0  0  0
 30 70  1  0  0  0  0
 31 71  1  0  0  0  0
 31 76  2  0  0  0  0
 32 51  1  0  0  0  0
 32 72  1  0  0  0  0
 32 77  2  0  0  0  0
 33 60  1  0  0  0  0
 33 68  1  0  0  0  0
 33 78  2  0  0  0  0
 34 61  1  0  0  0  0
 34 73  1  0  0  0  0
 34 79  2  0  0  0  0
 35 69  1  0  0  0  0
 35 74  1  0  0  0  0
 35 80  2  0  0  0  0
 36 39  1  0  0  0  0
 37 51  1  0  0  0  0
 38 68  1  0  0  0  0
 39 43  1  0  0  0  0
 40 44  1  0  0  0  0
 40 45  1  0  0  0  0
 41 42  1  0  0  0  0
 41 49  1  0  0  0  0
 42 49  1  0  0  0  0
 43 50  1  0  0  0  0
 44 52  1  0  0  0  0
 45 69  1  0  0  0  0
 46 52  1  0  0  0  0
 46 69  1  0  0  0  0
 47 53  1  0  0  0  0
 47 67  1  0  0  0  0
 48 53  1  0  0  0  0
 48 67  1  0  0  0  0
 50 72  1  0  0  0  0
 51 68  1  0  0  0  0
 52 66  1  0  0  0  0
 53 74  1  0  0  0  0
 54 61  1  0  0  0  0
 55 62  1  0  0  0  0
 56 62  1  0  0  0  0
 57 62  1  0  0  0  0
 58 75  1  0  0  0  0
 59 65  1  0  0  0  0
 59 82  1  0  0  0  0
 60 62  1  0  0  0  0
 60 73  1  0  0  0  0
 61 75  1  0  0  0  0
 63 66  1  0  0  0  0
 64 65  1  0  0  0  0
M  CHG  1  75   1
M  ISO  4  35 100  59 101  74 100  82 101
M  END
> <Batch ID>
0184

> <Smiles>
CNC(C)C(=O)NC(C(=O)N1Cc2cc([101O:1][101CH2:1]n3cc(C4CC4)c(N4CC([100NH:0][100C:0](=O)N5CCCC(n6nc(-c7ccc(Oc8ccc(F)cc8F)cc7)c(C(N)=O)c6N)C5)C4)n3)ccc2CC1C(=O)NC1CCCc2ccccc21)C(C)(C)C

> <Shape>
0.248

> <Color>
0.179

> <Negative vol penalty>
0.000

$$$$

  -OEChem-04052323103D

 85 94  0     1  0  0  0  0  0999 V2000
  -17.0205  -30.4375   23.3278 C   0  0  0  0  0  0  0  0  0  0  0  0
  -18.3127  -30.8681   23.0449 C   0  0  0  0  0  0  0  0  0  0  0  0
  -25.9589  -19.0800   20.3006 C   0  0  0  0  0  0  0  0  0  0  0  0
  -28.0140  -17.9466   19.7266 C   0  0  0  0  0  0  0  0  0  0  0  0
  -16.7650  -29.0799   23.5168 C   0  0  0  0  0  0  0  0  0  0  0  0
  -19.3505  -29.9414   22.9520 C   0  0  0  0  0  0  0  0  0  0  0  0
  -25.4887  -28.7662   19.4508 C   0  0  0  0  0  0  0  0  0  0  0  0
  -25.3228  -17.8483   20.4551 C   0  0  0  0  0  0  0  0  0  0  0  0
  -27.3779  -16.7149   19.8812 C   0  0  0  0  0  0  0  0  0  0  0  0
  -26.8284  -28.4678   19.6959 C   0  0  0  0  0  0  0  0  0  0  0  0
  -23.9803  -15.4713   18.4622 C   0  0  0  0  0  0  0  0  0  0  0  0
  -22.7137  -15.3215   17.8975 C   0  0  0  0  0  0  0  0  0  0  0  0
  -26.2546  -26.1399   19.9630 C   0  0  0  0  0  0  0  0  0  0  0  0
  -21.7943  -14.8571   20.0829 C   0  0  0  0  0  0  0  0  0  0  0  0
  -31.1858  -27.0537   21.7041 C   0  0  0  0  0  0  0  0  0  0  0  0
  -27.3045  -19.1292   19.9363 C   0  0  0  0  0  0  0  0  0  0  0  0
  -28.1272  -21.4018   20.7522 C   0  0  0  0  0  0  0  0  0  0  0  0
  -17.7984  -28.1352   23.4165 C   0  0  0  0  0  0  0  0  0  0  0  0
  -24.5187  -27.7537   19.4708 C   0  0  0  0  0  0  0  0  0  0  0  0
  -19.1089  -28.5701   23.1411 C   0  0  0  0  0  0  0  0  0  0  0  0
  -24.9037  -26.4278   19.7153 C   0  0  0  0  0  0  0  0  0  0  0  0
  -26.0323  -16.6658   20.2455 C   0  0  0  0  0  0  0  0  0  0  0  0
  -27.2111  -27.1549   19.9549 C   0  0  0  0  0  0  0  0  0  0  0  0
  -24.1539  -15.3139   19.8372 C   0  0  0  0  0  0  0  0  0  0  0  0
  -21.6207  -15.0144   18.7078 C   0  0  0  0  0  0  0  0  0  0  0  0
  -23.0609  -15.0068   20.6476 C   0  0  0  0  0  0  0  0  0  0  0  0
  -27.9620  -20.4012   19.7759 C   0  0  0  0  0  0  0  0  0  0  0  0
  -32.4737  -26.5798   21.8491 C   0  0  0  0  0  0  0  0  0  0  0  0
  -30.8247  -27.4190   20.4234 C   0  0  0  0  0  0  0  0  0  0  0  0
  -28.8108  -22.4026   20.1060 C   0  0  0  0  0  0  0  0  0  0  0  0
  -32.8786  -26.8552   19.6293 C   0  0  0  0  0  0  0  0  0  0  0  0
  -27.7010  -21.4246   22.1210 C   0  0  0  0  0  0  0  0  0  0  0  0
  -21.9327  -27.1590   21.2207 C   0  0  0  0  0  0  0  0  0  0  0  0
  -21.5266  -24.7431   19.0944 C   0  0  0  0  0  0  0  0  0  0  0  0
  -22.9317  -22.6031   16.8376 C   0  0  0  0  0  0  0  0  0  0  0  0
  -32.8981  -24.0921   16.7024 C   0  0  0  0  0  0  0  0  0  0  0  0
  -17.4824  -26.6834   23.6755 C   0  0  0  0  0  0  0  0  0  0  0  0
  -23.0817  -28.0880   19.1780 C   0  0  0  0  0  0  0  0  0  0  0  0
  -23.9041  -25.3012   19.7279 C   0  0  0  0  0  0  0  0  0  0  0  0
  -18.5688  -25.7274   23.1897 C   0  0  0  0  0  0  0  0  0  0  0  0
  -29.8473  -23.0427   15.1965 C   0  0  0  0  0  0  0  0  0  0  0  0
  -19.9462  -26.2217   23.6202 C   0  0  0  0  0  0  0  0  0  0  0  0
  -29.1018  -22.3394   16.3321 C   0  0  0  0  0  0  0  0  0  0  0  0
  -31.3519  -22.7920   15.2688 C   0  0  0  0  0  0  0  0  0  0  0  0
  -31.2274  -22.4167   17.7013 C   0  0  0  0  0  0  0  0  0  0  0  0
  -34.1513  -26.8909   23.8028 C   0  0  0  0  0  0  0  0  0  0  0  0
  -20.2566  -27.5928   23.0077 C   0  0  1  0  0  0  0  0  0  0  0  0
  -22.1036  -27.0563   19.7314 C   0  0  1  0  0  0  0  0  0  0  0  0
  -29.7128  -22.6860   17.7032 C   0  0  2  0  0  0  0  0  0  0  0  0
  -32.9428  -26.1638   23.2025 C   0  0  2  0  0  0  0  0  0  0  0  0
  -32.7564  -24.7080   23.5203 C   0  0  0  0  0  0  0  0  0  0  0  0
  -22.3528  -20.7170   15.2868 C   0  0  0  0  0  0  0  0  0  0  0  0
  -21.3383  -22.8456   21.4764 C   0  0  0  0  0  0  0  0  0  0  0  0
  -21.7173  -20.9390   19.8986 C   0  0  0  0  0  0  0  0  0  0  0  0
  -19.7005  -22.3847   19.6434 C   0  0  0  0  0  0  0  0  0  0  0  0
  -32.4182  -26.8379   25.6258 C   0  0  0  0  0  0  0  0  0  0  0  0
  -23.8231  -24.1282   14.4631 C   0  0  0  0  0  0  0  0  0  0  0  0
  -29.4437  -27.9465   20.1663 C   0  0  0  0  0  0  0  0  0  1  0  0
  -33.8187  -26.7451   18.4772 C   0  0  0  0  0  0  0  0  0  0  0  0
  -34.3722  -25.3302   18.2687 C   0  0  0  0  0  0  0  0  0  0  0  0
  -21.9710  -23.3026   19.0153 C   0  0  1  0  0  0  0  0  0  0  0  0
  -22.5278  -22.2214   15.4250 C   0  0  2  0  0  0  0  0  0  0  0  0
  -21.2006  -22.3893   20.0102 C   0  0  0  0  0  0  0  0  0  0  0  0
  -28.4974  -20.7359   18.5989 N   0  0  0  0  0  0  0  0  0  0  0  0
  -33.3500  -26.4668   20.8295 N   0  0  0  0  0  0  0  0  0  0  0  0
  -31.6489  -27.3327   19.3587 N   0  0  0  0  0  0  0  0  0  0  0  0
  -29.0056  -21.9580   18.8314 N   0  0  0  0  0  0  0  0  0  0  0  0
  -22.5104  -25.6797   19.4422 N   0  0  0  0  0  0  0  0  0  0  0  0
  -31.8691  -23.1422   16.5938 N   0  0  0  0  0  0  0  0  0  0  0  0
  -29.2581  -23.6108   20.5093 N   0  0  0  0  0  0  0  0  0  0  0  0
  -28.5709  -20.9258   23.1001 N   0  0  0  0  0  0  0  0  0  0  0  0
  -20.6424  -27.4509   21.6201 N   0  0  0  0  0  0  0  0  0  0  0  0
  -21.8362  -22.9100   17.6167 N   0  0  0  0  0  0  0  0  0  0  0  0
  -33.3257  -24.3708   17.9948 N   0  0  0  0  0  0  0  0  0  0  0  0
  -32.8056  -27.1842   24.2565 N   0  3  1  0  0  0  0  0  0  0  0  0
  -23.5656  -22.6651   14.4518 N   0  3  0  0  0  0  0  0  0  0  0  0
  -26.5751  -21.8589   22.4637 O   0  0  0  0  0  0  0  0  0  0  0  0
  -22.8995  -26.9847   21.9533 O   0  0  0  0  0  0  0  0  0  0  0  0
  -20.3517  -25.0279   18.8494 O   0  0  0  0  0  0  0  0  0  0  0  0
  -24.1016  -22.6232   17.2135 O   0  0  0  0  0  0  0  0  0  0  0  0
  -33.3951  -24.6545   15.7207 O   0  0  0  0  0  0  0  0  0  0  0  0
  -25.4119  -15.4637   20.3965 O   0  0  0  0  0  0  0  0  0  0  0  0
  -28.5179  -26.8610   20.1951 O   0  0  0  0  0  0  0  0  0  1  0  0
  -20.4042  -14.8721   18.1656 F   0  0  0  0  0  0  0  0  0  0  0  0
  -23.2213  -14.8556   21.9694 F   0  0  0  0  0  0  0  0  0  0  0  0
  1  2  1  0  0  0  0
  1  5  2  0  0  0  0
  2  6  2  0  0  0  0
  3  8  2  0  0  0  0
  3 16  1  0  0  0  0
  4  9  1  0  0  0  0
  4 16  2  0  0  0  0
  5 18  1  0  0  0  0
  6 20  1  0  0  0  0
  7 10  2  0  0  0  0
  7 19  1  0  0  0  0
  8 22  1  0  0  0  0
  9 22  2  0  0  0  0
 10 23  1  0  0  0  0
 11 12  2  0  0  0  0
 11 24  1  0  0  0  0
 12 25  1  0  0  0  0
 13 21  1  0  0  0  0
 13 23  2  0  0  0  0
 14 25  2  0  0  0  0
 14 26  1  0  0  0  0
 15 28  2  0  0  0  0
 15 29  1  0  0  0  0
 16 27  1  0  0  0  0
 17 27  1  0  0  0  0
 17 30  2  0  0  0  0
 17 32  1  0  0  0  0
 18 20  2  0  0  0  0
 18 37  1  0  0  0  0
 19 21  2  0  0  0  0
 19 38  1  0  0  0  0
 20 47  1  0  0  0  0
 21 39  1  0  0  0  0
 22 82  1  0  0  0  0
 23 83  1  0  0  0  0
 24 26  2  0  0  0  0
 24 82  1  0  0  0  0
 25 84  1  0  0  0  0
 26 85  1  0  0  0  0
 27 64  2  0  0  0  0
 28 50  1  0  0  0  0
 28 65  1  0  0  0  0
 29 58  1  0  0  0  0
 29 66  2  0  0  0  0
 30 67  1  0  0  0  0
 30 70  1  0  0  0  0
 31 59  1  0  0  0  0
 31 65  2  0  0  0  0
 31 66  1  0  0  0  0
 32 71  1  0  0  0  0
 32 77  2  0  0  0  0
 33 48  1  0  0  0  0
 33 72  1  0  0  0  0
 33 78  2  0  0  0  0
 34 61  1  0  0  0  0
 34 68  1  0  0  0  0
 34 79  2  0  0  0  0
 35 62  1  0  0  0  0
 35 73  1  0  0  0  0
 35 80  2  0  0  0  0
 36 69  1  0  0  0  0
 36 74  1  0  0  0  0
 36 81  2  0  0  0  0
 37 40  1  0  0  0  0
 38 48  1  0  0  0  0
 39 68  1  0  0  0  0
 40 42  1  0  0  0  0
 41 43  1  0  0  0  0
 41 44  1  0  0  0  0
 42 47  1  0  0  0  0
 43 49  1  0  0  0  0
 44 69  1  0  0  0  0
 45 49  1  0  0  0  0
 45 69  1  0  0  0  0
 46 50  1  0  0  0  0
 46 75  1  0  0  0  0
 47 72  1  0  0  0  0
 48 68  1  0  0  0  0
 49 67  1  0  0  0  0
 50 51  1  0  0  0  0
 50 75  1  0  0  0  0
 52 62  1  0  0  0  0
 53 63  1  0  0  0  0
 54 63  1  0  0  0  0
 55 63  1  0  0  0  0
 56 75  1  0  0  0  0
 57 76  1  0  0  0  0
 58 83  1  0  0  0  0
 59 60  1  0  0  0  0
 60 74  1  0  0  0  0
 61 63  1  0  0  0  0
 61 73  1  0  0  0  0
 62 76  1  0  0  0  0
 64 67  1  0  0  0  0
M  CHG  2  75   1  76   1
M  ISO  4  36 100  58 101  74 100  83 101
M  END
> <Batch ID>
0184

> <Smiles>
CNC(C)C(=O)NC(C(=O)N1Cc2cc([101O:1][101CH2:1]c3cc(C4(C)CN4C)nc(CC[100NH:0][100C:0](=O)N4CCCC(n5nc(-c6ccc(Oc7ccc(F)cc7F)cc6)c(C(N)=O)c5N)C4)n3)ccc2CC1C(=O)NC1CCCc2ccccc21)C(C)(C)C

> <Shape>
0.193

> <Color>
0.068

> <Negative vol penalty>
0.000

$$$$

  -OEChem-04052323103D

 83 92  0     1  0  0  0  0  0999 V2000
  -22.0210  -23.4648   21.8591 C   0  0  0  0  0  0  0  0  0  0  0  0
  -23.1780  -22.7411   22.1295 C   0  0  0  0  0  0  0  0  0  0  0  0
  -25.9085  -27.2153   21.1433 C   0  0  0  0  0  0  0  0  0  0  0  0
  -26.3349  -28.2478   19.0011 C   0  0  0  0  0  0  0  0  0  0  0  0
  -20.7748  -22.8476   21.9592 C   0  0  0  0  0  0  0  0  0  0  0  0
  -23.0893  -21.4000   22.5012 C   0  0  0  0  0  0  0  0  0  0  0  0
  -26.4606  -18.4892   20.0915 C   0  0  0  0  0  0  0  0  0  0  0  0
  -24.9035  -28.1495   21.3936 C   0  0  0  0  0  0  0  0  0  0  0  0
  -25.3298  -29.1821   19.2514 C   0  0  0  0  0  0  0  0  0  0  0  0
  -27.7758  -18.5227   20.5530 C   0  0  0  0  0  0  0  0  0  0  0  0
  -21.6841  -28.6478   20.4879 C   0  0  0  0  0  0  0  0  0  0  0  0
  -20.4766  -28.1782   21.0044 C   0  0  0  0  0  0  0  0  0  0  0  0
  -27.4026  -16.4605   21.7477 C   0  0  0  0  0  0  0  0  0  0  0  0
  -20.7705  -29.5702   22.9572 C   0  0  0  0  0  0  0  0  0  0  0  0
  -26.6243  -27.2645   19.9471 C   0  0  0  0  0  0  0  0  0  0  0  0
  -27.5237  -25.0492   19.0574 C   0  0  0  0  0  0  0  0  0  0  0  0
  -20.6713  -21.4957   22.3228 C   0  0  0  0  0  0  0  0  0  0  0  0
  -25.6019  -17.4451   20.4641 C   0  0  0  0  0  0  0  0  0  0  0  0
  -21.8404  -20.7646   22.6075 C   0  0  0  0  0  0  0  0  0  0  0  0
  -26.0778  -16.4147   21.2875 C   0  0  0  0  0  0  0  0  0  0  0  0
  -24.6141  -29.1329   20.4477 C   0  0  0  0  0  0  0  0  0  0  0  0
  -28.2461  -17.5097   21.3836 C   0  0  0  0  0  0  0  0  0  0  0  0
  -22.4350  -29.5786   21.2060 C   0  0  0  0  0  0  0  0  0  0  0  0
  -20.0198  -28.6394   22.2390 C   0  0  0  0  0  0  0  0  0  0  0  0
  -21.9781  -30.0398   22.4406 C   0  0  0  0  0  0  0  0  0  0  0  0
  -27.6630  -26.3000   19.6882 C   0  0  0  0  0  0  0  0  0  0  0  0
  -28.7922  -24.5227   19.0550 C   0  0  0  0  0  0  0  0  0  0  0  0
  -26.3523  -24.4197   18.5213 C   0  0  0  0  0  0  0  0  0  0  0  0
  -22.8682  -17.2556   22.0750 C   0  0  0  0  0  0  0  0  0  0  0  0
  -23.0029  -14.1431   21.1713 C   0  0  0  0  0  0  0  0  0  0  0  0
  -24.9131  -11.4930   20.1839 C   0  0  0  0  0  0  0  0  0  0  0  0
  -33.6119  -23.4504   21.4089 C   0  0  0  0  0  0  0  0  0  0  0  0
  -19.2996  -20.8848   22.4637 C   0  0  0  0  0  0  0  0  0  0  0  0
  -24.1939  -17.4095   19.9361 C   0  0  0  0  0  0  0  0  0  0  0  0
  -25.2021  -15.2609   21.7001 C   0  0  0  0  0  0  0  0  0  0  0  0
  -19.3132  -19.3588   22.4994 C   0  0  0  0  0  0  0  0  0  0  0  0
  -33.2504  -26.6388   20.1350 C   0  0  0  0  0  0  0  0  0  0  0  0
  -20.3938  -18.8567   23.4518 C   0  0  0  0  0  0  0  0  0  0  0  0
  -31.7532  -26.7452   19.8453 C   0  0  0  0  0  0  0  0  0  0  0  0
  -31.0264  -16.9606   24.3271 C   0  0  0  0  0  0  0  0  0  0  0  0
  -31.9961  -17.4626   23.2319 C   0  0  0  0  0  0  0  0  0  0  0  0
  -33.5011  -25.9236   21.4578 C   0  0  0  0  0  0  0  0  0  0  0  0
  -33.8608  -21.0655   21.9952 C   0  0  0  0  0  0  0  0  0  0  0  0
  -32.1179  -22.3744   23.1372 C   0  0  0  0  0  0  0  0  0  0  0  0
  -32.9341  -19.8501   22.0272 C   0  0  0  0  0  0  0  0  0  0  0  0
  -31.2147  -21.1427   23.1401 C   0  0  0  0  0  0  0  0  0  0  0  0
  -31.3887  -24.6552   21.2480 C   0  0  0  0  0  0  0  0  0  0  0  0
  -21.7867  -19.3013   22.9895 C   0  0  1  0  0  0  0  0  0  0  0  0
  -23.2546  -16.5690   20.7955 C   0  0  1  0  0  0  0  0  0  0  0  0
  -31.0770  -25.3643   19.9147 C   0  0  1  0  0  0  0  0  0  0  0  0
  -30.6831  -18.4421   24.6124 C   0  0  1  0  0  0  0  0  0  0  0  0
  -31.1275  -18.7492   23.1498 C   0  0  2  0  0  0  0  0  0  0  0  0
  -24.7450   -9.0696   19.5545 C   0  0  0  0  0  0  0  0  0  0  0  0
  -22.6720  -13.4045   24.1132 C   0  0  0  0  0  0  0  0  0  0  0  0
  -23.4535  -11.0938   23.5490 C   0  0  0  0  0  0  0  0  0  0  0  0
  -21.3594  -11.9847   22.5271 C   0  0  0  0  0  0  0  0  0  0  0  0
  -28.7737  -18.0953   26.1735 C   0  0  0  0  0  0  0  0  0  0  0  0
  -25.9724  -12.0051   17.4683 C   0  0  0  0  0  0  0  0  0  0  0  0
  -30.1259  -18.8228   22.0146 C   0  0  0  0  0  0  0  0  0  1  0  0
  -23.5937  -12.8840   21.7583 C   0  0  1  0  0  0  0  0  0  0  0  0
  -24.7499  -10.5025   19.0452 C   0  0  2  0  0  0  0  0  0  0  0  0
  -22.7858  -12.3644   22.9809 C   0  0  0  0  0  0  0  0  0  0  0  0
  -28.9208  -26.5529   20.0598 N   0  0  0  0  0  0  0  0  0  0  0  0
  -29.5834  -25.4536   19.6613 N   0  0  0  0  0  0  0  0  0  0  0  0
  -23.8314  -15.2742   21.1631 N   0  0  0  0  0  0  0  0  0  0  0  0
  -32.8399  -24.6193   21.4844 N   0  0  0  0  0  0  0  0  0  0  0  0
  -33.1003  -22.3114   22.0490 N   0  0  0  0  0  0  0  0  0  0  0  0
  -32.0186  -19.9130   23.1743 N   0  0  0  0  0  0  0  0  0  0  0  0
  -29.2969  -23.3587   18.5936 N   0  0  0  0  0  0  0  0  0  0  0  0
  -25.1299  -25.0999   18.6067 N   0  0  0  0  0  0  0  0  0  0  0  0
  -22.2430  -18.4744   21.8929 N   0  0  0  0  0  0  0  0  0  0  0  0
  -23.6947  -11.9297   20.6595 N   0  0  0  0  0  0  0  0  0  0  0  0
  -29.2565  -18.6636   24.8824 N   0  3  0  0  0  0  0  0  0  0  0  0
  -25.8645  -10.6497   18.0669 N   0  3  0  0  0  0  0  0  0  0  0  0
  -26.3857  -23.2805   17.9973 O   0  0  0  0  0  0  0  0  0  0  0  0
  -23.1176  -16.7186   23.1479 O   0  0  0  0  0  0  0  0  0  0  0  0
  -21.8514  -14.1219   20.7296 O   0  0  0  0  0  0  0  0  0  0  0  0
  -26.0114  -11.8414   20.6114 O   0  0  0  0  0  0  0  0  0  0  0  0
  -34.6898  -23.4215   20.8021 O   0  0  0  0  0  0  0  0  0  0  0  0
  -23.6332  -30.0445   20.6915 O   0  0  0  0  0  0  0  0  0  0  0  0
  -29.5385  -17.5405   21.8393 O   0  0  0  0  0  0  0  0  0  1  0  0
  -18.8594  -28.1894   22.7342 F   0  0  0  0  0  0  0  0  0  0  0  0
  -22.6945  -30.9348   23.1346 F   0  0  0  0  0  0  0  0  0  0  0  0
  1  2  1  0  0  0  0
  1  5  2  0  0  0  0
  2  6  2  0  0  0  0
  3  8  2  0  0  0  0
  3 15  1  0  0  0  0
  4  9  1  0  0  0  0
  4 15  2  0  0  0  0
  5 17  1  0  0  0  0
  6 19  1  0  0  0  0
  7 10  2  0  0  0  0
  7 18  1  0  0  0  0
  8 21  1  0  0  0  0
  9 21  2  0  0  0  0
 10 22  1  0  0  0  0
 11 12  2  0  0  0  0
 11 23  1  0  0  0  0
 12 24  1  0  0  0  0
 13 20  1  0  0  0  0
 13 22  2  0  0  0  0
 14 24  2  0  0  0  0
 14 25  1  0  0  0  0
 15 26  1  0  0  0  0
 16 26  1  0  0  0  0
 16 27  2  0  0  0  0
 16 28  1  0  0  0  0
 17 19  2  0  0  0  0
 17 33  1  0  0  0  0
 18 20  2  0  0  0  0
 18 34  1  0  0  0  0
 19 48  1  0  0  0  0
 20 35  1  0  0  0  0
 21 80  1  0  0  0  0
 22 81  1  0  0  0  0
 23 25  2  0  0  0  0
 23 80  1  0  0  0  0
 24 82  1  0  0  0  0
 25 83  1  0  0  0  0
 26 63  2  0  0  0  0
 27 64  1  0  0  0  0
 27 69  1  0  0  0  0
 28 70  1  0  0  0  0
 28 75  2  0  0  0  0
 29 49  1  0  0  0  0
 29 71  1  0  0  0  0
 29 76  2  0  0  0  0
 30 60  1  0  0  0  0
 30 65  1  0  0  0  0
 30 77  2  0  0  0  0
 31 61  1  0  0  0  0
 31 72  1  0  0  0  0
 31 78  2  0  0  0  0
 32 66  1  0  0  0  0
 32 67  1  0  0  0  0
 32 79  2  0  0  0  0
 33 36  1  0  0  0  0
 34 49  1  0  0  0  0
 35 65  1  0  0  0  0
 36 38  1  0  0  0  0
 37 39  1  0  0  0  0
 37 42  1  0  0  0  0
 38 48  1  0  0  0  0
 39 50  1  0  0  0  0
 40 41  1  0  0  0  0
 40 51  1  0  0  0  0
 41 52  1  0  0  0  0
 42 66  1  0  0  0  0
 43 45  1  0  0  0  0
 43 67  1  0  0  0  0
 44 46  1  0  0  0  0
 44 67  1  0  0  0  0
 45 68  1  0  0  0  0
 46 68  1  0  0  0  0
 47 50  1  0  0  0  0
 47 66  1  0  0  0  0
 48 71  1  0  0  0  0
 49 65  1  0  0  0  0
 50 64  1  0  0  0  0
 51 52  1  0  0  0  0
 51 73  1  0  0  0  0
 52 59  1  0  0  0  0
 52 68  1  0  0  0  0
 53 61  1  0  0  0  0
 54 62  1  0  0  0  0
 55 62  1  0  0  0  0
 56 62  1  0  0  0  0
 57 73  1  0  0  0  0
 58 74  1  0  0  0  0
 59 81  1  0  0  0  0
 60 62  1  0  0  0  0
 60 72  1  0  0  0  0
 61 74  1  0  0  0  0
 63 64  1  0  0  0  0
M  CHG  2  73   1  74   1
M  ISO  4  32 100  59 101  67 100  81 101
M  END
> <Batch ID>
0184

> <Smiles>
CNC(C)C(=O)NC(C(=O)N1Cc2cc([101O:1][101CH2:1]C3(N4CC[100N:0]([100C:0](=O)N5CCCC(n6nc(-c7ccc(Oc8ccc(F)cc8F)cc7)c(C(N)=O)c6N)C5)CC4)CCC3NC)ccc2CC1C(=O)NC1CCCc2ccccc21)C(C)(C)C

> <Shape>
0.185

> <Color>
0.074

> <Negative vol penalty>
0.000

$$$$

  -OEChem-04052323103D

 82 91  0     1  0  0  0  0  0999 V2000
  -29.4957  -12.6739   19.3044 C   0  0  0  0  0  0  0  0  0  0  0  0
  -29.3561  -14.0449   19.1139 C   0  0  0  0  0  0  0  0  0  0  0  0
  -20.4503  -28.4202   23.3476 C   0  0  0  0  0  0  0  0  0  0  0  0
  -20.8850  -26.4107   22.0786 C   0  0  0  0  0  0  0  0  0  0  0  0
  -28.3838  -11.9005   19.6353 C   0  0  0  0  0  0  0  0  0  0  0  0
  -28.1043  -14.6431   19.2531 C   0  0  0  0  0  0  0  0  0  0  0  0
  -28.2912  -18.9400   21.9265 C   0  0  0  0  0  0  0  0  0  0  0  0
  -19.1504  -28.4575   22.8434 C   0  0  0  0  0  0  0  0  0  0  0  0
  -19.5850  -26.4480   21.5744 C   0  0  0  0  0  0  0  0  0  0  0  0
  -28.7545  -20.0790   21.2695 C   0  0  0  0  0  0  0  0  0  0  0  0
  -16.4794  -25.6420   22.6356 C   0  0  0  0  0  0  0  0  0  0  0  0
  -15.7587  -24.4479   22.6169 C   0  0  0  0  0  0  0  0  0  0  0  0
  -26.4788  -20.8120   20.9484 C   0  0  0  0  0  0  0  0  0  0  0  0
  -15.5448  -24.6146   20.2161 C   0  0  0  0  0  0  0  0  0  0  0  0
  -30.2579  -25.1621   17.8078 C   0  0  0  0  0  0  0  0  0  0  0  0
  -21.3177  -27.3968   22.9652 C   0  0  0  0  0  0  0  0  0  0  0  0
  -23.1005  -26.7130   24.6569 C   0  0  0  0  0  0  0  0  0  0  0  0
  -27.1195  -12.4911   19.7882 C   0  0  0  0  0  0  0  0  0  0  0  0
  -26.9155  -18.7227   22.0901 C   0  0  0  0  0  0  0  0  0  0  0  0
  -26.9742  -13.8767   19.5851 C   0  0  0  0  0  0  0  0  0  0  0  0
  -26.0007  -19.6707   21.6101 C   0  0  0  0  0  0  0  0  0  0  0  0
  -29.8558  -23.8542   17.9274 C   0  0  0  0  0  0  0  0  0  0  0  0
  -18.7177  -27.4714   21.9568 C   0  0  0  0  0  0  0  0  0  0  0  0
  -27.8481  -21.0138   20.7777 C   0  0  0  0  0  0  0  0  0  0  0  0
  -16.7328  -26.3224   21.4446 C   0  0  0  0  0  0  0  0  0  0  0  0
  -15.2914  -23.9342   21.4072 C   0  0  0  0  0  0  0  0  0  0  0  0
  -16.2656  -25.8087   20.2349 C   0  0  0  0  0  0  0  0  0  0  0  0
  -22.6608  -27.3580   23.4853 C   0  0  0  0  0  0  0  0  0  0  0  0
  -30.0046  -23.5641   19.2968 C   0  0  0  0  0  0  0  0  0  0  0  0
  -24.4484  -26.9723   24.7064 C   0  0  0  0  0  0  0  0  0  0  0  0
  -22.3570  -25.9479   25.6147 C   0  0  0  0  0  0  0  0  0  0  0  0
  -24.8670  -16.4911   21.1270 C   0  0  0  0  0  0  0  0  0  0  0  0
  -22.8011  -18.1226   23.0224 C   0  0  0  0  0  0  0  0  0  0  0  0
  -21.9649  -21.0642   24.5373 C   0  0  0  0  0  0  0  0  0  0  0  0
  -28.2722  -28.2221   20.2999 C   0  0  0  0  0  0  0  0  0  0  0  0
  -25.9382  -11.6069   20.1003 C   0  0  0  0  0  0  0  0  0  0  0  0
  -26.4328  -17.5021   22.8247 C   0  0  0  0  0  0  0  0  0  0  0  0
  -24.5144  -19.4942   21.7779 C   0  0  0  0  0  0  0  0  0  0  0  0
  -24.7163  -12.3756   20.5967 C   0  0  0  0  0  0  0  0  0  0  0  0
  -27.7053  -30.1884   23.3806 C   0  0  0  0  0  0  0  0  0  0  0  0
  -24.4547  -13.5908   19.7127 C   0  0  0  0  0  0  0  0  0  0  0  0
  -26.3461  -29.6544   23.8210 C   0  0  0  0  0  0  0  0  0  0  0  0
  -32.3290  -27.5891   18.5788 C   0  0  0  0  0  0  0  0  0  0  0  0
  -31.6904  -28.9806   18.7463 C   0  0  0  0  0  0  0  0  0  0  0  0
  -27.8482  -30.2141   21.8592 C   0  0  0  0  0  0  0  0  0  0  0  0
  -26.2098  -28.3622   21.6576 C   0  0  0  0  0  0  0  0  0  0  0  0
  -25.6374  -14.5662   19.7516 C   0  0  1  0  0  0  0  0  0  0  0  0
  -24.9940  -17.1284   22.4818 C   0  0  1  0  0  0  0  0  0  0  0  0
  -26.0722  -28.2833   23.1854 C   0  0  2  0  0  0  0  0  0  0  0  0
  -31.1396  -27.0158   19.4078 C   0  0  1  0  0  0  0  0  0  0  0  0
  -30.3353  -28.2565   18.9006 C   0  0  1  0  0  0  0  0  0  0  0  0
  -29.3781  -22.9654   16.8551 C   0  0  0  0  0  0  0  0  0  0  0  0
  -20.2002  -22.0997   25.9902 C   0  0  0  0  0  0  0  0  0  0  0  0
  -20.9254  -18.2888   20.6216 C   0  0  0  0  0  0  0  0  0  0  0  0
  -19.6690  -20.0949   21.8165 C   0  0  0  0  0  0  0  0  0  0  0  0
  -19.7932  -17.8052   22.7985 C   0  0  0  0  0  0  0  0  0  0  0  0
  -23.9135  -21.6493   26.6866 C   0  0  0  0  0  0  0  0  0  0  0  0
  -29.7108  -22.2719   20.0006 C   0  0  0  0  0  0  0  0  0  1  0  0
  -21.8490  -19.2767   22.8210 C   0  0  1  0  0  0  0  0  0  0  0  0
  -21.5391  -21.3791   25.9600 C   0  0  2  0  0  0  0  0  0  0  0  0
  -20.5870  -18.8691   22.0093 C   0  0  0  0  0  0  0  0  0  0  0  0
  -23.6492  -27.9804   22.8374 N   0  0  0  0  0  0  0  0  0  0  0  0
  -30.4654  -24.6039   19.9971 N   0  0  0  0  0  0  0  0  0  0  0  0
  -30.6097  -25.5602   19.0640 N   0  0  0  0  0  0  0  0  0  0  0  0
  -24.7234  -27.7277   23.6046 N   0  0  0  0  0  0  0  0  0  0  0  0
  -24.0915  -18.2815   22.4975 N   0  0  0  0  0  0  0  0  0  0  0  0
  -27.5101  -28.9142   21.2581 N   0  0  0  0  0  0  0  0  0  0  0  0
  -25.4134  -26.6256   25.5845 N   0  0  0  0  0  0  0  0  0  0  0  0
  -20.9805  -25.7793   25.4117 N   0  0  0  0  0  0  0  0  0  0  0  0
  -25.6150  -15.3392   20.9748 N   0  0  0  0  0  0  0  0  0  0  0  0
  -21.5600  -19.8043   24.1501 N   0  0  0  0  0  0  0  0  0  0  0  0
  -29.4468  -28.8463   19.8915 N   0  0  0  0  0  0  0  0  0  0  0  0
  -22.5539  -22.2447   26.6248 N   0  3  0  0  0  0  0  0  0  0  0  0
  -22.8943  -25.4429   26.6295 O   0  0  0  0  0  0  0  0  0  0  0  0
  -24.1429  -17.0055   20.2828 O   0  0  0  0  0  0  0  0  0  0  0  0
  -22.4164  -17.1202   23.6296 O   0  0  0  0  0  0  0  0  0  0  0  0
  -22.5906  -21.8580   23.8381 O   0  0  0  0  0  0  0  0  0  0  0  0
  -27.9326  -27.1297   19.8323 O   0  0  0  0  0  0  0  0  0  0  0  0
  -17.4492  -27.5074   21.4647 O   0  0  0  0  0  0  0  0  0  0  0  0
  -28.2976  -22.1262   20.1354 O   0  0  0  0  0  0  0  0  0  1  0  0
  -14.6006  -22.7867   21.3892 F   0  0  0  0  0  0  0  0  0  0  0  0
  -16.5069  -26.4573   19.0873 F   0  0  0  0  0  0  0  0  0  0  0  0
  1  2  1  0  0  0  0
  1  5  2  0  0  0  0
  2  6  2  0  0  0  0
  3  8  2  0  0  0  0
  3 16  1  0  0  0  0
  4  9  1  0  0  0  0
  4 16  2  0  0  0  0
  5 18  1  0  0  0  0
  6 20  1  0  0  0  0
  7 10  2  0  0  0  0
  7 19  1  0  0  0  0
  8 23  1  0  0  0  0
  9 23  2  0  0  0  0
 10 24  1  0  0  0  0
 11 12  2  0  0  0  0
 11 25  1  0  0  0  0
 12 26  1  0  0  0  0
 13 21  1  0  0  0  0
 13 24  2  0  0  0  0
 14 26  2  0  0  0  0
 14 27  1  0  0  0  0
 15 22  2  0  0  0  0
 15 64  1  0  0  0  0
 16 28  1  0  0  0  0
 17 28  1  0  0  0  0
 17 30  2  0  0  0  0
 17 31  1  0  0  0  0
 18 20  2  0  0  0  0
 18 36  1  0  0  0  0
 19 21  2  0  0  0  0
 19 37  1  0  0  0  0
 20 47  1  0  0  0  0
 21 38  1  0  0  0  0
 22 29  1  0  0  0  0
 22 52  1  0  0  0  0
 23 79  1  0  0  0  0
 24 80  1  0  0  0  0
 25 27  2  0  0  0  0
 25 79  1  0  0  0  0
 26 81  1  0  0  0  0
 27 82  1  0  0  0  0
 28 62  2  0  0  0  0
 29 58  1  0  0  0  0
 29 63  2  0  0  0  0
 30 65  1  0  0  0  0
 30 68  1  0  0  0  0
 31 69  1  0  0  0  0
 31 74  2  0  0  0  0
 32 48  1  0  0  0  0
 32 70  1  0  0  0  0
 32 75  2  0  0  0  0
 33 59  1  0  0  0  0
 33 66  1  0  0  0  0
 33 76  2  0  0  0  0
 34 60  1  0  0  0  0
 34 71  1  0  0  0  0
 34 77  2  0  0  0  0
 35 67  1  0  0  0  0
 35 72  1  0  0  0  0
 35 78  2  0  0  0  0
 36 39  1  0  0  0  0
 37 48  1  0  0  0  0
 38 66  1  0  0  0  0
 39 41  1  0  0  0  0
 40 42  1  0  0  0  0
 40 45  1  0  0  0  0
 41 47  1  0  0  0  0
 42 49  1  0  0  0  0
 43 44  1  0  0  0  0
 43 50  1  0  0  0  0
 44 51  1  0  0  0  0
 45 67  1  0  0  0  0
 46 49  1  0  0  0  0
 46 67  1  0  0  0  0
 47 70  1  0  0  0  0
 48 66  1  0  0  0  0
 49 65  1  0  0  0  0
 50 51  1  0  0  0  0
 50 64  1  0  0  0  0
 51 72  1  0  0  0  0
 53 60  1  0  0  0  0
 54 61  1  0  0  0  0
 55 61  1  0  0  0  0
 56 61  1  0  0  0  0
 57 73  1  0  0  0  0
 58 80  1  0  0  0  0
 59 61  1  0  0  0  0
 59 71  1  0  0  0  0
 60 73  1  0  0  0  0
 62 65  1  0  0  0  0
 63 64  1  0  0  0  0
M  CHG  1  73   1
M  ISO  4  35 100  58 101  72 100  80 101
M  END
> <Batch ID>
0184

> <Smiles>
CNC(C)C(=O)NC(C(=O)N1Cc2cc([101O:1][101CH2:1]c3nn(C4CCC4[100NH:0][100C:0](=O)N4CCCC(n5nc(-c6ccc(Oc7ccc(F)cc7F)cc6)c(C(N)=O)c5N)C4)cc3C)ccc2CC1C(=O)NC1CCCc2ccccc21)C(C)(C)C

> <Shape>
0.224

> <Color>
0.068

> <Negative vol penalty>
0.000

$$$$

  -OEChem-04052323103D

 82 90  0     1  0  0  0  0  0999 V2000
  -17.0175  -30.9331   23.6139 C   0  0  0  0  0  0  0  0  0  0  0  0
  -18.3241  -31.3782   23.4410 C   0  0  0  0  0  0  0  0  0  0  0  0
  -26.6467  -12.9262   21.4270 C   0  0  0  0  0  0  0  0  0  0  0  0
  -25.5700  -12.4555   19.3160 C   0  0  0  0  0  0  0  0  0  0  0  0
  -16.7362  -29.5681   23.5740 C   0  0  0  0  0  0  0  0  0  0  0  0
  -19.3506  -30.4584   23.2292 C   0  0  0  0  0  0  0  0  0  0  0  0
  -25.5768  -29.7419   19.7598 C   0  0  0  0  0  0  0  0  0  0  0  0
  -25.6261  -12.2524   22.0978 C   0  0  0  0  0  0  0  0  0  0  0  0
  -24.5494  -11.7817   19.9868 C   0  0  0  0  0  0  0  0  0  0  0  0
  -26.9036  -29.3818   19.9914 C   0  0  0  0  0  0  0  0  0  0  0  0
  -24.0828   -8.7524   21.4102 C   0  0  0  0  0  0  0  0  0  0  0  0
  -23.6716   -7.5234   20.8945 C   0  0  0  0  0  0  0  0  0  0  0  0
  -26.2876  -27.0530   19.8629 C   0  0  0  0  0  0  0  0  0  0  0  0
  -21.4377   -8.3948   20.5991 C   0  0  0  0  0  0  0  0  0  0  0  0
  -26.6187  -13.0277   20.0361 C   0  0  0  0  0  0  0  0  0  0  0  0
  -28.8732  -13.1772   18.8518 C   0  0  0  0  0  0  0  0  0  0  0  0
  -17.7582  -28.6317   23.3519 C   0  0  0  0  0  0  0  0  0  0  0  0
  -24.5919  -28.7586   19.5886 C   0  0  0  0  0  0  0  0  0  0  0  0
  -19.0829  -29.0795   23.1876 C   0  0  0  0  0  0  0  0  0  0  0  0
  -24.9495  -27.4033   19.6267 C   0  0  0  0  0  0  0  0  0  0  0  0
  -24.5774  -11.6802   21.3777 C   0  0  0  0  0  0  0  0  0  0  0  0
  -27.2587  -28.0372   20.0459 C   0  0  0  0  0  0  0  0  0  0  0  0
  -23.1715   -9.8026   21.5204 C   0  0  0  0  0  0  0  0  0  0  0  0
  -22.3491   -7.3446   20.4889 C   0  0  0  0  0  0  0  0  0  0  0  0
  -21.8489   -9.6238   21.1149 C   0  0  0  0  0  0  0  0  0  0  0  0
  -27.6724  -13.7241   19.3426 C   0  0  0  0  0  0  0  0  0  0  0  0
  -29.5268  -14.2415   18.2803 C   0  0  0  0  0  0  0  0  0  0  0  0
  -29.3547  -11.8279   18.9076 C   0  0  0  0  0  0  0  0  0  0  0  0
  -21.9441  -27.9408   21.1455 C   0  0  0  0  0  0  0  0  0  0  0  0
  -21.5689  -25.9070   18.6465 C   0  0  0  0  0  0  0  0  0  0  0  0
  -23.0119  -24.1308   16.1147 C   0  0  0  0  0  0  0  0  0  0  0  0
  -29.1758  -20.0478   19.4165 C   0  0  0  0  0  0  0  0  0  0  0  0
  -17.4129  -27.1636   23.3641 C   0  0  0  0  0  0  0  0  0  0  0  0
  -23.1698  -29.1637   19.3130 C   0  0  0  0  0  0  0  0  0  0  0  0
  -23.9335  -26.3092   19.4290 C   0  0  0  0  0  0  0  0  0  0  0  0
  -18.4998  -26.2772   22.7614 C   0  0  0  0  0  0  0  0  0  0  0  0
  -28.7398  -18.4317   16.1549 C   0  0  0  0  0  0  0  0  0  0  0  0
  -19.8703  -26.6687   23.3049 C   0  0  0  0  0  0  0  0  0  0  0  0
  -28.4660  -16.9919   16.5761 C   0  0  0  0  0  0  0  0  0  0  0  0
  -27.9949  -23.1484   19.9373 C   0  0  0  0  0  0  0  0  0  0  0  0
  -28.1731  -19.4462   17.1490 C   0  0  0  0  0  0  0  0  0  0  0  0
  -27.6680  -22.1103   18.8594 C   0  0  0  0  0  0  0  0  0  0  0  0
  -28.3380  -17.7684   18.9687 C   0  0  0  0  0  0  0  0  0  0  0  0
  -20.2197  -28.1142   22.9308 C   0  0  1  0  0  0  0  0  0  0  0  0
  -22.1598  -28.0758   19.6646 C   0  0  1  0  0  0  0  0  0  0  0  0
  -28.9631  -16.7468   18.0085 C   0  0  1  0  0  0  0  0  0  0  0  0
  -29.3855  -22.5091   20.0714 C   0  0  2  0  0  0  0  0  0  0  0  0
  -22.4539  -22.5305   14.2640 C   0  0  0  0  0  0  0  0  0  0  0  0
  -33.3044  -25.9950   21.5972 C   0  0  0  0  0  0  0  0  0  0  0  0
  -21.2785  -23.6550   20.6847 C   0  0  0  0  0  0  0  0  0  0  0  0
  -21.6784  -22.0200   18.8313 C   0  0  0  0  0  0  0  0  0  0  0  0
  -19.6920  -23.5271   18.7557 C   0  0  0  0  0  0  0  0  0  0  0  0
  -23.9992  -26.0003   14.0437 C   0  0  0  0  0  0  0  0  0  0  0  0
  -30.5356  -23.1719   19.3393 C   0  0  0  0  0  0  0  0  0  0  0  0
  -30.8168  -27.7842   19.4803 C   0  0  0  0  0  0  0  0  0  0  0  0
  -32.1465  -25.0724   19.5177 C   0  0  0  0  0  0  0  0  0  0  0  0
  -29.5628  -28.5782   19.8122 C   0  0  0  0  0  0  0  0  0  1  0  0
  -21.9942  -24.4895   18.3486 C   0  0  1  0  0  0  0  0  0  0  0  0
  -22.6467  -23.9893   14.6481 C   0  0  2  0  0  0  0  0  0  0  0  0
  -32.5092  -26.3122   20.3344 C   0  0  1  0  0  0  0  0  0  0  0  0
  -21.1798  -23.4432   19.1608 C   0  0  0  0  0  0  0  0  0  0  0  0
  -27.5668  -15.0340   19.1038 N   0  0  0  0  0  0  0  0  0  0  0  0
  -28.7097  -15.3192   18.4568 N   0  0  0  0  0  0  0  0  0  0  0  0
  -22.5550  -26.7559   19.1687 N   0  0  0  0  0  0  0  0  0  0  0  0
  -28.5781  -19.1475   18.5278 N   0  0  0  0  0  0  0  0  0  0  0  0
  -28.8431  -21.3801   19.3122 N   0  0  0  0  0  0  0  0  0  0  0  0
  -30.7150  -14.3513   17.6490 N   0  0  0  0  0  0  0  0  0  0  0  0
  -28.5570  -10.8590   19.5314 N   0  0  0  0  0  0  0  0  0  0  0  0
  -20.6464  -28.1898   21.5500 N   0  0  0  0  0  0  0  0  0  0  0  0
  -21.8973  -24.3297   16.9017 N   0  0  0  0  0  0  0  0  0  0  0  0
  -31.3338  -27.0874   20.6559 N   0  0  0  0  0  0  0  0  0  0  0  0
  -23.7207  -24.5634   13.7891 N   0  3  0  0  0  0  0  0  0  0  0  0
  -30.9775  -24.3598   20.1047 N   0  3  0  0  0  0  0  0  0  0  0  0
  -30.4671  -11.4946   18.4332 O   0  0  0  0  0  0  0  0  0  0  0  0
  -22.8849  -27.6321   21.8674 O   0  0  0  0  0  0  0  0  0  0  0  0
  -20.4065  -26.2503   18.4174 O   0  0  0  0  0  0  0  0  0  0  0  0
  -24.1697  -24.0673   16.5220 O   0  0  0  0  0  0  0  0  0  0  0  0
  -29.9599  -19.6728   20.2983 O   0  0  0  0  0  0  0  0  0  0  0  0
  -23.5814  -11.0225   22.0319 O   0  0  0  0  0  0  0  0  0  0  0  0
  -28.5622  -27.6803   20.2741 O   0  0  0  0  0  0  0  0  0  1  0  0
  -21.9547   -6.1647   19.9923 F   0  0  0  0  0  0  0  0  0  0  0  0
  -20.9691  -10.6294   21.2172 F   0  0  0  0  0  0  0  0  0  0  0  0
  1  2  1  0  0  0  0
  1  5  2  0  0  0  0
  2  6  2  0  0  0  0
  3  8  2  0  0  0  0
  3 15  1  0  0  0  0
  4  9  1  0  0  0  0
  4 15  2  0  0  0  0
  5 17  1  0  0  0  0
  6 19  1  0  0  0  0
  7 10  2  0  0  0  0
  7 18  1  0  0  0  0
  8 21  1  0  0  0  0
  9 21  2  0  0  0  0
 10 22  1  0  0  0  0
 11 12  2  0  0  0  0
 11 23  1  0  0  0  0
 12 24  1  0  0  0  0
 13 20  1  0  0  0  0
 13 22  2  0  0  0  0
 14 24  2  0  0  0  0
 14 25  1  0  0  0  0
 15 26  1  0  0  0  0
 16 26  1  0  0  0  0
 16 27  2  0  0  0  0
 16 28  1  0  0  0  0
 17 19  2  0  0  0  0
 17 33  1  0  0  0  0
 18 20  2  0  0  0  0
 18 34  1  0  0  0  0
 19 44  1  0  0  0  0
 20 35  1  0  0  0  0
 21 79  1  0  0  0  0
 22 80  1  0  0  0  0
 23 25  2  0  0  0  0
 23 79  1  0  0  0  0
 24 81  1  0  0  0  0
 25 82  1  0  0  0  0
 26 62  2  0  0  0  0
 27 63  1  0  0  0  0
 27 67  1  0  0  0  0
 28 68  1  0  0  0  0
 28 74  2  0  0  0  0
 29 45  1  0  0  0  0
 29 69  1  0  0  0  0
 29 75  2  0  0  0  0
 30 58  1  0  0  0  0
 30 64  1  0  0  0  0
 30 76  2  0  0  0  0
 31 59  1  0  0  0  0
 31 70  1  0  0  0  0
 31 77  2  0  0  0  0
 32 65  1  0  0  0  0
 32 66  1  0  0  0  0
 32 78  2  0  0  0  0
 33 36  1  0  0  0  0
 34 45  1  0  0  0  0
 35 64  1  0  0  0  0
 36 38  1  0  0  0  0
 37 39  1  0  0  0  0
 37 41  1  0  0  0  0
 38 44  1  0  0  0  0
 39 46  1  0  0  0  0
 40 42  1  0  0  0  0
 40 47  1  0  0  0  0
 41 65  1  0  0  0  0
 42 66  1  0  0  0  0
 43 46  1  0  0  0  0
 43 65  1  0  0  0  0
 44 69  1  0  0  0  0
 45 64  1  0  0  0  0
 46 63  1  0  0  0  0
 47 54  1  0  0  0  0
 47 66  1  0  0  0  0
 48 59  1  0  0  0  0
 49 60  1  0  0  0  0
 50 61  1  0  0  0  0
 51 61  1  0  0  0  0
 52 61  1  0  0  0  0
 53 72  1  0  0  0  0
 54 73  1  0  0  0  0
 55 57  1  0  0  0  0
 55 71  1  0  0  0  0
 56 60  1  0  0  0  0
 56 73  1  0  0  0  0
 57 80  1  0  0  0  0
 58 61  1  0  0  0  0
 58 70  1  0  0  0  0
 59 72  1  0  0  0  0
 60 71  1  0  0  0  0
 62 63  1  0  0  0  0
M  CHG  2  72   1  73   1
M  ISO  4  32 100  57 101  66 100  80 101
M  END
> <Batch ID>
0184

> <Smiles>
CNC(C)C(=O)NC(C(=O)N1Cc2cc([101O:1][101CH2:1]CNC(C)CNCC3CC[100N:0]3[100C:0](=O)N3CCCC(n4nc(-c5ccc(Oc6ccc(F)cc6F)cc5)c(C(N)=O)c4N)C3)ccc2CC1C(=O)NC1CCCc2ccccc21)C(C)(C)C

> <Shape>
0.294

> <Color>
0.082

> <Negative vol penalty>
0.000

$$$$

  -OEChem-04052323103D

 86 95  0     1  0  0  0  0  0999 V2000
  -33.6995  -34.9996   18.9013 C   0  0  0  0  0  0  0  0  0  0  0  0
  -33.4768  -33.6267   18.8709 C   0  0  0  0  0  0  0  0  0  0  0  0
  -23.8144   -9.8270   22.3391 C   0  0  0  0  0  0  0  0  0  0  0  0
  -25.0675   -7.8245   21.8322 C   0  0  0  0  0  0  0  0  0  0  0  0
  -33.1675  -35.7682   19.9358 C   0  0  0  0  0  0  0  0  0  0  0  0
  -32.7229  -33.0213   19.8757 C   0  0  0  0  0  0  0  0  0  0  0  0
  -28.9383  -28.2451   19.2675 C   0  0  0  0  0  0  0  0  0  0  0  0
  -22.6235   -9.1087   22.2330 C   0  0  0  0  0  0  0  0  0  0  0  0
  -23.8765   -7.1061   21.7262 C   0  0  0  0  0  0  0  0  0  0  0  0
  -29.0983  -26.8834   19.5205 C   0  0  0  0  0  0  0  0  0  0  0  0
  -21.1827   -4.6650   21.6770 C   0  0  0  0  0  0  0  0  0  0  0  0
  -21.1209   -3.4158   22.2944 C   0  0  0  0  0  0  0  0  0  0  0  0
  -28.0888  -27.1745   21.6920 C   0  0  0  0  0  0  0  0  0  0  0  0
  -21.5578   -4.4512   24.4331 C   0  0  0  0  0  0  0  0  0  0  0  0
  -25.0364   -9.1850   22.1386 C   0  0  0  0  0  0  0  0  0  0  0  0
  -27.0438  -10.1193   23.4056 C   0  0  0  0  0  0  0  0  0  0  0  0
  -32.3985  -35.1734   20.9486 C   0  0  0  0  0  0  0  0  0  0  0  0
  -28.3613  -29.0851   20.2308 C   0  0  0  0  0  0  0  0  0  0  0  0
  -32.1813  -33.7824   20.9254 C   0  0  0  0  0  0  0  0  0  0  0  0
  -27.9203  -28.5460   21.4477 C   0  0  0  0  0  0  0  0  0  0  0  0
  -22.6545   -7.7483   21.9266 C   0  0  0  0  0  0  0  0  0  0  0  0
  -28.6761  -26.3484   20.7341 C   0  0  0  0  0  0  0  0  0  0  0  0
  -21.4323   -5.8073   22.4376 C   0  0  0  0  0  0  0  0  0  0  0  0
  -21.3084   -3.3089   23.6724 C   0  0  0  0  0  0  0  0  0  0  0  0
  -21.6198   -5.7004   23.8156 C   0  0  0  0  0  0  0  0  0  0  0  0
  -26.2670   -9.9266   22.2475 C   0  0  0  0  0  0  0  0  0  0  0  0
  -29.5656  -20.2511   21.1588 C   0  0  0  0  0  0  0  0  0  0  0  0
  -28.7741  -21.1683   21.8143 C   0  0  0  0  0  0  0  0  0  0  0  0
  -30.2782  -21.8876   19.7292 C   0  0  0  0  0  0  0  0  0  0  0  0
  -29.4862  -22.8047   20.3842 C   0  0  0  0  0  0  0  0  0  0  0  0
  -28.1023  -10.8870   22.9852 C   0  0  0  0  0  0  0  0  0  0  0  0
  -26.8279   -9.6465   24.7418 C   0  0  0  0  0  0  0  0  0  0  0  0
  -29.3531  -31.6087   21.8895 C   0  0  0  0  0  0  0  0  0  0  0  0
  -26.2649  -31.6826   22.8794 C   0  0  0  0  0  0  0  0  0  0  0  0
  -23.3464  -29.9904   23.3949 C   0  0  0  0  0  0  0  0  0  0  0  0
  -30.2735  -15.0243   20.1235 C   0  0  0  0  0  0  0  0  0  0  0  0
  -31.8839  -36.0381   22.0720 C   0  0  0  0  0  0  0  0  0  0  0  0
  -28.1715  -30.5469   19.9318 C   0  0  0  0  0  0  0  0  0  0  0  0
  -27.2763  -29.4015   22.5070 C   0  0  0  0  0  0  0  0  0  0  0  0
  -30.7819  -35.3757   22.8948 C   0  0  0  0  0  0  0  0  0  0  0  0
  -29.6368  -12.1341   18.3375 C   0  0  0  0  0  0  0  0  0  0  0  0
  -31.1673  -33.9425   23.2475 C   0  0  0  0  0  0  0  0  0  0  0  0
  -28.7666  -11.3068   19.2833 C   0  0  0  0  0  0  0  0  0  0  0  0
  -28.5171  -17.9564   20.9209 C   0  0  0  0  0  0  0  0  0  0  0  0
  -31.0031  -18.1725   21.3483 C   0  0  0  0  0  0  0  0  0  0  0  0
  -29.2399  -13.6053   18.3774 C   0  0  0  0  0  0  0  0  0  0  0  0
  -28.5958  -16.4848   21.3372 C   0  0  0  0  0  0  0  0  0  0  0  0
  -31.0182  -16.7084   21.7781 C   0  0  0  0  0  0  0  0  0  0  0  0
  -28.4229  -13.3900   20.7021 C   0  0  0  0  0  0  0  0  0  0  0  0
  -31.3479  -33.0929   21.9838 C   0  0  1  0  0  0  0  0  0  0  0  0
  -29.6177  -18.7980   21.5917 C   0  0  0  0  0  0  0  0  0  0  0  0
  -28.0402  -31.4017   21.1886 C   0  0  1  0  0  0  0  0  0  0  0  0
  -28.7868  -11.8913   20.7068 C   0  0  1  0  0  0  0  0  0  0  0  0
  -27.9321  -20.7758   22.9800 C   0  0  0  0  0  0  0  0  0  0  0  0
  -32.5951  -22.4249   18.9358 C   0  0  0  0  0  0  0  0  0  0  0  0
  -21.0086  -30.3098   24.2493 C   0  0  0  0  0  0  0  0  0  0  0  0
  -27.3142  -31.6790   25.7446 C   0  0  0  0  0  0  0  0  0  0  0  0
  -25.0168  -31.0448   26.5112 C   0  0  0  0  0  0  0  0  0  0  0  0
  -25.3842  -33.2177   25.3424 C   0  0  0  0  0  0  0  0  0  0  0  0
  -22.1667  -29.2512   20.7832 C   0  0  0  0  0  0  0  0  0  0  0  0
  -31.1212  -22.2802   18.5644 C   0  0  0  0  0  0  0  0  0  0  0  0
  -29.4350  -24.2322   19.9585 C   0  0  0  0  0  0  0  0  0  1  0  0
  -25.4929  -31.0653   24.0205 C   0  0  1  0  0  0  0  0  0  0  0  0
  -21.9116  -30.3211   23.0257 C   0  0  2  0  0  0  0  0  0  0  0  0
  -25.8159  -31.7357   25.3857 C   0  0  0  0  0  0  0  0  0  0  0  0
  -26.7875  -10.5239   21.1722 N   0  0  0  0  0  0  0  0  0  0  0  0
  -30.3319  -20.5942   20.1045 N   0  0  0  0  0  0  0  0  0  0  0  0
  -28.7201  -22.4616   21.4388 N   0  0  0  0  0  0  0  0  0  0  0  0
  -27.9027  -11.0995   21.6529 N   0  0  0  0  0  0  0  0  0  0  0  0
  -27.1185  -30.8259   22.1700 N   0  0  0  0  0  0  0  0  0  0  0  0
  -29.2679  -14.1219   19.7457 N   0  0  0  0  0  0  0  0  0  0  0  0
  -29.9497  -15.9559   21.1214 N   0  0  0  0  0  0  0  0  0  0  0  0
  -29.1749  -11.3944   23.6291 N   0  0  0  0  0  0  0  0  0  0  0  0
  -25.6901   -8.8700   25.0002 N   0  0  0  0  0  0  0  0  0  0  0  0
  -30.0609  -32.7090   21.4446 N   0  0  0  0  0  0  0  0  0  0  0  0
  -24.0853  -31.1280   23.6422 N   0  0  0  0  0  0  0  0  0  0  0  0
  -21.3871  -29.3288   22.0453 N   0  3  0  0  0  0  0  0  0  0  0  0
  -27.6119   -9.9187   25.6824 O   0  0  0  0  0  0  0  0  0  0  0  0
  -29.6977  -30.8289   22.7697 O   0  0  0  0  0  0  0  0  0  0  0  0
  -26.1107  -32.8792   22.6224 O   0  0  0  0  0  0  0  0  0  0  0  0
  -23.7685  -28.8380   23.4611 O   0  0  0  0  0  0  0  0  0  0  0  0
  -31.3949  -14.9993   19.6011 O   0  0  0  0  0  0  0  0  0  0  0  0
  -21.4926   -7.0469   21.8233 O   0  0  0  0  0  0  0  0  0  0  0  0
  -28.8327  -25.0108   20.9856 O   0  0  0  0  0  0  0  0  0  1  0  0
  -21.2474   -2.1094   24.2654 F   0  0  0  0  0  0  0  0  0  0  0  0
  -21.8586   -6.7944   24.5518 F   0  0  0  0  0  0  0  0  0  0  0  0
  1  2  1  0  0  0  0
  1  5  2  0  0  0  0
  2  6  2  0  0  0  0
  3  8  2  0  0  0  0
  3 15  1  0  0  0  0
  4  9  1  0  0  0  0
  4 15  2  0  0  0  0
  5 17  1  0  0  0  0
  6 19  1  0  0  0  0
  7 10  2  0  0  0  0
  7 18  1  0  0  0  0
  8 21  1  0  0  0  0
  9 21  2  0  0  0  0
 10 22  1  0  0  0  0
 11 12  2  0  0  0  0
 11 23  1  0  0  0  0
 12 24  1  0  0  0  0
 13 20  1  0  0  0  0
 13 22  2  0  0  0  0
 14 24  2  0  0  0  0
 14 25  1  0  0  0  0
 15 26  1  0  0  0  0
 16 26  1  0  0  0  0
 16 31  2  0  0  0  0
 16 32  1  0  0  0  0
 17 19  2  0  0  0  0
 17 37  1  0  0  0  0
 18 20  2  0  0  0  0
 18 38  1  0  0  0  0
 19 50  1  0  0  0  0
 20 39  1  0  0  0  0
 21 83  1  0  0  0  0
 22 84  1  0  0  0  0
 23 25  2  0  0  0  0
 23 83  1  0  0  0  0
 24 85  1  0  0  0  0
 25 86  1  0  0  0  0
 26 66  2  0  0  0  0
 27 28  1  0  0  0  0
 27 51  1  0  0  0  0
 27 67  2  0  0  0  0
 28 54  1  0  0  0  0
 28 68  2  0  0  0  0
 29 30  2  0  0  0  0
 29 61  1  0  0  0  0
 29 67  1  0  0  0  0
 30 62  1  0  0  0  0
 30 68  1  0  0  0  0
 31 69  1  0  0  0  0
 31 73  1  0  0  0  0
 32 74  1  0  0  0  0
 32 78  2  0  0  0  0
 33 52  1  0  0  0  0
 33 75  1  0  0  0  0
 33 79  2  0  0  0  0
 34 63  1  0  0  0  0
 34 70  1  0  0  0  0
 34 80  2  0  0  0  0
 35 64  1  0  0  0  0
 35 76  1  0  0  0  0
 35 81  2  0  0  0  0
 36 71  1  0  0  0  0
 36 72  1  0  0  0  0
 36 82  2  0  0  0  0
 37 40  1  0  0  0  0
 38 52  1  0  0  0  0
 39 70  1  0  0  0  0
 40 42  1  0  0  0  0
 41 43  1  0  0  0  0
 41 46  1  0  0  0  0
 42 50  1  0  0  0  0
 43 53  1  0  0  0  0
 44 47  1  0  0  0  0
 44 51  1  0  0  0  0
 45 48  1  0  0  0  0
 45 51  1  0  0  0  0
 46 71  1  0  0  0  0
 47 72  1  0  0  0  0
 48 72  1  0  0  0  0
 49 53  1  0  0  0  0
 49 71  1  0  0  0  0
 50 75  1  0  0  0  0
 52 70  1  0  0  0  0
 53 69  1  0  0  0  0
 55 61  1  0  0  0  0
 56 64  1  0  0  0  0
 57 65  1  0  0  0  0
 58 65  1  0  0  0  0
 59 65  1  0  0  0  0
 60 77  1  0  0  0  0
 62 84  1  0  0  0  0
 63 65  1  0  0  0  0
 63 76  1  0  0  0  0
 64 77  1  0  0  0  0
 66 69  1  0  0  0  0
M  CHG  1  77   1
M  ISO  4  36 100  62 101  72 100  84 101
M  END
> <Batch ID>
0184

> <Smiles>
CCc1nc(C2CC[100N:0]([100C:0](=O)N3CCCC(n4nc(-c5ccc(Oc6ccc(F)cc6F)cc5)c(C(N)=O)c4N)C3)CC2)c(C)nc1[101CH2:1][101O:1]c1ccc2c(c1)CN(C(=O)C(NC(=O)C(C)NC)C(C)(C)C)C(C(=O)NC1CCCc3ccccc31)C2

> <Shape>
0.304

> <Color>
0.112

> <Negative vol penalty>
0.000

$$$$

  -OEChem-04052323103D

 77 85  0     1  0  0  0  0  0999 V2000
  -18.0055  -33.1430   23.4013 C   0  0  0  0  0  0  0  0  0  0  0  0
  -19.2157  -33.2954   22.7323 C   0  0  0  0  0  0  0  0  0  0  0  0
  -28.3643  -17.5070   22.0984 C   0  0  0  0  0  0  0  0  0  0  0  0
  -30.2657  -17.2647   20.6277 C   0  0  0  0  0  0  0  0  0  0  0  0
  -17.8066  -32.0463   24.2389 C   0  0  0  0  0  0  0  0  0  0  0  0
  -20.2282  -32.3517   22.9015 C   0  0  0  0  0  0  0  0  0  0  0  0
  -25.6072  -29.2357   19.3414 C   0  0  0  0  0  0  0  0  0  0  0  0
  -28.3000  -16.1212   22.2436 C   0  0  0  0  0  0  0  0  0  0  0  0
  -30.2015  -15.8789   20.7730 C   0  0  0  0  0  0  0  0  0  0  0  0
  -26.9725  -28.9798   19.4609 C   0  0  0  0  0  0  0  0  0  0  0  0
  -28.3558  -13.3278   19.5415 C   0  0  0  0  0  0  0  0  0  0  0  0
  -28.4743  -12.5494   18.3902 C   0  0  0  0  0  0  0  0  0  0  0  0
  -26.4874  -27.0836   20.8711 C   0  0  0  0  0  0  0  0  0  0  0  0
  -30.4326  -11.4788   19.3156 C   0  0  0  0  0  0  0  0  0  0  0  0
  -29.3471  -18.0787   21.2904 C   0  0  0  0  0  0  0  0  0  0  0  0
  -30.1431  -20.4156   21.9332 C   0  0  0  0  0  0  0  0  0  0  0  0
  -18.8136  -31.0835   24.4108 C   0  0  0  0  0  0  0  0  0  0  0  0
  -24.6706  -28.4226   19.9958 C   0  0  0  0  0  0  0  0  0  0  0  0
  -20.0431  -31.2417   23.7432 C   0  0  0  0  0  0  0  0  0  0  0  0
  -25.1107  -27.3298   20.7562 C   0  0  0  0  0  0  0  0  0  0  0  0
  -29.2186  -15.3072   21.5809 C   0  0  0  0  0  0  0  0  0  0  0  0
  -27.4129  -27.9054   20.2282 C   0  0  0  0  0  0  0  0  0  0  0  0
  -29.2758  -13.1819   20.5799 C   0  0  0  0  0  0  0  0  0  0  0  0
  -29.5127  -11.6249   18.2773 C   0  0  0  0  0  0  0  0  0  0  0  0
  -30.3141  -12.2574   20.4669 C   0  0  0  0  0  0  0  0  0  0  0  0
  -29.4136  -19.5101   21.1395 C   0  0  0  0  0  0  0  0  0  0  0  0
  -29.8761  -21.6459   21.3840 C   0  0  0  0  0  0  0  0  0  0  0  0
  -30.9866  -20.1668   23.0655 C   0  0  0  0  0  0  0  0  0  0  0  0
  -22.4694  -28.8954   22.2396 C   0  0  0  0  0  0  0  0  0  0  0  0
  -21.6975  -25.8143   21.5815 C   0  0  0  0  0  0  0  0  0  0  0  0
  -22.6759  -22.7780   20.3689 C   0  0  0  0  0  0  0  0  0  0  0  0
  -29.4924  -24.7349   16.6715 C   0  0  0  0  0  0  0  0  0  0  0  0
  -18.5696  -29.9399   25.3634 C   0  0  0  0  0  0  0  0  0  0  0  0
  -23.2003  -28.6960   19.8350 C   0  0  0  0  0  0  0  0  0  0  0  0
  -24.1451  -26.4146   21.4622 C   0  0  0  0  0  0  0  0  0  0  0  0
  -19.5559  -28.7869   25.1962 C   0  0  0  0  0  0  0  0  0  0  0  0
  -26.4730  -23.0575   17.9218 C   0  0  0  0  0  0  0  0  0  0  0  0
  -20.9839  -29.3152   25.1030 C   0  0  0  0  0  0  0  0  0  0  0  0
  -27.0386  -22.0249   18.8978 C   0  0  0  0  0  0  0  0  0  0  0  0
  -31.7280  -27.3489   18.0501 C   0  0  0  0  0  0  0  0  0  0  0  0
  -27.4455  -23.3617   16.7847 C   0  0  0  0  0  0  0  0  0  0  0  0
  -31.0705  -26.6349   16.8747 C   0  0  0  0  0  0  0  0  0  0  0  0
  -29.3597  -22.7192   18.1979 C   0  0  0  0  0  0  0  0  0  0  0  0
  -30.3466  -25.6118   18.9286 C   0  0  0  0  0  0  0  0  0  0  0  0
  -21.1564  -30.2262   23.8816 C   0  0  1  0  0  0  0  0  0  0  0  0
  -22.3568  -28.1105   20.9633 C   0  0  1  0  0  0  0  0  0  0  0  0
  -28.4373  -22.4378   19.3922 C   0  0  2  0  0  0  0  0  0  0  0  0
  -30.7686  -27.0549   19.2055 C   0  0  2  0  0  0  0  0  0  0  0  0
  -22.4660  -20.3913   19.6224 C   0  0  0  0  0  0  0  0  0  0  0  0
  -21.9856  -25.2364   24.5636 C   0  0  0  0  0  0  0  0  0  0  0  0
  -22.0822  -22.7965   24.0104 C   0  0  0  0  0  0  0  0  0  0  0  0
  -20.0364  -24.1167   23.4676 C   0  0  0  0  0  0  0  0  0  0  0  0
  -21.9553  -23.5817   17.6132 C   0  0  0  0  0  0  0  0  0  0  0  0
  -29.5810  -28.0162   19.2572 C   0  0  0  0  0  0  0  0  0  1  0  0
  -22.1360  -24.4674   22.1035 C   0  0  1  0  0  0  0  0  0  0  0  0
  -22.0168  -21.8252   19.3879 C   0  0  2  0  0  0  0  0  0  0  0  0
  -21.5786  -24.1724   23.5247 C   0  0  0  0  0  0  0  0  0  0  0  0
  -28.7342  -20.1138   20.1608 N   0  0  0  0  0  0  0  0  0  0  0  0
  -29.0355  -21.4117   20.3358 N   0  0  0  0  0  0  0  0  0  0  0  0
  -22.7180  -26.7271   21.2796 N   0  0  0  0  0  0  0  0  0  0  0  0
  -28.7661  -23.7193   17.3035 N   0  0  0  0  0  0  0  0  0  0  0  0
  -30.3253  -25.5241   17.4633 N   0  0  0  0  0  0  0  0  0  0  0  0
  -30.2808  -22.8943   21.7003 N   0  0  0  0  0  0  0  0  0  0  0  0
  -31.1516  -18.8439   23.4980 N   0  0  0  0  0  0  0  0  0  0  0  0
  -21.2746  -29.4363   22.6747 N   0  0  0  0  0  0  0  0  0  0  0  0
  -21.7438  -23.4906   21.0933 N   0  0  0  0  0  0  0  0  0  0  0  0
  -31.4877  -27.1419   20.5006 N   0  3  0  0  0  0  0  0  0  0  0  0
  -22.3614  -22.2027   17.9881 N   0  3  0  0  0  0  0  0  0  0  0  0
  -31.5636  -21.0919   23.6859 O   0  0  0  0  0  0  0  0  0  0  0  0
  -23.5593  -29.0012   22.7897 O   0  0  0  0  0  0  0  0  0  0  0  0
  -20.4941  -26.0453   21.4399 O   0  0  0  0  0  0  0  0  0  0  0  0
  -23.8955  -22.8772   20.4839 O   0  0  0  0  0  0  0  0  0  0  0  0
  -29.3673  -24.9572   15.4598 O   0  0  0  0  0  0  0  0  0  0  0  0
  -29.1563  -13.9549   21.7226 O   0  0  0  0  0  0  0  0  0  0  0  0
  -28.7575  -27.6514   20.3482 O   0  0  0  0  0  0  0  0  0  1  0  0
  -29.6255  -10.8763   17.1722 F   0  0  0  0  0  0  0  0  0  0  0  0
  -31.2002  -12.1118   21.4616 F   0  0  0  0  0  0  0  0  0  0  0  0
  1  2  1  0  0  0  0
  1  5  2  0  0  0  0
  2  6  2  0  0  0  0
  3  8  2  0  0  0  0
  3 15  1  0  0  0  0
  4  9  1  0  0  0  0
  4 15  2  0  0  0  0
  5 17  1  0  0  0  0
  6 19  1  0  0  0  0
  7 10  2  0  0  0  0
  7 18  1  0  0  0  0
  8 21  1  0  0  0  0
  9 21  2  0  0  0  0
 10 22  1  0  0  0  0
 11 12  2  0  0  0  0
 11 23  1  0  0  0  0
 12 24  1  0  0  0  0
 13 20  1  0  0  0  0
 13 22  2  0  0  0  0
 14 24  2  0  0  0  0
 14 25  1  0  0  0  0
 15 26  1  0  0  0  0
 16 26  1  0  0  0  0
 16 27  2  0  0  0  0
 16 28  1  0  0  0  0
 17 19  2  0  0  0  0
 17 33  1  0  0  0  0
 18 20  2  0  0  0  0
 18 34  1  0  0  0  0
 19 45  1  0  0  0  0
 20 35  1  0  0  0  0
 21 74  1  0  0  0  0
 22 75  1  0  0  0  0
 23 25  2  0  0  0  0
 23 74  1  0  0  0  0
 24 76  1  0  0  0  0
 25 77  1  0  0  0  0
 26 58  2  0  0  0  0
 27 59  1  0  0  0  0
 27 63  1  0  0  0  0
 28 64  1  0  0  0  0
 28 69  2  0  0  0  0
 29 46  1  0  0  0  0
 29 65  1  0  0  0  0
 29 70  2  0  0  0  0
 30 55  1  0  0  0  0
 30 60  1  0  0  0  0
 30 71  2  0  0  0  0
 31 56  1  0  0  0  0
 31 66  1  0  0  0  0
 31 72  2  0  0  0  0
 32 61  1  0  0  0  0
 32 62  1  0  0  0  0
 32 73  2  0  0  0  0
 33 36  1  0  0  0  0
 34 46  1  0  0  0  0
 35 60  1  0  0  0  0
 36 38  1  0  0  0  0
 37 39  1  0  0  0  0
 37 41  1  0  0  0  0
 38 45  1  0  0  0  0
 39 47  1  0  0  0  0
 40 42  1  0  0  0  0
 40 48  1  0  0  0  0
 41 61  1  0  0  0  0
 42 62  1  0  0  0  0
 43 47  1  0  0  0  0
 43 61  1  0  0  0  0
 44 48  1  0  0  0  0
 44 62  1  0  0  0  0
 45 65  1  0  0  0  0
 46 60  1  0  0  0  0
 47 59  1  0  0  0  0
 48 54  1  0  0  0  0
 48 67  1  0  0  0  0
 49 56  1  0  0  0  0
 50 57  1  0  0  0  0
 51 57  1  0  0  0  0
 52 57  1  0  0  0  0
 53 68  1  0  0  0  0
 54 75  1  0  0  0  0
 55 57  1  0  0  0  0
 55 66  1  0  0  0  0
 56 68  1  0  0  0  0
 58 59  1  0  0  0  0
M  CHG  2  67   1  68   1
M  ISO  4  32 100  54 101  62 100  75 101
M  END
> <Batch ID>
0184

> <Smiles>
CNC(C)C(=O)NC(C(=O)N1Cc2cc([101O:1][101CH2:1]C3(N)CC[100N:0]([100C:0](=O)N4CCCC(n5nc(-c6ccc(Oc7ccc(F)cc7F)cc6)c(C(N)=O)c5N)C4)C3)ccc2CC1C(=O)NC1CCCc2ccccc21)C(C)(C)C

> <Shape>
0.245

> <Color>
0.085

> <Negative vol penalty>
0.000

$$$$

  -OEChem-04052323103D

 80 89  0     1  0  0  0  0  0999 V2000
  -29.2403  -30.0721   27.1487 C   0  0  0  0  0  0  0  0  0  0  0  0
  -29.0050  -29.2372   26.0610 C   0  0  0  0  0  0  0  0  0  0  0  0
  -27.3697  -11.1853   20.8601 C   0  0  0  0  0  0  0  0  0  0  0  0
  -27.1073  -11.9025   18.5680 C   0  0  0  0  0  0  0  0  0  0  0  0
  -28.1765  -30.7323   27.7622 C   0  0  0  0  0  0  0  0  0  0  0  0
  -27.7056  -29.0613   25.5868 C   0  0  0  0  0  0  0  0  0  0  0  0
  -27.4313  -29.3042   20.5359 C   0  0  0  0  0  0  0  0  0  0  0  0
  -26.4380  -10.1690   20.6488 C   0  0  0  0  0  0  0  0  0  0  0  0
  -26.1757  -10.8861   18.3566 C   0  0  0  0  0  0  0  0  0  0  0  0
  -27.8369  -28.1779   19.8214 C   0  0  0  0  0  0  0  0  0  0  0  0
  -23.0760   -9.8704   20.4695 C   0  0  0  0  0  0  0  0  0  0  0  0
  -22.0947   -9.6793   21.4421 C   0  0  0  0  0  0  0  0  0  0  0  0
  -29.2750  -24.6797   16.2752 C   0  0  0  0  0  0  0  0  0  0  0  0
  -25.5298  -27.5293   19.5460 C   0  0  0  0  0  0  0  0  0  0  0  0
  -22.8769   -7.4197   21.7875 C   0  0  0  0  0  0  0  0  0  0  0  0
  -29.3523  -23.3317   16.0233 C   0  0  0  0  0  0  0  0  0  0  0  0
  -27.7043  -12.0521   19.8197 C   0  0  0  0  0  0  0  0  0  0  0  0
  -30.0602  -13.0299   19.8551 C   0  0  0  0  0  0  0  0  0  0  0  0
  -26.8645  -30.5720   27.2891 C   0  0  0  0  0  0  0  0  0  0  0  0
  -26.0702  -29.5462   20.7707 C   0  0  0  0  0  0  0  0  0  0  0  0
  -26.6230  -29.7190   26.1953 C   0  0  0  0  0  0  0  0  0  0  0  0
  -25.1094  -28.6608   20.2617 C   0  0  0  0  0  0  0  0  0  0  0  0
  -25.8410  -10.0194   19.3971 C   0  0  0  0  0  0  0  0  0  0  0  0
  -26.8862  -27.2887   19.3288 C   0  0  0  0  0  0  0  0  0  0  0  0
  -23.9578   -8.8361   20.1557 C   0  0  0  0  0  0  0  0  0  0  0  0
  -21.9951   -8.4540   22.1011 C   0  0  0  0  0  0  0  0  0  0  0  0
  -23.8583   -7.6108   20.8148 C   0  0  0  0  0  0  0  0  0  0  0  0
  -28.6663  -13.1025   20.0376 C   0  0  0  0  0  0  0  0  0  0  0  0
  -28.9093  -24.7638   17.6320 C   0  0  0  0  0  0  0  0  0  0  0  0
  -30.5164  -14.2805   20.1933 C   0  0  0  0  0  0  0  0  0  0  0  0
  -30.8703  -11.9303   19.4188 C   0  0  0  0  0  0  0  0  0  0  0  0
  -24.2486  -29.7820   23.3649 C   0  0  0  0  0  0  0  0  0  0  0  0
  -21.9738  -30.6326   21.2146 C   0  0  0  0  0  0  0  0  0  0  0  0
  -20.8412  -30.5188   17.9973 C   0  0  0  0  0  0  0  0  0  0  0  0
  -27.9652  -19.6891   20.2281 C   0  0  0  0  0  0  0  0  0  0  0  0
  -25.7410  -31.2694   28.0144 C   0  0  0  0  0  0  0  0  0  0  0  0
  -25.6478  -30.7799   21.5203 C   0  0  0  0  0  0  0  0  0  0  0  0
  -23.6347  -28.8860   20.4689 C   0  0  0  0  0  0  0  0  0  0  0  0
  -24.4410  -31.3226   27.2160 C   0  0  0  0  0  0  0  0  0  0  0  0
  -29.4619  -18.0228   22.9840 C   0  0  0  0  0  0  0  0  0  0  0  0
  -24.1298  -29.9574   26.6110 C   0  0  0  0  0  0  0  0  0  0  0  0
  -29.5587  -16.5668   22.5250 C   0  0  0  0  0  0  0  0  0  0  0  0
  -28.1742  -20.4013   16.4566 C   0  0  0  0  0  0  0  0  0  0  0  0
  -28.1828  -18.6889   22.4817 C   0  0  0  0  0  0  0  0  0  0  0  0
  -28.0623  -17.1430   20.5681 C   0  0  0  0  0  0  0  0  0  0  0  0
  -25.2306  -29.5221   25.6362 C   0  0  1  0  0  0  0  0  0  0  0  0
  -24.2603  -30.6554   22.1423 C   0  0  1  0  0  0  0  0  0  0  0  0
  -29.3624  -16.4442   21.0017 C   0  0  2  0  0  0  0  0  0  0  0  0
  -29.0048  -21.2731   17.3668 C   0  0  2  0  0  0  0  0  0  0  0  0
  -27.7624  -20.5789   17.8881 C   0  0  2  0  0  0  0  0  0  0  0  0
  -18.9337  -31.2747   16.5525 C   0  0  0  0  0  0  0  0  0  0  0  0
  -20.2095  -28.4457   22.4040 C   0  0  0  0  0  0  0  0  0  0  0  0
  -18.7613  -28.6034   20.3677 C   0  0  0  0  0  0  0  0  0  0  0  0
  -19.0137  -30.5769   21.8725 C   0  0  0  0  0  0  0  0  0  0  0  0
  -22.6324  -32.1205   16.2695 C   0  0  0  0  0  0  0  0  0  0  0  0
  -28.6820  -26.0064   18.4417 C   0  0  0  0  0  0  0  0  0  1  0  0
  -20.9466  -29.8899   20.3947 C   0  0  1  0  0  0  0  0  0  0  0  0
  -20.3239  -31.6058   17.0725 C   0  0  2  0  0  0  0  0  0  0  0  0
  -19.7606  -29.3734   21.2573 C   0  0  0  0  0  0  0  0  0  0  0  0
  -28.2633  -14.3041   20.4592 N   0  0  0  0  0  0  0  0  0  0  0  0
  -28.7642  -23.5647   18.2022 N   0  0  0  0  0  0  0  0  0  0  0  0
  -29.0400  -22.7144   17.1987 N   0  0  0  0  0  0  0  0  0  0  0  0
  -29.4110  -14.9981   20.5445 N   0  0  0  0  0  0  0  0  0  0  0  0
  -23.2720  -30.1031   21.2136 N   0  0  0  0  0  0  0  0  0  0  0  0
  -28.0623  -18.5403   21.0291 N   0  0  0  0  0  0  0  0  0  0  0  0
  -31.7513  -14.8253   20.2217 N   0  0  0  0  0  0  0  0  0  0  0  0
  -30.2402  -10.7166   19.1119 N   0  0  0  0  0  0  0  0  0  0  0  0
  -25.0895  -30.2137   24.3729 N   0  0  0  0  0  0  0  0  0  0  0  0
  -20.5537  -30.7923   19.3178 N   0  0  0  0  0  0  0  0  0  0  0  0
  -27.8628  -19.4693   18.8583 N   0  0  0  0  0  0  0  0  0  0  0  0
  -21.2356  -31.7698   15.9050 N   0  3  0  0  0  0  0  0  0  0  0  0
  -32.1179  -12.0164   19.3201 O   0  0  0  0  0  0  0  0  0  0  0  0
  -23.5288  -28.7906   23.3923 O   0  0  0  0  0  0  0  0  0  0  0  0
  -21.6383  -31.6493   21.8274 O   0  0  0  0  0  0  0  0  0  0  0  0
  -21.4371  -29.5246   17.5887 O   0  0  0  0  0  0  0  0  0  0  0  0
  -27.9765  -20.8340   20.6932 O   0  0  0  0  0  0  0  0  0  0  0  0
  -24.9320   -9.0276   19.1904 O   0  0  0  0  0  0  0  0  0  0  0  0
  -27.2794  -26.1882   18.6315 O   0  0  0  0  0  0  0  0  0  1  0  0
  -21.0537   -8.2712   23.0363 F   0  0  0  0  0  0  0  0  0  0  0  0
  -24.7033   -6.6138   20.5185 F   0  0  0  0  0  0  0  0  0  0  0  0
  1  2  1  0  0  0  0
  1  5  2  0  0  0  0
  2  6  2  0  0  0  0
  3  8  2  0  0  0  0
  3 17  1  0  0  0  0
  4  9  1  0  0  0  0
  4 17  2  0  0  0  0
  5 19  1  0  0  0  0
  6 21  1  0  0  0  0
  7 10  2  0  0  0  0
  7 20  1  0  0  0  0
  8 23  1  0  0  0  0
  9 23  2  0  0  0  0
 10 24  1  0  0  0  0
 11 12  2  0  0  0  0
 11 25  1  0  0  0  0
 12 26  1  0  0  0  0
 13 16  2  0  0  0  0
 13 29  1  0  0  0  0
 14 22  1  0  0  0  0
 14 24  2  0  0  0  0
 15 26  2  0  0  0  0
 15 27  1  0  0  0  0
 16 62  1  0  0  0  0
 17 28  1  0  0  0  0
 18 28  1  0  0  0  0
 18 30  2  0  0  0  0
 18 31  1  0  0  0  0
 19 21  2  0  0  0  0
 19 36  1  0  0  0  0
 20 22  2  0  0  0  0
 20 37  1  0  0  0  0
 21 46  1  0  0  0  0
 22 38  1  0  0  0  0
 23 77  1  0  0  0  0
 24 78  1  0  0  0  0
 25 27  2  0  0  0  0
 25 77  1  0  0  0  0
 26 79  1  0  0  0  0
 27 80  1  0  0  0  0
 28 60  2  0  0  0  0
 29 56  1  0  0  0  0
 29 61  2  0  0  0  0
 30 63  1  0  0  0  0
 30 66  1  0  0  0  0
 31 67  1  0  0  0  0
 31 72  2  0  0  0  0
 32 47  1  0  0  0  0
 32 68  1  0  0  0  0
 32 73  2  0  0  0  0
 33 57  1  0  0  0  0
 33 64  1  0  0  0  0
 33 74  2  0  0  0  0
 34 58  1  0  0  0  0
 34 69  1  0  0  0  0
 34 75  2  0  0  0  0
 35 65  1  0  0  0  0
 35 70  1  0  0  0  0
 35 76  2  0  0  0  0
 36 39  1  0  0  0  0
 37 47  1  0  0  0  0
 38 64  1  0  0  0  0
 39 41  1  0  0  0  0
 40 42  1  0  0  0  0
 40 44  1  0  0  0  0
 41 46  1  0  0  0  0
 42 48  1  0  0  0  0
 43 49  1  0  0  0  0
 43 50  1  0  0  0  0
 44 65  1  0  0  0  0
 45 48  1  0  0  0  0
 45 65  1  0  0  0  0
 46 68  1  0  0  0  0
 47 64  1  0  0  0  0
 48 63  1  0  0  0  0
 49 50  1  0  0  0  0
 49 62  1  0  0  0  0
 50 70  1  0  0  0  0
 51 58  1  0  0  0  0
 52 59  1  0  0  0  0
 53 59  1  0  0  0  0
 54 59  1  0  0  0  0
 55 71  1  0  0  0  0
 56 78  1  0  0  0  0
 57 59  1  0  0  0  0
 57 69  1  0  0  0  0
 58 71  1  0  0  0  0
 60 63  1  0  0  0  0
 61 62  1  0  0  0  0
M  CHG  1  71   1
M  ISO  4  35 100  56 101  70 100  78 101
M  END
> <Batch ID>
0184

> <Smiles>
CNC(C)C(=O)NC(C(=O)N1Cc2cc([101O:1][101CH2:1]c3ccn(C4CC4[100NH:0][100C:0](=O)N4CCCC(n5nc(-c6ccc(Oc7ccc(F)cc7F)cc6)c(C(N)=O)c5N)C4)n3)ccc2CC1C(=O)NC1CCCc2ccccc21)C(C)(C)C

> <Shape>
0.279

> <Color>
0.100

> <Negative vol penalty>
0.000

$$$$

  -OEChem-04052323103D

 89100  0     1  0  0  0  0  0999 V2000
  -29.2685  -35.5892   26.0887 C   0  0  0  0  0  0  0  0  0  0  0  0
  -29.2294  -34.3230   25.5137 C   0  0  0  0  0  0  0  0  0  0  0  0
  -24.0068   -9.6431   22.3462 C   0  0  0  0  0  0  0  0  0  0  0  0
  -23.2619   -9.8178   20.0546 C   0  0  0  0  0  0  0  0  0  0  0  0
  -28.0816  -36.2304   26.4412 C   0  0  0  0  0  0  0  0  0  0  0  0
  -28.0035  -33.6967   25.2919 C   0  0  0  0  0  0  0  0  0  0  0  0
  -27.7163  -31.5559   20.7116 C   0  0  0  0  0  0  0  0  0  0  0  0
  -23.0082   -8.7028   22.5992 C   0  0  0  0  0  0  0  0  0  0  0  0
  -22.2632   -8.8775   20.3075 C   0  0  0  0  0  0  0  0  0  0  0  0
  -28.3639  -30.3334   20.5383 C   0  0  0  0  0  0  0  0  0  0  0  0
  -22.4908   -5.4079   22.0439 C   0  0  0  0  0  0  0  0  0  0  0  0
  -22.8435   -4.2648   22.7612 C   0  0  0  0  0  0  0  0  0  0  0  0
  -26.2573  -29.1873   20.7988 C   0  0  0  0  0  0  0  0  0  0  0  0
  -21.2371   -4.8423   24.4710 C   0  0  0  0  0  0  0  0  0  0  0  0
  -23.6140  -23.6639   20.4270 C   0  0  0  0  0  0  0  0  0  0  0  0
  -24.1337  -10.2007   21.0739 C   0  0  0  0  0  0  0  0  0  0  0  0
  -26.4763  -10.9214   20.3663 C   0  0  0  0  0  0  0  0  0  0  0  0
  -26.8400  -35.6157   26.2147 C   0  0  0  0  0  0  0  0  0  0  0  0
  -26.3337  -31.6026   20.9409 C   0  0  0  0  0  0  0  0  0  0  0  0
  -26.7990  -34.3297   25.6429 C   0  0  0  0  0  0  0  0  0  0  0  0
  -25.5941  -30.4117   20.9721 C   0  0  0  0  0  0  0  0  0  0  0  0
  -22.1363   -8.3200   21.5799 C   0  0  0  0  0  0  0  0  0  0  0  0
  -27.6349  -29.1487   20.5848 C   0  0  0  0  0  0  0  0  0  0  0  0
  -21.5114   -6.2682   22.5401 C   0  0  0  0  0  0  0  0  0  0  0  0
  -22.2166   -3.9820   23.9747 C   0  0  0  0  0  0  0  0  0  0  0  0
  -20.8845   -5.9854   23.7536 C   0  0  0  0  0  0  0  0  0  0  0  0
  -25.1648  -11.1725   20.8120 C   0  0  0  0  0  0  0  0  0  0  0  0
  -23.6872  -25.0115   20.7149 C   0  0  0  0  0  0  0  0  0  0  0  0
  -24.8234  -23.0284   20.2325 C   0  0  0  0  0  0  0  0  0  0  0  0
  -27.0514  -12.1652   20.2733 C   0  0  0  0  0  0  0  0  0  0  0  0
  -25.9568  -24.9646   20.5978 C   0  0  0  0  0  0  0  0  0  0  0  0
  -27.1173   -9.6752   20.0634 C   0  0  0  0  0  0  0  0  0  0  0  0
  -24.4875  -32.6258   23.3176 C   0  0  0  0  0  0  0  0  0  0  0  0
  -22.0958  -31.9348   21.2381 C   0  0  0  0  0  0  0  0  0  0  0  0
  -21.0373  -30.1479   18.5301 C   0  0  0  0  0  0  0  0  0  0  0  0
  -24.9836  -17.4801   19.3229 C   0  0  0  0  0  0  0  0  0  0  0  0
  -25.5861  -36.3281   26.6558 C   0  0  0  0  0  0  0  0  0  0  0  0
  -25.6457  -32.9308   21.0992 C   0  0  0  0  0  0  0  0  0  0  0  0
  -24.1046  -30.4088   21.1951 C   0  0  0  0  0  0  0  0  0  0  0  0
  -24.3114  -35.7532   26.0435 C   0  0  0  0  0  0  0  0  0  0  0  0
  -26.8346  -16.5502   22.1598 C   0  0  0  0  0  0  0  0  0  0  0  0
  -24.3115  -34.2309   26.1416 C   0  0  0  0  0  0  0  0  0  0  0  0
  -20.5668  -25.9997   22.7798 C   0  0  0  0  0  0  0  0  0  0  0  0
  -21.1987  -24.6482   22.9636 C   0  0  0  0  0  0  0  0  0  0  0  0
  -26.7443  -15.0259   22.0952 C   0  0  0  0  0  0  0  0  0  0  0  0
  -28.2156  -25.6253   19.5315 C   0  0  0  0  0  0  0  0  0  0  0  0
  -25.5104  -17.2190   21.7875 C   0  0  0  0  0  0  0  0  0  0  0  0
  -25.8532  -21.0786   19.1074 C   0  0  0  0  0  0  0  0  0  0  0  0
  -24.1554  -20.7653   20.9145 C   0  0  0  0  0  0  0  0  0  0  0  0
  -25.4042  -19.7605   18.4823 C   0  0  0  0  0  0  0  0  0  0  0  0
  -23.7283  -19.4607   20.2510 C   0  0  0  0  0  0  0  0  0  0  0  0
  -24.8742  -15.2604   20.4174 C   0  0  0  0  0  0  0  0  0  0  0  0
  -25.4875  -33.6281   25.3637 C   0  0  1  0  0  0  0  0  0  0  0  0
  -27.2587  -25.6874   20.6928 C   0  0  1  0  0  0  0  0  0  0  0  0
  -24.3154  -32.8303   21.8391 C   0  0  1  0  0  0  0  0  0  0  0  0
  -22.0080  -25.7870   22.4076 C   0  0  0  0  0  0  0  0  0  0  0  0
  -26.2067  -14.5618   20.7299 C   0  0  2  0  0  0  0  0  0  0  0  0
  -27.4854  -26.9001   19.8251 C   0  0  1  0  0  0  0  0  0  1  0  0
  -19.0200  -29.7685   17.0864 C   0  0  0  0  0  0  0  0  0  0  0  0
  -20.8467  -30.2270   23.4365 C   0  0  0  0  0  0  0  0  0  0  0  0
  -19.4129  -29.1504   21.6892 C   0  0  0  0  0  0  0  0  0  0  0  0
  -19.2158  -31.5982   22.1272 C   0  0  0  0  0  0  0  0  0  0  0  0
  -22.4447  -31.1080   16.1101 C   0  0  0  0  0  0  0  0  0  0  0  0
  -22.4314  -25.7844   20.9412 C   0  0  0  0  0  0  0  0  0  0  0  0
  -21.2622  -30.7132   20.9351 C   0  0  1  0  0  0  0  0  0  0  0  0
  -20.3002  -30.5683   17.2713 C   0  0  2  0  0  0  0  0  0  0  0  0
  -20.2128  -30.4218   22.0447 C   0  0  0  0  0  0  0  0  0  0  0  0
  -24.9209  -12.4736   20.9900 N   0  0  0  0  0  0  0  0  0  0  0  0
  -24.8460  -25.6962   20.8083 N   0  0  0  0  0  0  0  0  0  0  0  0
  -26.0181  -23.6504   20.3105 N   0  0  0  0  0  0  0  0  0  0  0  0
  -26.0871  -13.0512   20.6544 N   0  0  0  0  0  0  0  0  0  0  0  0
  -24.7926  -21.6594   19.9379 N   0  0  0  0  0  0  0  0  0  0  0  0
  -23.4786  -31.7323   21.3507 N   0  0  0  0  0  0  0  0  0  0  0  0
  -25.0171  -16.7155   20.4986 N   0  0  0  0  0  0  0  0  0  0  0  0
  -24.8161  -18.8658   19.4718 N   0  0  0  0  0  0  0  0  0  0  0  0
  -28.2829  -12.5764   19.9036 N   0  0  0  0  0  0  0  0  0  0  0  0
  -26.3816   -8.4916   20.2132 N   0  0  0  0  0  0  0  0  0  0  0  0
  -25.2064  -33.6259   23.9440 N   0  0  0  0  0  0  0  0  0  0  0  0
  -20.6880  -30.9289   19.6114 N   0  0  0  0  0  0  0  0  0  0  0  0
  -21.1614  -30.3605   16.0730 N   0  3  0  0  0  0  0  0  0  0  0  0
  -28.3123   -9.6118   19.6873 O   0  0  0  0  0  0  0  0  0  0  0  0
  -24.0027  -31.6347   23.8510 O   0  0  0  0  0  0  0  0  0  0  0  0
  -21.5413  -33.0296   21.3629 O   0  0  0  0  0  0  0  0  0  0  0  0
  -21.8396  -29.2171   18.5527 O   0  0  0  0  0  0  0  0  0  0  0  0
  -25.0992  -16.9588   18.2067 O   0  0  0  0  0  0  0  0  0  0  0  0
  -21.1619   -7.4023   21.8263 O   0  0  0  0  0  0  0  0  0  0  0  0
  -28.2660  -27.9517   20.4164 O   0  0  0  0  0  0  0  0  0  1  0  0
  -22.5542   -2.8834   24.6628 F   0  0  0  0  0  0  0  0  0  0  0  0
  -19.9420   -6.8075   24.2349 F   0  0  0  0  0  0  0  0  0  0  0  0
  1  2  1  0  0  0  0
  1  5  2  0  0  0  0
  2  6  2  0  0  0  0
  3  8  2  0  0  0  0
  3 16  1  0  0  0  0
  4  9  1  0  0  0  0
  4 16  2  0  0  0  0
  5 18  1  0  0  0  0
  6 20  1  0  0  0  0
  7 10  2  0  0  0  0
  7 19  1  0  0  0  0
  8 22  1  0  0  0  0
  9 22  2  0  0  0  0
 10 23  1  0  0  0  0
 11 12  2  0  0  0  0
 11 24  1  0  0  0  0
 12 25  1  0  0  0  0
 13 21  1  0  0  0  0
 13 23  2  0  0  0  0
 14 25  2  0  0  0  0
 14 26  1  0  0  0  0
 15 28  1  0  0  0  0
 15 29  2  0  0  0  0
 16 27  1  0  0  0  0
 17 27  1  0  0  0  0
 17 30  2  0  0  0  0
 17 32  1  0  0  0  0
 18 20  2  0  0  0  0
 18 37  1  0  0  0  0
 19 21  2  0  0  0  0
 19 38  1  0  0  0  0
 20 53  1  0  0  0  0
 21 39  1  0  0  0  0
 22 86  1  0  0  0  0
 23 87  1  0  0  0  0
 24 26  2  0  0  0  0
 24 86  1  0  0  0  0
 25 88  1  0  0  0  0
 26 89  1  0  0  0  0
 27 68  2  0  0  0  0
 28 64  1  0  0  0  0
 28 69  2  0  0  0  0
 29 70  1  0  0  0  0
 29 72  1  0  0  0  0
 30 71  1  0  0  0  0
 30 76  1  0  0  0  0
 31 54  1  0  0  0  0
 31 69  1  0  0  0  0
 31 70  2  0  0  0  0
 32 77  1  0  0  0  0
 32 81  2  0  0  0  0
 33 55  1  0  0  0  0
 33 78  1  0  0  0  0
 33 82  2  0  0  0  0
 34 65  1  0  0  0  0
 34 73  1  0  0  0  0
 34 83  2  0  0  0  0
 35 66  1  0  0  0  0
 35 79  1  0  0  0  0
 35 84  2  0  0  0  0
 36 74  1  0  0  0  0
 36 75  1  0  0  0  0
 36 85  2  0  0  0  0
 37 40  1  0  0  0  0
 38 55  1  0  0  0  0
 39 73  1  0  0  0  0
 40 42  1  0  0  0  0
 41 45  1  0  0  0  0
 41 47  1  0  0  0  0
 42 53  1  0  0  0  0
 43 44  1  0  0  0  0
 43 56  1  0  0  0  0
 44 56  1  0  0  0  0
 45 57  1  0  0  0  0
 46 54  1  0  0  0  0
 46 58  1  0  0  0  0
 47 74  1  0  0  0  0
 48 50  1  0  0  0  0
 48 72  1  0  0  0  0
 49 51  1  0  0  0  0
 49 72  1  0  0  0  0
 50 75  1  0  0  0  0
 51 75  1  0  0  0  0
 52 57  1  0  0  0  0
 52 74  1  0  0  0  0
 53 78  1  0  0  0  0
 54 58  1  0  0  0  0
 55 73  1  0  0  0  0
 56 64  1  0  0  0  0
 57 71  1  0  0  0  0
 58 87  1  0  0  0  0
 59 66  1  0  0  0  0
 60 67  1  0  0  0  0
 61 67  1  0  0  0  0
 62 67  1  0  0  0  0
 63 80  1  0  0  0  0
 65 67  1  0  0  0  0
 65 79  1  0  0  0  0
 66 80  1  0  0  0  0
 68 71  1  0  0  0  0
M  CHG  1  80   1
M  ISO  4  36 100  58 101  75 100  87 101
M  END
> <Batch ID>
0184

> <Smiles>
CNC(C)C(=O)NC(C(=O)N1Cc2cc([101O:1][101CH:1]3CC3c3nc(CC4CC4)cc(N4CC[100N:0]([100C:0](=O)N5CCCC(n6nc(-c7ccc(Oc8ccc(F)cc8F)cc7)c(C(N)=O)c6N)C5)CC4)n3)ccc2CC1C(=O)NC1CCCc2ccccc21)C(C)(C)C

> <Shape>
0.248

> <Color>
0.089

> <Negative vol penalty>
0.000

$$$$

  -OEChem-04052323103D

 85 94  0     1  0  0  0  0  0999 V2000
  -20.1439  -22.6353   19.1127 C   0  0  0  0  0  0  0  0  0  0  0  0
  -21.2302  -22.1407   18.3980 C   0  0  0  0  0  0  0  0  0  0  0  0
  -26.7437  -25.6626   20.0188 C   0  0  0  0  0  0  0  0  0  0  0  0
  -29.0304  -26.3250   20.4301 C   0  0  0  0  0  0  0  0  0  0  0  0
  -19.9055  -22.1909   20.4126 C   0  0  0  0  0  0  0  0  0  0  0  0
  -22.0794  -21.2022   18.9833 C   0  0  0  0  0  0  0  0  0  0  0  0
  -26.1562  -15.5539   17.3120 C   0  0  0  0  0  0  0  0  0  0  0  0
  -26.3849  -27.0009   19.8581 C   0  0  0  0  0  0  0  0  0  0  0  0
  -28.6716  -27.6633   20.2695 C   0  0  0  0  0  0  0  0  0  0  0  0
  -27.4573  -15.0795   17.4725 C   0  0  0  0  0  0  0  0  0  0  0  0
  -24.7968  -30.2682   19.6953 C   0  0  0  0  0  0  0  0  0  0  0  0
  -23.6329  -30.7092   20.3250 C   0  0  0  0  0  0  0  0  0  0  0  0
  -26.9018  -14.3255   19.6956 C   0  0  0  0  0  0  0  0  0  0  0  0
  -24.5636  -30.1022   22.4703 C   0  0  0  0  0  0  0  0  0  0  0  0
  -28.0665  -25.3246   20.3048 C   0  0  0  0  0  0  0  0  0  0  0  0
  -28.8752  -23.0532   19.4716 C   0  0  0  0  0  0  0  0  0  0  0  0
  -20.7467  -21.2394   21.0106 C   0  0  0  0  0  0  0  0  0  0  0  0
  -25.2196  -15.4272   18.3479 C   0  0  0  0  0  0  0  0  0  0  0  0
  -21.8529  -20.7457   20.2928 C   0  0  0  0  0  0  0  0  0  0  0  0
  -25.5887  -14.7968   19.5448 C   0  0  0  0  0  0  0  0  0  0  0  0
  -27.3489  -28.0013   19.9835 C   0  0  0  0  0  0  0  0  0  0  0  0
  -27.8312  -14.4678   18.6655 C   0  0  0  0  0  0  0  0  0  0  0  0
  -25.8440  -29.7440   20.4531 C   0  0  0  0  0  0  0  0  0  0  0  0
  -23.5163  -30.6263   21.7125 C   0  0  0  0  0  0  0  0  0  0  0  0
  -25.7274  -29.6611   21.8406 C   0  0  0  0  0  0  0  0  0  0  0  0
  -28.4376  -23.9424   20.4714 C   0  0  0  0  0  0  0  0  0  0  0  0
  -31.3439  -14.4907   19.5489 C   0  0  0  0  0  0  0  0  0  0  0  0
  -30.0419  -14.8733   19.3517 C   0  0  0  0  0  0  0  0  0  1  0  0
  -29.0987  -21.8722   20.1362 C   0  0  0  0  0  0  0  0  0  0  0  0
  -31.7934  -16.5510   20.3571 C   0  0  0  0  0  0  0  0  0  0  0  0
  -29.0631  -23.2751   18.0676 C   0  0  0  0  0  0  0  0  0  0  0  0
  -23.5477  -17.4668   20.1224 C   0  0  0  0  0  0  0  0  0  0  0  0
  -22.1576  -14.7551   21.2342 C   0  0  0  0  0  0  0  0  0  0  0  0
  -22.3788  -11.3896   21.7551 C   0  0  0  0  0  0  0  0  0  0  0  0
  -31.0453  -19.9041   25.2206 C   0  0  0  0  0  0  0  0  0  0  0  0
  -20.4762  -20.8245   22.4351 C   0  0  0  0  0  0  0  0  0  0  0  0
  -23.8125  -15.9201   18.1492 C   0  0  0  0  0  0  0  0  0  0  0  0
  -24.6151  -14.6179   20.6799 C   0  0  0  0  0  0  0  0  0  0  0  0
  -21.2067  -19.5491   22.8473 C   0  0  0  0  0  0  0  0  0  0  0  0
  -27.5747  -19.9467   24.4272 C   0  0  0  0  0  0  0  0  0  0  0  0
  -22.6670  -19.6053   22.4100 C   0  0  0  0  0  0  0  0  0  0  0  0
  -27.4841  -20.8987   23.2333 C   0  0  0  0  0  0  0  0  0  0  0  0
  -28.6283  -20.4029   25.4341 C   0  0  0  0  0  0  0  0  0  0  0  0
  -29.8783  -21.5875   23.6712 C   0  0  0  0  0  0  0  0  0  0  0  0
  -33.8245  -17.0462   21.9879 C   0  0  0  0  0  0  0  0  0  0  0  0
  -32.3217  -18.4819   22.0957 C   0  0  0  0  0  0  0  0  0  0  0  0
  -22.7824  -19.7084   20.8844 C   0  0  1  0  0  0  0  0  0  0  0  0
  -32.7855  -17.5455   20.9421 C   0  0  0  0  0  0  0  0  0  0  0  0
  -23.0860  -16.1989   19.4614 C   0  0  1  0  0  0  0  0  0  0  0  0
  -28.8683  -21.1388   22.6012 C   0  0  2  0  0  0  0  0  0  0  0  0
  -31.8079  -13.1176   19.2022 C   0  0  0  0  0  0  0  0  0  0  0  0
  -21.1000   -9.4571   22.7181 C   0  0  0  0  0  0  0  0  0  0  0  0
  -34.6520  -20.4329   24.6321 C   0  0  0  0  0  0  0  0  0  0  0  0
  -22.8468  -15.7056   24.0505 C   0  0  0  0  0  0  0  0  0  0  0  0
  -22.4273  -13.3754   24.8644 C   0  0  0  0  0  0  0  0  0  0  0  0
  -20.5763  -14.6824   23.8212 C   0  0  0  0  0  0  0  0  0  0  0  0
  -22.3095   -9.9871   19.1498 C   0  0  0  0  0  0  0  0  0  0  0  0
  -33.5996  -18.1562   24.1580 C   0  0  0  0  0  0  0  0  0  0  0  0
  -22.4410  -13.7939   22.3633 C   0  0  1  0  0  0  0  0  0  0  0  0
  -21.4084  -10.2592   21.4634 C   0  0  2  0  0  0  0  0  0  0  0  0
  -33.4693  -19.4999   24.8742 C   0  0  2  0  0  0  0  0  0  0  0  0
  -22.0920  -14.3943   23.7544 C   0  0  0  0  0  0  0  0  0  0  0  0
  -28.3853  -23.3747   21.6793 N   0  0  0  0  0  0  0  0  0  0  0  0
  -32.2586  -15.3282   20.0609 N   0  0  0  0  0  0  0  0  0  0  0  0
  -29.6327  -16.1152   19.6684 N   0  0  0  0  0  0  0  0  0  0  0  0
  -30.5281  -16.9820   20.1856 N   0  0  0  0  0  0  0  0  0  0  0  0
  -28.7928  -22.1162   21.4428 N   0  0  0  0  0  0  0  0  0  0  0  0
  -23.2529  -15.1222   20.4397 N   0  0  0  0  0  0  0  0  0  0  0  0
  -29.9179  -20.6111   24.7711 N   0  0  0  0  0  0  0  0  0  0  0  0
  -29.5248  -20.6592   19.7246 N   0  0  0  0  0  0  0  0  0  0  0  0
  -28.7869  -24.5477   17.5494 N   0  0  0  0  0  0  0  0  0  0  0  0
  -22.5555  -18.4169   20.2720 N   0  0  0  0  0  0  0  0  0  0  0  0
  -21.7204  -12.5660   22.0446 N   0  0  0  0  0  0  0  0  0  0  0  0
  -32.2264  -20.1554   24.5332 N   0  0  0  0  0  0  0  0  0  0  0  0
  -33.6628  -18.3325   22.6910 N   0  3  0  0  0  0  0  0  0  0  0  0
  -21.9807   -9.3354   20.4437 N   0  3  0  0  0  0  0  0  0  0  0  0
  -29.4483  -22.3670   17.2926 O   0  0  0  0  0  0  0  0  0  0  0  0
  -24.7173  -17.5746   20.4721 O   0  0  0  0  0  0  0  0  0  0  0  0
  -21.0055  -15.1596   21.0591 O   0  0  0  0  0  0  0  0  0  0  0  0
  -23.5988  -11.2427   21.7323 O   0  0  0  0  0  0  0  0  0  0  0  0
  -31.0014  -19.1039   26.1613 O   0  0  0  0  0  0  0  0  0  0  0  0
  -26.9992  -29.3073   19.8265 O   0  0  0  0  0  0  0  0  0  0  0  0
  -29.1007  -14.0045   18.8250 O   0  0  0  0  0  0  0  0  0  1  0  0
  -22.3992  -31.0513   22.3172 F   0  0  0  0  0  0  0  0  0  0  0  0
  -26.7306  -29.1596   22.5740 F   0  0  0  0  0  0  0  0  0  0  0  0
  1  2  1  0  0  0  0
  1  5  2  0  0  0  0
  2  6  2  0  0  0  0
  3  8  2  0  0  0  0
  3 15  1  0  0  0  0
  4  9  1  0  0  0  0
  4 15  2  0  0  0  0
  5 17  1  0  0  0  0
  6 19  1  0  0  0  0
  7 10  2  0  0  0  0
  7 18  1  0  0  0  0
  8 21  1  0  0  0  0
  9 21  2  0  0  0  0
 10 22  1  0  0  0  0
 11 12  2  0  0  0  0
 11 23  1  0  0  0  0
 12 24  1  0  0  0  0
 13 20  1  0  0  0  0
 13 22  2  0  0  0  0
 14 24  2  0  0  0  0
 14 25  1  0  0  0  0
 15 26  1  0  0  0  0
 16 26  1  0  0  0  0
 16 29  2  0  0  0  0
 16 31  1  0  0  0  0
 17 19  2  0  0  0  0
 17 36  1  0  0  0  0
 18 20  2  0  0  0  0
 18 37  1  0  0  0  0
 19 47  1  0  0  0  0
 20 38  1  0  0  0  0
 21 82  1  0  0  0  0
 22 83  1  0  0  0  0
 23 25  2  0  0  0  0
 23 82  1  0  0  0  0
 24 84  1  0  0  0  0
 25 85  1  0  0  0  0
 26 63  2  0  0  0  0
 27 28  2  0  0  0  0
 27 51  1  0  0  0  0
 27 64  1  0  0  0  0
 28 65  1  0  0  0  0
 28 83  1  0  0  0  0
 29 67  1  0  0  0  0
 29 70  1  0  0  0  0
 30 48  1  0  0  0  0
 30 64  2  0  0  0  0
 30 66  1  0  0  0  0
 31 71  1  0  0  0  0
 31 77  2  0  0  0  0
 32 49  1  0  0  0  0
 32 72  1  0  0  0  0
 32 78  2  0  0  0  0
 33 59  1  0  0  0  0
 33 68  1  0  0  0  0
 33 79  2  0  0  0  0
 34 60  1  0  0  0  0
 34 73  1  0  0  0  0
 34 80  2  0  0  0  0
 35 69  1  0  0  0  0
 35 74  1  0  0  0  0
 35 81  2  0  0  0  0
 36 39  1  0  0  0  0
 37 49  1  0  0  0  0
 38 68  1  0  0  0  0
 39 41  1  0  0  0  0
 40 42  1  0  0  0  0
 40 43  1  0  0  0  0
 41 47  1  0  0  0  0
 42 50  1  0  0  0  0
 43 69  1  0  0  0  0
 44 50  1  0  0  0  0
 44 69  1  0  0  0  0
 45 48  1  0  0  0  0
 45 75  1  0  0  0  0
 46 48  1  0  0  0  0
 46 75  1  0  0  0  0
 47 72  1  0  0  0  0
 49 68  1  0  0  0  0
 50 67  1  0  0  0  0
 52 60  1  0  0  0  0
 53 61  1  0  0  0  0
 54 62  1  0  0  0  0
 55 62  1  0  0  0  0
 56 62  1  0  0  0  0
 57 76  1  0  0  0  0
 58 61  1  0  0  0  0
 58 75  1  0  0  0  0
 59 62  1  0  0  0  0
 59 73  1  0  0  0  0
 60 76  1  0  0  0  0
 61 74  1  0  0  0  0
 63 67  1  0  0  0  0
 65 66  2  0  0  0  0
M  CHG  2  75   1  76   1
M  ISO  4  28 101  35 100  74 100  83 101
M  END
> <Batch ID>
0184

> <Smiles>
CNC(C)C(=O)NC(C(=O)N1Cc2cc([101O:1][101c:1]3nnc(C4CN(CC(C)[100NH:0][100C:0](=O)N5CCCC(n6nc(-c7ccc(Oc8ccc(F)cc8F)cc7)c(C(N)=O)c6N)C5)C4)nc3C)ccc2CC1C(=O)NC1CCCc2ccccc21)C(C)(C)C

> <Shape>
0.202

> <Color>
0.071

> <Negative vol penalty>
0.000

$$$$

  -OEChem-04052323103D

 85 94  0     1  0  0  0  0  0999 V2000
  -28.2094   -9.9938   16.2762 C   0  0  0  0  0  0  0  0  0  0  0  0
  -27.0848  -10.8074   16.3710 C   0  0  0  0  0  0  0  0  0  0  0  0
  -26.7913  -31.6079   21.1260 C   0  0  0  0  0  0  0  0  0  0  0  0
  -26.3576  -30.2432   23.0719 C   0  0  0  0  0  0  0  0  0  0  0  0
  -29.2232  -10.0943   17.2280 C   0  0  0  0  0  0  0  0  0  0  0  0
  -26.9730  -11.7212   17.4183 C   0  0  0  0  0  0  0  0  0  0  0  0
  -24.3642  -17.2580   17.2106 C   0  0  0  0  0  0  0  0  0  0  0  0
  -27.1654  -32.6675   21.9524 C   0  0  0  0  0  0  0  0  0  0  0  0
  -26.7317  -31.3028   23.8984 C   0  0  0  0  0  0  0  0  0  0  0  0
  -23.1036  -17.7158   17.5913 C   0  0  0  0  0  0  0  0  0  0  0  0
  -25.6319  -35.0295   23.8215 C   0  0  0  0  0  0  0  0  0  0  0  0
  -25.1346  -36.2962   23.5152 C   0  0  0  0  0  0  0  0  0  0  0  0
  -24.0074  -18.4216   19.7136 C   0  0  0  0  0  0  0  0  0  0  0  0
  -27.3910  -37.1176   23.2491 C   0  0  0  0  0  0  0  0  0  0  0  0
  -26.3873  -30.3958   21.6858 C   0  0  0  0  0  0  0  0  0  0  0  0
  -26.8338  -28.2932   20.3119 C   0  0  0  0  0  0  0  0  0  0  0  0
  -29.1283  -11.0165   18.2820 C   0  0  0  0  0  0  0  0  0  0  0  0
  -25.4555  -17.3689   18.0843 C   0  0  0  0  0  0  0  0  0  0  0  0
  -27.9860  -11.8331   18.3859 C   0  0  0  0  0  0  0  0  0  0  0  0
  -25.2814  -17.9668   19.3406 C   0  0  0  0  0  0  0  0  0  0  0  0
  -27.1356  -32.5149   23.3386 C   0  0  0  0  0  0  0  0  0  0  0  0
  -22.9244  -18.2951   18.8441 C   0  0  0  0  0  0  0  0  0  0  0  0
  -27.0087  -34.8069   23.8417 C   0  0  0  0  0  0  0  0  0  0  0  0
  -26.0142  -37.3402   23.2290 C   0  0  0  0  0  0  0  0  0  0  0  0
  -27.8883  -35.8509   23.5555 C   0  0  0  0  0  0  0  0  0  0  0  0
  -17.1284  -20.1944   19.9061 C   0  0  0  0  0  0  0  0  0  0  0  0
  -26.0002  -29.3011   20.8326 C   0  0  0  0  0  0  0  0  0  0  0  0
  -17.6408  -18.9811   20.3181 C   0  0  0  0  0  0  0  0  0  0  0  0
  -17.8461  -20.8422   18.9215 C   0  0  0  0  0  0  0  0  0  0  0  0
  -25.9922  -27.5010   19.5698 C   0  0  0  0  0  0  0  0  0  0  0  0
  -19.3753  -19.1614   18.8600 C   0  0  0  0  0  0  0  0  0  0  0  0
  -28.2428  -28.0912   20.4836 C   0  0  0  0  0  0  0  0  0  0  0  0
  -27.4040  -15.3035   19.5130 C   0  0  0  0  0  0  0  0  0  0  0  0
  -28.9405  -18.0011   20.4534 C   0  0  0  0  0  0  0  0  0  0  0  0
  -28.7876  -21.3509   21.0879 C   0  0  0  0  0  0  0  0  0  0  0  0
  -20.2011  -26.4650   19.9659 C   0  0  0  0  0  0  0  0  0  0  0  0
  -30.2278  -11.0557   19.3136 C   0  0  0  0  0  0  0  0  0  0  0  0
  -26.8146  -16.8945   17.6482 C   0  0  0  0  0  0  0  0  0  0  0  0
  -26.4250  -18.1278   20.3075 C   0  0  0  0  0  0  0  0  0  0  0  0
  -30.2050  -12.3118   20.1808 C   0  0  0  0  0  0  0  0  0  0  0  0
  -21.9361  -27.6901   17.0370 C   0  0  0  0  0  0  0  0  0  0  0  0
  -28.7886  -12.5969   20.6702 C   0  0  0  0  0  0  0  0  0  0  0  0
  -23.2648  -28.1469   17.6418 C   0  0  0  0  0  0  0  0  0  0  0  0
  -20.7694  -27.9877   17.9746 C   0  0  0  0  0  0  0  0  0  0  0  0
  -22.2413  -27.8678   19.9462 C   0  0  0  0  0  0  0  0  0  0  0  0
  -18.6261  -23.6320   19.9101 C   0  0  0  0  0  0  0  0  0  0  0  0
  -17.0563  -24.5426   18.8795 C   0  0  0  0  0  0  0  0  0  0  0  0
  -27.8396  -12.8539   19.4934 C   0  0  1  0  0  0  0  0  0  0  0  0
  -27.7455  -16.5913   18.8182 C   0  0  1  0  0  0  0  0  0  0  0  0
  -23.4626  -27.5723   19.0568 C   0  0  2  0  0  0  0  0  0  0  0  0
  -18.1082  -25.0806   19.8658 C   0  0  0  0  0  0  0  0  0  0  0  0
  -16.9345  -18.2034   21.3773 C   0  0  0  0  0  0  0  0  0  0  0  0
  -30.1945  -23.2720   21.8799 C   0  0  0  0  0  0  0  0  0  0  0  0
  -28.7218  -16.9768   23.3192 C   0  0  0  0  0  0  0  0  0  0  0  0
  -29.2544  -19.2907   24.1130 C   0  0  0  0  0  0  0  0  0  0  0  0
  -30.9194  -18.0270   22.7516 C   0  0  0  0  0  0  0  0  0  0  0  0
  -28.4262  -22.8160   18.5420 C   0  0  0  0  0  0  0  0  0  0  0  0
  -17.3708  -22.1597   18.4080 C   0  0  0  0  0  0  0  0  0  0  0  0
  -20.6329  -18.5860   18.2781 C   0  0  0  0  0  0  0  0  0  1  0  0
  -28.8383  -18.9322   21.6373 C   0  0  1  0  0  0  0  0  0  0  0  0
  -29.6916  -22.4972   20.6718 C   0  0  2  0  0  0  0  0  0  0  0  0
  -29.4113  -18.3020   22.9380 C   0  0  0  0  0  0  0  0  0  0  0  0
  -24.7268  -29.1641   20.4534 N   0  0  0  0  0  0  0  0  0  0  0  0
  -18.7661  -18.4329   19.8147 N   0  0  0  0  0  0  0  0  0  0  0  0
  -18.9780  -20.3529   18.3740 N   0  0  0  0  0  0  0  0  0  0  0  0
  -24.7540  -28.0609   19.6864 N   0  0  0  0  0  0  0  0  0  0  0  0
  -27.7331  -17.6426   19.8374 N   0  0  0  0  0  0  0  0  0  0  0  0
  -21.0119  -27.3969   19.2986 N   0  0  0  0  0  0  0  0  0  0  0  0
  -26.1980  -26.3872   18.8354 N   0  0  0  0  0  0  0  0  0  0  0  0
  -28.9560  -28.9990   21.2783 N   0  0  0  0  0  0  0  0  0  0  0  0
  -28.0265  -14.1926   18.9764 N   0  0  0  0  0  0  0  0  0  0  0  0
  -29.4908  -20.1743   21.2374 N   0  0  0  0  0  0  0  0  0  0  0  0
  -19.0536  -26.0606   19.2921 N   0  0  0  0  0  0  0  0  0  0  0  0
  -17.2882  -23.2090   19.4610 N   0  3  0  0  0  0  0  0  0  0  0  0
  -28.9565  -23.4397   19.7817 N   0  3  0  0  0  0  0  0  0  0  0  0
  -28.8543  -27.1433   19.9349 O   0  0  0  0  0  0  0  0  0  0  0  0
  -26.6341  -15.3170   20.4662 O   0  0  0  0  0  0  0  0  0  0  0  0
  -30.0514  -17.6121   20.0841 O   0  0  0  0  0  0  0  0  0  0  0  0
  -27.5792  -21.4865   21.2664 O   0  0  0  0  0  0  0  0  0  0  0  0
  -20.4773  -26.0150   21.0834 O   0  0  0  0  0  0  0  0  0  0  0  0
  -27.5009  -33.5486   24.1453 O   0  0  0  0  0  0  0  0  0  0  0  0
  -21.6948  -18.7422   19.2185 O   0  0  0  0  0  0  0  0  0  1  0  0
  -25.5364  -38.5562   22.9333 F   0  0  0  0  0  0  0  0  0  0  0  0
  -29.2120  -35.6429   23.5722 F   0  0  0  0  0  0  0  0  0  0  0  0
  -16.0081  -20.7079   20.4258 F   0  0  0  0  0  0  0  0  0  0  0  0
  1  2  1  0  0  0  0
  1  5  2  0  0  0  0
  2  6  2  0  0  0  0
  3  8  2  0  0  0  0
  3 15  1  0  0  0  0
  4  9  1  0  0  0  0
  4 15  2  0  0  0  0
  5 17  1  0  0  0  0
  6 19  1  0  0  0  0
  7 10  2  0  0  0  0
  7 18  1  0  0  0  0
  8 21  1  0  0  0  0
  9 21  2  0  0  0  0
 10 22  1  0  0  0  0
 11 12  2  0  0  0  0
 11 23  1  0  0  0  0
 12 24  1  0  0  0  0
 13 20  1  0  0  0  0
 13 22  2  0  0  0  0
 14 24  2  0  0  0  0
 14 25  1  0  0  0  0
 15 27  1  0  0  0  0
 16 27  1  0  0  0  0
 16 30  2  0  0  0  0
 16 32  1  0  0  0  0
 17 19  2  0  0  0  0
 17 37  1  0  0  0  0
 18 20  2  0  0  0  0
 18 38  1  0  0  0  0
 19 48  1  0  0  0  0
 20 39  1  0  0  0  0
 21 81  1  0  0  0  0
 22 82  1  0  0  0  0
 23 25  2  0  0  0  0
 23 81  1  0  0  0  0
 24 83  1  0  0  0  0
 25 84  1  0  0  0  0
 26 28  1  0  0  0  0
 26 29  2  0  0  0  0
 26 85  1  0  0  0  0
 27 63  2  0  0  0  0
 28 52  1  0  0  0  0
 28 64  2  0  0  0  0
 29 58  1  0  0  0  0
 29 65  1  0  0  0  0
 30 66  1  0  0  0  0
 30 69  1  0  0  0  0
 31 59  1  0  0  0  0
 31 64  1  0  0  0  0
 31 65  2  0  0  0  0
 32 70  1  0  0  0  0
 32 76  2  0  0  0  0
 33 49  1  0  0  0  0
 33 71  1  0  0  0  0
 33 77  2  0  0  0  0
 34 60  1  0  0  0  0
 34 67  1  0  0  0  0
 34 78  2  0  0  0  0
 35 61  1  0  0  0  0
 35 72  1  0  0  0  0
 35 79  2  0  0  0  0
 36 68  1  0  0  0  0
 36 73  1  0  0  0  0
 36 80  2  0  0  0  0
 37 40  1  0  0  0  0
 38 49  1  0  0  0  0
 39 67  1  0  0  0  0
 40 42  1  0  0  0  0
 41 43  1  0  0  0  0
 41 44  1  0  0  0  0
 42 48  1  0  0  0  0
 43 50  1  0  0  0  0
 44 68  1  0  0  0  0
 45 50  1  0  0  0  0
 45 68  1  0  0  0  0
 46 51  1  0  0  0  0
 46 74  1  0  0  0  0
 47 51  1  0  0  0  0
 47 74  1  0  0  0  0
 48 71  1  0  0  0  0
 49 67  1  0  0  0  0
 50 66  1  0  0  0  0
 51 73  1  0  0  0  0
 53 61  1  0  0  0  0
 54 62  1  0  0  0  0
 55 62  1  0  0  0  0
 56 62  1  0  0  0  0
 57 75  1  0  0  0  0
 58 74  1  0  0  0  0
 59 82  1  0  0  0  0
 60 62  1  0  0  0  0
 60 72  1  0  0  0  0
 61 75  1  0  0  0  0
 63 66  1  0  0  0  0
M  CHG  2  74   1  75   1
M  ISO  4  36 100  59 101  73 100  82 101
M  END
> <Batch ID>
0184

> <Smiles>
CNC(C)C(=O)NC(C(=O)N1Cc2cc([101O:1][101CH2:1]c3nc(C)c(F)c(CN4CC([100NH:0][100C:0](=O)N5CCCC(n6nc(-c7ccc(Oc8ccc(F)cc8F)cc7)c(C(N)=O)c6N)C5)C4)n3)ccc2CC1C(=O)NC1CCCc2ccccc21)C(C)(C)C

> <Shape>
0.247

> <Color>
0.056

> <Negative vol penalty>
0.000

$$$$

  -OEChem-04052323103D

 79 87  0     1  0  0  0  0  0999 V2000
  -32.4328  -13.2660   20.9668 C   0  0  0  0  0  0  0  0  0  0  0  0
  -31.9417  -14.5617   21.0902 C   0  0  0  0  0  0  0  0  0  0  0  0
  -26.1741  -27.7103   22.2310 C   0  0  0  0  0  0  0  0  0  0  0  0
  -26.1750  -28.9870   20.1798 C   0  0  0  0  0  0  0  0  0  0  0  0
  -31.6564  -12.2828   20.3549 C   0  0  0  0  0  0  0  0  0  0  0  0
  -30.6743  -14.8753   20.6006 C   0  0  0  0  0  0  0  0  0  0  0  0
  -25.0595  -19.1142   21.9505 C   0  0  0  0  0  0  0  0  0  0  0  0
  -27.1530  -26.8665   21.7063 C   0  0  0  0  0  0  0  0  0  0  0  0
  -27.1540  -28.1432   19.6551 C   0  0  0  0  0  0  0  0  0  0  0  0
  -24.2368  -20.0459   21.3188 C   0  0  0  0  0  0  0  0  0  0  0  0
  -27.3044  -24.2610   19.5586 C   0  0  0  0  0  0  0  0  0  0  0  0
  -27.1355  -22.8873   19.7318 C   0  0  0  0  0  0  0  0  0  0  0  0
  -22.9530  -18.2473   20.3513 C   0  0  0  0  0  0  0  0  0  0  0  0
  -29.2228  -22.7834   20.9441 C   0  0  0  0  0  0  0  0  0  0  0  0
  -25.6851  -28.7705   21.4677 C   0  0  0  0  0  0  0  0  0  0  0  0
  -24.8756  -30.8250   22.7450 C   0  0  0  0  0  0  0  0  0  0  0  0
  -30.3750  -12.5822   19.8661 C   0  0  0  0  0  0  0  0  0  0  0  0
  -24.8413  -17.7397   21.7782 C   0  0  0  0  0  0  0  0  0  0  0  0
  -29.8806  -13.8956   19.9803 C   0  0  0  0  0  0  0  0  0  0  0  0
  -23.7727  -17.3003   20.9839 C   0  0  0  0  0  0  0  0  0  0  0  0
  -27.6430  -27.0830   20.4183 C   0  0  0  0  0  0  0  0  0  0  0  0
  -23.1852  -19.6125   20.5167 C   0  0  0  0  0  0  0  0  0  0  0  0
  -28.4325  -24.8959   20.0781 C   0  0  0  0  0  0  0  0  0  0  0  0
  -28.0947  -22.1485   20.4245 C   0  0  0  0  0  0  0  0  0  0  0  0
  -29.3917  -24.1572   20.7709 C   0  0  0  0  0  0  0  0  0  0  0  0
  -24.6734  -29.6422   22.0090 C   0  0  0  0  0  0  0  0  0  0  0  0
  -23.6088  -31.2763   23.0244 C   0  0  0  0  0  0  0  0  0  0  0  0
  -26.0991  -31.4591   23.1408 C   0  0  0  0  0  0  0  0  0  0  0  0
  -21.6660  -22.7707   19.3718 C   0  0  0  0  0  0  0  0  0  0  0  0
  -26.5279  -15.3361   20.5610 C   0  0  0  0  0  0  0  0  0  0  0  0
  -24.0628  -13.5513   21.6836 C   0  0  0  0  0  0  0  0  0  0  0  0
  -20.7840  -13.4024   22.6187 C   0  0  0  0  0  0  0  0  0  0  0  0
  -20.4802  -27.6520   20.0403 C   0  0  0  0  0  0  0  0  0  0  0  0
  -29.5918  -11.4975   19.1699 C   0  0  0  0  0  0  0  0  0  0  0  0
  -25.7213  -16.7475   22.4879 C   0  0  0  0  0  0  0  0  0  0  0  0
  -23.4837  -15.8358   20.7830 C   0  0  0  0  0  0  0  0  0  0  0  0
  -28.1085  -11.8221   19.0132 C   0  0  0  0  0  0  0  0  0  0  0  0
  -20.6643  -28.2554   23.7297 C   0  0  0  0  0  0  0  0  0  0  0  0
  -27.9252  -13.2458   18.4970 C   0  0  0  0  0  0  0  0  0  0  0  0
  -20.6713  -29.7822   23.7734 C   0  0  0  0  0  0  0  0  0  0  0  0
  -21.0769  -24.8470   18.1380 C   0  0  0  0  0  0  0  0  0  0  0  0
  -22.6834  -24.9292   20.1090 C   0  0  0  0  0  0  0  0  0  0  0  0
  -19.9297  -27.7497   22.4959 C   0  0  0  0  0  0  0  0  0  0  0  0
  -20.0034  -25.4348   19.0500 C   0  0  0  0  0  0  0  0  0  0  0  0
  -21.5668  -25.5519   20.9529 C   0  0  0  0  0  0  0  0  0  0  0  0
  -20.5263  -29.8064   21.2455 C   0  0  0  0  0  0  0  0  0  0  0  0
  -28.5006  -14.2688   19.4839 C   0  0  1  0  0  0  0  0  0  0  0  0
  -22.1677  -24.1121   18.9216 C   0  0  0  0  0  0  0  0  0  0  0  0
  -25.7226  -15.3716   21.8290 C   0  0  1  0  0  0  0  0  0  0  0  0
  -21.2335  -30.4030   22.4791 C   0  0  2  0  0  0  0  0  0  0  0  0
  -19.0451  -11.7982   23.4553 C   0  0  0  0  0  0  0  0  0  0  0  0
  -23.7979  -12.3795   18.8789 C   0  0  0  0  0  0  0  0  0  0  0  0
  -21.5250  -11.5461   19.5173 C   0  0  0  0  0  0  0  0  0  0  0  0
  -23.5410  -10.7194   20.7316 C   0  0  0  0  0  0  0  0  0  0  0  0
  -20.4073  -14.9355   25.1220 C   0  0  0  0  0  0  0  0  0  0  0  0
  -22.6593  -21.8952   20.1056 C   0  0  0  0  0  0  0  0  0  1  0  0
  -22.7398  -13.0847   21.1259 C   0  0  1  0  0  0  0  0  0  0  0  0
  -20.1120  -12.8098   23.8441 C   0  0  2  0  0  0  0  0  0  0  0  0
  -22.9073  -11.9601   20.0654 C   0  0  0  0  0  0  0  0  0  0  0  0
  -23.3800  -29.3597   21.8320 N   0  0  0  0  0  0  0  0  0  0  0  0
  -22.7580  -30.3714   22.4609 N   0  0  0  0  0  0  0  0  0  0  0  0
  -24.3761  -14.9046   21.4929 N   0  0  0  0  0  0  0  0  0  0  0  0
  -20.4663  -28.3419   21.2650 N   0  0  0  0  0  0  0  0  0  0  0  0
  -20.6007  -26.2552   20.1011 N   0  0  0  0  0  0  0  0  0  0  0  0
  -23.1508  -32.3549   23.6947 N   0  0  0  0  0  0  0  0  0  0  0  0
  -27.3116  -30.8616   22.7703 N   0  0  0  0  0  0  0  0  0  0  0  0
  -27.5964  -14.4606   20.5975 N   0  0  0  0  0  0  0  0  0  0  0  0
  -21.9234  -12.7064   22.2743 N   0  0  0  0  0  0  0  0  0  0  0  0
  -19.4688  -13.8840   24.6525 N   0  3  0  0  0  0  0  0  0  0  0  0
  -26.1166  -32.5153   23.8173 O   0  0  0  0  0  0  0  0  0  0  0  0
  -20.5098  -22.4137   19.1507 O   0  0  0  0  0  0  0  0  0  0  0  0
  -26.2030  -16.0490   19.6187 O   0  0  0  0  0  0  0  0  0  0  0  0
  -24.7882  -12.7464   22.2732 O   0  0  0  0  0  0  0  0  0  0  0  0
  -20.3404  -14.3823   22.0241 O   0  0  0  0  0  0  0  0  0  0  0  0
  -20.3996  -28.2504   18.9603 O   0  0  0  0  0  0  0  0  0  0  0  0
  -28.5984  -26.2599   19.9061 O   0  0  0  0  0  0  0  0  0  0  0  0
  -22.3728  -20.5292   19.8921 O   0  0  0  0  0  0  0  0  0  1  0  0
  -27.9316  -20.8296   20.5921 F   0  0  0  0  0  0  0  0  0  0  0  0
  -30.4769  -24.7618   21.2733 F   0  0  0  0  0  0  0  0  0  0  0  0
  1  2  1  0  0  0  0
  1  5  2  0  0  0  0
  2  6  2  0  0  0  0
  3  8  2  0  0  0  0
  3 15  1  0  0  0  0
  4  9  1  0  0  0  0
  4 15  2  0  0  0  0
  5 17  1  0  0  0  0
  6 19  1  0  0  0  0
  7 10  2  0  0  0  0
  7 18  1  0  0  0  0
  8 21  1  0  0  0  0
  9 21  2  0  0  0  0
 10 22  1  0  0  0  0
 11 12  2  0  0  0  0
 11 23  1  0  0  0  0
 12 24  1  0  0  0  0
 13 20  1  0  0  0  0
 13 22  2  0  0  0  0
 14 24  2  0  0  0  0
 14 25  1  0  0  0  0
 15 26  1  0  0  0  0
 16 26  1  0  0  0  0
 16 27  2  0  0  0  0
 16 28  1  0  0  0  0
 17 19  2  0  0  0  0
 17 34  1  0  0  0  0
 18 20  2  0  0  0  0
 18 35  1  0  0  0  0
 19 47  1  0  0  0  0
 20 36  1  0  0  0  0
 21 76  1  0  0  0  0
 22 77  1  0  0  0  0
 23 25  2  0  0  0  0
 23 76  1  0  0  0  0
 24 78  1  0  0  0  0
 25 79  1  0  0  0  0
 26 60  2  0  0  0  0
 27 61  1  0  0  0  0
 27 65  1  0  0  0  0
 28 66  1  0  0  0  0
 28 70  2  0  0  0  0
 29 48  1  0  0  0  0
 29 56  1  0  0  0  0
 29 71  2  0  0  0  0
 30 49  1  0  0  0  0
 30 67  1  0  0  0  0
 30 72  2  0  0  0  0
 31 57  1  0  0  0  0
 31 62  1  0  0  0  0
 31 73  2  0  0  0  0
 32 58  1  0  0  0  0
 32 68  1  0  0  0  0
 32 74  2  0  0  0  0
 33 63  1  0  0  0  0
 33 64  1  0  0  0  0
 33 75  2  0  0  0  0
 34 37  1  0  0  0  0
 35 49  1  0  0  0  0
 36 62  1  0  0  0  0
 37 39  1  0  0  0  0
 38 40  1  0  0  0  0
 38 43  1  0  0  0  0
 39 47  1  0  0  0  0
 40 50  1  0  0  0  0
 41 44  1  0  0  0  0
 41 48  1  0  0  0  0
 42 45  1  0  0  0  0
 42 48  1  0  0  0  0
 43 63  1  0  0  0  0
 44 64  1  0  0  0  0
 45 64  1  0  0  0  0
 46 50  1  0  0  0  0
 46 63  1  0  0  0  0
 47 67  1  0  0  0  0
 49 62  1  0  0  0  0
 50 61  1  0  0  0  0
 51 58  1  0  0  0  0
 52 59  1  0  0  0  0
 53 59  1  0  0  0  0
 54 59  1  0  0  0  0
 55 69  1  0  0  0  0
 56 77  1  0  0  0  0
 57 59  1  0  0  0  0
 57 68  1  0  0  0  0
 58 69  1  0  0  0  0
 60 61  1  0  0  0  0
M  CHG  1  69   1
M  ISO  4  33 100  56 101  64 100  77 101
M  END
> <Batch ID>
0184

> <Smiles>
CNC(C)C(=O)NC(C(=O)N1Cc2cc([101O:1][101CH2:1]C(=O)C3CC[100N:0]([100C:0](=O)N4CCCC(n5nc(-c6ccc(Oc7ccc(F)cc7F)cc6)c(C(N)=O)c5N)C4)CC3)ccc2CC1C(=O)NC1CCCc2ccccc21)C(C)(C)C

> <Shape>
0.255

> <Color>
0.081

> <Negative vol penalty>
0.000

$$$$

  -OEChem-04052323103D

 87 97  0     1  0  0  0  0  0999 V2000
  -18.4727  -28.8915   22.9823 C   0  0  0  0  0  0  0  0  0  0  0  0
  -18.0192  -27.5855   22.8265 C   0  0  0  0  0  0  0  0  0  0  0  0
  -30.6152  -19.8781   20.0687 C   0  0  0  0  0  0  0  0  0  0  0  0
  -28.2717  -19.3342   20.2912 C   0  0  0  0  0  0  0  0  0  0  0  0
  -19.8271  -29.1816   22.8231 C   0  0  0  0  0  0  0  0  0  0  0  0
  -18.9199  -26.5690   22.5103 C   0  0  0  0  0  0  0  0  0  0  0  0
  -20.0781  -19.5888   23.6291 C   0  0  0  0  0  0  0  0  0  0  0  0
  -30.2764  -21.1017   19.4912 C   0  0  0  0  0  0  0  0  0  0  0  0
  -27.9329  -20.5579   19.7137 C   0  0  0  0  0  0  0  0  0  0  0  0
  -20.3281  -18.4120   22.9246 C   0  0  0  0  0  0  0  0  0  0  0  0
  -29.2090  -24.1367   20.5317 C   0  0  0  0  0  0  0  0  0  0  0  0
  -29.8863  -25.2724   20.9753 C   0  0  0  0  0  0  0  0  0  0  0  0
  -22.6568  -19.0172   22.7516 C   0  0  0  0  0  0  0  0  0  0  0  0
  -30.7016  -25.6614   18.7346 C   0  0  0  0  0  0  0  0  0  0  0  0
  -29.6128  -18.9943   20.4686 C   0  0  0  0  0  0  0  0  0  0  0  0
  -30.7007  -17.5215   22.2449 C   0  0  0  0  0  0  0  0  0  0  0  0
  -20.7463  -28.1665   22.5143 C   0  0  0  0  0  0  0  0  0  0  0  0
  -21.1154  -20.4954   23.8912 C   0  0  0  0  0  0  0  0  0  0  0  0
  -20.2877  -26.8461   22.3455 C   0  0  0  0  0  0  0  0  0  0  0  0
  -22.4179  -20.2036   23.4619 C   0  0  0  0  0  0  0  0  0  0  0  0
  -28.9353  -21.4417   19.3138 C   0  0  0  0  0  0  0  0  0  0  0  0
  -21.6170  -18.1274   22.4831 C   0  0  0  0  0  0  0  0  0  0  0  0
  -29.2780  -23.7632   19.1895 C   0  0  0  0  0  0  0  0  0  0  0  0
  -30.6326  -26.0349   20.0768 C   0  0  0  0  0  0  0  0  0  0  0  0
  -30.0243  -24.5256   18.2910 C   0  0  0  0  0  0  0  0  0  0  0  0
  -29.9622  -17.7298   21.0647 C   0  0  0  0  0  0  0  0  0  0  0  0
  -20.4854  -13.9557   20.1515 C   0  0  0  0  0  0  0  0  0  0  0  0
  -21.2320  -14.8984   20.8181 C   0  0  0  0  0  0  0  0  0  0  0  0
  -30.7567  -16.1557   22.3784 C   0  0  0  0  0  0  0  0  0  0  0  0
  -22.6398  -13.5066   20.0363 C   0  0  0  0  0  0  0  0  0  0  0  0
  -31.2840  -18.4772   23.1405 C   0  0  0  0  0  0  0  0  0  0  0  0
  -21.7035  -23.5189   23.1062 C   0  0  0  0  0  0  0  0  0  0  0  0
  -24.2217  -23.1427   25.1161 C   0  0  0  0  0  0  0  0  0  0  0  0
  -26.4198  -21.0241   26.6414 C   0  0  0  0  0  0  0  0  0  0  0  0
  -27.1537  -11.7873   20.2108 C   0  0  0  0  0  0  0  0  0  0  0  0
  -22.1934  -28.5365   22.3054 C   0  0  0  0  0  0  0  0  0  0  0  0
  -20.8345  -21.7477   24.6757 C   0  0  0  0  0  0  0  0  0  0  0  0
  -23.5701  -21.1343   23.7351 C   0  0  0  0  0  0  0  0  0  0  0  0
  -23.1393  -27.3389   22.3395 C   0  0  0  0  0  0  0  0  0  0  0  0
  -30.7144  -12.1261   19.8372 C   0  0  0  0  0  0  0  0  0  0  0  0
  -22.5883  -26.1990   21.4887 C   0  0  0  0  0  0  0  0  0  0  0  0
  -30.9897  -13.5912   20.1591 C   0  0  0  0  0  0  0  0  0  0  0  0
  -18.3150  -13.0246   21.0490 C   0  0  0  0  0  0  0  0  0  0  0  0
  -29.3697  -11.9656   19.1406 C   0  0  0  0  0  0  0  0  0  0  0  0
  -25.3208  -13.5923   19.7182 C   0  0  0  0  0  0  0  0  0  0  0  0
  -24.6555  -11.8537   20.7321 C   0  0  0  0  0  0  0  0  0  0  0  0
  -28.4760  -13.9708   20.2958 C   0  0  0  0  0  0  0  0  0  0  0  0
  -17.8874  -14.0901   22.0370 C   0  0  0  0  0  0  0  0  0  0  0  0
  -18.2030  -15.1198   19.9652 C   0  0  0  0  0  0  0  0  0  0  0  0
  -21.2376  -25.7119   22.0270 C   0  0  1  0  0  0  0  0  0  0  0  0
  -18.9843  -13.8135   19.9396 C   0  0  1  0  0  0  0  0  0  0  0  0
  -24.0034  -12.7805   19.6805 C   0  0  0  0  0  0  0  0  0  0  0  0
  -21.8674  -22.8452   24.4392 C   0  0  1  0  0  0  0  0  0  0  0  0
  -29.8389  -14.1853   20.9837 C   0  0  2  0  0  0  0  0  0  0  0  0
  -21.4004  -12.0954   17.3966 C   0  0  0  0  0  0  0  0  0  0  0  0
  -28.3882  -21.0138   28.1979 C   0  0  0  0  0  0  0  0  0  0  0  0
  -26.0161  -24.1180   22.8493 C   0  0  0  0  0  0  0  0  0  0  0  0
  -27.9796  -23.1989   24.1015 C   0  0  0  0  0  0  0  0  0  0  0  0
  -26.6033  -25.0205   25.1065 C   0  0  0  0  0  0  0  0  0  0  0  0
  -24.9774  -19.3872   28.6411 C   0  0  0  0  0  0  0  0  0  0  0  0
  -20.7550  -16.1124   21.5598 C   0  0  0  0  0  0  0  0  0  1  0  0
  -21.1175  -11.8892   18.8747 C   0  0  0  0  0  0  0  0  0  0  0  0
  -25.6514  -22.6826   24.9641 C   0  0  1  0  0  0  0  0  0  0  0  0
  -26.8749  -20.9134   28.0854 C   0  0  2  0  0  0  0  0  0  0  0  0
  -26.5408  -23.7382   24.2484 C   0  0  0  0  0  0  0  0  0  0  0  0
  -29.5767  -16.5878   20.4893 N   0  0  0  0  0  0  0  0  0  0  0  0
  -22.5723  -14.6133   20.7424 N   0  0  0  0  0  0  0  0  0  0  0  0
  -21.4010  -13.0709   19.6556 N   0  0  0  0  0  0  0  0  0  0  0  0
  -30.0750  -15.6487   21.3114 N   0  0  0  0  0  0  0  0  0  0  0  0
  -23.2436  -22.3488   24.5005 N   0  0  0  0  0  0  0  0  0  0  0  0
  -28.2752  -12.5676   19.9081 N   0  0  0  0  0  0  0  0  0  0  0  0
  -25.9325  -12.4121   20.3049 N   0  0  0  0  0  0  0  0  0  0  0  0
  -31.3220  -15.3509   23.3032 N   0  0  0  0  0  0  0  0  0  0  0  0
  -31.1318  -19.8408   22.8543 N   0  0  0  0  0  0  0  0  0  0  0  0
  -21.4302  -24.8709   23.1890 N   0  0  0  0  0  0  0  0  0  0  0  0
  -26.1093  -22.3240   26.3021 N   0  0  0  0  0  0  0  0  0  0  0  0
  -26.4461  -19.6091   28.6651 N   0  3  0  0  0  0  0  0  0  0  0  0
  -31.9354  -18.1320   24.1554 O   0  0  0  0  0  0  0  0  0  0  0  0
  -21.8182  -22.8612   22.0786 O   0  0  0  0  0  0  0  0  0  0  0  0
  -23.9809  -24.1648   25.7634 O   0  0  0  0  0  0  0  0  0  0  0  0
  -26.3505  -20.0551   25.8887 O   0  0  0  0  0  0  0  0  0  0  0  0
  -27.2331  -10.5612   20.3637 O   0  0  0  0  0  0  0  0  0  0  0  0
  -17.7195  -15.3093   21.3036 O   0  0  0  0  0  0  0  0  0  0  0  0
  -28.6044  -22.6357   18.7505 O   0  0  0  0  0  0  0  0  0  0  0  0
  -21.8635  -16.9798   21.7947 O   0  0  0  0  0  0  0  0  0  1  0  0
  -31.2817  -27.1264   20.5026 F   0  0  0  0  0  0  0  0  0  0  0  0
  -30.0934  -24.1725   17.0001 F   0  0  0  0  0  0  0  0  0  0  0  0
  1  2  1  0  0  0  0
  1  5  2  0  0  0  0
  2  6  2  0  0  0  0
  3  8  2  0  0  0  0
  3 15  1  0  0  0  0
  4  9  1  0  0  0  0
  4 15  2  0  0  0  0
  5 17  1  0  0  0  0
  6 19  1  0  0  0  0
  7 10  2  0  0  0  0
  7 18  1  0  0  0  0
  8 21  1  0  0  0  0
  9 21  2  0  0  0  0
 10 22  1  0  0  0  0
 11 12  2  0  0  0  0
 11 23  1  0  0  0  0
 12 24  1  0  0  0  0
 13 20  1  0  0  0  0
 13 22  2  0  0  0  0
 14 24  2  0  0  0  0
 14 25  1  0  0  0  0
 15 26  1  0  0  0  0
 16 26  1  0  0  0  0
 16 29  2  0  0  0  0
 16 31  1  0  0  0  0
 17 19  2  0  0  0  0
 17 36  1  0  0  0  0
 18 20  2  0  0  0  0
 18 37  1  0  0  0  0
 19 50  1  0  0  0  0
 20 38  1  0  0  0  0
 21 84  1  0  0  0  0
 22 85  1  0  0  0  0
 23 25  2  0  0  0  0
 23 84  1  0  0  0  0
 24 86  1  0  0  0  0
 25 87  1  0  0  0  0
 26 66  2  0  0  0  0
 27 28  2  0  0  0  0
 27 51  1  0  0  0  0
 27 68  1  0  0  0  0
 28 61  1  0  0  0  0
 28 67  1  0  0  0  0
 29 69  1  0  0  0  0
 29 73  1  0  0  0  0
 30 52  1  0  0  0  0
 30 67  2  0  0  0  0
 30 68  1  0  0  0  0
 31 74  1  0  0  0  0
 31 78  2  0  0  0  0
 32 53  1  0  0  0  0
 32 75  1  0  0  0  0
 32 79  2  0  0  0  0
 33 63  1  0  0  0  0
 33 70  1  0  0  0  0
 33 80  2  0  0  0  0
 34 64  1  0  0  0  0
 34 76  1  0  0  0  0
 34 81  2  0  0  0  0
 35 71  1  0  0  0  0
 35 72  1  0  0  0  0
 35 82  2  0  0  0  0
 36 39  1  0  0  0  0
 37 53  1  0  0  0  0
 38 70  1  0  0  0  0
 39 41  1  0  0  0  0
 40 42  1  0  0  0  0
 40 44  1  0  0  0  0
 41 50  1  0  0  0  0
 42 54  1  0  0  0  0
 43 48  1  0  0  0  0
 43 51  1  0  0  0  0
 44 71  1  0  0  0  0
 45 52  1  0  0  0  0
 45 72  1  0  0  0  0
 46 52  1  0  0  0  0
 46 72  1  0  0  0  0
 47 54  1  0  0  0  0
 47 71  1  0  0  0  0
 48 83  1  0  0  0  0
 49 51  1  0  0  0  0
 49 83  1  0  0  0  0
 50 75  1  0  0  0  0
 53 70  1  0  0  0  0
 54 69  1  0  0  0  0
 55 62  1  0  0  0  0
 56 64  1  0  0  0  0
 57 65  1  0  0  0  0
 58 65  1  0  0  0  0
 59 65  1  0  0  0  0
 60 77  1  0  0  0  0
 61 85  1  0  0  0  0
 62 68  1  0  0  0  0
 63 65  1  0  0  0  0
 63 76  1  0  0  0  0
 64 77  1  0  0  0  0
 66 69  1  0  0  0  0
M  CHG  1  77   1
M  ISO  4  35 100  61 101  72 100  85 101
M  END
> <Batch ID>
0184

> <Smiles>
CCn1c(C2C[100N:0]([100C:0](=O)N3CCCC(n4nc(-c5ccc(Oc6ccc(F)cc6F)cc5)c(C(N)=O)c4N)C3)C2)nc([101CH2:1][101O:1]c2ccc3c(c2)CN(C(=O)C(NC(=O)C(C)NC)C(C)(C)C)C(C(=O)NC2CCCc4ccccc42)C3)c1C1CCOC1

> <Shape>
0.232

> <Color>
0.075

> <Negative vol penalty>
0.000

$$$$

  -OEChem-04052323103D

 87 96  0     1  0  0  0  0  0999 V2000
  -29.3514  -30.7117   26.6156 C   0  0  0  0  0  0  0  0  0  0  0  0
  -29.0244  -29.6995   25.7190 C   0  0  0  0  0  0  0  0  0  0  0  0
  -23.0630  -10.3698   20.4528 C   0  0  0  0  0  0  0  0  0  0  0  0
  -24.3467   -9.2783   22.1842 C   0  0  0  0  0  0  0  0  0  0  0  0
  -28.3510  -31.5346   27.1313 C   0  0  0  0  0  0  0  0  0  0  0  0
  -27.6965  -29.5089   25.3384 C   0  0  0  0  0  0  0  0  0  0  0  0
  -27.1878  -28.8011   20.3499 C   0  0  0  0  0  0  0  0  0  0  0  0
  -22.2144   -9.2648   20.3853 C   0  0  0  0  0  0  0  0  0  0  0  0
  -23.4981   -8.1733   22.1167 C   0  0  0  0  0  0  0  0  0  0  0  0
  -27.5047  -27.5386   19.8504 C   0  0  0  0  0  0  0  0  0  0  0  0
  -20.4253   -7.3226   23.2368 C   0  0  0  0  0  0  0  0  0  0  0  0
  -19.9804   -6.7747   24.4399 C   0  0  0  0  0  0  0  0  0  0  0  0
  -28.6262  -23.5844   16.9634 C   0  0  0  0  0  0  0  0  0  0  0  0
  -25.1590  -26.9784   19.7950 C   0  0  0  0  0  0  0  0  0  0  0  0
  -21.0095   -4.6670   23.8606 C   0  0  0  0  0  0  0  0  0  0  0  0
  -28.7528  -22.2999   16.4595 C   0  0  0  0  0  0  0  0  0  0  0  0
  -24.1292  -10.3765   21.3522 C   0  0  0  0  0  0  0  0  0  0  0  0
  -24.8626  -12.6514   22.2437 C   0  0  0  0  0  0  0  0  0  0  0  0
  -27.0114  -31.3602   26.7494 C   0  0  0  0  0  0  0  0  0  0  0  0
  -25.8526  -29.1584   20.5864 C   0  0  0  0  0  0  0  0  0  0  0  0
  -26.6770  -30.3293   25.8505 C   0  0  0  0  0  0  0  0  0  0  0  0
  -24.8276  -28.2469   20.2952 C   0  0  0  0  0  0  0  0  0  0  0  0
  -28.3196  -23.7271   18.3121 C   0  0  0  0  0  0  0  0  0  0  0  0
  -28.1514  -22.5970   19.1044 C   0  0  0  0  0  0  0  0  0  0  0  0
  -22.4320   -8.1666   21.2173 C   0  0  0  0  0  0  0  0  0  0  0  0
  -26.4904  -26.6260   19.5756 C   0  0  0  0  0  0  0  0  0  0  0  0
  -21.1623   -6.5427   22.3456 C   0  0  0  0  0  0  0  0  0  0  0  0
  -20.2725   -5.4469   24.7518 C   0  0  0  0  0  0  0  0  0  0  0  0
  -21.4544   -5.2149   22.6575 C   0  0  0  0  0  0  0  0  0  0  0  0
  -25.0064  -11.5175   21.4219 C   0  0  0  0  0  0  0  0  0  0  0  0
  -28.2990  -21.3567   18.5046 C   0  0  0  0  0  0  0  0  0  0  0  0
  -25.9463  -13.4375   21.9369 C   0  0  0  0  0  0  0  0  0  0  0  0
  -23.8408  -12.9660   23.1990 C   0  0  0  0  0  0  0  0  0  0  0  0
  -24.1729  -29.9841   23.1556 C   0  0  0  0  0  0  0  0  0  0  0  0
  -21.8383  -30.5348   20.9718 C   0  0  0  0  0  0  0  0  0  0  0  0
  -20.5459  -29.8738   17.8832 C   0  0  0  0  0  0  0  0  0  0  0  0
  -29.1421  -15.7130   17.8766 C   0  0  0  0  0  0  0  0  0  0  0  0
  -25.9586  -32.2441   27.3700 C   0  0  0  0  0  0  0  0  0  0  0  0
  -25.5256  -30.5337   21.1003 C   0  0  0  0  0  0  0  0  0  0  0  0
  -23.3770  -28.5888   20.5124 C   0  0  0  0  0  0  0  0  0  0  0  0
  -24.6251  -32.2164   26.6275 C   0  0  0  0  0  0  0  0  0  0  0  0
  -30.0967  -12.4364   19.2279 C   0  0  0  0  0  0  0  0  0  0  0  0
  -24.2210  -30.7803   26.3093 C   0  0  0  0  0  0  0  0  0  0  0  0
  -28.8247  -11.9822   19.9452 C   0  0  0  0  0  0  0  0  0  0  0  0
  -27.1667  -18.0516   19.9125 C   0  0  0  0  0  0  0  0  0  0  0  0
  -29.7890  -13.3365   18.0334 C   0  0  0  0  0  0  0  0  0  0  0  0
  -27.2044  -16.6790   19.2488 C   0  0  0  0  0  0  0  0  0  0  0  0
  -27.6594  -14.0352   19.0581 C   0  0  0  0  0  0  0  0  0  0  0  0
  -28.7487  -18.1455   18.1398 C   0  0  0  0  0  0  0  0  0  0  0  0
  -25.2513  -30.1071   25.3945 C   0  0  1  0  0  0  0  0  0  0  0  0
  -24.1659  -30.6069   21.7882 C   0  0  1  0  0  0  0  0  0  0  0  0
  -27.9315  -13.1839   20.3060 C   0  0  1  0  0  0  0  0  0  0  0  0
  -27.6447  -18.9659   18.7897 C   0  0  2  0  0  0  0  0  0  0  0  0
  -26.5049  -22.0466   20.9427 C   0  0  0  0  0  0  0  0  0  0  0  0
  -18.6077  -30.4456   16.3952 C   0  0  0  0  0  0  0  0  0  0  0  0
  -20.0334  -28.7154   22.6278 C   0  0  0  0  0  0  0  0  0  0  0  0
  -18.4966  -28.5628   20.6572 C   0  0  0  0  0  0  0  0  0  0  0  0
  -18.9144  -30.7695   21.7428 C   0  0  0  0  0  0  0  0  0  0  0  0
  -30.2018  -22.8607   21.3014 C   0  0  0  0  0  0  0  0  0  0  0  0
  -22.3239  -31.0156   15.8110 C   0  0  0  0  0  0  0  0  0  0  0  0
  -28.1773  -25.0996   18.8825 C   0  0  0  0  0  0  0  0  0  1  0  0
  -27.8219  -22.7302   20.5546 C   0  0  1  0  0  0  0  0  0  0  0  0
  -20.7385  -29.7077   20.3509 C   0  0  1  0  0  0  0  0  0  0  0  0
  -20.0357  -30.7919   16.7872 C   0  0  2  0  0  0  0  0  0  0  0  0
  -19.5731  -29.4314   21.3423 C   0  0  0  0  0  0  0  0  0  0  0  0
  -28.5966  -21.1784   17.1979 N   0  0  0  0  0  0  0  0  0  0  0  0
  -26.0956  -11.5742   20.6509 N   0  0  0  0  0  0  0  0  0  0  0  0
  -26.6459  -12.7534   20.9868 N   0  0  0  0  0  0  0  0  0  0  0  0
  -23.1086  -29.9436   21.0223 N   0  0  0  0  0  0  0  0  0  0  0  0
  -28.9164  -14.4446   18.4225 N   0  0  0  0  0  0  0  0  0  0  0  0
  -28.3258  -16.7573   18.3089 N   0  0  0  0  0  0  0  0  0  0  0  0
  -26.3595  -14.6402   22.3898 N   0  0  0  0  0  0  0  0  0  0  0  0
  -22.7997  -12.0474   23.3908 N   0  0  0  0  0  0  0  0  0  0  0  0
  -28.1320  -20.2242   19.2900 N   0  0  0  0  0  0  0  0  0  0  0  0
  -25.0813  -30.5525   24.0280 N   0  0  0  0  0  0  0  0  0  0  0  0
  -20.3364  -30.4091   19.1365 N   0  0  0  0  0  0  0  0  0  0  0  0
  -28.8918  -22.1892   21.4603 N   0  3  0  0  0  0  0  0  0  0  0  0
  -20.8960  -30.6800   15.5755 N   0  3  0  0  0  0  0  0  0  0  0  0
  -23.8418  -14.0376   23.8510 O   0  0  0  0  0  0  0  0  0  0  0  0
  -23.4095  -29.0575   23.4014 O   0  0  0  0  0  0  0  0  0  0  0  0
  -21.5812  -31.6665   21.3900 O   0  0  0  0  0  0  0  0  0  0  0  0
  -21.0738  -28.7885   17.6509 O   0  0  0  0  0  0  0  0  0  0  0  0
  -30.0629  -15.9140   17.0736 O   0  0  0  0  0  0  0  0  0  0  0  0
  -21.6040   -7.0883   21.1519 O   0  0  0  0  0  0  0  0  0  0  0  0
  -26.7991  -25.3841   19.0851 O   0  0  0  0  0  0  0  0  0  1  0  0
  -19.8465   -4.9214   25.9079 F   0  0  0  0  0  0  0  0  0  0  0  0
  -22.1631   -4.4610   21.8058 F   0  0  0  0  0  0  0  0  0  0  0  0
  1  2  1  0  0  0  0
  1  5  2  0  0  0  0
  2  6  2  0  0  0  0
  3  8  2  0  0  0  0
  3 17  1  0  0  0  0
  4  9  1  0  0  0  0
  4 17  2  0  0  0  0
  5 19  1  0  0  0  0
  6 21  1  0  0  0  0
  7 10  2  0  0  0  0
  7 20  1  0  0  0  0
  8 25  1  0  0  0  0
  9 25  2  0  0  0  0
 10 26  1  0  0  0  0
 11 12  2  0  0  0  0
 11 27  1  0  0  0  0
 12 28  1  0  0  0  0
 13 16  2  0  0  0  0
 13 23  1  0  0  0  0
 14 22  1  0  0  0  0
 14 26  2  0  0  0  0
 15 28  2  0  0  0  0
 15 29  1  0  0  0  0
 16 66  1  0  0  0  0
 17 30  1  0  0  0  0
 18 30  1  0  0  0  0
 18 32  2  0  0  0  0
 18 33  1  0  0  0  0
 19 21  2  0  0  0  0
 19 38  1  0  0  0  0
 20 22  2  0  0  0  0
 20 39  1  0  0  0  0
 21 50  1  0  0  0  0
 22 40  1  0  0  0  0
 23 24  2  0  0  0  0
 23 61  1  0  0  0  0
 24 31  1  0  0  0  0
 24 62  1  0  0  0  0
 25 84  1  0  0  0  0
 26 85  1  0  0  0  0
 27 29  2  0  0  0  0
 27 84  1  0  0  0  0
 28 86  1  0  0  0  0
 29 87  1  0  0  0  0
 30 67  2  0  0  0  0
 31 66  2  0  0  0  0
 31 74  1  0  0  0  0
 32 68  1  0  0  0  0
 32 72  1  0  0  0  0
 33 73  1  0  0  0  0
 33 79  2  0  0  0  0
 34 51  1  0  0  0  0
 34 75  1  0  0  0  0
 34 80  2  0  0  0  0
 35 63  1  0  0  0  0
 35 69  1  0  0  0  0
 35 81  2  0  0  0  0
 36 64  1  0  0  0  0
 36 76  1  0  0  0  0
 36 82  2  0  0  0  0
 37 70  1  0  0  0  0
 37 71  1  0  0  0  0
 37 83  2  0  0  0  0
 38 41  1  0  0  0  0
 39 51  1  0  0  0  0
 40 69  1  0  0  0  0
 41 43  1  0  0  0  0
 42 44  1  0  0  0  0
 42 46  1  0  0  0  0
 43 50  1  0  0  0  0
 44 52  1  0  0  0  0
 45 47  1  0  0  0  0
 45 53  1  0  0  0  0
 46 70  1  0  0  0  0
 47 71  1  0  0  0  0
 48 52  1  0  0  0  0
 48 70  1  0  0  0  0
 49 53  1  0  0  0  0
 49 71  1  0  0  0  0
 50 75  1  0  0  0  0
 51 69  1  0  0  0  0
 52 68  1  0  0  0  0
 53 74  1  0  0  0  0
 54 62  1  0  0  0  0
 55 64  1  0  0  0  0
 56 65  1  0  0  0  0
 57 65  1  0  0  0  0
 58 65  1  0  0  0  0
 59 77  1  0  0  0  0
 60 78  1  0  0  0  0
 61 85  1  0  0  0  0
 62 77  1  0  0  0  0
 63 65  1  0  0  0  0
 63 76  1  0  0  0  0
 64 78  1  0  0  0  0
 67 68  1  0  0  0  0
M  CHG  2  77   1  78   1
M  ISO  4  37 100  61 101  71 100  85 101
M  END
> <Batch ID>
0184

> <Smiles>
CNC(C)C(=O)NC(C(=O)N1Cc2cc([101O:1][101CH2:1]c3ccnc(NC4CC[100N:0]([100C:0](=O)N5CCCC(n6nc(-c7ccc(Oc8ccc(F)cc8F)cc7)c(C(N)=O)c6N)C5)C4)c3C(C)NC)ccc2CC1C(=O)NC1CCCc2ccccc21)C(C)(C)C

> <Shape>
0.330

> <Color>
0.129

> <Negative vol penalty>
0.000

$$$$

  -OEChem-04052323103D

 85 93  0     1  0  0  0  0  0999 V2000
  -31.6256  -22.6049   18.3639 C   0  0  0  0  0  0  0  0  0  0  0  0
  -32.1917  -23.5861   19.1700 C   0  0  0  0  0  0  0  0  0  0  0  0
  -26.9140  -15.0096   21.7352 C   0  0  0  0  0  0  0  0  0  0  0  0
  -26.3924  -15.1682   19.3815 C   0  0  0  0  0  0  0  0  0  0  0  0
  -30.8132  -22.9712   17.2929 C   0  0  0  0  0  0  0  0  0  0  0  0
  -31.9360  -24.9334   18.9126 C   0  0  0  0  0  0  0  0  0  0  0  0
  -26.4059  -30.2047   19.8550 C   0  0  0  0  0  0  0  0  0  0  0  0
  -26.5759  -13.6564   21.7189 C   0  0  0  0  0  0  0  0  0  0  0  0
  -26.0543  -13.8150   19.3652 C   0  0  0  0  0  0  0  0  0  0  0  0
  -25.0224  -30.0339   19.8321 C   0  0  0  0  0  0  0  0  0  0  0  0
  -23.7559  -11.7935   21.7599 C   0  0  0  0  0  0  0  0  0  0  0  0
  -22.9604  -11.3126   22.7998 C   0  0  0  0  0  0  0  0  0  0  0  0
  -25.2546  -28.0254   21.1479 C   0  0  0  0  0  0  0  0  0  0  0  0
  -24.7079   -9.7638   23.4202 C   0  0  0  0  0  0  0  0  0  0  0  0
  -26.8223  -15.7655   20.5664 C   0  0  0  0  0  0  0  0  0  0  0  0
  -28.4381  -17.7265   20.3397 C   0  0  0  0  0  0  0  0  0  0  0  0
  -30.5581  -24.3243   17.0154 C   0  0  0  0  0  0  0  0  0  0  0  0
  -27.2264  -29.2795   20.5163 C   0  0  0  0  0  0  0  0  0  0  0  0
  -31.0994  -25.3225   17.8508 C   0  0  0  0  0  0  0  0  0  0  0  0
  -26.6480  -28.1880   21.1798 C   0  0  0  0  0  0  0  0  0  0  0  0
  -20.9722  -27.3874   24.7442 C   0  0  0  0  0  0  0  0  0  0  0  0
  -26.1461  -13.0592   20.5339 C   0  0  0  0  0  0  0  0  0  0  0  0
  -24.4467  -28.9426   20.4762 C   0  0  0  0  0  0  0  0  0  0  0  0
  -25.0274  -11.2596   21.5500 C   0  0  0  0  0  0  0  0  0  0  0  0
  -23.4364  -10.2977   23.6299 C   0  0  0  0  0  0  0  0  0  0  0  0
  -25.5033  -10.2448   22.3802 C   0  0  0  0  0  0  0  0  0  0  0  0
  -27.1709  -17.1635   20.5827 C   0  0  0  0  0  0  0  0  0  0  0  0
  -20.3798  -26.1559   24.5521 C   0  0  0  0  0  0  0  0  0  0  0  0
  -22.3201  -27.3620   25.0386 C   0  0  0  0  0  0  0  0  0  0  0  0
  -28.2439  -19.0796   20.4730 C   0  0  0  0  0  0  0  0  0  0  0  0
  -22.3524  -25.0917   24.9306 C   0  0  0  0  0  0  0  0  0  0  0  0
  -29.6796  -17.0838   20.0217 C   0  0  0  0  0  0  0  0  0  0  0  0
  -29.5508  -27.3033   19.6244 C   0  0  0  0  0  0  0  0  0  0  0  0
  -29.8099  -26.7916   22.8171 C   0  0  0  0  0  0  0  0  0  0  0  0
  -28.3289  -26.8553   25.8911 C   0  0  0  0  0  0  0  0  0  0  0  0
  -24.1561  -22.0864   23.5952 C   0  0  0  0  0  0  0  0  0  0  0  0
  -29.6651  -24.6643   15.8483 C   0  0  0  0  0  0  0  0  0  0  0  0
  -28.7149  -29.4924   20.5545 C   0  0  0  0  0  0  0  0  0  0  0  0
  -27.4831  -27.1774   21.9212 C   0  0  0  0  0  0  0  0  0  0  0  0
  -29.8121  -26.1113   15.3891 C   0  0  0  0  0  0  0  0  0  0  0  0
  -24.9136  -22.4590   20.0035 C   0  0  0  0  0  0  0  0  0  0  0  0
  -29.7141  -27.0482   16.5837 C   0  0  0  0  0  0  0  0  0  0  0  0
  -25.6528  -21.1540   19.7227 C   0  0  0  0  0  0  0  0  0  0  0  0
  -23.8221  -22.2842   21.0586 C   0  0  0  0  0  0  0  0  0  0  0  0
  -25.0558  -20.3763   22.0494 C   0  0  0  0  0  0  0  0  0  0  0  0
  -30.8601  -26.7953   17.5715 C   0  0  1  0  0  0  0  0  0  0  0  0
  -29.4954  -28.2092   20.8219 C   0  0  1  0  0  0  0  0  0  0  0  0
  -26.1897  -20.5434   21.0262 C   0  0  1  0  0  0  0  0  0  0  0  0
  -18.9251  -26.0590   24.2278 C   0  0  0  0  0  0  0  0  0  0  0  0
  -23.0687  -28.6336   25.2682 C   0  0  0  0  0  0  0  0  0  0  0  0
  -28.7804  -26.3445   28.3062 C   0  0  0  0  0  0  0  0  0  0  0  0
  -29.5386  -23.8088   22.2345 C   0  0  0  0  0  0  0  0  0  0  0  0
  -29.0439  -23.4505   24.6624 C   0  0  0  0  0  0  0  0  0  0  0  0
  -31.2504  -24.3822   23.9652 C   0  0  0  0  0  0  0  0  0  0  0  0
  -27.8555  -29.6643   26.6939 C   0  0  0  0  0  0  0  0  0  0  0  0
  -20.2004  -28.6709   24.6381 C   0  0  0  0  0  0  0  0  0  0  0  0
  -23.1195  -23.8170   25.0313 C   0  0  0  0  0  0  0  0  0  0  0  0
  -19.8891  -29.0864   23.2039 C   0  0  0  0  0  0  0  0  0  0  0  0
  -20.9482  -29.6912   21.0241 C   0  0  0  0  0  0  0  0  0  0  0  0
  -22.2954  -29.9517   20.3796 C   0  0  0  0  0  0  0  0  0  1  0  0
  -29.1851  -25.8312   23.8001 C   0  0  1  0  0  0  0  0  0  0  0  0
  -28.7971  -27.4123   27.2234 C   0  0  2  0  0  0  0  0  0  0  0  0
  -29.7386  -24.3860   23.6500 C   0  0  0  0  0  0  0  0  0  0  0  0
  -26.2405  -18.0837   20.8504 N   0  0  0  0  0  0  0  0  0  0  0  0
  -21.0423  -24.9838   24.6379 N   0  0  0  0  0  0  0  0  0  0  0  0
  -23.0441  -26.2281   25.1400 N   0  0  0  0  0  0  0  0  0  0  0  0
  -26.9237  -19.2386   20.7764 N   0  0  0  0  0  0  0  0  0  0  0  0
  -28.9342  -27.4257   21.9244 N   0  0  0  0  0  0  0  0  0  0  0  0
  -24.3429  -21.6398   22.2745 N   0  0  0  0  0  0  0  0  0  0  0  0
  -29.0753  -20.1370   20.3593 N   0  0  0  0  0  0  0  0  0  0  0  0
  -29.7024  -15.6859   19.9232 N   0  0  0  0  0  0  0  0  0  0  0  0
  -30.6166  -27.5509   18.7805 N   0  0  0  0  0  0  0  0  0  0  0  0
  -29.3851  -26.4132   25.1228 N   0  0  0  0  0  0  0  0  0  0  0  0
  -23.4003  -23.2440   23.7420 N   0  0  0  0  0  0  0  0  0  0  0  0
  -27.9149  -28.5331   27.6551 N   0  3  0  0  0  0  0  0  0  0  0  0
  -21.1483  -29.3378   22.4522 N   0  3  0  0  0  0  0  0  0  0  0  0
  -30.7411  -17.7289   19.8467 O   0  0  0  0  0  0  0  0  0  0  0  0
  -28.6911  -26.4424   19.4778 O   0  0  0  0  0  0  0  0  0  0  0  0
  -31.0289  -26.9779   22.8452 O   0  0  0  0  0  0  0  0  0  0  0  0
  -27.1443  -26.8130   25.5661 O   0  0  0  0  0  0  0  0  0  0  0  0
  -24.6232  -21.4948   24.5747 O   0  0  0  0  0  0  0  0  0  0  0  0
  -25.8162  -11.7387   20.5177 O   0  0  0  0  0  0  0  0  0  0  0  0
  -23.0967  -28.7733   20.4549 O   0  0  0  0  0  0  0  0  0  1  0  0
  -22.6730   -9.8370   24.6295 F   0  0  0  0  0  0  0  0  0  0  0  0
  -26.7245   -9.7287   22.1843 F   0  0  0  0  0  0  0  0  0  0  0  0
  1  2  1  0  0  0  0
  1  5  2  0  0  0  0
  2  6  2  0  0  0  0
  3  8  2  0  0  0  0
  3 15  1  0  0  0  0
  4  9  1  0  0  0  0
  4 15  2  0  0  0  0
  5 17  1  0  0  0  0
  6 19  1  0  0  0  0
  7 10  2  0  0  0  0
  7 18  1  0  0  0  0
  8 22  1  0  0  0  0
  9 22  2  0  0  0  0
 10 23  1  0  0  0  0
 11 12  2  0  0  0  0
 11 24  1  0  0  0  0
 12 25  1  0  0  0  0
 13 20  1  0  0  0  0
 13 23  2  0  0  0  0
 14 25  2  0  0  0  0
 14 26  1  0  0  0  0
 15 27  1  0  0  0  0
 16 27  1  0  0  0  0
 16 30  2  0  0  0  0
 16 32  1  0  0  0  0
 17 19  2  0  0  0  0
 17 37  1  0  0  0  0
 18 20  2  0  0  0  0
 18 38  1  0  0  0  0
 19 46  1  0  0  0  0
 20 39  1  0  0  0  0
 21 28  1  0  0  0  0
 21 29  2  0  0  0  0
 21 56  1  0  0  0  0
 22 82  1  0  0  0  0
 23 83  1  0  0  0  0
 24 26  2  0  0  0  0
 24 82  1  0  0  0  0
 25 84  1  0  0  0  0
 26 85  1  0  0  0  0
 27 64  2  0  0  0  0
 28 49  1  0  0  0  0
 28 65  2  0  0  0  0
 29 50  1  0  0  0  0
 29 66  1  0  0  0  0
 30 67  1  0  0  0  0
 30 70  1  0  0  0  0
 31 57  1  0  0  0  0
 31 65  1  0  0  0  0
 31 66  2  0  0  0  0
 32 71  1  0  0  0  0
 32 77  2  0  0  0  0
 33 47  1  0  0  0  0
 33 72  1  0  0  0  0
 33 78  2  0  0  0  0
 34 61  1  0  0  0  0
 34 68  1  0  0  0  0
 34 79  2  0  0  0  0
 35 62  1  0  0  0  0
 35 73  1  0  0  0  0
 35 80  2  0  0  0  0
 36 69  1  0  0  0  0
 36 74  1  0  0  0  0
 36 81  2  0  0  0  0
 37 40  1  0  0  0  0
 38 47  1  0  0  0  0
 39 68  1  0  0  0  0
 40 42  1  0  0  0  0
 41 43  1  0  0  0  0
 41 44  1  0  0  0  0
 42 46  1  0  0  0  0
 43 48  1  0  0  0  0
 44 69  1  0  0  0  0
 45 48  1  0  0  0  0
 45 69  1  0  0  0  0
 46 72  1  0  0  0  0
 47 68  1  0  0  0  0
 48 67  1  0  0  0  0
 51 62  1  0  0  0  0
 52 63  1  0  0  0  0
 53 63  1  0  0  0  0
 54 63  1  0  0  0  0
 55 75  1  0  0  0  0
 56 58  1  0  0  0  0
 57 74  1  0  0  0  0
 58 76  1  0  0  0  0
 59 60  1  0  0  0  0
 59 76  1  0  0  0  0
 60 83  1  0  0  0  0
 61 63  1  0  0  0  0
 61 73  1  0  0  0  0
 62 75  1  0  0  0  0
 64 67  1  0  0  0  0
M  CHG  2  75   1  76   1
M  ISO  4  36 100  60 101  74 100  83 101
M  END
> <Batch ID>
0184

> <Smiles>
CNC(C)C(=O)NC(C(=O)N1Cc2cc([101O:1][101CH2:1]CNCCc3c(C)nc(C[100NH:0][100C:0](=O)N4CCCC(n5nc(-c6ccc(Oc7ccc(F)cc7F)cc6)c(C(N)=O)c5N)C4)nc3C)ccc2CC1C(=O)NC1CCCc2ccccc21)C(C)(C)C

> <Shape>
0.205

> <Color>
0.086

> <Negative vol penalty>
0.000

$$$$

  -OEChem-04052323103D

 80 88  0     1  0  0  0  0  0999 V2000
  -16.7436  -27.6213   23.5058 C   0  0  0  0  0  0  0  0  0  0  0  0
  -17.9523  -27.0617   23.9042 C   0  0  0  0  0  0  0  0  0  0  0  0
  -24.4516   -9.7849   21.3309 C   0  0  0  0  0  0  0  0  0  0  0  0
  -24.8483  -10.7782   23.4973 C   0  0  0  0  0  0  0  0  0  0  0  0
  -16.7188  -28.5521   22.4693 C   0  0  0  0  0  0  0  0  0  0  0  0
  -19.1380  -27.4414   23.2743 C   0  0  0  0  0  0  0  0  0  0  0  0
  -24.8350  -25.4036   23.9954 C   0  0  0  0  0  0  0  0  0  0  0  0
  -24.1341   -8.5732   21.9446 C   0  0  0  0  0  0  0  0  0  0  0  0
  -24.5307   -9.5665   24.1110 C   0  0  0  0  0  0  0  0  0  0  0  0
  -25.6585  -24.4296   23.4325 C   0  0  0  0  0  0  0  0  0  0  0  0
  -22.8692   -5.3194   22.9586 C   0  0  0  0  0  0  0  0  0  0  0  0
  -21.7410   -4.6377   22.5028 C   0  0  0  0  0  0  0  0  0  0  0  0
  -26.6304  -26.0966   21.9848 C   0  0  0  0  0  0  0  0  0  0  0  0
  -20.3591   -6.5291   23.0942 C   0  0  0  0  0  0  0  0  0  0  0  0
  -24.8088  -10.8874   22.1073 C   0  0  0  0  0  0  0  0  0  0  0  0
  -24.2544  -13.1881   21.1548 C   0  0  0  0  0  0  0  0  0  0  0  0
  -17.9038  -28.9335   21.8186 C   0  0  0  0  0  0  0  0  0  0  0  0
  -24.8954  -26.7315   23.5489 C   0  0  0  0  0  0  0  0  0  0  0  0
  -19.1367  -28.3971   22.2422 C   0  0  0  0  0  0  0  0  0  0  0  0
  -25.8084  -27.0861   22.5455 C   0  0  0  0  0  0  0  0  0  0  0  0
  -24.1736   -8.4640   23.3346 C   0  0  0  0  0  0  0  0  0  0  0  0
  -26.5543  -24.7754   22.4250 C   0  0  0  0  0  0  0  0  0  0  0  0
  -22.7424   -6.6060   23.4824 C   0  0  0  0  0  0  0  0  0  0  0  0
  -20.4859   -5.2425   22.5705 C   0  0  0  0  0  0  0  0  0  0  0  0
  -21.4873   -7.2109   23.5501 C   0  0  0  0  0  0  0  0  0  0  0  0
  -25.1374  -12.1391   21.4739 C   0  0  0  0  0  0  0  0  0  0  0  0
  -25.0516  -14.1427   20.5721 C   0  0  0  0  0  0  0  0  0  0  0  0
  -22.8400  -13.2904   21.3664 C   0  0  0  0  0  0  0  0  0  0  0  0
  -22.8444  -28.7295   22.1686 C   0  0  0  0  0  0  0  0  0  0  0  0
  -25.2458  -30.8689   22.5911 C   0  0  0  0  0  0  0  0  0  0  0  0
  -28.5859  -31.4296   23.0113 C   0  0  0  0  0  0  0  0  0  0  0  0
  -29.7507  -17.1512   20.4583 C   0  0  0  0  0  0  0  0  0  0  0  0
  -17.8203  -29.9508   20.7081 C   0  0  0  0  0  0  0  0  0  0  0  0
  -24.0192  -27.7756   24.1850 C   0  0  0  0  0  0  0  0  0  0  0  0
  -25.9265  -28.5017   22.0449 C   0  0  0  0  0  0  0  0  0  0  0  0
  -19.0551  -29.9564   19.8129 C   0  0  0  0  0  0  0  0  0  0  0  0
  -29.8516  -13.9076   18.9936 C   0  0  0  0  0  0  0  0  0  0  0  0
  -20.3143  -30.0179   20.6646 C   0  0  0  0  0  0  0  0  0  0  0  0
  -28.5650  -13.2433   19.4870 C   0  0  0  0  0  0  0  0  0  0  0  0
  -27.9479  -21.5539   20.1078 C   0  0  0  0  0  0  0  0  0  0  0  0
  -30.4642  -14.8127   20.0601 C   0  0  0  0  0  0  0  0  0  0  0  0
  -28.2605  -15.1624   21.1065 C   0  0  0  0  0  0  0  0  0  0  0  0
  -20.4353  -28.7720   21.5512 C   0  0  1  0  0  0  0  0  0  0  0  0
  -23.8018  -28.9959   23.2955 C   0  0  1  0  0  0  0  0  0  0  0  0
  -28.2118  -21.5979   21.6236 C   0  0  2  0  0  0  0  0  0  0  0  0
  -27.5756  -14.2834   20.0460 C   0  0  2  0  0  0  0  0  0  0  0  0
  -28.8916  -19.4359   20.9075 C   0  0  2  0  0  0  0  0  0  0  0  0
  -28.1396  -20.1310   22.0367 C   0  0  1  0  0  0  0  0  0  0  0  0
  -28.3294  -20.1208   19.6325 C   0  0  0  0  0  0  0  0  0  0  0  0
  -29.3931  -20.1717   18.5284 C   0  0  0  0  0  0  0  0  0  0  0  0
  -27.0753  -19.4194   19.0764 C   0  0  0  0  0  0  0  0  0  0  0  0
  -30.2520  -33.2853   23.2906 C   0  0  0  0  0  0  0  0  0  0  0  0
  -25.0423  -31.4967   19.6121 C   0  0  0  0  0  0  0  0  0  0  0  0
  -27.2856  -32.5982   19.7621 C   0  0  0  0  0  0  0  0  0  0  0  0
  -25.3669  -33.4955   21.0797 C   0  0  0  0  0  0  0  0  0  0  0  0
  -29.4202  -30.4364   25.6715 C   0  0  0  0  0  0  0  0  0  0  0  0
  -27.2381  -22.4983   22.3685 C   0  0  0  0  0  0  0  0  0  1  0  0
  -26.4369  -31.3136   21.7772 C   0  0  1  0  0  0  0  0  0  0  0  0
  -29.3455  -32.2930   24.0023 C   0  0  2  0  0  0  0  0  0  0  0  0
  -26.0296  -32.1989   20.5657 C   0  0  0  0  0  0  0  0  0  0  0  0
  -26.3990  -12.4023   21.1227 N   0  0  0  0  0  0  0  0  0  0  0  0
  -26.3144  -13.6275   20.5769 N   0  0  0  0  0  0  0  0  0  0  0  0
  -25.0439  -29.4852   22.6939 N   0  0  0  0  0  0  0  0  0  0  0  0
  -29.4748  -15.7768   20.5474 N   0  0  0  0  0  0  0  0  0  0  0  0
  -24.7885  -15.3642   20.0610 N   0  0  0  0  0  0  0  0  0  0  0  0
  -22.1768  -12.2182   21.9787 N   0  0  0  0  0  0  0  0  0  0  0  0
  -21.5204  -28.9630   22.4881 N   0  0  0  0  0  0  0  0  0  0  0  0
  -27.3502  -31.9630   22.7114 N   0  0  0  0  0  0  0  0  0  0  0  0
  -28.7571  -17.9965   20.9369 N   0  0  0  0  0  0  0  0  0  0  0  0
  -28.7970  -19.9038   23.3393 N   0  3  0  0  0  0  0  0  0  0  0  0
  -30.1860  -31.4430   24.8921 N   0  3  0  0  0  0  0  0  0  0  0  0
  -22.1811  -14.2958   21.0079 O   0  0  0  0  0  0  0  0  0  0  0  0
  -23.2751  -28.3423   21.0886 O   0  0  0  0  0  0  0  0  0  0  0  0
  -24.5254  -31.7177   23.1222 O   0  0  0  0  0  0  0  0  0  0  0  0
  -29.0444  -30.3883   22.5467 O   0  0  0  0  0  0  0  0  0  0  0  0
  -30.8021  -17.5925   19.9822 O   0  0  0  0  0  0  0  0  0  0  0  0
  -23.8636   -7.2819   23.9338 O   0  0  0  0  0  0  0  0  0  0  0  0
  -27.3657  -23.8184   21.8687 O   0  0  0  0  0  0  0  0  0  1  0  0
  -19.4028   -4.5883   22.1313 F   0  0  0  0  0  0  0  0  0  0  0  0
  -21.3594   -8.4471   24.0512 F   0  0  0  0  0  0  0  0  0  0  0  0
  1  2  1  0  0  0  0
  1  5  2  0  0  0  0
  2  6  2  0  0  0  0
  3  8  2  0  0  0  0
  3 15  1  0  0  0  0
  4  9  1  0  0  0  0
  4 15  2  0  0  0  0
  5 17  1  0  0  0  0
  6 19  1  0  0  0  0
  7 10  2  0  0  0  0
  7 18  1  0  0  0  0
  8 21  1  0  0  0  0
  9 21  2  0  0  0  0
 10 22  1  0  0  0  0
 11 12  2  0  0  0  0
 11 23  1  0  0  0  0
 12 24  1  0  0  0  0
 13 20  1  0  0  0  0
 13 22  2  0  0  0  0
 14 24  2  0  0  0  0
 14 25  1  0  0  0  0
 15 26  1  0  0  0  0
 16 26  1  0  0  0  0
 16 27  2  0  0  0  0
 16 28  1  0  0  0  0
 17 19  2  0  0  0  0
 17 33  1  0  0  0  0
 18 20  2  0  0  0  0
 18 34  1  0  0  0  0
 19 43  1  0  0  0  0
 20 35  1  0  0  0  0
 21 77  1  0  0  0  0
 22 78  1  0  0  0  0
 23 25  2  0  0  0  0
 23 77  1  0  0  0  0
 24 79  1  0  0  0  0
 25 80  1  0  0  0  0
 26 61  2  0  0  0  0
 27 62  1  0  0  0  0
 27 65  1  0  0  0  0
 28 66  1  0  0  0  0
 28 72  2  0  0  0  0
 29 44  1  0  0  0  0
 29 67  1  0  0  0  0
 29 73  2  0  0  0  0
 30 58  1  0  0  0  0
 30 63  1  0  0  0  0
 30 74  2  0  0  0  0
 31 59  1  0  0  0  0
 31 68  1  0  0  0  0
 31 75  2  0  0  0  0
 32 64  1  0  0  0  0
 32 69  1  0  0  0  0
 32 76  2  0  0  0  0
 33 36  1  0  0  0  0
 34 44  1  0  0  0  0
 35 63  1  0  0  0  0
 36 38  1  0  0  0  0
 37 39  1  0  0  0  0
 37 41  1  0  0  0  0
 38 43  1  0  0  0  0
 39 46  1  0  0  0  0
 40 45  1  0  0  0  0
 40 49  1  0  0  0  0
 41 64  1  0  0  0  0
 42 46  1  0  0  0  0
 42 64  1  0  0  0  0
 43 67  1  0  0  0  0
 44 63  1  0  0  0  0
 45 48  1  0  0  0  0
 45 57  1  0  0  0  0
 46 62  1  0  0  0  0
 47 48  1  0  0  0  0
 47 49  1  0  0  0  0
 47 69  1  0  0  0  0
 48 70  1  0  0  0  0
 49 50  1  0  0  0  0
 49 51  1  0  0  0  0
 52 59  1  0  0  0  0
 53 60  1  0  0  0  0
 54 60  1  0  0  0  0
 55 60  1  0  0  0  0
 56 71  1  0  0  0  0
 57 78  1  0  0  0  0
 58 60  1  0  0  0  0
 58 68  1  0  0  0  0
 59 71  1  0  0  0  0
 61 62  1  0  0  0  0
M  CHG  2  70   1  71   1
M  ISO  4  32 100  57 101  69 100  78 101
M  END
> <Batch ID>
0184

> <Smiles>
CNC(C)C(=O)NC(C(=O)N1Cc2cc([101O:1][101CH2:1]C3CC(C)(C)C([100NH:0][100C:0](=O)N4CCCC(n5nc(-c6ccc(Oc7ccc(F)cc7F)cc6)c(C(N)=O)c5N)C4)C3N)ccc2CC1C(=O)NC1CCCc2ccccc21)C(C)(C)C

> <Shape>
0.283

> <Color>
0.123

> <Negative vol penalty>
0.000

$$$$

  -OEChem-04052323103D

 82 91  0     1  0  0  0  0  0999 V2000
  -31.1999  -32.6620   28.2302 C   0  0  0  0  0  0  0  0  0  0  0  0
  -31.6453  -31.3453   28.2866 C   0  0  0  0  0  0  0  0  0  0  0  0
  -23.0054   -9.8857   19.9777 C   0  0  0  0  0  0  0  0  0  0  0  0
  -23.7291   -9.9388   22.2821 C   0  0  0  0  0  0  0  0  0  0  0  0
  -30.2752  -33.0429   27.2587 C   0  0  0  0  0  0  0  0  0  0  0  0
  -31.1654  -30.4083   27.3722 C   0  0  0  0  0  0  0  0  0  0  0  0
  -33.2091  -24.5541   23.7851 C   0  0  0  0  0  0  0  0  0  0  0  0
  -22.2418   -8.7492   20.2436 C   0  0  0  0  0  0  0  0  0  0  0  0
  -22.9654   -8.8022   22.5481 C   0  0  0  0  0  0  0  0  0  0  0  0
  -32.8036  -23.2421   23.5443 C   0  0  0  0  0  0  0  0  0  0  0  0
  -23.2190   -5.4639   22.0765 C   0  0  0  0  0  0  0  0  0  0  0  0
  -23.8089   -4.4483   22.8289 C   0  0  0  0  0  0  0  0  0  0  0  0
  -31.2681  -24.0321   21.8599 C   0  0  0  0  0  0  0  0  0  0  0  0
  -29.7464  -17.7048   22.6736 C   0  0  0  0  0  0  0  0  0  0  0  0
  -22.0834   -4.6867   24.5031 C   0  0  0  0  0  0  0  0  0  0  0  0
  -23.7491  -10.4805   20.9969 C   0  0  0  0  0  0  0  0  0  0  0  0
  -24.1277  -12.9971   20.8211 C   0  0  0  0  0  0  0  0  0  0  0  0
  -29.7910  -32.1123   26.3258 C   0  0  0  0  0  0  0  0  0  0  0  0
  -32.6384  -25.6178   23.0715 C   0  0  0  0  0  0  0  0  0  0  0  0
  -30.2324  -30.7768   26.3882 C   0  0  0  0  0  0  0  0  0  0  0  0
  -31.6700  -25.3565   22.0917 C   0  0  0  0  0  0  0  0  0  0  0  0
  -30.2318  -18.9429   23.0798 C   0  0  0  0  0  0  0  0  0  0  0  0
  -31.5063  -19.3440   22.6951 C   0  0  0  0  0  0  0  0  0  0  0  0
  -22.2218   -8.2074   21.5288 C   0  0  0  0  0  0  0  0  0  0  0  0
  -31.8309  -22.9812   22.5837 C   0  0  0  0  0  0  0  0  0  0  0  0
  -22.0614   -6.0910   22.5373 C   0  0  0  0  0  0  0  0  0  0  0  0
  -23.2411   -4.0597   24.0423 C   0  0  0  0  0  0  0  0  0  0  0  0
  -21.4935   -5.7023   23.7506 C   0  0  0  0  0  0  0  0  0  0  0  0
  -24.5386  -11.6542   20.7227 C   0  0  0  0  0  0  0  0  0  0  0  0
  -32.2496  -18.4773   21.9102 C   0  0  0  0  0  0  0  0  0  0  0  0
  -30.5685  -16.9116   21.8895 C   0  0  0  0  0  0  0  0  0  0  0  0
  -25.2358  -13.7227   20.4573 C   0  0  0  0  0  0  0  0  0  0  0  0
  -22.8581  -13.5401   21.2068 C   0  0  0  0  0  0  0  0  0  0  0  0
  -30.9288  -28.1813   23.8521 C   0  0  0  0  0  0  0  0  0  0  0  0
  -31.3014  -28.9046   20.7120 C   0  0  0  0  0  0  0  0  0  0  0  0
  -31.8928  -27.8046   17.5359 C   0  0  0  0  0  0  0  0  0  0  0  0
  -30.7125  -14.6986   20.6945 C   0  0  0  0  0  0  0  0  0  0  0  0
  -28.7565  -32.5600   25.3238 C   0  0  0  0  0  0  0  0  0  0  0  0
  -33.1059  -27.0249   23.3242 C   0  0  0  0  0  0  0  0  0  0  0  0
  -31.0408  -26.4612   21.2840 C   0  0  0  0  0  0  0  0  0  0  0  0
  -28.5808  -31.5925   24.1562 C   0  0  0  0  0  0  0  0  0  0  0  0
  -29.6022  -12.2426   18.3680 C   0  0  0  0  0  0  0  0  0  0  0  0
  -28.4755  -30.1576   24.6631 C   0  0  0  0  0  0  0  0  0  0  0  0
  -33.7882  -19.6982   20.2320 C   0  0  0  0  0  0  0  0  0  0  0  0
  -34.1913  -18.2568   20.2192 C   0  0  0  0  0  0  0  0  0  0  0  0
  -28.1521  -11.9810   18.7813 C   0  0  0  0  0  0  0  0  0  0  0  0
  -30.5013  -12.4885   19.5783 C   0  0  0  0  0  0  0  0  0  0  0  0
  -28.5831  -13.2722   20.9106 C   0  0  0  0  0  0  0  0  0  0  0  0
  -29.7539  -29.7370   25.3981 C   0  0  1  0  0  0  0  0  0  0  0  0
  -33.6260  -18.8647   21.4739 C   0  0  0  0  0  0  0  0  0  0  0  0
  -32.0870  -28.0783   22.9005 C   0  0  1  0  0  0  0  0  0  0  0  0
  -27.6266  -13.0832   19.7219 C   0  0  2  0  0  0  0  0  0  0  0  0
  -29.3689  -19.8196   23.9258 C   0  0  0  0  0  0  0  0  0  0  0  0
  -32.1007  -28.6255   15.1737 C   0  0  0  0  0  0  0  0  0  0  0  0
  -28.2679  -29.1883   20.5462 C   0  0  0  0  0  0  0  0  0  0  0  0
  -28.4620  -29.0597   18.0534 C   0  0  0  0  0  0  0  0  0  0  0  0
  -29.5489  -30.9322   19.2923 C   0  0  0  0  0  0  0  0  0  0  0  0
  -34.6894  -26.8583   17.3304 C   0  0  0  0  0  0  0  0  0  0  0  0
  -32.0536  -20.6749   23.1198 C   0  0  0  0  0  0  0  0  0  1  0  0
  -30.5313  -28.6079   19.4479 C   0  0  1  0  0  0  0  0  0  0  0  0
  -32.8432  -28.2977   16.4598 C   0  0  2  0  0  0  0  0  0  0  0  0
  -29.2128  -29.4262   19.3513 C   0  0  0  0  0  0  0  0  0  0  0  0
  -25.8084  -11.5311   20.3273 N   0  0  0  0  0  0  0  0  0  0  0  0
  -31.8120  -17.2671   21.4960 N   0  0  0  0  0  0  0  0  0  0  0  0
  -26.2051  -12.8060   20.1739 N   0  0  0  0  0  0  0  0  0  0  0  0
  -31.5268  -27.8207   21.5723 N   0  0  0  0  0  0  0  0  0  0  0  0
  -29.9429  -13.5479   20.4212 N   0  0  0  0  0  0  0  0  0  0  0  0
  -25.4657  -15.0490   20.3553 N   0  0  0  0  0  0  0  0  0  0  0  0
  -21.8285  -12.6532   21.5498 N   0  0  0  0  0  0  0  0  0  0  0  0
  -30.0652  -15.6520   21.4796 N   0  0  0  0  0  0  0  0  0  0  0  0
  -30.8008  -29.4203   24.4505 N   0  0  0  0  0  0  0  0  0  0  0  0
  -31.4571  -28.8340   18.3433 N   0  0  0  0  0  0  0  0  0  0  0  0
  -33.8686  -27.2591   16.1588 N   0  3  0  0  0  0  0  0  0  0  0  0
  -22.6380  -14.7748   21.2304 O   0  0  0  0  0  0  0  0  0  0  0  0
  -30.2040  -27.2092   24.0292 O   0  0  0  0  0  0  0  0  0  0  0  0
  -31.6949  -30.0542   20.9247 O   0  0  0  0  0  0  0  0  0  0  0  0
  -31.5664  -26.6249   17.6468 O   0  0  0  0  0  0  0  0  0  0  0  0
  -31.8510  -14.8405   20.2411 O   0  0  0  0  0  0  0  0  0  0  0  0
  -21.4765   -7.0985   21.7887 O   0  0  0  0  0  0  0  0  0  0  0  0
  -31.4328  -21.7015   22.3472 O   0  0  0  0  0  0  0  0  0  1  0  0
  -23.8067   -3.0833   24.7640 F   0  0  0  0  0  0  0  0  0  0  0  0
  -20.3808   -6.3002   24.1980 F   0  0  0  0  0  0  0  0  0  0  0  0
  1  2  1  0  0  0  0
  1  5  2  0  0  0  0
  2  6  2  0  0  0  0
  3  8  2  0  0  0  0
  3 16  1  0  0  0  0
  4  9  1  0  0  0  0
  4 16  2  0  0  0  0
  5 18  1  0  0  0  0
  6 20  1  0  0  0  0
  7 10  2  0  0  0  0
  7 19  1  0  0  0  0
  8 24  1  0  0  0  0
  9 24  2  0  0  0  0
 10 25  1  0  0  0  0
 11 12  2  0  0  0  0
 11 26  1  0  0  0  0
 12 27  1  0  0  0  0
 13 21  1  0  0  0  0
 13 25  2  0  0  0  0
 14 22  2  0  0  0  0
 14 31  1  0  0  0  0
 15 27  2  0  0  0  0
 15 28  1  0  0  0  0
 16 29  1  0  0  0  0
 17 29  1  0  0  0  0
 17 32  2  0  0  0  0
 17 33  1  0  0  0  0
 18 20  2  0  0  0  0
 18 38  1  0  0  0  0
 19 21  2  0  0  0  0
 19 39  1  0  0  0  0
 20 49  1  0  0  0  0
 21 40  1  0  0  0  0
 22 23  1  0  0  0  0
 22 53  1  0  0  0  0
 23 30  2  0  0  0  0
 23 59  1  0  0  0  0
 24 79  1  0  0  0  0
 25 80  1  0  0  0  0
 26 28  2  0  0  0  0
 26 79  1  0  0  0  0
 27 81  1  0  0  0  0
 28 82  1  0  0  0  0
 29 63  2  0  0  0  0
 30 50  1  0  0  0  0
 30 64  1  0  0  0  0
 31 64  2  0  0  0  0
 31 70  1  0  0  0  0
 32 65  1  0  0  0  0
 32 68  1  0  0  0  0
 33 69  1  0  0  0  0
 33 74  2  0  0  0  0
 34 51  1  0  0  0  0
 34 71  1  0  0  0  0
 34 75  2  0  0  0  0
 35 60  1  0  0  0  0
 35 66  1  0  0  0  0
 35 76  2  0  0  0  0
 36 61  1  0  0  0  0
 36 72  1  0  0  0  0
 36 77  2  0  0  0  0
 37 67  1  0  0  0  0
 37 70  1  0  0  0  0
 37 78  2  0  0  0  0
 38 41  1  0  0  0  0
 39 51  1  0  0  0  0
 40 66  1  0  0  0  0
 41 43  1  0  0  0  0
 42 46  1  0  0  0  0
 42 47  1  0  0  0  0
 43 49  1  0  0  0  0
 44 45  1  0  0  0  0
 44 50  1  0  0  0  0
 45 50  1  0  0  0  0
 46 52  1  0  0  0  0
 47 67  1  0  0  0  0
 48 52  1  0  0  0  0
 48 67  1  0  0  0  0
 49 71  1  0  0  0  0
 51 66  1  0  0  0  0
 52 65  1  0  0  0  0
 54 61  1  0  0  0  0
 55 62  1  0  0  0  0
 56 62  1  0  0  0  0
 57 62  1  0  0  0  0
 58 73  1  0  0  0  0
 59 80  1  0  0  0  0
 60 62  1  0  0  0  0
 60 72  1  0  0  0  0
 61 73  1  0  0  0  0
 63 65  1  0  0  0  0
M  CHG  1  73   1
M  ISO  4  37 100  59 101  70 100  80 101
M  END
> <Batch ID>
0184

> <Smiles>
CNC(C)C(=O)NC(C(=O)N1Cc2cc([101O:1][101CH2:1]c3c(C)cc([100NH:0][100C:0](=O)N4CCCC(n5nc(-c6ccc(Oc7ccc(F)cc7F)cc6)c(C(N)=O)c5N)C4)nc3C3CC3)ccc2CC1C(=O)NC1CCCc2ccccc21)C(C)(C)C

> <Shape>
0.218

> <Color>
0.202

> <Negative vol penalty>
0.000

$$$$

  -OEChem-04052323103D

 83 91  0     1  0  0  0  0  0999 V2000
  -26.8023  -35.2134   23.0728 C   0  0  0  0  0  0  0  0  0  0  0  0
  -27.2068  -33.8982   22.8672 C   0  0  0  0  0  0  0  0  0  0  0  0
  -26.8226  -12.4596   20.1500 C   0  0  0  0  0  0  0  0  0  0  0  0
  -25.5439  -14.4726   20.5371 C   0  0  0  0  0  0  0  0  0  0  0  0
  -25.5260  -35.4798   23.5667 C   0  0  0  0  0  0  0  0  0  0  0  0
  -26.3354  -32.8487   23.1564 C   0  0  0  0  0  0  0  0  0  0  0  0
  -26.2661  -29.3234   19.5214 C   0  0  0  0  0  0  0  0  0  0  0  0
  -25.8910  -11.7265   20.8851 C   0  0  0  0  0  0  0  0  0  0  0  0
  -24.6123  -13.7395   21.2722 C   0  0  0  0  0  0  0  0  0  0  0  0
  -27.3292  -28.4221   19.4882 C   0  0  0  0  0  0  0  0  0  0  0  0
  -23.6591   -9.2625   22.3554 C   0  0  0  0  0  0  0  0  0  0  0  0
  -23.2323   -8.0432   21.8292 C   0  0  0  0  0  0  0  0  0  0  0  0
  -25.9597  -26.7753   20.5981 C   0  0  0  0  0  0  0  0  0  0  0  0
  -22.3907   -9.1825   19.8720 C   0  0  0  0  0  0  0  0  0  0  0  0
  -26.6490  -13.8327   19.9761 C   0  0  0  0  0  0  0  0  0  0  0  0
  -27.5922  -14.8450   17.8328 C   0  0  0  0  0  0  0  0  0  0  0  0
  -24.6351  -34.4334   23.8530 C   0  0  0  0  0  0  0  0  0  0  0  0
  -25.0432  -28.9606   20.1040 C   0  0  0  0  0  0  0  0  0  0  0  0
  -25.0464  -33.1014   23.6558 C   0  0  0  0  0  0  0  0  0  0  0  0
  -24.8818  -27.6730   20.6352 C   0  0  0  0  0  0  0  0  0  0  0  0
  -24.7859  -12.3664   21.4462 C   0  0  0  0  0  0  0  0  0  0  0  0
  -27.1770  -27.1488   20.0292 C   0  0  0  0  0  0  0  0  0  0  0  0
  -23.4516  -10.4418   21.6400 C   0  0  0  0  0  0  0  0  0  0  0  0
  -22.5982   -8.0032   20.5875 C   0  0  0  0  0  0  0  0  0  0  0  0
  -22.8174  -10.4018   20.3982 C   0  0  0  0  0  0  0  0  0  0  0  0
  -27.6113  -14.5907   19.2173 C   0  0  0  0  0  0  0  0  0  0  0  0
  -28.7153  -15.6028   17.6074 C   0  0  0  0  0  0  0  0  0  0  0  0
  -26.6439  -14.4332   16.8394 C   0  0  0  0  0  0  0  0  0  0  0  0
  -23.3283  -30.0183   22.5625 C   0  0  0  0  0  0  0  0  0  0  0  0
  -21.1538  -27.8757   21.4655 C   0  0  0  0  0  0  0  0  0  0  0  0
  -20.5339  -25.0265   19.6921 C   0  0  0  0  0  0  0  0  0  0  0  0
  -31.7966  -19.1679   21.4876 C   0  0  0  0  0  0  0  0  0  0  0  0
  -23.2826  -34.7689   24.4298 C   0  0  0  0  0  0  0  0  0  0  0  0
  -23.8976  -29.9353   20.1079 C   0  0  0  0  0  0  0  0  0  0  0  0
  -23.5829  -27.2274   21.2538 C   0  0  0  0  0  0  0  0  0  0  0  0
  -22.2861  -33.6148   24.3571 C   0  0  0  0  0  0  0  0  0  0  0  0
  -33.0507  -16.1038   19.7231 C   0  0  0  0  0  0  0  0  0  0  0  0
  -22.9358  -32.3180   24.8295 C   0  0  0  0  0  0  0  0  0  0  0  0
  -31.8384  -15.6193   18.9273 C   0  0  0  0  0  0  0  0  0  0  0  0
  -29.2562  -20.7397   23.6989 C   0  0  0  0  0  0  0  0  0  0  0  0
  -32.9894  -17.5945   20.0208 C   0  0  0  0  0  0  0  0  0  0  0  0
  -30.5820  -17.1488   20.5267 C   0  0  0  0  0  0  0  0  0  0  0  0
  -29.7008  -18.5731   22.8160 C   0  0  0  0  0  0  0  0  0  0  0  0
  -24.1210  -31.9368   23.9342 C   0  0  1  0  0  0  0  0  0  0  0  0
  -22.8614  -29.6352   21.1866 C   0  0  1  0  0  0  0  0  0  0  0  0
  -30.5961  -16.5055   19.1293 C   0  0  2  0  0  0  0  0  0  0  0  0
  -29.2807  -19.2733   24.0967 C   0  0  2  0  0  0  0  0  0  0  0  0
  -30.4888  -20.8516   22.7918 C   0  0  2  0  0  0  0  0  0  0  0  0
  -18.6628  -23.5025   19.0040 C   0  0  0  0  0  0  0  0  0  0  0  0
  -30.5548  -26.7514   19.6631 C   0  0  0  0  0  0  0  0  0  0  0  0
  -21.0847  -26.6946   24.2780 C   0  0  0  0  0  0  0  0  0  0  0  0
  -19.9802  -24.6614   23.3217 C   0  0  0  0  0  0  0  0  0  0  0  0
  -18.8507  -26.8804   23.1693 C   0  0  0  0  0  0  0  0  0  0  0  0
  -27.8810  -17.3680   24.9027 C   0  0  0  0  0  0  0  0  0  0  0  0
  -21.0224  -25.5344   16.8177 C   0  0  0  0  0  0  0  0  0  0  0  0
  -30.3135  -21.9368   21.7367 C   0  0  0  0  0  0  0  0  0  0  0  0
  -30.1355  -23.3015   22.3801 C   0  0  0  0  0  0  0  0  0  0  0  0
  -29.6773  -25.6921   21.8200 C   0  0  0  0  0  0  0  0  0  0  0  0
  -20.8696  -26.4151   21.7203 C   0  0  1  0  0  0  0  0  0  0  0  0
  -19.5047  -24.7100   18.6221 C   0  0  2  0  0  0  0  0  0  0  0  0
  -29.4144  -26.6569   20.6683 C   0  0  2  0  0  0  0  0  0  1  0  0
  -20.2215  -26.1716   23.1125 C   0  0  0  0  0  0  0  0  0  0  0  0
  -28.6633  -15.1419   19.8284 N   0  0  0  0  0  0  0  0  0  0  0  0
  -29.3157  -15.7502   18.8231 N   0  0  0  0  0  0  0  0  0  0  0  0
  -22.4944  -28.2186   21.2393 N   0  0  0  0  0  0  0  0  0  0  0  0
  -31.7858  -17.9593   20.7736 N   0  0  0  0  0  0  0  0  0  0  0  0
  -30.6520  -19.5097   22.2100 N   0  0  0  0  0  0  0  0  0  0  0  0
  -29.2381  -16.1506   16.4898 N   0  0  0  0  0  0  0  0  0  0  0  0
  -25.5477  -13.6585   17.2426 N   0  0  0  0  0  0  0  0  0  0  0  0
  -23.6517  -31.3552   22.6949 N   0  0  0  0  0  0  0  0  0  0  0  0
  -20.0617  -25.9543   20.5963 N   0  0  0  0  0  0  0  0  0  0  0  0
  -27.9566  -18.8171   24.5508 N   0  3  0  0  0  0  0  0  0  0  0  0
  -20.1785  -24.4217   17.3244 N   0  3  0  0  0  0  0  0  0  0  0  0
  -29.9232  -24.3126   21.3168 N   0  3  0  0  0  0  0  0  0  0  0  0
  -26.7738  -14.7292   15.6274 O   0  0  0  0  0  0  0  0  0  0  0  0
  -23.3891  -29.1645   23.4394 O   0  0  0  0  0  0  0  0  0  0  0  0
  -20.2199  -28.6815   21.4600 O   0  0  0  0  0  0  0  0  0  0  0  0
  -21.6441  -24.5004   19.7249 O   0  0  0  0  0  0  0  0  0  0  0  0
  -32.7921  -19.9046   21.4825 O   0  0  0  0  0  0  0  0  0  0  0  0
  -23.8766  -11.6514   22.1634 O   0  0  0  0  0  0  0  0  0  0  0  0
  -28.2193  -26.2622   19.9986 O   0  0  0  0  0  0  0  0  0  1  0  0
  -22.1898   -6.8321   20.0816 F   0  0  0  0  0  0  0  0  0  0  0  0
  -22.6164  -11.5313   19.7057 F   0  0  0  0  0  0  0  0  0  0  0  0
  1  2  1  0  0  0  0
  1  5  2  0  0  0  0
  2  6  2  0  0  0  0
  3  8  2  0  0  0  0
  3 15  1  0  0  0  0
  4  9  1  0  0  0  0
  4 15  2  0  0  0  0
  5 17  1  0  0  0  0
  6 19  1  0  0  0  0
  7 10  2  0  0  0  0
  7 18  1  0  0  0  0
  8 21  1  0  0  0  0
  9 21  2  0  0  0  0
 10 22  1  0  0  0  0
 11 12  2  0  0  0  0
 11 23  1  0  0  0  0
 12 24  1  0  0  0  0
 13 20  1  0  0  0  0
 13 22  2  0  0  0  0
 14 24  2  0  0  0  0
 14 25  1  0  0  0  0
 15 26  1  0  0  0  0
 16 26  1  0  0  0  0
 16 27  2  0  0  0  0
 16 28  1  0  0  0  0
 17 19  2  0  0  0  0
 17 33  1  0  0  0  0
 18 20  2  0  0  0  0
 18 34  1  0  0  0  0
 19 44  1  0  0  0  0
 20 35  1  0  0  0  0
 21 80  1  0  0  0  0
 22 81  1  0  0  0  0
 23 25  2  0  0  0  0
 23 80  1  0  0  0  0
 24 82  1  0  0  0  0
 25 83  1  0  0  0  0
 26 63  2  0  0  0  0
 27 64  1  0  0  0  0
 27 68  1  0  0  0  0
 28 69  1  0  0  0  0
 28 75  2  0  0  0  0
 29 45  1  0  0  0  0
 29 70  1  0  0  0  0
 29 76  2  0  0  0  0
 30 59  1  0  0  0  0
 30 65  1  0  0  0  0
 30 77  2  0  0  0  0
 31 60  1  0  0  0  0
 31 71  1  0  0  0  0
 31 78  2  0  0  0  0
 32 66  1  0  0  0  0
 32 67  1  0  0  0  0
 32 79  2  0  0  0  0
 33 36  1  0  0  0  0
 34 45  1  0  0  0  0
 35 65  1  0  0  0  0
 36 38  1  0  0  0  0
 37 39  1  0  0  0  0
 37 41  1  0  0  0  0
 38 44  1  0  0  0  0
 39 46  1  0  0  0  0
 40 47  1  0  0  0  0
 40 48  1  0  0  0  0
 41 66  1  0  0  0  0
 42 46  1  0  0  0  0
 42 66  1  0  0  0  0
 43 47  1  0  0  0  0
 43 67  1  0  0  0  0
 44 70  1  0  0  0  0
 45 65  1  0  0  0  0
 46 64  1  0  0  0  0
 47 72  1  0  0  0  0
 48 56  1  0  0  0  0
 48 67  1  0  0  0  0
 49 60  1  0  0  0  0
 50 61  1  0  0  0  0
 51 62  1  0  0  0  0
 52 62  1  0  0  0  0
 53 62  1  0  0  0  0
 54 72  1  0  0  0  0
 55 73  1  0  0  0  0
 56 57  1  0  0  0  0
 57 74  1  0  0  0  0
 58 61  1  0  0  0  0
 58 74  1  0  0  0  0
 59 62  1  0  0  0  0
 59 71  1  0  0  0  0
 60 73  1  0  0  0  0
 61 81  1  0  0  0  0
 63 64  1  0  0  0  0
M  CHG  3  72   1  73   1  74   1
M  ISO  4  32 100  61 101  67 100  81 101
M  END
> <Batch ID>
0184

> <Smiles>
CNC1CC(CCNC[101CH:1](C)[101O:1]c2ccc3c(c2)CN(C(=O)C(NC(=O)C(C)NC)C(C)(C)C)C(C(=O)NC2CCCc4ccccc42)C3)[100N:0]([100C:0](=O)N2CCCC(n3nc(-c4ccc(Oc5ccc(F)cc5F)cc4)c(C(N)=O)c3N)C2)C1

> <Shape>
0.275

> <Color>
0.081

> <Negative vol penalty>
0.000

$$$$

  -OEChem-04052323103D

 83 92  0     1  0  0  0  0  0999 V2000
  -27.5719  -32.0368   27.8735 C   0  0  0  0  0  0  0  0  0  0  0  0
  -27.6262  -30.9488   27.0082 C   0  0  0  0  0  0  0  0  0  0  0  0
  -24.6430   -9.2619   21.6027 C   0  0  0  0  0  0  0  0  0  0  0  0
  -24.2954  -10.7439   23.4789 C   0  0  0  0  0  0  0  0  0  0  0  0
  -26.4095  -32.8020   27.9574 C   0  0  0  0  0  0  0  0  0  0  0  0
  -26.5176  -30.6248   26.2269 C   0  0  0  0  0  0  0  0  0  0  0  0
  -27.7598  -29.5796   21.4301 C   0  0  0  0  0  0  0  0  0  0  0  0
  -24.3112   -8.1695   22.4041 C   0  0  0  0  0  0  0  0  0  0  0  0
  -23.9636   -9.6515   24.2803 C   0  0  0  0  0  0  0  0  0  0  0  0
  -28.3004  -28.3206   21.1723 C   0  0  0  0  0  0  0  0  0  0  0  0
  -21.5004   -6.7224   23.6034 C   0  0  0  0  0  0  0  0  0  0  0  0
  -20.6313   -5.7693   23.0727 C   0  0  0  0  0  0  0  0  0  0  0  0
  -26.1477  -27.5629   20.3909 C   0  0  0  0  0  0  0  0  0  0  0  0
  -26.3365  -19.6484   19.8447 C   0  0  0  0  0  0  0  0  0  0  0  0
  -22.3332   -4.0739   23.3303 C   0  0  0  0  0  0  0  0  0  0  0  0
  -28.4602  -21.1812   19.0790 C   0  0  0  0  0  0  0  0  0  0  0  0
  -24.6351  -10.5491   22.1402 C   0  0  0  0  0  0  0  0  0  0  0  0
  -24.1031  -12.4586   20.5344 C   0  0  0  0  0  0  0  0  0  0  0  0
  -25.2893  -32.4930   27.1697 C   0  0  0  0  0  0  0  0  0  0  0  0
  -26.4042  -29.8369   21.1801 C   0  0  0  0  0  0  0  0  0  0  0  0
  -25.3386  -31.3858   26.3013 C   0  0  0  0  0  0  0  0  0  0  0  0
  -25.5929  -28.8267   20.6440 C   0  0  0  0  0  0  0  0  0  0  0  0
  -27.2020  -21.7614   19.0894 C   0  0  0  0  0  0  0  0  0  0  0  0
  -26.1252  -20.9736   19.4808 C   0  0  0  0  0  0  0  0  0  0  0  0
  -23.9715   -8.3643   23.7429 C   0  0  0  0  0  0  0  0  0  0  0  0
  -27.4937  -27.3112   20.6553 C   0  0  0  0  0  0  0  0  0  0  0  0
  -22.7860   -6.3513   23.9976 C   0  0  0  0  0  0  0  0  0  0  0  0
  -21.0477   -4.4450   22.9361 C   0  0  0  0  0  0  0  0  0  0  0  0
  -23.2024   -5.0271   23.8610 C   0  0  0  0  0  0  0  0  0  0  0  0
  -24.9783  -11.6779   21.3130 C   0  0  0  0  0  0  0  0  0  0  0  0
  -27.6334  -19.1627   19.8003 C   0  0  0  0  0  0  0  0  0  0  0  0
  -24.9134  -13.3974   19.9441 C   0  0  0  0  0  0  0  0  0  0  0  0
  -22.6844  -12.3454   20.3605 C   0  0  0  0  0  0  0  0  0  0  0  0
  -23.9122  -30.6706   22.9686 C   0  0  0  0  0  0  0  0  0  0  0  0
  -22.4202  -30.8914   20.0968 C   0  0  0  0  0  0  0  0  0  0  0  0
  -22.2839  -29.9405   16.8220 C   0  0  0  0  0  0  0  0  0  0  0  0
  -29.0482  -17.1175   20.2029 C   0  0  0  0  0  0  0  0  0  0  0  0
  -24.0388  -33.3207   27.3296 C   0  0  0  0  0  0  0  0  0  0  0  0
  -25.8425  -31.2081   21.4386 C   0  0  0  0  0  0  0  0  0  0  0  0
  -24.1362  -29.0577   20.3390 C   0  0  0  0  0  0  0  0  0  0  0  0
  -23.0369  -33.1366   26.1926 C   0  0  0  0  0  0  0  0  0  0  0  0
  -29.9598  -13.7117   19.7068 C   0  0  0  0  0  0  0  0  0  0  0  0
  -22.8493  -31.6552   25.8811 C   0  0  0  0  0  0  0  0  0  0  0  0
  -28.6731  -12.9432   20.0164 C   0  0  0  0  0  0  0  0  0  0  0  0
  -26.4118  -24.2482   19.7492 C   0  0  0  0  0  0  0  0  0  0  0  0
  -28.2974  -24.1958   18.7424 C   0  0  0  0  0  0  0  0  0  0  0  0
  -30.1324  -14.9215   20.6235 C   0  0  0  0  0  0  0  0  0  0  0  0
  -27.6984  -15.0687   20.9751 C   0  0  0  0  0  0  0  0  0  0  0  0
  -24.1652  -31.0175   25.4194 C   0  0  1  0  0  0  0  0  0  0  0  0
  -24.3289  -31.2077   21.6286 C   0  0  1  0  0  0  0  0  0  0  0  0
  -27.4484  -13.8787   20.0343 C   0  0  2  0  0  0  0  0  0  0  0  0
  -27.4304  -25.3259   19.3310 C   0  0  0  0  0  0  0  0  0  1  0  0
  -27.0162  -23.2939   18.6601 C   0  0  0  0  0  0  0  0  0  0  0  0
  -24.7411  -21.5305   19.5165 C   0  0  0  0  0  0  0  0  0  0  0  0
  -20.9291  -30.2572   14.7336 C   0  0  0  0  0  0  0  0  0  0  0  0
  -20.2745  -29.0290   21.2092 C   0  0  0  0  0  0  0  0  0  0  0  0
  -19.5022  -28.6301   18.8613 C   0  0  0  0  0  0  0  0  0  0  0  0
  -19.3990  -30.9251   19.8334 C   0  0  0  0  0  0  0  0  0  0  0  0
  -24.5845  -31.1018   15.3668 C   0  0  0  0  0  0  0  0  0  0  0  0
  -21.6445  -29.9391   19.2190 C   0  0  1  0  0  0  0  0  0  0  0  0
  -22.1188  -30.7453   15.5455 C   0  0  2  0  0  0  0  0  0  0  0  0
  -20.2320  -29.6256   19.7882 C   0  0  0  0  0  0  0  0  0  0  0  0
  -28.7045  -19.8976   19.4256 N   0  0  0  0  0  0  0  0  0  0  0  0
  -26.2475  -12.0852   21.2270 N   0  0  0  0  0  0  0  0  0  0  0  0
  -26.1756  -13.1321   20.3874 N   0  0  0  0  0  0  0  0  0  0  0  0
  -23.6322  -30.4133   20.6148 N   0  0  0  0  0  0  0  0  0  0  0  0
  -28.9352  -15.7643   20.5860 N   0  0  0  0  0  0  0  0  0  0  0  0
  -24.6622  -14.4157   19.0941 N   0  0  0  0  0  0  0  0  0  0  0  0
  -22.0072  -11.3241   21.0408 N   0  0  0  0  0  0  0  0  0  0  0  0
  -27.8388  -17.8111   20.1727 N   0  0  0  0  0  0  0  0  0  0  0  0
  -24.4388  -31.3645   24.0413 N   0  0  0  0  0  0  0  0  0  0  0  0
  -21.6336  -30.5303   17.8853 N   0  0  0  0  0  0  0  0  0  0  0  0
  -23.3416  -30.6338   14.7010 N   0  3  0  0  0  0  0  0  0  0  0  0
  -22.0388  -13.1165   19.6108 O   0  0  0  0  0  0  0  0  0  0  0  0
  -23.1670  -29.6995   23.0252 O   0  0  0  0  0  0  0  0  0  0  0  0
  -21.9709  -32.0204   20.3090 O   0  0  0  0  0  0  0  0  0  0  0  0
  -22.9225  -28.8915   16.8702 O   0  0  0  0  0  0  0  0  0  0  0  0
  -30.1338  -17.6167   19.8961 O   0  0  0  0  0  0  0  0  0  0  0  0
  -26.3339  -23.3631   17.3784 O   0  0  0  0  0  0  0  0  0  0  0  0
  -23.6474   -7.2986   24.5251 O   0  0  0  0  0  0  0  0  0  0  0  0
  -28.0187  -26.0812   20.4033 O   0  0  0  0  0  0  0  0  0  1  0  0
  -20.2124   -3.5295   22.4278 F   0  0  0  0  0  0  0  0  0  0  0  0
  -24.4358   -4.6644   24.2390 F   0  0  0  0  0  0  0  0  0  0  0  0
  1  2  1  0  0  0  0
  1  5  2  0  0  0  0
  2  6  2  0  0  0  0
  3  8  2  0  0  0  0
  3 17  1  0  0  0  0
  4  9  1  0  0  0  0
  4 17  2  0  0  0  0
  5 19  1  0  0  0  0
  6 21  1  0  0  0  0
  7 10  2  0  0  0  0
  7 20  1  0  0  0  0
  8 25  1  0  0  0  0
  9 25  2  0  0  0  0
 10 26  1  0  0  0  0
 11 12  2  0  0  0  0
 11 27  1  0  0  0  0
 12 28  1  0  0  0  0
 13 22  1  0  0  0  0
 13 26  2  0  0  0  0
 14 24  1  0  0  0  0
 14 31  2  0  0  0  0
 15 28  2  0  0  0  0
 15 29  1  0  0  0  0
 16 23  1  0  0  0  0
 16 63  2  0  0  0  0
 17 30  1  0  0  0  0
 18 30  1  0  0  0  0
 18 32  2  0  0  0  0
 18 33  1  0  0  0  0
 19 21  2  0  0  0  0
 19 38  1  0  0  0  0
 20 22  2  0  0  0  0
 20 39  1  0  0  0  0
 21 49  1  0  0  0  0
 22 40  1  0  0  0  0
 23 24  2  0  0  0  0
 23 53  1  0  0  0  0
 24 54  1  0  0  0  0
 25 80  1  0  0  0  0
 26 81  1  0  0  0  0
 27 29  2  0  0  0  0
 27 80  1  0  0  0  0
 28 82  1  0  0  0  0
 29 83  1  0  0  0  0
 30 64  2  0  0  0  0
 31 63  1  0  0  0  0
 31 70  1  0  0  0  0
 32 65  1  0  0  0  0
 32 68  1  0  0  0  0
 33 69  1  0  0  0  0
 33 74  2  0  0  0  0
 34 50  1  0  0  0  0
 34 71  1  0  0  0  0
 34 75  2  0  0  0  0
 35 60  1  0  0  0  0
 35 66  1  0  0  0  0
 35 76  2  0  0  0  0
 36 61  1  0  0  0  0
 36 72  1  0  0  0  0
 36 77  2  0  0  0  0
 37 67  1  0  0  0  0
 37 70  1  0  0  0  0
 37 78  2  0  0  0  0
 38 41  1  0  0  0  0
 39 50  1  0  0  0  0
 40 66  1  0  0  0  0
 41 43  1  0  0  0  0
 42 44  1  0  0  0  0
 42 47  1  0  0  0  0
 43 49  1  0  0  0  0
 44 51  1  0  0  0  0
 45 52  1  0  0  0  0
 45 53  1  0  0  0  0
 46 52  1  0  0  0  0
 46 53  1  0  0  0  0
 47 67  1  0  0  0  0
 48 51  1  0  0  0  0
 48 67  1  0  0  0  0
 49 71  1  0  0  0  0
 50 66  1  0  0  0  0
 51 65  1  0  0  0  0
 52 81  1  0  0  0  0
 53 79  1  0  0  0  0
 55 61  1  0  0  0  0
 56 62  1  0  0  0  0
 57 62  1  0  0  0  0
 58 62  1  0  0  0  0
 59 73  1  0  0  0  0
 60 62  1  0  0  0  0
 60 72  1  0  0  0  0
 61 73  1  0  0  0  0
 64 65  1  0  0  0  0
M  CHG  1  73   1
M  ISO  4  37 100  52 101  70 100  81 101
M  END
> <Batch ID>
0184

> <Smiles>
CNC(C)C(=O)NC(C(=O)N1Cc2cc([101O:1][101CH:1]3CC(O)(c4cnc([100NH:0][100C:0](=O)N5CCCC(n6nc(-c7ccc(Oc8ccc(F)cc8F)cc7)c(C(N)=O)c6N)C5)cc4C)C3)ccc2CC1C(=O)NC1CCCc2ccccc21)C(C)(C)C

> <Shape>
0.284

> <Color>
0.115

> <Negative vol penalty>
0.000

$$$$

  -OEChem-04052323103D

 82 91  0     1  0  0  0  0  0999 V2000
  -29.9703  -12.2033   20.7560 C   0  0  0  0  0  0  0  0  0  0  0  0
  -29.9173  -13.5374   20.3652 C   0  0  0  0  0  0  0  0  0  0  0  0
  -21.5379  -29.9361   19.6988 C   0  0  0  0  0  0  0  0  0  0  0  0
  -22.1377  -28.0405   21.0713 C   0  0  0  0  0  0  0  0  0  0  0  0
  -28.8673  -11.3747   20.5546 C   0  0  0  0  0  0  0  0  0  0  0  0
  -28.7614  -14.0433   19.7716 C   0  0  0  0  0  0  0  0  0  0  0  0
  -27.4290  -18.5545   21.6477 C   0  0  0  0  0  0  0  0  0  0  0  0
  -20.3341  -29.3147   19.3665 C   0  0  0  0  0  0  0  0  0  0  0  0
  -20.9339  -27.4190   20.7391 C   0  0  0  0  0  0  0  0  0  0  0  0
  -28.1388  -19.6665   21.1966 C   0  0  0  0  0  0  0  0  0  0  0  0
  -17.8586  -25.4902   20.5395 C   0  0  0  0  0  0  0  0  0  0  0  0
  -17.1315  -24.8913   21.5682 C   0  0  0  0  0  0  0  0  0  0  0  0
  -26.3444  -20.1849   19.6700 C   0  0  0  0  0  0  0  0  0  0  0  0
  -16.9594  -27.0249   22.6886 C   0  0  0  0  0  0  0  0  0  0  0  0
  -22.4397  -29.2990   20.5512 C   0  0  0  0  0  0  0  0  0  0  0  0
  -23.9241  -30.8026   21.9807 C   0  0  0  0  0  0  0  0  0  0  0  0
  -27.6939  -11.8732   19.9671 C   0  0  0  0  0  0  0  0  0  0  0  0
  -26.1743  -18.2426   21.1047 C   0  0  0  0  0  0  0  0  0  0  0  0
  -27.6421  -13.2203   19.5609 C   0  0  0  0  0  0  0  0  0  0  0  0
  -25.6196  -19.0699   20.1177 C   0  0  0  0  0  0  0  0  0  0  0  0
  -20.0321  -28.0562   19.8867 C   0  0  0  0  0  0  0  0  0  0  0  0
  -27.5978  -20.4803   20.2055 C   0  0  0  0  0  0  0  0  0  0  0  0
  -18.1362  -26.8564   20.5853 C   0  0  0  0  0  0  0  0  0  0  0  0
  -16.6819  -25.6586   22.6427 C   0  0  0  0  0  0  0  0  0  0  0  0
  -17.6866  -27.6237   21.6599 C   0  0  0  0  0  0  0  0  0  0  0  0
  -23.6836  -29.9402   20.8943 C   0  0  0  0  0  0  0  0  0  0  0  0
  -25.2510  -31.1380   21.8656 C   0  0  0  0  0  0  0  0  0  0  0  0
  -31.1489  -24.1100   18.0509 C   0  0  0  0  0  0  0  0  0  0  0  0
  -30.6635  -25.2363   19.9303 C   0  0  0  0  0  0  0  0  0  0  0  0
  -30.1479  -23.0585   19.7624 C   0  0  0  0  0  0  0  0  0  0  0  0
  -23.0282  -31.2595   23.0026 C   0  0  0  0  0  0  0  0  0  0  0  0
  -24.9785  -15.7802   19.4890 C   0  0  0  0  0  0  0  0  0  0  0  0
  -22.1902  -17.3976   19.8516 C   0  0  0  0  0  0  0  0  0  0  0  0
  -20.6184  -20.3817   20.3723 C   0  0  0  0  0  0  0  0  0  0  0  0
  -29.9380  -28.4188   19.3183 C   0  0  0  0  0  0  0  0  0  0  0  0
  -26.5439  -10.9273   19.7267 C   0  0  0  0  0  0  0  0  0  0  0  0
  -25.4096  -17.0548   21.6210 C   0  0  0  0  0  0  0  0  0  0  0  0
  -24.2672  -18.7901   19.5167 C   0  0  0  0  0  0  0  0  0  0  0  0
  -25.2240  -11.6356   19.4327 C   0  0  0  0  0  0  0  0  0  0  0  0
  -28.7063  -31.6815   18.6012 C   0  0  0  0  0  0  0  0  0  0  0  0
  -25.4307  -12.7458   18.4073 C   0  0  0  0  0  0  0  0  0  0  0  0
  -31.2054  -25.0555   15.6474 C   0  0  0  0  0  0  0  0  0  0  0  0
  -30.8619  -23.6032   15.5331 C   0  0  0  0  0  0  0  0  0  0  0  0
  -27.3011  -31.6830   19.2056 C   0  0  0  0  0  0  0  0  0  0  0  0
  -29.0604  -30.3233   17.9995 C   0  0  0  0  0  0  0  0  0  0  0  0
  -27.4935  -29.1805   19.5202 C   0  0  0  0  0  0  0  0  0  0  0  0
  -26.3973  -13.8123   18.9363 C   0  0  1  0  0  0  0  0  0  0  0  0
  -31.7214  -24.0815   16.6735 C   0  0  0  0  0  0  0  0  0  0  0  0
  -24.3678  -16.5393   20.6329 C   0  0  1  0  0  0  0  0  0  0  0  0
  -27.1124  -30.5123   20.1890 C   0  0  2  0  0  0  0  0  0  0  0  0
  -18.3315  -21.3934   20.5819 C   0  0  0  0  0  0  0  0  0  0  0  0
  -21.8315  -17.2071   16.8275 C   0  0  0  0  0  0  0  0  0  0  0  0
  -20.0943  -19.0026   16.9905 C   0  0  0  0  0  0  0  0  0  0  0  0
  -19.7451  -16.8227   18.1517 C   0  0  0  0  0  0  0  0  0  0  0  0
  -21.1519  -21.3026   23.1339 C   0  0  0  0  0  0  0  0  0  0  0  0
  -30.6727  -26.5037   20.7154 C   0  0  0  0  0  0  0  0  0  0  0  0
  -29.5622  -21.8120   20.3579 C   0  0  0  0  0  0  0  0  0  1  0  0
  -21.4540  -18.4503   19.0586 C   0  0  1  0  0  0  0  0  0  0  0  0
  -19.5080  -20.7823   21.3269 C   0  0  2  0  0  0  0  0  0  0  0  0
  -20.8076  -17.8751   17.7668 C   0  0  0  0  0  0  0  0  0  0  0  0
  -24.7705  -29.7403   20.1442 N   0  0  0  0  0  0  0  0  0  0  0  0
  -31.1939  -25.2859   18.6979 N   0  0  0  0  0  0  0  0  0  0  0  0
  -30.6427  -22.9574   18.5183 N   0  0  0  0  0  0  0  0  0  0  0  0
  -30.1236  -24.1617   20.5275 N   0  0  0  0  0  0  0  0  0  0  0  0
  -25.7068  -30.4820   20.7601 N   0  0  0  0  0  0  0  0  0  0  0  0
  -23.5612  -17.6136   20.0503 N   0  0  0  0  0  0  0  0  0  0  0  0
  -28.8614  -29.2567   18.9837 N   0  0  0  0  0  0  0  0  0  0  0  0
  -26.0607  -31.9273   22.6031 N   0  0  0  0  0  0  0  0  0  0  0  0
  -21.6985  -30.8175   22.9719 N   0  0  0  0  0  0  0  0  0  0  0  0
  -25.7240  -14.6830   19.8761 N   0  0  0  0  0  0  0  0  0  0  0  0
  -20.5039  -19.0650   19.9795 N   0  0  0  0  0  0  0  0  0  0  0  0
  -29.6655  -27.4379   20.2640 N   0  0  0  0  0  0  0  0  0  0  0  0
  -20.0085  -21.7800   22.3143 N   0  3  0  0  0  0  0  0  0  0  0  0
  -23.3917  -32.0497   23.9064 O   0  0  0  0  0  0  0  0  0  0  0  0
  -24.7863  -16.1609   18.3402 O   0  0  0  0  0  0  0  0  0  0  0  0
  -21.5701  -16.4233   20.2850 O   0  0  0  0  0  0  0  0  0  0  0  0
  -21.4971  -21.1602   20.0085 O   0  0  0  0  0  0  0  0  0  0  0  0
  -31.0604  -28.5396   18.8156 O   0  0  0  0  0  0  0  0  0  0  0  0
  -18.8575  -27.4496   19.5629 O   0  0  0  0  0  0  0  0  0  0  0  0
  -28.2887  -21.5659   19.7630 O   0  0  0  0  0  0  0  0  0  1  0  0
  -15.9823  -25.0837   23.6298 F   0  0  0  0  0  0  0  0  0  0  0  0
  -17.9491  -28.9369   21.7089 F   0  0  0  0  0  0  0  0  0  0  0  0
  1  2  1  0  0  0  0
  1  5  2  0  0  0  0
  2  6  2  0  0  0  0
  3  8  2  0  0  0  0
  3 15  1  0  0  0  0
  4  9  1  0  0  0  0
  4 15  2  0  0  0  0
  5 17  1  0  0  0  0
  6 19  1  0  0  0  0
  7 10  2  0  0  0  0
  7 18  1  0  0  0  0
  8 21  1  0  0  0  0
  9 21  2  0  0  0  0
 10 22  1  0  0  0  0
 11 12  2  0  0  0  0
 11 23  1  0  0  0  0
 12 24  1  0  0  0  0
 13 20  1  0  0  0  0
 13 22  2  0  0  0  0
 14 24  2  0  0  0  0
 14 25  1  0  0  0  0
 15 26  1  0  0  0  0
 16 26  1  0  0  0  0
 16 27  2  0  0  0  0
 16 31  1  0  0  0  0
 17 19  2  0  0  0  0
 17 36  1  0  0  0  0
 18 20  2  0  0  0  0
 18 37  1  0  0  0  0
 19 47  1  0  0  0  0
 20 38  1  0  0  0  0
 21 79  1  0  0  0  0
 22 80  1  0  0  0  0
 23 25  2  0  0  0  0
 23 79  1  0  0  0  0
 24 81  1  0  0  0  0
 25 82  1  0  0  0  0
 26 61  2  0  0  0  0
 27 65  1  0  0  0  0
 27 68  1  0  0  0  0
 28 48  1  0  0  0  0
 28 62  2  0  0  0  0
 28 63  1  0  0  0  0
 29 56  1  0  0  0  0
 29 62  1  0  0  0  0
 29 64  2  0  0  0  0
 30 57  1  0  0  0  0
 30 63  2  0  0  0  0
 30 64  1  0  0  0  0
 31 69  1  0  0  0  0
 31 74  2  0  0  0  0
 32 49  1  0  0  0  0
 32 70  1  0  0  0  0
 32 75  2  0  0  0  0
 33 58  1  0  0  0  0
 33 66  1  0  0  0  0
 33 76  2  0  0  0  0
 34 59  1  0  0  0  0
 34 71  1  0  0  0  0
 34 77  2  0  0  0  0
 35 67  1  0  0  0  0
 35 72  1  0  0  0  0
 35 78  2  0  0  0  0
 36 39  1  0  0  0  0
 37 49  1  0  0  0  0
 38 66  1  0  0  0  0
 39 41  1  0  0  0  0
 40 44  1  0  0  0  0
 40 45  1  0  0  0  0
 41 47  1  0  0  0  0
 42 43  1  0  0  0  0
 42 48  1  0  0  0  0
 43 48  1  0  0  0  0
 44 50  1  0  0  0  0
 45 67  1  0  0  0  0
 46 50  1  0  0  0  0
 46 67  1  0  0  0  0
 47 70  1  0  0  0  0
 49 66  1  0  0  0  0
 50 65  1  0  0  0  0
 51 59  1  0  0  0  0
 52 60  1  0  0  0  0
 53 60  1  0  0  0  0
 54 60  1  0  0  0  0
 55 73  1  0  0  0  0
 56 72  1  0  0  0  0
 57 80  1  0  0  0  0
 58 60  1  0  0  0  0
 58 71  1  0  0  0  0
 59 73  1  0  0  0  0
 61 65  1  0  0  0  0
M  CHG  1  73   1
M  ISO  4  35 100  57 101  72 100  80 101
M  END
> <Batch ID>
0184

> <Smiles>
CNC(C)C(=O)NC(C(=O)N1Cc2cc([101O:1][101CH2:1]c3nc(C[100NH:0][100C:0](=O)N4CCCC(n5nc(-c6ccc(Oc7ccc(F)cc7F)cc6)c(C(N)=O)c5N)C4)nc(C4CC4)n3)ccc2CC1C(=O)NC1CCCc2ccccc21)C(C)(C)C

> <Shape>
0.231

> <Color>
0.074

> <Negative vol penalty>
0.000

$$$$

  -OEChem-04052323103D

 83 92  0     1  0  0  0  0  0999 V2000
  -23.7413   -8.0125   21.6280 C   0  0  0  0  0  0  0  0  0  0  0  0
  -24.2000   -8.9769   20.7364 C   0  0  0  0  0  0  0  0  0  0  0  0
  -24.0504  -27.8513   21.4547 C   0  0  0  0  0  0  0  0  0  0  0  0
  -24.8538  -28.1991   23.7065 C   0  0  0  0  0  0  0  0  0  0  0  0
  -22.6003   -8.2568   22.3911 C   0  0  0  0  0  0  0  0  0  0  0  0
  -23.5173  -10.1858   20.6067 C   0  0  0  0  0  0  0  0  0  0  0  0
  -26.6332  -14.1769   20.5202 C   0  0  0  0  0  0  0  0  0  0  0  0
  -22.7728  -28.2481   21.8492 C   0  0  0  0  0  0  0  0  0  0  0  0
  -23.5762  -28.5960   24.1011 C   0  0  0  0  0  0  0  0  0  0  0  0
  -27.3036  -14.4355   19.3254 C   0  0  0  0  0  0  0  0  0  0  0  0
  -19.2172  -28.8257   22.3472 C   0  0  0  0  0  0  0  0  0  0  0  0
  -18.1357  -28.0586   21.9144 C   0  0  0  0  0  0  0  0  0  0  0  0
  -25.6910  -16.1506   18.7988 C   0  0  0  0  0  0  0  0  0  0  0  0
  -19.0522  -26.1295   23.0439 C   0  0  0  0  0  0  0  0  0  0  0  0
  -25.0910  -27.8267   22.3834 C   0  0  0  0  0  0  0  0  0  0  0  0
  -27.4418  -28.2376   21.4821 C   0  0  0  0  0  0  0  0  0  0  0  0
  -21.9088   -9.4732   22.2776 C   0  0  0  0  0  0  0  0  0  0  0  0
  -25.4785  -14.8969   20.8587 C   0  0  0  0  0  0  0  0  0  0  0  0
  -22.3652  -10.4461   21.3680 C   0  0  0  0  0  0  0  0  0  0  0  0
  -25.0092  -15.9009   19.9997 C   0  0  0  0  0  0  0  0  0  0  0  0
  -22.5356  -28.6205   23.1724 C   0  0  0  0  0  0  0  0  0  0  0  0
  -26.8309  -15.4205   18.4632 C   0  0  0  0  0  0  0  0  0  0  0  0
  -20.2163  -28.2448   23.1282 C   0  0  0  0  0  0  0  0  0  0  0  0
  -18.0531  -26.7104   22.2628 C   0  0  0  0  0  0  0  0  0  0  0  0
  -20.1338  -26.8967   23.4766 C   0  0  0  0  0  0  0  0  0  0  0  0
  -26.4109  -27.4164   21.9766 C   0  0  0  0  0  0  0  0  0  0  0  0
  -28.4839  -27.3750   21.2444 C   0  0  0  0  0  0  0  0  0  0  0  0
  -28.1655  -18.2875   15.7250 C   0  0  0  0  0  0  0  0  0  0  0  0
  -27.4562  -29.6537   21.2577 C   0  0  0  0  0  0  0  0  0  0  0  0
  -22.4354  -14.1404   21.3796 C   0  0  0  0  0  0  0  0  0  0  0  0
  -22.2071  -17.2661   22.2161 C   0  0  0  0  0  0  0  0  0  0  0  0
  -23.4476  -20.4343   21.9509 C   0  0  0  0  0  0  0  0  0  0  0  0
  -29.6178  -22.2531   19.3650 C   0  0  0  0  0  0  0  0  0  0  0  0
  -20.6531   -9.6728   23.0890 C   0  0  0  0  0  0  0  0  0  0  0  0
  -24.7821  -14.6242   22.1637 C   0  0  0  0  0  0  0  0  0  0  0  0
  -23.7856  -16.7160   20.3263 C   0  0  0  0  0  0  0  0  0  0  0  0
  -27.7985  -17.1762   14.7724 C   0  0  0  0  0  0  0  0  0  0  0  0
  -20.2024  -11.1293   23.1653 C   0  0  0  0  0  0  0  0  0  0  0  0
  -28.9879  -16.2244   14.8610 C   0  0  0  0  0  0  0  0  0  0  0  0
  -29.7149  -22.8607   22.8227 C   0  0  0  0  0  0  0  0  0  0  0  0
  -20.2410  -11.7731   21.7830 C   0  0  0  0  0  0  0  0  0  0  0  0
  -28.9678  -24.1906   22.9185 C   0  0  0  0  0  0  0  0  0  0  0  0
  -28.7422  -18.9124   18.6958 C   0  0  0  0  0  0  0  0  0  0  0  0
  -30.4958  -19.7827   17.1024 C   0  0  0  0  0  0  0  0  0  0  0  0
  -29.0662  -21.9104   21.8147 C   0  0  0  0  0  0  0  0  0  0  0  0
  -29.3518  -19.7713   19.8073 C   0  0  0  0  0  0  0  0  0  0  0  0
  -31.0842  -20.5991   18.2494 C   0  0  0  0  0  0  0  0  0  0  0  0
  -28.1317  -23.8299   20.5651 C   0  0  0  0  0  0  0  0  0  0  0  0
  -21.6662  -11.7797   21.2170 C   0  0  1  0  0  0  0  0  0  0  0  0
  -23.3216  -15.0651   22.1652 C   0  0  1  0  0  0  0  0  0  0  0  0
  -28.7935  -24.8275   21.5282 C   0  0  1  0  0  0  0  0  0  0  0  0
  -29.7811  -18.5376   17.6356 C   0  0  0  0  0  0  0  0  0  0  0  0
  -29.5228  -16.4192   16.2764 C   0  0  2  0  0  0  0  0  0  0  0  0
  -23.6873  -22.8879   22.4198 C   0  0  0  0  0  0  0  0  0  0  0  0
  -19.9070  -17.5016   20.2250 C   0  0  0  0  0  0  0  0  0  0  0  0
  -20.1631  -19.9899   20.3297 C   0  0  0  0  0  0  0  0  0  0  0  0
  -19.5471  -18.7137   22.3827 C   0  0  0  0  0  0  0  0  0  0  0  0
  -25.3365  -19.9429   24.1757 C   0  0  0  0  0  0  0  0  0  0  0  0
  -28.8864  -15.4501   17.2675 C   0  0  0  0  0  0  0  0  0  1  0  0
  -21.9038  -18.5499   21.4819 C   0  0  1  0  0  0  0  0  0  0  0  0
  -23.7609  -21.4846   23.0013 C   0  0  2  0  0  0  0  0  0  0  0  0
  -20.4022  -18.6722   21.0975 C   0  0  0  0  0  0  0  0  0  0  0  0
  -26.7658  -26.1307   22.0491 N   0  0  0  0  0  0  0  0  0  0  0  0
  -28.0313  -26.1377   21.5970 N   0  0  0  0  0  0  0  0  0  0  0  0
  -29.1671  -17.7979   16.5606 N   0  0  0  0  0  0  0  0  0  0  0  0
  -23.1359  -16.4077   21.6110 N   0  0  0  0  0  0  0  0  0  0  0  0
  -28.8836  -22.5743   20.5165 N   0  0  0  0  0  0  0  0  0  0  0  0
  -30.0608  -20.9277   19.2417 N   0  0  0  0  0  0  0  0  0  0  0  0
  -29.7340  -27.5618   20.7703 N   0  0  0  0  0  0  0  0  0  0  0  0
  -26.3009  -30.3891   21.5555 N   0  0  0  0  0  0  0  0  0  0  0  0
  -22.4477  -12.8334   21.8280 N   0  0  0  0  0  0  0  0  0  0  0  0
  -22.3933  -19.6309   22.3306 N   0  0  0  0  0  0  0  0  0  0  0  0
  -25.1300  -21.2750   23.5512 N   0  3  0  0  0  0  0  0  0  0  0  0
  -27.6312  -19.3863   15.7480 O   0  0  0  0  0  0  0  0  0  0  0  0
  -28.4583  -30.2467   20.7911 O   0  0  0  0  0  0  0  0  0  0  0  0
  -21.7873  -14.5804   20.4373 O   0  0  0  0  0  0  0  0  0  0  0  0
  -21.6460  -17.0369   23.2904 O   0  0  0  0  0  0  0  0  0  0  0  0
  -24.0730  -20.3388   20.8972 O   0  0  0  0  0  0  0  0  0  0  0  0
  -29.8629  -23.1007   18.4973 O   0  0  0  0  0  0  0  0  0  0  0  0
  -21.2890  -29.0080   23.5577 O   0  0  0  0  0  0  0  0  0  0  0  0
  -27.4888  -15.6768   17.2856 O   0  0  0  0  0  0  0  0  0  1  0  0
  -17.0136  -25.9742   21.8485 F   0  0  0  0  0  0  0  0  0  0  0  0
  -21.0899  -26.3333   24.2277 F   0  0  0  0  0  0  0  0  0  0  0  0
  1  2  1  0  0  0  0
  1  5  2  0  0  0  0
  2  6  2  0  0  0  0
  3  8  2  0  0  0  0
  3 15  1  0  0  0  0
  4  9  1  0  0  0  0
  4 15  2  0  0  0  0
  5 17  1  0  0  0  0
  6 19  1  0  0  0  0
  7 10  2  0  0  0  0
  7 18  1  0  0  0  0
  8 21  1  0  0  0  0
  9 21  2  0  0  0  0
 10 22  1  0  0  0  0
 11 12  2  0  0  0  0
 11 23  1  0  0  0  0
 12 24  1  0  0  0  0
 13 20  1  0  0  0  0
 13 22  2  0  0  0  0
 14 24  2  0  0  0  0
 14 25  1  0  0  0  0
 15 26  1  0  0  0  0
 16 26  1  0  0  0  0
 16 27  2  0  0  0  0
 16 29  1  0  0  0  0
 17 19  2  0  0  0  0
 17 34  1  0  0  0  0
 18 20  2  0  0  0  0
 18 35  1  0  0  0  0
 19 49  1  0  0  0  0
 20 36  1  0  0  0  0
 21 80  1  0  0  0  0
 22 81  1  0  0  0  0
 23 25  2  0  0  0  0
 23 80  1  0  0  0  0
 24 82  1  0  0  0  0
 25 83  1  0  0  0  0
 26 63  2  0  0  0  0
 27 64  1  0  0  0  0
 27 69  1  0  0  0  0
 28 37  1  0  0  0  0
 28 65  1  0  0  0  0
 28 74  2  0  0  0  0
 29 70  1  0  0  0  0
 29 75  2  0  0  0  0
 30 50  1  0  0  0  0
 30 71  1  0  0  0  0
 30 76  2  0  0  0  0
 31 60  1  0  0  0  0
 31 66  1  0  0  0  0
 31 77  2  0  0  0  0
 32 61  1  0  0  0  0
 32 72  1  0  0  0  0
 32 78  2  0  0  0  0
 33 67  1  0  0  0  0
 33 68  1  0  0  0  0
 33 79  2  0  0  0  0
 34 38  1  0  0  0  0
 35 50  1  0  0  0  0
 36 66  1  0  0  0  0
 37 39  1  0  0  0  0
 38 41  1  0  0  0  0
 39 53  1  0  0  0  0
 40 42  1  0  0  0  0
 40 45  1  0  0  0  0
 41 49  1  0  0  0  0
 42 51  1  0  0  0  0
 43 46  1  0  0  0  0
 43 52  1  0  0  0  0
 44 47  1  0  0  0  0
 44 52  1  0  0  0  0
 45 67  1  0  0  0  0
 46 68  1  0  0  0  0
 47 68  1  0  0  0  0
 48 51  1  0  0  0  0
 48 67  1  0  0  0  0
 49 71  1  0  0  0  0
 50 66  1  0  0  0  0
 51 64  1  0  0  0  0
 52 65  1  0  0  0  0
 53 59  1  0  0  0  0
 53 65  1  0  0  0  0
 54 61  1  0  0  0  0
 55 62  1  0  0  0  0
 56 62  1  0  0  0  0
 57 62  1  0  0  0  0
 58 73  1  0  0  0  0
 59 81  1  0  0  0  0
 60 62  1  0  0  0  0
 60 72  1  0  0  0  0
 61 73  1  0  0  0  0
 63 64  1  0  0  0  0
M  CHG  1  73   1
M  ISO  4  33 100  59 101  68 100  81 101
M  END
> <Batch ID>
0184

> <Smiles>
CNC(C)C(=O)NC(C(=O)N1Cc2cc([101O:1][101CH2:1]C3CCC(=O)N3C3CC[100N:0]([100C:0](=O)N4CCCC(n5nc(-c6ccc(Oc7ccc(F)cc7F)cc6)c(C(N)=O)c5N)C4)CC3)ccc2CC1C(=O)NC1CCCc2ccccc21)C(C)(C)C

> <Shape>
0.216

> <Color>
0.074

> <Negative vol penalty>
0.000

$$$$

  -OEChem-04052323103D

 85 94  0     1  0  0  0  0  0999 V2000
  -28.1702  -10.3458   21.2532 C   0  0  0  0  0  0  0  0  0  0  0  0
  -28.6836  -11.4072   20.5149 C   0  0  0  0  0  0  0  0  0  0  0  0
  -23.7606  -28.4311   19.4223 C   0  0  0  0  0  0  0  0  0  0  0  0
  -23.5234  -29.7685   21.4204 C   0  0  0  0  0  0  0  0  0  0  0  0
  -26.8057  -10.2890   21.5340 C   0  0  0  0  0  0  0  0  0  0  0  0
  -27.8325  -12.4120   20.0559 C   0  0  0  0  0  0  0  0  0  0  0  0
  -29.1415  -18.3668   19.4792 C   0  0  0  0  0  0  0  0  0  0  0  0
  -22.3781  -28.2516   19.3783 C   0  0  0  0  0  0  0  0  0  0  0  0
  -22.1408  -29.5890   21.3764 C   0  0  0  0  0  0  0  0  0  0  0  0
  -29.5214  -19.1419   18.3844 C   0  0  0  0  0  0  0  0  0  0  0  0
  -18.5823  -29.1849   21.9954 C   0  0  0  0  0  0  0  0  0  0  0  0
  -17.9313  -28.8682   23.1877 C   0  0  0  0  0  0  0  0  0  0  0  0
  -27.2237  -19.8021   18.0622 C   0  0  0  0  0  0  0  0  0  0  0  0
  -19.2622  -26.8611   23.3812 C   0  0  0  0  0  0  0  0  0  0  0  0
  -24.3333  -29.1895   20.4434 C   0  0  0  0  0  0  0  0  0  0  0  0
  -26.5047  -30.4074   19.8871 C   0  0  0  0  0  0  0  0  0  0  0  0
  -25.9390  -11.2985   21.0865 C   0  0  0  0  0  0  0  0  0  0  0  0
  -27.7961  -18.2947   19.8678 C   0  0  0  0  0  0  0  0  0  0  0  0
  -26.4549  -12.3679   20.3299 C   0  0  0  0  0  0  0  0  0  0  0  0
  -26.8297  -19.0274   19.1639 C   0  0  0  0  0  0  0  0  0  0  0  0
  -21.5682  -28.8306   20.3553 C   0  0  0  0  0  0  0  0  0  0  0  0
  -28.5620  -19.8574   17.6739 C   0  0  0  0  0  0  0  0  0  0  0  0
  -19.5732  -28.3396   21.4960 C   0  0  0  0  0  0  0  0  0  0  0  0
  -18.2713  -27.7064   23.8806 C   0  0  0  0  0  0  0  0  0  0  0  0
  -19.9131  -27.1778   22.1889 C   0  0  0  0  0  0  0  0  0  0  0  0
  -25.7615  -29.3749   20.4898 C   0  0  0  0  0  0  0  0  0  0  0  0
  -30.2551  -24.6279   20.3443 C   0  0  0  0  0  0  0  0  0  0  0  0
  -29.6603  -23.9063   17.8438 C   0  0  0  0  0  0  0  0  0  0  0  0
  -30.5725  -24.9071   18.0969 C   0  0  0  0  0  0  0  0  0  0  0  0
  -29.3428  -23.6272   20.0911 C   0  0  0  0  0  0  0  0  0  0  0  0
  -27.8077  -30.1350   20.2252 C   0  0  0  0  0  0  0  0  0  0  0  0
  -26.0572  -31.5140   19.0928 C   0  0  0  0  0  0  0  0  0  0  0  0
  -30.6086  -25.0583   21.7032 C   0  0  0  0  0  0  0  0  0  0  0  0
  -25.6449  -15.9644   20.0821 C   0  0  0  0  0  0  0  0  0  0  0  0
  -23.8260  -18.2958   21.4158 C   0  0  0  0  0  0  0  0  0  0  0  0
  -23.1815  -21.6299   21.7553 C   0  0  0  0  0  0  0  0  0  0  0  0
  -24.4641  -11.1693   21.3744 C   0  0  0  0  0  0  0  0  0  0  0  0
  -27.4063  -17.4752   21.0673 C   0  0  0  0  0  0  0  0  0  0  0  0
  -25.3749  -18.9998   19.5528 C   0  0  0  0  0  0  0  0  0  0  0  0
  -23.6879  -12.4680   21.1715 C   0  0  0  0  0  0  0  0  0  0  0  0
  -30.4455  -28.0556   23.6348 C   0  0  0  0  0  0  0  0  0  0  0  0
  -24.0788  -13.1227   19.8503 C   0  0  0  0  0  0  0  0  0  0  0  0
  -29.2826  -28.8240   23.0044 C   0  0  0  0  0  0  0  0  0  0  0  0
  -28.7499  -24.5621   15.5235 C   0  0  0  0  0  0  0  0  0  0  0  0
  -27.8695  -23.4689   16.0430 C   0  0  0  0  0  0  0  0  0  0  0  0
  -30.1943  -26.5498   23.6303 C   0  0  0  0  0  0  0  0  0  0  0  0
  -28.7061  -26.7543   21.6686 C   0  0  0  0  0  0  0  0  0  0  0  0
  -25.5676  -13.4897   19.8357 C   0  0  1  0  0  0  0  0  0  0  0  0
  -25.9363  -17.0672   21.0602 C   0  0  1  0  0  0  0  0  0  0  0  0
  -28.9418  -28.2724   21.6073 C   0  0  1  0  0  0  0  0  0  0  0  0
  -29.3326  -23.5067   16.4463 C   0  0  0  0  0  0  0  0  0  0  0  0
  -32.4454  -26.4599   17.4906 C   0  0  0  0  0  0  0  0  0  0  0  0
  -22.1004  -23.7141   22.6412 C   0  0  0  0  0  0  0  0  0  0  0  0
  -21.6714  -17.6143   19.3657 C   0  0  0  0  0  0  0  0  0  0  0  0
  -20.5705  -19.7985   19.8999 C   0  0  0  0  0  0  0  0  0  0  0  0
  -20.8132  -18.0598   21.6721 C   0  0  0  0  0  0  0  0  0  0  0  0
  -27.3957  -22.4287   21.0901 C   0  0  0  0  0  0  0  0  0  0  0  0
  -25.1340  -21.8408   23.9694 C   0  0  0  0  0  0  0  0  0  0  0  0
  -31.2647  -25.6298   16.9923 C   0  0  0  0  0  0  0  0  0  0  0  0
  -30.2503  -22.4833   15.8471 C   0  0  0  0  0  0  0  0  0  0  0  0
  -30.2421  -21.1748   16.6262 C   0  0  0  0  0  0  0  0  0  1  0  0
  -22.8567  -19.3273   20.8911 C   0  0  1  0  0  0  0  0  0  0  0  0
  -22.9325  -22.4878   22.9827 C   0  0  2  0  0  0  0  0  0  0  0  0
  -21.5050  -18.6992   20.4484 C   0  0  0  0  0  0  0  0  0  0  0  0
  -26.5286  -28.5108   21.1598 N   0  0  0  0  0  0  0  0  0  0  0  0
  -30.8864  -25.2858   19.3517 N   0  0  0  0  0  0  0  0  0  0  0  0
  -29.0291  -23.2484   18.8364 N   0  0  0  0  0  0  0  0  0  0  0  0
  -27.7674  -28.9998   20.9801 N   0  0  0  0  0  0  0  0  0  0  0  0
  -29.8606  -26.0850   22.2844 N   0  0  0  0  0  0  0  0  0  0  0  0
  -25.0427  -18.1789   20.7290 N   0  0  0  0  0  0  0  0  0  0  0  0
  -28.9726  -30.7580   19.9473 N   0  0  0  0  0  0  0  0  0  0  0  0
  -24.6845  -31.6444   18.8417 N   0  0  0  0  0  0  0  0  0  0  0  0
  -28.7130  -22.9751   21.1752 N   0  0  0  0  0  0  0  0  0  0  0  0
  -25.7987  -14.6942   20.6040 N   0  0  0  0  0  0  0  0  0  0  0  0
  -22.7321  -20.3387   21.9350 N   0  0  0  0  0  0  0  0  0  0  0  0
  -24.2255  -22.9448   23.5662 N   0  3  0  0  0  0  0  0  0  0  0  0
  -26.8527  -32.3529   18.6060 O   0  0  0  0  0  0  0  0  0  0  0  0
  -31.5592  -24.4792   22.2267 O   0  0  0  0  0  0  0  0  0  0  0  0
  -25.3041  -16.2452   18.9389 O   0  0  0  0  0  0  0  0  0  0  0  0
  -23.5180  -17.6236   22.4033 O   0  0  0  0  0  0  0  0  0  0  0  0
  -23.7174  -22.0628   20.7375 O   0  0  0  0  0  0  0  0  0  0  0  0
  -20.2190  -28.6558   20.3125 O   0  0  0  0  0  0  0  0  0  0  0  0
  -28.9300  -20.6143   16.6045 O   0  0  0  0  0  0  0  0  0  1  0  0
  -17.6472  -27.4032   25.0264 F   0  0  0  0  0  0  0  0  0  0  0  0
  -20.8651  -26.3625   21.7147 F   0  0  0  0  0  0  0  0  0  0  0  0
  1  2  1  0  0  0  0
  1  5  2  0  0  0  0
  2  6  2  0  0  0  0
  3  8  2  0  0  0  0
  3 15  1  0  0  0  0
  4  9  1  0  0  0  0
  4 15  2  0  0  0  0
  5 17  1  0  0  0  0
  6 19  1  0  0  0  0
  7 10  2  0  0  0  0
  7 18  1  0  0  0  0
  8 21  1  0  0  0  0
  9 21  2  0  0  0  0
 10 22  1  0  0  0  0
 11 12  2  0  0  0  0
 11 23  1  0  0  0  0
 12 24  1  0  0  0  0
 13 20  1  0  0  0  0
 13 22  2  0  0  0  0
 14 24  2  0  0  0  0
 14 25  1  0  0  0  0
 15 26  1  0  0  0  0
 16 26  1  0  0  0  0
 16 31  2  0  0  0  0
 16 32  1  0  0  0  0
 17 19  2  0  0  0  0
 17 37  1  0  0  0  0
 18 20  2  0  0  0  0
 18 38  1  0  0  0  0
 19 48  1  0  0  0  0
 20 39  1  0  0  0  0
 21 82  1  0  0  0  0
 22 83  1  0  0  0  0
 23 25  2  0  0  0  0
 23 82  1  0  0  0  0
 24 84  1  0  0  0  0
 25 85  1  0  0  0  0
 26 65  2  0  0  0  0
 27 30  1  0  0  0  0
 27 33  1  0  0  0  0
 27 66  2  0  0  0  0
 28 29  2  0  0  0  0
 28 51  1  0  0  0  0
 28 67  1  0  0  0  0
 29 59  1  0  0  0  0
 29 66  1  0  0  0  0
 30 67  2  0  0  0  0
 30 73  1  0  0  0  0
 31 68  1  0  0  0  0
 31 71  1  0  0  0  0
 32 72  1  0  0  0  0
 32 77  2  0  0  0  0
 33 69  1  0  0  0  0
 33 78  2  0  0  0  0
 34 49  1  0  0  0  0
 34 74  1  0  0  0  0
 34 79  2  0  0  0  0
 35 62  1  0  0  0  0
 35 70  1  0  0  0  0
 35 80  2  0  0  0  0
 36 63  1  0  0  0  0
 36 75  1  0  0  0  0
 36 81  2  0  0  0  0
 37 40  1  0  0  0  0
 38 49  1  0  0  0  0
 39 70  1  0  0  0  0
 40 42  1  0  0  0  0
 41 43  1  0  0  0  0
 41 46  1  0  0  0  0
 42 48  1  0  0  0  0
 43 50  1  0  0  0  0
 44 45  1  0  0  0  0
 44 51  1  0  0  0  0
 45 51  1  0  0  0  0
 46 69  1  0  0  0  0
 47 50  1  0  0  0  0
 47 69  1  0  0  0  0
 48 74  1  0  0  0  0
 49 70  1  0  0  0  0
 50 68  1  0  0  0  0
 51 60  1  0  0  0  0
 52 59  1  0  0  0  0
 53 63  1  0  0  0  0
 54 64  1  0  0  0  0
 55 64  1  0  0  0  0
 56 64  1  0  0  0  0
 57 73  1  0  0  0  0
 58 76  1  0  0  0  0
 60 61  1  0  0  0  0
 61 83  1  0  0  0  0
 62 64  1  0  0  0  0
 62 75  1  0  0  0  0
 63 76  1  0  0  0  0
 65 68  1  0  0  0  0
M  CHG  1  76   1
M  ISO  4  27 100  33 100  61 101  83 101
M  END
> <Batch ID>
0184

> <Smiles>
CCc1n[100c:0]([100C:0](=O)N2CCCC(n3nc(-c4ccc(Oc5ccc(F)cc5F)cc4)c(C(N)=O)c3N)C2)c(NC)nc1C1(C[101CH2:1][101O:1]c2ccc3c(c2)CN(C(=O)C(NC(=O)C(C)NC)C(C)(C)C)C(C(=O)NC2CCCc4ccccc42)C3)CC1

> <Shape>
0.239

> <Color>
0.081

> <Negative vol penalty>
0.000

$$$$

  -OEChem-04052323103D

 85 94  0     1  0  0  0  0  0999 V2000
  -25.5551  -38.3311   22.7927 C   0  0  0  0  0  0  0  0  0  0  0  0
  -26.2368  -37.4854   21.9234 C   0  0  0  0  0  0  0  0  0  0  0  0
  -23.0992  -10.4932   21.8248 C   0  0  0  0  0  0  0  0  0  0  0  0
  -24.7539   -8.7531   22.0912 C   0  0  0  0  0  0  0  0  0  0  0  0
  -24.9750  -37.8170   23.9517 C   0  0  0  0  0  0  0  0  0  0  0  0
  -26.3397  -36.1253   22.2132 C   0  0  0  0  0  0  0  0  0  0  0  0
  -26.6463  -29.7373   18.9860 C   0  0  0  0  0  0  0  0  0  0  0  0
  -22.1419   -9.5328   21.4980 C   0  0  0  0  0  0  0  0  0  0  0  0
  -23.7966   -7.7927   21.7644 C   0  0  0  0  0  0  0  0  0  0  0  0
  -27.4252  -28.5813   18.9574 C   0  0  0  0  0  0  0  0  0  0  0  0
  -21.2345   -6.2097   23.2974 C   0  0  0  0  0  0  0  0  0  0  0  0
  -21.1748   -5.0614   24.0869 C   0  0  0  0  0  0  0  0  0  0  0  0
  -26.3154  -27.7916   20.9483 C   0  0  0  0  0  0  0  0  0  0  0  0
  -21.6404   -3.7019   22.1447 C   0  0  0  0  0  0  0  0  0  0  0  0
  -28.9500  -23.8749   18.9088 C   0  0  0  0  0  0  0  0  0  0  0  0
  -24.4053  -10.1033   22.1214 C   0  0  0  0  0  0  0  0  0  0  0  0
  -25.7042  -11.5853   23.7414 C   0  0  0  0  0  0  0  0  0  0  0  0
  -25.0625  -36.4483   24.2509 C   0  0  0  0  0  0  0  0  0  0  0  0
  -25.7022  -29.9344   20.0039 C   0  0  0  0  0  0  0  0  0  0  0  0
  -25.7613  -35.5927   23.3779 C   0  0  0  0  0  0  0  0  0  0  0  0
  -25.5240  -28.9497   20.9862 C   0  0  0  0  0  0  0  0  0  0  0  0
  -22.4906   -8.1826   21.4678 C   0  0  0  0  0  0  0  0  0  0  0  0
  -27.2619  -27.6095   19.9403 C   0  0  0  0  0  0  0  0  0  0  0  0
  -21.4970   -6.1041   21.9315 C   0  0  0  0  0  0  0  0  0  0  0  0
  -21.3778   -3.8075   23.5106 C   0  0  0  0  0  0  0  0  0  0  0  0
  -21.6999   -4.8502   21.3552 C   0  0  0  0  0  0  0  0  0  0  0  0
  -25.3948  -11.0949   22.4586 C   0  0  0  0  0  0  0  0  0  0  0  0
  -29.6749  -25.0479   18.9620 C   0  0  0  0  0  0  0  0  0  0  0  0
  -29.6861  -22.7127   19.0165 C   0  0  0  0  0  0  0  0  0  0  0  0
  -26.7041  -12.5021   23.5266 C   0  0  0  0  0  0  0  0  0  0  0  0
  -31.6188  -23.8946   19.2032 C   0  0  0  0  0  0  0  0  0  0  0  0
  -25.1384  -11.2426   25.0135 C   0  0  0  0  0  0  0  0  0  0  0  0
  -25.3078  -32.0840   22.3120 C   0  0  0  0  0  0  0  0  0  0  0  0
  -22.5210  -30.4923   22.7836 C   0  0  0  0  0  0  0  0  0  0  0  0
  -20.7424  -27.6001   22.4395 C   0  0  0  0  0  0  0  0  0  0  0  0
  -28.9308  -16.6173   20.8974 C   0  0  0  0  0  0  0  0  0  0  0  0
  -24.4600  -35.9470   25.5394 C   0  0  0  0  0  0  0  0  0  0  0  0
  -24.8511  -31.1746   20.0054 C   0  0  0  0  0  0  0  0  0  0  0  0
  -24.5099  -29.1041   22.0890 C   0  0  0  0  0  0  0  0  0  0  0  0
  -24.2927  -34.4303   25.5840 C   0  0  0  0  0  0  0  0  0  0  0  0
  -29.4597  -13.4820   19.4077 C   0  0  0  0  0  0  0  0  0  0  0  0
  -25.5636  -33.7386   25.1010 C   0  0  0  0  0  0  0  0  0  0  0  0
  -28.4667  -12.6099   20.1755 C   0  0  0  0  0  0  0  0  0  0  0  0
  -28.7179  -19.1509   18.4636 C   0  0  0  0  0  0  0  0  0  0  0  0
  -29.9526  -19.9076   20.5301 C   0  0  0  0  0  0  0  0  0  0  0  0
  -28.8771  -14.8568   19.0750 C   0  0  0  0  0  0  0  0  0  0  0  0
  -29.2930  -17.7445   18.6558 C   0  0  0  0  0  0  0  0  0  0  0  0
  -30.5237  -18.4987   20.6648 C   0  0  0  0  0  0  0  0  0  0  0  0
  -27.3531  -14.7116   21.0179 C   0  0  0  0  0  0  0  0  0  0  0  0
  -25.8731  -34.1074   23.6451 C   0  0  1  0  0  0  0  0  0  0  0  0
  -24.2801  -31.5058   21.3808 C   0  0  1  0  0  0  0  0  0  0  0  0
  -27.9310  -13.3450   21.4171 C   0  0  1  0  0  0  0  0  0  0  0  0
  -29.6328  -20.2198   19.0659 C   0  0  0  0  0  0  0  0  0  0  0  0
  -33.1008  -23.9056   19.3668 C   0  0  0  0  0  0  0  0  0  0  0  0
  -18.5033  -26.5913   22.9553 C   0  0  0  0  0  0  0  0  0  0  0  0
  -23.3335  -30.1907   25.7092 C   0  0  0  0  0  0  0  0  0  0  0  0
  -21.5872  -28.4114   25.9383 C   0  0  0  0  0  0  0  0  0  0  0  0
  -20.9210  -30.7417   25.3480 C   0  0  0  0  0  0  0  0  0  0  0  0
  -20.1592  -27.1421   19.5744 C   0  0  0  0  0  0  0  0  0  0  0  0
  -28.9660  -26.3561   18.8536 C   0  0  0  0  0  0  0  0  0  1  0  0
  -22.0924  -29.3126   23.6224 C   0  0  1  0  0  0  0  0  0  0  0  0
  -19.3387  -27.3359   21.9255 C   0  0  2  0  0  0  0  0  0  0  0  0
  -22.0041  -29.6617   25.1349 C   0  0  0  0  0  0  0  0  0  0  0  0
  -26.1378  -11.6541   21.4998 N   0  0  0  0  0  0  0  0  0  0  0  0
  -31.0152  -25.0947   19.1090 N   0  0  0  0  0  0  0  0  0  0  0  0
  -31.0268  -22.6856   19.1651 N   0  0  0  0  0  0  0  0  0  0  0  0
  -26.9240  -12.5053   22.1806 N   0  0  0  0  0  0  0  0  0  0  0  0
  -23.7063  -30.3370   22.0509 N   0  0  0  0  0  0  0  0  0  0  0  0
  -28.3429  -15.5016   20.2826 N   0  0  0  0  0  0  0  0  0  0  0  0
  -29.6281  -17.5076   20.0673 N   0  0  0  0  0  0  0  0  0  0  0  0
  -27.4078  -13.2978   24.3597 N   0  0  0  0  0  0  0  0  0  0  0  0
  -24.1195  -10.2810   25.0543 N   0  0  0  0  0  0  0  0  0  0  0  0
  -28.9958  -21.5146   18.9678 N   0  0  0  0  0  0  0  0  0  0  0  0
  -25.0191  -33.3647   22.7432 N   0  0  0  0  0  0  0  0  0  0  0  0
  -20.8405  -28.8348   23.0454 N   0  0  0  0  0  0  0  0  0  0  0  0
  -19.3882  -26.5184   20.6805 N   0  3  0  0  0  0  0  0  0  0  0  0
  -25.5135  -11.7853   26.0804 O   0  0  0  0  0  0  0  0  0  0  0  0
  -26.2893  -31.4170   22.6179 O   0  0  0  0  0  0  0  0  0  0  0  0
  -21.8259  -31.5113   22.7732 O   0  0  0  0  0  0  0  0  0  0  0  0
  -21.6592  -26.7904   22.3191 O   0  0  0  0  0  0  0  0  0  0  0  0
  -28.8381  -16.8071   22.1166 O   0  0  0  0  0  0  0  0  0  0  0  0
  -21.5566   -7.2452   21.1491 O   0  0  0  0  0  0  0  0  0  0  0  0
  -28.0265  -26.4727   19.9149 O   0  0  0  0  0  0  0  0  0  1  0  0
  -21.3221   -2.7050   24.2692 F   0  0  0  0  0  0  0  0  0  0  0  0
  -21.9537   -4.7426   20.0438 F   0  0  0  0  0  0  0  0  0  0  0  0
  1  2  1  0  0  0  0
  1  5  2  0  0  0  0
  2  6  2  0  0  0  0
  3  8  2  0  0  0  0
  3 16  1  0  0  0  0
  4  9  1  0  0  0  0
  4 16  2  0  0  0  0
  5 18  1  0  0  0  0
  6 20  1  0  0  0  0
  7 10  2  0  0  0  0
  7 19  1  0  0  0  0
  8 22  1  0  0  0  0
  9 22  2  0  0  0  0
 10 23  1  0  0  0  0
 11 12  2  0  0  0  0
 11 24  1  0  0  0  0
 12 25  1  0  0  0  0
 13 21  1  0  0  0  0
 13 23  2  0  0  0  0
 14 25  2  0  0  0  0
 14 26  1  0  0  0  0
 15 28  1  0  0  0  0
 15 29  2  0  0  0  0
 16 27  1  0  0  0  0
 17 27  1  0  0  0  0
 17 30  2  0  0  0  0
 17 32  1  0  0  0  0
 18 20  2  0  0  0  0
 18 37  1  0  0  0  0
 19 21  2  0  0  0  0
 19 38  1  0  0  0  0
 20 50  1  0  0  0  0
 21 39  1  0  0  0  0
 22 82  1  0  0  0  0
 23 83  1  0  0  0  0
 24 26  2  0  0  0  0
 24 82  1  0  0  0  0
 25 84  1  0  0  0  0
 26 85  1  0  0  0  0
 27 64  2  0  0  0  0
 28 60  1  0  0  0  0
 28 65  2  0  0  0  0
 29 66  1  0  0  0  0
 29 73  1  0  0  0  0
 30 67  1  0  0  0  0
 30 71  1  0  0  0  0
 31 54  1  0  0  0  0
 31 65  1  0  0  0  0
 31 66  2  0  0  0  0
 32 72  1  0  0  0  0
 32 77  2  0  0  0  0
 33 51  1  0  0  0  0
 33 74  1  0  0  0  0
 33 78  2  0  0  0  0
 34 61  1  0  0  0  0
 34 68  1  0  0  0  0
 34 79  2  0  0  0  0
 35 62  1  0  0  0  0
 35 75  1  0  0  0  0
 35 80  2  0  0  0  0
 36 69  1  0  0  0  0
 36 70  1  0  0  0  0
 36 81  2  0  0  0  0
 37 40  1  0  0  0  0
 38 51  1  0  0  0  0
 39 68  1  0  0  0  0
 40 42  1  0  0  0  0
 41 43  1  0  0  0  0
 41 46  1  0  0  0  0
 42 50  1  0  0  0  0
 43 52  1  0  0  0  0
 44 47  1  0  0  0  0
 44 53  1  0  0  0  0
 45 48  1  0  0  0  0
 45 53  1  0  0  0  0
 46 69  1  0  0  0  0
 47 70  1  0  0  0  0
 48 70  1  0  0  0  0
 49 52  1  0  0  0  0
 49 69  1  0  0  0  0
 50 74  1  0  0  0  0
 51 68  1  0  0  0  0
 52 67  1  0  0  0  0
 53 73  1  0  0  0  0
 55 62  1  0  0  0  0
 56 63  1  0  0  0  0
 57 63  1  0  0  0  0
 58 63  1  0  0  0  0
 59 76  1  0  0  0  0
 60 83  1  0  0  0  0
 61 63  1  0  0  0  0
 61 75  1  0  0  0  0
 62 76  1  0  0  0  0
 64 67  1  0  0  0  0
M  CHG  1  76   1
M  ISO  4  36 100  60 101  70 100  83 101
M  END
> <Batch ID>
0184

> <Smiles>
CNC(C)C(=O)NC(C(=O)N1Cc2cc([101O:1][101CH2:1]c3cc(NC4CC[100N:0]([100C:0](=O)N5CCCC(n6nc(-c7ccc(Oc8ccc(F)cc8F)cc7)c(C(N)=O)c6N)C5)CC4)nc(C)n3)ccc2CC1C(=O)NC1CCCc2ccccc21)C(C)(C)C

> <Shape>
0.376

> <Color>
0.118

> <Negative vol penalty>
0.000

$$$$

  -OEChem-04052323103D

 87 96  0     1  0  0  0  0  0999 V2000
  -17.4554  -26.2210   21.2881 C   0  0  0  0  0  0  0  0  0  0  0  0
  -18.7773  -25.8309   21.0986 C   0  0  0  0  0  0  0  0  0  0  0  0
  -23.8061  -12.8096   21.6536 C   0  0  0  0  0  0  0  0  0  0  0  0
  -26.1256  -12.5940   22.2940 C   0  0  0  0  0  0  0  0  0  0  0  0
  -17.1707  -27.4519   21.8777 C   0  0  0  0  0  0  0  0  0  0  0  0
  -19.8153  -26.6721   21.4976 C   0  0  0  0  0  0  0  0  0  0  0  0
  -23.4880  -24.1959   23.9522 C   0  0  0  0  0  0  0  0  0  0  0  0
  -23.6235  -11.4414   21.8538 C   0  0  0  0  0  0  0  0  0  0  0  0
  -25.9431  -11.2257   22.4943 C   0  0  0  0  0  0  0  0  0  0  0  0
  -24.3882  -23.4633   23.1798 C   0  0  0  0  0  0  0  0  0  0  0  0
  -23.1735   -9.3448   24.4681 C   0  0  0  0  0  0  0  0  0  0  0  0
  -22.0354   -8.9376   25.1642 C   0  0  0  0  0  0  0  0  0  0  0  0
  -25.9899  -25.2587   23.3546 C   0  0  0  0  0  0  0  0  0  0  0  0
  -21.3173   -7.6605   23.2432 C   0  0  0  0  0  0  0  0  0  0  0  0
  -25.0571  -13.3860   21.8736 C   0  0  0  0  0  0  0  0  0  0  0  0
  -25.0806  -15.8271   22.6138 C   0  0  0  0  0  0  0  0  0  0  0  0
  -18.2058  -28.3044   22.2930 C   0  0  0  0  0  0  0  0  0  0  0  0
  -23.8284  -25.4721   24.4233 C   0  0  0  0  0  0  0  0  0  0  0  0
  -19.5442  -27.9162   22.0922 C   0  0  0  0  0  0  0  0  0  0  0  0
  -25.0931  -26.0043   24.1350 C   0  0  0  0  0  0  0  0  0  0  0  0
  -27.4876  -21.7858   19.6073 C   0  0  0  0  0  0  0  0  0  0  0  0
  -24.6920  -10.6494   22.2742 C   0  0  0  0  0  0  0  0  0  0  0  0
  -25.6383  -23.9959   22.8784 C   0  0  0  0  0  0  0  0  0  0  0  0
  -23.3835   -8.9098   23.1595 C   0  0  0  0  0  0  0  0  0  0  0  0
  -21.1073   -8.0955   24.5518 C   0  0  0  0  0  0  0  0  0  0  0  0
  -22.4554   -8.0677   22.5471 C   0  0  0  0  0  0  0  0  0  0  0  0
  -25.2464  -14.7992   21.6663 C   0  0  0  0  0  0  0  0  0  0  0  0
  -28.5294  -21.1349   18.9784 C   0  0  0  0  0  0  0  0  0  0  0  0
  -27.2070  -21.3626   20.8904 C   0  0  0  0  0  0  0  0  0  0  0  0
  -25.3782  -16.9786   21.9269 C   0  0  0  0  0  0  0  0  0  0  0  0
  -28.8781  -19.8242   20.8025 C   0  0  0  0  0  0  0  0  0  0  0  0
  -24.6923  -15.7481   23.9918 C   0  0  0  0  0  0  0  0  0  0  0  0
  -22.6726  -28.4023   23.9973 C   0  0  0  0  0  0  0  0  0  0  0  0
  -24.8622  -29.1741   26.2628 C   0  0  0  0  0  0  0  0  0  0  0  0
  -27.7833  -28.4036   27.8505 C   0  0  0  0  0  0  0  0  0  0  0  0
  -28.7924  -17.9769   17.2150 C   0  0  0  0  0  0  0  0  0  0  0  0
  -17.8489  -29.6460   22.8826 C   0  0  0  0  0  0  0  0  0  0  0  0
  -22.8562  -26.2383   25.2777 C   0  0  0  0  0  0  0  0  0  0  0  0
  -25.5148  -27.3615   24.6337 C   0  0  0  0  0  0  0  0  0  0  0  0
  -19.0067  -30.3152   23.6188 C   0  0  0  0  0  0  0  0  0  0  0  0
  -25.2902  -18.8374   17.5172 C   0  0  0  0  0  0  0  0  0  0  0  0
  -20.2817  -30.2448   22.7845 C   0  0  0  0  0  0  0  0  0  0  0  0
  -24.8704  -17.9865   18.7172 C   0  0  0  0  0  0  0  0  0  0  0  0
  -26.2933  -18.0964   16.6381 C   0  0  0  0  0  0  0  0  0  0  0  0
  -27.0923  -16.7712   18.5562 C   0  0  0  0  0  0  0  0  0  0  0  0
  -29.9288  -22.6246   17.3783 C   0  0  0  0  0  0  0  0  0  0  0  0
  -20.6978  -28.7902   22.5344 C   0  0  1  0  0  0  0  0  0  0  0  0
  -28.9142  -21.5162   17.5858 C   0  0  1  0  0  0  0  0  0  0  0  0
  -23.1130  -27.7421   25.2732 C   0  0  1  0  0  0  0  0  0  0  0  0
  -26.0959  -17.4734   19.4964 C   0  0  2  0  0  0  0  0  0  0  0  0
  -29.6507  -18.7354   21.4666 C   0  0  0  0  0  0  0  0  0  0  0  0
  -29.3375  -29.2432   29.6328 C   0  0  0  0  0  0  0  0  0  0  0  0
  -25.9261  -31.2874   24.3362 C   0  0  0  0  0  0  0  0  0  0  0  0
  -27.9988  -31.4184   25.7344 C   0  0  0  0  0  0  0  0  0  0  0  0
  -25.7899  -32.0248   26.7220 C   0  0  0  0  0  0  0  0  0  0  0  0
  -26.6729  -25.2761   18.2682 C   0  0  0  0  0  0  0  0  0  0  0  0
  -27.3940  -25.9751   29.4966 C   0  0  0  0  0  0  0  0  0  0  0  0
  -26.7149  -22.8729   18.9477 C   0  0  0  0  0  0  0  0  0  0  0  0
  -26.0959  -21.9966   21.6746 C   0  0  0  0  0  0  0  0  0  1  0  0
  -30.3774  -19.2362   15.7800 C   0  0  0  0  0  0  0  0  0  0  0  0
  -30.5272  -20.7456   15.8193 C   0  0  0  0  0  0  0  0  0  0  0  0
  -26.3114  -29.5966   26.2490 C   0  0  1  0  0  0  0  0  0  0  0  0
  -28.1454  -28.3508   29.3237 C   0  0  2  0  0  0  0  0  0  0  0  0
  -26.4982  -31.0570   25.7492 C   0  0  0  0  0  0  0  0  0  0  0  0
  -25.6202  -15.2574   20.4686 N   0  0  0  0  0  0  0  0  0  0  0  0
  -29.2487  -20.1461   19.5485 N   0  0  0  0  0  0  0  0  0  0  0  0
  -27.8844  -20.3808   21.5210 N   0  0  0  0  0  0  0  0  0  0  0  0
  -25.6916  -16.5858   20.6589 N   0  0  0  0  0  0  0  0  0  0  0  0
  -24.5268  -28.0746   25.4601 N   0  0  0  0  0  0  0  0  0  0  0  0
  -27.4440  -17.6510   17.4365 N   0  0  0  0  0  0  0  0  0  0  0  0
  -25.3996  -18.2788   22.2897 N   0  0  0  0  0  0  0  0  0  0  0  0
  -24.4232  -14.4861   24.5387 N   0  0  0  0  0  0  0  0  0  0  0  0
  -21.3309  -28.2360   23.7118 N   0  0  0  0  0  0  0  0  0  0  0  0
  -26.8196  -29.3562   27.5952 N   0  0  0  0  0  0  0  0  0  0  0  0
  -29.0410  -18.8091   16.1304 N   0  0  0  0  0  0  0  0  0  0  0  0
  -30.2867  -21.2325   17.1808 N   0  3  1  0  0  0  0  0  0  0  0  0
  -27.4528  -24.1657   18.8729 N   0  3  0  0  0  0  0  0  0  0  0  0
  -28.4861  -26.9562   29.7238 N   0  3  0  0  0  0  0  0  0  0  0  0
  -24.5712  -16.7679   24.7121 O   0  0  0  0  0  0  0  0  0  0  0  0
  -23.4893  -29.0184   23.3227 O   0  0  0  0  0  0  0  0  0  0  0  0
  -24.0588  -29.7922   26.9657 O   0  0  0  0  0  0  0  0  0  0  0  0
  -28.3058  -27.6753   27.0096 O   0  0  0  0  0  0  0  0  0  0  0  0
  -29.7073  -17.5610   17.9341 O   0  0  0  0  0  0  0  0  0  0  0  0
  -24.5143   -9.3143   22.4700 O   0  0  0  0  0  0  0  0  0  0  0  0
  -26.5187  -23.2832   22.1241 O   0  0  0  0  0  0  0  0  0  1  0  0
  -20.0152   -7.7033   25.2209 F   0  0  0  0  0  0  0  0  0  0  0  0
  -22.6523   -7.6456   21.2905 F   0  0  0  0  0  0  0  0  0  0  0  0
  1  2  1  0  0  0  0
  1  5  2  0  0  0  0
  2  6  2  0  0  0  0
  3  8  2  0  0  0  0
  3 15  1  0  0  0  0
  4  9  1  0  0  0  0
  4 15  2  0  0  0  0
  5 17  1  0  0  0  0
  6 19  1  0  0  0  0
  7 10  2  0  0  0  0
  7 18  1  0  0  0  0
  8 22  1  0  0  0  0
  9 22  2  0  0  0  0
 10 23  1  0  0  0  0
 11 12  2  0  0  0  0
 11 24  1  0  0  0  0
 12 25  1  0  0  0  0
 13 20  1  0  0  0  0
 13 23  2  0  0  0  0
 14 25  2  0  0  0  0
 14 26  1  0  0  0  0
 15 27  1  0  0  0  0
 16 27  1  0  0  0  0
 16 30  2  0  0  0  0
 16 32  1  0  0  0  0
 17 19  2  0  0  0  0
 17 37  1  0  0  0  0
 18 20  2  0  0  0  0
 18 38  1  0  0  0  0
 19 47  1  0  0  0  0
 20 39  1  0  0  0  0
 21 28  1  0  0  0  0
 21 29  2  0  0  0  0
 21 58  1  0  0  0  0
 22 84  1  0  0  0  0
 23 85  1  0  0  0  0
 24 26  2  0  0  0  0
 24 84  1  0  0  0  0
 25 86  1  0  0  0  0
 26 87  1  0  0  0  0
 27 65  2  0  0  0  0
 28 48  1  0  0  0  0
 28 66  2  0  0  0  0
 29 59  1  0  0  0  0
 29 67  1  0  0  0  0
 30 68  1  0  0  0  0
 30 71  1  0  0  0  0
 31 51  1  0  0  0  0
 31 66  1  0  0  0  0
 31 67  2  0  0  0  0
 32 72  1  0  0  0  0
 32 79  2  0  0  0  0
 33 49  1  0  0  0  0
 33 73  1  0  0  0  0
 33 80  2  0  0  0  0
 34 62  1  0  0  0  0
 34 69  1  0  0  0  0
 34 81  2  0  0  0  0
 35 63  1  0  0  0  0
 35 74  1  0  0  0  0
 35 82  2  0  0  0  0
 36 70  1  0  0  0  0
 36 75  1  0  0  0  0
 36 83  2  0  0  0  0
 37 40  1  0  0  0  0
 38 49  1  0  0  0  0
 39 69  1  0  0  0  0
 40 42  1  0  0  0  0
 41 43  1  0  0  0  0
 41 44  1  0  0  0  0
 42 47  1  0  0  0  0
 43 50  1  0  0  0  0
 44 70  1  0  0  0  0
 45 50  1  0  0  0  0
 45 70  1  0  0  0  0
 46 48  1  0  0  0  0
 46 76  1  0  0  0  0
 47 73  1  0  0  0  0
 48 76  1  0  0  0  0
 49 69  1  0  0  0  0
 50 68  1  0  0  0  0
 52 63  1  0  0  0  0
 53 64  1  0  0  0  0
 54 64  1  0  0  0  0
 55 64  1  0  0  0  0
 56 77  1  0  0  0  0
 57 78  1  0  0  0  0
 58 77  1  0  0  0  0
 59 85  1  0  0  0  0
 60 61  1  0  0  0  0
 60 75  1  0  0  0  0
 61 76  1  0  0  0  0
 62 64  1  0  0  0  0
 62 74  1  0  0  0  0
 63 78  1  0  0  0  0
 65 68  1  0  0  0  0
M  CHG  3  76   1  77   1  78   1
M  ISO  4  36 100  59 101  75 100  85 101
M  END
> <Batch ID>
0184

> <Smiles>
CNCc1c(C2CN2CC[100NH:0][100C:0](=O)N2CCCC(n3nc(-c4ccc(Oc5ccc(F)cc5F)cc4)c(C(N)=O)c3N)C2)nc(C)nc1[101CH2:1][101O:1]c1ccc2c(c1)CN(C(=O)C(NC(=O)C(C)NC)C(C)(C)C)C(C(=O)NC1CCCc3ccccc31)C2

> <Shape>
0.205

> <Color>
0.073

> <Negative vol penalty>
0.000

$$$$

  -OEChem-04052323103D

 85 94  0     1  0  0  0  0  0999 V2000
  -22.0064  -11.5119   19.1058 C   0  0  0  0  0  0  0  0  0  0  0  0
  -21.6757  -12.7959   19.5271 C   0  0  0  0  0  0  0  0  0  0  0  0
  -29.1854  -28.4909   19.2789 C   0  0  0  0  0  0  0  0  0  0  0  0
  -28.9113  -26.5442   20.6833 C   0  0  0  0  0  0  0  0  0  0  0  0
  -23.2834  -11.0073   19.3481 C   0  0  0  0  0  0  0  0  0  0  0  0
  -22.6215  -13.5756   20.1918 C   0  0  0  0  0  0  0  0  0  0  0  0
  -23.3020  -19.6506   19.8204 C   0  0  0  0  0  0  0  0  0  0  0  0
  -30.5661  -28.2930   19.2739 C   0  0  0  0  0  0  0  0  0  0  0  0
  -30.2920  -26.3462   20.6783 C   0  0  0  0  0  0  0  0  0  0  0  0
  -22.8773  -20.6940   20.6418 C   0  0  0  0  0  0  0  0  0  0  0  0
  -33.0002  -27.6418   22.2334 C   0  0  0  0  0  0  0  0  0  0  0  0
  -33.6174  -27.3500   23.4497 C   0  0  0  0  0  0  0  0  0  0  0  0
  -25.0286  -20.7023   21.7332 C   0  0  0  0  0  0  0  0  0  0  0  0
  -20.8659  -24.8582   22.8021 C   0  0  0  0  0  0  0  0  0  0  0  0
  -34.3931  -25.2456   22.5512 C   0  0  0  0  0  0  0  0  0  0  0  0
  -22.1771  -24.8315   25.1950 C   0  0  0  0  0  0  0  0  0  0  0  0
  -28.3580  -27.6166   19.9836 C   0  0  0  0  0  0  0  0  0  0  0  0
  -25.9940  -27.2964   19.0799 C   0  0  0  0  0  0  0  0  0  0  0  0
  -24.2484  -11.7848   20.0076 C   0  0  0  0  0  0  0  0  0  0  0  0
  -24.5916  -19.1170   19.9567 C   0  0  0  0  0  0  0  0  0  0  0  0
  -23.9122  -13.0804   20.4443 C   0  0  0  0  0  0  0  0  0  0  0  0
  -25.4681  -19.6539   20.9105 C   0  0  0  0  0  0  0  0  0  0  0  0
  -20.6538  -25.8917   23.7077 C   0  0  0  0  0  0  0  0  0  0  0  0
  -21.3180  -25.8856   24.9292 C   0  0  0  0  0  0  0  0  0  0  0  0
  -31.1194  -27.2206   19.9736 C   0  0  0  0  0  0  0  0  0  0  0  0
  -23.7396  -21.2181   21.6003 C   0  0  0  0  0  0  0  0  0  0  0  0
  -33.0793  -26.7355   21.1760 C   0  0  0  0  0  0  0  0  0  0  0  0
  -34.3139  -26.1519   23.6086 C   0  0  0  0  0  0  0  0  0  0  0  0
  -33.7758  -25.5374   21.3349 C   0  0  0  0  0  0  0  0  0  0  0  0
  -26.9317  -27.8209   19.9896 C   0  0  0  0  0  0  0  0  0  0  0  0
  -21.7454  -23.8502   23.1630 C   0  0  0  0  0  0  0  0  0  0  0  0
  -24.7848  -27.7803   19.5161 C   0  0  0  0  0  0  0  0  0  0  0  0
  -26.1977  -26.4477   17.9425 C   0  0  0  0  0  0  0  0  0  0  0  0
  -25.7701  -16.2631   20.7117 C   0  0  0  0  0  0  0  0  0  0  0  0
  -28.5987  -17.6677   19.9711 C   0  0  0  0  0  0  0  0  0  0  0  0
  -30.4102  -20.5423   19.6519 C   0  0  0  0  0  0  0  0  0  0  0  0
  -22.8183  -29.6194   24.8642 C   0  0  0  0  0  0  0  0  0  0  0  0
  -25.6005  -11.1788   20.2887 C   0  0  0  0  0  0  0  0  0  0  0  0
  -25.0436  -18.0095   19.0449 C   0  0  0  0  0  0  0  0  0  0  0  0
  -26.8696  -19.1301   21.0833 C   0  0  0  0  0  0  0  0  0  0  0  0
  -26.6624  -12.2080   20.6674 C   0  0  0  0  0  0  0  0  0  0  0  0
  -22.8539  -31.4923   21.8363 C   0  0  0  0  0  0  0  0  0  0  0  0
  -26.1143  -13.1842   21.7035 C   0  0  0  0  0  0  0  0  0  0  0  0
  -23.8184  -30.7164   20.9376 C   0  0  0  0  0  0  0  0  0  0  0  0
  -23.3038  -31.4741   23.2955 C   0  0  0  0  0  0  0  0  0  0  0  0
  -24.5132  -29.3543   22.9527 C   0  0  0  0  0  0  0  0  0  0  0  0
  -19.1612  -27.1094   21.8858 C   0  0  0  0  0  0  0  0  0  0  0  0
  -20.2707  -28.4313   23.0490 C   0  0  0  0  0  0  0  0  0  0  0  0
  -19.6748  -27.0393   23.3375 C   0  0  0  0  0  0  0  0  0  0  0  0
  -24.9185  -13.9660   21.1465 C   0  0  1  0  0  0  0  0  0  0  0  0
  -26.2018  -17.1988   19.6182 C   0  0  1  0  0  0  0  0  0  0  0  0
  -24.0716  -29.2970   21.4803 C   0  0  2  0  0  0  0  0  0  0  0  0
  -32.7062  -21.3692   19.0673 C   0  0  0  0  0  0  0  0  0  0  0  0
  -29.6117  -16.7840   22.7103 C   0  0  0  0  0  0  0  0  0  0  0  0
  -31.4986  -18.4105   22.4599 C   0  0  0  0  0  0  0  0  0  0  0  0
  -31.2637  -16.5182   20.8515 C   0  0  0  0  0  0  0  0  0  0  0  0
  -19.7883  -29.1988   20.7751 C   0  0  0  0  0  0  0  0  0  0  0  0
  -29.3910  -22.0931   17.3464 C   0  0  0  0  0  0  0  0  0  0  0  0
  -21.1258  -26.9681   25.9331 C   0  0  0  0  0  0  0  0  0  0  0  0
  -21.9986  -22.7189   22.2104 C   0  0  0  0  0  0  0  0  0  1  0  0
  -22.4288  -27.6661   26.3447 C   0  0  0  0  0  0  0  0  0  0  0  0
  -29.6370  -18.4503   20.7383 C   0  0  1  0  0  0  0  0  0  0  0  0
  -31.3166  -21.0438   18.5422 C   0  0  2  0  0  0  0  0  0  0  0  0
  -30.4757  -17.5496   21.6883 C   0  0  0  0  0  0  0  0  0  0  0  0
  -22.4087  -23.8099   24.3403 N   0  0  0  0  0  0  0  0  0  0  0  0
  -26.3668  -28.5799   20.9323 N   0  0  0  0  0  0  0  0  0  0  0  0
  -25.0610  -28.5360   20.6173 N   0  0  0  0  0  0  0  0  0  0  0  0
  -27.2627  -18.0425   20.1722 N   0  0  0  0  0  0  0  0  0  0  0  0
  -23.5250  -30.0988   23.7490 N   0  0  0  0  0  0  0  0  0  0  0  0
  -23.5229  -27.6289   19.0611 N   0  0  0  0  0  0  0  0  0  0  0  0
  -27.5042  -26.0435   17.6359 N   0  0  0  0  0  0  0  0  0  0  0  0
  -25.3706  -15.0189   20.2625 N   0  0  0  0  0  0  0  0  0  0  0  0
  -30.4265  -19.1665   19.7423 N   0  0  0  0  0  0  0  0  0  0  0  0
  -23.0823  -28.3033   25.2233 N   0  0  0  0  0  0  0  0  0  0  0  0
  -19.2429  -28.5775   22.0013 N   0  3  0  0  0  0  0  0  0  0  0  0
  -30.7472  -22.2749   17.9249 N   0  3  0  0  0  0  0  0  0  0  0  0
  -25.2512  -26.0726   17.2098 O   0  0  0  0  0  0  0  0  0  0  0  0
  -25.7988  -16.6415   21.8769 O   0  0  0  0  0  0  0  0  0  0  0  0
  -28.9603  -16.7620   19.2157 O   0  0  0  0  0  0  0  0  0  0  0  0
  -29.7562  -21.2959   20.3694 O   0  0  0  0  0  0  0  0  0  0  0  0
  -22.0078  -30.3111   25.4899 O   0  0  0  0  0  0  0  0  0  0  0  0
  -32.4667  -27.0270   19.9688 O   0  0  0  0  0  0  0  0  0  0  0  0
  -23.3274  -22.2361   22.4039 O   0  0  0  0  0  0  0  0  0  1  0  0
  -34.9079  -25.8725   24.7762 F   0  0  0  0  0  0  0  0  0  0  0  0
  -33.8563  -24.6634   20.3223 F   0  0  0  0  0  0  0  0  0  0  0  0
  1  2  1  0  0  0  0
  1  5  2  0  0  0  0
  2  6  2  0  0  0  0
  3  8  2  0  0  0  0
  3 17  1  0  0  0  0
  4  9  1  0  0  0  0
  4 17  2  0  0  0  0
  5 19  1  0  0  0  0
  6 21  1  0  0  0  0
  7 10  2  0  0  0  0
  7 20  1  0  0  0  0
  8 25  1  0  0  0  0
  9 25  2  0  0  0  0
 10 26  1  0  0  0  0
 11 12  2  0  0  0  0
 11 27  1  0  0  0  0
 12 28  1  0  0  0  0
 13 22  1  0  0  0  0
 13 26  2  0  0  0  0
 14 23  2  0  0  0  0
 14 31  1  0  0  0  0
 15 28  2  0  0  0  0
 15 29  1  0  0  0  0
 16 24  2  0  0  0  0
 16 65  1  0  0  0  0
 17 30  1  0  0  0  0
 18 30  1  0  0  0  0
 18 32  2  0  0  0  0
 18 33  1  0  0  0  0
 19 21  2  0  0  0  0
 19 38  1  0  0  0  0
 20 22  2  0  0  0  0
 20 39  1  0  0  0  0
 21 50  1  0  0  0  0
 22 40  1  0  0  0  0
 23 24  1  0  0  0  0
 23 49  1  0  0  0  0
 24 59  1  0  0  0  0
 25 82  1  0  0  0  0
 26 83  1  0  0  0  0
 27 29  2  0  0  0  0
 27 82  1  0  0  0  0
 28 84  1  0  0  0  0
 29 85  1  0  0  0  0
 30 66  2  0  0  0  0
 31 60  1  0  0  0  0
 31 65  2  0  0  0  0
 32 67  1  0  0  0  0
 32 70  1  0  0  0  0
 33 71  1  0  0  0  0
 33 77  2  0  0  0  0
 34 51  1  0  0  0  0
 34 72  1  0  0  0  0
 34 78  2  0  0  0  0
 35 62  1  0  0  0  0
 35 68  1  0  0  0  0
 35 79  2  0  0  0  0
 36 63  1  0  0  0  0
 36 73  1  0  0  0  0
 36 80  2  0  0  0  0
 37 69  1  0  0  0  0
 37 74  1  0  0  0  0
 37 81  2  0  0  0  0
 38 41  1  0  0  0  0
 39 51  1  0  0  0  0
 40 68  1  0  0  0  0
 41 43  1  0  0  0  0
 42 44  1  0  0  0  0
 42 45  1  0  0  0  0
 43 50  1  0  0  0  0
 44 52  1  0  0  0  0
 45 69  1  0  0  0  0
 46 52  1  0  0  0  0
 46 69  1  0  0  0  0
 47 49  1  0  0  0  0
 47 75  1  0  0  0  0
 48 49  1  0  0  0  0
 48 75  1  0  0  0  0
 50 72  1  0  0  0  0
 51 68  1  0  0  0  0
 52 67  1  0  0  0  0
 53 63  1  0  0  0  0
 54 64  1  0  0  0  0
 55 64  1  0  0  0  0
 56 64  1  0  0  0  0
 57 75  1  0  0  0  0
 58 76  1  0  0  0  0
 59 61  1  0  0  0  0
 60 83  1  0  0  0  0
 61 74  1  0  0  0  0
 62 64  1  0  0  0  0
 62 73  1  0  0  0  0
 63 76  1  0  0  0  0
 66 67  1  0  0  0  0
M  CHG  2  75   1  76   1
M  ISO  4  37 100  60 101  74 100  83 101
M  END
> <Batch ID>
0184

> <Smiles>
CNC(C)C(=O)NC(C(=O)N1Cc2cc([101O:1][101CH2:1]c3cc(C4CN(C)C4)c(CC[100NH:0][100C:0](=O)N4CCCC(n5nc(-c6ccc(Oc7ccc(F)cc7F)cc6)c(C(N)=O)c5N)C4)cn3)ccc2CC1C(=O)NC1CCCc2ccccc21)C(C)(C)C

> <Shape>
0.236

> <Color>
0.078

> <Negative vol penalty>
0.000

$$$$

  -OEChem-04052323103D

 78 86  0     1  0  0  0  0  0999 V2000
  -27.8982  -37.7337   24.1018 C   0  0  0  0  0  0  0  0  0  0  0  0
  -28.4405  -36.6390   23.4363 C   0  0  0  0  0  0  0  0  0  0  0  0
  -24.8696  -14.4150   21.9673 C   0  0  0  0  0  0  0  0  0  0  0  0
  -26.4005  -12.7738   21.0730 C   0  0  0  0  0  0  0  0  0  0  0  0
  -26.8662  -37.5482   25.0207 C   0  0  0  0  0  0  0  0  0  0  0  0
  -27.9518  -35.3579   23.6902 C   0  0  0  0  0  0  0  0  0  0  0  0
  -27.4259  -30.7570   19.6826 C   0  0  0  0  0  0  0  0  0  0  0  0
  -23.7906  -13.6305   21.5601 C   0  0  0  0  0  0  0  0  0  0  0  0
  -25.3214  -11.9892   20.6658 C   0  0  0  0  0  0  0  0  0  0  0  0
  -28.2296  -29.6496   19.4151 C   0  0  0  0  0  0  0  0  0  0  0  0
  -23.1357   -9.8353   22.0813 C   0  0  0  0  0  0  0  0  0  0  0  0
  -23.1975   -8.4662   22.3407 C   0  0  0  0  0  0  0  0  0  0  0  0
  -26.8477  -28.3043   20.8642 C   0  0  0  0  0  0  0  0  0  0  0  0
  -23.0368   -8.0105   19.9735 C   0  0  0  0  0  0  0  0  0  0  0  0
  -26.1746  -13.9867   21.7237 C   0  0  0  0  0  0  0  0  0  0  0  0
  -27.9588  -14.7465   23.3811 C   0  0  0  0  0  0  0  0  0  0  0  0
  -26.3580  -36.2653   25.2789 C   0  0  0  0  0  0  0  0  0  0  0  0
  -26.3317  -30.6487   20.5529 C   0  0  0  0  0  0  0  0  0  0  0  0
  -26.9129  -35.1549   24.6145 C   0  0  0  0  0  0  0  0  0  0  0  0
  -26.0302  -29.4111   21.1390 C   0  0  0  0  0  0  0  0  0  0  0  0
  -24.0165  -12.4176   20.9094 C   0  0  0  0  0  0  0  0  0  0  0  0
  -27.9423  -28.4237   20.0082 C   0  0  0  0  0  0  0  0  0  0  0  0
  -23.0243  -10.2921   20.7681 C   0  0  0  0  0  0  0  0  0  0  0  0
  -23.1481   -7.5538   21.2868 C   0  0  0  0  0  0  0  0  0  0  0  0
  -22.9749   -9.3797   19.7141 C   0  0  0  0  0  0  0  0  0  0  0  0
  -27.2896  -14.7970   22.1436 C   0  0  0  0  0  0  0  0  0  0  0  0
  -28.9343  -15.7084   23.2834 C   0  0  0  0  0  0  0  0  0  0  0  0
  -27.7200  -13.9053   24.5173 C   0  0  0  0  0  0  0  0  0  0  0  0
  -25.5316  -31.9790   23.3267 C   0  0  0  0  0  0  0  0  0  0  0  0
  -22.7476  -30.3861   22.8427 C   0  0  0  0  0  0  0  0  0  0  0  0
  -21.1185  -27.7890   21.3434 C   0  0  0  0  0  0  0  0  0  0  0  0
  -29.1011  -20.5692   19.6973 C   0  0  0  0  0  0  0  0  0  0  0  0
  -25.2739  -36.1090   26.3157 C   0  0  0  0  0  0  0  0  0  0  0  0
  -25.4587  -31.8463   20.8102 C   0  0  0  0  0  0  0  0  0  0  0  0
  -24.8549  -29.2374   22.0648 C   0  0  0  0  0  0  0  0  0  0  0  0
  -24.5584  -34.7621   26.2505 C   0  0  0  0  0  0  0  0  0  0  0  0
  -31.6915  -17.9424   20.0781 C   0  0  0  0  0  0  0  0  0  0  0  0
  -25.5692  -33.6259   26.1318 C   0  0  0  0  0  0  0  0  0  0  0  0
  -30.8845  -16.8170   20.7271 C   0  0  0  0  0  0  0  0  0  0  0  0
  -31.6736  -23.1868   19.9033 C   0  0  0  0  0  0  0  0  0  0  0  0
  -30.8128  -18.7850   19.1628 C   0  0  0  0  0  0  0  0  0  0  0  0
  -31.4056  -21.6907   19.7727 C   0  0  0  0  0  0  0  0  0  0  0  0
  -28.7992  -18.2476   20.4794 C   0  0  0  0  0  0  0  0  0  0  0  0
  -29.4899  -22.9127   18.9880 C   0  0  0  0  0  0  0  0  0  0  0  0
  -26.3928  -33.7525   24.8445 C   0  0  1  0  0  0  0  0  0  0  0  0
  -24.6747  -31.7449   22.1149 C   0  0  1  0  0  0  0  0  0  0  0  0
  -29.6289  -17.3656   21.4292 C   0  0  1  0  0  0  0  0  0  0  0  0
  -30.7401  -23.7618   18.8485 C   0  0  1  0  0  0  0  0  0  0  0  0
  -18.8535  -26.7230   21.1670 C   0  0  0  0  0  0  0  0  0  0  0  0
  -23.1081  -29.1670   25.6164 C   0  0  0  0  0  0  0  0  0  0  0  0
  -21.3939  -27.4470   25.0069 C   0  0  0  0  0  0  0  0  0  0  0  0
  -20.7663  -29.8603   25.0779 C   0  0  0  0  0  0  0  0  0  0  0  0
  -20.9948  -28.2625   18.4246 C   0  0  0  0  0  0  0  0  0  0  0  0
  -29.5918  -25.8411   18.0763 C   0  0  0  0  0  0  0  0  0  0  0  0
  -29.3566  -27.2855   18.4719 C   0  0  0  0  0  0  0  0  0  1  0  0
  -22.2257  -29.0140   23.1948 C   0  0  1  0  0  0  0  0  0  0  0  0
  -19.8178  -27.7319   20.5628 C   0  0  2  0  0  0  0  0  0  0  0  0
  -21.8969  -28.8755   24.7081 C   0  0  0  0  0  0  0  0  0  0  0  0
  -27.7970  -15.7181   21.3202 N   0  0  0  0  0  0  0  0  0  0  0  0
  -28.7954  -16.2555   22.0418 N   0  0  0  0  0  0  0  0  0  0  0  0
  -24.0350  -30.4394   22.2900 N   0  0  0  0  0  0  0  0  0  0  0  0
  -29.6345  -19.2876   19.8747 N   0  0  0  0  0  0  0  0  0  0  0  0
  -29.9893  -21.6025   19.4022 N   0  0  0  0  0  0  0  0  0  0  0  0
  -29.8888  -16.1313   24.1393 N   0  0  0  0  0  0  0  0  0  0  0  0
  -26.6775  -12.9710   24.4496 N   0  0  0  0  0  0  0  0  0  0  0  0
  -25.6213  -33.3050   23.7048 N   0  0  0  0  0  0  0  0  0  0  0  0
  -21.0903  -28.7701   22.3118 N   0  0  0  0  0  0  0  0  0  0  0  0
  -30.4574  -25.1843   19.1005 N   0  3  0  0  0  0  0  0  0  0  0  0
  -20.0794  -27.3430   19.1481 N   0  3  0  0  0  0  0  0  0  0  0  0
  -28.4000  -13.9913   25.5679 O   0  0  0  0  0  0  0  0  0  0  0  0
  -26.0703  -31.0268   23.8788 O   0  0  0  0  0  0  0  0  0  0  0  0
  -22.0362  -31.3736   23.0437 O   0  0  0  0  0  0  0  0  0  0  0  0
  -22.0635  -27.0359   21.1192 O   0  0  0  0  0  0  0  0  0  0  0  0
  -27.8917  -20.7900   19.8441 O   0  0  0  0  0  0  0  0  0  0  0  0
  -22.9638  -11.6517   20.5122 O   0  0  0  0  0  0  0  0  0  0  0  0
  -28.7311  -27.3336   19.7474 O   0  0  0  0  0  0  0  0  0  1  0  0
  -23.2090   -6.2391   21.5359 F   0  0  0  0  0  0  0  0  0  0  0  0
  -22.8692   -9.8125   18.4503 F   0  0  0  0  0  0  0  0  0  0  0  0
  1  2  1  0  0  0  0
  1  5  2  0  0  0  0
  2  6  2  0  0  0  0
  3  8  2  0  0  0  0
  3 15  1  0  0  0  0
  4  9  1  0  0  0  0
  4 15  2  0  0  0  0
  5 17  1  0  0  0  0
  6 19  1  0  0  0  0
  7 10  2  0  0  0  0
  7 18  1  0  0  0  0
  8 21  1  0  0  0  0
  9 21  2  0  0  0  0
 10 22  1  0  0  0  0
 11 12  2  0  0  0  0
 11 23  1  0  0  0  0
 12 24  1  0  0  0  0
 13 20  1  0  0  0  0
 13 22  2  0  0  0  0
 14 24  2  0  0  0  0
 14 25  1  0  0  0  0
 15 26  1  0  0  0  0
 16 26  1  0  0  0  0
 16 27  2  0  0  0  0
 16 28  1  0  0  0  0
 17 19  2  0  0  0  0
 17 33  1  0  0  0  0
 18 20  2  0  0  0  0
 18 34  1  0  0  0  0
 19 45  1  0  0  0  0
 20 35  1  0  0  0  0
 21 75  1  0  0  0  0
 22 76  1  0  0  0  0
 23 25  2  0  0  0  0
 23 75  1  0  0  0  0
 24 77  1  0  0  0  0
 25 78  1  0  0  0  0
 26 59  2  0  0  0  0
 27 60  1  0  0  0  0
 27 64  1  0  0  0  0
 28 65  1  0  0  0  0
 28 70  2  0  0  0  0
 29 46  1  0  0  0  0
 29 66  1  0  0  0  0
 29 71  2  0  0  0  0
 30 56  1  0  0  0  0
 30 61  1  0  0  0  0
 30 72  2  0  0  0  0
 31 57  1  0  0  0  0
 31 67  1  0  0  0  0
 31 73  2  0  0  0  0
 32 62  1  0  0  0  0
 32 63  1  0  0  0  0
 32 74  2  0  0  0  0
 33 36  1  0  0  0  0
 34 46  1  0  0  0  0
 35 61  1  0  0  0  0
 36 38  1  0  0  0  0
 37 39  1  0  0  0  0
 37 41  1  0  0  0  0
 38 45  1  0  0  0  0
 39 47  1  0  0  0  0
 40 42  1  0  0  0  0
 40 48  1  0  0  0  0
 41 62  1  0  0  0  0
 42 63  1  0  0  0  0
 43 47  1  0  0  0  0
 43 62  1  0  0  0  0
 44 48  1  0  0  0  0
 44 63  1  0  0  0  0
 45 66  1  0  0  0  0
 46 61  1  0  0  0  0
 47 60  1  0  0  0  0
 48 68  1  0  0  0  0
 49 57  1  0  0  0  0
 50 58  1  0  0  0  0
 51 58  1  0  0  0  0
 52 58  1  0  0  0  0
 53 69  1  0  0  0  0
 54 55  1  0  0  0  0
 54 68  1  0  0  0  0
 55 76  1  0  0  0  0
 56 58  1  0  0  0  0
 56 67  1  0  0  0  0
 57 69  1  0  0  0  0
 59 60  1  0  0  0  0
M  CHG  2  68   1  69   1
M  ISO  4  32 100  55 101  63 100  76 101
M  END
> <Batch ID>
0184

> <Smiles>
CNC(C)C(=O)NC(C(=O)N1Cc2cc([101O:1][101CH2:1]CNC3CC[100N:0]([100C:0](=O)N4CCCC(n5nc(-c6ccc(Oc7ccc(F)cc7F)cc6)c(C(N)=O)c5N)C4)C3)ccc2CC1C(=O)NC1CCCc2ccccc21)C(C)(C)C

> <Shape>
0.327

> <Color>
0.075

> <Negative vol penalty>
0.000

$$$$

  -OEChem-04052323103D

 85 94  0     1  0  0  0  0  0999 V2000
  -20.1967  -31.0341   21.8652 C   0  0  0  0  0  0  0  0  0  0  0  0
  -21.4674  -30.4692   21.9046 C   0  0  0  0  0  0  0  0  0  0  0  0
  -26.4328  -13.0751   21.4827 C   0  0  0  0  0  0  0  0  0  0  0  0
  -26.1352  -13.7134   19.1716 C   0  0  0  0  0  0  0  0  0  0  0  0
  -19.0720  -30.2309   22.0490 C   0  0  0  0  0  0  0  0  0  0  0  0
  -21.6142  -29.1008   22.1289 C   0  0  0  0  0  0  0  0  0  0  0  0
  -24.9781  -26.9691   19.0008 C   0  0  0  0  0  0  0  0  0  0  0  0
  -25.1776  -12.4667   21.4763 C   0  0  0  0  0  0  0  0  0  0  0  0
  -24.8801  -13.1050   19.1652 C   0  0  0  0  0  0  0  0  0  0  0  0
  -26.3281  -27.1549   19.2953 C   0  0  0  0  0  0  0  0  0  0  0  0
  -23.8191   -9.5699   20.3828 C   0  0  0  0  0  0  0  0  0  0  0  0
  -23.7092   -8.3043   20.9587 C   0  0  0  0  0  0  0  0  0  0  0  0
  -26.4088  -24.9560   20.2840 C   0  0  0  0  0  0  0  0  0  0  0  0
  -22.0948   -9.1632   22.5377 C   0  0  0  0  0  0  0  0  0  0  0  0
  -32.3214  -27.0067   23.1307 C   0  0  0  0  0  0  0  0  0  0  0  0
  -26.9116  -13.6985   20.3304 C   0  0  0  0  0  0  0  0  0  0  0  0
  -29.4426  -13.7336   20.0133 C   0  0  0  0  0  0  0  0  0  0  0  0
  -19.2046  -28.8504   22.2661 C   0  0  0  0  0  0  0  0  0  0  0  0
  -24.3295  -25.7777   19.3561 C   0  0  0  0  0  0  0  0  0  0  0  0
  -20.4902  -28.2786   22.3171 C   0  0  0  0  0  0  0  0  0  0  0  0
  -25.0511  -24.7566   19.9907 C   0  0  0  0  0  0  0  0  0  0  0  0
  -24.4013  -12.4817   20.3175 C   0  0  0  0  0  0  0  0  0  0  0  0
  -27.0430  -26.1494   19.9396 C   0  0  0  0  0  0  0  0  0  0  0  0
  -23.0669  -10.6322   20.8843 C   0  0  0  0  0  0  0  0  0  0  0  0
  -22.8470   -8.1009   22.0362 C   0  0  0  0  0  0  0  0  0  0  0  0
  -22.2047  -10.4288   21.9617 C   0  0  0  0  0  0  0  0  0  0  0  0
  -28.2078  -14.3276   20.3365 C   0  0  0  0  0  0  0  0  0  0  0  0
  -32.1118  -28.1279   22.3585 C   0  0  0  0  0  0  0  0  0  0  0  0
  -31.2050  -26.8246   20.7125 C   0  0  0  0  0  0  0  0  0  0  0  0
  -31.4154  -25.7034   21.4846 C   0  0  0  0  0  0  0  0  0  0  0  0
  -30.3610  -14.7424   20.1728 C   0  0  0  0  0  0  0  0  0  0  0  0
  -29.7333  -12.3902   19.6054 C   0  0  0  0  0  0  0  0  0  0  0  0
  -21.8994  -25.0294   21.2636 C   0  0  0  0  0  0  0  0  0  0  0  0
  -22.3268  -22.0721   20.0009 C   0  0  0  0  0  0  0  0  0  0  0  0
  -24.4213  -19.8434   18.4868 C   0  0  0  0  0  0  0  0  0  0  0  0
  -30.0978  -20.5052   19.7876 C   0  0  0  0  0  0  0  0  0  0  0  0
  -17.9617  -28.0306   22.5065 C   0  0  0  0  0  0  0  0  0  0  0  0
  -22.8794  -25.5823   19.0075 C   0  0  0  0  0  0  0  0  0  0  0  0
  -24.4064  -23.4508   20.3750 C   0  0  0  0  0  0  0  0  0  0  0  0
  -18.1868  -26.5273   22.3658 C   0  0  0  0  0  0  0  0  0  0  0  0
  -31.1362  -18.7543   22.6504 C   0  0  0  0  0  0  0  0  0  0  0  0
  -19.4481  -26.1043   23.1123 C   0  0  0  0  0  0  0  0  0  0  0  0
  -30.6186  -17.3478   22.3506 C   0  0  0  0  0  0  0  0  0  0  0  0
  -30.1374  -19.8340   22.2306 C   0  0  0  0  0  0  0  0  0  0  0  0
  -31.9966  -23.6624   20.2098 C   0  0  0  0  0  0  0  0  0  0  0  0
  -30.0222  -23.6969   21.7418 C   0  0  0  0  0  0  0  0  0  0  0  0
  -31.2870  -22.6210   19.3486 C   0  0  0  0  0  0  0  0  0  0  0  0
  -29.3432  -22.6656   20.8474 C   0  0  0  0  0  0  0  0  0  0  0  0
  -29.1808  -18.3239   20.5211 C   0  0  0  0  0  0  0  0  0  0  0  0
  -20.6893  -26.7941   22.5333 C   0  0  1  0  0  0  0  0  0  0  0  0
  -22.1922  -24.5330   19.8759 C   0  0  1  0  0  0  0  0  0  0  0  0
  -30.1879  -17.2198   20.8787 C   0  0  2  0  0  0  0  0  0  0  0  0
  -32.5053  -29.4740   22.8588 C   0  0  0  0  0  0  0  0  0  0  0  0
  -24.4967  -17.4929   17.6109 C   0  0  0  0  0  0  0  0  0  0  0  0
  -22.5140  -21.0162   22.8574 C   0  0  0  0  0  0  0  0  0  0  0  0
  -23.5147  -18.9126   21.9401 C   0  0  0  0  0  0  0  0  0  0  0  0
  -21.1971  -19.5732   21.2961 C   0  0  0  0  0  0  0  0  0  0  0  0
  -25.0108  -20.7638   15.7365 C   0  0  0  0  0  0  0  0  0  0  0  0
  -30.5827  -26.7422   19.3596 C   0  0  0  0  0  0  0  0  0  0  0  0
  -29.1109  -27.1663   19.3517 C   0  0  0  0  0  0  0  0  0  1  0  0
  -23.1591  -20.8655   20.3620 C   0  0  1  0  0  0  0  0  0  0  0  0
  -24.2361  -18.9523   17.2718 C   0  0  2  0  0  0  0  0  0  0  0  0
  -22.6082  -20.1171   21.6085 C   0  0  0  0  0  0  0  0  0  0  0  0
  -31.9771  -25.7743   22.7076 N   0  0  0  0  0  0  0  0  0  0  0  0
  -28.3275  -15.6139   20.6759 N   0  0  0  0  0  0  0  0  0  0  0  0
  -31.5497  -28.0570   21.1356 N   0  0  0  0  0  0  0  0  0  0  0  0
  -29.6484  -15.8365   20.5668 N   0  0  0  0  0  0  0  0  0  0  0  0
  -31.0348  -24.4498   20.9888 N   0  0  0  0  0  0  0  0  0  0  0  0
  -22.9849  -23.3100   20.0184 N   0  0  0  0  0  0  0  0  0  0  0  0
  -29.7253  -19.6470   20.8330 N   0  0  0  0  0  0  0  0  0  0  0  0
  -30.3187  -21.8510   20.1198 N   0  0  0  0  0  0  0  0  0  0  0  0
  -31.7006  -14.7913   20.0131 N   0  0  0  0  0  0  0  0  0  0  0  0
  -28.6720  -11.4819   19.4919 N   0  0  0  0  0  0  0  0  0  0  0  0
  -21.0954  -26.1527   21.3013 N   0  0  0  0  0  0  0  0  0  0  0  0
  -23.2337  -20.0458   19.1575 N   0  0  0  0  0  0  0  0  0  0  0  0
  -25.1724  -19.3568   16.1852 N   0  3  0  0  0  0  0  0  0  0  0  0
  -30.9017  -12.0023   19.3649 O   0  0  0  0  0  0  0  0  0  0  0  0
  -22.3668  -24.4363   22.2286 O   0  0  0  0  0  0  0  0  0  0  0  0
  -21.1383  -21.9210   19.7069 O   0  0  0  0  0  0  0  0  0  0  0  0
  -25.5112  -20.3099   18.8108 O   0  0  0  0  0  0  0  0  0  0  0  0
  -30.2288  -20.0954   18.6275 O   0  0  0  0  0  0  0  0  0  0  0  0
  -23.1765  -11.8879   20.3108 O   0  0  0  0  0  0  0  0  0  0  0  0
  -28.3699  -26.3296   20.2307 O   0  0  0  0  0  0  0  0  0  1  0  0
  -22.7404   -6.8852   22.5882 F   0  0  0  0  0  0  0  0  0  0  0  0
  -21.4786  -11.4451   22.4471 F   0  0  0  0  0  0  0  0  0  0  0  0
  1  2  1  0  0  0  0
  1  5  2  0  0  0  0
  2  6  2  0  0  0  0
  3  8  2  0  0  0  0
  3 16  1  0  0  0  0
  4  9  1  0  0  0  0
  4 16  2  0  0  0  0
  5 18  1  0  0  0  0
  6 20  1  0  0  0  0
  7 10  2  0  0  0  0
  7 19  1  0  0  0  0
  8 22  1  0  0  0  0
  9 22  2  0  0  0  0
 10 23  1  0  0  0  0
 11 12  2  0  0  0  0
 11 24  1  0  0  0  0
 12 25  1  0  0  0  0
 13 21  1  0  0  0  0
 13 23  2  0  0  0  0
 14 25  2  0  0  0  0
 14 26  1  0  0  0  0
 15 28  1  0  0  0  0
 15 64  2  0  0  0  0
 16 27  1  0  0  0  0
 17 27  1  0  0  0  0
 17 31  2  0  0  0  0
 17 32  1  0  0  0  0
 18 20  2  0  0  0  0
 18 37  1  0  0  0  0
 19 21  2  0  0  0  0
 19 38  1  0  0  0  0
 20 50  1  0  0  0  0
 21 39  1  0  0  0  0
 22 82  1  0  0  0  0
 23 83  1  0  0  0  0
 24 26  2  0  0  0  0
 24 82  1  0  0  0  0
 25 84  1  0  0  0  0
 26 85  1  0  0  0  0
 27 65  2  0  0  0  0
 28 53  1  0  0  0  0
 28 66  2  0  0  0  0
 29 30  2  0  0  0  0
 29 59  1  0  0  0  0
 29 66  1  0  0  0  0
 30 64  1  0  0  0  0
 30 68  1  0  0  0  0
 31 67  1  0  0  0  0
 31 72  1  0  0  0  0
 32 73  1  0  0  0  0
 32 77  2  0  0  0  0
 33 51  1  0  0  0  0
 33 74  1  0  0  0  0
 33 78  2  0  0  0  0
 34 61  1  0  0  0  0
 34 69  1  0  0  0  0
 34 79  2  0  0  0  0
 35 62  1  0  0  0  0
 35 75  1  0  0  0  0
 35 80  2  0  0  0  0
 36 70  1  0  0  0  0
 36 71  1  0  0  0  0
 36 81  2  0  0  0  0
 37 40  1  0  0  0  0
 38 51  1  0  0  0  0
 39 69  1  0  0  0  0
 40 42  1  0  0  0  0
 41 43  1  0  0  0  0
 41 44  1  0  0  0  0
 42 50  1  0  0  0  0
 43 52  1  0  0  0  0
 44 70  1  0  0  0  0
 45 47  1  0  0  0  0
 45 68  1  0  0  0  0
 46 48  1  0  0  0  0
 46 68  1  0  0  0  0
 47 71  1  0  0  0  0
 48 71  1  0  0  0  0
 49 52  1  0  0  0  0
 49 70  1  0  0  0  0
 50 74  1  0  0  0  0
 51 69  1  0  0  0  0
 52 67  1  0  0  0  0
 54 62  1  0  0  0  0
 55 63  1  0  0  0  0
 56 63  1  0  0  0  0
 57 63  1  0  0  0  0
 58 76  1  0  0  0  0
 59 60  1  0  0  0  0
 60 83  1  0  0  0  0
 61 63  1  0  0  0  0
 61 75  1  0  0  0  0
 62 76  1  0  0  0  0
 65 67  1  0  0  0  0
M  CHG  1  76   1
M  ISO  4  36 100  60 101  71 100  83 101
M  END
> <Batch ID>
0184

> <Smiles>
CNC(C)C(=O)NC(C(=O)N1Cc2cc([101O:1][101CH2:1]Cc3nc(C)cnc3N3CC[100N:0]([100C:0](=O)N4CCCC(n5nc(-c6ccc(Oc7ccc(F)cc7F)cc6)c(C(N)=O)c5N)C4)CC3)ccc2CC1C(=O)NC1CCCc2ccccc21)C(C)(C)C

> <Shape>
0.265

> <Color>
0.084

> <Negative vol penalty>
0.000

$$$$

  -OEChem-04052323103D

 84 93  0     1  0  0  0  0  0999 V2000
  -18.9382  -33.6649   21.7018 C   0  0  0  0  0  0  0  0  0  0  0  0
  -20.2031  -33.3900   21.1920 C   0  0  0  0  0  0  0  0  0  0  0  0
  -22.5138  -13.3661   20.5954 C   0  0  0  0  0  0  0  0  0  0  0  0
  -24.4520  -11.9363   20.7852 C   0  0  0  0  0  0  0  0  0  0  0  0
  -18.4668  -32.9624   22.8100 C   0  0  0  0  0  0  0  0  0  0  0  0
  -20.9978  -32.4131   21.7907 C   0  0  0  0  0  0  0  0  0  0  0  0
  -24.9105  -28.6246   18.9901 C   0  0  0  0  0  0  0  0  0  0  0  0
  -30.8578  -23.2597   19.7020 C   0  0  0  0  0  0  0  0  0  0  0  0
  -21.7162  -12.2509   20.3391 C   0  0  0  0  0  0  0  0  0  0  0  0
  -23.6543  -10.8210   20.5290 C   0  0  0  0  0  0  0  0  0  0  0  0
  -26.2935  -28.6637   18.8183 C   0  0  0  0  0  0  0  0  0  0  0  0
  -21.4887   -8.8650   22.2333 C   0  0  0  0  0  0  0  0  0  0  0  0
  -21.6695   -7.7416   23.0401 C   0  0  0  0  0  0  0  0  0  0  0  0
  -31.0110  -21.8793   19.8121 C   0  0  0  0  0  0  0  0  0  0  0  0
  -26.5667  -27.2321   20.7406 C   0  0  0  0  0  0  0  0  0  0  0  0
  -22.2479   -6.4353   21.0917 C   0  0  0  0  0  0  0  0  0  0  0  0
  -23.8818  -13.2088   20.8184 C   0  0  0  0  0  0  0  0  0  0  0  0
  -25.0004  -14.9255   22.3380 C   0  0  0  0  0  0  0  0  0  0  0  0
  -19.2523  -31.9696   23.4168 C   0  0  0  0  0  0  0  0  0  0  0  0
  -24.3448  -27.8966   20.0467 C   0  0  0  0  0  0  0  0  0  0  0  0
  -20.5369  -31.6976   22.9089 C   0  0  0  0  0  0  0  0  0  0  0  0
  -31.4629  -23.8962   18.6367 C   0  0  0  0  0  0  0  0  0  0  0  0
  -25.1761  -27.1832   20.9221 C   0  0  0  0  0  0  0  0  0  0  0  0
  -22.2864  -10.9784   20.3059 C   0  0  0  0  0  0  0  0  0  0  0  0
  -27.1220  -27.9698   19.6953 C   0  0  0  0  0  0  0  0  0  0  0  0
  -21.6874   -8.7736   20.8556 C   0  0  0  0  0  0  0  0  0  0  0  0
  -22.0491   -6.5268   22.4693 C   0  0  0  0  0  0  0  0  0  0  0  0
  -22.0670   -7.5587   20.2848 C   0  0  0  0  0  0  0  0  0  0  0  0
  -24.7063  -14.3605   21.0826 C   0  0  0  0  0  0  0  0  0  0  0  0
  -32.2085  -23.1405   17.7356 C   0  0  0  0  0  0  0  0  0  0  0  0
  -31.7740  -21.2119   18.8538 C   0  0  0  0  0  0  0  0  0  0  0  0
  -25.8166  -15.9924   22.0517 C   0  0  0  0  0  0  0  0  0  0  0  0
  -24.5740  -14.5219   23.6461 C   0  0  0  0  0  0  0  0  0  0  0  0
  -22.5723  -28.6312   22.5809 C   0  0  0  0  0  0  0  0  0  0  0  0
  -22.4604  -25.4103   22.9493 C   0  0  0  0  0  0  0  0  0  0  0  0
  -23.8937  -22.3732   22.3423 C   0  0  0  0  0  0  0  0  0  0  0  0
  -30.1121  -18.1217   19.4132 C   0  0  0  0  0  0  0  0  0  0  0  0
  -18.7188  -31.2697   24.6416 C   0  0  0  0  0  0  0  0  0  0  0  0
  -22.8498  -27.8427   20.2025 C   0  0  0  0  0  0  0  0  0  0  0  0
  -24.6176  -26.3702   22.0602 C   0  0  0  0  0  0  0  0  0  0  0  0
  -32.8260  -24.0209   16.6848 C   0  0  0  0  0  0  0  0  0  0  0  0
  -19.4734  -29.9888   24.9883 C   0  0  0  0  0  0  0  0  0  0  0  0
  -31.9445  -25.2748   16.8041 C   0  0  0  0  0  0  0  0  0  0  0  0
  -26.9619  -18.1715   17.6324 C   0  0  0  0  0  0  0  0  0  0  0  0
  -20.9794  -30.2235   24.9281 C   0  0  0  0  0  0  0  0  0  0  0  0
  -26.1159  -17.2235   18.4842 C   0  0  0  0  0  0  0  0  0  0  0  0
  -28.4076  -17.6920   17.5417 C   0  0  0  0  0  0  0  0  0  0  0  0
  -28.2285  -16.5390   19.7124 C   0  0  0  0  0  0  0  0  0  0  0  0
  -21.4188  -30.6278   23.5157 C   0  0  1  0  0  0  0  0  0  0  0  0
  -31.5098  -25.3448   18.2797 C   0  0  1  0  0  0  0  0  0  0  0  0
  -22.4090  -27.4883   21.6193 C   0  0  1  0  0  0  0  0  0  0  0  0
  -26.7613  -16.9810   19.8615 C   0  0  2  0  0  0  0  0  0  0  0  0
  -23.5917  -19.9250   22.8032 C   0  0  0  0  0  0  0  0  0  0  0  0
  -23.4524  -25.8279   25.8044 C   0  0  0  0  0  0  0  0  0  0  0  0
  -24.0303  -23.3932   25.8855 C   0  0  0  0  0  0  0  0  0  0  0  0
  -21.6597  -24.1006   25.5650 C   0  0  0  0  0  0  0  0  0  0  0  0
  -23.6671  -21.7401   19.4601 C   0  0  0  0  0  0  0  0  0  0  0  0
  -31.9456  -19.7330   18.9670 C   0  0  0  0  0  0  0  0  0  0  0  0
  -30.3325  -27.5309   18.0826 C   0  0  0  0  0  0  0  0  0  0  0  0
  -28.9598  -28.1637   18.1984 C   0  0  0  0  0  0  0  0  0  1  0  0
  -23.3058  -24.3864   23.6675 C   0  0  1  0  0  0  0  0  0  0  0  0
  -23.3089  -21.0661   21.8384 C   0  0  2  0  0  0  0  0  0  0  0  0
  -23.1230  -24.4438   25.2104 C   0  0  0  0  0  0  0  0  0  0  0  0
  -25.2882  -15.0145   20.0738 N   0  0  0  0  0  0  0  0  0  0  0  0
  -32.3905  -21.8116   17.8073 N   0  0  0  0  0  0  0  0  0  0  0  0
  -25.9561  -16.0015   20.6950 N   0  0  0  0  0  0  0  0  0  0  0  0
  -23.1499  -26.3538   22.1746 N   0  0  0  0  0  0  0  0  0  0  0  0
  -28.9688  -17.4983   18.8861 N   0  0  0  0  0  0  0  0  0  0  0  0
  -26.4214  -16.9143   22.8306 N   0  0  0  0  0  0  0  0  0  0  0  0
  -23.7369  -13.4036   23.7605 N   0  0  0  0  0  0  0  0  0  0  0  0
  -21.4747  -29.4677   22.6523 N   0  0  0  0  0  0  0  0  0  0  0  0
  -22.9749  -23.0953   23.0742 N   0  0  0  0  0  0  0  0  0  0  0  0
  -30.7593  -19.0110   18.5640 N   0  0  0  0  0  0  0  0  0  0  0  0
  -30.2313  -26.0816   18.3885 N   0  3  0  0  0  0  0  0  0  0  0  0
  -23.8911  -20.7153   20.5121 N   0  3  0  0  0  0  0  0  0  0  0  0
  -24.9116  -15.1445   24.6814 O   0  0  0  0  0  0  0  0  0  0  0  0
  -23.6163  -28.7449   23.2126 O   0  0  0  0  0  0  0  0  0  0  0  0
  -21.2330  -25.3700   23.0655 O   0  0  0  0  0  0  0  0  0  0  0  0
  -25.0510  -22.7175   22.1129 O   0  0  0  0  0  0  0  0  0  0  0  0
  -30.5230  -17.9059   20.5585 O   0  0  0  0  0  0  0  0  0  0  0  0
  -21.5083   -9.8899   20.0561 O   0  0  0  0  0  0  0  0  0  0  0  0
  -28.4723  -28.0068   19.5303 O   0  0  0  0  0  0  0  0  0  1  0  0
  -22.2242   -5.4485   23.2444 F   0  0  0  0  0  0  0  0  0  0  0  0
  -22.2605   -7.4650   18.9621 F   0  0  0  0  0  0  0  0  0  0  0  0
  1  2  1  0  0  0  0
  1  5  2  0  0  0  0
  2  6  2  0  0  0  0
  3  9  2  0  0  0  0
  3 17  1  0  0  0  0
  4 10  1  0  0  0  0
  4 17  2  0  0  0  0
  5 19  1  0  0  0  0
  6 21  1  0  0  0  0
  7 11  2  0  0  0  0
  7 20  1  0  0  0  0
  8 14  2  0  0  0  0
  8 22  1  0  0  0  0
  9 24  1  0  0  0  0
 10 24  2  0  0  0  0
 11 25  1  0  0  0  0
 12 13  2  0  0  0  0
 12 26  1  0  0  0  0
 13 27  1  0  0  0  0
 14 31  1  0  0  0  0
 15 23  1  0  0  0  0
 15 25  2  0  0  0  0
 16 27  2  0  0  0  0
 16 28  1  0  0  0  0
 17 29  1  0  0  0  0
 18 29  1  0  0  0  0
 18 32  2  0  0  0  0
 18 33  1  0  0  0  0
 19 21  2  0  0  0  0
 19 38  1  0  0  0  0
 20 23  2  0  0  0  0
 20 39  1  0  0  0  0
 21 49  1  0  0  0  0
 22 30  2  0  0  0  0
 22 50  1  0  0  0  0
 23 40  1  0  0  0  0
 24 81  1  0  0  0  0
 25 82  1  0  0  0  0
 26 28  2  0  0  0  0
 26 81  1  0  0  0  0
 27 83  1  0  0  0  0
 28 84  1  0  0  0  0
 29 64  2  0  0  0  0
 30 41  1  0  0  0  0
 30 65  1  0  0  0  0
 31 58  1  0  0  0  0
 31 65  2  0  0  0  0
 32 66  1  0  0  0  0
 32 69  1  0  0  0  0
 33 70  1  0  0  0  0
 33 76  2  0  0  0  0
 34 51  1  0  0  0  0
 34 71  1  0  0  0  0
 34 77  2  0  0  0  0
 35 61  1  0  0  0  0
 35 67  1  0  0  0  0
 35 78  2  0  0  0  0
 36 62  1  0  0  0  0
 36 72  1  0  0  0  0
 36 79  2  0  0  0  0
 37 68  1  0  0  0  0
 37 73  1  0  0  0  0
 37 80  2  0  0  0  0
 38 42  1  0  0  0  0
 39 51  1  0  0  0  0
 40 67  1  0  0  0  0
 41 43  1  0  0  0  0
 42 45  1  0  0  0  0
 43 50  1  0  0  0  0
 44 46  1  0  0  0  0
 44 47  1  0  0  0  0
 45 49  1  0  0  0  0
 46 52  1  0  0  0  0
 47 68  1  0  0  0  0
 48 52  1  0  0  0  0
 48 68  1  0  0  0  0
 49 71  1  0  0  0  0
 50 74  1  0  0  0  0
 51 67  1  0  0  0  0
 52 66  1  0  0  0  0
 53 62  1  0  0  0  0
 54 63  1  0  0  0  0
 55 63  1  0  0  0  0
 56 63  1  0  0  0  0
 57 75  1  0  0  0  0
 58 73  1  0  0  0  0
 59 60  1  0  0  0  0
 59 74  1  0  0  0  0
 60 82  1  0  0  0  0
 61 63  1  0  0  0  0
 61 72  1  0  0  0  0
 62 75  1  0  0  0  0
 64 66  1  0  0  0  0
M  CHG  2  74   1  75   1
M  ISO  4  37 100  60 101  73 100  82 101
M  END
> <Batch ID>
0184

> <Smiles>
CNC(C)C(=O)NC(C(=O)N1Cc2cc([101O:1][101CH2:1]CNC3CCc4nc(C[100NH:0][100C:0](=O)N5CCCC(n6nc(-c7ccc(Oc8ccc(F)cc8F)cc7)c(C(N)=O)c6N)C5)ccc43)ccc2CC1C(=O)NC1CCCc2ccccc21)C(C)(C)C

> <Shape>
0.204

> <Color>
0.080

> <Negative vol penalty>
0.000

$$$$

  -OEChem-04052323103D

 83 92  0     1  0  0  0  0  0999 V2000
  -24.1141  -30.6994   21.7573 C   0  0  0  0  0  0  0  0  0  0  0  0
  -23.4130  -29.5362   22.0585 C   0  0  0  0  0  0  0  0  0  0  0  0
  -28.7693  -12.1886   20.9063 C   0  0  0  0  0  0  0  0  0  0  0  0
  -28.1768  -13.4079   18.9064 C   0  0  0  0  0  0  0  0  0  0  0  0
  -25.2511  -30.6381   20.9527 C   0  0  0  0  0  0  0  0  0  0  0  0
  -23.8480  -28.3110   21.5544 C   0  0  0  0  0  0  0  0  0  0  0  0
  -23.5019  -22.8591   24.3227 C   0  0  0  0  0  0  0  0  0  0  0  0
  -30.0967  -12.1363   20.4811 C   0  0  0  0  0  0  0  0  0  0  0  0
  -29.5043  -13.3556   18.4812 C   0  0  0  0  0  0  0  0  0  0  0  0
  -22.5980  -21.8040   24.2068 C   0  0  0  0  0  0  0  0  0  0  0  0
  -32.8044  -13.8574   17.0406 C   0  0  0  0  0  0  0  0  0  0  0  0
  -33.3693  -15.0262   16.5302 C   0  0  0  0  0  0  0  0  0  0  0  0
  -24.0797  -20.7140   22.6461 C   0  0  0  0  0  0  0  0  0  0  0  0
  -32.9641  -16.1410   18.6350 C   0  0  0  0  0  0  0  0  0  0  0  0
  -21.0610  -16.8813   21.1950 C   0  0  0  0  0  0  0  0  0  0  0  0
  -27.8093  -12.8244   20.1189 C   0  0  0  0  0  0  0  0  0  0  0  0
  -25.8357  -13.8779   21.3448 C   0  0  0  0  0  0  0  0  0  0  0  0
  -25.7058  -29.4103   20.4464 C   0  0  0  0  0  0  0  0  0  0  0  0
  -24.6986  -22.8548   23.5916 C   0  0  0  0  0  0  0  0  0  0  0  0
  -24.9914  -28.2334   20.7412 C   0  0  0  0  0  0  0  0  0  0  0  0
  -24.9983  -21.7690   22.7565 C   0  0  0  0  0  0  0  0  0  0  0  0
  -30.4642  -12.7197   19.2686 C   0  0  0  0  0  0  0  0  0  0  0  0
  -22.8855  -20.7326   23.3662 C   0  0  0  0  0  0  0  0  0  0  0  0
  -32.3193  -13.8304   18.3481 C   0  0  0  0  0  0  0  0  0  0  0  0
  -33.4492  -16.1680   17.3274 C   0  0  0  0  0  0  0  0  0  0  0  0
  -32.3992  -14.9722   19.1453 C   0  0  0  0  0  0  0  0  0  0  0  0
  -26.4378  -12.8783   20.5572 C   0  0  0  0  0  0  0  0  0  0  0  0
  -20.0303  -15.9656   21.2544 C   0  0  0  0  0  0  0  0  0  0  0  0
  -21.2684  -17.6220   22.3406 C   0  0  0  0  0  0  0  0  0  0  0  0
  -24.5316  -13.4689   21.4807 C   0  0  0  0  0  0  0  0  0  0  0  0
  -19.5573  -16.5615   23.3965 C   0  0  0  0  0  0  0  0  0  0  0  0
  -26.4044  -15.0696   21.9034 C   0  0  0  0  0  0  0  0  0  0  0  0
  -25.9670  -24.7226   21.3542 C   0  0  0  0  0  0  0  0  0  0  0  0
  -28.5450  -22.7958   21.7588 C   0  0  0  0  0  0  0  0  0  0  0  0
  -29.7733  -19.7697   22.7491 C   0  0  0  0  0  0  0  0  0  0  0  0
  -19.9123  -11.5190   18.9522 C   0  0  0  0  0  0  0  0  0  0  0  0
  -26.9128  -29.4002   19.5422 C   0  0  0  0  0  0  0  0  0  0  0  0
  -25.6754  -23.9878   23.7481 C   0  0  0  0  0  0  0  0  0  0  0  0
  -26.2786  -21.7067   21.9656 C   0  0  0  0  0  0  0  0  0  0  0  0
  -27.5225  -28.0132   19.3556 C   0  0  0  0  0  0  0  0  0  0  0  0
  -22.2929   -9.0801   20.3234 C   0  0  0  0  0  0  0  0  0  0  0  0
  -26.4331  -26.9859   19.0646 C   0  0  0  0  0  0  0  0  0  0  0  0
  -23.5511   -9.9285   20.5248 C   0  0  0  0  0  0  0  0  0  0  0  0
  -18.2766  -14.6286   19.8815 C   0  0  0  0  0  0  0  0  0  0  0  0
  -21.4377   -9.5869   19.1635 C   0  0  0  0  0  0  0  0  0  0  0  0
  -18.3957  -13.4836   18.8884 C   0  0  0  0  0  0  0  0  0  0  0  0
  -20.5001  -13.7776   19.9995 C   0  0  0  0  0  0  0  0  0  0  0  0
  -22.3648  -11.8548   19.4168 C   0  0  0  0  0  0  0  0  0  0  0  0
  -25.4461  -26.8822   20.2336 C   0  0  1  0  0  0  0  0  0  0  0  0
  -19.7262  -15.1057   20.0470 C   0  0  2  0  0  0  0  0  0  0  0  0
  -26.6273  -24.1239   22.5638 C   0  0  1  0  0  0  0  0  0  0  0  0
  -23.2035  -11.4265   20.6282 C   0  0  2  0  0  0  0  0  0  0  0  0
  -18.7250  -16.3818   24.6207 C   0  0  0  0  0  0  0  0  0  0  0  0
  -31.9163  -18.4760   22.9266 C   0  0  0  0  0  0  0  0  0  0  0  0
  -28.5006  -22.3138   18.7462 C   0  0  0  0  0  0  0  0  0  0  0  0
  -29.9958  -20.3389   19.1104 C   0  0  0  0  0  0  0  0  0  0  0  0
  -30.7832  -22.6262   19.7192 C   0  0  0  0  0  0  0  0  0  0  0  0
  -29.5146  -19.5198   25.6868 C   0  0  0  0  0  0  0  0  0  0  0  0
  -22.3621  -18.6365   22.3721 C   0  0  0  0  0  0  0  0  0  1  0  0
  -29.0206  -21.5028   21.1416 C   0  0  1  0  0  0  0  0  0  0  0  0
  -30.9443  -19.4013   23.6421 C   0  0  2  0  0  0  0  0  0  0  0  0
  -29.5500  -21.6972   19.6926 C   0  0  0  0  0  0  0  0  0  0  0  0
  -25.5862  -11.9073   20.2169 N   0  0  0  0  0  0  0  0  0  0  0  0
  -19.2555  -15.7788   22.3430 N   0  0  0  0  0  0  0  0  0  0  0  0
  -20.5326  -17.4877   23.4636 N   0  0  0  0  0  0  0  0  0  0  0  0
  -24.4357  -12.2947   20.7934 N   0  0  0  0  0  0  0  0  0  0  0  0
  -27.1987  -22.8415   22.1476 N   0  0  0  0  0  0  0  0  0  0  0  0
  -21.1682  -11.0162   19.3053 N   0  0  0  0  0  0  0  0  0  0  0  0
  -19.6926  -12.8820   19.1670 N   0  0  0  0  0  0  0  0  0  0  0  0
  -23.4691  -14.0025   22.1200 N   0  0  0  0  0  0  0  0  0  0  0  0
  -27.7595  -15.3379   21.6664 N   0  0  0  0  0  0  0  0  0  0  0  0
  -26.0183  -26.1028   21.3105 N   0  0  0  0  0  0  0  0  0  0  0  0
  -30.0018  -20.9457   22.0664 N   0  0  0  0  0  0  0  0  0  0  0  0
  -30.4610  -18.7141   24.8730 N   0  3  0  0  0  0  0  0  0  0  0  0
  -25.7349  -15.8644   22.6060 O   0  0  0  0  0  0  0  0  0  0  0  0
  -25.4506  -23.9867   20.5214 O   0  0  0  0  0  0  0  0  0  0  0  0
  -29.3405  -23.7283   21.8975 O   0  0  0  0  0  0  0  0  0  0  0  0
  -28.7590  -19.0810   22.6628 O   0  0  0  0  0  0  0  0  0  0  0  0
  -19.0212  -10.7768   18.5208 O   0  0  0  0  0  0  0  0  0  0  0  0
  -31.7595  -12.6691   18.8536 O   0  0  0  0  0  0  0  0  0  0  0  0
  -21.9985  -19.6945   23.2499 O   0  0  0  0  0  0  0  0  0  1  0  0
  -33.9930  -17.2898   16.8377 F   0  0  0  0  0  0  0  0  0  0  0  0
  -31.9360  -14.9520   20.4026 F   0  0  0  0  0  0  0  0  0  0  0  0
  1  2  1  0  0  0  0
  1  5  2  0  0  0  0
  2  6  2  0  0  0  0
  3  8  2  0  0  0  0
  3 16  1  0  0  0  0
  4  9  1  0  0  0  0
  4 16  2  0  0  0  0
  5 18  1  0  0  0  0
  6 20  1  0  0  0  0
  7 10  2  0  0  0  0
  7 19  1  0  0  0  0
  8 22  1  0  0  0  0
  9 22  2  0  0  0  0
 10 23  1  0  0  0  0
 11 12  2  0  0  0  0
 11 24  1  0  0  0  0
 12 25  1  0  0  0  0
 13 21  1  0  0  0  0
 13 23  2  0  0  0  0
 14 25  2  0  0  0  0
 14 26  1  0  0  0  0
 15 28  2  0  0  0  0
 15 29  1  0  0  0  0
 16 27  1  0  0  0  0
 17 27  1  0  0  0  0
 17 30  2  0  0  0  0
 17 32  1  0  0  0  0
 18 20  2  0  0  0  0
 18 37  1  0  0  0  0
 19 21  2  0  0  0  0
 19 38  1  0  0  0  0
 20 49  1  0  0  0  0
 21 39  1  0  0  0  0
 22 80  1  0  0  0  0
 23 81  1  0  0  0  0
 24 26  2  0  0  0  0
 24 80  1  0  0  0  0
 25 82  1  0  0  0  0
 26 83  1  0  0  0  0
 27 63  2  0  0  0  0
 28 50  1  0  0  0  0
 28 64  1  0  0  0  0
 29 59  1  0  0  0  0
 29 65  2  0  0  0  0
 30 66  1  0  0  0  0
 30 70  1  0  0  0  0
 31 53  1  0  0  0  0
 31 64  2  0  0  0  0
 31 65  1  0  0  0  0
 32 71  1  0  0  0  0
 32 75  2  0  0  0  0
 33 51  1  0  0  0  0
 33 72  1  0  0  0  0
 33 76  2  0  0  0  0
 34 60  1  0  0  0  0
 34 67  1  0  0  0  0
 34 77  2  0  0  0  0
 35 61  1  0  0  0  0
 35 73  1  0  0  0  0
 35 78  2  0  0  0  0
 36 68  1  0  0  0  0
 36 69  1  0  0  0  0
 36 79  2  0  0  0  0
 37 40  1  0  0  0  0
 38 51  1  0  0  0  0
 39 67  1  0  0  0  0
 40 42  1  0  0  0  0
 41 43  1  0  0  0  0
 41 45  1  0  0  0  0
 42 49  1  0  0  0  0
 43 52  1  0  0  0  0
 44 46  1  0  0  0  0
 44 50  1  0  0  0  0
 45 68  1  0  0  0  0
 46 69  1  0  0  0  0
 47 50  1  0  0  0  0
 47 69  1  0  0  0  0
 48 52  1  0  0  0  0
 48 68  1  0  0  0  0
 49 72  1  0  0  0  0
 51 67  1  0  0  0  0
 52 66  1  0  0  0  0
 54 61  1  0  0  0  0
 55 62  1  0  0  0  0
 56 62  1  0  0  0  0
 57 62  1  0  0  0  0
 58 74  1  0  0  0  0
 59 81  1  0  0  0  0
 60 62  1  0  0  0  0
 60 73  1  0  0  0  0
 61 74  1  0  0  0  0
 63 66  1  0  0  0  0
M  CHG  1  74   1
M  ISO  4  36 100  59 101  69 100  81 101
M  END
> <Batch ID>
0184

> <Smiles>
CNC(C)C(=O)NC(C(=O)N1Cc2cc([101O:1][101CH2:1]c3cc(C4CC[100N:0]([100C:0](=O)N5CCCC(n6nc(-c7ccc(Oc8ccc(F)cc8F)cc7)c(C(N)=O)c6N)C5)C4)nc(C)n3)ccc2CC1C(=O)NC1CCCc2ccccc21)C(C)(C)C

> <Shape>
0.188

> <Color>
0.082

> <Negative vol penalty>
0.000

$$$$

  -OEChem-04052323103D

 82 91  0     1  0  0  0  0  0999 V2000
  -20.1215  -20.6732   23.7879 C   0  0  0  0  0  0  0  0  0  0  0  0
  -21.3111  -21.1942   23.2891 C   0  0  0  0  0  0  0  0  0  0  0  0
  -23.2558  -16.0503   20.4873 C   0  0  0  0  0  0  0  0  0  0  0  0
  -22.5977  -14.3362   18.9170 C   0  0  0  0  0  0  0  0  0  0  0  0
  -18.9284  -21.3737   23.6152 C   0  0  0  0  0  0  0  0  0  0  0  0
  -21.3081  -22.4155   22.6163 C   0  0  0  0  0  0  0  0  0  0  0  0
  -25.0943  -25.4460   24.0745 C   0  0  0  0  0  0  0  0  0  0  0  0
  -22.2544  -16.8866   19.9942 C   0  0  0  0  0  0  0  0  0  0  0  0
  -21.5962  -15.1726   18.4238 C   0  0  0  0  0  0  0  0  0  0  0  0
  -26.3615  -25.1741   23.5605 C   0  0  0  0  0  0  0  0  0  0  0  0
  -21.7804  -18.8930   17.3157 C   0  0  0  0  0  0  0  0  0  0  0  0
  -22.1135  -20.2243   17.0660 C   0  0  0  0  0  0  0  0  0  0  0  0
  -26.0728  -26.9328   21.9348 C   0  0  0  0  0  0  0  0  0  0  0  0
  -20.4382  -20.9410   18.6525 C   0  0  0  0  0  0  0  0  0  0  0  0
  -23.4275  -14.7751   19.9487 C   0  0  0  0  0  0  0  0  0  0  0  0
  -24.3542  -12.9854   21.5126 C   0  0  0  0  0  0  0  0  0  0  0  0
  -18.9123  -22.6089   22.9484 C   0  0  0  0  0  0  0  0  0  0  0  0
  -24.3011  -26.4577   23.5145 C   0  0  0  0  0  0  0  0  0  0  0  0
  -20.1135  -23.1326   22.4333 C   0  0  0  0  0  0  0  0  0  0  0  0
  -24.7969  -27.2172   22.4452 C   0  0  0  0  0  0  0  0  0  0  0  0
  -21.4245  -16.4478   18.9624 C   0  0  0  0  0  0  0  0  0  0  0  0
  -26.8497  -25.9156   22.4887 C   0  0  0  0  0  0  0  0  0  0  0  0
  -20.7761  -18.5857   18.2337 C   0  0  0  0  0  0  0  0  0  0  0  0
  -21.4424  -21.2483   17.7344 C   0  0  0  0  0  0  0  0  0  0  0  0
  -20.1051  -19.6097   18.9021 C   0  0  0  0  0  0  0  0  0  0  0  0
  -24.4622  -13.9109   20.4574 C   0  0  0  0  0  0  0  0  0  0  0  0
  -25.6032  -12.4212   21.6036 C   0  0  0  0  0  0  0  0  0  0  0  0
  -23.2258  -12.6642   22.3367 C   0  0  0  0  0  0  0  0  0  0  0  0
  -21.4755  -26.5472   22.0615 C   0  0  0  0  0  0  0  0  0  0  0  0
  -21.9456  -29.7540   22.1939 C   0  0  0  0  0  0  0  0  0  0  0  0
  -24.1465  -32.3528   22.4167 C   0  0  0  0  0  0  0  0  0  0  0  0
  -31.0423  -14.4721   19.8793 C   0  0  0  0  0  0  0  0  0  0  0  0
  -17.5909  -23.3067   22.7446 C   0  0  0  0  0  0  0  0  0  0  0  0
  -22.9472  -26.7564   24.0977 C   0  0  0  0  0  0  0  0  0  0  0  0
  -23.9931  -28.3277   21.8213 C   0  0  0  0  0  0  0  0  0  0  0  0
  -17.7317  -24.7741   22.3481 C   0  0  0  0  0  0  0  0  0  0  0  0
  -29.4513  -11.3690   19.0014 C   0  0  0  0  0  0  0  0  0  0  0  0
  -18.7730  -24.9313   21.2445 C   0  0  0  0  0  0  0  0  0  0  0  0
  -27.9764  -11.5999   19.3138 C   0  0  0  0  0  0  0  0  0  0  0  0
  -31.1076  -22.2735   20.5584 C   0  0  0  0  0  0  0  0  0  0  0  0
  -30.1084  -12.6492   18.5034 C   0  0  0  0  0  0  0  0  0  0  0  0
  -28.5274  -14.0330   19.8229 C   0  0  0  0  0  0  0  0  0  0  0  0
  -31.9179  -16.7557   20.6022 C   0  0  0  0  0  0  0  0  0  0  0  0
  -29.9575  -16.8510   19.7806 C   0  0  0  0  0  0  0  0  0  0  0  0
  -20.1549  -24.4664   21.7196 C   0  0  1  0  0  0  0  0  0  0  0  0
  -22.0183  -27.4671   23.1182 C   0  0  1  0  0  0  0  0  0  0  0  0
  -29.9942  -21.2651   20.4585 C   0  0  1  0  0  0  0  0  0  0  0  0
  -27.8135  -12.7564   20.3105 C   0  0  1  0  0  0  0  0  0  0  0  0
  -29.8946  -22.5731   19.7199 C   0  0  1  0  0  0  0  0  0  0  0  0
  -31.1447  -17.8256   19.8204 C   0  0  0  0  0  0  0  0  0  0  0  0
  -24.2356  -34.8602   22.4633 C   0  0  0  0  0  0  0  0  0  0  0  0
  -21.4487  -29.8251   19.1843 C   0  0  0  0  0  0  0  0  0  0  0  0
  -22.4662  -32.1123   19.1407 C   0  0  0  0  0  0  0  0  0  0  0  0
  -20.3907  -31.6975   20.4609 C   0  0  0  0  0  0  0  0  0  0  0  0
  -25.3685  -32.3750   25.1122 C   0  0  0  0  0  0  0  0  0  0  0  0
  -30.2032  -19.9751   19.6943 C   0  0  0  0  0  0  0  0  0  0  0  0
  -29.3727  -24.9921   20.0587 C   0  0  0  0  0  0  0  0  0  0  0  0
  -28.2910  -25.9078   20.5970 C   0  0  0  0  0  0  0  0  0  1  0  0
  -22.5937  -30.7776   21.2933 C   0  0  1  0  0  0  0  0  0  0  0  0
  -24.1584  -33.5901   23.2961 C   0  0  2  0  0  0  0  0  0  0  0  0
  -21.7394  -31.0810   20.0301 C   0  0  0  0  0  0  0  0  0  0  0  0
  -25.6834  -13.9365   19.9169 N   0  0  0  0  0  0  0  0  0  0  0  0
  -26.3542  -13.0201   20.6354 N   0  0  0  0  0  0  0  0  0  0  0  0
  -22.6727  -28.5772   22.4228 N   0  0  0  0  0  0  0  0  0  0  0  0
  -29.9193  -13.7653   19.4350 N   0  0  0  0  0  0  0  0  0  0  0  0
  -30.8983  -15.8110   20.1620 N   0  0  0  0  0  0  0  0  0  0  0  0
  -26.1214  -11.4764   22.4168 N   0  0  0  0  0  0  0  0  0  0  0  0
  -22.0183  -13.3381   22.1084 N   0  0  0  0  0  0  0  0  0  0  0  0
  -20.7648  -25.4729   22.5618 N   0  0  0  0  0  0  0  0  0  0  0  0
  -22.8617  -31.9440   22.1276 N   0  0  0  0  0  0  0  0  0  0  0  0
  -28.9451  -23.5698   20.2291 N   0  3  0  0  0  0  0  0  0  0  0  0
  -25.3298  -33.5599   24.2169 N   0  3  0  0  0  0  0  0  0  0  0  0
  -23.2911  -11.8169   23.2594 O   0  0  0  0  0  0  0  0  0  0  0  0
  -21.6845  -26.7946   20.8796 O   0  0  0  0  0  0  0  0  0  0  0  0
  -20.8384  -29.9929   22.6823 O   0  0  0  0  0  0  0  0  0  0  0  0
  -25.1741  -31.8059   22.0225 O   0  0  0  0  0  0  0  0  0  0  0  0
  -32.1514  -13.9329   19.9911 O   0  0  0  0  0  0  0  0  0  0  0  0
  -20.4471  -17.2635   18.4811 O   0  0  0  0  0  0  0  0  0  0  0  0
  -28.0948  -25.6500   21.9810 O   0  0  0  0  0  0  0  0  0  1  0  0
  -30.9228  -19.0684   20.5085 O   0  0  0  0  0  0  0  0  0  0  0  0
  -21.7635  -22.5266   17.4957 F   0  0  0  0  0  0  0  0  0  0  0  0
  -19.1402  -19.3207   19.7861 F   0  0  0  0  0  0  0  0  0  0  0  0
  1  2  1  0  0  0  0
  1  5  2  0  0  0  0
  2  6  2  0  0  0  0
  3  8  2  0  0  0  0
  3 15  1  0  0  0  0
  4  9  1  0  0  0  0
  4 15  2  0  0  0  0
  5 17  1  0  0  0  0
  6 19  1  0  0  0  0
  7 10  2  0  0  0  0
  7 18  1  0  0  0  0
  8 21  1  0  0  0  0
  9 21  2  0  0  0  0
 10 22  1  0  0  0  0
 11 12  2  0  0  0  0
 11 23  1  0  0  0  0
 12 24  1  0  0  0  0
 13 20  1  0  0  0  0
 13 22  2  0  0  0  0
 14 24  2  0  0  0  0
 14 25  1  0  0  0  0
 15 26  1  0  0  0  0
 16 26  1  0  0  0  0
 16 27  2  0  0  0  0
 16 28  1  0  0  0  0
 17 19  2  0  0  0  0
 17 33  1  0  0  0  0
 18 20  2  0  0  0  0
 18 34  1  0  0  0  0
 19 45  1  0  0  0  0
 20 35  1  0  0  0  0
 21 78  1  0  0  0  0
 22 79  1  0  0  0  0
 23 25  2  0  0  0  0
 23 78  1  0  0  0  0
 24 81  1  0  0  0  0
 25 82  1  0  0  0  0
 26 62  2  0  0  0  0
 27 63  1  0  0  0  0
 27 67  1  0  0  0  0
 28 68  1  0  0  0  0
 28 73  2  0  0  0  0
 29 46  1  0  0  0  0
 29 69  1  0  0  0  0
 29 74  2  0  0  0  0
 30 59  1  0  0  0  0
 30 64  1  0  0  0  0
 30 75  2  0  0  0  0
 31 60  1  0  0  0  0
 31 70  1  0  0  0  0
 31 76  2  0  0  0  0
 32 65  1  0  0  0  0
 32 66  1  0  0  0  0
 32 77  2  0  0  0  0
 33 36  1  0  0  0  0
 34 46  1  0  0  0  0
 35 64  1  0  0  0  0
 36 38  1  0  0  0  0
 37 39  1  0  0  0  0
 37 41  1  0  0  0  0
 38 45  1  0  0  0  0
 39 48  1  0  0  0  0
 40 47  1  0  0  0  0
 40 49  1  0  0  0  0
 41 65  1  0  0  0  0
 42 48  1  0  0  0  0
 42 65  1  0  0  0  0
 43 50  1  0  0  0  0
 43 66  1  0  0  0  0
 44 50  1  0  0  0  0
 44 66  1  0  0  0  0
 45 69  1  0  0  0  0
 46 64  1  0  0  0  0
 47 49  1  0  0  0  0
 47 56  1  0  0  0  0
 48 63  1  0  0  0  0
 49 71  1  0  0  0  0
 50 80  1  0  0  0  0
 51 60  1  0  0  0  0
 52 61  1  0  0  0  0
 53 61  1  0  0  0  0
 54 61  1  0  0  0  0
 55 72  1  0  0  0  0
 56 80  1  0  0  0  0
 57 58  1  0  0  0  0
 57 71  1  0  0  0  0
 58 79  1  0  0  0  0
 59 61  1  0  0  0  0
 59 70  1  0  0  0  0
 60 72  1  0  0  0  0
 62 63  1  0  0  0  0
M  CHG  2  71   1  72   1
M  ISO  4  32 100  58 101  66 100  79 101
M  END
> <Batch ID>
0184

> <Smiles>
CNC(C)C(=O)NC(C(=O)N1Cc2cc([101O:1][101CH2:1]CNC3CC3COC3C[100N:0]([100C:0](=O)N4CCCC(n5nc(-c6ccc(Oc7ccc(F)cc7F)cc6)c(C(N)=O)c5N)C4)C3)ccc2CC1C(=O)NC1CCCc2ccccc21)C(C)(C)C

> <Shape>
0.221

> <Color>
0.077

> <Negative vol penalty>
0.000

$$$$

  -OEChem-04052323103D

 81 90  0     1  0  0  0  0  0999 V2000
  -28.0917   -9.1716   21.5769 C   0  0  0  0  0  0  0  0  0  0  0  0
  -28.6833  -10.3944   21.2769 C   0  0  0  0  0  0  0  0  0  0  0  0
  -20.2304  -28.2348   23.7945 C   0  0  0  0  0  0  0  0  0  0  0  0
  -20.4854  -26.7939   21.8721 C   0  0  0  0  0  0  0  0  0  0  0  0
  -26.7047   -9.0387   21.5274 C   0  0  0  0  0  0  0  0  0  0  0  0
  -27.8882  -11.4849   20.9261 C   0  0  0  0  0  0  0  0  0  0  0  0
  -28.9253  -17.3741   22.2482 C   0  0  0  0  0  0  0  0  0  0  0  0
  -18.8535  -28.2820   23.5765 C   0  0  0  0  0  0  0  0  0  0  0  0
  -19.1084  -26.8411   21.6540 C   0  0  0  0  0  0  0  0  0  0  0  0
  -29.4789  -18.4181   21.5083 C   0  0  0  0  0  0  0  0  0  0  0  0
  -16.3349  -25.3933   22.9315 C   0  0  0  0  0  0  0  0  0  0  0  0
  -15.6838  -24.1929   22.6473 C   0  0  0  0  0  0  0  0  0  0  0  0
  -27.2643  -19.1379   20.8785 C   0  0  0  0  0  0  0  0  0  0  0  0
  -14.9655  -25.0861   20.5204 C   0  0  0  0  0  0  0  0  0  0  0  0
  -30.5705  -22.7421   17.0884 C   0  0  0  0  0  0  0  0  0  0  0  0
  -21.0464  -27.4907   22.9422 C   0  0  0  0  0  0  0  0  0  0  0  0
  -23.1736  -26.5134   23.9558 C   0  0  0  0  0  0  0  0  0  0  0  0
  -25.8916  -10.1307   21.1852 C   0  0  0  0  0  0  0  0  0  0  0  0
  -27.5352  -17.1973   22.3000 C   0  0  0  0  0  0  0  0  0  0  0  0
  -26.4891  -11.3662   20.8706 C   0  0  0  0  0  0  0  0  0  0  0  0
  -26.6955  -18.0924   21.6218 C   0  0  0  0  0  0  0  0  0  0  0  0
  -18.2925  -27.5852   22.5063 C   0  0  0  0  0  0  0  0  0  0  0  0
  -28.6484  -19.2985   20.8210 C   0  0  0  0  0  0  0  0  0  0  0  0
  -16.3013  -26.4401   22.0102 C   0  0  0  0  0  0  0  0  0  0  0  0
  -14.9991  -24.0393   21.4418 C   0  0  0  0  0  0  0  0  0  0  0  0
  -15.6167  -26.2864   20.8046 C   0  0  0  0  0  0  0  0  0  0  0  0
  -22.4688  -27.4420   23.1666 C   0  0  0  0  0  0  0  0  0  0  0  0
  -24.4882  -26.8950   23.8431 C   0  0  0  0  0  0  0  0  0  0  0  0
  -29.5637  -24.3661   18.2656 C   0  0  0  0  0  0  0  0  0  0  0  0
  -29.0570  -22.2156   18.6598 C   0  0  0  0  0  0  0  0  0  0  0  0
  -22.6838  -25.4051   24.7221 C   0  0  0  0  0  0  0  0  0  0  0  0
  -25.5324  -14.8936   21.4137 C   0  0  0  0  0  0  0  0  0  0  0  0
  -23.3360  -16.7722   22.8865 C   0  0  0  0  0  0  0  0  0  0  0  0
  -22.4335  -19.8876   23.9478 C   0  0  0  0  0  0  0  0  0  0  0  0
  -28.7472  -28.5561   20.5325 C   0  0  0  0  0  0  0  0  0  0  0  0
  -24.3998   -9.9261   21.0990 C   0  0  0  0  0  0  0  0  0  0  0  0
  -26.9527  -16.0821   23.1243 C   0  0  0  0  0  0  0  0  0  0  0  0
  -25.1959  -17.9582   21.6618 C   0  0  0  0  0  0  0  0  0  0  0  0
  -23.6062  -11.2300   21.0828 C   0  0  0  0  0  0  0  0  0  0  0  0
  -26.5745  -31.0594   21.9273 C   0  0  0  0  0  0  0  0  0  0  0  0
  -24.2252  -12.2196   20.1009 C   0  0  0  0  0  0  0  0  0  0  0  0
  -25.3479  -30.2796   22.3889 C   0  0  0  0  0  0  0  0  0  0  0  0
  -27.1662  -30.4457   20.6654 C   0  0  0  0  0  0  0  0  0  0  0  0
  -28.0537  -26.3639   19.2781 C   0  0  0  0  0  0  0  0  0  0  0  0
  -30.1042  -26.5249   19.7909 C   0  0  0  0  0  0  0  0  0  0  0  0
  -26.3419  -28.1973   21.3129 C   0  0  0  0  0  0  0  0  0  0  0  0
  -25.6588  -12.5789   20.5098 C   0  0  1  0  0  0  0  0  0  0  0  0
  -29.3600  -25.9053   18.5857 C   0  0  0  0  0  0  0  0  0  0  0  0
  -25.5446  -15.6893   22.6882 C   0  0  1  0  0  0  0  0  0  0  0  0
  -25.6946  -28.7957   22.5776 C   0  0  2  0  0  0  0  0  0  0  0  0
  -20.5642  -21.1167   25.0846 C   0  0  0  0  0  0  0  0  0  0  0  0
  -21.7053  -16.6706   20.3096 C   0  0  0  0  0  0  0  0  0  0  0  0
  -20.3864  -18.6260   21.1494 C   0  0  0  0  0  0  0  0  0  0  0  0
  -20.3566  -16.4714   22.4062 C   0  0  0  0  0  0  0  0  0  0  0  0
  -24.1802  -20.7032   26.1934 C   0  0  0  0  0  0  0  0  0  0  0  0
  -28.2766  -21.1825   19.4181 C   0  0  0  0  0  0  0  0  0  1  0  0
  -22.4377  -17.9062   22.4551 C   0  0  1  0  0  0  0  0  0  0  0  0
  -21.8808  -20.3793   25.2734 C   0  0  2  0  0  0  0  0  0  0  0  0
  -21.2498  -17.4202   21.5775 C   0  0  0  0  0  0  0  0  0  0  0  0
  -30.4503  -24.0622   17.3042 N   0  0  0  0  0  0  0  0  0  0  0  0
  -29.9087  -21.7628   17.7257 N   0  0  0  0  0  0  0  0  0  0  0  0
  -23.2694  -28.3455   22.5949 N   0  0  0  0  0  0  0  0  0  0  0  0
  -28.8322  -23.4991   18.9841 N   0  0  0  0  0  0  0  0  0  0  0  0
  -24.4908  -27.9865   23.0254 N   0  0  0  0  0  0  0  0  0  0  0  0
  -24.6746  -16.8481   22.4764 N   0  0  0  0  0  0  0  0  0  0  0  0
  -27.4609  -29.0192   20.8314 N   0  0  0  0  0  0  0  0  0  0  0  0
  -28.8818  -27.2763   20.0483 N   0  0  0  0  0  0  0  0  0  0  0  0
  -25.6307  -26.3999   24.3648 N   0  0  0  0  0  0  0  0  0  0  0  0
  -21.3049  -25.1543   24.7281 N   0  0  0  0  0  0  0  0  0  0  0  0
  -25.6500  -13.5296   21.6010 N   0  0  0  0  0  0  0  0  0  0  0  0
  -22.0356  -18.5956   23.6763 N   0  0  0  0  0  0  0  0  0  0  0  0
  -22.8486  -21.3054   25.9266 N   0  3  0  0  0  0  0  0  0  0  0  0
  -23.4446  -24.6690   25.3952 O   0  0  0  0  0  0  0  0  0  0  0  0
  -25.4229  -15.4740   20.3400 O   0  0  0  0  0  0  0  0  0  0  0  0
  -22.8689  -15.8565   23.5684 O   0  0  0  0  0  0  0  0  0  0  0  0
  -23.1439  -20.5816   23.2237 O   0  0  0  0  0  0  0  0  0  0  0  0
  -29.7471  -29.2742   20.6652 O   0  0  0  0  0  0  0  0  0  0  0  0
  -16.9490  -27.6309   22.2934 O   0  0  0  0  0  0  0  0  0  0  0  0
  -29.1861  -20.3180   20.0976 O   0  0  0  0  0  0  0  0  0  1  0  0
  -14.3751  -22.8860   21.1684 F   0  0  0  0  0  0  0  0  0  0  0  0
  -15.5819  -27.2881   19.9151 F   0  0  0  0  0  0  0  0  0  0  0  0
  1  2  1  0  0  0  0
  1  5  2  0  0  0  0
  2  6  2  0  0  0  0
  3  8  2  0  0  0  0
  3 16  1  0  0  0  0
  4  9  1  0  0  0  0
  4 16  2  0  0  0  0
  5 18  1  0  0  0  0
  6 20  1  0  0  0  0
  7 10  2  0  0  0  0
  7 19  1  0  0  0  0
  8 22  1  0  0  0  0
  9 22  2  0  0  0  0
 10 23  1  0  0  0  0
 11 12  2  0  0  0  0
 11 24  1  0  0  0  0
 12 25  1  0  0  0  0
 13 21  1  0  0  0  0
 13 23  2  0  0  0  0
 14 25  2  0  0  0  0
 14 26  1  0  0  0  0
 15 60  1  0  0  0  0
 15 61  2  0  0  0  0
 16 27  1  0  0  0  0
 17 27  1  0  0  0  0
 17 28  2  0  0  0  0
 17 31  1  0  0  0  0
 18 20  2  0  0  0  0
 18 36  1  0  0  0  0
 19 21  2  0  0  0  0
 19 37  1  0  0  0  0
 20 47  1  0  0  0  0
 21 38  1  0  0  0  0
 22 78  1  0  0  0  0
 23 79  1  0  0  0  0
 24 26  2  0  0  0  0
 24 78  1  0  0  0  0
 25 80  1  0  0  0  0
 26 81  1  0  0  0  0
 27 62  2  0  0  0  0
 28 64  1  0  0  0  0
 28 68  1  0  0  0  0
 29 48  1  0  0  0  0
 29 60  2  0  0  0  0
 29 63  1  0  0  0  0
 30 56  1  0  0  0  0
 30 61  1  0  0  0  0
 30 63  2  0  0  0  0
 31 69  1  0  0  0  0
 31 73  2  0  0  0  0
 32 49  1  0  0  0  0
 32 70  1  0  0  0  0
 32 74  2  0  0  0  0
 33 57  1  0  0  0  0
 33 65  1  0  0  0  0
 33 75  2  0  0  0  0
 34 58  1  0  0  0  0
 34 71  1  0  0  0  0
 34 76  2  0  0  0  0
 35 66  1  0  0  0  0
 35 67  1  0  0  0  0
 35 77  2  0  0  0  0
 36 39  1  0  0  0  0
 37 49  1  0  0  0  0
 38 65  1  0  0  0  0
 39 41  1  0  0  0  0
 40 42  1  0  0  0  0
 40 43  1  0  0  0  0
 41 47  1  0  0  0  0
 42 50  1  0  0  0  0
 43 66  1  0  0  0  0
 44 48  1  0  0  0  0
 44 67  1  0  0  0  0
 45 48  1  0  0  0  0
 45 67  1  0  0  0  0
 46 50  1  0  0  0  0
 46 66  1  0  0  0  0
 47 70  1  0  0  0  0
 49 65  1  0  0  0  0
 50 64  1  0  0  0  0
 51 58  1  0  0  0  0
 52 59  1  0  0  0  0
 53 59  1  0  0  0  0
 54 59  1  0  0  0  0
 55 72  1  0  0  0  0
 56 79  1  0  0  0  0
 57 59  1  0  0  0  0
 57 71  1  0  0  0  0
 58 72  1  0  0  0  0
 62 64  1  0  0  0  0
M  CHG  1  72   1
M  ISO  4  35 100  56 101  67 100  79 101
M  END
> <Batch ID>
0184

> <Smiles>
CNC(C)C(=O)NC(C(=O)N1Cc2cc([101O:1][101CH2:1]c3ncnc(C4C[100N:0]([100C:0](=O)N5CCCC(n6nc(-c7ccc(Oc8ccc(F)cc8F)cc7)c(C(N)=O)c6N)C5)C4)n3)ccc2CC1C(=O)NC1CCCc2ccccc21)C(C)(C)C

> <Shape>
0.221

> <Color>
0.079

> <Negative vol penalty>
0.000

$$$$

  -OEChem-04052323103D

 83 91  0     1  0  0  0  0  0999 V2000
  -23.2231  -19.0946   21.0350 C   0  0  0  0  0  0  0  0  0  0  0  0
  -24.4657  -19.4600   21.5427 C   0  0  0  0  0  0  0  0  0  0  0  0
  -23.0123   -9.8836   19.9741 C   0  0  0  0  0  0  0  0  0  0  0  0
  -23.7364   -9.9351   22.2785 C   0  0  0  0  0  0  0  0  0  0  0  0
  -22.5086  -19.9857   20.2354 C   0  0  0  0  0  0  0  0  0  0  0  0
  -24.9951  -20.7164   21.2502 C   0  0  0  0  0  0  0  0  0  0  0  0
  -26.9740  -22.9866   25.3215 C   0  0  0  0  0  0  0  0  0  0  0  0
  -22.2518   -8.7446   20.2386 C   0  0  0  0  0  0  0  0  0  0  0  0
  -22.9758   -8.7962   22.5430 C   0  0  0  0  0  0  0  0  0  0  0  0
  -28.2344  -22.5606   25.7384 C   0  0  0  0  0  0  0  0  0  0  0  0
  -23.2382   -5.4593   22.0664 C   0  0  0  0  0  0  0  0  0  0  0  0
  -23.8309   -4.4442   22.8173 C   0  0  0  0  0  0  0  0  0  0  0  0
  -29.2327  -24.4670   24.6484 C   0  0  0  0  0  0  0  0  0  0  0  0
  -29.7328  -17.7163   22.6799 C   0  0  0  0  0  0  0  0  0  0  0  0
  -22.1051   -4.6755   24.4922 C   0  0  0  0  0  0  0  0  0  0  0  0
  -32.2355  -18.4953   21.9212 C   0  0  0  0  0  0  0  0  0  0  0  0
  -23.7547  -10.4788   20.9941 C   0  0  0  0  0  0  0  0  0  0  0  0
  -24.1266  -12.9967   20.8218 C   0  0  0  0  0  0  0  0  0  0  0  0
  -23.0252  -21.2573   19.9409 C   0  0  0  0  0  0  0  0  0  0  0  0
  -26.8344  -24.1521   24.5543 C   0  0  0  0  0  0  0  0  0  0  0  0
  -24.2875  -21.6248   20.4448 C   0  0  0  0  0  0  0  0  0  0  0  0
  -27.9692  -24.9070   24.2251 C   0  0  0  0  0  0  0  0  0  0  0  0
  -30.2156  -18.9540   23.0900 C   0  0  0  0  0  0  0  0  0  0  0  0
  -31.4898  -19.3585   22.7077 C   0  0  0  0  0  0  0  0  0  0  0  0
  -22.2335   -8.2009   21.5230 C   0  0  0  0  0  0  0  0  0  0  0  0
  -29.3642  -23.2992   25.3994 C   0  0  0  0  0  0  0  0  0  0  0  0
  -22.0790   -6.0826   22.5285 C   0  0  0  0  0  0  0  0  0  0  0  0
  -23.2644   -4.0522   24.0302 C   0  0  0  0  0  0  0  0  0  0  0  0
  -21.5125   -5.6906   23.7414 C   0  0  0  0  0  0  0  0  0  0  0  0
  -24.5410  -11.6550   20.7214 C   0  0  0  0  0  0  0  0  0  0  0  0
  -30.5571  -16.9267   21.8944 C   0  0  0  0  0  0  0  0  0  0  0  0
  -25.2326  -13.7257   20.4588 C   0  0  0  0  0  0  0  0  0  0  0  0
  -22.8556  -13.5357   21.2086 C   0  0  0  0  0  0  0  0  0  0  0  0
  -25.7511  -24.8011   21.6373 C   0  0  0  0  0  0  0  0  0  0  0  0
  -26.2062  -27.8730   22.5749 C   0  0  0  0  0  0  0  0  0  0  0  0
  -27.8317  -30.0666   24.6225 C   0  0  0  0  0  0  0  0  0  0  0  0
  -30.7067  -14.7158   20.6961 C   0  0  0  0  0  0  0  0  0  0  0  0
  -22.2374  -22.1685   19.0332 C   0  0  0  0  0  0  0  0  0  0  0  0
  -25.4652  -24.6126   24.1351 C   0  0  0  0  0  0  0  0  0  0  0  0
  -27.8712  -26.1765   23.4205 C   0  0  0  0  0  0  0  0  0  0  0  0
  -22.7006  -23.6223   19.0786 C   0  0  0  0  0  0  0  0  0  0  0  0
  -29.6025  -12.2603   18.3663 C   0  0  0  0  0  0  0  0  0  0  0  0
  -24.2211  -23.7013   18.9855 C   0  0  0  0  0  0  0  0  0  0  0  0
  -28.1531  -11.9943   18.7796 C   0  0  0  0  0  0  0  0  0  0  0  0
  -30.5012  -12.5068   19.5768 C   0  0  0  0  0  0  0  0  0  0  0  0
  -28.5812  -13.2835   20.9107 C   0  0  0  0  0  0  0  0  0  0  0  0
  -24.8841  -22.9882   20.1702 C   0  0  1  0  0  0  0  0  0  0  0  0
  -25.4913  -25.5367   22.9215 C   0  0  1  0  0  0  0  0  0  0  0  0
  -27.6250  -13.0937   19.7219 C   0  0  2  0  0  0  0  0  0  0  0  0
  -29.3523  -19.8295   23.9365 C   0  0  0  0  0  0  0  0  0  0  0  0
  -28.0219  -32.5169   25.1297 C   0  0  0  0  0  0  0  0  0  0  0  0
  -33.3094  -21.9429   26.4399 C   0  0  0  0  0  0  0  0  0  0  0  0
  -27.8833  -28.2617   20.0557 C   0  0  0  0  0  0  0  0  0  0  0  0
  -28.8018  -30.3562   21.0744 C   0  0  0  0  0  0  0  0  0  0  0  0
  -26.3601  -30.1692   20.5995 C   0  0  0  0  0  0  0  0  0  0  0  0
  -26.9048  -29.6807   27.4065 C   0  0  0  0  0  0  0  0  0  0  0  0
  -32.0598  -20.6830   23.1220 C   0  0  0  0  0  0  0  0  0  0  0  0
  -31.7010  -23.2169   24.9651 C   0  0  0  0  0  0  0  0  0  1  0  0
  -27.3550  -28.8504   22.5134 C   0  0  1  0  0  0  0  0  0  0  0  0
  -27.3223  -31.2123   25.4782 C   0  0  2  0  0  0  0  0  0  0  0  0
  -32.7666  -22.1287   25.0323 C   0  0  2  0  0  0  0  0  0  0  0  0
  -27.6024  -29.3844   21.0743 C   0  0  0  0  0  0  0  0  0  0  0  0
  -31.8005  -17.2855   21.5032 N   0  0  0  0  0  0  0  0  0  0  0  0
  -25.8110  -11.5359   20.3255 N   0  0  0  0  0  0  0  0  0  0  0  0
  -26.2043  -12.8120   20.1739 N   0  0  0  0  0  0  0  0  0  0  0  0
  -26.5112  -26.5819   23.0287 N   0  0  0  0  0  0  0  0  0  0  0  0
  -29.9402  -13.5635   20.4214 N   0  0  0  0  0  0  0  0  0  0  0  0
  -25.4590  -15.0528   20.3587 N   0  0  0  0  0  0  0  0  0  0  0  0
  -21.8284  -12.6456   21.5505 N   0  0  0  0  0  0  0  0  0  0  0  0
  -30.0571  -15.6664   21.4828 N   0  0  0  0  0  0  0  0  0  0  0  0
  -24.8242  -23.8156   21.3560 N   0  0  0  0  0  0  0  0  0  0  0  0
  -27.0596  -29.8897   23.4938 N   0  0  0  0  0  0  0  0  0  0  0  0
  -27.5563  -30.9246   26.9216 N   0  3  0  0  0  0  0  0  0  0  0  0
  -32.1555  -20.8400   24.5956 N   0  3  0  0  0  0  0  0  0  0  0  0
  -22.6323  -14.7698   21.2341 O   0  0  0  0  0  0  0  0  0  0  0  0
  -26.7198  -25.1062   20.9516 O   0  0  0  0  0  0  0  0  0  0  0  0
  -25.0784  -28.2434   22.2395 O   0  0  0  0  0  0  0  0  0  0  0  0
  -28.8181  -29.3980   24.9232 O   0  0  0  0  0  0  0  0  0  0  0  0
  -31.8448  -14.8615   20.2427 O   0  0  0  0  0  0  0  0  0  0  0  0
  -21.4913   -7.0897   21.7815 O   0  0  0  0  0  0  0  0  0  0  0  0
  -30.5957  -22.8853   25.8045 O   0  0  0  0  0  0  0  0  0  1  0  0
  -23.8328   -3.0764   24.7504 F   0  0  0  0  0  0  0  0  0  0  0  0
  -20.3982   -6.2849   24.1898 F   0  0  0  0  0  0  0  0  0  0  0  0
  1  2  1  0  0  0  0
  1  5  2  0  0  0  0
  2  6  2  0  0  0  0
  3  8  2  0  0  0  0
  3 17  1  0  0  0  0
  4  9  1  0  0  0  0
  4 17  2  0  0  0  0
  5 19  1  0  0  0  0
  6 21  1  0  0  0  0
  7 10  2  0  0  0  0
  7 20  1  0  0  0  0
  8 25  1  0  0  0  0
  9 25  2  0  0  0  0
 10 26  1  0  0  0  0
 11 12  2  0  0  0  0
 11 27  1  0  0  0  0
 12 28  1  0  0  0  0
 13 22  1  0  0  0  0
 13 26  2  0  0  0  0
 14 23  1  0  0  0  0
 14 31  2  0  0  0  0
 15 28  2  0  0  0  0
 15 29  1  0  0  0  0
 16 24  1  0  0  0  0
 16 63  2  0  0  0  0
 17 30  1  0  0  0  0
 18 30  1  0  0  0  0
 18 32  2  0  0  0  0
 18 33  1  0  0  0  0
 19 21  2  0  0  0  0
 19 38  1  0  0  0  0
 20 22  2  0  0  0  0
 20 39  1  0  0  0  0
 21 47  1  0  0  0  0
 22 40  1  0  0  0  0
 23 24  2  0  0  0  0
 23 50  1  0  0  0  0
 24 57  1  0  0  0  0
 25 80  1  0  0  0  0
 26 81  1  0  0  0  0
 27 29  2  0  0  0  0
 27 80  1  0  0  0  0
 28 82  1  0  0  0  0
 29 83  1  0  0  0  0
 30 64  2  0  0  0  0
 31 63  1  0  0  0  0
 31 70  1  0  0  0  0
 32 65  1  0  0  0  0
 32 68  1  0  0  0  0
 33 69  1  0  0  0  0
 33 75  2  0  0  0  0
 34 48  1  0  0  0  0
 34 71  1  0  0  0  0
 34 76  2  0  0  0  0
 35 59  1  0  0  0  0
 35 66  1  0  0  0  0
 35 77  2  0  0  0  0
 36 60  1  0  0  0  0
 36 72  1  0  0  0  0
 36 78  2  0  0  0  0
 37 67  1  0  0  0  0
 37 70  1  0  0  0  0
 37 79  2  0  0  0  0
 38 41  1  0  0  0  0
 39 48  1  0  0  0  0
 40 66  1  0  0  0  0
 41 43  1  0  0  0  0
 42 44  1  0  0  0  0
 42 45  1  0  0  0  0
 43 47  1  0  0  0  0
 44 49  1  0  0  0  0
 45 67  1  0  0  0  0
 46 49  1  0  0  0  0
 46 67  1  0  0  0  0
 47 71  1  0  0  0  0
 48 66  1  0  0  0  0
 49 65  1  0  0  0  0
 51 60  1  0  0  0  0
 52 61  1  0  0  0  0
 53 62  1  0  0  0  0
 54 62  1  0  0  0  0
 55 62  1  0  0  0  0
 56 73  1  0  0  0  0
 57 74  1  0  0  0  0
 58 61  1  0  0  0  0
 58 81  1  0  0  0  0
 59 62  1  0  0  0  0
 59 72  1  0  0  0  0
 60 73  1  0  0  0  0
 61 74  1  0  0  0  0
 64 65  1  0  0  0  0
M  CHG  2  73   1  74   1
M  ISO  4  37 100  58 101  70 100  81 101
M  END
> <Batch ID>
0184

> <Smiles>
CNC(C)C(=O)NC(C(=O)N1Cc2cc([101O:1][101CH2:1]C(C)NCc3cnc([100NH:0][100C:0](=O)N4CCCC(n5nc(-c6ccc(Oc7ccc(F)cc7F)cc6)c(C(N)=O)c5N)C4)cc3C)ccc2CC1C(=O)NC1CCCc2ccccc21)C(C)(C)C

> <Shape>
0.241

> <Color>
0.194

> <Negative vol penalty>
0.000

$$$$

  -OEChem-04052323103D

 83 92  0     1  0  0  0  0  0999 V2000
  -35.5701  -30.1164   28.4104 C   0  0  0  0  0  0  0  0  0  0  0  0
  -35.0293  -29.3226   27.4040 C   0  0  0  0  0  0  0  0  0  0  0  0
  -23.3182   -9.7698   20.8303 C   0  0  0  0  0  0  0  0  0  0  0  0
  -24.0703  -10.3910   23.0406 C   0  0  0  0  0  0  0  0  0  0  0  0
  -34.7286  -30.8467   29.2486 C   0  0  0  0  0  0  0  0  0  0  0  0
  -33.6466  -29.2577   27.2360 C   0  0  0  0  0  0  0  0  0  0  0  0
  -30.6029  -28.6837   21.9528 C   0  0  0  0  0  0  0  0  0  0  0  0
  -22.6750   -8.6527   21.3631 C   0  0  0  0  0  0  0  0  0  0  0  0
  -23.4270   -9.2739   23.5735 C   0  0  0  0  0  0  0  0  0  0  0  0
  -30.0400  -27.5823   21.3094 C   0  0  0  0  0  0  0  0  0  0  0  0
  -23.5278   -5.5610   22.4301 C   0  0  0  0  0  0  0  0  0  0  0  0
  -23.6841   -4.3452   21.7645 C   0  0  0  0  0  0  0  0  0  0  0  0
  -27.8964  -28.1211   22.2758 C   0  0  0  0  0  0  0  0  0  0  0  0
  -21.2948   -4.2224   21.4278 C   0  0  0  0  0  0  0  0  0  0  0  0
  -24.0159  -10.6389   21.6691 C   0  0  0  0  0  0  0  0  0  0  0  0
  -24.1413  -13.0807   20.9411 C   0  0  0  0  0  0  0  0  0  0  0  0
  -33.3353  -30.7982   29.0846 C   0  0  0  0  0  0  0  0  0  0  0  0
  -29.8179  -29.5071   22.7726 C   0  0  0  0  0  0  0  0  0  0  0  0
  -32.7856  -29.9869   28.0737 C   0  0  0  0  0  0  0  0  0  0  0  0
  -28.4512  -29.2338   22.9264 C   0  0  0  0  0  0  0  0  0  0  0  0
  -22.7293   -8.4048   22.7347 C   0  0  0  0  0  0  0  0  0  0  0  0
  -28.6872  -27.2992   21.4732 C   0  0  0  0  0  0  0  0  0  0  0  0
  -22.2550   -6.1074   22.5947 C   0  0  0  0  0  0  0  0  0  0  0  0
  -22.5676   -3.6759   21.2633 C   0  0  0  0  0  0  0  0  0  0  0  0
  -21.1385   -5.4382   22.0935 C   0  0  0  0  0  0  0  0  0  0  0  0
  -24.6811  -11.7928   21.1192 C   0  0  0  0  0  0  0  0  0  0  0  0
  -25.1662  -13.8091   20.3885 C   0  0  0  0  0  0  0  0  0  0  0  0
  -29.5477  -21.4200   18.5827 C   0  0  0  0  0  0  0  0  0  0  0  0
  -22.8306  -13.5744   21.2478 C   0  0  0  0  0  0  0  0  0  0  0  0
  -29.8471  -30.2874   25.8538 C   0  0  0  0  0  0  0  0  0  0  0  0
  -27.4893  -32.3276   24.9590 C   0  0  0  0  0  0  0  0  0  0  0  0
  -25.0162  -33.1020   22.7385 C   0  0  0  0  0  0  0  0  0  0  0  0
  -30.5345  -15.3018   20.2056 C   0  0  0  0  0  0  0  0  0  0  0  0
  -32.4641  -31.5682   30.0453 C   0  0  0  0  0  0  0  0  0  0  0  0
  -30.4344  -30.7068   23.4382 C   0  0  0  0  0  0  0  0  0  0  0  0
  -27.5607  -30.0985   23.7795 C   0  0  0  0  0  0  0  0  0  0  0  0
  -31.0261  -31.7376   29.5617 C   0  0  0  0  0  0  0  0  0  0  0  0
  -29.6195  -12.3224   18.5033 C   0  0  0  0  0  0  0  0  0  0  0  0
  -30.4778  -30.4122   29.0426 C   0  0  0  0  0  0  0  0  0  0  0  0
  -28.2103  -12.0230   19.0177 C   0  0  0  0  0  0  0  0  0  0  0  0
  -28.1700  -21.3097   20.4140 C   0  0  0  0  0  0  0  0  0  0  0  0
  -30.5095  -12.9018   19.6008 C   0  0  0  0  0  0  0  0  0  0  0  0
  -28.5490  -13.7827   20.8036 C   0  0  0  0  0  0  0  0  0  0  0  0
  -29.4419  -18.8193   21.3009 C   0  0  0  0  0  0  0  0  0  0  0  0
  -30.4579  -18.4682   19.5120 C   0  0  0  0  0  0  0  0  0  0  0  0
  -31.2918  -29.9099   27.8441 C   0  0  1  0  0  0  0  0  0  0  0  0
  -28.9463  -20.3953   19.4926 C   0  0  2  0  0  0  0  0  0  0  0  0
  -29.6531  -31.1794   24.6603 C   0  0  1  0  0  0  0  0  0  0  0  0
  -27.5965  -13.2496   19.7195 C   0  0  2  0  0  0  0  0  0  0  0  0
  -30.4295  -17.7246   20.8593 C   0  0  0  0  0  0  0  0  0  0  0  0
  -28.9878  -22.5976   20.3729 C   0  0  2  0  0  0  0  0  0  0  0  0
  -30.1007  -21.0308   17.2503 C   0  0  0  0  0  0  0  0  0  0  0  0
  -23.2345  -34.8118   22.2916 C   0  0  0  0  0  0  0  0  0  0  0  0
  -25.7675  -31.1057   27.1619 C   0  0  0  0  0  0  0  0  0  0  0  0
  -23.7639  -32.1393   26.0730 C   0  0  0  0  0  0  0  0  0  0  0  0
  -25.5893  -33.5918   26.9566 C   0  0  0  0  0  0  0  0  0  0  0  0
  -26.2269  -33.8554   20.1452 C   0  0  0  0  0  0  0  0  0  0  0  0
  -28.1435  -23.8379   20.6064 C   0  0  0  0  0  0  0  0  0  0  0  0
  -28.9864  -25.1041   20.6084 C   0  0  0  0  0  0  0  0  0  1  0  0
  -25.9856  -32.2438   24.8547 C   0  0  1  0  0  0  0  0  0  0  0  0
  -24.6729  -34.3968   22.0242 C   0  0  2  0  0  0  0  0  0  0  0  0
  -25.2935  -32.2525   26.2469 C   0  0  0  0  0  0  0  0  0  0  0  0
  -25.9503  -11.7049   20.7125 N   0  0  0  0  0  0  0  0  0  0  0  0
  -29.5798  -22.6451   19.0149 N   0  0  0  0  0  0  0  0  0  0  0  0
  -26.2165  -12.9468   20.2734 N   0  0  0  0  0  0  0  0  0  0  0  0
  -28.2116  -31.2562   24.4146 N   0  0  0  0  0  0  0  0  0  0  0  0
  -29.8700  -14.0654   20.2202 N   0  0  0  0  0  0  0  0  0  0  0  0
  -25.2623  -15.0968   19.9946 N   0  0  0  0  0  0  0  0  0  0  0  0
  -21.8993  -12.6919   21.8119 N   0  0  0  0  0  0  0  0  0  0  0  0
  -30.9255  -30.6335   26.6454 N   0  0  0  0  0  0  0  0  0  0  0  0
  -25.5760  -33.3348   23.9769 N   0  0  0  0  0  0  0  0  0  0  0  0
  -29.8618  -16.3618   20.8045 N   0  0  0  0  0  0  0  0  0  0  0  0
  -30.0039  -19.6724   20.2352 N   0  3  0  0  0  0  0  0  0  0  0  0
  -24.8510  -34.2396   20.5530 N   0  3  0  0  0  0  0  0  0  0  0  0
  -22.4901  -14.7586   21.0130 O   0  0  0  0  0  0  0  0  0  0  0  0
  -29.0747  -29.3551   26.0433 O   0  0  0  0  0  0  0  0  0  0  0  0
  -28.0043  -33.3108   25.4972 O   0  0  0  0  0  0  0  0  0  0  0  0
  -24.8051  -31.9948   22.2485 O   0  0  0  0  0  0  0  0  0  0  0  0
  -31.6464  -15.4596   19.6896 O   0  0  0  0  0  0  0  0  0  0  0  0
  -22.1016   -7.3149   23.2550 O   0  0  0  0  0  0  0  0  0  0  0  0
  -28.1353  -26.2244   20.8469 O   0  0  0  0  0  0  0  0  0  1  0  0
  -22.7180   -2.5092   20.6227 F   0  0  0  0  0  0  0  0  0  0  0  0
  -19.9133   -5.9588   22.2475 F   0  0  0  0  0  0  0  0  0  0  0  0
  1  2  1  0  0  0  0
  1  5  2  0  0  0  0
  2  6  2  0  0  0  0
  3  8  2  0  0  0  0
  3 15  1  0  0  0  0
  4  9  1  0  0  0  0
  4 15  2  0  0  0  0
  5 17  1  0  0  0  0
  6 19  1  0  0  0  0
  7 10  2  0  0  0  0
  7 18  1  0  0  0  0
  8 21  1  0  0  0  0
  9 21  2  0  0  0  0
 10 22  1  0  0  0  0
 11 12  2  0  0  0  0
 11 23  1  0  0  0  0
 12 24  1  0  0  0  0
 13 20  1  0  0  0  0
 13 22  2  0  0  0  0
 14 24  2  0  0  0  0
 14 25  1  0  0  0  0
 15 26  1  0  0  0  0
 16 26  1  0  0  0  0
 16 27  2  0  0  0  0
 16 29  1  0  0  0  0
 17 19  2  0  0  0  0
 17 34  1  0  0  0  0
 18 20  2  0  0  0  0
 18 35  1  0  0  0  0
 19 46  1  0  0  0  0
 20 36  1  0  0  0  0
 21 80  1  0  0  0  0
 22 81  1  0  0  0  0
 23 25  2  0  0  0  0
 23 80  1  0  0  0  0
 24 82  1  0  0  0  0
 25 83  1  0  0  0  0
 26 63  2  0  0  0  0
 27 65  1  0  0  0  0
 27 68  1  0  0  0  0
 28 47  1  0  0  0  0
 28 52  1  0  0  0  0
 28 64  2  0  0  0  0
 29 69  1  0  0  0  0
 29 75  2  0  0  0  0
 30 48  1  0  0  0  0
 30 70  1  0  0  0  0
 30 76  2  0  0  0  0
 31 60  1  0  0  0  0
 31 66  1  0  0  0  0
 31 77  2  0  0  0  0
 32 61  1  0  0  0  0
 32 71  1  0  0  0  0
 32 78  2  0  0  0  0
 33 67  1  0  0  0  0
 33 72  1  0  0  0  0
 33 79  2  0  0  0  0
 34 37  1  0  0  0  0
 35 48  1  0  0  0  0
 36 66  1  0  0  0  0
 37 39  1  0  0  0  0
 38 40  1  0  0  0  0
 38 42  1  0  0  0  0
 39 46  1  0  0  0  0
 40 49  1  0  0  0  0
 41 47  1  0  0  0  0
 41 51  1  0  0  0  0
 42 67  1  0  0  0  0
 43 49  1  0  0  0  0
 43 67  1  0  0  0  0
 44 50  1  0  0  0  0
 44 73  1  0  0  0  0
 45 50  1  0  0  0  0
 45 73  1  0  0  0  0
 46 70  1  0  0  0  0
 47 73  1  0  0  0  0
 48 66  1  0  0  0  0
 49 65  1  0  0  0  0
 50 72  1  0  0  0  0
 51 58  1  0  0  0  0
 51 64  1  0  0  0  0
 53 61  1  0  0  0  0
 54 62  1  0  0  0  0
 55 62  1  0  0  0  0
 56 62  1  0  0  0  0
 57 74  1  0  0  0  0
 58 59  1  0  0  0  0
 59 81  1  0  0  0  0
 60 62  1  0  0  0  0
 60 71  1  0  0  0  0
 61 74  1  0  0  0  0
 63 65  1  0  0  0  0
M  CHG  2  73   1  74   1
M  ISO  4  33 100  59 101  72 100  81 101
M  END
> <Batch ID>
0184

> <Smiles>
C=C1NC(C[101CH2:1][101O:1]c2ccc3c(c2)CN(C(=O)C(NC(=O)C(C)NC)C(C)(C)C)C(C(=O)NC2CCCc4ccccc42)C3)CC1N1CC([100NH:0][100C:0](=O)N2CCCC(n3nc(-c4ccc(Oc5ccc(F)cc5F)cc4)c(C(N)=O)c3N)C2)C1

> <Shape>
0.310

> <Color>
0.179

> <Negative vol penalty>
0.000

$$$$

  -OEChem-04052323103D

 83 92  0     1  0  0  0  0  0999 V2000
  -17.0944  -27.9139   20.0404 C   0  0  0  0  0  0  0  0  0  0  0  0
  -18.4055  -27.8325   19.5822 C   0  0  0  0  0  0  0  0  0  0  0  0
  -26.2424  -12.7224   21.8743 C   0  0  0  0  0  0  0  0  0  0  0  0
  -25.5045  -13.6028   19.7489 C   0  0  0  0  0  0  0  0  0  0  0  0
  -16.8364  -28.3595   21.3361 C   0  0  0  0  0  0  0  0  0  0  0  0
  -19.4593  -28.1977   20.4192 C   0  0  0  0  0  0  0  0  0  0  0  0
  -25.0356  -25.6747   20.6325 C   0  0  0  0  0  0  0  0  0  0  0  0
  -25.0753  -11.9640   21.9654 C   0  0  0  0  0  0  0  0  0  0  0  0
  -24.3373  -12.8444   19.8399 C   0  0  0  0  0  0  0  0  0  0  0  0
  -26.2570  -26.0505   20.0752 C   0  0  0  0  0  0  0  0  0  0  0  0
  -21.3706  -13.0217   21.4517 C   0  0  0  0  0  0  0  0  0  0  0  0
  -20.1644  -13.6485   21.1387 C   0  0  0  0  0  0  0  0  0  0  0  0
  -26.8640  -27.1273   22.1467 C   0  0  0  0  0  0  0  0  0  0  0  0
  -19.7900  -12.0449   19.3708 C   0  0  0  0  0  0  0  0  0  0  0  0
  -26.4570  -13.5418   20.7660 C   0  0  0  0  0  0  0  0  0  0  0  0
  -28.8836  -13.9402   20.0876 C   0  0  0  0  0  0  0  0  0  0  0  0
  -17.8881  -28.7211   22.1927 C   0  0  0  0  0  0  0  0  0  0  0  0
  -24.7141  -26.0324   21.9497 C   0  0  0  0  0  0  0  0  0  0  0  0
  -19.2150  -28.6497   21.7272 C   0  0  0  0  0  0  0  0  0  0  0  0
  -25.6389  -26.7527   22.7192 C   0  0  0  0  0  0  0  0  0  0  0  0
  -24.1227  -12.0250   20.9482 C   0  0  0  0  0  0  0  0  0  0  0  0
  -27.1703  -26.7794   20.8314 C   0  0  0  0  0  0  0  0  0  0  0  0
  -21.7865  -11.9066   20.7242 C   0  0  0  0  0  0  0  0  0  0  0  0
  -19.3741  -13.1601   20.0982 C   0  0  0  0  0  0  0  0  0  0  0  0
  -20.9962  -11.4182   19.6838 C   0  0  0  0  0  0  0  0  0  0  0  0
  -27.6622  -14.3258   20.6716 C   0  0  0  0  0  0  0  0  0  0  0  0
  -29.7029  -15.0300   20.2536 C   0  0  0  0  0  0  0  0  0  0  0  0
  -29.2454  -12.7071   19.4517 C   0  0  0  0  0  0  0  0  0  0  0  0
  -22.4475  -27.8024   23.3038 C   0  0  0  0  0  0  0  0  0  0  0  0
  -23.7625  -26.6871   26.0514 C   0  0  0  0  0  0  0  0  0  0  0  0
  -26.4947  -25.4031   27.6430 C   0  0  0  0  0  0  0  0  0  0  0  0
  -28.3438  -20.8078   20.9428 C   0  0  0  0  0  0  0  0  0  0  0  0
  -17.5572  -29.2418   23.5689 C   0  0  0  0  0  0  0  0  0  0  0  0
  -23.4034  -25.5964   22.5450 C   0  0  0  0  0  0  0  0  0  0  0  0
  -25.3503  -27.1441   24.1447 C   0  0  0  0  0  0  0  0  0  0  0  0
  -18.7517  -29.2535   24.5192 C   0  0  0  0  0  0  0  0  0  0  0  0
  -30.4328  -18.7621   23.1553 C   0  0  0  0  0  0  0  0  0  0  0  0
  -19.9755  -29.8501   23.8311 C   0  0  0  0  0  0  0  0  0  0  0  0
  -31.1967  -25.7941   15.9842 C   0  0  0  0  0  0  0  0  0  0  0  0
  -29.8990  -25.3016   16.5614 C   0  0  0  0  0  0  0  0  0  0  0  0
  -30.0469  -17.3485   22.7172 C   0  0  0  0  0  0  0  0  0  0  0  0
  -29.2402  -19.7063   23.0633 C   0  0  0  0  0  0  0  0  0  0  0  0
  -29.0034  -23.2079   20.3755 C   0  0  0  0  0  0  0  0  0  0  0  0
  -30.4543  -22.2207   21.5777 C   0  0  0  0  0  0  0  0  0  0  0  0
  -28.2194  -18.3621   21.2710 C   0  0  0  0  0  0  0  0  0  0  0  0
  -20.3864  -29.0133   22.6136 C   0  0  1  0  0  0  0  0  0  0  0  0
  -22.9678  -26.4577   23.7265 C   0  0  1  0  0  0  0  0  0  0  0  0
  -30.8313  -26.1269   17.4043 C   0  0  0  0  0  0  0  0  0  0  0  0
  -30.5377  -23.2794   20.4617 C   0  0  0  0  0  0  0  0  0  0  0  0
  -29.3844  -17.3566   21.3272 C   0  0  2  0  0  0  0  0  0  0  0  0
  -27.2770  -24.6264   29.8974 C   0  0  0  0  0  0  0  0  0  0  0  0
  -32.0419  -27.1892   21.2076 C   0  0  0  0  0  0  0  0  0  0  0  0
  -24.0191  -29.5888   26.9593 C   0  0  0  0  0  0  0  0  0  0  0  0
  -25.6238  -28.8224   28.7217 C   0  0  0  0  0  0  0  0  0  0  0  0
  -23.2685  -28.0010   28.7398 C   0  0  0  0  0  0  0  0  0  0  0  0
  -27.0121  -22.6641   26.6485 C   0  0  0  0  0  0  0  0  0  0  0  0
  -31.5826  -25.4916   18.5538 C   0  0  0  0  0  0  0  0  0  0  0  0
  -31.1310  -24.6208   20.8425 C   0  0  0  0  0  0  0  0  0  0  0  0
  -29.5187  -27.2965   21.1254 C   0  0  0  0  0  0  0  0  0  1  0  0
  -24.8646  -27.1493   26.9738 C   0  0  1  0  0  0  0  0  0  0  0  0
  -26.6520  -24.2142   28.5737 C   0  0  2  0  0  0  0  0  0  0  0  0
  -30.8011  -27.0378   20.3427 C   0  0  2  0  0  0  0  0  0  0  0  0
  -24.4489  -28.3848   27.8212 C   0  0  0  0  0  0  0  0  0  0  0  0
  -27.6978  -15.5639   21.1715 N   0  0  0  0  0  0  0  0  0  0  0  0
  -28.9517  -15.9656   20.9021 N   0  0  0  0  0  0  0  0  0  0  0  0
  -24.0526  -26.6999   24.6797 N   0  0  0  0  0  0  0  0  0  0  0  0
  -28.6613  -19.6879   21.7162 N   0  0  0  0  0  0  0  0  0  0  0  0
  -29.1138  -21.9376   21.0874 N   0  0  0  0  0  0  0  0  0  0  0  0
  -30.9853  -15.2697   19.9069 N   0  0  0  0  0  0  0  0  0  0  0  0
  -28.2828  -11.6919   19.3662 N   0  0  0  0  0  0  0  0  0  0  0  0
  -21.0924  -27.8220   23.0341 N   0  0  0  0  0  0  0  0  0  0  0  0
  -25.2506  -25.9852   27.7639 N   0  0  0  0  0  0  0  0  0  0  0  0
  -27.5196  -23.1771   27.9471 N   0  3  0  0  0  0  0  0  0  0  0  0
  -30.7640  -25.6229   19.8160 N   0  3  1  0  0  0  0  0  0  0  0  0
  -30.3933  -12.5052   18.9881 O   0  0  0  0  0  0  0  0  0  0  0  0
  -23.2182  -28.7523   23.2295 O   0  0  0  0  0  0  0  0  0  0  0  0
  -22.6864  -26.3212   26.5308 O   0  0  0  0  0  0  0  0  0  0  0  0
  -27.3876  -25.7801   26.8873 O   0  0  0  0  0  0  0  0  0  0  0  0
  -27.4177  -20.7917   20.1209 O   0  0  0  0  0  0  0  0  0  0  0  0
  -22.9838  -11.2850   21.0367 O   0  0  0  0  0  0  0  0  0  0  0  0
  -28.3829  -27.1542   20.2806 O   0  0  0  0  0  0  0  0  0  1  0  0
  -18.2151  -13.7611   19.7988 F   0  0  0  0  0  0  0  0  0  0  0  0
  -21.3899  -10.3465   18.9821 F   0  0  0  0  0  0  0  0  0  0  0  0
  1  2  1  0  0  0  0
  1  5  2  0  0  0  0
  2  6  2  0  0  0  0
  3  8  2  0  0  0  0
  3 15  1  0  0  0  0
  4  9  1  0  0  0  0
  4 15  2  0  0  0  0
  5 17  1  0  0  0  0
  6 19  1  0  0  0  0
  7 10  2  0  0  0  0
  7 18  1  0  0  0  0
  8 21  1  0  0  0  0
  9 21  2  0  0  0  0
 10 22  1  0  0  0  0
 11 12  2  0  0  0  0
 11 23  1  0  0  0  0
 12 24  1  0  0  0  0
 13 20  1  0  0  0  0
 13 22  2  0  0  0  0
 14 24  2  0  0  0  0
 14 25  1  0  0  0  0
 15 26  1  0  0  0  0
 16 26  1  0  0  0  0
 16 27  2  0  0  0  0
 16 28  1  0  0  0  0
 17 19  2  0  0  0  0
 17 33  1  0  0  0  0
 18 20  2  0  0  0  0
 18 34  1  0  0  0  0
 19 46  1  0  0  0  0
 20 35  1  0  0  0  0
 21 80  1  0  0  0  0
 22 81  1  0  0  0  0
 23 25  2  0  0  0  0
 23 80  1  0  0  0  0
 24 82  1  0  0  0  0
 25 83  1  0  0  0  0
 26 64  2  0  0  0  0
 27 65  1  0  0  0  0
 27 69  1  0  0  0  0
 28 70  1  0  0  0  0
 28 75  2  0  0  0  0
 29 47  1  0  0  0  0
 29 71  1  0  0  0  0
 29 76  2  0  0  0  0
 30 60  1  0  0  0  0
 30 66  1  0  0  0  0
 30 77  2  0  0  0  0
 31 61  1  0  0  0  0
 31 72  1  0  0  0  0
 31 78  2  0  0  0  0
 32 67  1  0  0  0  0
 32 68  1  0  0  0  0
 32 79  2  0  0  0  0
 33 36  1  0  0  0  0
 34 47  1  0  0  0  0
 35 66  1  0  0  0  0
 36 38  1  0  0  0  0
 37 41  1  0  0  0  0
 37 42  1  0  0  0  0
 38 46  1  0  0  0  0
 39 40  1  0  0  0  0
 39 48  1  0  0  0  0
 40 48  1  0  0  0  0
 41 50  1  0  0  0  0
 42 67  1  0  0  0  0
 43 49  1  0  0  0  0
 43 68  1  0  0  0  0
 44 49  1  0  0  0  0
 44 68  1  0  0  0  0
 45 50  1  0  0  0  0
 45 67  1  0  0  0  0
 46 71  1  0  0  0  0
 47 66  1  0  0  0  0
 48 57  1  0  0  0  0
 49 58  1  0  0  0  0
 50 65  1  0  0  0  0
 51 61  1  0  0  0  0
 52 62  1  0  0  0  0
 53 63  1  0  0  0  0
 54 63  1  0  0  0  0
 55 63  1  0  0  0  0
 56 73  1  0  0  0  0
 57 74  1  0  0  0  0
 58 74  1  0  0  0  0
 59 62  1  0  0  0  0
 59 81  1  0  0  0  0
 60 63  1  0  0  0  0
 60 72  1  0  0  0  0
 61 73  1  0  0  0  0
 62 74  1  0  0  0  0
 64 65  1  0  0  0  0
M  CHG  2  73   1  74   1
M  ISO  4  32 100  59 101  68 100  81 101
M  END
> <Batch ID>
0184

> <Smiles>
CNC(C)C(=O)NC(C(=O)N1Cc2cc([101O:1][101CH2:1]C(C)N(CC3CC3)CC3C[100N:0]([100C:0](=O)N4CCCC(n5nc(-c6ccc(Oc7ccc(F)cc7F)cc6)c(C(N)=O)c5N)C4)C3)ccc2CC1C(=O)NC1CCCc2ccccc21)C(C)(C)C

> <Shape>
0.246

> <Color>
0.066

> <Negative vol penalty>
0.000

$$$$

  -OEChem-04052323103D

 84 93  0     1  0  0  0  0  0999 V2000
  -25.5963  -19.7630   26.9045 C   0  0  0  0  0  0  0  0  0  0  0  0
  -26.0515  -21.0301   26.5578 C   0  0  0  0  0  0  0  0  0  0  0  0
  -26.3867  -12.5835   19.5749 C   0  0  0  0  0  0  0  0  0  0  0  0
  -24.8961  -13.1871   21.3779 C   0  0  0  0  0  0  0  0  0  0  0  0
  -24.3825  -19.3006   26.4006 C   0  0  0  0  0  0  0  0  0  0  0  0
  -25.2873  -21.8398   25.7167 C   0  0  0  0  0  0  0  0  0  0  0  0
  -26.8354  -26.4621   25.0524 C   0  0  0  0  0  0  0  0  0  0  0  0
  -25.5408  -11.5301   19.2282 C   0  0  0  0  0  0  0  0  0  0  0  0
  -24.0501  -12.1337   21.0312 C   0  0  0  0  0  0  0  0  0  0  0  0
  -27.9640  -26.7777   24.2972 C   0  0  0  0  0  0  0  0  0  0  0  0
  -23.9392   -8.7822   21.4622 C   0  0  0  0  0  0  0  0  0  0  0  0
  -23.4467   -7.9806   22.4920 C   0  0  0  0  0  0  0  0  0  0  0  0
  -26.5431  -27.4886   22.4820 C   0  0  0  0  0  0  0  0  0  0  0  0
  -21.1880   -8.5800   21.8784 C   0  0  0  0  0  0  0  0  0  0  0  0
  -32.8539  -29.3396   21.3426 C   0  0  0  0  0  0  0  0  0  0  0  0
  -33.1900  -28.5814   20.2427 C   0  0  0  0  0  0  0  0  0  0  0  0
  -26.0644  -13.4120   20.6498 C   0  0  0  0  0  0  0  0  0  0  0  0
  -28.2871  -14.4128   21.4021 C   0  0  0  0  0  0  0  0  0  0  0  0
  -23.6097  -20.1008   25.5430 C   0  0  0  0  0  0  0  0  0  0  0  0
  -25.5501  -26.6474   24.5230 C   0  0  0  0  0  0  0  0  0  0  0  0
  -24.0481  -21.4004   25.2170 C   0  0  0  0  0  0  0  0  0  0  0  0
  -25.3998  -27.1769   23.2334 C   0  0  0  0  0  0  0  0  0  0  0  0
  -24.3725  -11.3052   19.9563 C   0  0  0  0  0  0  0  0  0  0  0  0
  -27.8181  -27.2884   23.0107 C   0  0  0  0  0  0  0  0  0  0  0  0
  -23.0561   -9.4827   20.6405 C   0  0  0  0  0  0  0  0  0  0  0  0
  -22.0711   -7.8795   22.7001 C   0  0  0  0  0  0  0  0  0  0  0  0
  -21.6806   -9.3816   20.8486 C   0  0  0  0  0  0  0  0  0  0  0  0
  -26.9382  -14.5000   21.0088 C   0  0  0  0  0  0  0  0  0  0  0  0
  -31.2679  -27.7972   21.9213 C   0  0  0  0  0  0  0  0  0  0  0  0
  -31.6034  -27.0393   20.8210 C   0  0  0  0  0  0  0  0  0  0  0  0
  -28.6625  -15.7138   21.6322 C   0  0  0  0  0  0  0  0  0  0  0  0
  -29.1257  -13.2589   21.5466 C   0  0  0  0  0  0  0  0  0  0  0  0
  -23.1035  -24.7327   23.8509 C   0  0  0  0  0  0  0  0  0  0  0  0
  -21.5916  -27.5317   23.2170 C   0  0  0  0  0  0  0  0  0  0  0  0
  -21.8334  -30.8232   22.3485 C   0  0  0  0  0  0  0  0  0  0  0  0
  -28.8245  -20.9616   20.0890 C   0  0  0  0  0  0  0  0  0  0  0  0
  -22.2999  -19.5535   25.0328 C   0  0  0  0  0  0  0  0  0  0  0  0
  -24.3425  -26.3270   25.3605 C   0  0  0  0  0  0  0  0  0  0  0  0
  -24.0417  -27.4137   22.6267 C   0  0  0  0  0  0  0  0  0  0  0  0
  -21.7816  -20.2983   23.8069 C   0  0  0  0  0  0  0  0  0  0  0  0
  -25.8930  -19.9355   21.9467 C   0  0  0  0  0  0  0  0  0  0  0  0
  -21.8113  -21.7983   24.0590 C   0  0  0  0  0  0  0  0  0  0  0  0
  -26.0201  -18.4118   21.8981 C   0  0  0  0  0  0  0  0  0  0  0  0
  -29.0862  -24.6096   19.4902 C   0  0  0  0  0  0  0  0  0  0  0  0
  -30.3794  -23.5608   21.3598 C   0  0  0  0  0  0  0  0  0  0  0  0
  -26.3464  -20.5702   20.6353 C   0  0  0  0  0  0  0  0  0  0  0  0
  -30.1753  -25.6709   19.3336 C   0  0  0  0  0  0  0  0  0  0  0  0
  -31.4687  -24.6197   21.1963 C   0  0  0  0  0  0  0  0  0  0  0  0
  -27.8584  -18.6806   20.1695 C   0  0  0  0  0  0  0  0  0  0  0  0
  -23.2486  -22.2868   24.2792 C   0  0  1  0  0  0  0  0  0  0  0  0
  -23.0889  -26.0735   24.5289 C   0  0  1  0  0  0  0  0  0  0  0  0
  -27.4367  -17.9808   21.4743 C   0  0  2  0  0  0  0  0  0  0  0  0
  -29.6484  -23.3017   20.0435 C   0  0  0  0  0  0  0  0  0  0  0  0
  -20.4232  -32.8430   21.8699 C   0  0  0  0  0  0  0  0  0  0  0  0
  -20.8784  -26.3826   20.4819 C   0  0  0  0  0  0  0  0  0  0  0  0
  -20.3336  -28.7061   19.7251 C   0  0  0  0  0  0  0  0  0  0  0  0
  -19.0381  -27.6664   21.5861 C   0  0  0  0  0  0  0  0  0  0  0  0
  -23.0431  -32.3410   24.5828 C   0  0  0  0  0  0  0  0  0  0  0  0
  -30.1910  -27.3719   22.8756 C   0  0  0  0  0  0  0  0  0  1  0  0
  -21.4220  -28.4024   21.9954 C   0  0  1  0  0  0  0  0  0  0  0  0
  -21.1896  -32.0686   22.9308 C   0  0  2  0  0  0  0  0  0  0  0  0
  -20.4438  -27.7832   20.9576 C   0  0  0  0  0  0  0  0  0  0  0  0
  -31.8869  -28.9610   22.2017 N   0  0  0  0  0  0  0  0  0  0  0  0
  -32.5707  -27.4177   19.9622 N   0  0  0  0  0  0  0  0  0  0  0  0
  -26.4871  -15.7571   20.9892 N   0  0  0  0  0  0  0  0  0  0  0  0
  -27.5585  -16.4717   21.3731 N   0  0  0  0  0  0  0  0  0  0  0  0
  -30.9230  -25.8382   20.5840 N   0  0  0  0  0  0  0  0  0  0  0  0
  -22.8917  -27.0789   23.4827 N   0  0  0  0  0  0  0  0  0  0  0  0
  -27.7089  -20.1340   20.2987 N   0  0  0  0  0  0  0  0  0  0  0  0
  -29.8259  -16.2720   22.0288 N   0  0  0  0  0  0  0  0  0  0  0  0
  -29.1666  -12.6141   22.7903 N   0  0  0  0  0  0  0  0  0  0  0  0
  -23.2168  -23.6641   24.7196 N   0  0  0  0  0  0  0  0  0  0  0  0
  -21.0211  -29.7173   22.4839 N   0  0  0  0  0  0  0  0  0  0  0  0
  -28.5967  -22.3257   20.2234 N   0  0  0  0  0  0  0  0  0  0  0  0
  -22.2287  -32.9666   23.5094 N   0  3  0  0  0  0  0  0  0  0  0  0
  -29.8309  -12.8226   20.6054 O   0  0  0  0  0  0  0  0  0  0  0  0
  -23.0169  -24.6721   22.6300 O   0  0  0  0  0  0  0  0  0  0  0  0
  -20.6082  -27.2691   23.9138 O   0  0  0  0  0  0  0  0  0  0  0  0
  -22.9442  -30.8315   21.8225 O   0  0  0  0  0  0  0  0  0  0  0  0
  -29.9428  -20.5173   19.8079 O   0  0  0  0  0  0  0  0  0  0  0  0
  -23.5466  -10.2775   19.6181 O   0  0  0  0  0  0  0  0  0  0  0  0
  -28.9180  -27.5967   22.2711 O   0  0  0  0  0  0  0  0  0  1  0  0
  -21.5982   -7.1085   23.6881 F   0  0  0  0  0  0  0  0  0  0  0  0
  -20.8273  -10.0514   20.0617 F   0  0  0  0  0  0  0  0  0  0  0  0
  1  2  1  0  0  0  0
  1  5  2  0  0  0  0
  2  6  2  0  0  0  0
  3  8  2  0  0  0  0
  3 17  1  0  0  0  0
  4  9  1  0  0  0  0
  4 17  2  0  0  0  0
  5 19  1  0  0  0  0
  6 21  1  0  0  0  0
  7 10  2  0  0  0  0
  7 20  1  0  0  0  0
  8 23  1  0  0  0  0
  9 23  2  0  0  0  0
 10 24  1  0  0  0  0
 11 12  2  0  0  0  0
 11 25  1  0  0  0  0
 12 26  1  0  0  0  0
 13 22  1  0  0  0  0
 13 24  2  0  0  0  0
 14 26  2  0  0  0  0
 14 27  1  0  0  0  0
 15 16  1  0  0  0  0
 15 63  2  0  0  0  0
 16 64  2  0  0  0  0
 17 28  1  0  0  0  0
 18 28  1  0  0  0  0
 18 31  2  0  0  0  0
 18 32  1  0  0  0  0
 19 21  2  0  0  0  0
 19 37  1  0  0  0  0
 20 22  2  0  0  0  0
 20 38  1  0  0  0  0
 21 50  1  0  0  0  0
 22 39  1  0  0  0  0
 23 81  1  0  0  0  0
 24 82  1  0  0  0  0
 25 27  2  0  0  0  0
 25 81  1  0  0  0  0
 26 83  1  0  0  0  0
 27 84  1  0  0  0  0
 28 65  2  0  0  0  0
 29 30  2  0  0  0  0
 29 59  1  0  0  0  0
 29 63  1  0  0  0  0
 30 64  1  0  0  0  0
 30 67  1  0  0  0  0
 31 66  1  0  0  0  0
 31 70  1  0  0  0  0
 32 71  1  0  0  0  0
 32 76  2  0  0  0  0
 33 51  1  0  0  0  0
 33 72  1  0  0  0  0
 33 77  2  0  0  0  0
 34 60  1  0  0  0  0
 34 68  1  0  0  0  0
 34 78  2  0  0  0  0
 35 61  1  0  0  0  0
 35 73  1  0  0  0  0
 35 79  2  0  0  0  0
 36 69  1  0  0  0  0
 36 74  1  0  0  0  0
 36 80  2  0  0  0  0
 37 40  1  0  0  0  0
 38 51  1  0  0  0  0
 39 68  1  0  0  0  0
 40 42  1  0  0  0  0
 41 43  1  0  0  0  0
 41 46  1  0  0  0  0
 42 50  1  0  0  0  0
 43 52  1  0  0  0  0
 44 47  1  0  0  0  0
 44 53  1  0  0  0  0
 45 48  1  0  0  0  0
 45 53  1  0  0  0  0
 46 69  1  0  0  0  0
 47 67  1  0  0  0  0
 48 67  1  0  0  0  0
 49 52  1  0  0  0  0
 49 69  1  0  0  0  0
 50 72  1  0  0  0  0
 51 68  1  0  0  0  0
 52 66  1  0  0  0  0
 53 74  1  0  0  0  0
 54 61  1  0  0  0  0
 55 62  1  0  0  0  0
 56 62  1  0  0  0  0
 57 62  1  0  0  0  0
 58 75  1  0  0  0  0
 59 82  1  0  0  0  0
 60 62  1  0  0  0  0
 60 73  1  0  0  0  0
 61 75  1  0  0  0  0
 65 66  1  0  0  0  0
M  CHG  1  75   1
M  ISO  4  36 100  59 101  74 100  82 101
M  END
> <Batch ID>
0184

> <Smiles>
CNC(C)C(=O)NC(C(=O)N1Cc2cc([101O:1][101CH2:1]c3nccnc3N3CCC([100NH:0][100C:0](=O)N4CCCC(n5nc(-c6ccc(Oc7ccc(F)cc7F)cc6)c(C(N)=O)c5N)C4)CC3)ccc2CC1C(=O)NC1CCCc2ccccc21)C(C)(C)C

> <Shape>
0.227

> <Color>
0.052

> <Negative vol penalty>
0.000

$$$$

  -OEChem-04052323103D

 79 88  0     1  0  0  0  0  0999 V2000
  -28.2144  -27.0656   30.7982 C   0  0  0  0  0  0  0  0  0  0  0  0
  -28.1729  -25.7538   30.3368 C   0  0  0  0  0  0  0  0  0  0  0  0
  -22.7080  -10.2202   20.1383 C   0  0  0  0  0  0  0  0  0  0  0  0
  -24.2870   -9.4349   21.7897 C   0  0  0  0  0  0  0  0  0  0  0  0
  -29.1920  -27.9394   30.3244 C   0  0  0  0  0  0  0  0  0  0  0  0
  -29.1085  -25.3153   29.4004 C   0  0  0  0  0  0  0  0  0  0  0  0
  -31.5731  -19.7234   28.9990 C   0  0  0  0  0  0  0  0  0  0  0  0
  -21.9490   -9.0632   20.3138 C   0  0  0  0  0  0  0  0  0  0  0  0
  -23.5280   -8.2778   21.9652 C   0  0  0  0  0  0  0  0  0  0  0  0
  -31.2771  -18.6233   28.1953 C   0  0  0  0  0  0  0  0  0  0  0  0
  -20.7028   -7.3762   23.5857 C   0  0  0  0  0  0  0  0  0  0  0  0
  -20.4616   -6.9533   24.8928 C   0  0  0  0  0  0  0  0  0  0  0  0
  -33.0023  -19.2963   26.6493 C   0  0  0  0  0  0  0  0  0  0  0  0
  -21.5730   -4.8606   24.4208 C   0  0  0  0  0  0  0  0  0  0  0  0
  -23.8771  -10.4060   20.8762 C   0  0  0  0  0  0  0  0  0  0  0  0
  -24.2473  -12.9299   20.9030 C   0  0  0  0  0  0  0  0  0  0  0  0
  -30.1460  -27.5087   29.3890 C   0  0  0  0  0  0  0  0  0  0  0  0
  -32.5803  -20.6257   28.6278 C   0  0  0  0  0  0  0  0  0  0  0  0
  -30.0990  -26.1846   28.9127 C   0  0  0  0  0  0  0  0  0  0  0  0
  -33.3109  -20.4056   27.4514 C   0  0  0  0  0  0  0  0  0  0  0  0
  -22.3589   -8.0920   21.2273 C   0  0  0  0  0  0  0  0  0  0  0  0
  -31.9898  -18.4112   27.0187 C   0  0  0  0  0  0  0  0  0  0  0  0
  -21.3790   -6.5414   22.6961 C   0  0  0  0  0  0  0  0  0  0  0  0
  -20.8967   -5.6955   25.3104 C   0  0  0  0  0  0  0  0  0  0  0  0
  -21.8141   -5.2836   23.1136 C   0  0  0  0  0  0  0  0  0  0  0  0
  -24.6619  -11.6007   20.6950 C   0  0  0  0  0  0  0  0  0  0  0  0
  -25.3517  -13.6862   20.5951 C   0  0  0  0  0  0  0  0  0  0  0  0
  -22.9774  -13.4356   21.3359 C   0  0  0  0  0  0  0  0  0  0  0  0
  -32.6665  -23.7220   27.9143 C   0  0  0  0  0  0  0  0  0  0  0  0
  -35.8705  -23.2195   27.8500 C   0  0  0  0  0  0  0  0  0  0  0  0
  -38.4509  -21.0202   27.4613 C   0  0  0  0  0  0  0  0  0  0  0  0
  -30.7891  -14.6455   20.8428 C   0  0  0  0  0  0  0  0  0  0  0  0
  -31.1547  -28.5030   28.8705 C   0  0  0  0  0  0  0  0  0  0  0  0
  -32.9056  -21.7926   29.5193 C   0  0  0  0  0  0  0  0  0  0  0  0
  -34.4155  -21.3335   27.0185 C   0  0  0  0  0  0  0  0  0  0  0  0
  -32.3398  -27.8542   28.1600 C   0  0  0  0  0  0  0  0  0  0  0  0
  -29.6972  -12.4396   18.3611 C   0  0  0  0  0  0  0  0  0  0  0  0
  -31.8573  -26.7867   27.1830 C   0  0  0  0  0  0  0  0  0  0  0  0
  -28.2623  -12.1084   18.7643 C   0  0  0  0  0  0  0  0  0  0  0  0
  -30.7797  -17.7142   21.6994 C   0  0  0  0  0  0  0  0  0  0  0  0
  -32.2065  -17.2903   21.8756 C   0  0  0  0  0  0  0  0  0  0  0  0
  -31.1154  -15.1143   24.4998 C   0  0  0  0  0  0  0  0  0  0  0  0
  -30.5970  -12.5218   19.5870 C   0  0  0  0  0  0  0  0  0  0  0  0
  -30.4881  -14.3258   23.3595 C   0  0  0  0  0  0  0  0  0  0  0  0
  -28.6943  -13.2327   21.0103 C   0  0  0  0  0  0  0  0  0  0  0  0
  -31.1118  -25.6647   27.9156 C   0  0  1  0  0  0  0  0  0  0  0  0
  -33.6039  -22.9312   28.7823 C   0  0  1  0  0  0  0  0  0  0  0  0
  -27.7422  -13.1165   19.8018 C   0  0  2  0  0  0  0  0  0  0  0  0
  -31.0975  -16.5074   22.5604 C   0  0  0  0  0  0  0  0  0  0  0  0
  -30.9135  -16.5916   24.0925 C   0  0  1  0  0  0  0  0  0  0  0  0
  -29.4862  -17.0538   24.4456 C   0  0  0  0  0  0  0  0  0  0  0  0
  -40.9578  -20.9113   27.4244 C   0  0  0  0  0  0  0  0  0  0  0  0
  -35.8801  -24.4431   25.0549 C   0  0  0  0  0  0  0  0  0  0  0  0
  -38.1552  -23.4576   24.7071 C   0  0  0  0  0  0  0  0  0  0  0  0
  -37.7909  -25.1452   26.5076 C   0  0  0  0  0  0  0  0  0  0  0  0
  -38.5203  -19.1711   29.7710 C   0  0  0  0  0  0  0  0  0  0  0  0
  -31.9215  -17.4716   24.8350 C   0  0  0  0  0  0  0  0  0  1  0  0
  -36.8673  -22.8091   26.7932 C   0  0  1  0  0  0  0  0  0  0  0  0
  -39.7072  -20.7863   28.2807 C   0  0  2  0  0  0  0  0  0  0  0  0
  -37.1513  -23.9471   25.7726 C   0  0  0  0  0  0  0  0  0  0  0  0
  -25.9306  -11.5143   20.2864 N   0  0  0  0  0  0  0  0  0  0  0  0
  -26.3227  -12.7987   20.2351 N   0  0  0  0  0  0  0  0  0  0  0  0
  -34.6917  -22.4637   27.9207 N   0  0  0  0  0  0  0  0  0  0  0  0
  -30.0773  -13.4660   20.5762 N   0  0  0  0  0  0  0  0  0  0  0  0
  -30.7168  -15.1440   22.1524 N   0  0  0  0  0  0  0  0  0  0  0  0
  -25.5772  -15.0172   20.5999 N   0  0  0  0  0  0  0  0  0  0  0  0
  -22.7586  -13.6042   22.7100 N   0  0  0  0  0  0  0  0  0  0  0  0
  -32.0502  -24.7742   28.5644 N   0  0  0  0  0  0  0  0  0  0  0  0
  -38.0490  -22.3384   27.5075 N   0  0  0  0  0  0  0  0  0  0  0  0
  -39.6855  -19.4242   28.8849 N   0  3  0  0  0  0  0  0  0  0  0  0
  -22.0581  -13.7139   20.5292 O   0  0  0  0  0  0  0  0  0  0  0  0
  -32.5146  -23.4022   26.7411 O   0  0  0  0  0  0  0  0  0  0  0  0
  -36.1314  -24.1710   28.5904 O   0  0  0  0  0  0  0  0  0  0  0  0
  -37.8850  -20.1240   26.8391 O   0  0  0  0  0  0  0  0  0  0  0  0
  -31.4737  -15.1755   19.9609 O   0  0  0  0  0  0  0  0  0  0  0  0
  -21.6184   -6.9630   21.3990 O   0  0  0  0  0  0  0  0  0  0  0  0
  -31.6996  -17.3284   26.2245 O   0  0  0  0  0  0  0  0  0  1  0  0
  -20.6664   -5.2901   26.5661 F   0  0  0  0  0  0  0  0  0  0  0  0
  -22.4653   -4.4776   22.2639 F   0  0  0  0  0  0  0  0  0  0  0  0
  1  2  1  0  0  0  0
  1  5  2  0  0  0  0
  2  6  2  0  0  0  0
  3  8  2  0  0  0  0
  3 15  1  0  0  0  0
  4  9  1  0  0  0  0
  4 15  2  0  0  0  0
  5 17  1  0  0  0  0
  6 19  1  0  0  0  0
  7 10  2  0  0  0  0
  7 18  1  0  0  0  0
  8 21  1  0  0  0  0
  9 21  2  0  0  0  0
 10 22  1  0  0  0  0
 11 12  2  0  0  0  0
 11 23  1  0  0  0  0
 12 24  1  0  0  0  0
 13 20  1  0  0  0  0
 13 22  2  0  0  0  0
 14 24  2  0  0  0  0
 14 25  1  0  0  0  0
 15 26  1  0  0  0  0
 16 26  1  0  0  0  0
 16 27  2  0  0  0  0
 16 28  1  0  0  0  0
 17 19  2  0  0  0  0
 17 33  1  0  0  0  0
 18 20  2  0  0  0  0
 18 34  1  0  0  0  0
 19 46  1  0  0  0  0
 20 35  1  0  0  0  0
 21 76  1  0  0  0  0
 22 77  1  0  0  0  0
 23 25  2  0  0  0  0
 23 76  1  0  0  0  0
 24 78  1  0  0  0  0
 25 79  1  0  0  0  0
 26 61  2  0  0  0  0
 27 62  1  0  0  0  0
 27 66  1  0  0  0  0
 28 67  1  0  0  0  0
 28 71  2  0  0  0  0
 29 47  1  0  0  0  0
 29 68  1  0  0  0  0
 29 72  2  0  0  0  0
 30 58  1  0  0  0  0
 30 63  1  0  0  0  0
 30 73  2  0  0  0  0
 31 59  1  0  0  0  0
 31 69  1  0  0  0  0
 31 74  2  0  0  0  0
 32 64  1  0  0  0  0
 32 65  1  0  0  0  0
 32 75  2  0  0  0  0
 33 36  1  0  0  0  0
 34 47  1  0  0  0  0
 35 63  1  0  0  0  0
 36 38  1  0  0  0  0
 37 39  1  0  0  0  0
 37 43  1  0  0  0  0
 38 46  1  0  0  0  0
 39 48  1  0  0  0  0
 40 41  1  0  0  0  0
 40 49  1  0  0  0  0
 41 49  1  0  0  0  0
 42 44  1  0  0  0  0
 42 50  1  0  0  0  0
 43 64  1  0  0  0  0
 44 65  1  0  0  0  0
 45 48  1  0  0  0  0
 45 64  1  0  0  0  0
 46 68  1  0  0  0  0
 47 63  1  0  0  0  0
 48 62  1  0  0  0  0
 49 50  1  0  0  0  0
 49 65  1  0  0  0  0
 50 51  1  0  0  0  0
 50 57  1  0  0  0  0
 52 59  1  0  0  0  0
 53 60  1  0  0  0  0
 54 60  1  0  0  0  0
 55 60  1  0  0  0  0
 56 70  1  0  0  0  0
 57 77  1  0  0  0  0
 58 60  1  0  0  0  0
 58 69  1  0  0  0  0
 59 70  1  0  0  0  0
 61 62  1  0  0  0  0
M  CHG  1  70   1
M  ISO  4  32 100  57 101  65 100  77 101
M  END
> <Batch ID>
0184

> <Smiles>
CNC(C)C(=O)NC(C(=O)N1Cc2cc([101O:1][101CH2:1]C3(C)CC[100N:0]([100C:0](=O)N4CCCC(n5nc(-c6ccc(Oc7ccc(F)cc7F)cc6)c(C(N)=O)c5N)C4)C34CC4)ccc2CC1C(=O)NC1CCCc2ccccc21)C(C)(C)C

> <Shape>
0.189

> <Color>
0.184

> <Negative vol penalty>
0.000

$$$$

  -OEChem-04052323103D

 81 89  0     1  0  0  0  0  0999 V2000
  -30.9058  -25.0748   17.0557 C   0  0  0  0  0  0  0  0  0  0  0  0
  -30.4774  -24.4050   18.1973 C   0  0  0  0  0  0  0  0  0  0  0  0
  -25.7143  -16.0065   19.8535 C   0  0  0  0  0  0  0  0  0  0  0  0
  -24.6929  -17.3439   21.5870 C   0  0  0  0  0  0  0  0  0  0  0  0
  -30.6516  -26.4381   16.9120 C   0  0  0  0  0  0  0  0  0  0  0  0
  -29.7954  -25.0985   19.1965 C   0  0  0  0  0  0  0  0  0  0  0  0
  -25.2884  -22.9549   22.7458 C   0  0  0  0  0  0  0  0  0  0  0  0
  -24.5914  -15.1794   19.8300 C   0  0  0  0  0  0  0  0  0  0  0  0
  -23.5699  -16.5168   21.5635 C   0  0  0  0  0  0  0  0  0  0  0  0
  -25.2771  -22.4518   24.0460 C   0  0  0  0  0  0  0  0  0  0  0  0
  -23.3304  -12.6393   21.6691 C   0  0  0  0  0  0  0  0  0  0  0  0
  -23.5422  -11.2609   21.6407 C   0  0  0  0  0  0  0  0  0  0  0  0
  -24.6496  -24.6281   24.8762 C   0  0  0  0  0  0  0  0  0  0  0  0
  -22.3573  -11.1221   19.5397 C   0  0  0  0  0  0  0  0  0  0  0  0
  -28.8314  -21.8858   26.7524 C   0  0  0  0  0  0  0  0  0  0  0  0
  -25.7651  -17.0888   20.7321 C   0  0  0  0  0  0  0  0  0  0  0  0
  -27.1428  -19.1036   19.9906 C   0  0  0  0  0  0  0  0  0  0  0  0
  -29.9576  -27.1466   17.9055 C   0  0  0  0  0  0  0  0  0  0  0  0
  -24.9906  -24.3033   22.5017 C   0  0  0  0  0  0  0  0  0  0  0  0
  -29.5328  -26.4729   19.0666 C   0  0  0  0  0  0  0  0  0  0  0  0
  -24.6554  -25.1452   23.5717 C   0  0  0  0  0  0  0  0  0  0  0  0
  -23.5192  -15.4345   20.6849 C   0  0  0  0  0  0  0  0  0  0  0  0
  -24.9605  -23.2891   25.1117 C   0  0  0  0  0  0  0  0  0  0  0  0
  -22.6320  -13.2591   20.6328 C   0  0  0  0  0  0  0  0  0  0  0  0
  -23.0557  -10.5023   20.5760 C   0  0  0  0  0  0  0  0  0  0  0  0
  -22.1455  -12.5005   19.5682 C   0  0  0  0  0  0  0  0  0  0  0  0
  -26.9250  -17.9432   20.7572 C   0  0  0  0  0  0  0  0  0  0  0  0
  -29.3833  -20.9415   27.5898 C   0  0  0  0  0  0  0  0  0  0  0  0
  -27.6859  -21.2762   29.0856 C   0  0  0  0  0  0  0  0  0  0  0  0
  -27.1346  -22.2209   28.2484 C   0  0  0  0  0  0  0  0  0  0  0  0
  -28.3831  -19.5456   20.3815 C   0  0  0  0  0  0  0  0  0  0  0  0
  -26.2994  -19.7264   19.0126 C   0  0  0  0  0  0  0  0  0  0  0  0
  -26.5809  -26.7643   21.2697 C   0  0  0  0  0  0  0  0  0  0  0  0
  -23.7161  -28.2584   21.5582 C   0  0  0  0  0  0  0  0  0  0  0  0
  -20.6829  -28.4326   23.1127 C   0  0  0  0  0  0  0  0  0  0  0  0
  -31.5745  -18.8253   25.3962 C   0  0  0  0  0  0  0  0  0  0  0  0
  -29.7477  -28.6295   17.7271 C   0  0  0  0  0  0  0  0  0  0  0  0
  -24.9811  -24.8241   21.0907 C   0  0  0  0  0  0  0  0  0  0  0  0
  -24.3083  -26.5956   23.3609 C   0  0  0  0  0  0  0  0  0  0  0  0
  -28.6903  -29.2117   18.6615 C   0  0  0  0  0  0  0  0  0  0  0  0
  -32.5595  -17.9529   22.0878 C   0  0  0  0  0  0  0  0  0  0  0  0
  -28.9032  -28.7109   20.0866 C   0  0  0  0  0  0  0  0  0  0  0  0
  -31.2468  -17.9562   21.3025 C   0  0  0  0  0  0  0  0  0  0  0  0
  -32.3655  -17.4290   23.5091 C   0  0  0  0  0  0  0  0  0  0  0  0
  -29.9984  -18.1148   23.4968 C   0  0  0  0  0  0  0  0  0  0  0  0
  -28.7683  -27.1852   20.1612 C   0  0  1  0  0  0  0  0  0  0  0  0
  -25.1640  -26.3366   21.0108 C   0  0  1  0  0  0  0  0  0  0  0  0
  -30.1328  -18.6875   22.0754 C   0  0  2  0  0  0  0  0  0  0  0  0
  -27.0529  -20.9292   30.3896 C   0  0  0  0  0  0  0  0  0  0  0  0
  -18.5692  -29.7842   23.1615 C   0  0  0  0  0  0  0  0  0  0  0  0
  -25.1585  -30.4537   23.1108 C   0  0  0  0  0  0  0  0  0  0  0  0
  -22.9282  -31.2446   23.9281 C   0  0  0  0  0  0  0  0  0  0  0  0
  -23.4438  -31.2782   21.4877 C   0  0  0  0  0  0  0  0  0  0  0  0
  -19.0383  -26.1039   22.3180 C   0  0  0  0  0  0  0  0  0  0  0  0
  -25.8635  -22.9491   28.6122 C   0  0  0  0  0  0  0  0  0  0  0  0
  -30.6381  -20.2365   27.2103 C   0  0  0  0  0  0  0  0  0  0  0  0
  -25.2738  -23.7120   27.4310 C   0  0  0  0  0  0  0  0  0  1  0  0
  -23.0345  -29.0642   22.6377 C   0  0  1  0  0  0  0  0  0  0  0  0
  -19.2758  -28.5784   22.5621 C   0  0  2  0  0  0  0  0  0  0  0  0
  -23.6497  -30.4834   22.7956 C   0  0  0  0  0  0  0  0  0  0  0  0
  -27.6971  -22.5425   27.0666 N   0  0  0  0  0  0  0  0  0  0  0  0
  -27.9451  -17.6654   21.5734 N   0  0  0  0  0  0  0  0  0  0  0  0
  -28.8204  -20.6197   28.7714 N   0  0  0  0  0  0  0  0  0  0  0  0
  -28.8160  -18.6575   21.3217 N   0  0  0  0  0  0  0  0  0  0  0  0
  -24.3189  -27.0592   21.9636 N   0  0  0  0  0  0  0  0  0  0  0  0
  -31.2964  -18.1655   24.1878 N   0  0  0  0  0  0  0  0  0  0  0  0
  -29.1347  -20.6034   20.0093 N   0  0  0  0  0  0  0  0  0  0  0  0
  -25.0574  -19.1410   18.7314 N   0  0  0  0  0  0  0  0  0  0  0  0
  -27.3736  -26.7994   20.1384 N   0  0  0  0  0  0  0  0  0  0  0  0
  -21.6124  -29.0622   22.3121 N   0  0  0  0  0  0  0  0  0  0  0  0
  -30.5069  -19.5047   25.9701 N   0  0  0  0  0  0  0  0  0  0  0  0
  -18.4712  -27.3619   22.8683 N   0  3  0  0  0  0  0  0  0  0  0  0
  -26.6441  -20.7618   18.3941 O   0  0  0  0  0  0  0  0  0  0  0  0
  -26.9288  -27.0434   22.4111 O   0  0  0  0  0  0  0  0  0  0  0  0
  -23.7077  -28.6741   20.3969 O   0  0  0  0  0  0  0  0  0  0  0  0
  -20.9322  -27.8245   24.1512 O   0  0  0  0  0  0  0  0  0  0  0  0
  -32.6928  -18.8144   25.9218 O   0  0  0  0  0  0  0  0  0  0  0  0
  -22.4232  -14.6278   20.6621 O   0  0  0  0  0  0  0  0  0  0  0  0
  -24.9493  -22.8007   26.3819 O   0  0  0  0  0  0  0  0  0  1  0  0
  -23.2605   -9.1789   20.5481 F   0  0  0  0  0  0  0  0  0  0  0  0
  -21.4749  -13.0906   18.5692 F   0  0  0  0  0  0  0  0  0  0  0  0
  1  2  1  0  0  0  0
  1  5  2  0  0  0  0
  2  6  2  0  0  0  0
  3  8  2  0  0  0  0
  3 16  1  0  0  0  0
  4  9  1  0  0  0  0
  4 16  2  0  0  0  0
  5 18  1  0  0  0  0
  6 20  1  0  0  0  0
  7 10  2  0  0  0  0
  7 19  1  0  0  0  0
  8 22  1  0  0  0  0
  9 22  2  0  0  0  0
 10 23  1  0  0  0  0
 11 12  2  0  0  0  0
 11 24  1  0  0  0  0
 12 25  1  0  0  0  0
 13 21  1  0  0  0  0
 13 23  2  0  0  0  0
 14 25  2  0  0  0  0
 14 26  1  0  0  0  0
 15 28  1  0  0  0  0
 15 61  2  0  0  0  0
 16 27  1  0  0  0  0
 17 27  1  0  0  0  0
 17 31  2  0  0  0  0
 17 32  1  0  0  0  0
 18 20  2  0  0  0  0
 18 37  1  0  0  0  0
 19 21  2  0  0  0  0
 19 38  1  0  0  0  0
 20 46  1  0  0  0  0
 21 39  1  0  0  0  0
 22 78  1  0  0  0  0
 23 79  1  0  0  0  0
 24 26  2  0  0  0  0
 24 78  1  0  0  0  0
 25 80  1  0  0  0  0
 26 81  1  0  0  0  0
 27 62  2  0  0  0  0
 28 56  1  0  0  0  0
 28 63  2  0  0  0  0
 29 30  2  0  0  0  0
 29 49  1  0  0  0  0
 29 63  1  0  0  0  0
 30 55  1  0  0  0  0
 30 61  1  0  0  0  0
 31 64  1  0  0  0  0
 31 67  1  0  0  0  0
 32 68  1  0  0  0  0
 32 73  2  0  0  0  0
 33 47  1  0  0  0  0
 33 69  1  0  0  0  0
 33 74  2  0  0  0  0
 34 58  1  0  0  0  0
 34 65  1  0  0  0  0
 34 75  2  0  0  0  0
 35 59  1  0  0  0  0
 35 70  1  0  0  0  0
 35 76  2  0  0  0  0
 36 66  1  0  0  0  0
 36 71  1  0  0  0  0
 36 77  2  0  0  0  0
 37 40  1  0  0  0  0
 38 47  1  0  0  0  0
 39 65  1  0  0  0  0
 40 42  1  0  0  0  0
 41 43  1  0  0  0  0
 41 44  1  0  0  0  0
 42 46  1  0  0  0  0
 43 48  1  0  0  0  0
 44 66  1  0  0  0  0
 45 48  1  0  0  0  0
 45 66  1  0  0  0  0
 46 69  1  0  0  0  0
 47 65  1  0  0  0  0
 48 64  1  0  0  0  0
 50 59  1  0  0  0  0
 51 60  1  0  0  0  0
 52 60  1  0  0  0  0
 53 60  1  0  0  0  0
 54 72  1  0  0  0  0
 55 57  1  0  0  0  0
 56 71  1  0  0  0  0
 57 79  1  0  0  0  0
 58 60  1  0  0  0  0
 58 70  1  0  0  0  0
 59 72  1  0  0  0  0
 62 64  1  0  0  0  0
M  CHG  1  72   1
M  ISO  4  36 100  57 101  71 100  79 101
M  END
> <Batch ID>
0184

> <Smiles>
CNC(C)C(=O)NC(C(=O)N1Cc2cc([101O:1][101CH2:1]Cc3ncc(C[100NH:0][100C:0](=O)N4CCCC(n5nc(-c6ccc(Oc7ccc(F)cc7F)cc6)c(C(N)=O)c5N)C4)nc3C)ccc2CC1C(=O)NC1CCCc2ccccc21)C(C)(C)C

> <Shape>
0.209

> <Color>
0.053

> <Negative vol penalty>
0.000

$$$$

  -OEChem-04052323103D

 82 91  0     1  0  0  0  0  0999 V2000
  -17.8555  -25.7822   23.0808 C   0  0  0  0  0  0  0  0  0  0  0  0
  -19.1862  -25.4260   22.8869 C   0  0  0  0  0  0  0  0  0  0  0  0
  -25.0638  -14.2231   22.4211 C   0  0  0  0  0  0  0  0  0  0  0  0
  -25.9368  -13.0360   20.5065 C   0  0  0  0  0  0  0  0  0  0  0  0
  -17.4309  -27.0763   22.7829 C   0  0  0  0  0  0  0  0  0  0  0  0
  -20.0930  -26.3635   22.3937 C   0  0  0  0  0  0  0  0  0  0  0  0
  -26.0181  -26.8770   23.8549 C   0  0  0  0  0  0  0  0  0  0  0  0
  -24.5851  -13.0231   22.9469 C   0  0  0  0  0  0  0  0  0  0  0  0
  -25.4582  -11.8359   21.0323 C   0  0  0  0  0  0  0  0  0  0  0  0
  -27.1814  -26.4409   23.2222 C   0  0  0  0  0  0  0  0  0  0  0  0
  -22.4984  -10.2165   21.2510 C   0  0  0  0  0  0  0  0  0  0  0  0
  -21.8329   -9.3492   20.3848 C   0  0  0  0  0  0  0  0  0  0  0  0
  -27.4325  -28.6117   22.2006 C   0  0  0  0  0  0  0  0  0  0  0  0
  -23.4834   -7.6412   20.8270 C   0  0  0  0  0  0  0  0  0  0  0  0
  -25.7396  -14.2295   21.2008 C   0  0  0  0  0  0  0  0  0  0  0  0
  -27.4983  -16.0483   20.8740 C   0  0  0  0  0  0  0  0  0  0  0  0
  -18.3350  -28.0330   22.2950 C   0  0  0  0  0  0  0  0  0  0  0  0
  -25.5465  -28.1826   23.6562 C   0  0  0  0  0  0  0  0  0  0  0  0
  -19.6798  -27.6713   22.0877 C   0  0  0  0  0  0  0  0  0  0  0  0
  -26.2643  -29.0628   22.8340 C   0  0  0  0  0  0  0  0  0  0  0  0
  -24.7823  -11.8295   22.2525 C   0  0  0  0  0  0  0  0  0  0  0  0
  -27.8872  -27.3074   22.3927 C   0  0  0  0  0  0  0  0  0  0  0  0
  -23.6565   -9.7963   21.9052 C   0  0  0  0  0  0  0  0  0  0  0  0
  -22.3254   -8.0615   20.1728 C   0  0  0  0  0  0  0  0  0  0  0  0
  -24.1490   -8.5086   21.6932 C   0  0  0  0  0  0  0  0  0  0  0  0
  -26.2338  -15.4689   20.6569 C   0  0  0  0  0  0  0  0  0  0  0  0
  -28.1491  -22.9537   18.8828 C   0  0  0  0  0  0  0  0  0  0  0  0
  -27.4919  -24.0492   19.4072 C   0  0  0  0  0  0  0  0  0  0  0  0
  -30.0835  -24.1187   18.8629 C   0  0  0  0  0  0  0  0  0  0  0  0
  -29.4223  -25.2210   19.3879 C   0  0  0  0  0  0  0  0  0  0  0  0
  -27.4741  -17.2099   20.1415 C   0  0  0  0  0  0  0  0  0  0  0  0
  -28.5967  -15.5784   21.6667 C   0  0  0  0  0  0  0  0  0  0  0  0
  -22.9000  -29.4499   22.4339 C   0  0  0  0  0  0  0  0  0  0  0  0
  -24.2132  -32.2259   23.4787 C   0  0  0  0  0  0  0  0  0  0  0  0
  -27.0248  -33.9548   24.3463 C   0  0  0  0  0  0  0  0  0  0  0  0
  -24.6373  -21.8742   18.7660 C   0  0  0  0  0  0  0  0  0  0  0  0
  -17.8193  -29.4058   21.9424 C   0  0  0  0  0  0  0  0  0  0  0  0
  -24.3046  -28.6460   24.3671 C   0  0  0  0  0  0  0  0  0  0  0  0
  -25.8113  -30.4806   22.6038 C   0  0  0  0  0  0  0  0  0  0  0  0
  -27.2079  -21.8016   18.7157 C   0  0  0  0  0  0  0  0  0  0  0  0
  -26.0424  -23.7482   19.6093 C   0  0  0  0  0  0  0  0  0  0  0  0
  -18.9231  -30.4473   21.7778 C   0  0  0  0  0  0  0  0  0  0  0  0
  -24.1608  -18.8821   16.7008 C   0  0  0  0  0  0  0  0  0  0  0  0
  -20.0557  -29.8937   20.9191 C   0  0  0  0  0  0  0  0  0  0  0  0
  -24.7275  -17.7704   17.5863 C   0  0  0  0  0  0  0  0  0  0  0  0
  -23.5711  -20.0259   17.5234 C   0  0  0  0  0  0  0  0  0  0  0  0
  -25.0338  -19.4677   19.4244 C   0  0  0  0  0  0  0  0  0  0  0  0
  -20.6988  -28.6673   21.5779 C   0  0  1  0  0  0  0  0  0  0  0  0
  -23.6352  -29.8358   23.6862 C   0  0  1  0  0  0  0  0  0  0  0  0
  -25.7041  -18.3347   18.6362 C   0  0  1  0  0  0  0  0  0  0  0  0
  -31.5435  -24.1700   18.5619 C   0  0  0  0  0  0  0  0  0  0  0  0
  -27.7854  -36.2168   25.1224 C   0  0  0  0  0  0  0  0  0  0  0  0
  -23.8549  -33.3140   20.6507 C   0  0  0  0  0  0  0  0  0  0  0  0
  -25.4526  -35.1524   21.2305 C   0  0  0  0  0  0  0  0  0  0  0  0
  -23.2991  -34.9365   22.4710 C   0  0  0  0  0  0  0  0  0  0  0  0
  -28.1164  -32.8514   26.8661 C   0  0  0  0  0  0  0  0  0  0  0  0
  -30.1501  -26.4928   19.6663 C   0  0  0  0  0  0  0  0  0  0  0  0
  -29.3351  -27.4747   20.5134 C   0  0  0  0  0  0  0  0  0  1  0  0
  -25.1431  -33.2577   22.8875 C   0  0  1  0  0  0  0  0  0  0  0  0
  -27.3406  -34.8263   25.5484 C   0  0  2  0  0  0  0  0  0  0  0  0
  -24.4452  -34.1379   21.8125 C   0  0  0  0  0  0  0  0  0  0  0  0
  -25.4624  -16.2021   19.8498 N   0  0  0  0  0  0  0  0  0  0  0  0
  -29.4569  -22.9503   18.5983 N   0  0  0  0  0  0  0  0  0  0  0  0
  -28.1010  -25.2107   19.6740 N   0  0  0  0  0  0  0  0  0  0  0  0
  -26.2443  -17.2542   19.5535 N   0  0  0  0  0  0  0  0  0  0  0  0
  -24.5877  -30.8846   23.3161 N   0  0  0  0  0  0  0  0  0  0  0  0
  -25.8983  -22.3706   19.1045 N   0  0  0  0  0  0  0  0  0  0  0  0
  -24.5345  -20.5026   18.5145 N   0  0  0  0  0  0  0  0  0  0  0  0
  -28.3849  -18.1877   19.9497 N   0  0  0  0  0  0  0  0  0  0  0  0
  -28.4536  -14.3655   22.3544 N   0  0  0  0  0  0  0  0  0  0  0  0
  -21.5870  -29.0746   22.6454 N   0  0  0  0  0  0  0  0  0  0  0  0
  -25.6878  -34.0090   24.0133 N   0  0  0  0  0  0  0  0  0  0  0  0
  -28.4289  -34.2132   26.3612 N   0  3  0  0  0  0  0  0  0  0  0  0
  -29.6671  -16.2232   21.7756 O   0  0  0  0  0  0  0  0  0  0  0  0
  -23.4806  -29.4909   21.3555 O   0  0  0  0  0  0  0  0  0  0  0  0
  -23.1957  -32.5966   24.0694 O   0  0  0  0  0  0  0  0  0  0  0  0
  -27.8793  -33.2951   23.7589 O   0  0  0  0  0  0  0  0  0  0  0  0
  -23.6627  -22.6265   18.6396 O   0  0  0  0  0  0  0  0  0  0  0  0
  -24.3156  -10.6583   22.7655 O   0  0  0  0  0  0  0  0  0  0  0  0
  -29.0306  -26.8811   21.7690 O   0  0  0  0  0  0  0  0  0  1  0  0
  -21.6853   -7.2281   19.3422 F   0  0  0  0  0  0  0  0  0  0  0  0
  -25.2604   -8.0988   22.3197 F   0  0  0  0  0  0  0  0  0  0  0  0
  1  2  1  0  0  0  0
  1  5  2  0  0  0  0
  2  6  2  0  0  0  0
  3  8  2  0  0  0  0
  3 15  1  0  0  0  0
  4  9  1  0  0  0  0
  4 15  2  0  0  0  0
  5 17  1  0  0  0  0
  6 19  1  0  0  0  0
  7 10  2  0  0  0  0
  7 18  1  0  0  0  0
  8 21  1  0  0  0  0
  9 21  2  0  0  0  0
 10 22  1  0  0  0  0
 11 12  2  0  0  0  0
 11 23  1  0  0  0  0
 12 24  1  0  0  0  0
 13 20  1  0  0  0  0
 13 22  2  0  0  0  0
 14 24  2  0  0  0  0
 14 25  1  0  0  0  0
 15 26  1  0  0  0  0
 16 26  1  0  0  0  0
 16 31  2  0  0  0  0
 16 32  1  0  0  0  0
 17 19  2  0  0  0  0
 17 37  1  0  0  0  0
 18 20  2  0  0  0  0
 18 38  1  0  0  0  0
 19 48  1  0  0  0  0
 20 39  1  0  0  0  0
 21 79  1  0  0  0  0
 22 80  1  0  0  0  0
 23 25  2  0  0  0  0
 23 79  1  0  0  0  0
 24 81  1  0  0  0  0
 25 82  1  0  0  0  0
 26 62  2  0  0  0  0
 27 28  1  0  0  0  0
 27 40  1  0  0  0  0
 27 63  2  0  0  0  0
 28 41  1  0  0  0  0
 28 64  2  0  0  0  0
 29 30  2  0  0  0  0
 29 51  1  0  0  0  0
 29 63  1  0  0  0  0
 30 57  1  0  0  0  0
 30 64  1  0  0  0  0
 31 65  1  0  0  0  0
 31 69  1  0  0  0  0
 32 70  1  0  0  0  0
 32 74  2  0  0  0  0
 33 49  1  0  0  0  0
 33 71  1  0  0  0  0
 33 75  2  0  0  0  0
 34 59  1  0  0  0  0
 34 66  1  0  0  0  0
 34 76  2  0  0  0  0
 35 60  1  0  0  0  0
 35 72  1  0  0  0  0
 35 77  2  0  0  0  0
 36 67  1  0  0  0  0
 36 68  1  0  0  0  0
 36 78  2  0  0  0  0
 37 42  1  0  0  0  0
 38 49  1  0  0  0  0
 39 66  1  0  0  0  0
 40 67  1  0  0  0  0
 41 67  1  0  0  0  0
 42 44  1  0  0  0  0
 43 45  1  0  0  0  0
 43 46  1  0  0  0  0
 44 48  1  0  0  0  0
 45 50  1  0  0  0  0
 46 68  1  0  0  0  0
 47 50  1  0  0  0  0
 47 68  1  0  0  0  0
 48 71  1  0  0  0  0
 49 66  1  0  0  0  0
 50 65  1  0  0  0  0
 52 60  1  0  0  0  0
 53 61  1  0  0  0  0
 54 61  1  0  0  0  0
 55 61  1  0  0  0  0
 56 73  1  0  0  0  0
 57 58  1  0  0  0  0
 58 80  1  0  0  0  0
 59 61  1  0  0  0  0
 59 72  1  0  0  0  0
 60 73  1  0  0  0  0
 62 65  1  0  0  0  0
M  CHG  1  73   1
M  ISO  4  36 100  58 101  67 100  80 101
M  END
> <Batch ID>
0184

> <Smiles>
CNC(C)C(=O)NC(C(=O)N1Cc2cc([101O:1][101CH2:1]Cc3nc4c(nc3C)C[100N:0]([100C:0](=O)N3CCCC(n5nc(-c6ccc(Oc7ccc(F)cc7F)cc6)c(C(N)=O)c5N)C3)C4)ccc2CC1C(=O)NC1CCCc2ccccc21)C(C)(C)C

> <Shape>
0.275

> <Color>
0.101

> <Negative vol penalty>
0.000

$$$$

  -OEChem-04052323103D

 79 87  0     1  0  0  0  0  0999 V2000
  -28.7339  -32.2946   26.3579 C   0  0  0  0  0  0  0  0  0  0  0  0
  -29.0535  -31.0645   25.7920 C   0  0  0  0  0  0  0  0  0  0  0  0
  -24.0580   -9.7508   22.3154 C   0  0  0  0  0  0  0  0  0  0  0  0
  -22.8420  -11.7426   21.6897 C   0  0  0  0  0  0  0  0  0  0  0  0
  -27.4291  -32.7795   26.2779 C   0  0  0  0  0  0  0  0  0  0  0  0
  -28.0681  -30.3181   25.1467 C   0  0  0  0  0  0  0  0  0  0  0  0
  -28.7903  -26.7354   20.2326 C   0  0  0  0  0  0  0  0  0  0  0  0
  -23.1722   -9.5421   23.3724 C   0  0  0  0  0  0  0  0  0  0  0  0
  -21.9561  -11.5338   22.7467 C   0  0  0  0  0  0  0  0  0  0  0  0
  -28.9537  -25.3580   20.0919 C   0  0  0  0  0  0  0  0  0  0  0  0
  -19.2860   -9.5700   23.4057 C   0  0  0  0  0  0  0  0  0  0  0  0
  -17.9234   -9.7157   23.1457 C   0  0  0  0  0  0  0  0  0  0  0  0
  -26.5869  -25.1245   19.6885 C   0  0  0  0  0  0  0  0  0  0  0  0
  -17.7956  -11.4721   24.7997 C   0  0  0  0  0  0  0  0  0  0  0  0
  -23.8930  -10.8512   21.4741 C   0  0  0  0  0  0  0  0  0  0  0  0
  -24.6908  -10.5828   19.0659 C   0  0  0  0  0  0  0  0  0  0  0  0
  -26.4295  -32.0431   25.6229 C   0  0  0  0  0  0  0  0  0  0  0  0
  -27.5201  -27.3174   20.1130 C   0  0  0  0  0  0  0  0  0  0  0  0
  -26.7485  -30.7930   25.0591 C   0  0  0  0  0  0  0  0  0  0  0  0
  -26.4104  -26.5099   19.8256 C   0  0  0  0  0  0  0  0  0  0  0  0
  -22.1212  -10.4335   23.5880 C   0  0  0  0  0  0  0  0  0  0  0  0
  -27.8515  -24.5520   19.8227 C   0  0  0  0  0  0  0  0  0  0  0  0
  -19.9034  -10.3753   24.3628 C   0  0  0  0  0  0  0  0  0  0  0  0
  -17.1782  -10.6668   23.8426 C   0  0  0  0  0  0  0  0  0  0  0  0
  -19.1582  -11.3264   25.0598 C   0  0  0  0  0  0  0  0  0  0  0  0
  -24.8081  -11.0677   20.3823 C   0  0  0  0  0  0  0  0  0  0  0  0
  -25.8057  -11.0624   18.4228 C   0  0  0  0  0  0  0  0  0  0  0  0
  -23.6658   -9.7715   18.4771 C   0  0  0  0  0  0  0  0  0  0  0  0
  -25.6177  -28.9686   22.0515 C   0  0  0  0  0  0  0  0  0  0  0  0
  -23.8087  -29.2771   19.3767 C   0  0  0  0  0  0  0  0  0  0  0  0
  -22.9422  -28.0591   16.3087 C   0  0  0  0  0  0  0  0  0  0  0  0
  -29.3597  -15.7820   19.3953 C   0  0  0  0  0  0  0  0  0  0  0  0
  -25.0227  -32.5864   25.6032 C   0  0  0  0  0  0  0  0  0  0  0  0
  -27.3648  -28.8080   20.2410 C   0  0  0  0  0  0  0  0  0  0  0  0
  -25.0287  -27.0880   19.6676 C   0  0  0  0  0  0  0  0  0  0  0  0
  -24.1214  -31.9065   24.5758 C   0  0  0  0  0  0  0  0  0  0  0  0
  -30.3360  -12.3612   19.2477 C   0  0  0  0  0  0  0  0  0  0  0  0
  -24.2752  -30.3907   24.6510 C   0  0  0  0  0  0  0  0  0  0  0  0
  -29.0194  -11.5980   19.4030 C   0  0  0  0  0  0  0  0  0  0  0  0
  -28.2215  -20.3088   19.4398 C   0  0  0  0  0  0  0  0  0  0  0  0
  -30.3583  -13.6275   20.1009 C   0  0  0  0  0  0  0  0  0  0  0  0
  -27.8986  -13.7726   20.0465 C   0  0  0  0  0  0  0  0  0  0  0  0
  -26.2956  -20.0461   20.8025 C   0  0  0  0  0  0  0  0  0  0  0  0
  -25.7129  -29.9653   24.3293 C   0  0  1  0  0  0  0  0  0  0  0  0
  -25.9461  -29.2315   20.6090 C   0  0  1  0  0  0  0  0  0  0  0  0
  -27.8067  -12.5172   19.1622 C   0  0  2  0  0  0  0  0  0  0  0  0
  -28.2064  -18.8412   19.8601 C   0  0  2  0  0  0  0  0  0  0  0  0
  -27.4350  -21.0306   20.5418 C   0  0  1  0  0  0  0  0  0  0  0  0
  -28.2910  -21.2414   21.8019 C   0  0  0  0  0  0  0  0  0  0  0  0
  -21.4076  -28.5050   14.3738 C   0  0  0  0  0  0  0  0  0  0  0  0
  -21.4612  -28.1821   20.9892 C   0  0  0  0  0  0  0  0  0  0  0  0
  -20.2655  -27.7598   18.8305 C   0  0  0  0  0  0  0  0  0  0  0  0
  -20.8878  -30.0879   19.4748 C   0  0  0  0  0  0  0  0  0  0  0  0
  -25.2105  -28.4052   14.4395 C   0  0  0  0  0  0  0  0  0  0  0  0
  -28.2127  -17.8687   18.6963 C   0  0  0  0  0  0  0  0  0  0  0  0
  -26.9054  -22.3832   20.0616 C   0  0  0  0  0  0  0  0  0  1  0  0
  -22.6954  -28.4797   18.7411 C   0  0  1  0  0  0  0  0  0  0  0  0
  -22.7908  -28.7403   14.9605 C   0  0  2  0  0  0  0  0  0  0  0  0
  -21.3531  -28.6159   19.5137 C   0  0  0  0  0  0  0  0  0  0  0  0
  -25.9105  -11.7991   20.5662 N   0  0  0  0  0  0  0  0  0  0  0  0
  -26.4962  -11.7773   19.3568 N   0  0  0  0  0  0  0  0  0  0  0  0
  -24.9271  -28.5500   19.8081 N   0  0  0  0  0  0  0  0  0  0  0  0
  -29.1824  -14.4559   19.8234 N   0  0  0  0  0  0  0  0  0  0  0  0
  -26.2529  -10.9381   17.1552 N   0  0  0  0  0  0  0  0  0  0  0  0
  -22.5907   -9.3664   19.2798 N   0  0  0  0  0  0  0  0  0  0  0  0
  -25.9450  -30.0078   22.9014 N   0  0  0  0  0  0  0  0  0  0  0  0
  -22.6295  -28.9091   17.3484 N   0  0  0  0  0  0  0  0  0  0  0  0
  -28.1932  -16.4954   19.1483 N   0  0  0  0  0  0  0  0  0  0  0  0
  -26.9303  -18.6922   20.6495 N   0  3  0  0  0  0  0  0  0  0  0  0
  -23.8038  -28.2186   13.9999 N   0  3  0  0  0  0  0  0  0  0  0  0
  -23.7105   -9.4026   17.2790 O   0  0  0  0  0  0  0  0  0  0  0  0
  -25.1039  -27.9025   22.3696 O   0  0  0  0  0  0  0  0  0  0  0  0
  -23.6932  -30.5009   19.4799 O   0  0  0  0  0  0  0  0  0  0  0  0
  -23.2983  -26.8888   16.4274 O   0  0  0  0  0  0  0  0  0  0  0  0
  -30.4750  -16.2906   19.2393 O   0  0  0  0  0  0  0  0  0  0  0  0
  -21.2565  -10.2299   24.6192 O   0  0  0  0  0  0  0  0  0  0  0  0
  -28.0081  -23.2072   19.6855 O   0  0  0  0  0  0  0  0  0  1  0  0
  -15.8700  -10.8077   23.5917 F   0  0  0  0  0  0  0  0  0  0  0  0
  -19.7461  -12.1037   25.9795 F   0  0  0  0  0  0  0  0  0  0  0  0
  1  2  1  0  0  0  0
  1  5  2  0  0  0  0
  2  6  2  0  0  0  0
  3  8  2  0  0  0  0
  3 15  1  0  0  0  0
  4  9  1  0  0  0  0
  4 15  2  0  0  0  0
  5 17  1  0  0  0  0
  6 19  1  0  0  0  0
  7 10  2  0  0  0  0
  7 18  1  0  0  0  0
  8 21  1  0  0  0  0
  9 21  2  0  0  0  0
 10 22  1  0  0  0  0
 11 12  2  0  0  0  0
 11 23  1  0  0  0  0
 12 24  1  0  0  0  0
 13 20  1  0  0  0  0
 13 22  2  0  0  0  0
 14 24  2  0  0  0  0
 14 25  1  0  0  0  0
 15 26  1  0  0  0  0
 16 26  1  0  0  0  0
 16 27  2  0  0  0  0
 16 28  1  0  0  0  0
 17 19  2  0  0  0  0
 17 33  1  0  0  0  0
 18 20  2  0  0  0  0
 18 34  1  0  0  0  0
 19 44  1  0  0  0  0
 20 35  1  0  0  0  0
 21 76  1  0  0  0  0
 22 77  1  0  0  0  0
 23 25  2  0  0  0  0
 23 76  1  0  0  0  0
 24 78  1  0  0  0  0
 25 79  1  0  0  0  0
 26 60  2  0  0  0  0
 27 61  1  0  0  0  0
 27 64  1  0  0  0  0
 28 65  1  0  0  0  0
 28 71  2  0  0  0  0
 29 45  1  0  0  0  0
 29 66  1  0  0  0  0
 29 72  2  0  0  0  0
 30 57  1  0  0  0  0
 30 62  1  0  0  0  0
 30 73  2  0  0  0  0
 31 58  1  0  0  0  0
 31 67  1  0  0  0  0
 31 74  2  0  0  0  0
 32 63  1  0  0  0  0
 32 68  1  0  0  0  0
 32 75  2  0  0  0  0
 33 36  1  0  0  0  0
 34 45  1  0  0  0  0
 35 62  1  0  0  0  0
 36 38  1  0  0  0  0
 37 39  1  0  0  0  0
 37 41  1  0  0  0  0
 38 44  1  0  0  0  0
 39 46  1  0  0  0  0
 40 47  1  0  0  0  0
 40 48  1  0  0  0  0
 41 63  1  0  0  0  0
 42 46  1  0  0  0  0
 42 63  1  0  0  0  0
 43 48  1  0  0  0  0
 43 69  1  0  0  0  0
 44 66  1  0  0  0  0
 45 62  1  0  0  0  0
 46 61  1  0  0  0  0
 47 55  1  0  0  0  0
 47 69  1  0  0  0  0
 48 49  1  0  0  0  0
 48 56  1  0  0  0  0
 50 58  1  0  0  0  0
 51 59  1  0  0  0  0
 52 59  1  0  0  0  0
 53 59  1  0  0  0  0
 54 70  1  0  0  0  0
 55 68  1  0  0  0  0
 56 77  1  0  0  0  0
 57 59  1  0  0  0  0
 57 67  1  0  0  0  0
 58 70  1  0  0  0  0
 60 61  1  0  0  0  0
M  CHG  2  69   1  70   1
M  ISO  4  32 100  56 101  68 100  77 101
M  END
> <Batch ID>
0184

> <Smiles>
CNC(C)C(=O)NC(C(=O)N1Cc2cc([101O:1][101CH2:1]C3(C)CNC(C[100NH:0][100C:0](=O)N4CCCC(n5nc(-c6ccc(Oc7ccc(F)cc7F)cc6)c(C(N)=O)c5N)C4)C3)ccc2CC1C(=O)NC1CCCc2ccccc21)C(C)(C)C

> <Shape>
0.252

> <Color>
0.059

> <Negative vol penalty>
0.000

$$$$

  -OEChem-04052323103D

 83 92  0     1  0  0  0  0  0999 V2000
  -19.5534  -15.1270   19.2438 C   0  0  0  0  0  0  0  0  0  0  0  0
  -20.4426  -16.1787   19.0472 C   0  0  0  0  0  0  0  0  0  0  0  0
  -21.5831  -26.3318   22.5812 C   0  0  0  0  0  0  0  0  0  0  0  0
  -21.3519  -27.4192   24.7262 C   0  0  0  0  0  0  0  0  0  0  0  0
  -19.8787  -14.0959   20.1241 C   0  0  0  0  0  0  0  0  0  0  0  0
  -21.6573  -16.2003   19.7316 C   0  0  0  0  0  0  0  0  0  0  0  0
  -27.0096  -18.3423   17.6650 C   0  0  0  0  0  0  0  0  0  0  0  0
  -20.8285  -25.2547   23.0459 C   0  0  0  0  0  0  0  0  0  0  0  0
  -20.5972  -26.3421   25.1909 C   0  0  0  0  0  0  0  0  0  0  0  0
  -27.6703  -19.5554   17.8538 C   0  0  0  0  0  0  0  0  0  0  0  0
  -17.5646  -24.5382   23.5619 C   0  0  0  0  0  0  0  0  0  0  0  0
  -16.5664  -24.0376   22.7261 C   0  0  0  0  0  0  0  0  0  0  0  0
  -28.9610  -18.5682   19.6367 C   0  0  0  0  0  0  0  0  0  0  0  0
  -17.6570  -21.8818   22.7149 C   0  0  0  0  0  0  0  0  0  0  0  0
  -30.7975  -23.5325   17.7015 C   0  0  0  0  0  0  0  0  0  0  0  0
  -21.8449  -27.4141   23.4214 C   0  0  0  0  0  0  0  0  0  0  0  0
  -22.1476  -29.6867   22.3029 C   0  0  0  0  0  0  0  0  0  0  0  0
  -21.1022  -14.1000   20.8124 C   0  0  0  0  0  0  0  0  0  0  0  0
  -27.3125  -17.2342   18.4693 C   0  0  0  0  0  0  0  0  0  0  0  0
  -21.9987  -15.1690   20.6229 C   0  0  0  0  0  0  0  0  0  0  0  0
  -28.3046  -17.3414   19.4544 C   0  0  0  0  0  0  0  0  0  0  0  0
  -29.7576  -23.1336   18.5162 C   0  0  0  0  0  0  0  0  0  0  0  0
  -20.3356  -25.2598   24.3507 C   0  0  0  0  0  0  0  0  0  0  0  0
  -28.6441  -19.6694   18.8416 C   0  0  0  0  0  0  0  0  0  0  0  0
  -18.6091  -23.7107   23.9741 C   0  0  0  0  0  0  0  0  0  0  0  0
  -16.6126  -22.7093   22.3026 C   0  0  0  0  0  0  0  0  0  0  0  0
  -18.6553  -22.3825   23.5506 C   0  0  0  0  0  0  0  0  0  0  0  0
  -22.6248  -28.5268   22.9422 C   0  0  0  0  0  0  0  0  0  0  0  0
  -29.5515  -23.9047   19.6420 C   0  0  0  0  0  0  0  0  0  0  0  0
  -23.2758  -30.4280   22.0497 C   0  0  0  0  0  0  0  0  0  0  0  0
  -31.2806  -25.2708   19.0843 C   0  0  0  0  0  0  0  0  0  0  0  0
  -20.8046  -30.0607   21.9680 C   0  0  0  0  0  0  0  0  0  0  0  0
  -25.6822  -15.4456   20.5300 C   0  0  0  0  0  0  0  0  0  0  0  0
  -28.4020  -13.6779   20.5486 C   0  0  0  0  0  0  0  0  0  0  0  0
  -31.7735  -13.5435   20.0373 C   0  0  0  0  0  0  0  0  0  0  0  0
  -28.9307  -28.6958   21.3282 C   0  0  0  0  0  0  0  0  0  0  0  0
  -21.3892  -12.9876   21.7894 C   0  0  0  0  0  0  0  0  0  0  0  0
  -26.6098  -15.9251   18.2353 C   0  0  0  0  0  0  0  0  0  0  0  0
  -28.6811  -16.1759   20.3309 C   0  0  0  0  0  0  0  0  0  0  0  0
  -22.8587  -12.8945   22.1920 C   0  0  0  0  0  0  0  0  0  0  0  0
  -27.6790  -31.2424   23.6864 C   0  0  0  0  0  0  0  0  0  0  0  0
  -23.4059  -14.2757   22.5381 C   0  0  0  0  0  0  0  0  0  0  0  0
  -26.1948  -30.8920   23.7359 C   0  0  0  0  0  0  0  0  0  0  0  0
  -32.6998  -28.4385   20.7895 C   0  0  0  0  0  0  0  0  0  0  0  0
  -28.5549  -30.0036   23.5039 C   0  0  0  0  0  0  0  0  0  0  0  0
  -26.6906  -28.8262   22.3714 C   0  0  0  0  0  0  0  0  0  0  0  0
  -23.3368  -15.2155   21.3283 C   0  0  1  0  0  0  0  0  0  0  0  0
  -26.6347  -15.0074   19.4538 C   0  0  1  0  0  0  0  0  0  0  0  0
  -25.7914  -30.0647   22.5058 C   0  0  1  0  0  0  0  0  0  0  0  0
  -31.8793  -27.2047   20.5428 C   0  0  1  0  0  0  0  0  0  0  0  0
  -31.2413  -28.5670   20.4469 C   0  0  1  0  0  0  0  0  0  0  0  0
  -28.4520  -23.5698   20.5951 C   0  0  0  0  0  0  0  0  0  0  0  0
  -33.7250  -11.9715   20.1707 C   0  0  0  0  0  0  0  0  0  0  0  0
  -28.4051  -13.9434   23.5883 C   0  0  0  0  0  0  0  0  0  0  0  0
  -30.7988  -13.2099   23.5803 C   0  0  0  0  0  0  0  0  0  0  0  0
  -29.0227  -11.6738   22.7387 C   0  0  0  0  0  0  0  0  0  0  0  0
  -32.3386  -13.8151   17.1450 C   0  0  0  0  0  0  0  0  0  0  0  0
  -28.9201  -21.9359   18.1765 C   0  0  0  0  0  0  0  0  0  1  0  0
  -29.6773  -13.6868   21.3563 C   0  0  1  0  0  0  0  0  0  0  0  0
  -32.6387  -12.5528   19.2793 C   0  0  2  0  0  0  0  0  0  0  0  0
  -29.4677  -13.1512   22.8008 C   0  0  0  0  0  0  0  0  0  0  0  0
  -31.5822  -24.6001   17.9562 N   0  0  0  0  0  0  0  0  0  0  0  0
  -23.9527  -28.5265   23.0860 N   0  0  0  0  0  0  0  0  0  0  0  0
  -30.2969  -24.9840   19.9581 N   0  0  0  0  0  0  0  0  0  0  0  0
  -24.3196  -29.6954   22.5335 N   0  0  0  0  0  0  0  0  0  0  0  0
  -27.9612  -14.9189   20.0677 N   0  0  0  0  0  0  0  0  0  0  0  0
  -28.1125  -29.1918   22.3593 N   0  0  0  0  0  0  0  0  0  0  0  0
  -23.4670  -31.6285   21.4625 N   0  0  0  0  0  0  0  0  0  0  0  0
  -19.7640  -29.1826   22.3002 N   0  0  0  0  0  0  0  0  0  0  0  0
  -32.0813  -26.3952   19.3824 N   0  0  0  0  0  0  0  0  0  0  0  0
  -24.4088  -14.9247   20.4005 N   0  0  0  0  0  0  0  0  0  0  0  0
  -30.6586  -12.9386   20.5781 N   0  0  0  0  0  0  0  0  0  0  0  0
  -30.2819  -29.0095   21.4232 N   0  0  0  0  0  0  0  0  0  0  0  0
  -33.2911  -13.2186   18.1165 N   0  3  0  0  0  0  0  0  0  0  0  0
  -20.5369  -31.1341   21.3766 O   0  0  0  0  0  0  0  0  0  0  0  0
  -26.0739  -16.1992   21.4134 O   0  0  0  0  0  0  0  0  0  0  0  0
  -27.8222  -12.6082   20.3457 O   0  0  0  0  0  0  0  0  0  0  0  0
  -32.0601  -14.7340   20.1426 O   0  0  0  0  0  0  0  0  0  0  0  0
  -28.4922  -28.0175   20.3927 O   0  0  0  0  0  0  0  0  0  0  0  0
  -19.5990  -24.2090   24.8044 O   0  0  0  0  0  0  0  0  0  0  0  0
  -29.2900  -20.8525   19.0284 O   0  0  0  0  0  0  0  0  0  1  0  0
  -15.6531  -22.2283   21.5013 F   0  0  0  0  0  0  0  0  0  0  0  0
  -19.6556  -21.5823   23.9442 F   0  0  0  0  0  0  0  0  0  0  0  0
  1  2  1  0  0  0  0
  1  5  2  0  0  0  0
  2  6  2  0  0  0  0
  3  8  2  0  0  0  0
  3 16  1  0  0  0  0
  4  9  1  0  0  0  0
  4 16  2  0  0  0  0
  5 18  1  0  0  0  0
  6 20  1  0  0  0  0
  7 10  2  0  0  0  0
  7 19  1  0  0  0  0
  8 23  1  0  0  0  0
  9 23  2  0  0  0  0
 10 24  1  0  0  0  0
 11 12  2  0  0  0  0
 11 25  1  0  0  0  0
 12 26  1  0  0  0  0
 13 21  1  0  0  0  0
 13 24  2  0  0  0  0
 14 26  2  0  0  0  0
 14 27  1  0  0  0  0
 15 22  1  0  0  0  0
 15 62  2  0  0  0  0
 16 28  1  0  0  0  0
 17 28  1  0  0  0  0
 17 30  2  0  0  0  0
 17 32  1  0  0  0  0
 18 20  2  0  0  0  0
 18 37  1  0  0  0  0
 19 21  2  0  0  0  0
 19 38  1  0  0  0  0
 20 47  1  0  0  0  0
 21 39  1  0  0  0  0
 22 29  2  0  0  0  0
 22 58  1  0  0  0  0
 23 80  1  0  0  0  0
 24 81  1  0  0  0  0
 25 27  2  0  0  0  0
 25 80  1  0  0  0  0
 26 82  1  0  0  0  0
 27 83  1  0  0  0  0
 28 63  2  0  0  0  0
 29 52  1  0  0  0  0
 29 64  1  0  0  0  0
 30 65  1  0  0  0  0
 30 68  1  0  0  0  0
 31 62  1  0  0  0  0
 31 64  2  0  0  0  0
 31 70  1  0  0  0  0
 32 69  1  0  0  0  0
 32 75  2  0  0  0  0
 33 48  1  0  0  0  0
 33 71  1  0  0  0  0
 33 76  2  0  0  0  0
 34 59  1  0  0  0  0
 34 66  1  0  0  0  0
 34 77  2  0  0  0  0
 35 60  1  0  0  0  0
 35 72  1  0  0  0  0
 35 78  2  0  0  0  0
 36 67  1  0  0  0  0
 36 73  1  0  0  0  0
 36 79  2  0  0  0  0
 37 40  1  0  0  0  0
 38 48  1  0  0  0  0
 39 66  1  0  0  0  0
 40 42  1  0  0  0  0
 41 43  1  0  0  0  0
 41 45  1  0  0  0  0
 42 47  1  0  0  0  0
 43 49  1  0  0  0  0
 44 50  1  0  0  0  0
 44 51  1  0  0  0  0
 45 67  1  0  0  0  0
 46 49  1  0  0  0  0
 46 67  1  0  0  0  0
 47 71  1  0  0  0  0
 48 66  1  0  0  0  0
 49 65  1  0  0  0  0
 50 51  1  0  0  0  0
 50 70  1  0  0  0  0
 51 73  1  0  0  0  0
 53 60  1  0  0  0  0
 54 61  1  0  0  0  0
 55 61  1  0  0  0  0
 56 61  1  0  0  0  0
 57 74  1  0  0  0  0
 58 81  1  0  0  0  0
 59 61  1  0  0  0  0
 59 72  1  0  0  0  0
 60 74  1  0  0  0  0
 63 65  1  0  0  0  0
M  CHG  1  74   1
M  ISO  4  36 100  58 101  73 100  81 101
M  END
> <Batch ID>
0184

> <Smiles>
CNC(C)C(=O)NC(C(=O)N1Cc2cc([101O:1][101CH2:1]c3cnc(NC4CC4[100NH:0][100C:0](=O)N4CCCC(n5nc(-c6ccc(Oc7ccc(F)cc7F)cc6)c(C(N)=O)c5N)C4)nc3C)ccc2CC1C(=O)NC1CCCc2ccccc21)C(C)(C)C

> <Shape>
0.254

> <Color>
0.060

> <Negative vol penalty>
0.000

$$$$

  -OEChem-04052323103D

 83 92  0     1  0  0  0  0  0999 V2000
  -18.3497  -27.3770   22.7896 C   0  0  0  0  0  0  0  0  0  0  0  0
  -19.5329  -26.7129   22.4821 C   0  0  0  0  0  0  0  0  0  0  0  0
  -23.1531   -9.7017   19.9331 C   0  0  0  0  0  0  0  0  0  0  0  0
  -23.7620   -9.8721   22.2649 C   0  0  0  0  0  0  0  0  0  0  0  0
  -18.3574  -28.7571   22.9874 C   0  0  0  0  0  0  0  0  0  0  0  0
  -20.7243  -27.4289   22.3710 C   0  0  0  0  0  0  0  0  0  0  0  0
  -24.5857  -25.1525   24.7274 C   0  0  0  0  0  0  0  0  0  0  0  0
  -22.4284   -8.5419   20.2071 C   0  0  0  0  0  0  0  0  0  0  0  0
  -23.0372   -8.7123   22.5389 C   0  0  0  0  0  0  0  0  0  0  0  0
  -25.1819  -24.0734   24.0763 C   0  0  0  0  0  0  0  0  0  0  0  0
  -23.4601   -5.3741   22.2092 C   0  0  0  0  0  0  0  0  0  0  0  0
  -24.0572   -4.4149   23.0270 C   0  0  0  0  0  0  0  0  0  0  0  0
  -26.9679  -25.5154   23.3346 C   0  0  0  0  0  0  0  0  0  0  0  0
  -22.2442   -4.6349   24.6088 C   0  0  0  0  0  0  0  0  0  0  0  0
  -23.8199  -10.3669   20.9620 C   0  0  0  0  0  0  0  0  0  0  0  0
  -24.0954  -12.8901   20.7066 C   0  0  0  0  0  0  0  0  0  0  0  0
  -19.5512  -29.4890   22.8882 C   0  0  0  0  0  0  0  0  0  0  0  0
  -25.1714  -26.4256   24.6777 C   0  0  0  0  0  0  0  0  0  0  0  0
  -20.7477  -28.8203   22.5663 C   0  0  0  0  0  0  0  0  0  0  0  0
  -26.3785  -26.6084   23.9880 C   0  0  0  0  0  0  0  0  0  0  0  0
  -22.3704   -8.0472   21.5100 C   0  0  0  0  0  0  0  0  0  0  0  0
  -26.3716  -24.2554   23.3773 C   0  0  0  0  0  0  0  0  0  0  0  0
  -22.2551   -5.9639   22.5912 C   0  0  0  0  0  0  0  0  0  0  0  0
  -23.4493   -4.0452   24.2268 C   0  0  0  0  0  0  0  0  0  0  0  0
  -21.6472   -5.5942   23.7909 C   0  0  0  0  0  0  0  0  0  0  0  0
  -24.5692  -11.5647   20.6796 C   0  0  0  0  0  0  0  0  0  0  0  0
  -28.6193  -21.7807   20.0776 C   0  0  0  0  0  0  0  0  0  0  0  0
  -28.6403  -22.1951   21.3884 C   0  0  0  0  0  0  0  0  0  0  0  0
  -25.1866  -13.6519   20.3669 C   0  0  0  0  0  0  0  0  0  0  0  0
  -29.5116  -20.1833   21.1651 C   0  0  0  0  0  0  0  0  0  0  0  0
  -22.7859  -13.3881   21.0117 C   0  0  0  0  0  0  0  0  0  0  0  0
  -24.2814  -29.2618   23.5519 C   0  0  0  0  0  0  0  0  0  0  0  0
  -27.0309  -30.2491   24.9617 C   0  0  0  0  0  0  0  0  0  0  0  0
  -30.1468  -29.4564   26.1062 C   0  0  0  0  0  0  0  0  0  0  0  0
  -30.6146  -14.8608   20.8365 C   0  0  0  0  0  0  0  0  0  0  0  0
  -19.5016  -30.9861   23.0639 C   0  0  0  0  0  0  0  0  0  0  0  0
  -24.5298  -27.5736   25.4077 C   0  0  0  0  0  0  0  0  0  0  0  0
  -27.0583  -27.9508   23.9214 C   0  0  0  0  0  0  0  0  0  0  0  0
  -20.8716  -31.6177   23.2971 C   0  0  0  0  0  0  0  0  0  0  0  0
  -29.7041  -12.3003   18.5361 C   0  0  0  0  0  0  0  0  0  0  0  0
  -21.8876  -31.0730   22.2982 C   0  0  0  0  0  0  0  0  0  0  0  0
  -28.2507  -11.9860   18.8951 C   0  0  0  0  0  0  0  0  0  0  0  0
  -30.5345  -12.6233   19.7763 C   0  0  0  0  0  0  0  0  0  0  0  0
  -28.5263  -13.3737   20.9920 C   0  0  0  0  0  0  0  0  0  0  0  0
  -29.5646  -18.1163   22.5241 C   0  0  0  0  0  0  0  0  0  0  0  0
  -30.7241  -18.0626   20.7713 C   0  0  0  0  0  0  0  0  0  0  0  0
  -22.0646  -29.5586   22.4616 C   0  0  1  0  0  0  0  0  0  0  0  0
  -24.9441  -28.9360   24.8605 C   0  0  1  0  0  0  0  0  0  0  0  0
  -27.6361  -13.0963   19.7685 C   0  0  2  0  0  0  0  0  0  0  0  0
  -30.5375  -17.0831   21.9386 C   0  0  0  0  0  0  0  0  0  0  0  0
  -28.1089  -22.4983   18.8984 C   0  0  0  0  0  0  0  0  0  0  0  0
  -32.1737  -30.4822   27.1724 C   0  0  0  0  0  0  0  0  0  0  0  0
  -27.8201  -31.4714   22.2797 C   0  0  0  0  0  0  0  0  0  0  0  0
  -30.1733  -31.6245   23.1208 C   0  0  0  0  0  0  0  0  0  0  0  0
  -28.3552  -32.8884   24.2697 C   0  0  0  0  0  0  0  0  0  0  0  0
  -29.4590  -21.1220   23.4982 C   0  0  0  0  0  0  0  0  0  0  0  0
  -29.9035  -27.7325   28.4994 C   0  0  0  0  0  0  0  0  0  0  0  0
  -28.1734  -23.4619   22.0432 C   0  0  0  0  0  0  0  0  0  1  0  0
  -28.4705  -30.3757   24.5252 C   0  0  1  0  0  0  0  0  0  0  0  0
  -30.8503  -29.7729   27.4136 C   0  0  2  0  0  0  0  0  0  0  0  0
  -28.6912  -31.5650   23.5483 C   0  0  0  0  0  0  0  0  0  0  0  0
  -25.8608  -11.4856   20.3486 N   0  0  0  0  0  0  0  0  0  0  0  0
  -29.1628  -20.5274   19.9453 N   0  0  0  0  0  0  0  0  0  0  0  0
  -29.2143  -21.1612   22.0731 N   0  0  0  0  0  0  0  0  0  0  0  0
  -26.2078  -12.7708   20.1645 N   0  0  0  0  0  0  0  0  0  0  0  0
  -30.0944  -19.0358   21.5857 N   0  0  0  0  0  0  0  0  0  0  0  0
  -26.3886  -29.0435   24.6460 N   0  0  0  0  0  0  0  0  0  0  0  0
  -29.8979  -13.6847   20.5600 N   0  0  0  0  0  0  0  0  0  0  0  0
  -25.3625  -14.9827   20.2245 N   0  0  0  0  0  0  0  0  0  0  0  0
  -21.7811  -12.4680   21.3406 N   0  0  0  0  0  0  0  0  0  0  0  0
  -22.9006  -29.2680   23.6066 N   0  0  0  0  0  0  0  0  0  0  0  0
  -29.2626  -30.4520   25.7480 N   0  0  0  0  0  0  0  0  0  0  0  0
  -29.9353  -15.8184   21.5796 N   0  0  0  0  0  0  0  0  0  0  0  0
  -31.1205  -28.5194   28.1730 N   0  3  0  0  0  0  0  0  0  0  0  0
  -22.5108  -14.6114   20.9772 O   0  0  0  0  0  0  0  0  0  0  0  0
  -24.9717  -29.4920   22.5659 O   0  0  0  0  0  0  0  0  0  0  0  0
  -26.4982  -31.1827   25.5669 O   0  0  0  0  0  0  0  0  0  0  0  0
  -30.3629  -28.4306   25.4648 O   0  0  0  0  0  0  0  0  0  0  0  0
  -31.7720  -15.0459   20.4453 O   0  0  0  0  0  0  0  0  0  0  0  0
  -21.6631   -6.9155   21.7778 O   0  0  0  0  0  0  0  0  0  0  0  0
  -26.9553  -23.2039   22.7404 O   0  0  0  0  0  0  0  0  0  1  0  0
  -24.0220   -3.1229   25.0113 F   0  0  0  0  0  0  0  0  0  0  0  0
  -20.4889   -6.1564   24.1627 F   0  0  0  0  0  0  0  0  0  0  0  0
  1  2  1  0  0  0  0
  1  5  2  0  0  0  0
  2  6  2  0  0  0  0
  3  8  2  0  0  0  0
  3 15  1  0  0  0  0
  4  9  1  0  0  0  0
  4 15  2  0  0  0  0
  5 17  1  0  0  0  0
  6 19  1  0  0  0  0
  7 10  2  0  0  0  0
  7 18  1  0  0  0  0
  8 21  1  0  0  0  0
  9 21  2  0  0  0  0
 10 22  1  0  0  0  0
 11 12  2  0  0  0  0
 11 23  1  0  0  0  0
 12 24  1  0  0  0  0
 13 20  1  0  0  0  0
 13 22  2  0  0  0  0
 14 24  2  0  0  0  0
 14 25  1  0  0  0  0
 15 26  1  0  0  0  0
 16 26  1  0  0  0  0
 16 29  2  0  0  0  0
 16 31  1  0  0  0  0
 17 19  2  0  0  0  0
 17 36  1  0  0  0  0
 18 20  2  0  0  0  0
 18 37  1  0  0  0  0
 19 47  1  0  0  0  0
 20 38  1  0  0  0  0
 21 80  1  0  0  0  0
 22 81  1  0  0  0  0
 23 25  2  0  0  0  0
 23 80  1  0  0  0  0
 24 82  1  0  0  0  0
 25 83  1  0  0  0  0
 26 62  2  0  0  0  0
 27 28  2  0  0  0  0
 27 51  1  0  0  0  0
 27 63  1  0  0  0  0
 28 58  1  0  0  0  0
 28 64  1  0  0  0  0
 29 65  1  0  0  0  0
 29 69  1  0  0  0  0
 30 63  2  0  0  0  0
 30 64  1  0  0  0  0
 30 66  1  0  0  0  0
 31 70  1  0  0  0  0
 31 75  2  0  0  0  0
 32 48  1  0  0  0  0
 32 71  1  0  0  0  0
 32 76  2  0  0  0  0
 33 59  1  0  0  0  0
 33 67  1  0  0  0  0
 33 77  2  0  0  0  0
 34 60  1  0  0  0  0
 34 72  1  0  0  0  0
 34 78  2  0  0  0  0
 35 68  1  0  0  0  0
 35 73  1  0  0  0  0
 35 79  2  0  0  0  0
 36 39  1  0  0  0  0
 37 48  1  0  0  0  0
 38 67  1  0  0  0  0
 39 41  1  0  0  0  0
 40 42  1  0  0  0  0
 40 43  1  0  0  0  0
 41 47  1  0  0  0  0
 42 49  1  0  0  0  0
 43 68  1  0  0  0  0
 44 49  1  0  0  0  0
 44 68  1  0  0  0  0
 45 50  1  0  0  0  0
 45 66  1  0  0  0  0
 46 50  1  0  0  0  0
 46 66  1  0  0  0  0
 47 71  1  0  0  0  0
 48 67  1  0  0  0  0
 49 65  1  0  0  0  0
 50 73  1  0  0  0  0
 52 60  1  0  0  0  0
 53 61  1  0  0  0  0
 54 61  1  0  0  0  0
 55 61  1  0  0  0  0
 56 64  1  0  0  0  0
 57 74  1  0  0  0  0
 58 81  1  0  0  0  0
 59 61  1  0  0  0  0
 59 72  1  0  0  0  0
 60 74  1  0  0  0  0
 62 65  1  0  0  0  0
M  CHG  1  74   1
M  ISO  4  35 100  58 101  73 100  81 101
M  END
> <Batch ID>
0184

> <Smiles>
CNC(C)C(=O)NC(C(=O)N1Cc2cc([101O:1][101CH2:1]c3c(C)nc(N4CC([100NH:0][100C:0](=O)N5CCCC(n6nc(-c7ccc(Oc8ccc(F)cc8F)cc7)c(C(N)=O)c6N)C5)C4)n3C)ccc2CC1C(=O)NC1CCCc2ccccc21)C(C)(C)C

> <Shape>
0.337

> <Color>
0.231

> <Negative vol penalty>
0.000

$$$$
