
  -OEChem-04052323123D

 83 92  0     1  0  0  0  0  0999 V2000
  -21.6082  -12.1266   19.9136 C   0  0  0  0  0  0  0  0  0  0  0  0
  -21.5893  -13.2158   20.7788 C   0  0  0  0  0  0  0  0  0  0  0  0
  -26.2036  -27.5748   20.8586 C   0  0  0  0  0  0  0  0  0  0  0  0
  -25.7212  -29.2937   19.2307 C   0  0  0  0  0  0  0  0  0  0  0  0
  -22.8254  -11.5787   19.5108 C   0  0  0  0  0  0  0  0  0  0  0  0
  -22.7877  -13.7573   21.2426 C   0  0  0  0  0  0  0  0  0  0  0  0
  -22.8317  -18.8179   21.0621 C   0  0  0  0  0  0  0  0  0  0  0  0
  -27.5200  -27.5115   20.4017 C   0  0  0  0  0  0  0  0  0  0  0  0
  -27.0377  -29.2304   18.7738 C   0  0  0  0  0  0  0  0  0  0  0  0
  -22.1444  -19.4969   22.0673 C   0  0  0  0  0  0  0  0  0  0  0  0
  -30.3724  -29.2897   20.7691 C   0  0  0  0  0  0  0  0  0  0  0  0
  -31.3888  -29.2535   21.7237 C   0  0  0  0  0  0  0  0  0  0  0  0
  -24.2276  -19.8885   23.2189 C   0  0  0  0  0  0  0  0  0  0  0  0
  -32.1219  -27.1187   20.8622 C   0  0  0  0  0  0  0  0  0  0  0  0
  -20.4410  -23.0419   28.0002 C   0  0  0  0  0  0  0  0  0  0  0  0
  -25.3042  -28.4659   20.2730 C   0  0  0  0  0  0  0  0  0  0  0  0
  -23.4370  -29.3567   21.7656 C   0  0  0  0  0  0  0  0  0  0  0  0
  -24.0395  -12.1198   19.9622 C   0  0  0  0  0  0  0  0  0  0  0  0
  -24.2232  -18.6595   21.1334 C   0  0  0  0  0  0  0  0  0  0  0  0
  -24.0223  -13.2153   20.8465 C   0  0  0  0  0  0  0  0  0  0  0  0
  -24.9305  -19.2094   22.2121 C   0  0  0  0  0  0  0  0  0  0  0  0
  -27.9370  -28.3393   19.3594 C   0  0  0  0  0  0  0  0  0  0  0  0
  -22.8419  -20.0298   23.1473 C   0  0  0  0  0  0  0  0  0  0  0  0
  -30.2307  -28.2403   19.8611 C   0  0  0  0  0  0  0  0  0  0  0  0
  -32.2636  -28.1681   21.7702 C   0  0  0  0  0  0  0  0  0  0  0  0
  -31.1054  -27.1548   19.9076 C   0  0  0  0  0  0  0  0  0  0  0  0
  -23.9441  -28.5313   20.7441 C   0  0  0  0  0  0  0  0  0  0  0  0
  -21.6307  -22.4434   28.3620 C   0  0  0  0  0  0  0  0  0  0  0  0
  -20.1347  -22.9967   26.6555 C   0  0  0  0  0  0  0  0  0  0  0  0
  -22.1013  -29.0432   21.8290 C   0  0  0  0  0  0  0  0  0  0  0  0
  -22.0544  -21.8660   26.2046 C   0  0  0  0  0  0  0  0  0  0  0  0
  -24.1129  -30.3207   22.5838 C   0  0  0  0  0  0  0  0  0  0  0  0
  -26.1908  -16.1698   21.3172 C   0  0  0  0  0  0  0  0  0  0  0  0
  -28.4771  -18.4488   20.9989 C   0  0  0  0  0  0  0  0  0  0  0  0
  -29.3765  -21.7208   21.3615 C   0  0  0  0  0  0  0  0  0  0  0  0
  -18.0910  -25.0712   21.9182 C   0  0  0  0  0  0  0  0  0  0  0  0
  -25.3293  -11.4639   19.5368 C   0  0  0  0  0  0  0  0  0  0  0  0
  -24.9531  -17.9476   20.0276 C   0  0  0  0  0  0  0  0  0  0  0  0
  -26.4272  -19.0843   22.3253 C   0  0  0  0  0  0  0  0  0  0  0  0
  -26.5620  -12.3315   19.7771 C   0  0  0  0  0  0  0  0  0  0  0  0
  -19.1839  -26.3434   18.7372 C   0  0  0  0  0  0  0  0  0  0  0  0
  -26.5241  -12.9369   21.1767 C   0  0  0  0  0  0  0  0  0  0  0  0
  -20.5033  -27.0440   19.0445 C   0  0  0  0  0  0  0  0  0  0  0  0
  -18.9988  -25.1196   19.6243 C   0  0  0  0  0  0  0  0  0  0  0  0
  -20.3477  -26.1609   21.4275 C   0  0  0  0  0  0  0  0  0  0  0  0
  -17.5368  -24.3077   24.2875 C   0  0  0  0  0  0  0  0  0  0  0  0
  -19.6289  -24.3294   23.9006 C   0  0  0  0  0  0  0  0  0  0  0  0
  -25.3017  -13.8461   21.3516 C   0  0  1  0  0  0  0  0  0  0  0  0
  -26.3089  -17.3997   20.4623 C   0  0  1  0  0  0  0  0  0  0  0  0
  -20.5895  -27.3957   20.5366 C   0  0  1  0  0  0  0  0  0  0  0  0
  -18.7213  -23.4817   24.8054 C   0  0  0  0  0  0  0  0  0  0  0  0
  -22.0470  -22.4417   29.7945 C   0  0  0  0  0  0  0  0  0  0  0  0
  -31.3229  -23.2745   21.0534 C   0  0  0  0  0  0  0  0  0  0  0  0
  -29.7663  -17.3313   23.5286 C   0  0  0  0  0  0  0  0  0  0  0  0
  -31.0987  -19.4441   23.6991 C   0  0  0  0  0  0  0  0  0  0  0  0
  -31.3802  -17.9504   21.7212 C   0  0  0  0  0  0  0  0  0  0  0  0
  -27.8997  -23.3678   19.3954 C   0  0  0  0  0  0  0  0  0  0  0  0
  -22.9503  -21.2130   25.2075 C   0  0  0  0  0  0  0  0  0  1  0  0
  -29.2641  -19.3142   21.9532 C   0  0  1  0  0  0  0  0  0  0  0  0
  -30.0736  -22.6844   20.4180 C   0  0  2  0  0  0  0  0  0  0  0  0
  -30.3489  -18.5109   22.7246 C   0  0  0  0  0  0  0  0  0  0  0  0
  -23.0069  -27.7519   20.1981 N   0  0  0  0  0  0  0  0  0  0  0  0
  -22.4647  -21.8440   27.4870 N   0  0  0  0  0  0  0  0  0  0  0  0
  -20.9215  -22.4150   25.7265 N   0  0  0  0  0  0  0  0  0  0  0  0
  -21.8975  -28.0861   20.8790 N   0  0  0  0  0  0  0  0  0  0  0  0
  -27.0949  -18.3740   21.2221 N   0  0  0  0  0  0  0  0  0  0  0  0
  -19.1209  -25.4465   21.0482 N   0  0  0  0  0  0  0  0  0  0  0  0
  -18.4193  -24.7543   23.2163 N   0  0  0  0  0  0  0  0  0  0  0  0
  -21.0930  -29.4955   22.6044 N   0  0  0  0  0  0  0  0  0  0  0  0
  -25.4864  -30.5185   22.3869 N   0  0  0  0  0  0  0  0  0  0  0  0
  -25.5254  -15.1230   20.7082 N   0  0  0  0  0  0  0  0  0  0  0  0
  -29.7903  -20.4208   21.1613 N   0  0  0  0  0  0  0  0  0  0  0  0
  -29.1596  -23.8029   20.0515 N   0  3  0  0  0  0  0  0  0  0  0  0
  -23.5200  -30.9751   23.4747 O   0  0  0  0  0  0  0  0  0  0  0  0
  -26.6693  -16.1699   22.4454 O   0  0  0  0  0  0  0  0  0  0  0  0
  -29.0659  -17.8664   20.0847 O   0  0  0  0  0  0  0  0  0  0  0  0
  -28.5505  -22.0855   22.1954 O   0  0  0  0  0  0  0  0  0  0  0  0
  -16.9144  -24.9899   21.5409 O   0  0  0  0  0  0  0  0  0  0  0  0
  -29.2215  -28.2780   18.9135 O   0  0  0  0  0  0  0  0  0  0  0  0
  -22.1688  -20.6970   24.1369 O   0  0  0  0  0  0  0  0  0  1  0  0
  -18.9759  -23.5661   26.2179 O   0  0  0  0  0  0  0  0  0  0  0  0
  -33.2405  -28.1342   22.6859 F   0  0  0  0  0  0  0  0  0  0  0  0
  -30.9750  -26.1443   19.0372 F   0  0  0  0  0  0  0  0  0  0  0  0
  1  2  1  0  0  0  0
  1  5  2  0  0  0  0
  2  6  2  0  0  0  0
  3  8  2  0  0  0  0
  3 16  1  0  0  0  0
  4  9  1  0  0  0  0
  4 16  2  0  0  0  0
  5 18  1  0  0  0  0
  6 20  1  0  0  0  0
  7 10  2  0  0  0  0
  7 19  1  0  0  0  0
  8 22  1  0  0  0  0
  9 22  2  0  0  0  0
 10 23  1  0  0  0  0
 11 12  2  0  0  0  0
 11 24  1  0  0  0  0
 12 25  1  0  0  0  0
 13 21  1  0  0  0  0
 13 23  2  0  0  0  0
 14 25  2  0  0  0  0
 14 26  1  0  0  0  0
 15 28  1  0  0  0  0
 15 29  2  0  0  0  0
 16 27  1  0  0  0  0
 17 27  1  0  0  0  0
 17 30  2  0  0  0  0
 17 32  1  0  0  0  0
 18 20  2  0  0  0  0
 18 37  1  0  0  0  0
 19 21  2  0  0  0  0
 19 38  1  0  0  0  0
 20 48  1  0  0  0  0
 21 39  1  0  0  0  0
 22 79  1  0  0  0  0
 23 80  1  0  0  0  0
 24 26  2  0  0  0  0
 24 79  1  0  0  0  0
 25 82  1  0  0  0  0
 26 83  1  0  0  0  0
 27 62  2  0  0  0  0
 28 52  1  0  0  0  0
 28 63  2  0  0  0  0
 29 64  1  0  0  0  0
 29 81  1  0  0  0  0
 30 65  1  0  0  0  0
 30 69  1  0  0  0  0
 31 58  1  0  0  0  0
 31 63  1  0  0  0  0
 31 64  2  0  0  0  0
 32 70  1  0  0  0  0
 32 74  2  0  0  0  0
 33 49  1  0  0  0  0
 33 71  1  0  0  0  0
 33 75  2  0  0  0  0
 34 59  1  0  0  0  0
 34 66  1  0  0  0  0
 34 76  2  0  0  0  0
 35 60  1  0  0  0  0
 35 72  1  0  0  0  0
 35 77  2  0  0  0  0
 36 67  1  0  0  0  0
 36 68  1  0  0  0  0
 36 78  2  0  0  0  0
 37 40  1  0  0  0  0
 38 49  1  0  0  0  0
 39 66  1  0  0  0  0
 40 42  1  0  0  0  0
 41 43  1  0  0  0  0
 41 44  1  0  0  0  0
 42 48  1  0  0  0  0
 43 50  1  0  0  0  0
 44 67  1  0  0  0  0
 45 50  1  0  0  0  0
 45 67  1  0  0  0  0
 46 51  1  0  0  0  0
 46 68  1  0  0  0  0
 47 51  1  0  0  0  0
 47 68  1  0  0  0  0
 48 71  1  0  0  0  0
 49 66  1  0  0  0  0
 50 65  1  0  0  0  0
 51 81  1  0  0  0  0
 53 60  1  0  0  0  0
 54 61  1  0  0  0  0
 55 61  1  0  0  0  0
 56 61  1  0  0  0  0
 57 73  1  0  0  0  0
 58 80  1  0  0  0  0
 59 61  1  0  0  0  0
 59 72  1  0  0  0  0
 60 73  1  0  0  0  0
 62 65  1  0  0  0  0
M  CHG  1  73   1
M  ISO  4  36 100  58 101  68 100  80 101
M  END
> <Batch ID>
0185

> <Smiles>
CNC(C)C(=O)NC(C(=O)N1Cc2cc([101O:1][101CH2:1]c3nc(C)cc(OC4C[100N:0]([100C:0](=O)N5CCCC(n6nc(-c7ccc(Oc8ccc(F)cc8F)cc7)c(C(N)=O)c6N)C5)C4)n3)ccc2CC1C(=O)NC1CCCc2ccccc21)C(C)(C)C

> <Shape>
0.216

> <Color>
0.071

> <Negative vol penalty>
0.000

$$$$

  -OEChem-04052323123D

 82 90  0     1  0  0  0  0  0999 V2000
  -21.4137  -28.4692   20.7914 C   0  0  0  0  0  0  0  0  0  0  0  0
  -22.1622  -27.3018   20.9026 C   0  0  0  0  0  0  0  0  0  0  0  0
  -23.0848   -9.8741   19.9267 C   0  0  0  0  0  0  0  0  0  0  0  0
  -23.8600   -9.8542   22.2149 C   0  0  0  0  0  0  0  0  0  0  0  0
  -22.0549  -29.7069   20.7632 C   0  0  0  0  0  0  0  0  0  0  0  0
  -23.5525  -27.3714   20.9846 C   0  0  0  0  0  0  0  0  0  0  0  0
  -27.2401  -23.6871   24.1992 C   0  0  0  0  0  0  0  0  0  0  0  0
  -22.3503   -8.7126   20.1654 C   0  0  0  0  0  0  0  0  0  0  0  0
  -23.1253   -8.6928   22.4536 C   0  0  0  0  0  0  0  0  0  0  0  0
  -28.0059  -22.5795   23.8382 C   0  0  0  0  0  0  0  0  0  0  0  0
  -19.9066   -7.8651   23.0662 C   0  0  0  0  0  0  0  0  0  0  0  0
  -19.1578   -7.8038   24.2414 C   0  0  0  0  0  0  0  0  0  0  0  0
  -29.9389  -24.0023   23.5965 C   0  0  0  0  0  0  0  0  0  0  0  0
  -20.4168   -5.8646   24.9425 C   0  0  0  0  0  0  0  0  0  0  0  0
  -23.8397  -10.4449   20.9514 C   0  0  0  0  0  0  0  0  0  0  0  0
  -24.1641  -12.9737   20.8644 C   0  0  0  0  0  0  0  0  0  0  0  0
  -23.4531  -29.7923   20.8546 C   0  0  0  0  0  0  0  0  0  0  0  0
  -27.8163  -24.9645   24.2511 C   0  0  0  0  0  0  0  0  0  0  0  0
  -24.2130  -28.6114   20.9562 C   0  0  0  0  0  0  0  0  0  0  0  0
  -29.1788  -25.1241   23.9610 C   0  0  0  0  0  0  0  0  0  0  0  0
  -22.3705   -8.1220   21.4289 C   0  0  0  0  0  0  0  0  0  0  0  0
  -29.3548  -22.7373   23.5339 C   0  0  0  0  0  0  0  0  0  0  0  0
  -20.9105   -6.9261   22.8291 C   0  0  0  0  0  0  0  0  0  0  0  0
  -19.4128   -6.8036   25.1795 C   0  0  0  0  0  0  0  0  0  0  0  0
  -21.1656   -5.9259   23.7673 C   0  0  0  0  0  0  0  0  0  0  0  0
  -24.5992  -11.6443   20.7053 C   0  0  0  0  0  0  0  0  0  0  0  0
  -25.2489  -13.7354   20.5045 C   0  0  0  0  0  0  0  0  0  0  0  0
  -22.8931  -13.4751   21.2989 C   0  0  0  0  0  0  0  0  0  0  0  0
  -29.0693  -18.3648   20.8894 C   0  0  0  0  0  0  0  0  0  0  0  0
  -27.3311  -27.7080   22.7209 C   0  0  0  0  0  0  0  0  0  0  0  0
  -29.5075  -28.8298   24.8487 C   0  0  0  0  0  0  0  0  0  0  0  0
  -32.1086  -28.1649   26.9556 C   0  0  0  0  0  0  0  0  0  0  0  0
  -30.7269  -14.7883   20.6709 C   0  0  0  0  0  0  0  0  0  0  0  0
  -24.1044  -31.1502   20.7722 C   0  0  0  0  0  0  0  0  0  0  0  0
  -26.9830  -26.1451   24.6683 C   0  0  0  0  0  0  0  0  0  0  0  0
  -29.8500  -26.4711   24.0215 C   0  0  0  0  0  0  0  0  0  0  0  0
  -25.5570  -31.1584   21.2413 C   0  0  0  0  0  0  0  0  0  0  0  0
  -29.5891  -12.4297   18.2586 C   0  0  0  0  0  0  0  0  0  0  0  0
  -26.3216  -29.9878   20.6315 C   0  0  0  0  0  0  0  0  0  0  0  0
  -28.1566  -12.1204   18.6969 C   0  0  0  0  0  0  0  0  0  0  0  0
  -31.6509  -16.6620   23.1745 C   0  0  0  0  0  0  0  0  0  0  0  0
  -30.5128  -12.6399   19.4564 C   0  0  0  0  0  0  0  0  0  0  0  0
  -28.6156  -13.3389   20.8656 C   0  0  0  0  0  0  0  0  0  0  0  0
  -25.7215  -28.6473   21.0724 C   0  0  1  0  0  0  0  0  0  0  0  0
  -29.7683  -18.0495   22.1818 C   0  0  1  0  0  0  0  0  0  0  0  0
  -27.5518  -27.4772   24.1892 C   0  0  1  0  0  0  0  0  0  0  0  0
  -27.6347  -13.1742   19.6921 C   0  0  2  0  0  0  0  0  0  0  0  0
  -30.7869  -16.9218   21.9373 C   0  0  2  0  0  0  0  0  0  0  0  0
  -32.3299  -17.9407   23.6595 C   0  0  2  0  0  0  0  0  0  0  0  0
  -30.4449  -19.3232   22.7125 C   0  0  1  0  0  0  0  0  0  0  0  0
  -27.5812  -18.1759   20.8204 C   0  0  0  0  0  0  0  0  0  0  0  0
  -33.1111  -17.7213   24.9471 C   0  0  0  0  0  0  0  0  0  0  0  0
  -33.7056  -29.2908   28.5302 C   0  0  0  0  0  0  0  0  0  0  0  0
  -31.0975  -29.8934   22.4717 C   0  0  0  0  0  0  0  0  0  0  0  0
  -33.0717  -30.1399   23.9916 C   0  0  0  0  0  0  0  0  0  0  0  0
  -30.9904  -31.4424   24.4321 C   0  0  0  0  0  0  0  0  0  0  0  0
  -31.1255  -26.5919   29.2617 C   0  0  0  0  0  0  0  0  0  0  0  0
  -29.4444  -20.3933   23.1420 C   0  0  0  0  0  0  0  0  0  1  0  0
  -31.0118  -28.9533   24.8748 C   0  0  1  0  0  0  0  0  0  0  0  0
  -32.3705  -28.5755   28.3934 C   0  0  2  0  0  0  0  0  0  0  0  0
  -31.5301  -30.0820   23.9394 C   0  0  0  0  0  0  0  0  0  0  0  0
  -25.8619  -11.5628   20.2774 N   0  0  0  0  0  0  0  0  0  0  0  0
  -29.7131  -18.7872   19.8510 N   0  0  0  0  0  0  0  0  0  0  0  0
  -26.2295  -12.8505   20.1645 N   0  0  0  0  0  0  0  0  0  0  0  0
  -28.9915  -27.5957   24.4284 N   0  0  0  0  0  0  0  0  0  0  0  0
  -29.9614  -13.6523   20.3603 N   0  0  0  0  0  0  0  0  0  0  0  0
  -25.4500  -15.0691   20.4487 N   0  0  0  0  0  0  0  0  0  0  0  0
  -21.8895  -12.5546   21.6301 N   0  0  0  0  0  0  0  0  0  0  0  0
  -26.1332  -28.3289   22.4228 N   0  0  0  0  0  0  0  0  0  0  0  0
  -31.3835  -29.1205   26.2756 N   0  0  0  0  0  0  0  0  0  0  0  0
  -30.1273  -15.7013   21.5298 N   0  0  0  0  0  0  0  0  0  0  0  0
  -31.2708  -18.9694   23.9182 N   0  3  0  0  0  0  0  0  0  0  0  0
  -32.3863  -27.3774   29.2796 N   0  3  0  0  0  0  0  0  0  0  0  0
  -22.6492  -14.7032   21.3749 O   0  0  0  0  0  0  0  0  0  0  0  0
  -28.1852  -27.3507   21.9181 O   0  0  0  0  0  0  0  0  0  0  0  0
  -28.8157  -29.7905   25.1956 O   0  0  0  0  0  0  0  0  0  0  0  0
  -32.5104  -27.1044   26.4820 O   0  0  0  0  0  0  0  0  0  0  0  0
  -31.8587  -14.9776   20.2123 O   0  0  0  0  0  0  0  0  0  0  0  0
  -21.6536   -6.9888   21.6622 O   0  0  0  0  0  0  0  0  0  0  0  0
  -30.1044  -21.6579   23.1806 O   0  0  0  0  0  0  0  0  0  1  0  0
  -18.6947   -6.7458   26.3087 F   0  0  0  0  0  0  0  0  0  0  0  0
  -22.1295   -5.0218   23.5456 F   0  0  0  0  0  0  0  0  0  0  0  0
  1  2  1  0  0  0  0
  1  5  2  0  0  0  0
  2  6  2  0  0  0  0
  3  8  2  0  0  0  0
  3 15  1  0  0  0  0
  4  9  1  0  0  0  0
  4 15  2  0  0  0  0
  5 17  1  0  0  0  0
  6 19  1  0  0  0  0
  7 10  2  0  0  0  0
  7 18  1  0  0  0  0
  8 21  1  0  0  0  0
  9 21  2  0  0  0  0
 10 22  1  0  0  0  0
 11 12  2  0  0  0  0
 11 23  1  0  0  0  0
 12 24  1  0  0  0  0
 13 20  1  0  0  0  0
 13 22  2  0  0  0  0
 14 24  2  0  0  0  0
 14 25  1  0  0  0  0
 15 26  1  0  0  0  0
 16 26  1  0  0  0  0
 16 27  2  0  0  0  0
 16 28  1  0  0  0  0
 17 19  2  0  0  0  0
 17 34  1  0  0  0  0
 18 20  2  0  0  0  0
 18 35  1  0  0  0  0
 19 44  1  0  0  0  0
 20 36  1  0  0  0  0
 21 79  1  0  0  0  0
 22 80  1  0  0  0  0
 23 25  2  0  0  0  0
 23 79  1  0  0  0  0
 24 81  1  0  0  0  0
 25 82  1  0  0  0  0
 26 62  2  0  0  0  0
 27 64  1  0  0  0  0
 27 67  1  0  0  0  0
 28 68  1  0  0  0  0
 28 74  2  0  0  0  0
 29 45  1  0  0  0  0
 29 51  1  0  0  0  0
 29 63  2  0  0  0  0
 30 46  1  0  0  0  0
 30 69  1  0  0  0  0
 30 75  2  0  0  0  0
 31 59  1  0  0  0  0
 31 65  1  0  0  0  0
 31 76  2  0  0  0  0
 32 60  1  0  0  0  0
 32 70  1  0  0  0  0
 32 77  2  0  0  0  0
 33 66  1  0  0  0  0
 33 71  1  0  0  0  0
 33 78  2  0  0  0  0
 34 37  1  0  0  0  0
 35 46  1  0  0  0  0
 36 65  1  0  0  0  0
 37 39  1  0  0  0  0
 38 40  1  0  0  0  0
 38 42  1  0  0  0  0
 39 44  1  0  0  0  0
 40 47  1  0  0  0  0
 41 48  1  0  0  0  0
 41 49  1  0  0  0  0
 42 66  1  0  0  0  0
 43 47  1  0  0  0  0
 43 66  1  0  0  0  0
 44 69  1  0  0  0  0
 45 48  1  0  0  0  0
 45 50  1  0  0  0  0
 46 65  1  0  0  0  0
 47 64  1  0  0  0  0
 48 71  1  0  0  0  0
 49 52  1  0  0  0  0
 49 72  1  0  0  0  0
 50 58  1  0  0  0  0
 50 72  1  0  0  0  0
 53 60  1  0  0  0  0
 54 61  1  0  0  0  0
 55 61  1  0  0  0  0
 56 61  1  0  0  0  0
 57 73  1  0  0  0  0
 58 80  1  0  0  0  0
 59 61  1  0  0  0  0
 59 70  1  0  0  0  0
 60 73  1  0  0  0  0
 62 64  1  0  0  0  0
M  CHG  2  72   1  73   1
M  ISO  4  33 100  58 101  71 100  80 101
M  END
> <Batch ID>
0185

> <Smiles>
CNC(C)C(=O)NC(C(=O)N1Cc2cc([101O:1][101CH2:1]C3NC(C)CC([100NH:0][100C:0](=O)N4CCCC(n5nc(-c6ccc(Oc7ccc(F)cc7F)cc6)c(C(N)=O)c5N)C4)C3=C(C)N)ccc2CC1C(=O)NC1CCCc2ccccc21)C(C)(C)C

> <Shape>
0.259

> <Color>
0.213

> <Negative vol penalty>
0.000

$$$$

  -OEChem-04052323123D

 83 92  0     1  0  0  0  0  0999 V2000
  -20.0072  -20.4855   23.6075 C   0  0  0  0  0  0  0  0  0  0  0  0
  -21.2765  -20.9421   23.2671 C   0  0  0  0  0  0  0  0  0  0  0  0
  -23.2004   -9.7806   20.9520 C   0  0  0  0  0  0  0  0  0  0  0  0
  -23.9013  -10.4838   23.1545 C   0  0  0  0  0  0  0  0  0  0  0  0
  -18.8812  -21.2201   23.2383 C   0  0  0  0  0  0  0  0  0  0  0  0
  -21.4204  -22.1331   22.5563 C   0  0  0  0  0  0  0  0  0  0  0  0
  -25.0811  -25.0858   24.4339 C   0  0  0  0  0  0  0  0  0  0  0  0
  -22.5043   -8.7110   21.5149 C   0  0  0  0  0  0  0  0  0  0  0  0
  -23.2052   -9.4142   23.7175 C   0  0  0  0  0  0  0  0  0  0  0  0
  -26.3964  -24.7474   24.1189 C   0  0  0  0  0  0  0  0  0  0  0  0
  -19.5603   -8.2139   23.1019 C   0  0  0  0  0  0  0  0  0  0  0  0
  -18.2695   -7.9635   22.6363 C   0  0  0  0  0  0  0  0  0  0  0  0
  -26.4163  -26.4446   22.4048 C   0  0  0  0  0  0  0  0  0  0  0  0
  -29.4317  -18.4191   21.4333 C   0  0  0  0  0  0  0  0  0  0  0  0
  -18.9510   -5.7543   21.9349 C   0  0  0  0  0  0  0  0  0  0  0  0
  -23.8990  -10.6670   21.7718 C   0  0  0  0  0  0  0  0  0  0  0  0
  -24.1272  -13.0657   20.9343 C   0  0  0  0  0  0  0  0  0  0  0  0
  -19.0118  -22.4256   22.5310 C   0  0  0  0  0  0  0  0  0  0  0  0
  -24.4188  -26.1005   23.7281 C   0  0  0  0  0  0  0  0  0  0  0  0
  -20.2950  -22.8838   22.1761 C   0  0  0  0  0  0  0  0  0  0  0  0
  -25.0935  -26.7957   22.7144 C   0  0  0  0  0  0  0  0  0  0  0  0
  -29.8708  -19.7260   21.4965 C   0  0  0  0  0  0  0  0  0  0  0  0
  -31.1284  -20.0793   21.0116 C   0  0  0  0  0  0  0  0  0  0  0  0
  -22.5067   -8.5278   22.8977 C   0  0  0  0  0  0  0  0  0  0  0  0
  -27.0633  -25.4248   23.1023 C   0  0  0  0  0  0  0  0  0  0  0  0
  -20.5465   -7.2345   22.9839 C   0  0  0  0  0  0  0  0  0  0  0  0
  -17.9649   -6.7337   22.0528 C   0  0  0  0  0  0  0  0  0  0  0  0
  -20.2418   -6.0047   22.4005 C   0  0  0  0  0  0  0  0  0  0  0  0
  -24.6187  -11.7717   21.1908 C   0  0  0  0  0  0  0  0  0  0  0  0
  -31.9303  -19.1044   20.4664 C   0  0  0  0  0  0  0  0  0  0  0  0
  -30.3127  -17.5025   20.8778 C   0  0  0  0  0  0  0  0  0  0  0  0
  -25.1926  -13.7346   20.3827 C   0  0  0  0  0  0  0  0  0  0  0  0
  -22.8242  -13.6142   21.1733 C   0  0  0  0  0  0  0  0  0  0  0  0
  -21.8362  -26.2289   21.8793 C   0  0  0  0  0  0  0  0  0  0  0  0
  -22.4149  -29.4196   21.9600 C   0  0  0  0  0  0  0  0  0  0  0  0
  -24.6669  -31.9454   22.4026 C   0  0  0  0  0  0  0  0  0  0  0  0
  -30.5988  -15.0652   20.3086 C   0  0  0  0  0  0  0  0  0  0  0  0
  -17.7631  -23.1608   22.1127 C   0  0  0  0  0  0  0  0  0  0  0  0
  -23.0089  -26.4718   24.0979 C   0  0  0  0  0  0  0  0  0  0  0  0
  -29.1365  -20.9273   22.0011 C   0  0  0  0  0  0  0  0  0  0  0  0
  -31.3719  -21.5453   21.1372 C   0  0  0  0  0  0  0  0  0  0  0  0
  -24.4339  -27.9067   21.9403 C   0  0  0  0  0  0  0  0  0  0  0  0
  -18.0199  -24.6041   21.6868 C   0  0  0  0  0  0  0  0  0  0  0  0
  -29.6564  -12.0198   18.7227 C   0  0  0  0  0  0  0  0  0  0  0  0
  -19.2139  -24.6770   20.7404 C   0  0  0  0  0  0  0  0  0  0  0  0
  -28.2214  -11.7903   19.2023 C   0  0  0  0  0  0  0  0  0  0  0  0
  -30.5295  -12.6302   19.8176 C   0  0  0  0  0  0  0  0  0  0  0  0
  -28.5572  -13.6215   20.9114 C   0  0  0  0  0  0  0  0  0  0  0  0
  -20.4932  -24.1837   21.4271 C   0  0  1  0  0  0  0  0  0  0  0  0
  -22.2599  -27.1729   22.9688 C   0  0  1  0  0  0  0  0  0  0  0  0
  -30.2906  -21.9414   22.1671 C   0  0  1  0  0  0  0  0  0  0  0  0
  -27.6233  -13.0682   19.8226 C   0  0  2  0  0  0  0  0  0  0  0  0
  -33.2792  -19.4365   19.9277 C   0  0  0  0  0  0  0  0  0  0  0  0
  -24.8521  -34.4478   22.3690 C   0  0  0  0  0  0  0  0  0  0  0  0
  -22.3571  -29.3805   18.9095 C   0  0  0  0  0  0  0  0  0  0  0  0
  -23.4642  -31.6259   18.9291 C   0  0  0  0  0  0  0  0  0  0  0  0
  -21.2058  -31.3418   19.9497 C   0  0  0  0  0  0  0  0  0  0  0  0
  -25.4905  -32.0385   25.2438 C   0  0  0  0  0  0  0  0  0  0  0  0
  -29.8308  -23.3822   22.0087 C   0  0  0  0  0  0  0  0  0  0  0  0
  -28.7400  -23.7410   23.0063 C   0  0  0  0  0  0  0  0  0  1  0  0
  -23.2270  -30.3803   21.1253 C   0  0  1  0  0  0  0  0  0  0  0  0
  -24.6040  -33.2178   23.2282 C   0  0  2  0  0  0  0  0  0  0  0  0
  -22.5756  -30.6599   19.7415 C   0  0  0  0  0  0  0  0  0  0  0  0
  -25.8968  -11.6250   20.8315 N   0  0  0  0  0  0  0  0  0  0  0  0
  -31.5470  -17.8090   20.3945 N   0  0  0  0  0  0  0  0  0  0  0  0
  -26.2173  -12.8354   20.3435 N   0  0  0  0  0  0  0  0  0  0  0  0
  -23.0524  -28.2284   22.3349 N   0  0  0  0  0  0  0  0  0  0  0  0
  -29.9019  -13.8392   20.3553 N   0  0  0  0  0  0  0  0  0  0  0  0
  -25.3433  -14.9982   19.9321 N   0  0  0  0  0  0  0  0  0  0  0  0
  -21.8471  -12.7892   21.7468 N   0  0  0  0  0  0  0  0  0  0  0  0
  -29.8892  -16.1516   20.8193 N   0  0  0  0  0  0  0  0  0  0  0  0
  -21.0175  -25.2028   22.3109 N   0  0  0  0  0  0  0  0  0  0  0  0
  -23.4210  -31.5708   21.9460 N   0  0  0  0  0  0  0  0  0  0  0  0
  -25.6294  -33.1850   24.3092 N   0  3  0  0  0  0  0  0  0  0  0  0
  -22.5303  -14.7958   20.8717 O   0  0  0  0  0  0  0  0  0  0  0  0
  -22.2223  -26.4182   20.7318 O   0  0  0  0  0  0  0  0  0  0  0  0
  -21.2600  -29.7183   22.2739 O   0  0  0  0  0  0  0  0  0  0  0  0
  -25.7168  -31.3459   22.1816 O   0  0  0  0  0  0  0  0  0  0  0  0
  -31.7303  -15.1504   19.8245 O   0  0  0  0  0  0  0  0  0  0  0  0
  -21.8273   -7.4843   23.4474 O   0  0  0  0  0  0  0  0  0  0  0  0
  -28.3469  -25.0961   22.7925 O   0  0  0  0  0  0  0  0  0  1  0  0
  -16.7249   -6.4929   21.6071 F   0  0  0  0  0  0  0  0  0  0  0  0
  -21.1848   -5.0594   22.2855 F   0  0  0  0  0  0  0  0  0  0  0  0
  1  2  1  0  0  0  0
  1  5  2  0  0  0  0
  2  6  2  0  0  0  0
  3  8  2  0  0  0  0
  3 16  1  0  0  0  0
  4  9  1  0  0  0  0
  4 16  2  0  0  0  0
  5 18  1  0  0  0  0
  6 20  1  0  0  0  0
  7 10  2  0  0  0  0
  7 19  1  0  0  0  0
  8 24  1  0  0  0  0
  9 24  2  0  0  0  0
 10 25  1  0  0  0  0
 11 12  2  0  0  0  0
 11 26  1  0  0  0  0
 12 27  1  0  0  0  0
 13 21  1  0  0  0  0
 13 25  2  0  0  0  0
 14 22  1  0  0  0  0
 14 31  2  0  0  0  0
 15 27  2  0  0  0  0
 15 28  1  0  0  0  0
 16 29  1  0  0  0  0
 17 29  1  0  0  0  0
 17 32  2  0  0  0  0
 17 33  1  0  0  0  0
 18 20  2  0  0  0  0
 18 38  1  0  0  0  0
 19 21  2  0  0  0  0
 19 39  1  0  0  0  0
 20 49  1  0  0  0  0
 21 42  1  0  0  0  0
 22 23  2  0  0  0  0
 22 40  1  0  0  0  0
 23 30  1  0  0  0  0
 23 41  1  0  0  0  0
 24 80  1  0  0  0  0
 25 81  1  0  0  0  0
 26 28  2  0  0  0  0
 26 80  1  0  0  0  0
 27 82  1  0  0  0  0
 28 83  1  0  0  0  0
 29 64  2  0  0  0  0
 30 53  1  0  0  0  0
 30 65  2  0  0  0  0
 31 65  1  0  0  0  0
 31 71  1  0  0  0  0
 32 66  1  0  0  0  0
 32 69  1  0  0  0  0
 33 70  1  0  0  0  0
 33 75  2  0  0  0  0
 34 50  1  0  0  0  0
 34 72  1  0  0  0  0
 34 76  2  0  0  0  0
 35 61  1  0  0  0  0
 35 67  1  0  0  0  0
 35 77  2  0  0  0  0
 36 62  1  0  0  0  0
 36 73  1  0  0  0  0
 36 78  2  0  0  0  0
 37 68  1  0  0  0  0
 37 71  1  0  0  0  0
 37 79  2  0  0  0  0
 38 43  1  0  0  0  0
 39 50  1  0  0  0  0
 40 51  1  0  0  0  0
 41 51  1  0  0  0  0
 42 67  1  0  0  0  0
 43 45  1  0  0  0  0
 44 46  1  0  0  0  0
 44 47  1  0  0  0  0
 45 49  1  0  0  0  0
 46 52  1  0  0  0  0
 47 68  1  0  0  0  0
 48 52  1  0  0  0  0
 48 68  1  0  0  0  0
 49 72  1  0  0  0  0
 50 67  1  0  0  0  0
 51 59  1  0  0  0  0
 52 66  1  0  0  0  0
 54 62  1  0  0  0  0
 55 63  1  0  0  0  0
 56 63  1  0  0  0  0
 57 63  1  0  0  0  0
 58 74  1  0  0  0  0
 59 60  1  0  0  0  0
 60 81  1  0  0  0  0
 61 63  1  0  0  0  0
 61 73  1  0  0  0  0
 62 74  1  0  0  0  0
 64 66  1  0  0  0  0
M  CHG  1  74   1
M  ISO  4  37 100  60 101  71 100  81 101
M  END
> <Batch ID>
0185

> <Smiles>
CNC(C)C(=O)NC(C(=O)N1Cc2cc([101O:1][101CH2:1]CC3Cc4cc([100NH:0][100C:0](=O)N5CCCC(n6nc(-c7ccc(Oc8ccc(F)cc8F)cc7)c(C(N)=O)c6N)C5)nc(C)c4C3)ccc2CC1C(=O)NC1CCCc2ccccc21)C(C)(C)C

> <Shape>
0.261

> <Color>
0.167

> <Negative vol penalty>
0.000

$$$$

  -OEChem-04052323123D

 83 92  0     1  0  0  0  0  0999 V2000
  -29.1568  -24.3829   20.6886 C   0  0  0  0  0  0  0  0  0  0  0  0
  -28.4023  -23.4611   21.4073 C   0  0  0  0  0  0  0  0  0  0  0  0
  -25.0435  -28.9901   21.9037 C   0  0  0  0  0  0  0  0  0  0  0  0
  -23.9387  -29.7970   19.9124 C   0  0  0  0  0  0  0  0  0  0  0  0
  -29.8350  -23.9815   19.5385 C   0  0  0  0  0  0  0  0  0  0  0  0
  -28.3246  -22.1375   20.9754 C   0  0  0  0  0  0  0  0  0  0  0  0
  -28.8835  -18.8225   24.7627 C   0  0  0  0  0  0  0  0  0  0  0  0
  -25.6093  -30.2498   22.1003 C   0  0  0  0  0  0  0  0  0  0  0  0
  -24.5045  -31.0568   20.1090 C   0  0  0  0  0  0  0  0  0  0  0  0
  -27.7819  -18.6096   25.5903 C   0  0  0  0  0  0  0  0  0  0  0  0
  -27.0560  -33.3513   23.3262 C   0  0  0  0  0  0  0  0  0  0  0  0
  -27.0287  -33.8803   24.6166 C   0  0  0  0  0  0  0  0  0  0  0  0
  -27.2748  -16.5830   24.3839 C   0  0  0  0  0  0  0  0  0  0  0  0
  -24.6146  -33.7836   24.6051 C   0  0  0  0  0  0  0  0  0  0  0  0
  -24.2083  -28.7637   20.8097 C   0  0  0  0  0  0  0  0  0  0  0  0
  -22.3911  -26.9972   21.1011 C   0  0  0  0  0  0  0  0  0  0  0  0
  -29.7734  -22.6501   19.0977 C   0  0  0  0  0  0  0  0  0  0  0  0
  -29.1832  -17.9215   23.7308 C   0  0  0  0  0  0  0  0  0  0  0  0
  -29.0014  -21.7182   19.8175 C   0  0  0  0  0  0  0  0  0  0  0  0
  -28.3823  -16.7854   23.5462 C   0  0  0  0  0  0  0  0  0  0  0  0
  -25.3398  -31.2831   21.2029 C   0  0  0  0  0  0  0  0  0  0  0  0
  -26.9757  -17.4913   25.3991 C   0  0  0  0  0  0  0  0  0  0  0  0
  -25.8627  -33.0384   22.6753 C   0  0  0  0  0  0  0  0  0  0  0  0
  -25.8080  -34.0965   25.2560 C   0  0  0  0  0  0  0  0  0  0  0  0
  -24.6420  -33.2545   23.3147 C   0  0  0  0  0  0  0  0  0  0  0  0
  -23.6240  -27.4625   20.6058 C   0  0  0  0  0  0  0  0  0  0  0  0
  -22.2961  -25.7101   20.6312 C   0  0  0  0  0  0  0  0  0  0  0  0
  -23.0427  -15.4282   25.3395 C   0  0  0  0  0  0  0  0  0  0  0  0
  -23.0492  -17.3374   24.1599 C   0  0  0  0  0  0  0  0  0  0  0  0
  -24.7090  -16.9074   25.6079 C   0  0  0  0  0  0  0  0  0  1  0  0
  -21.4186  -27.6684   21.9131 C   0  0  0  0  0  0  0  0  0  0  0  0
  -29.3601  -18.1170   20.5631 C   0  0  0  0  0  0  0  0  0  0  0  0
  -30.4578  -15.0760   20.8262 C   0  0  0  0  0  0  0  0  0  0  0  0
  -30.5973  -12.1936   22.6481 C   0  0  0  0  0  0  0  0  0  0  0  0
  -24.8682  -20.7366   19.9063 C   0  0  0  0  0  0  0  0  0  0  0  0
  -30.4850  -22.2740   17.8223 C   0  0  0  0  0  0  0  0  0  0  0  0
  -30.3906  -18.1513   22.8637 C   0  0  0  0  0  0  0  0  0  0  0  0
  -28.6729  -15.7773   22.4656 C   0  0  0  0  0  0  0  0  0  0  0  0
  -30.6551  -20.7678   17.6411 C   0  0  0  0  0  0  0  0  0  0  0  0
  -25.0726  -23.2235   17.2144 C   0  0  0  0  0  0  0  0  0  0  0  0
  -29.3470  -20.0429   17.9415 C   0  0  0  0  0  0  0  0  0  0  0  0
  -24.6575  -24.5173   17.9163 C   0  0  0  0  0  0  0  0  0  0  0  0
  -21.9667  -20.3162   22.1246 C   0  0  0  0  0  0  0  0  0  0  0  0
  -25.7568  -22.2488   18.1701 C   0  0  0  0  0  0  0  0  0  0  0  0
  -22.8399  -21.3096   21.3652 C   0  0  0  0  0  0  0  0  0  0  0  0
  -24.5788  -23.2447   20.0921 C   0  0  0  0  0  0  0  0  0  0  0  0
  -24.0824  -19.2935   21.7613 C   0  0  0  0  0  0  0  0  0  0  0  0
  -28.9128  -20.2678   19.3948 C   0  0  1  0  0  0  0  0  0  0  0  0
  -30.3032  -17.4400   21.5169 C   0  0  1  0  0  0  0  0  0  0  0  0
  -23.8261  -24.2221   19.1787 C   0  0  1  0  0  0  0  0  0  0  0  0
  -23.0037  -19.4439   22.8235 C   0  0  2  0  0  0  0  0  0  0  0  0
  -22.4011  -14.1286   25.6890 C   0  0  0  0  0  0  0  0  0  0  0  0
  -31.5388   -9.8683   22.5871 C   0  0  0  0  0  0  0  0  0  0  0  0
  -28.3008  -14.2575   18.8294 C   0  0  0  0  0  0  0  0  0  0  0  0
  -28.6571  -11.8791   19.5255 C   0  0  0  0  0  0  0  0  0  0  0  0
  -30.5207  -13.1617   18.4746 C   0  0  0  0  0  0  0  0  0  0  0  0
  -32.2017  -12.6544   25.0919 C   0  0  0  0  0  0  0  0  0  0  0  0
  -29.8213  -13.7072   20.8422 C   0  0  1  0  0  0  0  0  0  0  0  0
  -31.7637  -11.3034   23.0373 C   0  0  2  0  0  0  0  0  0  0  0  0
  -29.3181  -13.2712   19.4372 C   0  0  0  0  0  0  0  0  0  0  0  0
  -24.2662  -26.5455   19.8774 N   0  0  0  0  0  0  0  0  0  0  0  0
  -22.4149  -16.1837   24.4240 N   0  0  0  0  0  0  0  0  0  0  0  0
  -24.1895  -15.7240   25.9722 N   0  0  0  0  0  0  0  0  0  0  0  0
  -24.1964  -17.7653   24.7111 N   0  0  0  0  0  0  0  0  0  0  0  0
  -23.4337  -25.4911   19.9115 N   0  0  0  0  0  0  0  0  0  0  0  0
  -29.8609  -16.0495   21.6398 N   0  0  0  0  0  0  0  0  0  0  0  0
  -24.9406  -22.0241   19.3635 N   0  0  0  0  0  0  0  0  0  0  0  0
  -24.0399  -20.5468   21.0117 N   0  0  0  0  0  0  0  0  0  0  0  0
  -21.3513  -24.7555   20.7678 N   0  0  0  0  0  0  0  0  0  0  0  0
  -21.6742  -28.9889   22.3073 N   0  0  0  0  0  0  0  0  0  0  0  0
  -22.4587  -18.1729   23.2215 N   0  0  0  0  0  0  0  0  0  0  0  0
  -29.6853  -19.4316   20.2883 N   0  0  0  0  0  0  0  0  0  0  0  0
  -30.8062  -12.8059   21.4304 N   0  0  0  0  0  0  0  0  0  0  0  0
  -31.9484  -11.3086   24.5161 N   0  3  0  0  0  0  0  0  0  0  0  0
  -20.3622  -27.1082   22.2920 O   0  0  0  0  0  0  0  0  0  0  0  0
  -28.4086  -17.4925   20.1088 O   0  0  0  0  0  0  0  0  0  0  0  0
  -31.4524  -15.2722   20.1235 O   0  0  0  0  0  0  0  0  0  0  0  0
  -29.5989  -12.3291   23.3520 O   0  0  0  0  0  0  0  0  0  0  0  0
  -25.4797  -19.7878   19.3974 O   0  0  0  0  0  0  0  0  0  0  0  0
  -25.8915  -32.5126   21.3945 O   0  0  0  0  0  0  0  0  0  0  0  0
  -25.8857  -17.2787   26.2154 O   0  0  0  0  0  0  0  0  0  1  0  0
  -25.7819  -34.6030   26.4957 F   0  0  0  0  0  0  0  0  0  0  0  0
  -23.4923  -32.9548   22.6949 F   0  0  0  0  0  0  0  0  0  0  0  0
  1  2  1  0  0  0  0
  1  5  2  0  0  0  0
  2  6  2  0  0  0  0
  3  8  2  0  0  0  0
  3 15  1  0  0  0  0
  4  9  1  0  0  0  0
  4 15  2  0  0  0  0
  5 17  1  0  0  0  0
  6 19  1  0  0  0  0
  7 10  2  0  0  0  0
  7 18  1  0  0  0  0
  8 21  1  0  0  0  0
  9 21  2  0  0  0  0
 10 22  1  0  0  0  0
 11 12  2  0  0  0  0
 11 23  1  0  0  0  0
 12 24  1  0  0  0  0
 13 20  1  0  0  0  0
 13 22  2  0  0  0  0
 14 24  2  0  0  0  0
 14 25  1  0  0  0  0
 15 26  1  0  0  0  0
 16 26  1  0  0  0  0
 16 27  2  0  0  0  0
 16 31  1  0  0  0  0
 17 19  2  0  0  0  0
 17 36  1  0  0  0  0
 18 20  2  0  0  0  0
 18 37  1  0  0  0  0
 19 48  1  0  0  0  0
 20 38  1  0  0  0  0
 21 80  1  0  0  0  0
 22 81  1  0  0  0  0
 23 25  2  0  0  0  0
 23 80  1  0  0  0  0
 24 82  1  0  0  0  0
 25 83  1  0  0  0  0
 26 61  2  0  0  0  0
 27 65  1  0  0  0  0
 27 69  1  0  0  0  0
 28 52  1  0  0  0  0
 28 62  1  0  0  0  0
 28 63  2  0  0  0  0
 29 62  2  0  0  0  0
 29 64  1  0  0  0  0
 29 71  1  0  0  0  0
 30 63  1  0  0  0  0
 30 64  2  0  0  0  0
 30 81  1  0  0  0  0
 31 70  1  0  0  0  0
 31 75  2  0  0  0  0
 32 49  1  0  0  0  0
 32 72  1  0  0  0  0
 32 76  2  0  0  0  0
 33 58  1  0  0  0  0
 33 66  1  0  0  0  0
 33 77  2  0  0  0  0
 34 59  1  0  0  0  0
 34 73  1  0  0  0  0
 34 78  2  0  0  0  0
 35 67  1  0  0  0  0
 35 68  1  0  0  0  0
 35 79  2  0  0  0  0
 36 39  1  0  0  0  0
 37 49  1  0  0  0  0
 38 66  1  0  0  0  0
 39 41  1  0  0  0  0
 40 42  1  0  0  0  0
 40 44  1  0  0  0  0
 41 48  1  0  0  0  0
 42 50  1  0  0  0  0
 43 45  1  0  0  0  0
 43 51  1  0  0  0  0
 44 67  1  0  0  0  0
 45 68  1  0  0  0  0
 46 50  1  0  0  0  0
 46 67  1  0  0  0  0
 47 51  1  0  0  0  0
 47 68  1  0  0  0  0
 48 72  1  0  0  0  0
 49 66  1  0  0  0  0
 50 65  1  0  0  0  0
 51 71  1  0  0  0  0
 53 59  1  0  0  0  0
 54 60  1  0  0  0  0
 55 60  1  0  0  0  0
 56 60  1  0  0  0  0
 57 74  1  0  0  0  0
 58 60  1  0  0  0  0
 58 73  1  0  0  0  0
 59 74  1  0  0  0  0
 61 65  1  0  0  0  0
M  CHG  1  74   1
M  ISO  4  30 101  35 100  68 100  81 101
M  END
> <Batch ID>
0185

> <Smiles>
CNC(C)C(=O)NC(C(=O)N1Cc2cc([101O:1][101c:1]3nc(C)nc(NC4CC[100N:0]([100C:0](=O)N5CCCC(n6nc(-c7ccc(Oc8ccc(F)cc8F)cc7)c(C(N)=O)c6N)C5)C4)n3)ccc2CC1C(=O)NC1CCCc2ccccc21)C(C)(C)C

> <Shape>
0.213

> <Color>
0.044

> <Negative vol penalty>
0.000

$$$$

  -OEChem-04052323123D

 83 92  0     1  0  0  0  0  0999 V2000
  -28.3700  -11.0281   19.8214 C   0  0  0  0  0  0  0  0  0  0  0  0
  -28.6696  -12.3459   19.4911 C   0  0  0  0  0  0  0  0  0  0  0  0
  -21.5458  -29.1222   19.8441 C   0  0  0  0  0  0  0  0  0  0  0  0
  -22.5334  -27.4817   21.3174 C   0  0  0  0  0  0  0  0  0  0  0  0
  -27.0753  -10.6847   20.2084 C   0  0  0  0  0  0  0  0  0  0  0  0
  -27.6742  -13.3209   19.5466 C   0  0  0  0  0  0  0  0  0  0  0  0
  -29.2537  -17.5847   21.7760 C   0  0  0  0  0  0  0  0  0  0  0  0
  -20.4358  -28.2961   19.6683 C   0  0  0  0  0  0  0  0  0  0  0  0
  -21.4233  -26.6556   21.1417 C   0  0  0  0  0  0  0  0  0  0  0  0
  -30.0445  -18.4454   21.0160 C   0  0  0  0  0  0  0  0  0  0  0  0
  -18.6869  -24.2723   21.3661 C   0  0  0  0  0  0  0  0  0  0  0  0
  -18.1378  -23.6728   22.4995 C   0  0  0  0  0  0  0  0  0  0  0  0
  -28.1141  -19.8253   20.5815 C   0  0  0  0  0  0  0  0  0  0  0  0
  -17.7078  -25.8542   23.4450 C   0  0  0  0  0  0  0  0  0  0  0  0
  -29.6681  -23.7118   20.8444 C   0  0  0  0  0  0  0  0  0  0  0  0
  -22.5947  -28.7150   20.6686 C   0  0  0  0  0  0  0  0  0  0  0  0
  -23.9176  -30.5579   21.8353 C   0  0  0  0  0  0  0  0  0  0  0  0
  -26.0659  -11.6578   20.2780 C   0  0  0  0  0  0  0  0  0  0  0  0
  -27.8828  -17.8323   21.9358 C   0  0  0  0  0  0  0  0  0  0  0  0
  -26.3645  -12.9900   19.9336 C   0  0  0  0  0  0  0  0  0  0  0  0
  -27.3087  -18.9676   21.3461 C   0  0  0  0  0  0  0  0  0  0  0  0
  -20.3745  -27.0628   20.3171 C   0  0  0  0  0  0  0  0  0  0  0  0
  -29.4741  -19.5643   20.4162 C   0  0  0  0  0  0  0  0  0  0  0  0
  -18.7466  -25.6628   21.2722 C   0  0  0  0  0  0  0  0  0  0  0  0
  -17.6482  -24.4637   23.5390 C   0  0  0  0  0  0  0  0  0  0  0  0
  -18.2570  -26.4537   22.3116 C   0  0  0  0  0  0  0  0  0  0  0  0
  -23.7418  -29.5677   20.8502 C   0  0  0  0  0  0  0  0  0  0  0  0
  -30.0112  -23.9551   19.5444 C   0  0  0  0  0  0  0  0  0  0  0  0
  -25.1631  -31.0780   21.5809 C   0  0  0  0  0  0  0  0  0  0  0  0
  -30.0864  -21.7671   19.8728 C   0  0  0  0  0  0  0  0  0  1  0  0
  -23.0341  -30.9707   22.8863 C   0  0  0  0  0  0  0  0  0  0  0  0
  -25.2183  -16.2795   21.1656 C   0  0  0  0  0  0  0  0  0  0  0  0
  -23.8047  -18.6649   22.8491 C   0  0  0  0  0  0  0  0  0  0  0  0
  -23.9670  -21.8574   24.0443 C   0  0  0  0  0  0  0  0  0  0  0  0
  -29.9613  -28.7178   18.7225 C   0  0  0  0  0  0  0  0  0  0  0  0
  -24.6700  -11.2300   20.6562 C   0  0  0  0  0  0  0  0  0  0  0  0
  -27.0489  -16.9087   22.7808 C   0  0  0  0  0  0  0  0  0  0  0  0
  -25.8458  -19.2892   21.5039 C   0  0  0  0  0  0  0  0  0  0  0  0
  -23.7625  -12.3925   21.0504 C   0  0  0  0  0  0  0  0  0  0  0  0
  -28.2759  -31.8231   18.0521 C   0  0  0  0  0  0  0  0  0  0  0  0
  -23.8866  -13.5318   20.0437 C   0  0  0  0  0  0  0  0  0  0  0  0
  -26.9187  -31.6699   18.7306 C   0  0  0  0  0  0  0  0  0  0  0  0
  -28.7599  -30.4904   17.4966 C   0  0  0  0  0  0  0  0  0  0  0  0
  -28.8876  -26.3405   18.9579 C   0  0  0  0  0  0  0  0  0  0  0  0
  -30.9246  -26.4937   19.5240 C   0  0  0  0  0  0  0  0  0  0  0  0
  -27.5206  -29.2519   19.2528 C   0  0  0  0  0  0  0  0  0  0  0  0
  -25.3179  -14.0807   20.0055 C   0  0  1  0  0  0  0  0  0  0  0  0
  -30.0946  -25.3774   18.8493 C   0  0  0  0  0  0  0  0  0  0  0  0
  -25.5609  -16.9776   22.4513 C   0  0  1  0  0  0  0  0  0  0  0  0
  -26.9791  -30.5822   19.8127 C   0  0  2  0  0  0  0  0  0  0  0  0
  -22.6436  -23.5405   25.3532 C   0  0  0  0  0  0  0  0  0  0  0  0
  -22.0430  -19.1728   20.4102 C   0  0  0  0  0  0  0  0  0  0  0  0
  -21.4421  -21.3952   21.3939 C   0  0  0  0  0  0  0  0  0  0  0  0
  -20.8484  -19.2961   22.6039 C   0  0  0  0  0  0  0  0  0  0  0  0
  -34.4658  -22.2384   17.9166 C   0  0  0  0  0  0  0  0  0  0  0  0
  -26.0323  -22.0095   26.1586 C   0  0  0  0  0  0  0  0  0  0  0  0
  -30.6632  -22.5223   17.5898 C   0  0  0  0  0  0  0  0  0  0  0  0
  -32.1227  -22.8612   17.3162 C   0  0  0  0  0  0  0  0  0  0  0  0
  -23.2648  -20.0345   22.5151 C   0  0  1  0  0  0  0  0  0  0  0  0
  -23.6843  -22.4336   25.4200 C   0  0  2  0  0  0  0  0  0  0  0  0
  -21.9268  -19.9678   21.7260 C   0  0  0  0  0  0  0  0  0  0  0  0
  -24.7916  -29.4632   20.0310 N   0  0  0  0  0  0  0  0  0  0  0  0
  -30.2648  -22.7342   18.9671 N   0  0  0  0  0  0  0  0  0  0  0  0
  -25.6390  -30.3946   20.5008 N   0  0  0  0  0  0  0  0  0  0  0  0
  -29.7236  -22.3502   21.0199 N   0  3  0  0  0  0  0  0  0  0  0  0
  -25.0709  -18.3525   22.3344 N   0  0  0  0  0  0  0  0  0  0  0  0
  -28.7803  -29.4406   18.5199 N   0  0  0  0  0  0  0  0  0  0  0  0
  -29.8608  -27.4065   19.1237 N   0  0  0  0  0  0  0  0  0  0  0  0
  -25.8867  -32.0488   22.1779 N   0  0  0  0  0  0  0  0  0  0  0  0
  -21.7926  -30.3312   23.0052 N   0  0  0  0  0  0  0  0  0  0  0  0
  -25.5600  -14.9408   21.1439 N   0  0  0  0  0  0  0  0  0  0  0  0
  -23.1778  -20.7584   23.7788 N   0  0  0  0  0  0  0  0  0  0  0  0
  -33.0130  -21.9805   18.1115 N   0  3  0  0  0  0  0  0  0  0  0  0
  -24.9309  -22.9957   26.0124 N   0  3  0  0  0  0  0  0  0  0  0  0
  -23.3298  -31.8909   23.6859 O   0  0  0  0  0  0  0  0  0  0  0  0
  -24.6821  -16.9085   20.2609 O   0  0  0  0  0  0  0  0  0  0  0  0
  -23.1310  -17.9030   23.5472 O   0  0  0  0  0  0  0  0  0  0  0  0
  -24.8017  -22.3368   23.2800 O   0  0  0  0  0  0  0  0  0  0  0  0
  -31.0759  -29.2185   18.5225 O   0  0  0  0  0  0  0  0  0  0  0  0
  -19.2914  -26.2565   20.1459 O   0  0  0  0  0  0  0  0  0  0  0  0
  -30.2435  -20.4057   19.6732 O   0  0  0  0  0  0  0  0  0  1  0  0
  -17.1195  -23.8879   24.6266 F   0  0  0  0  0  0  0  0  0  0  0  0
  -18.3105  -27.7900   22.2265 F   0  0  0  0  0  0  0  0  0  0  0  0
  1  2  1  0  0  0  0
  1  5  2  0  0  0  0
  2  6  2  0  0  0  0
  3  8  2  0  0  0  0
  3 16  1  0  0  0  0
  4  9  1  0  0  0  0
  4 16  2  0  0  0  0
  5 18  1  0  0  0  0
  6 20  1  0  0  0  0
  7 10  2  0  0  0  0
  7 19  1  0  0  0  0
  8 22  1  0  0  0  0
  9 22  2  0  0  0  0
 10 23  1  0  0  0  0
 11 12  2  0  0  0  0
 11 24  1  0  0  0  0
 12 25  1  0  0  0  0
 13 21  1  0  0  0  0
 13 23  2  0  0  0  0
 14 25  2  0  0  0  0
 14 26  1  0  0  0  0
 15 28  2  0  0  0  0
 15 65  1  0  0  0  0
 16 27  1  0  0  0  0
 17 27  1  0  0  0  0
 17 29  2  0  0  0  0
 17 31  1  0  0  0  0
 18 20  2  0  0  0  0
 18 36  1  0  0  0  0
 19 21  2  0  0  0  0
 19 37  1  0  0  0  0
 20 47  1  0  0  0  0
 21 38  1  0  0  0  0
 22 80  1  0  0  0  0
 23 81  1  0  0  0  0
 24 26  2  0  0  0  0
 24 80  1  0  0  0  0
 25 82  1  0  0  0  0
 26 83  1  0  0  0  0
 27 62  2  0  0  0  0
 28 48  1  0  0  0  0
 28 63  1  0  0  0  0
 29 64  1  0  0  0  0
 29 69  1  0  0  0  0
 30 63  1  0  0  0  0
 30 65  2  0  0  0  0
 30 81  1  0  0  0  0
 31 70  1  0  0  0  0
 31 75  2  0  0  0  0
 32 49  1  0  0  0  0
 32 71  1  0  0  0  0
 32 76  2  0  0  0  0
 33 59  1  0  0  0  0
 33 66  1  0  0  0  0
 33 77  2  0  0  0  0
 34 60  1  0  0  0  0
 34 72  1  0  0  0  0
 34 78  2  0  0  0  0
 35 67  1  0  0  0  0
 35 68  1  0  0  0  0
 35 79  2  0  0  0  0
 36 39  1  0  0  0  0
 37 49  1  0  0  0  0
 38 66  1  0  0  0  0
 39 41  1  0  0  0  0
 40 42  1  0  0  0  0
 40 43  1  0  0  0  0
 41 47  1  0  0  0  0
 42 50  1  0  0  0  0
 43 67  1  0  0  0  0
 44 48  1  0  0  0  0
 44 68  1  0  0  0  0
 45 48  1  0  0  0  0
 45 68  1  0  0  0  0
 46 50  1  0  0  0  0
 46 67  1  0  0  0  0
 47 71  1  0  0  0  0
 49 66  1  0  0  0  0
 50 64  1  0  0  0  0
 51 60  1  0  0  0  0
 52 61  1  0  0  0  0
 53 61  1  0  0  0  0
 54 61  1  0  0  0  0
 55 73  1  0  0  0  0
 56 74  1  0  0  0  0
 57 58  1  0  0  0  0
 57 63  1  0  0  0  0
 58 73  1  0  0  0  0
 59 61  1  0  0  0  0
 59 72  1  0  0  0  0
 60 74  1  0  0  0  0
 62 64  1  0  0  0  0
M  CHG  3  65   1  73   1  74   1
M  ISO  4  30 101  35 100  68 100  81 101
M  END
> <Batch ID>
0185

> <Smiles>
CNCCn1c(C2C[100N:0]([100C:0](=O)N3CCCC(n4nc(-c5ccc(Oc6ccc(F)cc6F)cc5)c(C(N)=O)c4N)C3)C2)cn[101c:1]1[101O:1]c1ccc2c(c1)CN(C(=O)C(NC(=O)C(C)NC)C(C)(C)C)C(C(=O)NC1CCCc3ccccc31)C2

> <Shape>
0.249

> <Color>
0.073

> <Negative vol penalty>
0.000

$$$$

  -OEChem-04052323123D

 84 93  0     1  0  0  0  0  0999 V2000
  -16.3846  -27.6854   20.4344 C   0  0  0  0  0  0  0  0  0  0  0  0
  -17.6114  -27.8756   19.8065 C   0  0  0  0  0  0  0  0  0  0  0  0
  -29.8794  -12.8529   18.1282 C   0  0  0  0  0  0  0  0  0  0  0  0
  -29.8265  -11.8155   20.3095 C   0  0  0  0  0  0  0  0  0  0  0  0
  -16.2158  -28.0712   21.7635 C   0  0  0  0  0  0  0  0  0  0  0  0
  -18.6699  -28.4527   20.5071 C   0  0  0  0  0  0  0  0  0  0  0  0
  -24.6227  -27.1373   19.9245 C   0  0  0  0  0  0  0  0  0  0  0  0
  -30.8359  -11.9274   17.7111 C   0  0  0  0  0  0  0  0  0  0  0  0
  -30.7830  -10.8899   19.8924 C   0  0  0  0  0  0  0  0  0  0  0  0
  -25.6556  -27.7561   19.2217 C   0  0  0  0  0  0  0  0  0  0  0  0
  -30.9031   -8.7085   16.6781 C   0  0  0  0  0  0  0  0  0  0  0  0
  -30.7302   -8.1168   15.4269 C   0  0  0  0  0  0  0  0  0  0  0  0
  -26.2994  -28.9403   21.2222 C   0  0  0  0  0  0  0  0  0  0  0  0
  -32.8520   -9.0202   14.7065 C   0  0  0  0  0  0  0  0  0  0  0  0
  -29.7920  -29.2135   18.4815 C   0  0  0  0  0  0  0  0  0  0  0  0
  -29.3747  -12.7971   19.4274 C   0  0  0  0  0  0  0  0  0  0  0  0
  -26.9877  -13.6304   19.7669 C   0  0  0  0  0  0  0  0  0  0  0  0
  -17.2756  -28.6445   22.4837 C   0  0  0  0  0  0  0  0  0  0  0  0
  -24.4132  -27.4242   21.2811 C   0  0  0  0  0  0  0  0  0  0  0  0
  -18.5147  -28.8478   21.8468 C   0  0  0  0  0  0  0  0  0  0  0  0
  -25.2648  -28.3219   21.9407 C   0  0  0  0  0  0  0  0  0  0  0  0
  -31.2877  -10.9458   18.5932 C   0  0  0  0  0  0  0  0  0  0  0  0
  -26.4924  -28.6599   19.8697 C   0  0  0  0  0  0  0  0  0  0  0  0
  -32.0504   -9.4561   16.9435 C   0  0  0  0  0  0  0  0  0  0  0  0
  -31.7047   -8.2726   14.4411 C   0  0  0  0  0  0  0  0  0  0  0  0
  -33.0249   -9.6119   15.9578 C   0  0  0  0  0  0  0  0  0  0  0  0
  -28.3870  -13.7533   19.8590 C   0  0  0  0  0  0  0  0  0  0  0  0
  -31.1192  -27.4567   19.1005 C   0  0  0  0  0  0  0  0  0  0  0  0
  -30.0587  -26.8934   19.7758 C   0  0  0  0  0  0  0  0  0  0  0  0
  -28.7316  -28.6503   19.1569 C   0  0  0  0  0  0  0  0  0  1  0  0
  -26.5042  -14.7956   20.3102 C   0  0  0  0  0  0  0  0  0  0  0  0
  -26.1957  -12.5589   19.2375 C   0  0  0  0  0  0  0  0  0  0  0  0
  -22.0331  -28.6908   22.9645 C   0  0  0  0  0  0  0  0  0  0  0  0
  -23.9033  -27.8782   25.4872 C   0  0  0  0  0  0  0  0  0  0  0  0
  -27.0282  -27.1907   26.6744 C   0  0  0  0  0  0  0  0  0  0  0  0
  -29.2659  -20.1431   20.8502 C   0  0  0  0  0  0  0  0  0  0  0  0
  -17.0314  -29.0890   23.9041 C   0  0  0  0  0  0  0  0  0  0  0  0
  -23.3113  -26.7281   22.0318 C   0  0  0  0  0  0  0  0  0  0  0  0
  -25.0948  -28.6488   23.4011 C   0  0  0  0  0  0  0  0  0  0  0  0
  -18.3140  -29.3498   24.6897 C   0  0  0  0  0  0  0  0  0  0  0  0
  -27.5933  -18.1758   23.5124 C   0  0  0  0  0  0  0  0  0  0  0  0
  -19.2864  -30.1847   23.8625 C   0  0  0  0  0  0  0  0  0  0  0  0
  -27.5288  -16.7910   22.8666 C   0  0  0  0  0  0  0  0  0  0  0  0
  -27.6022  -23.2058   22.0179 C   0  0  0  0  0  0  0  0  0  0  0  0
  -28.8174  -18.9445   23.0322 C   0  0  0  0  0  0  0  0  0  0  0  0
  -27.9007  -21.7405   22.3195 C   0  0  0  0  0  0  0  0  0  0  0  0
  -28.8454  -17.7113   20.8978 C   0  0  0  0  0  0  0  0  0  0  0  0
  -29.5773  -22.6025   20.8277 C   0  0  0  0  0  0  0  0  0  0  0  0
  -19.6941  -29.4479   22.5809 C   0  0  1  0  0  0  0  0  0  0  0  0
  -22.8698  -27.4837   23.2814 C   0  0  1  0  0  0  0  0  0  0  0  0
  -27.6205  -16.8872   21.3327 C   0  0  1  0  0  0  0  0  0  0  0  0
  -28.9804  -23.7325   21.6464 C   0  0  1  0  0  0  0  0  0  0  0  0
  -32.4555  -26.7976   19.0638 C   0  0  0  0  0  0  0  0  0  0  0  0
  -28.2467  -26.5981   28.7867 C   0  0  0  0  0  0  0  0  0  0  0  0
  -23.6779  -30.7725   26.4264 C   0  0  0  0  0  0  0  0  0  0  0  0
  -25.6261  -30.3589   27.9435 C   0  0  0  0  0  0  0  0  0  0  0  0
  -23.5133  -29.0684   28.2494 C   0  0  0  0  0  0  0  0  0  0  0  0
  -27.9592  -24.6153   25.5522 C   0  0  0  0  0  0  0  0  0  0  0  0
  -30.1993  -25.5902   20.5057 C   0  0  0  0  0  0  0  0  0  0  0  0
  -25.0001  -28.5606   26.2686 C   0  0  1  0  0  0  0  0  0  0  0  0
  -27.5487  -26.0622   27.5463 C   0  0  2  0  0  0  0  0  0  0  0  0
  -24.4566  -29.6856   27.1940 C   0  0  0  0  0  0  0  0  0  0  0  0
  -31.0049  -28.6269   18.4413 N   0  0  0  0  0  0  0  0  0  0  0  0
  -28.7679  -14.9056   20.4168 N   0  0  0  0  0  0  0  0  0  0  0  0
  -28.8459  -27.4801   19.8161 N   0  0  0  0  0  0  0  0  0  0  0  0
  -27.6007  -15.5175   20.6800 N   0  0  0  0  0  0  0  0  0  0  0  0
  -23.9991  -27.9473   24.0901 N   0  0  0  0  0  0  0  0  0  0  0  0
  -28.8597  -19.0130   21.5688 N   0  0  0  0  0  0  0  0  0  0  0  0
  -28.9932  -21.3928   21.4048 N   0  0  0  0  0  0  0  0  0  0  0  0
  -25.2524  -15.2627   20.5028 N   0  0  0  0  0  0  0  0  0  0  0  0
  -26.8532  -11.4354   18.7183 N   0  0  0  0  0  0  0  0  0  0  0  0
  -20.6792  -28.4293   22.8752 N   0  0  0  0  0  0  0  0  0  0  0  0
  -25.7186  -27.5034   26.9719 N   0  0  0  0  0  0  0  0  0  0  0  0
  -28.8865  -24.9753   20.8632 N   0  3  0  0  0  0  0  0  0  0  0  0
  -28.5192  -25.2253   26.7855 N   0  3  0  0  0  0  0  0  0  0  0  0
  -24.9423  -12.6037   19.2104 O   0  0  0  0  0  0  0  0  0  0  0  0
  -22.5755  -29.7793   22.8137 O   0  0  0  0  0  0  0  0  0  0  0  0
  -22.9990  -27.2990   26.0941 O   0  0  0  0  0  0  0  0  0  0  0  0
  -27.7158  -27.7422   25.8179 O   0  0  0  0  0  0  0  0  0  0  0  0
  -29.8044  -20.0417   19.7400 O   0  0  0  0  0  0  0  0  0  0  0  0
  -32.2209  -10.0423   18.1865 O   0  0  0  0  0  0  0  0  0  0  0  0
  -27.5169  -29.2753   19.1750 O   0  0  0  0  0  0  0  0  0  1  0  0
  -31.5393   -7.7030   13.2401 F   0  0  0  0  0  0  0  0  0  0  0  0
  -34.1297  -10.3280   16.2073 F   0  0  0  0  0  0  0  0  0  0  0  0
  1  2  1  0  0  0  0
  1  5  2  0  0  0  0
  2  6  2  0  0  0  0
  3  8  2  0  0  0  0
  3 16  1  0  0  0  0
  4  9  1  0  0  0  0
  4 16  2  0  0  0  0
  5 18  1  0  0  0  0
  6 20  1  0  0  0  0
  7 10  2  0  0  0  0
  7 19  1  0  0  0  0
  8 22  1  0  0  0  0
  9 22  2  0  0  0  0
 10 23  1  0  0  0  0
 11 12  2  0  0  0  0
 11 24  1  0  0  0  0
 12 25  1  0  0  0  0
 13 21  1  0  0  0  0
 13 23  2  0  0  0  0
 14 25  2  0  0  0  0
 14 26  1  0  0  0  0
 15 30  1  0  0  0  0
 15 63  2  0  0  0  0
 16 27  1  0  0  0  0
 17 27  1  0  0  0  0
 17 31  2  0  0  0  0
 17 32  1  0  0  0  0
 18 20  2  0  0  0  0
 18 37  1  0  0  0  0
 19 21  2  0  0  0  0
 19 38  1  0  0  0  0
 20 49  1  0  0  0  0
 21 39  1  0  0  0  0
 22 81  1  0  0  0  0
 23 82  1  0  0  0  0
 24 26  2  0  0  0  0
 24 81  1  0  0  0  0
 25 83  1  0  0  0  0
 26 84  1  0  0  0  0
 27 64  2  0  0  0  0
 28 29  2  0  0  0  0
 28 53  1  0  0  0  0
 28 63  1  0  0  0  0
 29 59  1  0  0  0  0
 29 65  1  0  0  0  0
 30 65  2  0  0  0  0
 30 82  1  0  0  0  0
 31 66  1  0  0  0  0
 31 70  1  0  0  0  0
 32 71  1  0  0  0  0
 32 76  2  0  0  0  0
 33 50  1  0  0  0  0
 33 72  1  0  0  0  0
 33 77  2  0  0  0  0
 34 60  1  0  0  0  0
 34 67  1  0  0  0  0
 34 78  2  0  0  0  0
 35 61  1  0  0  0  0
 35 73  1  0  0  0  0
 35 79  2  0  0  0  0
 36 68  1  0  0  0  0
 36 69  1  0  0  0  0
 36 80  2  0  0  0  0
 37 40  1  0  0  0  0
 38 50  1  0  0  0  0
 39 67  1  0  0  0  0
 40 42  1  0  0  0  0
 41 43  1  0  0  0  0
 41 45  1  0  0  0  0
 42 49  1  0  0  0  0
 43 51  1  0  0  0  0
 44 46  1  0  0  0  0
 44 52  1  0  0  0  0
 45 68  1  0  0  0  0
 46 69  1  0  0  0  0
 47 51  1  0  0  0  0
 47 68  1  0  0  0  0
 48 52  1  0  0  0  0
 48 69  1  0  0  0  0
 49 72  1  0  0  0  0
 50 67  1  0  0  0  0
 51 66  1  0  0  0  0
 52 74  1  0  0  0  0
 54 61  1  0  0  0  0
 55 62  1  0  0  0  0
 56 62  1  0  0  0  0
 57 62  1  0  0  0  0
 58 75  1  0  0  0  0
 59 74  1  0  0  0  0
 60 62  1  0  0  0  0
 60 73  1  0  0  0  0
 61 75  1  0  0  0  0
 64 66  1  0  0  0  0
M  CHG  2  74   1  75   1
M  ISO  4  30 101  36 100  69 100  82 101
M  END
> <Batch ID>
0185

> <Smiles>
CNC(C)C(=O)NC(C(=O)N1Cc2cc([101O:1][101c:1]3cnc(C)c(CNC4CC[100N:0]([100C:0](=O)N5CCCC(n6nc(-c7ccc(Oc8ccc(F)cc8F)cc7)c(C(N)=O)c6N)C5)C4)n3)ccc2CC1C(=O)NC1CCCc2ccccc21)C(C)(C)C

> <Shape>
0.233

> <Color>
0.090

> <Negative vol penalty>
0.000

$$$$

  -OEChem-04052323123D

 84 94  0     1  0  0  0  0  0999 V2000
  -18.9706  -33.5622   22.1489 C   0  0  0  0  0  0  0  0  0  0  0  0
  -20.2460  -33.3538   21.6336 C   0  0  0  0  0  0  0  0  0  0  0  0
  -26.1796  -12.6199   21.7247 C   0  0  0  0  0  0  0  0  0  0  0  0
  -25.8856  -13.5520   19.5152 C   0  0  0  0  0  0  0  0  0  0  0  0
  -18.4880  -32.7398   23.1660 C   0  0  0  0  0  0  0  0  0  0  0  0
  -21.0398  -32.3233   22.1360 C   0  0  0  0  0  0  0  0  0  0  0  0
  -25.0314  -28.8911   19.0066 C   0  0  0  0  0  0  0  0  0  0  0  0
  -24.9626  -11.9491   21.6037 C   0  0  0  0  0  0  0  0  0  0  0  0
  -24.6686  -12.8812   19.3942 C   0  0  0  0  0  0  0  0  0  0  0  0
  -26.4166  -28.9588   18.8635 C   0  0  0  0  0  0  0  0  0  0  0  0
  -23.7958   -9.1588   20.0919 C   0  0  0  0  0  0  0  0  0  0  0  0
  -23.7503   -7.8219   20.4873 C   0  0  0  0  0  0  0  0  0  0  0  0
  -26.6720  -27.3284   20.6230 C   0  0  0  0  0  0  0  0  0  0  0  0
  -22.0609   -8.3644   22.1270 C   0  0  0  0  0  0  0  0  0  0  0  0
  -30.2456  -24.3060   17.8379 C   0  0  0  0  0  0  0  0  0  0  0  0
  -26.6410  -13.4213   20.6805 C   0  0  0  0  0  0  0  0  0  0  0  0
  -29.1708  -13.6408   20.4355 C   0  0  0  0  0  0  0  0  0  0  0  0
  -19.2726  -31.6926   23.6744 C   0  0  0  0  0  0  0  0  0  0  0  0
  -24.4555  -28.0482   19.9680 C   0  0  0  0  0  0  0  0  0  0  0  0
  -20.5677  -31.4869   23.1617 C   0  0  0  0  0  0  0  0  0  0  0  0
  -25.2791  -27.2499   20.7745 C   0  0  0  0  0  0  0  0  0  0  0  0
  -24.2071  -12.0798   20.4385 C   0  0  0  0  0  0  0  0  0  0  0  0
  -27.2372  -28.1795   19.6737 C   0  0  0  0  0  0  0  0  0  0  0  0
  -22.9739  -10.0985   20.7142 C   0  0  0  0  0  0  0  0  0  0  0  0
  -22.8828   -7.4247   21.5048 C   0  0  0  0  0  0  0  0  0  0  0  0
  -22.1064   -9.7013   21.7317 C   0  0  0  0  0  0  0  0  0  0  0  0
  -27.8978  -14.1149   20.8051 C   0  0  0  0  0  0  0  0  0  0  0  0
  -30.7732  -24.5745   19.1151 C   0  0  0  0  0  0  0  0  0  0  0  0
  -30.0687  -25.5450   17.2721 C   0  0  0  0  0  0  0  0  0  0  0  0
  -30.0255  -14.6676   20.7540 C   0  0  0  0  0  0  0  0  0  0  0  0
  -29.5469  -12.3845   19.8559 C   0  0  0  0  0  0  0  0  0  0  0  0
  -22.6360  -28.4895   22.5367 C   0  0  0  0  0  0  0  0  0  0  0  0
  -22.5475  -25.2469   22.5507 C   0  0  0  0  0  0  0  0  0  0  0  0
  -24.0181  -22.3046   21.6413 C   0  0  0  0  0  0  0  0  0  0  0  0
  -31.2182  -20.0334   20.5263 C   0  0  0  0  0  0  0  0  0  0  0  0
  -18.7260  -30.8596   24.8066 C   0  0  0  0  0  0  0  0  0  0  0  0
  -22.9587  -27.9667   20.0916 C   0  0  0  0  0  0  0  0  0  0  0  0
  -24.7099  -26.3136   21.8079 C   0  0  0  0  0  0  0  0  0  0  0  0
  -19.4866  -29.5541   25.0246 C   0  0  0  0  0  0  0  0  0  0  0  0
  -29.3074  -18.8625   23.4405 C   0  0  0  0  0  0  0  0  0  0  0  0
  -20.9912  -29.8050   25.0158 C   0  0  0  0  0  0  0  0  0  0  0  0
  -28.0397  -26.1379   15.7218 C   0  0  0  0  0  0  0  0  0  0  0  0
  -28.5916  -24.8385   15.2244 C   0  0  0  0  0  0  0  0  0  0  0  0
  -28.8155  -17.5081   22.9426 C   0  0  0  0  0  0  0  0  0  0  0  0
  -29.4194  -19.8924   22.3161 C   0  0  0  0  0  0  0  0  0  0  0  0
  -30.1017  -22.3791   20.5338 C   0  0  0  0  0  0  0  0  0  0  0  0
  -32.0700  -22.2927   19.7386 C   0  0  0  0  0  0  0  0  0  0  0  0
  -29.7385  -18.0598   20.6661 C   0  0  0  0  0  0  0  0  0  0  0  0
  -21.4494  -30.3639   23.6634 C   0  0  1  0  0  0  0  0  0  0  0  0
  -31.1526  -23.4547   20.1721 C   0  0  0  0  0  0  0  0  0  0  0  0
  -29.5194  -25.8435   15.8808 C   0  0  0  0  0  0  0  0  0  0  0  0
  -22.4985  -27.4569   21.4539 C   0  0  1  0  0  0  0  0  0  0  0  0
  -29.6951  -17.0115   21.7861 C   0  0  2  0  0  0  0  0  0  0  0  0
  -23.7310  -19.8186   21.8280 C   0  0  0  0  0  0  0  0  0  0  0  0
  -23.4898  -25.3583   25.4506 C   0  0  0  0  0  0  0  0  0  0  0  0
  -24.0885  -22.9336   25.2762 C   0  0  0  0  0  0  0  0  0  0  0  0
  -21.7170  -23.6543   24.9945 C   0  0  0  0  0  0  0  0  0  0  0  0
  -23.8435  -21.9874   18.7039 C   0  0  0  0  0  0  0  0  0  0  0  0
  -30.4891  -27.9487   18.0750 C   0  0  0  0  0  0  0  0  0  0  0  0
  -29.0969  -28.5488   18.2381 C   0  0  0  0  0  0  0  0  0  1  0  0
  -23.3907  -24.1570   23.1674 C   0  0  1  0  0  0  0  0  0  0  0  0
  -23.4534  -21.0558   20.9884 C   0  0  2  0  0  0  0  0  0  0  0  0
  -23.1826  -24.0448   24.7041 C   0  0  0  0  0  0  0  0  0  0  0  0
  -27.9358  -15.3471   21.3193 N   0  0  0  0  0  0  0  0  0  0  0  0
  -30.9220  -25.8814   19.3473 N   0  0  0  0  0  0  0  0  0  0  0  0
  -30.4853  -26.4452   18.2082 N   0  0  0  0  0  0  0  0  0  0  0  0
  -29.2431  -15.6558   21.2751 N   0  0  0  0  0  0  0  0  0  0  0  0
  -23.2407  -26.2742   21.8950 N   0  0  0  0  0  0  0  0  0  0  0  0
  -30.1601  -19.3745   21.1613 N   0  0  0  0  0  0  0  0  0  0  0  0
  -31.1937  -21.4136   20.5075 N   0  0  0  0  0  0  0  0  0  0  0  0
  -31.3625  -14.8126   20.6365 N   0  0  0  0  0  0  0  0  0  0  0  0
  -28.5429  -11.4426   19.5930 N   0  0  0  0  0  0  0  0  0  0  0  0
  -21.5298  -29.3051   22.6800 N   0  0  0  0  0  0  0  0  0  0  0  0
  -23.0811  -22.9358   22.4317 N   0  0  0  0  0  0  0  0  0  0  0  0
  -24.0599  -20.8559   19.6419 N   0  3  0  0  0  0  0  0  0  0  0  0
  -30.7401  -12.0990   19.5946 O   0  0  0  0  0  0  0  0  0  0  0  0
  -23.6686  -28.5413   23.1945 O   0  0  0  0  0  0  0  0  0  0  0  0
  -21.3188  -25.1851   22.6410 O   0  0  0  0  0  0  0  0  0  0  0  0
  -25.1757  -22.6802   21.4703 O   0  0  0  0  0  0  0  0  0  0  0  0
  -32.1345  -19.4177   19.9668 O   0  0  0  0  0  0  0  0  0  0  0  0
  -23.0196  -11.4252   20.3200 O   0  0  0  0  0  0  0  0  0  0  0  0
  -28.5896  -28.2442   19.5366 O   0  0  0  0  0  0  0  0  0  1  0  0
  -22.8381   -6.1406   21.8834 F   0  0  0  0  0  0  0  0  0  0  0  0
  -21.3135  -10.5992   22.3323 F   0  0  0  0  0  0  0  0  0  0  0  0
  1  2  1  0  0  0  0
  1  5  2  0  0  0  0
  2  6  2  0  0  0  0
  3  8  2  0  0  0  0
  3 16  1  0  0  0  0
  4  9  1  0  0  0  0
  4 16  2  0  0  0  0
  5 18  1  0  0  0  0
  6 20  1  0  0  0  0
  7 10  2  0  0  0  0
  7 19  1  0  0  0  0
  8 22  1  0  0  0  0
  9 22  2  0  0  0  0
 10 23  1  0  0  0  0
 11 12  2  0  0  0  0
 11 24  1  0  0  0  0
 12 25  1  0  0  0  0
 13 21  1  0  0  0  0
 13 23  2  0  0  0  0
 14 25  2  0  0  0  0
 14 26  1  0  0  0  0
 15 28  1  0  0  0  0
 15 29  2  0  0  0  0
 16 27  1  0  0  0  0
 17 27  1  0  0  0  0
 17 30  2  0  0  0  0
 17 31  1  0  0  0  0
 18 20  2  0  0  0  0
 18 36  1  0  0  0  0
 19 21  2  0  0  0  0
 19 37  1  0  0  0  0
 20 49  1  0  0  0  0
 21 38  1  0  0  0  0
 22 81  1  0  0  0  0
 23 82  1  0  0  0  0
 24 26  2  0  0  0  0
 24 81  1  0  0  0  0
 25 83  1  0  0  0  0
 26 84  1  0  0  0  0
 27 64  2  0  0  0  0
 28 50  1  0  0  0  0
 28 65  2  0  0  0  0
 29 51  1  0  0  0  0
 29 66  1  0  0  0  0
 30 67  1  0  0  0  0
 30 71  1  0  0  0  0
 31 72  1  0  0  0  0
 31 76  2  0  0  0  0
 32 52  1  0  0  0  0
 32 73  1  0  0  0  0
 32 77  2  0  0  0  0
 33 61  1  0  0  0  0
 33 68  1  0  0  0  0
 33 78  2  0  0  0  0
 34 62  1  0  0  0  0
 34 74  1  0  0  0  0
 34 79  2  0  0  0  0
 35 69  1  0  0  0  0
 35 70  1  0  0  0  0
 35 80  2  0  0  0  0
 36 39  1  0  0  0  0
 37 52  1  0  0  0  0
 38 68  1  0  0  0  0
 39 41  1  0  0  0  0
 40 44  1  0  0  0  0
 40 45  1  0  0  0  0
 41 49  1  0  0  0  0
 42 43  1  0  0  0  0
 42 51  1  0  0  0  0
 43 51  1  0  0  0  0
 44 53  1  0  0  0  0
 45 69  1  0  0  0  0
 46 50  1  0  0  0  0
 46 70  1  0  0  0  0
 47 50  1  0  0  0  0
 47 70  1  0  0  0  0
 48 53  1  0  0  0  0
 48 69  1  0  0  0  0
 49 73  1  0  0  0  0
 52 68  1  0  0  0  0
 53 67  1  0  0  0  0
 54 62  1  0  0  0  0
 55 63  1  0  0  0  0
 56 63  1  0  0  0  0
 57 63  1  0  0  0  0
 58 75  1  0  0  0  0
 59 60  1  0  0  0  0
 59 66  1  0  0  0  0
 60 82  1  0  0  0  0
 61 63  1  0  0  0  0
 61 74  1  0  0  0  0
 62 75  1  0  0  0  0
 64 67  1  0  0  0  0
 65 66  1  0  0  0  0
M  CHG  1  75   1
M  ISO  4  35 100  60 101  70 100  82 101
M  END
> <Batch ID>
0185

> <Smiles>
CNC(C)C(=O)NC(C(=O)N1Cc2cc([101O:1][101CH2:1]Cn3nc(C4C[100N:0]([100C:0](=O)N5CCCC(n6nc(-c7ccc(Oc8ccc(F)cc8F)cc7)c(C(N)=O)c6N)C5)C4)cc3C3CC3)ccc2CC1C(=O)NC1CCCc2ccccc21)C(C)(C)C

> <Shape>
0.246

> <Color>
0.116

> <Negative vol penalty>
0.000

$$$$

  -OEChem-04052323123D

 90100  0     1  0  0  0  0  0999 V2000
  -28.2803  -37.2400   22.0409 C   0  0  0  0  0  0  0  0  0  0  0  0
  -28.6688  -35.9510   21.6902 C   0  0  0  0  0  0  0  0  0  0  0  0
  -24.6925   -9.2245   22.0305 C   0  0  0  0  0  0  0  0  0  0  0  0
  -24.2719   -8.8413   19.6825 C   0  0  0  0  0  0  0  0  0  0  0  0
  -27.2171  -37.4309   22.9223 C   0  0  0  0  0  0  0  0  0  0  0  0
  -27.9948  -34.8520   22.2217 C   0  0  0  0  0  0  0  0  0  0  0  0
  -26.8727  -29.5183   19.4291 C   0  0  0  0  0  0  0  0  0  0  0  0
  -23.5002   -8.5751   22.3501 C   0  0  0  0  0  0  0  0  0  0  0  0
  -23.0795   -8.1919   20.0021 C   0  0  0  0  0  0  0  0  0  0  0  0
  -27.5111  -28.2800   19.4807 C   0  0  0  0  0  0  0  0  0  0  0  0
  -22.3888   -5.3921   22.6077 C   0  0  0  0  0  0  0  0  0  0  0  0
  -22.4141   -4.4669   23.6512 C   0  0  0  0  0  0  0  0  0  0  0  0
  -25.9242  -27.5376   21.1389 C   0  0  0  0  0  0  0  0  0  0  0  0
  -20.7713   -5.7724   24.8486 C   0  0  0  0  0  0  0  0  0  0  0  0
  -29.0946  -23.5597   18.7137 C   0  0  0  0  0  0  0  0  0  0  0  0
  -25.0784   -9.3577   20.6966 C   0  0  0  0  0  0  0  0  0  0  0  0
  -27.6094   -9.6682   20.7689 C   0  0  0  0  0  0  0  0  0  0  0  0
  -26.5235  -36.3339   23.4573 C   0  0  0  0  0  0  0  0  0  0  0  0
  -25.7599  -29.7798   20.2414 C   0  0  0  0  0  0  0  0  0  0  0  0
  -26.9221  -35.0284   23.1121 C   0  0  0  0  0  0  0  0  0  0  0  0
  -25.2719  -28.7792   21.0939 C   0  0  0  0  0  0  0  0  0  0  0  0
  -29.3154  -24.5142   19.6856 C   0  0  0  0  0  0  0  0  0  0  0  0
  -22.6937   -8.0588   21.3359 C   0  0  0  0  0  0  0  0  0  0  0  0
  -27.0387  -27.2904   20.3378 C   0  0  0  0  0  0  0  0  0  0  0  0
  -21.5548   -6.5076   22.6847 C   0  0  0  0  0  0  0  0  0  0  0  0
  -21.6054   -4.6570   24.7716 C   0  0  0  0  0  0  0  0  0  0  0  0
  -20.7460   -6.6977   23.8051 C   0  0  0  0  0  0  0  0  0  0  0  0
  -26.3097  -10.0289   20.3658 C   0  0  0  0  0  0  0  0  0  0  0  0
  -30.0445  -24.0948   20.7795 C   0  0  0  0  0  0  0  0  0  0  0  0
  -28.4220  -10.6155   20.1955 C   0  0  0  0  0  0  0  0  0  0  0  0
  -30.2442  -22.0047   19.9084 C   0  0  0  0  0  0  0  0  0  0  0  0
  -28.0433   -8.5746   21.5883 C   0  0  0  0  0  0  0  0  0  0  0  0
  -25.1154  -31.8522   22.5638 C   0  0  0  0  0  0  0  0  0  0  0  0
  -22.1379  -30.5854   22.3365 C   0  0  0  0  0  0  0  0  0  0  0  0
  -20.1738  -27.9459   21.4298 C   0  0  0  0  0  0  0  0  0  0  0  0
  -29.7082  -15.6665   18.9153 C   0  0  0  0  0  0  0  0  0  0  0  0
  -25.4109  -36.5892   24.4431 C   0  0  0  0  0  0  0  0  0  0  0  0
  -25.0662  -31.1115   20.1544 C   0  0  0  0  0  0  0  0  0  0  0  0
  -24.0685  -29.0027   21.9716 C   0  0  0  0  0  0  0  0  0  0  0  0
  -24.5084  -35.3790   24.6697 C   0  0  0  0  0  0  0  0  0  0  0  0
  -27.4405  -14.1396   16.7117 C   0  0  0  0  0  0  0  0  0  0  0  0
  -25.3451  -34.1216   24.8831 C   0  0  0  0  0  0  0  0  0  0  0  0
  -27.0422  -12.8933   17.5018 C   0  0  0  0  0  0  0  0  0  0  0  0
  -29.0934  -19.1232   19.1634 C   0  0  0  0  0  0  0  0  0  0  0  0
  -31.5586  -18.5841   19.1774 C   0  0  0  0  0  0  0  0  0  0  0  0
  -31.6257  -24.8000   22.7151 C   0  0  0  0  0  0  0  0  0  0  0  0
  -27.5567  -15.3738   17.6082 C   0  0  0  0  0  0  0  0  0  0  0  0
  -28.8595  -17.9485   18.2089 C   0  0  0  0  0  0  0  0  0  0  0  0
  -31.2808  -17.4419   18.2041 C   0  0  0  0  0  0  0  0  0  0  0  0
  -28.0530  -13.9412   19.5627 C   0  0  0  0  0  0  0  0  0  0  0  0
  -31.4504  -25.7058   23.9155 C   0  0  0  0  0  0  0  0  0  0  0  0
  -29.2729  -25.0895   22.9968 C   0  0  0  0  0  0  0  0  0  0  0  0
  -26.1998  -33.8115   23.6483 C   0  0  1  0  0  0  0  0  0  0  0  0
  -30.3522  -25.0557   21.9076 C   0  0  2  0  0  0  0  0  0  0  0  0
  -24.2540  -31.4448   21.4021 C   0  0  1  0  0  0  0  0  0  0  0  0
  -27.9852  -12.6728   18.6980 C   0  0  1  0  0  0  0  0  0  0  0  0
  -30.5090  -19.6880   19.0238 C   0  0  0  0  0  0  0  0  0  0  0  0
  -17.7812  -27.1896   21.3997 C   0  0  0  0  0  0  0  0  0  0  0  0
  -22.2707  -30.0539   25.3381 C   0  0  0  0  0  0  0  0  0  0  0  0
  -20.3351  -28.4877   25.0759 C   0  0  0  0  0  0  0  0  0  0  0  0
  -20.0640  -30.9058   24.5262 C   0  0  0  0  0  0  0  0  0  0  0  0
  -29.3866  -26.7609   24.8963 C   0  0  0  0  0  0  0  0  0  0  0  0
  -20.1692  -27.6939   18.4810 C   0  0  0  0  0  0  0  0  0  0  0  0
  -28.7919  -25.8962   19.5389 C   0  0  0  0  0  0  0  0  0  1  0  0
  -21.4162  -29.4280   22.9835 C   0  0  1  0  0  0  0  0  0  0  0  0
  -18.8919  -27.8757   20.6197 C   0  0  2  0  0  0  0  0  0  0  0  0
  -21.0454  -29.7150   24.4659 C   0  0  0  0  0  0  0  0  0  0  0  0
  -29.5461  -22.2908   18.7930 N   0  0  0  0  0  0  0  0  0  0  0  0
  -26.2928  -11.1203   19.5960 N   0  0  0  0  0  0  0  0  0  0  0  0
  -30.5260  -22.8427   20.9242 N   0  0  0  0  0  0  0  0  0  0  0  0
  -27.5919  -11.4536   19.5108 N   0  0  0  0  0  0  0  0  0  0  0  0
  -23.4285  -30.3234   21.8553 N   0  0  0  0  0  0  0  0  0  0  0  0
  -28.4335  -15.1026   18.7559 N   0  0  0  0  0  0  0  0  0  0  0  0
  -29.9160  -16.9375   18.3591 N   0  0  0  0  0  0  0  0  0  0  0  0
  -29.7584  -10.8051   20.2153 N   0  0  0  0  0  0  0  0  0  0  0  0
  -28.3608   -7.3591   20.9669 N   0  0  0  0  0  0  0  0  0  0  0  0
  -30.7234  -20.7117   20.0227 N   0  0  0  0  0  0  0  0  0  0  0  0
  -25.3907  -33.2055   22.6127 N   0  0  0  0  0  0  0  0  0  0  0  0
  -20.2723  -29.1307   22.1282 N   0  0  0  0  0  0  0  0  0  0  0  0
  -29.9873  -25.5513   24.2546 N   0  3  2  0  0  0  0  0  0  0  0  0
  -19.1178  -27.1165   19.3573 N   0  3  0  0  0  0  0  0  0  0  0  0
  -28.1308   -8.6674   22.8361 O   0  0  0  0  0  0  0  0  0  0  0  0
  -25.5006  -31.0020   23.3578 O   0  0  0  0  0  0  0  0  0  0  0  0
  -21.5744  -31.6797   22.2545 O   0  0  0  0  0  0  0  0  0  0  0  0
  -21.0029  -27.0387   21.4447 O   0  0  0  0  0  0  0  0  0  0  0  0
  -30.6081  -15.0696   19.5194 O   0  0  0  0  0  0  0  0  0  0  0  0
  -21.5302   -7.4248   21.6475 O   0  0  0  0  0  0  0  0  0  0  0  0
  -27.6643  -26.0736   20.3909 O   0  0  0  0  0  0  0  0  0  1  0  0
  -21.6286   -3.7677   25.7730 F   0  0  0  0  0  0  0  0  0  0  0  0
  -19.9418   -7.7667   23.8842 F   0  0  0  0  0  0  0  0  0  0  0  0
  1  2  1  0  0  0  0
  1  5  2  0  0  0  0
  2  6  2  0  0  0  0
  3  8  2  0  0  0  0
  3 16  1  0  0  0  0
  4  9  1  0  0  0  0
  4 16  2  0  0  0  0
  5 18  1  0  0  0  0
  6 20  1  0  0  0  0
  7 10  2  0  0  0  0
  7 19  1  0  0  0  0
  8 23  1  0  0  0  0
  9 23  2  0  0  0  0
 10 24  1  0  0  0  0
 11 12  2  0  0  0  0
 11 25  1  0  0  0  0
 12 26  1  0  0  0  0
 13 21  1  0  0  0  0
 13 24  2  0  0  0  0
 14 26  2  0  0  0  0
 14 27  1  0  0  0  0
 15 22  1  0  0  0  0
 15 68  2  0  0  0  0
 16 28  1  0  0  0  0
 17 28  1  0  0  0  0
 17 30  2  0  0  0  0
 17 32  1  0  0  0  0
 18 20  2  0  0  0  0
 18 37  1  0  0  0  0
 19 21  2  0  0  0  0
 19 38  1  0  0  0  0
 20 53  1  0  0  0  0
 21 39  1  0  0  0  0
 22 29  2  0  0  0  0
 22 64  1  0  0  0  0
 23 87  1  0  0  0  0
 24 88  1  0  0  0  0
 25 27  2  0  0  0  0
 25 87  1  0  0  0  0
 26 89  1  0  0  0  0
 27 90  1  0  0  0  0
 28 69  2  0  0  0  0
 29 54  1  0  0  0  0
 29 70  1  0  0  0  0
 30 71  1  0  0  0  0
 30 75  1  0  0  0  0
 31 68  1  0  0  0  0
 31 70  2  0  0  0  0
 31 77  1  0  0  0  0
 32 76  1  0  0  0  0
 32 82  2  0  0  0  0
 33 55  1  0  0  0  0
 33 78  1  0  0  0  0
 33 83  2  0  0  0  0
 34 65  1  0  0  0  0
 34 72  1  0  0  0  0
 34 84  2  0  0  0  0
 35 66  1  0  0  0  0
 35 79  1  0  0  0  0
 35 85  2  0  0  0  0
 36 73  1  0  0  0  0
 36 74  1  0  0  0  0
 36 86  2  0  0  0  0
 37 40  1  0  0  0  0
 38 55  1  0  0  0  0
 39 72  1  0  0  0  0
 40 42  1  0  0  0  0
 41 43  1  0  0  0  0
 41 47  1  0  0  0  0
 42 53  1  0  0  0  0
 43 56  1  0  0  0  0
 44 48  1  0  0  0  0
 44 57  1  0  0  0  0
 45 49  1  0  0  0  0
 45 57  1  0  0  0  0
 46 51  1  0  0  0  0
 46 54  1  0  0  0  0
 47 73  1  0  0  0  0
 48 74  1  0  0  0  0
 49 74  1  0  0  0  0
 50 56  1  0  0  0  0
 50 73  1  0  0  0  0
 51 80  1  0  0  0  0
 52 54  1  0  0  0  0
 52 80  1  0  0  0  0
 53 78  1  0  0  0  0
 55 72  1  0  0  0  0
 56 71  1  0  0  0  0
 57 77  1  0  0  0  0
 58 66  1  0  0  0  0
 59 67  1  0  0  0  0
 60 67  1  0  0  0  0
 61 67  1  0  0  0  0
 62 80  1  0  0  0  0
 63 81  1  0  0  0  0
 64 88  1  0  0  0  0
 65 67  1  0  0  0  0
 65 79  1  0  0  0  0
 66 81  1  0  0  0  0
 69 71  1  0  0  0  0
M  CHG  2  80   1  81   1
M  ISO  4  36 100  64 101  74 100  88 101
M  END
> <Batch ID>
0185

> <Smiles>
CNC(C)C(=O)NC(C(=O)N1Cc2cc([101O:1][101CH2:1]c3cnc(NC4CC[100N:0]([100C:0](=O)N5CCCC(n6nc(-c7ccc(Oc8ccc(F)cc8F)cc7)c(C(N)=O)c6N)C5)CC4)nc3C3CCN(C)C3)ccc2CC1C(=O)NC1CCCc2ccccc21)C(C)(C)C

> <Shape>
0.329

> <Color>
0.096

> <Negative vol penalty>
0.000

$$$$

  -OEChem-04052323123D

 83 92  0     1  0  0  0  0  0999 V2000
  -30.3464  -26.5917   16.9161 C   0  0  0  0  0  0  0  0  0  0  0  0
  -29.9933  -25.3460   16.4072 C   0  0  0  0  0  0  0  0  0  0  0  0
  -20.9779  -25.1622   22.5527 C   0  0  0  0  0  0  0  0  0  0  0  0
  -18.5826  -25.4766   22.5771 C   0  0  0  0  0  0  0  0  0  0  0  0
  -30.7154  -26.7174   18.2547 C   0  0  0  0  0  0  0  0  0  0  0  0
  -30.0100  -24.2250   17.2365 C   0  0  0  0  0  0  0  0  0  0  0  0
  -26.6175  -18.0030   18.2823 C   0  0  0  0  0  0  0  0  0  0  0  0
  -21.1597  -26.5333   22.7328 C   0  0  0  0  0  0  0  0  0  0  0  0
  -18.7644  -26.8478   22.7573 C   0  0  0  0  0  0  0  0  0  0  0  0
  -26.8829  -16.6412   18.4187 C   0  0  0  0  0  0  0  0  0  0  0  0
  -21.0570  -29.3295   20.8367 C   0  0  0  0  0  0  0  0  0  0  0  0
  -22.0128  -29.9653   20.0445 C   0  0  0  0  0  0  0  0  0  0  0  0
  -27.4609  -16.9919   20.7343 C   0  0  0  0  0  0  0  0  0  0  0  0
  -23.2138  -30.6351   22.0310 C   0  0  0  0  0  0  0  0  0  0  0  0
  -24.5268  -12.3914   20.9153 C   0  0  0  0  0  0  0  0  0  0  0  0
  -19.6893  -24.6338   22.4748 C   0  0  0  0  0  0  0  0  0  0  0  0
  -19.3820  -22.2363   23.2906 C   0  0  0  0  0  0  0  0  0  0  0  0
  -30.7274  -25.5992   19.1032 C   0  0  0  0  0  0  0  0  0  0  0  0
  -26.7825  -18.8728   19.3699 C   0  0  0  0  0  0  0  0  0  0  0  0
  -30.3808  -24.3358   18.5874 C   0  0  0  0  0  0  0  0  0  0  0  0
  -27.1944  -18.3639   20.6098 C   0  0  0  0  0  0  0  0  0  0  0  0
  -20.0530  -27.3761   22.8352 C   0  0  0  0  0  0  0  0  0  0  0  0
  -27.3075  -16.1358   19.6440 C   0  0  0  0  0  0  0  0  0  0  0  0
  -21.1795  -29.3465   22.2261 C   0  0  0  0  0  0  0  0  0  0  0  0
  -23.0912  -30.6181   20.6416 C   0  0  0  0  0  0  0  0  0  0  0  0
  -22.2579  -29.9993   22.8232 C   0  0  0  0  0  0  0  0  0  0  0  0
  -19.5008  -23.2175   22.2881 C   0  0  0  0  0  0  0  0  0  0  0  0
  -26.7245  -12.6209   20.3250 C   0  0  0  0  0  0  0  0  0  0  0  0
  -24.3422  -13.7471   20.7546 C   0  0  0  0  0  0  0  0  0  0  0  0
  -26.5399  -13.9766   20.1645 C   0  0  0  0  0  0  0  0  0  1  0  0
  -19.2196  -21.0594   22.6015 C   0  0  0  0  0  0  0  0  0  0  0  0
  -19.4154  -22.3763   24.7171 C   0  0  0  0  0  0  0  0  0  0  0  0
  -28.6275  -21.3910   19.9684 C   0  0  0  0  0  0  0  0  0  0  0  0
  -26.8425  -21.5663   22.6712 C   0  0  0  0  0  0  0  0  0  0  0  0
  -25.1146  -20.1103   25.4839 C   0  0  0  0  0  0  0  0  0  0  0  0
  -21.0032  -17.7662   18.3765 C   0  0  0  0  0  0  0  0  0  0  0  0
  -31.1789  -25.7763   20.5313 C   0  0  0  0  0  0  0  0  0  0  0  0
  -26.4663  -20.3350   19.2135 C   0  0  0  0  0  0  0  0  0  0  0  0
  -27.3675  -19.2524   21.8136 C   0  0  0  0  0  0  0  0  0  0  0  0
  -30.8095  -24.6042   21.4367 C   0  0  0  0  0  0  0  0  0  0  0  0
  -18.3335  -20.1925   17.6995 C   0  0  0  0  0  0  0  0  0  0  0  0
  -31.1540  -23.2798   20.7629 C   0  0  0  0  0  0  0  0  0  0  0  0
  -18.4264  -21.1409   18.8956 C   0  0  0  0  0  0  0  0  0  0  0  0
  -21.4542  -16.0199   21.5802 C   0  0  0  0  0  0  0  0  0  0  0  0
  -19.6883  -19.5830   17.3466 C   0  0  0  0  0  0  0  0  0  0  0  0
  -21.0555  -17.3261   20.9012 C   0  0  0  0  0  0  0  0  0  0  0  0
  -20.4698  -19.8791   19.6649 C   0  0  0  0  0  0  0  0  0  0  0  0
  -22.4547  -16.0520   19.4234 C   0  0  0  0  0  0  0  0  0  0  0  0
  -30.3628  -23.1006   19.4616 C   0  0  1  0  0  0  0  0  0  0  0  0
  -27.1627  -21.2110   20.2503 C   0  0  1  0  0  0  0  0  0  0  0  0
  -19.1145  -20.4590   20.0928 C   0  0  1  0  0  0  0  0  0  0  0  0
  -22.7539  -15.6682   20.8647 C   0  0  2  0  0  0  0  0  0  0  0  0
  -28.0521  -11.9871   20.0870 C   0  0  0  0  0  0  0  0  0  0  0  0
  -23.6417  -20.4839   27.4810 C   0  0  0  0  0  0  0  0  0  0  0  0
  -29.4555  -21.5742   24.2467 C   0  0  0  0  0  0  0  0  0  0  0  0
  -28.1375  -21.0163   26.3010 C   0  0  0  0  0  0  0  0  0  0  0  0
  -27.7196  -23.1609   25.0974 C   0  0  0  0  0  0  0  0  0  0  0  0
  -22.6899  -19.3012   23.9923 C   0  0  0  0  0  0  0  0  0  0  0  0
  -26.9480  -20.9875   24.0615 C   0  0  1  0  0  0  0  0  0  0  0  0
  -23.7135  -20.4455   25.9624 C   0  0  2  0  0  0  0  0  0  0  0  0
  -28.0639  -21.6680   24.9036 C   0  0  0  0  0  0  0  0  0  0  0  0
  -25.7213  -11.8039   20.7033 N   0  0  0  0  0  0  0  0  0  0  0  0
  -19.4208  -22.7082   21.0560 N   0  0  0  0  0  0  0  0  0  0  0  0
  -25.3455  -14.5641   20.3764 N   0  0  0  0  0  0  0  0  0  0  0  0
  -19.2502  -21.3941   21.2797 N   0  0  0  0  0  0  0  0  0  0  0  0
  -27.0519  -20.6757   21.6087 N   0  0  0  0  0  0  0  0  0  0  0  0
  -20.3116  -18.9738   18.5217 N   0  0  0  0  0  0  0  0  0  0  0  0
  -21.5397  -17.1863   19.5254 N   0  0  0  0  0  0  0  0  0  0  0  0
  -19.0552  -19.7811   23.0034 N   0  0  0  0  0  0  0  0  0  0  0  0
  -19.5898  -23.6571   25.2589 N   0  0  0  0  0  0  0  0  0  0  0  0
  -23.0796  -14.2725   20.9941 N   0  0  0  0  0  0  0  0  0  0  0  0
  -29.0012  -22.7031   19.7487 N   0  0  0  0  0  0  0  0  0  0  0  0
  -25.6149  -21.0845   24.6462 N   0  0  0  0  0  0  0  0  0  0  0  0
  -22.7412  -19.4283   25.4715 N   0  3  0  0  0  0  0  0  0  0  0  0
  -19.3106  -21.3926   25.4883 O   0  0  0  0  0  0  0  0  0  0  0  0
  -29.3645  -20.4120   19.9528 O   0  0  0  0  0  0  0  0  0  0  0  0
  -26.5769  -22.7630   22.5329 O   0  0  0  0  0  0  0  0  0  0  0  0
  -25.7074  -19.0884   25.8226 O   0  0  0  0  0  0  0  0  0  0  0  0
  -21.0970  -17.2059   17.2763 O   0  0  0  0  0  0  0  0  0  0  0  0
  -20.2301  -28.7141   23.0112 O   0  0  0  0  0  0  0  0  0  0  0  0
  -27.5721  -14.7861   19.7818 O   0  0  0  0  0  0  0  0  0  1  0  0
  -24.0099  -31.2273   19.8806 F   0  0  0  0  0  0  0  0  0  0  0  0
  -22.3815  -30.0180   24.1575 F   0  0  0  0  0  0  0  0  0  0  0  0
  1  2  1  0  0  0  0
  1  5  2  0  0  0  0
  2  6  2  0  0  0  0
  3  8  2  0  0  0  0
  3 16  1  0  0  0  0
  4  9  1  0  0  0  0
  4 16  2  0  0  0  0
  5 18  1  0  0  0  0
  6 20  1  0  0  0  0
  7 10  2  0  0  0  0
  7 19  1  0  0  0  0
  8 22  1  0  0  0  0
  9 22  2  0  0  0  0
 10 23  1  0  0  0  0
 11 12  2  0  0  0  0
 11 24  1  0  0  0  0
 12 25  1  0  0  0  0
 13 21  1  0  0  0  0
 13 23  2  0  0  0  0
 14 25  2  0  0  0  0
 14 26  1  0  0  0  0
 15 29  1  0  0  0  0
 15 62  2  0  0  0  0
 16 27  1  0  0  0  0
 17 27  1  0  0  0  0
 17 31  2  0  0  0  0
 17 32  1  0  0  0  0
 18 20  2  0  0  0  0
 18 37  1  0  0  0  0
 19 21  2  0  0  0  0
 19 38  1  0  0  0  0
 20 49  1  0  0  0  0
 21 39  1  0  0  0  0
 22 80  1  0  0  0  0
 23 81  1  0  0  0  0
 24 26  2  0  0  0  0
 24 80  1  0  0  0  0
 25 82  1  0  0  0  0
 26 83  1  0  0  0  0
 27 63  2  0  0  0  0
 28 30  2  0  0  0  0
 28 53  1  0  0  0  0
 28 62  1  0  0  0  0
 29 64  2  0  0  0  0
 29 71  1  0  0  0  0
 30 64  1  0  0  0  0
 30 81  1  0  0  0  0
 31 65  1  0  0  0  0
 31 69  1  0  0  0  0
 32 70  1  0  0  0  0
 32 75  2  0  0  0  0
 33 50  1  0  0  0  0
 33 72  1  0  0  0  0
 33 76  2  0  0  0  0
 34 59  1  0  0  0  0
 34 66  1  0  0  0  0
 34 77  2  0  0  0  0
 35 60  1  0  0  0  0
 35 73  1  0  0  0  0
 35 78  2  0  0  0  0
 36 67  1  0  0  0  0
 36 68  1  0  0  0  0
 36 79  2  0  0  0  0
 37 40  1  0  0  0  0
 38 50  1  0  0  0  0
 39 66  1  0  0  0  0
 40 42  1  0  0  0  0
 41 43  1  0  0  0  0
 41 45  1  0  0  0  0
 42 49  1  0  0  0  0
 43 51  1  0  0  0  0
 44 46  1  0  0  0  0
 44 52  1  0  0  0  0
 45 67  1  0  0  0  0
 46 68  1  0  0  0  0
 47 51  1  0  0  0  0
 47 67  1  0  0  0  0
 48 52  1  0  0  0  0
 48 68  1  0  0  0  0
 49 72  1  0  0  0  0
 50 66  1  0  0  0  0
 51 65  1  0  0  0  0
 52 71  1  0  0  0  0
 54 60  1  0  0  0  0
 55 61  1  0  0  0  0
 56 61  1  0  0  0  0
 57 61  1  0  0  0  0
 58 74  1  0  0  0  0
 59 61  1  0  0  0  0
 59 73  1  0  0  0  0
 60 74  1  0  0  0  0
 63 65  1  0  0  0  0
M  CHG  1  74   1
M  ISO  4  30 101  36 100  68 100  81 101
M  END
> <Batch ID>
0185

> <Smiles>
CNC(C)C(=O)NC(C(=O)N1Cc2cc([101O:1][101c:1]3nc(NC4CC[100N:0]([100C:0](=O)N5CCCC(n6nc(-c7ccc(Oc8ccc(F)cc8F)cc7)c(C(N)=O)c6N)C5)C4)cnc3C)ccc2CC1C(=O)NC1CCCc2ccccc21)C(C)(C)C

> <Shape>
0.198

> <Color>
0.063

> <Negative vol penalty>
0.000

$$$$

  -OEChem-04052323123D

 83 92  0     1  0  0  0  0  0999 V2000
  -15.0412  -30.0812   20.8407 C   0  0  0  0  0  0  0  0  0  0  0  0
  -15.8174  -28.9429   20.6473 C   0  0  0  0  0  0  0  0  0  0  0  0
  -23.0033  -10.2163   19.9363 C   0  0  0  0  0  0  0  0  0  0  0  0
  -23.8589   -9.7579   22.1487 C   0  0  0  0  0  0  0  0  0  0  0  0
  -15.6230  -31.3447   20.7457 C   0  0  0  0  0  0  0  0  0  0  0  0
  -17.1757  -29.0676   20.3576 C   0  0  0  0  0  0  0  0  0  0  0  0
  -21.6788  -25.3180   22.1376 C   0  0  0  0  0  0  0  0  0  0  0  0
  -22.1911   -9.0851   20.0160 C   0  0  0  0  0  0  0  0  0  0  0  0
  -23.0467   -8.6267   22.2284 C   0  0  0  0  0  0  0  0  0  0  0  0
  -22.3419  -24.2757   21.4915 C   0  0  0  0  0  0  0  0  0  0  0  0
  -23.0780   -5.4505   21.0699 C   0  0  0  0  0  0  0  0  0  0  0  0
  -23.6496   -4.2754   21.5578 C   0  0  0  0  0  0  0  0  0  0  0  0
  -24.1045  -25.7966   20.8596 C   0  0  0  0  0  0  0  0  0  0  0  0
  -22.0391   -4.2397   23.3583 C   0  0  0  0  0  0  0  0  0  0  0  0
  -25.2620  -20.3540   17.6328 C   0  0  0  0  0  0  0  0  0  0  0  0
  -23.8372  -10.5527   21.0026 C   0  0  0  0  0  0  0  0  0  0  0  0
  -24.3513  -13.0313   21.3183 C   0  0  0  0  0  0  0  0  0  0  0  0
  -16.9912  -31.4846   20.4643 C   0  0  0  0  0  0  0  0  0  0  0  0
  -22.2191  -26.6121   22.1403 C   0  0  0  0  0  0  0  0  0  0  0  0
  -17.7760  -30.3342   20.2574 C   0  0  0  0  0  0  0  0  0  0  0  0
  -23.4475  -26.8531   21.5087 C   0  0  0  0  0  0  0  0  0  0  0  0
  -22.2128   -8.2903   21.1620 C   0  0  0  0  0  0  0  0  0  0  0  0
  -23.5535  -24.5155   20.8499 C   0  0  0  0  0  0  0  0  0  0  0  0
  -21.9870   -6.0203   21.7263 C   0  0  0  0  0  0  0  0  0  0  0  0
  -23.1301   -3.6700   22.7020 C   0  0  0  0  0  0  0  0  0  0  0  0
  -21.4676   -5.4148   22.8705 C   0  0  0  0  0  0  0  0  0  0  0  0
  -24.6769  -11.7207   20.9207 C   0  0  0  0  0  0  0  0  0  0  0  0
  -25.9866  -19.4527   18.3697 C   0  0  0  0  0  0  0  0  0  0  0  0
  -25.4772  -13.7655   21.0360 C   0  0  0  0  0  0  0  0  0  0  0  0
  -24.4488  -21.2216   19.5526 C   0  0  0  0  0  0  0  0  0  0  0  0
  -23.1394  -13.5396   21.8918 C   0  0  0  0  0  0  0  0  0  0  0  0
  -21.2756  -29.4390   21.0348 C   0  0  0  0  0  0  0  0  0  0  0  0
  -23.9231  -30.4923   22.5852 C   0  0  0  0  0  0  0  0  0  0  0  0
  -27.0131  -29.7860   23.8502 C   0  0  0  0  0  0  0  0  0  0  0  0
  -29.6870  -15.1658   17.8374 C   0  0  0  0  0  0  0  0  0  0  0  0
  -17.5654  -32.8723   20.3248 C   0  0  0  0  0  0  0  0  0  0  0  0
  -21.5046  -27.7199   22.8646 C   0  0  0  0  0  0  0  0  0  0  0  0
  -24.0799  -28.2200   21.5000 C   0  0  0  0  0  0  0  0  0  0  0  0
  -19.0903  -32.9093   20.3845 C   0  0  0  0  0  0  0  0  0  0  0  0
  -30.1349  -12.3090   19.7320 C   0  0  0  0  0  0  0  0  0  0  0  0
  -19.6859  -31.8229   19.4947 C   0  0  0  0  0  0  0  0  0  0  0  0
  -28.7316  -11.9957   20.2513 C   0  0  0  0  0  0  0  0  0  0  0  0
  -28.3584  -18.6115   18.0767 C   0  0  0  0  0  0  0  0  0  0  0  0
  -26.4217  -16.9858   17.9923 C   0  0  0  0  0  0  0  0  0  0  0  0
  -30.0907  -12.7618   18.2768 C   0  0  0  0  0  0  0  0  0  0  0  0
  -29.2425  -17.5568   17.4156 C   0  0  0  0  0  0  0  0  0  0  0  0
  -27.3483  -15.9691   17.3319 C   0  0  0  0  0  0  0  0  0  0  0  0
  -27.7950  -13.6385   18.5518 C   0  0  0  0  0  0  0  0  0  0  0  0
  -19.2581  -30.4278   19.9659 C   0  0  1  0  0  0  0  0  0  0  0  0
  -26.8788  -18.4255   17.6983 C   0  0  0  0  0  0  0  0  0  0  0  0
  -21.8922  -29.1081   22.3645 C   0  0  1  0  0  0  0  0  0  0  0  0
  -27.7812  -13.1847   20.0252 C   0  0  1  0  0  0  0  0  0  0  0  0
  -28.9527  -30.8595   25.0262 C   0  0  0  0  0  0  0  0  0  0  0  0
  -24.7832  -31.8012   19.9667 C   0  0  0  0  0  0  0  0  0  0  0  0
  -27.0902  -32.0194   20.9143 C   0  0  0  0  0  0  0  0  0  0  0  0
  -25.1788  -33.1918   22.0073 C   0  0  0  0  0  0  0  0  0  0  0  0
  -26.7290  -28.0017   26.1943 C   0  0  0  0  0  0  0  0  0  0  0  0
  -23.5850  -22.2139   20.2516 C   0  0  0  0  0  0  0  0  0  1  0  0
  -25.3748  -30.6798   22.2158 C   0  0  1  0  0  0  0  0  0  0  0  0
  -27.6469  -30.0982   25.1938 C   0  0  2  0  0  0  0  0  0  0  0  0
  -25.5941  -31.8976   21.2743 C   0  0  0  0  0  0  0  0  0  0  0  0
  -24.4690  -21.2680   18.2122 N   0  0  0  0  0  0  0  0  0  0  0  0
  -25.9128  -11.6248   20.4233 N   0  0  0  0  0  0  0  0  0  0  0  0
  -25.9260  -19.4540   19.7137 N   0  0  0  0  0  0  0  0  0  0  0  0
  -25.1374  -20.3606   20.3274 N   0  0  0  0  0  0  0  0  0  0  0  0
  -26.3736  -12.8845   20.5066 N   0  0  0  0  0  0  0  0  0  0  0  0
  -23.3398  -29.2718   22.2165 N   0  0  0  0  0  0  0  0  0  0  0  0
  -29.1730  -13.8874   18.1029 N   0  0  0  0  0  0  0  0  0  0  0  0
  -28.7543  -16.2053   17.6870 N   0  0  0  0  0  0  0  0  0  0  0  0
  -25.7778  -15.0724   21.1912 N   0  0  0  0  0  0  0  0  0  0  0  0
  -22.0811  -12.6484   22.1157 N   0  0  0  0  0  0  0  0  0  0  0  0
  -20.0284  -30.0271   21.1237 N   0  0  0  0  0  0  0  0  0  0  0  0
  -26.1095  -30.7571   23.4738 N   0  0  0  0  0  0  0  0  0  0  0  0
  -27.9295  -28.8386   25.9384 N   0  3  0  0  0  0  0  0  0  0  0  0
  -22.9934  -14.7513   22.1816 O   0  0  0  0  0  0  0  0  0  0  0  0
  -21.8870  -29.1813   20.0045 O   0  0  0  0  0  0  0  0  0  0  0  0
  -23.3307  -31.3925   23.1854 O   0  0  0  0  0  0  0  0  0  0  0  0
  -27.2944  -28.7830   23.1980 O   0  0  0  0  0  0  0  0  0  0  0  0
  -30.9038  -15.3698   17.7454 O   0  0  0  0  0  0  0  0  0  0  0  0
  -21.4202   -7.1865   21.2402 O   0  0  0  0  0  0  0  0  0  0  0  0
  -24.2068  -23.4931   20.2136 O   0  0  0  0  0  0  0  0  0  1  0  0
  -23.6781   -2.5407   23.1694 F   0  0  0  0  0  0  0  0  0  0  0  0
  -20.4188   -5.9568   23.5047 F   0  0  0  0  0  0  0  0  0  0  0  0
  1  2  1  0  0  0  0
  1  5  2  0  0  0  0
  2  6  2  0  0  0  0
  3  8  2  0  0  0  0
  3 16  1  0  0  0  0
  4  9  1  0  0  0  0
  4 16  2  0  0  0  0
  5 18  1  0  0  0  0
  6 20  1  0  0  0  0
  7 10  2  0  0  0  0
  7 19  1  0  0  0  0
  8 22  1  0  0  0  0
  9 22  2  0  0  0  0
 10 23  1  0  0  0  0
 11 12  2  0  0  0  0
 11 24  1  0  0  0  0
 12 25  1  0  0  0  0
 13 21  1  0  0  0  0
 13 23  2  0  0  0  0
 14 25  2  0  0  0  0
 14 26  1  0  0  0  0
 15 28  1  0  0  0  0
 15 62  2  0  0  0  0
 16 27  1  0  0  0  0
 17 27  1  0  0  0  0
 17 29  2  0  0  0  0
 17 31  1  0  0  0  0
 18 20  2  0  0  0  0
 18 36  1  0  0  0  0
 19 21  2  0  0  0  0
 19 37  1  0  0  0  0
 20 49  1  0  0  0  0
 21 38  1  0  0  0  0
 22 80  1  0  0  0  0
 23 81  1  0  0  0  0
 24 26  2  0  0  0  0
 24 80  1  0  0  0  0
 25 82  1  0  0  0  0
 26 83  1  0  0  0  0
 27 63  2  0  0  0  0
 28 50  1  0  0  0  0
 28 64  2  0  0  0  0
 29 66  1  0  0  0  0
 29 70  1  0  0  0  0
 30 58  1  0  0  0  0
 30 62  1  0  0  0  0
 30 65  2  0  0  0  0
 31 71  1  0  0  0  0
 31 75  2  0  0  0  0
 32 51  1  0  0  0  0
 32 72  1  0  0  0  0
 32 76  2  0  0  0  0
 33 59  1  0  0  0  0
 33 67  1  0  0  0  0
 33 77  2  0  0  0  0
 34 60  1  0  0  0  0
 34 73  1  0  0  0  0
 34 78  2  0  0  0  0
 35 68  1  0  0  0  0
 35 69  1  0  0  0  0
 35 79  2  0  0  0  0
 36 39  1  0  0  0  0
 37 51  1  0  0  0  0
 38 67  1  0  0  0  0
 39 41  1  0  0  0  0
 40 42  1  0  0  0  0
 40 45  1  0  0  0  0
 41 49  1  0  0  0  0
 42 52  1  0  0  0  0
 43 46  1  0  0  0  0
 43 50  1  0  0  0  0
 44 47  1  0  0  0  0
 44 50  1  0  0  0  0
 45 68  1  0  0  0  0
 46 69  1  0  0  0  0
 47 69  1  0  0  0  0
 48 52  1  0  0  0  0
 48 68  1  0  0  0  0
 49 72  1  0  0  0  0
 51 67  1  0  0  0  0
 52 66  1  0  0  0  0
 53 60  1  0  0  0  0
 54 61  1  0  0  0  0
 55 61  1  0  0  0  0
 56 61  1  0  0  0  0
 57 74  1  0  0  0  0
 58 81  1  0  0  0  0
 59 61  1  0  0  0  0
 59 73  1  0  0  0  0
 60 74  1  0  0  0  0
 63 66  1  0  0  0  0
 64 65  1  0  0  0  0
M  CHG  1  74   1
M  ISO  4  35 100  58 101  69 100  81 101
M  END
> <Batch ID>
0185

> <Smiles>
CNC(C)C(=O)NC(C(=O)N1Cc2cc([101O:1][101CH2:1]c3ncc(C4CC[100N:0]([100C:0](=O)N5CCCC(n6nc(-c7ccc(Oc8ccc(F)cc8F)cc7)c(C(N)=O)c6N)C5)CC4)nn3)ccc2CC1C(=O)NC1CCCc2ccccc21)C(C)(C)C

> <Shape>
0.253

> <Color>
0.137

> <Negative vol penalty>
0.000

$$$$

  -OEChem-04052323123D

 79 87  0     1  0  0  0  0  0999 V2000
  -31.1513  -31.4408   16.4301 C   0  0  0  0  0  0  0  0  0  0  0  0
  -31.0017  -30.1742   15.8744 C   0  0  0  0  0  0  0  0  0  0  0  0
  -23.3703   -9.7998   19.8350 C   0  0  0  0  0  0  0  0  0  0  0  0
  -23.7380   -9.8965   22.2209 C   0  0  0  0  0  0  0  0  0  0  0  0
  -31.4454  -31.5754   17.7863 C   0  0  0  0  0  0  0  0  0  0  0  0
  -31.1473  -29.0414   16.6745 C   0  0  0  0  0  0  0  0  0  0  0  0
  -28.6486  -22.3683   17.4112 C   0  0  0  0  0  0  0  0  0  0  0  0
  -22.6743   -8.6011   19.9909 C   0  0  0  0  0  0  0  0  0  0  0  0
  -23.0419   -8.6979   22.3768 C   0  0  0  0  0  0  0  0  0  0  0  0
  -29.1020  -21.0547   17.5238 C   0  0  0  0  0  0  0  0  0  0  0  0
  -19.5865   -7.6216   20.9601 C   0  0  0  0  0  0  0  0  0  0  0  0
  -18.3841   -7.4756   20.2686 C   0  0  0  0  0  0  0  0  0  0  0  0
  -29.5319  -21.4108   19.8706 C   0  0  0  0  0  0  0  0  0  0  0  0
  -19.2837   -5.5562   19.1094 C   0  0  0  0  0  0  0  0  0  0  0  0
  -23.9022  -10.4475   20.9501 C   0  0  0  0  0  0  0  0  0  0  0  0
  -24.0893  -12.9883   20.8191 C   0  0  0  0  0  0  0  0  0  0  0  0
  -31.5851  -30.4440   18.6054 C   0  0  0  0  0  0  0  0  0  0  0  0
  -28.6436  -23.2177   18.5269 C   0  0  0  0  0  0  0  0  0  0  0  0
  -31.4449  -29.1610   18.0426 C   0  0  0  0  0  0  0  0  0  0  0  0
  -29.0755  -22.7339   19.7701 C   0  0  0  0  0  0  0  0  0  0  0  0
  -22.5100   -8.0502   21.2617 C   0  0  0  0  0  0  0  0  0  0  0  0
  -29.5465  -20.5766   18.7530 C   0  0  0  0  0  0  0  0  0  0  0  0
  -20.6377   -6.7349   20.7263 C   0  0  0  0  0  0  0  0  0  0  0  0
  -18.2326   -6.4429   19.3432 C   0  0  0  0  0  0  0  0  0  0  0  0
  -20.4862   -5.7022   19.8009 C   0  0  0  0  0  0  0  0  0  0  0  0
  -24.6219  -11.6854   20.7896 C   0  0  0  0  0  0  0  0  0  0  0  0
  -25.1739  -13.8071   20.6196 C   0  0  0  0  0  0  0  0  0  0  0  0
  -22.7354  -13.4197   21.0098 C   0  0  0  0  0  0  0  0  0  0  0  0
  -30.0815  -25.9535   19.2698 C   0  0  0  0  0  0  0  0  0  0  0  0
  -28.1850  -25.7860   21.8961 C   0  0  0  0  0  0  0  0  0  0  0  0
  -26.3754  -23.8474   24.0441 C   0  0  0  0  0  0  0  0  0  0  0  0
  -29.6854  -15.0401   17.7622 C   0  0  0  0  0  0  0  0  0  0  0  0
  -31.9500  -30.6384   20.0559 C   0  0  0  0  0  0  0  0  0  0  0  0
  -28.1263  -24.6239   18.3948 C   0  0  0  0  0  0  0  0  0  0  0  0
  -29.0713  -23.5993   21.0028 C   0  0  0  0  0  0  0  0  0  0  0  0
  -31.7181  -29.3974   20.9139 C   0  0  0  0  0  0  0  0  0  0  0  0
  -30.1131  -12.8223   20.6498 C   0  0  0  0  0  0  0  0  0  0  0  0
  -32.2761  -28.1579   20.2217 C   0  0  0  0  0  0  0  0  0  0  0  0
  -28.6726  -12.3905   20.9029 C   0  0  0  0  0  0  0  0  0  0  0  0
  -31.9676  -15.0651   15.2983 C   0  0  0  0  0  0  0  0  0  0  0  0
  -30.4044  -13.0330   19.1635 C   0  0  0  0  0  0  0  0  0  0  0  0
  -31.6836  -14.0421   16.4024 C   0  0  0  0  0  0  0  0  0  0  0  0
  -28.0076  -13.5239   18.7542 C   0  0  0  0  0  0  0  0  0  0  0  0
  -31.5707  -27.9089   18.8831 C   0  0  1  0  0  0  0  0  0  0  0  0
  -28.6479  -25.5572   19.4831 C   0  0  1  0  0  0  0  0  0  0  0  0
  -27.6929  -13.3765   20.2495 C   0  0  1  0  0  0  0  0  0  0  0  0
  -31.3887  -16.1529   16.2158 C   0  0  2  0  0  0  0  0  0  0  0  0
  -24.9671  -23.9901   26.1163 C   0  0  0  0  0  0  0  0  0  0  0  0
  -30.7056  -26.1173   23.5834 C   0  0  0  0  0  0  0  0  0  0  0  0
  -29.4021  -25.3117   25.5633 C   0  0  0  0  0  0  0  0  0  0  0  0
  -28.7271  -27.4117   24.3984 C   0  0  0  0  0  0  0  0  0  0  0  0
  -23.9959  -22.7861   22.6402 C   0  0  0  0  0  0  0  0  0  0  0  0
  -33.9906  -18.8860   16.7796 C   0  0  0  0  0  0  0  0  0  0  0  0
  -31.6554  -17.7142   18.1579 C   0  0  0  0  0  0  0  0  0  0  0  0
  -30.5930  -18.7121   17.7117 C   0  0  0  0  0  0  0  0  0  1  0  0
  -28.3181  -25.1844   23.2743 C   0  0  1  0  0  0  0  0  0  0  0  0
  -24.9690  -23.9979   24.5955 C   0  0  2  0  0  0  0  0  0  0  0  0
  -32.3684  -17.0001   17.0037 C   0  0  2  0  0  0  0  0  0  0  0  0
  -29.2903  -25.9903   24.1814 C   0  0  0  0  0  0  0  0  0  0  0  0
  -25.9420  -11.6725   20.5872 N   0  0  0  0  0  0  0  0  0  0  0  0
  -26.2482  -12.9773   20.4876 N   0  0  0  0  0  0  0  0  0  0  0  0
  -28.5622  -24.9687   20.8212 N   0  0  0  0  0  0  0  0  0  0  0  0
  -29.4074  -13.9022   18.5274 N   0  0  0  0  0  0  0  0  0  0  0  0
  -30.8496  -15.0588   17.0266 N   0  0  0  0  0  0  0  0  0  0  0  0
  -25.3038  -15.1488   20.5459 N   0  0  0  0  0  0  0  0  0  0  0  0
  -21.7448  -12.4469   21.2012 N   0  0  0  0  0  0  0  0  0  0  0  0
  -30.2704  -27.3119   19.1004 N   0  0  0  0  0  0  0  0  0  0  0  0
  -26.9631  -25.0712   23.8029 N   0  0  0  0  0  0  0  0  0  0  0  0
  -24.1035  -22.8823   24.1187 N   0  3  0  0  0  0  0  0  0  0  0  0
  -32.9981  -18.0115   16.1053 N   0  3  0  0  0  0  0  0  0  0  0  0
  -22.4110  -14.6314   20.9941 O   0  0  0  0  0  0  0  0  0  0  0  0
  -30.9519  -25.0910   19.2610 O   0  0  0  0  0  0  0  0  0  0  0  0
  -27.7553  -26.9362   21.7773 O   0  0  0  0  0  0  0  0  0  0  0  0
  -26.9014  -22.7536   23.8505 O   0  0  0  0  0  0  0  0  0  0  0  0
  -28.9051  -15.9999   17.7104 O   0  0  0  0  0  0  0  0  0  0  0  0
  -21.8306   -6.8807   21.4142 O   0  0  0  0  0  0  0  0  0  0  0  0
  -29.9933  -19.2862   18.8664 O   0  0  0  0  0  0  0  0  0  1  0  0
  -17.0772   -6.3020   18.6803 F   0  0  0  0  0  0  0  0  0  0  0  0
  -21.4921   -4.8466   19.5729 F   0  0  0  0  0  0  0  0  0  0  0  0
  1  2  1  0  0  0  0
  1  5  2  0  0  0  0
  2  6  2  0  0  0  0
  3  8  2  0  0  0  0
  3 15  1  0  0  0  0
  4  9  1  0  0  0  0
  4 15  2  0  0  0  0
  5 17  1  0  0  0  0
  6 19  1  0  0  0  0
  7 10  2  0  0  0  0
  7 18  1  0  0  0  0
  8 21  1  0  0  0  0
  9 21  2  0  0  0  0
 10 22  1  0  0  0  0
 11 12  2  0  0  0  0
 11 23  1  0  0  0  0
 12 24  1  0  0  0  0
 13 20  1  0  0  0  0
 13 22  2  0  0  0  0
 14 24  2  0  0  0  0
 14 25  1  0  0  0  0
 15 26  1  0  0  0  0
 16 26  1  0  0  0  0
 16 27  2  0  0  0  0
 16 28  1  0  0  0  0
 17 19  2  0  0  0  0
 17 33  1  0  0  0  0
 18 20  2  0  0  0  0
 18 34  1  0  0  0  0
 19 44  1  0  0  0  0
 20 35  1  0  0  0  0
 21 76  1  0  0  0  0
 22 77  1  0  0  0  0
 23 25  2  0  0  0  0
 23 76  1  0  0  0  0
 24 78  1  0  0  0  0
 25 79  1  0  0  0  0
 26 60  2  0  0  0  0
 27 61  1  0  0  0  0
 27 65  1  0  0  0  0
 28 66  1  0  0  0  0
 28 71  2  0  0  0  0
 29 45  1  0  0  0  0
 29 67  1  0  0  0  0
 29 72  2  0  0  0  0
 30 56  1  0  0  0  0
 30 62  1  0  0  0  0
 30 73  2  0  0  0  0
 31 57  1  0  0  0  0
 31 68  1  0  0  0  0
 31 74  2  0  0  0  0
 32 63  1  0  0  0  0
 32 64  1  0  0  0  0
 32 75  2  0  0  0  0
 33 36  1  0  0  0  0
 34 45  1  0  0  0  0
 35 62  1  0  0  0  0
 36 38  1  0  0  0  0
 37 39  1  0  0  0  0
 37 41  1  0  0  0  0
 38 44  1  0  0  0  0
 39 46  1  0  0  0  0
 40 42  1  0  0  0  0
 40 47  1  0  0  0  0
 41 63  1  0  0  0  0
 42 64  1  0  0  0  0
 43 46  1  0  0  0  0
 43 63  1  0  0  0  0
 44 67  1  0  0  0  0
 45 62  1  0  0  0  0
 46 61  1  0  0  0  0
 47 58  1  0  0  0  0
 47 64  1  0  0  0  0
 48 57  1  0  0  0  0
 49 59  1  0  0  0  0
 50 59  1  0  0  0  0
 51 59  1  0  0  0  0
 52 69  1  0  0  0  0
 53 70  1  0  0  0  0
 54 55  1  0  0  0  0
 54 58  1  0  0  0  0
 55 77  1  0  0  0  0
 56 59  1  0  0  0  0
 56 68  1  0  0  0  0
 57 69  1  0  0  0  0
 58 70  1  0  0  0  0
 60 61  1  0  0  0  0
M  CHG  2  69   1  70   1
M  ISO  4  32 100  55 101  64 100  77 101
M  END
> <Batch ID>
0185

> <Smiles>
CNC(C)C(=O)NC(C(=O)N1Cc2cc([101O:1][101CH2:1]CC(NC)C3CC[100N:0]3[100C:0](=O)N3CCCC(n4nc(-c5ccc(Oc6ccc(F)cc6F)cc5)c(C(N)=O)c4N)C3)ccc2CC1C(=O)NC1CCCc2ccccc21)C(C)(C)C

> <Shape>
0.193

> <Color>
0.197

> <Negative vol penalty>
0.000

$$$$

  -OEChem-04052323123D

 84 93  0     1  0  0  0  0  0999 V2000
  -27.2631  -10.1507   22.4440 C   0  0  0  0  0  0  0  0  0  0  0  0
  -28.0498  -11.2689   22.1869 C   0  0  0  0  0  0  0  0  0  0  0  0
  -23.3532  -27.5355   23.1878 C   0  0  0  0  0  0  0  0  0  0  0  0
  -22.7151  -29.4122   21.8066 C   0  0  0  0  0  0  0  0  0  0  0  0
  -25.9548  -10.0952   21.9653 C   0  0  0  0  0  0  0  0  0  0  0  0
  -27.5289  -12.3319   21.4498 C   0  0  0  0  0  0  0  0  0  0  0  0
  -28.7453  -18.2855   22.2116 C   0  0  0  0  0  0  0  0  0  0  0  0
  -22.2575  -27.7735   24.0174 C   0  0  0  0  0  0  0  0  0  0  0  0
  -21.6193  -29.6502   22.6362 C   0  0  0  0  0  0  0  0  0  0  0  0
  -29.6133  -19.1570   21.5552 C   0  0  0  0  0  0  0  0  0  0  0  0
  -18.4500  -30.5315   24.1844 C   0  0  0  0  0  0  0  0  0  0  0  0
  -17.2212  -30.7924   23.5782 C   0  0  0  0  0  0  0  0  0  0  0  0
  -27.7987  -19.8943   20.1471 C   0  0  0  0  0  0  0  0  0  0  0  0
  -17.2953  -28.6323   22.4985 C   0  0  0  0  0  0  0  0  0  0  0  0
  -23.5821  -28.3549   22.0823 C   0  0  0  0  0  0  0  0  0  0  0  0
  -24.7545  -27.2849   20.0853 C   0  0  0  0  0  0  0  0  0  0  0  0
  -25.4144  -11.1621   21.2303 C   0  0  0  0  0  0  0  0  0  0  0  0
  -27.3976  -18.2038   21.8327 C   0  0  0  0  0  0  0  0  0  0  0  0
  -26.2125  -12.2900   20.9597 C   0  0  0  0  0  0  0  0  0  0  0  0
  -26.9150  -19.0228   20.8019 C   0  0  0  0  0  0  0  0  0  0  0  0
  -21.3905  -28.8308   23.7416 C   0  0  0  0  0  0  0  0  0  0  0  0
  -29.1407  -19.9595   20.5209 C   0  0  0  0  0  0  0  0  0  0  0  0
  -19.1015  -29.3210   23.9476 C   0  0  0  0  0  0  0  0  0  0  0  0
  -16.6438  -29.8428   22.7353 C   0  0  0  0  0  0  0  0  0  0  0  0
  -18.5241  -28.3715   23.1047 C   0  0  0  0  0  0  0  0  0  0  0  0
  -24.7141  -28.1099   21.2253 C   0  0  0  0  0  0  0  0  0  0  0  0
  -31.2666  -26.1265   20.0746 C   0  0  0  0  0  0  0  0  0  0  0  0
  -30.7519  -24.8526   18.2801 C   0  0  0  0  0  0  0  0  0  0  0  0
  -30.7900  -23.7193   19.0693 C   0  0  0  0  0  0  0  0  0  0  0  0
  -31.3103  -24.9884   20.8673 C   0  0  0  0  0  0  0  0  0  0  0  0
  -26.0462  -27.3906   19.6306 C   0  0  0  0  0  0  0  0  0  0  0  0
  -23.7171  -26.4939   19.4905 C   0  0  0  0  0  0  0  0  0  0  0  0
  -31.5259  -27.4654   20.6194 C   0  0  0  0  0  0  0  0  0  0  0  0
  -25.5294  -15.9098   20.6705 C   0  0  0  0  0  0  0  0  0  0  0  0
  -23.2047  -18.1356   21.0757 C   0  0  0  0  0  0  0  0  0  0  0  0
  -22.3658  -21.4325   21.3458 C   0  0  0  0  0  0  0  0  0  0  0  0
  -24.0107  -11.0363   20.6932 C   0  0  0  0  0  0  0  0  0  0  0  0
  -26.4681  -17.2781   22.5685 C   0  0  0  0  0  0  0  0  0  0  0  0
  -25.4724  -18.9876   20.3706 C   0  0  0  0  0  0  0  0  0  0  0  0
  -30.4469  -24.5110   16.8585 C   0  0  0  0  0  0  0  0  0  0  0  0
  -23.4105  -12.3648   20.2403 C   0  0  0  0  0  0  0  0  0  0  0  0
  -29.7663  -30.5539   20.9464 C   0  0  0  0  0  0  0  0  0  0  0  0
  -24.4098  -13.1386   19.3863 C   0  0  0  0  0  0  0  0  0  0  0  0
  -28.2976  -30.1270   20.9745 C   0  0  0  0  0  0  0  0  0  0  0  0
  -30.6619  -29.5385   21.6517 C   0  0  0  0  0  0  0  0  0  0  0  0
  -29.0536  -27.7219   21.1847 C   0  0  0  0  0  0  0  0  0  0  0  0
  -25.6751  -13.4738   20.1851 C   0  0  1  0  0  0  0  0  0  0  0  0
  -30.5215  -22.4872   18.2543 C   0  0  1  0  0  0  0  0  0  0  0  0
  -25.2316  -16.9039   21.7571 C   0  0  1  0  0  0  0  0  0  0  0  0
  -28.1231  -28.6931   20.4398 C   0  0  1  0  0  0  0  0  0  0  0  0
  -31.6255  -25.0748   22.3229 C   0  0  0  0  0  0  0  0  0  0  0  0
  -20.3829  -22.9436   21.6325 C   0  0  0  0  0  0  0  0  0  0  0  0
  -30.0021  -22.8688   14.4428 C   0  0  0  0  0  0  0  0  0  0  0  0
  -30.1365  -20.7967   15.8790 C   0  0  0  0  0  0  0  0  0  0  0  0
  -22.4572  -17.7060   18.1489 C   0  0  0  0  0  0  0  0  0  0  0  0
  -21.1663  -19.8494   18.2363 C   0  0  0  0  0  0  0  0  0  0  0  0
  -20.5091  -17.9391   19.6997 C   0  0  0  0  0  0  0  0  0  0  0  0
  -23.4049  -22.5029   23.9019 C   0  0  0  0  0  0  0  0  0  0  0  0
  -29.4345  -21.6034   18.8276 C   0  0  0  0  0  0  0  0  0  1  0  0
  -22.6163  -19.2342   20.2238 C   0  0  1  0  0  0  0  0  0  0  0  0
  -21.4855  -22.1699   22.3386 C   0  0  2  0  0  0  0  0  0  0  0  0
  -30.5633  -22.2461   15.7110 C   0  0  0  0  0  0  0  0  0  0  0  0
  -21.7149  -18.6817   19.0838 C   0  0  0  0  0  0  0  0  0  0  0  0
  -25.8870  -28.6962   21.4792 N   0  0  0  0  0  0  0  0  0  0  0  0
  -30.9882  -26.0828   18.7528 N   0  0  0  0  0  0  0  0  0  0  0  0
  -31.0764  -23.7507   20.3776 N   0  0  0  0  0  0  0  0  0  0  0  0
  -26.6766  -28.2391   20.4925 N   0  0  0  0  0  0  0  0  0  0  0  0
  -30.4433  -28.1955   21.1158 N   0  0  0  0  0  0  0  0  0  0  0  0
  -24.6043  -18.0616   21.1165 N   0  0  0  0  0  0  0  0  0  0  0  0
  -26.6930  -26.8394   18.5816 N   0  0  0  0  0  0  0  0  0  0  0  0
  -22.4482  -26.4995   20.0856 N   0  0  0  0  0  0  0  0  0  0  0  0
  -25.4316  -14.5912   21.0720 N   0  0  0  0  0  0  0  0  0  0  0  0
  -21.9324  -20.1397   21.1406 N   0  0  0  0  0  0  0  0  0  0  0  0
  -30.0629  -23.0265   16.8836 N   0  3  2  0  0  0  0  0  0  0  0  0
  -22.2976  -23.1315   23.1365 N   0  3  0  0  0  0  0  0  0  0  0  0
  -23.9140  -25.7897   18.4712 O   0  0  0  0  0  0  0  0  0  0  0  0
  -32.6939  -27.8497   20.5841 O   0  0  0  0  0  0  0  0  0  0  0  0
  -25.8245  -16.3094   19.5503 O   0  0  0  0  0  0  0  0  0  0  0  0
  -22.4505  -17.3756   21.6883 O   0  0  0  0  0  0  0  0  0  0  0  0
  -23.3384  -21.9527   20.8034 O   0  0  0  0  0  0  0  0  0  0  0  0
  -20.3211  -29.0632   24.5509 O   0  0  0  0  0  0  0  0  0  0  0  0
  -29.9860  -20.8105   19.8781 O   0  0  0  0  0  0  0  0  0  1  0  0
  -15.4630  -30.0928   22.1544 F   0  0  0  0  0  0  0  0  0  0  0  0
  -19.1447  -27.2063   22.8744 F   0  0  0  0  0  0  0  0  0  0  0  0
  1  2  1  0  0  0  0
  1  5  2  0  0  0  0
  2  6  2  0  0  0  0
  3  8  2  0  0  0  0
  3 15  1  0  0  0  0
  4  9  1  0  0  0  0
  4 15  2  0  0  0  0
  5 17  1  0  0  0  0
  6 19  1  0  0  0  0
  7 10  2  0  0  0  0
  7 18  1  0  0  0  0
  8 21  1  0  0  0  0
  9 21  2  0  0  0  0
 10 22  1  0  0  0  0
 11 12  2  0  0  0  0
 11 23  1  0  0  0  0
 12 24  1  0  0  0  0
 13 20  1  0  0  0  0
 13 22  2  0  0  0  0
 14 24  2  0  0  0  0
 14 25  1  0  0  0  0
 15 26  1  0  0  0  0
 16 26  1  0  0  0  0
 16 31  2  0  0  0  0
 16 32  1  0  0  0  0
 17 19  2  0  0  0  0
 17 37  1  0  0  0  0
 18 20  2  0  0  0  0
 18 38  1  0  0  0  0
 19 47  1  0  0  0  0
 20 39  1  0  0  0  0
 21 81  1  0  0  0  0
 22 82  1  0  0  0  0
 23 25  2  0  0  0  0
 23 81  1  0  0  0  0
 24 83  1  0  0  0  0
 25 84  1  0  0  0  0
 26 64  2  0  0  0  0
 27 30  1  0  0  0  0
 27 33  1  0  0  0  0
 27 65  2  0  0  0  0
 28 29  2  0  0  0  0
 28 40  1  0  0  0  0
 28 65  1  0  0  0  0
 29 48  1  0  0  0  0
 29 66  1  0  0  0  0
 30 51  1  0  0  0  0
 30 66  2  0  0  0  0
 31 67  1  0  0  0  0
 31 70  1  0  0  0  0
 32 71  1  0  0  0  0
 32 76  2  0  0  0  0
 33 68  1  0  0  0  0
 33 77  2  0  0  0  0
 34 49  1  0  0  0  0
 34 72  1  0  0  0  0
 34 78  2  0  0  0  0
 35 60  1  0  0  0  0
 35 69  1  0  0  0  0
 35 79  2  0  0  0  0
 36 61  1  0  0  0  0
 36 73  1  0  0  0  0
 36 80  2  0  0  0  0
 37 41  1  0  0  0  0
 38 49  1  0  0  0  0
 39 69  1  0  0  0  0
 40 74  1  0  0  0  0
 41 43  1  0  0  0  0
 42 44  1  0  0  0  0
 42 45  1  0  0  0  0
 43 47  1  0  0  0  0
 44 50  1  0  0  0  0
 45 68  1  0  0  0  0
 46 50  1  0  0  0  0
 46 68  1  0  0  0  0
 47 72  1  0  0  0  0
 48 59  1  0  0  0  0
 48 74  1  0  0  0  0
 49 69  1  0  0  0  0
 50 67  1  0  0  0  0
 52 61  1  0  0  0  0
 53 62  1  0  0  0  0
 54 62  1  0  0  0  0
 55 63  1  0  0  0  0
 56 63  1  0  0  0  0
 57 63  1  0  0  0  0
 58 75  1  0  0  0  0
 59 82  1  0  0  0  0
 60 63  1  0  0  0  0
 60 73  1  0  0  0  0
 61 75  1  0  0  0  0
 62 74  1  0  0  0  0
 64 67  1  0  0  0  0
M  CHG  2  74   1  75   1
M  ISO  4  27 100  33 100  59 101  82 101
M  END
> <Batch ID>
0185

> <Smiles>
CNC(C)C(=O)NC(C(=O)N1Cc2cc([101O:1][101CH2:1]C3c4nc(C)[100c:0]([100C:0](=O)N5CCCC(n6nc(-c7ccc(Oc8ccc(F)cc8F)cc7)c(C(N)=O)c6N)C5)nc4CN3C(C)C)ccc2CC1C(=O)NC1CCCc2ccccc21)C(C)(C)C

> <Shape>
0.251

> <Color>
0.069

> <Negative vol penalty>
0.000

$$$$

  -OEChem-04052323123D

 85 94  0     1  0  0  0  0  0999 V2000
  -28.9827  -36.9901   20.0162 C   0  0  0  0  0  0  0  0  0  0  0  0
  -29.2246  -35.6386   19.7917 C   0  0  0  0  0  0  0  0  0  0  0  0
  -23.1396  -10.4145   21.3789 C   0  0  0  0  0  0  0  0  0  0  0  0
  -24.7962   -8.7223   21.8576 C   0  0  0  0  0  0  0  0  0  0  0  0
  -28.1317  -37.3826   21.0485 C   0  0  0  0  0  0  0  0  0  0  0  0
  -28.6163  -34.6789   20.6000 C   0  0  0  0  0  0  0  0  0  0  0  0
  -26.6759  -29.1254   18.8973 C   0  0  0  0  0  0  0  0  0  0  0  0
  -22.1571   -9.4283   21.2925 C   0  0  0  0  0  0  0  0  0  0  0  0
  -23.8136   -7.7360   21.7712 C   0  0  0  0  0  0  0  0  0  0  0  0
  -27.2465  -27.8580   19.0071 C   0  0  0  0  0  0  0  0  0  0  0  0
  -21.3433   -6.5058   23.7218 C   0  0  0  0  0  0  0  0  0  0  0  0
  -21.3262   -5.5219   24.7103 C   0  0  0  0  0  0  0  0  0  0  0  0
  -25.9926  -27.4755   21.0321 C   0  0  0  0  0  0  0  0  0  0  0  0
  -21.6585   -3.8229   23.0250 C   0  0  0  0  0  0  0  0  0  0  0  0
  -27.7497  -21.4363   21.2043 C   0  0  0  0  0  0  0  0  0  0  0  0
  -24.4592  -10.0615   21.6614 C   0  0  0  0  0  0  0  0  0  0  0  0
  -25.8681  -11.7900   22.9004 C   0  0  0  0  0  0  0  0  0  0  0  0
  -27.5052  -36.4269   21.8638 C   0  0  0  0  0  0  0  0  0  0  0  0
  -25.7662  -29.5823   19.8617 C   0  0  0  0  0  0  0  0  0  0  0  0
  -27.7572  -35.0591   21.6450 C   0  0  0  0  0  0  0  0  0  0  0  0
  -25.4100  -28.7480   20.9309 C   0  0  0  0  0  0  0  0  0  0  0  0
  -29.1272  -21.3705   21.2538 C   0  0  0  0  0  0  0  0  0  0  0  0
  -22.4941   -8.0890   21.4887 C   0  0  0  0  0  0  0  0  0  0  0  0
  -26.9071  -27.0340   20.0761 C   0  0  0  0  0  0  0  0  0  0  0  0
  -21.5180   -6.1483   22.3848 C   0  0  0  0  0  0  0  0  0  0  0  0
  -21.4838   -4.1805   24.3619 C   0  0  0  0  0  0  0  0  0  0  0  0
  -21.6756   -4.8069   22.0365 C   0  0  0  0  0  0  0  0  0  0  0  0
  -25.4747  -11.0798   21.7503 C   0  0  0  0  0  0  0  0  0  0  0  0
  -29.7808  -22.5839   21.3213 C   0  0  0  0  0  0  0  0  0  0  0  0
  -26.8585  -12.6340   22.4607 C   0  0  0  0  0  0  0  0  0  0  0  0
  -27.8050  -23.7073   21.2870 C   0  0  0  0  0  0  0  0  0  0  0  0
  -25.3819  -11.6952   24.2458 C   0  0  0  0  0  0  0  0  0  0  0  0
  -25.7146  -31.9935   21.9323 C   0  0  0  0  0  0  0  0  0  0  0  0
  -22.6912  -30.9509   22.4750 C   0  0  0  0  0  0  0  0  0  0  0  0
  -20.4498  -28.3797   22.3658 C   0  0  0  0  0  0  0  0  0  0  0  0
  -28.5166  -16.3467   18.5436 C   0  0  0  0  0  0  0  0  0  0  0  0
  -26.6305  -36.9011   22.9973 C   0  0  0  0  0  0  0  0  0  0  0  0
  -25.1393  -30.9416   19.7145 C   0  0  0  0  0  0  0  0  0  0  0  0
  -24.4229  -29.1836   21.9819 C   0  0  0  0  0  0  0  0  0  0  0  0
  -25.7312  -35.8089   23.5706 C   0  0  0  0  0  0  0  0  0  0  0  0
  -29.3474  -12.8039   18.0626 C   0  0  0  0  0  0  0  0  0  0  0  0
  -26.5274  -34.5285   23.8018 C   0  0  0  0  0  0  0  0  0  0  0  0
  -28.4081  -12.0997   19.0426 C   0  0  0  0  0  0  0  0  0  0  0  0
  -30.0519  -17.7339   21.5825 C   0  0  0  0  0  0  0  0  0  0  0  0
  -28.7508  -14.1066   17.5348 C   0  0  0  0  0  0  0  0  0  0  0  0
  -29.3668  -16.5243   20.9553 C   0  0  0  0  0  0  0  0  0  0  0  0
  -27.3604  -14.3352   19.5566 C   0  0  0  0  0  0  0  0  0  0  0  0
  -28.7647  -18.5040   19.7375 C   0  0  0  0  0  0  0  0  0  0  0  0
  -27.0966  -33.9874   22.4848 C   0  0  1  0  0  0  0  0  0  0  0  0
  -24.6154  -31.5039   21.0324 C   0  0  1  0  0  0  0  0  0  0  0  0
  -27.9547  -13.0558   20.1617 C   0  0  1  0  0  0  0  0  0  0  0  0
  -29.1328  -18.8770   21.1657 C   0  0  2  0  0  0  0  0  0  0  0  0
  -31.8091  -22.2959   22.7668 C   0  0  0  0  0  0  0  0  0  0  0  0
  -18.0649  -27.8209   22.9112 C   0  0  0  0  0  0  0  0  0  0  0  0
  -23.4025  -30.8193   25.4393 C   0  0  0  0  0  0  0  0  0  0  0  0
  -21.3753  -29.3926   25.7909 C   0  0  0  0  0  0  0  0  0  0  0  0
  -21.1242  -31.7286   24.9525 C   0  0  0  0  0  0  0  0  0  0  0  0
  -19.8341  -27.7343   19.5439 C   0  0  0  0  0  0  0  0  0  0  0  0
  -31.2724  -22.6397   21.3808 C   0  0  0  0  0  0  0  0  0  0  0  0
  -27.0706  -25.0050   21.3060 C   0  0  0  0  0  0  0  0  0  1  0  0
  -22.0568  -29.9528   23.4133 C   0  0  1  0  0  0  0  0  0  0  0  0
  -19.0284  -28.3042   21.8384 C   0  0  2  0  0  0  0  0  0  0  0  0
  -22.0098  -30.4656   24.8804 C   0  0  0  0  0  0  0  0  0  0  0  0
  -27.0534  -22.5919   21.2192 N   0  0  0  0  0  0  0  0  0  0  0  0
  -26.1592  -11.4413   20.6618 N   0  0  0  0  0  0  0  0  0  0  0  0
  -29.1489  -23.7759   21.3396 N   0  0  0  0  0  0  0  0  0  0  0  0
  -26.9927  -12.3879   21.1259 N   0  0  0  0  0  0  0  0  0  0  0  0
  -23.8420  -30.5237   21.7975 N   0  0  0  0  0  0  0  0  0  0  0  0
  -28.3110  -14.9657   18.6344 N   0  0  0  0  0  0  0  0  0  0  0  0
  -28.7601  -17.0431   19.7267 N   0  0  0  0  0  0  0  0  0  0  0  0
  -27.6190  -13.5553   23.0895 N   0  0  0  0  0  0  0  0  0  0  0  0
  -24.3612  -10.7759   24.5242 N   0  0  0  0  0  0  0  0  0  0  0  0
  -29.7943  -20.1531   21.2357 N   0  0  0  0  0  0  0  0  0  0  0  0
  -26.0639  -33.3145   21.7264 N   0  0  0  0  0  0  0  0  0  0  0  0
  -20.7493  -29.6359   22.8489 N   0  0  0  0  0  0  0  0  0  0  0  0
  -18.9538  -27.3664   20.6826 N   0  3  0  0  0  0  0  0  0  0  0  0
  -25.8275  -12.4164   25.1704 O   0  0  0  0  0  0  0  0  0  0  0  0
  -26.2082  -31.2297   22.7537 O   0  0  0  0  0  0  0  0  0  0  0  0
  -22.1804  -32.0658   22.3426 O   0  0  0  0  0  0  0  0  0  0  0  0
  -21.2165  -27.4192   22.3541 O   0  0  0  0  0  0  0  0  0  0  0  0
  -28.5293  -16.9254   17.4490 O   0  0  0  0  0  0  0  0  0  0  0  0
  -21.5355   -7.1264   21.4047 O   0  0  0  0  0  0  0  0  0  0  0  0
  -27.4668  -25.7882   20.1867 O   0  0  0  0  0  0  0  0  0  1  0  0
  -21.4689   -3.2358   25.3115 F   0  0  0  0  0  0  0  0  0  0  0  0
  -21.8449   -4.4574   20.7539 F   0  0  0  0  0  0  0  0  0  0  0  0
  1  2  1  0  0  0  0
  1  5  2  0  0  0  0
  2  6  2  0  0  0  0
  3  8  2  0  0  0  0
  3 16  1  0  0  0  0
  4  9  1  0  0  0  0
  4 16  2  0  0  0  0
  5 18  1  0  0  0  0
  6 20  1  0  0  0  0
  7 10  2  0  0  0  0
  7 19  1  0  0  0  0
  8 23  1  0  0  0  0
  9 23  2  0  0  0  0
 10 24  1  0  0  0  0
 11 12  2  0  0  0  0
 11 25  1  0  0  0  0
 12 26  1  0  0  0  0
 13 21  1  0  0  0  0
 13 24  2  0  0  0  0
 14 26  2  0  0  0  0
 14 27  1  0  0  0  0
 15 22  1  0  0  0  0
 15 64  2  0  0  0  0
 16 28  1  0  0  0  0
 17 28  1  0  0  0  0
 17 30  2  0  0  0  0
 17 32  1  0  0  0  0
 18 20  2  0  0  0  0
 18 37  1  0  0  0  0
 19 21  2  0  0  0  0
 19 38  1  0  0  0  0
 20 49  1  0  0  0  0
 21 39  1  0  0  0  0
 22 29  2  0  0  0  0
 22 73  1  0  0  0  0
 23 82  1  0  0  0  0
 24 83  1  0  0  0  0
 25 27  2  0  0  0  0
 25 82  1  0  0  0  0
 26 84  1  0  0  0  0
 27 85  1  0  0  0  0
 28 65  2  0  0  0  0
 29 59  1  0  0  0  0
 29 66  1  0  0  0  0
 30 67  1  0  0  0  0
 30 71  1  0  0  0  0
 31 60  1  0  0  0  0
 31 64  1  0  0  0  0
 31 66  2  0  0  0  0
 32 72  1  0  0  0  0
 32 77  2  0  0  0  0
 33 50  1  0  0  0  0
 33 74  1  0  0  0  0
 33 78  2  0  0  0  0
 34 61  1  0  0  0  0
 34 68  1  0  0  0  0
 34 79  2  0  0  0  0
 35 62  1  0  0  0  0
 35 75  1  0  0  0  0
 35 80  2  0  0  0  0
 36 69  1  0  0  0  0
 36 70  1  0  0  0  0
 36 81  2  0  0  0  0
 37 40  1  0  0  0  0
 38 50  1  0  0  0  0
 39 68  1  0  0  0  0
 40 42  1  0  0  0  0
 41 43  1  0  0  0  0
 41 45  1  0  0  0  0
 42 49  1  0  0  0  0
 43 51  1  0  0  0  0
 44 46  1  0  0  0  0
 44 52  1  0  0  0  0
 45 69  1  0  0  0  0
 46 70  1  0  0  0  0
 47 51  1  0  0  0  0
 47 69  1  0  0  0  0
 48 52  1  0  0  0  0
 48 70  1  0  0  0  0
 49 74  1  0  0  0  0
 50 68  1  0  0  0  0
 51 67  1  0  0  0  0
 52 73  1  0  0  0  0
 53 59  1  0  0  0  0
 54 62  1  0  0  0  0
 55 63  1  0  0  0  0
 56 63  1  0  0  0  0
 57 63  1  0  0  0  0
 58 76  1  0  0  0  0
 60 83  1  0  0  0  0
 61 63  1  0  0  0  0
 61 75  1  0  0  0  0
 62 76  1  0  0  0  0
 65 67  1  0  0  0  0
M  CHG  1  76   1
M  ISO  4  36 100  60 101  70 100  83 101
M  END
> <Batch ID>
0185

> <Smiles>
CCc1nc([101CH2:1][101O:1]c2ccc3c(c2)CN(C(=O)C(NC(=O)C(C)NC)C(C)(C)C)C(C(=O)NC2CCCc4ccccc42)C3)ncc1NC1CC[100N:0]([100C:0](=O)N2CCCC(n3nc(-c4ccc(Oc5ccc(F)cc5F)cc4)c(C(N)=O)c3N)C2)C1

> <Shape>
0.341

> <Color>
0.122

> <Negative vol penalty>
0.000

$$$$

  -OEChem-04052323123D

 90100  0     1  0  0  0  0  0999 V2000
  -16.4460  -29.6962   23.7532 C   0  0  0  0  0  0  0  0  0  0  0  0
  -17.2070  -30.0769   22.6536 C   0  0  0  0  0  0  0  0  0  0  0  0
  -24.0265  -10.1998   22.3230 C   0  0  0  0  0  0  0  0  0  0  0  0
  -22.8382  -10.5542   20.2495 C   0  0  0  0  0  0  0  0  0  0  0  0
  -16.9955  -28.8554   24.7187 C   0  0  0  0  0  0  0  0  0  0  0  0
  -18.5134  -29.6074   22.5132 C   0  0  0  0  0  0  0  0  0  0  0  0
  -25.6918  -28.7082   19.2139 C   0  0  0  0  0  0  0  0  0  0  0  0
  -23.0171   -9.3393   22.7544 C   0  0  0  0  0  0  0  0  0  0  0  0
  -21.8288   -9.6936   20.6809 C   0  0  0  0  0  0  0  0  0  0  0  0
  -27.0025  -28.3211   19.4898 C   0  0  0  0  0  0  0  0  0  0  0  0
  -22.0795   -6.1345   22.2219 C   0  0  0  0  0  0  0  0  0  0  0  0
  -22.4627   -4.9303   22.8123 C   0  0  0  0  0  0  0  0  0  0  0  0
  -31.5039  -25.5268   22.4898 C   0  0  0  0  0  0  0  0  0  0  0  0
  -26.1972  -26.2000   20.3091 C   0  0  0  0  0  0  0  0  0  0  0  0
  -21.3137   -5.5598   24.8422 C   0  0  0  0  0  0  0  0  0  0  0  0
  -31.0697  -24.9951   23.6869 C   0  0  0  0  0  0  0  0  0  0  0  0
  -23.9371  -10.8073   21.0706 C   0  0  0  0  0  0  0  0  0  0  0  0
  -26.3410  -11.3884   20.4450 C   0  0  0  0  0  0  0  0  0  0  0  0
  -18.3136  -28.3859   24.5957 C   0  0  0  0  0  0  0  0  0  0  0  0
  -24.6213  -27.8468   19.4942 C   0  0  0  0  0  0  0  0  0  0  0  0
  -19.0777  -28.7388   23.4648 C   0  0  0  0  0  0  0  0  0  0  0  0
  -24.8741  -26.5775   20.0335 C   0  0  0  0  0  0  0  0  0  0  0  0
  -21.9182   -9.0861   21.9334 C   0  0  0  0  0  0  0  0  0  0  0  0
  -27.2551  -27.0680   20.0401 C   0  0  0  0  0  0  0  0  0  0  0  0
  -21.3135   -7.0515   22.9417 C   0  0  0  0  0  0  0  0  0  0  0  0
  -22.0798   -4.6429   24.1225 C   0  0  0  0  0  0  0  0  0  0  0  0
  -20.9305   -6.7641   24.2518 C   0  0  0  0  0  0  0  0  0  0  0  0
  -24.9792  -11.6968   20.6246 C   0  0  0  0  0  0  0  0  0  0  0  0
  -31.0140  -24.9169   21.3530 C   0  0  0  0  0  0  0  0  0  0  0  0
  -26.9052  -12.5638   20.0132 C   0  0  0  0  0  0  0  0  0  0  0  0
  -29.8156  -23.4417   22.5999 C   0  0  0  0  0  0  0  0  0  0  0  0
  -27.0339  -10.1500   20.6501 C   0  0  0  0  0  0  0  0  0  0  0  0
  -22.0781  -27.9748   21.3967 C   0  0  0  0  0  0  0  0  0  0  0  0
  -21.3091  -25.1979   19.9067 C   0  0  0  0  0  0  0  0  0  0  0  0
  -23.0393  -22.2210   18.8288 C   0  0  0  0  0  0  0  0  0  0  0  0
  -27.6487  -17.8743   20.2395 C   0  0  0  0  0  0  0  0  0  0  0  0
  -18.8555  -27.4718   25.6662 C   0  0  0  0  0  0  0  0  0  0  0  0
  -23.2154  -28.2688   19.1660 C   0  0  0  0  0  0  0  0  0  0  0  0
  -23.7616  -25.6077   20.3341 C   0  0  0  0  0  0  0  0  0  0  0  0
  -20.3784  -27.3868   25.6603 C   0  0  0  0  0  0  0  0  0  0  0  0
  -24.7791  -16.8810   18.4767 C   0  0  0  0  0  0  0  0  0  0  0  0
  -20.8781  -27.1124   24.2498 C   0  0  0  0  0  0  0  0  0  0  0  0
  -24.6799  -15.4060   18.8649 C   0  0  0  0  0  0  0  0  0  0  0  0
  -29.4203  -25.2353   18.6038 C   0  0  0  0  0  0  0  0  0  0  0  0
  -30.8434  -24.6953   18.7526 C   0  0  0  0  0  0  0  0  0  0  0  0
  -27.1315  -20.9569   21.8577 C   0  0  0  0  0  0  0  0  0  0  0  0
  -29.4593  -20.7525   20.9053 C   0  0  0  0  0  0  0  0  0  0  0  0
  -30.8857  -26.8592   19.6960 C   0  0  0  0  0  0  0  0  0  0  0  0
  -25.1837  -17.7597   19.6618 C   0  0  0  0  0  0  0  0  0  0  0  0
  -26.5960  -20.1382   20.6793 C   0  0  0  0  0  0  0  0  0  0  0  0
  -28.8760  -19.9650   19.7353 C   0  0  0  0  0  0  0  0  0  0  0  0
  -26.3219  -15.8413   20.7308 C   0  0  0  0  0  0  0  0  0  0  0  0
  -20.5112  -28.2651   23.3065 C   0  0  1  0  0  0  0  0  0  0  0  0
  -22.1616  -27.5128   19.9694 C   0  0  1  0  0  0  0  0  0  0  0  0
  -25.9737  -14.9261   19.5466 C   0  0  1  0  0  0  0  0  0  0  0  0
  -28.4124  -21.7071   21.4854 C   0  0  0  0  0  0  0  0  0  0  0  0
  -29.4483  -26.6365   19.2159 C   0  0  2  0  0  0  0  0  0  1  0  0
  -31.4401  -25.4373   19.9713 C   0  0  1  0  0  0  0  0  0  0  0  0
  -33.5129  -24.0321   20.0670 C   0  0  0  0  0  0  0  0  0  0  0  0
  -22.5139  -20.6079   16.9797 C   0  0  0  0  0  0  0  0  0  0  0  0
  -19.8829  -23.6111   22.0880 C   0  0  0  0  0  0  0  0  0  0  0  0
  -20.7305  -21.5122   21.0182 C   0  0  0  0  0  0  0  0  0  0  0  0
  -19.2000  -23.0237   19.7550 C   0  0  0  0  0  0  0  0  0  0  0  0
  -25.7124  -22.5704   17.6076 C   0  0  0  0  0  0  0  0  0  0  0  0
  -32.9760  -25.4126   19.8862 C   0  0  0  0  0  0  0  0  0  0  0  0
  -21.5922  -23.7363   20.1570 C   0  0  1  0  0  0  0  0  0  0  0  0
  -23.3414  -21.8133   17.3981 C   0  0  2  0  0  0  0  0  0  0  0  0
  -20.3695  -22.9911   20.7629 C   0  0  0  0  0  0  0  0  0  0  0  0
  -30.2225  -23.9490   23.7791 N   0  0  0  0  0  0  0  0  0  0  0  0
  -24.6955  -12.9686   20.3311 N   0  0  0  0  0  0  0  0  0  0  0  0
  -30.1652  -23.8683   21.3713 N   0  0  0  0  0  0  0  0  0  0  0  0
  -25.8868  -13.4697   19.9628 N   0  0  0  0  0  0  0  0  0  0  0  0
  -22.4037  -26.0690   20.0014 N   0  0  0  0  0  0  0  0  0  0  0  0
  -26.3991  -17.2399   20.3038 N   0  0  0  0  0  0  0  0  0  0  0  0
  -27.6475  -19.2726   20.1263 N   0  0  0  0  0  0  0  0  0  0  0  0
  -28.1681  -12.9006   19.6757 N   0  0  0  0  0  0  0  0  0  0  0  0
  -27.1302   -9.2528   19.5777 N   0  0  0  0  0  0  0  0  0  0  0  0
  -28.9456  -22.3674   22.6566 N   0  0  0  0  0  0  0  0  0  0  0  0
  -20.8142  -27.8769   21.9466 N   0  0  0  0  0  0  0  0  0  0  0  0
  -22.0577  -23.1876   18.8879 N   0  0  0  0  0  0  0  0  0  0  0  0
  -24.7835  -21.4670   17.2517 N   0  3  0  0  0  0  0  0  0  0  0  0
  -27.5381   -9.8410   21.7563 O   0  0  0  0  0  0  0  0  0  0  0  0
  -23.0860  -28.3880   21.9580 O   0  0  0  0  0  0  0  0  0  0  0  0
  -20.1605  -25.5527   19.6302 O   0  0  0  0  0  0  0  0  0  0  0  0
  -23.6138  -21.7285   19.7973 O   0  0  0  0  0  0  0  0  0  0  0  0
  -28.7039  -17.2294   20.2809 O   0  0  0  0  0  0  0  0  0  0  0  0
  -20.9332   -8.2462   22.3539 O   0  0  0  0  0  0  0  0  0  0  0  0
  -28.5441  -26.6848   20.3132 O   0  0  0  0  0  0  0  0  0  1  0  0
  -22.4466   -3.4858   24.6887 F   0  0  0  0  0  0  0  0  0  0  0  0
  -20.1936   -7.6406   24.9479 F   0  0  0  0  0  0  0  0  0  0  0  0
  1  2  1  0  0  0  0
  1  5  2  0  0  0  0
  2  6  2  0  0  0  0
  3  8  2  0  0  0  0
  3 17  1  0  0  0  0
  4  9  1  0  0  0  0
  4 17  2  0  0  0  0
  5 19  1  0  0  0  0
  6 21  1  0  0  0  0
  7 10  2  0  0  0  0
  7 20  1  0  0  0  0
  8 23  1  0  0  0  0
  9 23  2  0  0  0  0
 10 24  1  0  0  0  0
 11 12  2  0  0  0  0
 11 25  1  0  0  0  0
 12 26  1  0  0  0  0
 13 16  2  0  0  0  0
 13 29  1  0  0  0  0
 14 22  1  0  0  0  0
 14 24  2  0  0  0  0
 15 26  2  0  0  0  0
 15 27  1  0  0  0  0
 16 69  1  0  0  0  0
 17 28  1  0  0  0  0
 18 28  1  0  0  0  0
 18 30  2  0  0  0  0
 18 32  1  0  0  0  0
 19 21  2  0  0  0  0
 19 37  1  0  0  0  0
 20 22  2  0  0  0  0
 20 38  1  0  0  0  0
 21 53  1  0  0  0  0
 22 39  1  0  0  0  0
 23 87  1  0  0  0  0
 24 88  1  0  0  0  0
 25 27  2  0  0  0  0
 25 87  1  0  0  0  0
 26 89  1  0  0  0  0
 27 90  1  0  0  0  0
 28 70  2  0  0  0  0
 29 58  1  0  0  0  0
 29 71  2  0  0  0  0
 30 72  1  0  0  0  0
 30 76  1  0  0  0  0
 31 69  2  0  0  0  0
 31 71  1  0  0  0  0
 31 78  1  0  0  0  0
 32 77  1  0  0  0  0
 32 82  2  0  0  0  0
 33 54  1  0  0  0  0
 33 79  1  0  0  0  0
 33 83  2  0  0  0  0
 34 66  1  0  0  0  0
 34 73  1  0  0  0  0
 34 84  2  0  0  0  0
 35 67  1  0  0  0  0
 35 80  1  0  0  0  0
 35 85  2  0  0  0  0
 36 74  1  0  0  0  0
 36 75  1  0  0  0  0
 36 86  2  0  0  0  0
 37 40  1  0  0  0  0
 38 54  1  0  0  0  0
 39 73  1  0  0  0  0
 40 42  1  0  0  0  0
 41 43  1  0  0  0  0
 41 49  1  0  0  0  0
 42 53  1  0  0  0  0
 43 55  1  0  0  0  0
 44 45  1  0  0  0  0
 44 57  1  0  0  0  0
 45 58  1  0  0  0  0
 46 50  1  0  0  0  0
 46 56  1  0  0  0  0
 47 51  1  0  0  0  0
 47 56  1  0  0  0  0
 48 57  1  0  0  0  0
 48 58  1  0  0  0  0
 49 74  1  0  0  0  0
 50 75  1  0  0  0  0
 51 75  1  0  0  0  0
 52 55  1  0  0  0  0
 52 74  1  0  0  0  0
 53 79  1  0  0  0  0
 54 73  1  0  0  0  0
 55 72  1  0  0  0  0
 56 78  1  0  0  0  0
 57 88  1  0  0  0  0
 58 65  1  0  0  0  0
 59 65  1  0  0  0  0
 60 67  1  0  0  0  0
 61 68  1  0  0  0  0
 62 68  1  0  0  0  0
 63 68  1  0  0  0  0
 64 81  1  0  0  0  0
 66 68  1  0  0  0  0
 66 80  1  0  0  0  0
 67 81  1  0  0  0  0
 70 72  1  0  0  0  0
M  CHG  1  81   1
M  ISO  4  36 100  57 101  75 100  88 101
M  END
> <Batch ID>
0185

> <Smiles>
CCC1(c2ccnc(NC3CC[100N:0]([100C:0](=O)N4CCCC(n5nc(-c6ccc(Oc7ccc(F)cc7F)cc6)c(C(N)=O)c5N)C4)CC3)n2)CC[101CH:1]([101O:1]c2ccc3c(c2)CN(C(=O)C(NC(=O)C(C)NC)C(C)(C)C)C(C(=O)NC2CCCc4ccccc42)C3)C1

> <Shape>
0.279

> <Color>
0.081

> <Negative vol penalty>
0.000

$$$$

  -OEChem-04052323123D

 79 87  0     1  0  0  0  0  0999 V2000
  -28.2431  -34.7706   26.1391 C   0  0  0  0  0  0  0  0  0  0  0  0
  -28.5044  -34.0231   24.9952 C   0  0  0  0  0  0  0  0  0  0  0  0
  -26.4723  -13.7334   21.8070 C   0  0  0  0  0  0  0  0  0  0  0  0
  -26.3944  -12.5564   19.6986 C   0  0  0  0  0  0  0  0  0  0  0  0
  -27.4526  -34.2348   27.1550 C   0  0  0  0  0  0  0  0  0  0  0  0
  -27.9763  -32.7389   24.8671 C   0  0  0  0  0  0  0  0  0  0  0  0
  -26.0719  -30.0391   19.7106 C   0  0  0  0  0  0  0  0  0  0  0  0
  -25.2087  -13.2387   22.1299 C   0  0  0  0  0  0  0  0  0  0  0  0
  -25.1309  -12.0616   20.0215 C   0  0  0  0  0  0  0  0  0  0  0  0
  -26.6811  -29.1286   18.8483 C   0  0  0  0  0  0  0  0  0  0  0  0
  -23.8372   -9.6067   21.9504 C   0  0  0  0  0  0  0  0  0  0  0  0
  -23.5927   -8.2540   21.7140 C   0  0  0  0  0  0  0  0  0  0  0  0
  -25.5749  -27.3151   19.9912 C   0  0  0  0  0  0  0  0  0  0  0  0
  -21.7954   -8.8417   20.2102 C   0  0  0  0  0  0  0  0  0  0  0  0
  -27.0651  -13.3923   20.5913 C   0  0  0  0  0  0  0  0  0  0  0  0
  -29.6143  -13.3099   20.5422 C   0  0  0  0  0  0  0  0  0  0  0  0
  -26.9066  -32.9472   27.0350 C   0  0  0  0  0  0  0  0  0  0  0  0
  -25.2166  -29.5928   20.7283 C   0  0  0  0  0  0  0  0  0  0  0  0
  -27.1789  -32.1849   25.8829 C   0  0  0  0  0  0  0  0  0  0  0  0
  -24.9540  -28.2221   20.8635 C   0  0  0  0  0  0  0  0  0  0  0  0
  -24.5380  -12.4027   21.2372 C   0  0  0  0  0  0  0  0  0  0  0  0
  -26.4350  -27.7662   18.9903 C   0  0  0  0  0  0  0  0  0  0  0  0
  -23.0607  -10.5770   21.3168 C   0  0  0  0  0  0  0  0  0  0  0  0
  -22.5719   -7.8715   20.8439 C   0  0  0  0  0  0  0  0  0  0  0  0
  -22.0398  -10.1944   20.4467 C   0  0  0  0  0  0  0  0  0  0  0  0
  -28.3701  -13.9035   20.2570 C   0  0  0  0  0  0  0  0  0  0  0  0
  -30.5384  -14.1819   20.0203 C   0  0  0  0  0  0  0  0  0  0  0  0
  -29.9085  -12.0803   21.2183 C   0  0  0  0  0  0  0  0  0  0  0  0
  -25.2401  -29.7404   23.9034 C   0  0  0  0  0  0  0  0  0  0  0  0
  -22.2875  -28.4324   23.5974 C   0  0  0  0  0  0  0  0  0  0  0  0
  -20.1113  -26.6012   21.7113 C   0  0  0  0  0  0  0  0  0  0  0  0
  -30.5700  -19.8786   19.0427 C   0  0  0  0  0  0  0  0  0  0  0  0
  -26.0971  -32.3923   28.1802 C   0  0  0  0  0  0  0  0  0  0  0  0
  -24.5463  -30.5898   21.6334 C   0  0  0  0  0  0  0  0  0  0  0  0
  -24.0280  -27.6932   21.9271 C   0  0  0  0  0  0  0  0  0  0  0  0
  -25.2664  -31.1686   27.8024 C   0  0  0  0  0  0  0  0  0  0  0  0
  -31.0921  -17.4400   16.5679 C   0  0  0  0  0  0  0  0  0  0  0  0
  -26.1092  -30.1759   27.0078 C   0  0  0  0  0  0  0  0  0  0  0  0
  -30.5695  -16.1842   17.2648 C   0  0  0  0  0  0  0  0  0  0  0  0
  -30.2128  -18.6598   16.8490 C   0  0  0  0  0  0  0  0  0  0  0  0
  -29.9742  -21.5728   17.2540 C   0  0  0  0  0  0  0  0  0  0  0  0
  -31.6523  -22.1044   18.9829 C   0  0  0  0  0  0  0  0  0  0  0  0
  -29.4654  -17.6624   18.9858 C   0  0  0  0  0  0  0  0  0  0  0  0
  -29.1558  -22.7945   17.6592 C   0  0  0  0  0  0  0  0  0  0  0  0
  -30.8500  -23.3156   19.4299 C   0  0  0  0  0  0  0  0  0  0  0  0
  -26.6036  -30.7978   25.6962 C   0  0  1  0  0  0  0  0  0  0  0  0
  -24.0967  -29.9848   22.9598 C   0  0  1  0  0  0  0  0  0  0  0  0
  -30.3616  -16.4334   18.7692 C   0  0  1  0  0  0  0  0  0  0  0  0
  -17.7832  -25.6651   21.7421 C   0  0  0  0  0  0  0  0  0  0  0  0
  -23.1972  -26.2397   25.5142 C   0  0  0  0  0  0  0  0  0  0  0  0
  -21.2356  -24.8729   24.7711 C   0  0  0  0  0  0  0  0  0  0  0  0
  -20.8688  -27.0653   25.9031 C   0  0  0  0  0  0  0  0  0  0  0  0
  -19.3265  -28.1646   19.3240 C   0  0  0  0  0  0  0  0  0  0  0  0
  -29.1044  -25.9579   17.3613 C   0  0  0  0  0  0  0  0  0  0  0  0
  -29.3157  -25.0999   18.5996 C   0  0  0  0  0  0  0  0  0  0  0  0
  -28.3068  -27.2292   17.6251 C   0  0  0  0  0  0  0  0  0  1  0  0
  -21.7429  -27.0260   23.5311 C   0  0  1  0  0  0  0  0  0  0  0  0
  -18.6604  -26.8380   21.3329 C   0  0  2  0  0  0  0  0  0  0  0  0
  -21.7801  -26.3105   24.9110 C   0  0  0  0  0  0  0  0  0  0  0  0
  -28.4894  -15.0630   19.6047 N   0  0  0  0  0  0  0  0  0  0  0  0
  -29.8195  -15.2050   19.4758 N   0  0  0  0  0  0  0  0  0  0  0  0
  -23.4015  -28.7071   22.7915 N   0  0  0  0  0  0  0  0  0  0  0  0
  -30.0092  -18.8331   18.2941 N   0  0  0  0  0  0  0  0  0  0  0  0
  -30.7907  -21.0926   18.3754 N   0  0  0  0  0  0  0  0  0  0  0  0
  -31.8876  -14.1655   19.9788 N   0  0  0  0  0  0  0  0  0  0  0  0
  -28.8404  -11.3057   21.6910 N   0  0  0  0  0  0  0  0  0  0  0  0
  -25.5405  -30.8182   24.7143 N   0  0  0  0  0  0  0  0  0  0  0  0
  -20.4095  -27.1317   22.9486 N   0  0  0  0  0  0  0  0  0  0  0  0
  -30.0650  -23.8441   18.2520 N   0  3  0  0  0  0  0  0  0  0  0  0
  -18.5336  -27.0284   19.8602 N   0  3  0  0  0  0  0  0  0  0  0  0
  -31.0842  -11.6884   21.4124 O   0  0  0  0  0  0  0  0  0  0  0  0
  -25.8069  -28.6539   23.8974 O   0  0  0  0  0  0  0  0  0  0  0  0
  -21.7403  -29.2589   24.3316 O   0  0  0  0  0  0  0  0  0  0  0  0
  -20.9002  -26.0021   20.9838 O   0  0  0  0  0  0  0  0  0  0  0  0
  -30.8563  -19.7359   20.2381 O   0  0  0  0  0  0  0  0  0  0  0  0
  -23.3052  -11.9196   21.5520 O   0  0  0  0  0  0  0  0  0  0  0  0
  -27.0330  -26.8690   18.1445 O   0  0  0  0  0  0  0  0  0  1  0  0
  -22.3382   -6.5724   20.6157 F   0  0  0  0  0  0  0  0  0  0  0  0
  -21.2913  -11.1220   19.8342 F   0  0  0  0  0  0  0  0  0  0  0  0
  1  2  1  0  0  0  0
  1  5  2  0  0  0  0
  2  6  2  0  0  0  0
  3  8  2  0  0  0  0
  3 15  1  0  0  0  0
  4  9  1  0  0  0  0
  4 15  2  0  0  0  0
  5 17  1  0  0  0  0
  6 19  1  0  0  0  0
  7 10  2  0  0  0  0
  7 18  1  0  0  0  0
  8 21  1  0  0  0  0
  9 21  2  0  0  0  0
 10 22  1  0  0  0  0
 11 12  2  0  0  0  0
 11 23  1  0  0  0  0
 12 24  1  0  0  0  0
 13 20  1  0  0  0  0
 13 22  2  0  0  0  0
 14 24  2  0  0  0  0
 14 25  1  0  0  0  0
 15 26  1  0  0  0  0
 16 26  1  0  0  0  0
 16 27  2  0  0  0  0
 16 28  1  0  0  0  0
 17 19  2  0  0  0  0
 17 33  1  0  0  0  0
 18 20  2  0  0  0  0
 18 34  1  0  0  0  0
 19 46  1  0  0  0  0
 20 35  1  0  0  0  0
 21 76  1  0  0  0  0
 22 77  1  0  0  0  0
 23 25  2  0  0  0  0
 23 76  1  0  0  0  0
 24 78  1  0  0  0  0
 25 79  1  0  0  0  0
 26 60  2  0  0  0  0
 27 61  1  0  0  0  0
 27 65  1  0  0  0  0
 28 66  1  0  0  0  0
 28 71  2  0  0  0  0
 29 47  1  0  0  0  0
 29 67  1  0  0  0  0
 29 72  2  0  0  0  0
 30 57  1  0  0  0  0
 30 62  1  0  0  0  0
 30 73  2  0  0  0  0
 31 58  1  0  0  0  0
 31 68  1  0  0  0  0
 31 74  2  0  0  0  0
 32 63  1  0  0  0  0
 32 64  1  0  0  0  0
 32 75  2  0  0  0  0
 33 36  1  0  0  0  0
 34 47  1  0  0  0  0
 35 62  1  0  0  0  0
 36 38  1  0  0  0  0
 37 39  1  0  0  0  0
 37 40  1  0  0  0  0
 38 46  1  0  0  0  0
 39 48  1  0  0  0  0
 40 63  1  0  0  0  0
 41 44  1  0  0  0  0
 41 64  1  0  0  0  0
 42 45  1  0  0  0  0
 42 64  1  0  0  0  0
 43 48  1  0  0  0  0
 43 63  1  0  0  0  0
 44 69  1  0  0  0  0
 45 69  1  0  0  0  0
 46 67  1  0  0  0  0
 47 62  1  0  0  0  0
 48 61  1  0  0  0  0
 49 58  1  0  0  0  0
 50 59  1  0  0  0  0
 51 59  1  0  0  0  0
 52 59  1  0  0  0  0
 53 70  1  0  0  0  0
 54 55  1  0  0  0  0
 54 56  1  0  0  0  0
 55 69  1  0  0  0  0
 56 77  1  0  0  0  0
 57 59  1  0  0  0  0
 57 68  1  0  0  0  0
 58 70  1  0  0  0  0
 60 61  1  0  0  0  0
M  CHG  2  69   1  70   1
M  ISO  4  32 100  56 101  64 100  77 101
M  END
> <Batch ID>
0185

> <Smiles>
CNC(C)C(=O)NC(C(=O)N1Cc2cc([101O:1][101CH2:1]CCN3CC[100N:0]([100C:0](=O)N4CCCC(n5nc(-c6ccc(Oc7ccc(F)cc7F)cc6)c(C(N)=O)c5N)C4)CC3)ccc2CC1C(=O)NC1CCCc2ccccc21)C(C)(C)C

> <Shape>
0.312

> <Color>
0.065

> <Negative vol penalty>
0.000

$$$$

  -OEChem-04052323123D

 77 85  0     1  0  0  0  0  0999 V2000
  -25.2083  -20.1917   31.7237 C   0  0  0  0  0  0  0  0  0  0  0  0
  -25.7542  -19.8145   30.5010 C   0  0  0  0  0  0  0  0  0  0  0  0
  -23.1378   -9.8649   21.3923 C   0  0  0  0  0  0  0  0  0  0  0  0
  -23.9047  -10.7011   23.5253 C   0  0  0  0  0  0  0  0  0  0  0  0
  -23.8480  -20.0053   31.9657 C   0  0  0  0  0  0  0  0  0  0  0  0
  -24.9402  -19.2495   29.5199 C   0  0  0  0  0  0  0  0  0  0  0  0
  -25.8012  -21.1946   24.9242 C   0  0  0  0  0  0  0  0  0  0  0  0
  -22.4243   -8.8586   22.0433 C   0  0  0  0  0  0  0  0  0  0  0  0
  -23.1911   -9.6949   24.1763 C   0  0  0  0  0  0  0  0  0  0  0  0
  -26.9281  -20.7394   24.2411 C   0  0  0  0  0  0  0  0  0  0  0  0
  -20.6905   -5.8511   23.1263 C   0  0  0  0  0  0  0  0  0  0  0  0
  -20.7769   -4.5569   22.6134 C   0  0  0  0  0  0  0  0  0  0  0  0
  -25.5359  -19.2549   22.9460 C   0  0  0  0  0  0  0  0  0  0  0  0
  -23.1664   -4.5750   22.9702 C   0  0  0  0  0  0  0  0  0  0  0  0
  -23.8781  -10.7861   22.1332 C   0  0  0  0  0  0  0  0  0  0  0  0
  -24.1553  -13.1120   21.1227 C   0  0  0  0  0  0  0  0  0  0  0  0
  -23.0150  -19.4467   30.9836 C   0  0  0  0  0  0  0  0  0  0  0  0
  -24.5325  -20.6746   24.6304 C   0  0  0  0  0  0  0  0  0  0  0  0
  -23.5676  -19.0542   29.7495 C   0  0  0  0  0  0  0  0  0  0  0  0
  -24.3942  -19.7070   23.6250 C   0  0  0  0  0  0  0  0  0  0  0  0
  -22.4509   -8.7736   23.4353 C   0  0  0  0  0  0  0  0  0  0  0  0
  -26.7960  -19.7673   23.2538 C   0  0  0  0  0  0  0  0  0  0  0  0
  -21.8421   -6.5074   23.5612 C   0  0  0  0  0  0  0  0  0  0  0  0
  -22.0149   -3.9189   22.5353 C   0  0  0  0  0  0  0  0  0  0  0  0
  -23.0800   -5.8693   23.4831 C   0  0  0  0  0  0  0  0  0  0  0  0
  -24.6158  -11.8255   21.4613 C   0  0  0  0  0  0  0  0  0  0  0  0
  -25.2269  -13.7086   20.5045 C   0  0  0  0  0  0  0  0  0  0  0  0
  -22.8735  -13.7139   21.3470 C   0  0  0  0  0  0  0  0  0  0  0  0
  -22.3359  -19.0609   26.2659 C   0  0  0  0  0  0  0  0  0  0  0  0
  -20.5756  -19.4958   23.5761 C   0  0  0  0  0  0  0  0  0  0  0  0
  -20.5181  -20.0765   20.2136 C   0  0  0  0  0  0  0  0  0  0  0  0
  -30.5603  -14.8660   20.0735 C   0  0  0  0  0  0  0  0  0  0  0  0
  -21.5596  -19.2212   31.3086 C   0  0  0  0  0  0  0  0  0  0  0  0
  -23.3234  -21.1955   25.3578 C   0  0  0  0  0  0  0  0  0  0  0  0
  -23.0518  -19.1313   23.2577 C   0  0  0  0  0  0  0  0  0  0  0  0
  -20.6940  -18.9609   30.0785 C   0  0  0  0  0  0  0  0  0  0  0  0
  -29.5960  -11.7729   18.8665 C   0  0  0  0  0  0  0  0  0  0  0  0
  -21.3625  -17.9419   29.1611 C   0  0  0  0  0  0  0  0  0  0  0  0
  -28.1731  -11.6033   19.3988 C   0  0  0  0  0  0  0  0  0  0  0  0
  -30.2702  -18.3678   21.2480 C   0  0  0  0  0  0  0  0  0  0  0  0
  -29.3605  -16.8313   23.0257 C   0  0  0  0  0  0  0  0  0  0  0  0
  -30.5032  -12.3947   19.9221 C   0  0  0  0  0  0  0  0  0  0  0  0
  -31.0741  -17.2024   20.6783 C   0  0  0  0  0  0  0  0  0  0  0  0
  -30.1853  -15.6970   22.4264 C   0  0  0  0  0  0  0  0  0  0  0  0
  -28.5902  -13.5525   20.9784 C   0  0  0  0  0  0  0  0  0  0  0  0
  -22.7123  -18.4609   28.6510 C   0  0  1  0  0  0  0  0  0  0  0  0
  -22.1472  -20.2242   25.3337 C   0  0  1  0  0  0  0  0  0  0  0  0
  -30.0070  -18.1955   22.7495 C   0  0  0  0  0  0  0  0  0  0  0  0
  -27.6259  -12.9333   19.9467 C   0  0  2  0  0  0  0  0  0  0  0  0
  -18.9319  -20.3424   18.2873 C   0  0  0  0  0  0  0  0  0  0  0  0
  -20.1268  -16.4781   23.5323 C   0  0  0  0  0  0  0  0  0  0  0  0
  -19.3829  -16.6934   21.1514 C   0  0  0  0  0  0  0  0  0  0  0  0
  -18.1089  -17.8412   22.9631 C   0  0  0  0  0  0  0  0  0  0  0  0
  -21.4474  -22.8350   19.6786 C   0  0  0  0  0  0  0  0  0  0  0  0
  -29.1332  -19.3285   23.2823 C   0  0  0  0  0  0  0  0  0  1  0  0
  -20.3792  -18.7280   22.2912 C   0  0  1  0  0  0  0  0  0  0  0  0
  -19.7194  -21.0574   19.3743 C   0  0  2  0  0  0  0  0  0  0  0  0
  -19.5251  -17.4444   22.4925 C   0  0  0  0  0  0  0  0  0  0  0  0
  -25.8814  -11.6163   21.0889 N   0  0  0  0  0  0  0  0  0  0  0  0
  -26.2252  -12.7793   20.5098 N   0  0  0  0  0  0  0  0  0  0  0  0
  -21.9004  -19.6683   24.0017 N   0  0  0  0  0  0  0  0  0  0  0  0
  -29.9469  -13.6527   20.4201 N   0  0  0  0  0  0  0  0  0  0  0  0
  -30.4547  -15.9173   20.9992 N   0  0  0  0  0  0  0  0  0  0  0  0
  -25.4032  -14.9322   19.9622 N   0  0  0  0  0  0  0  0  0  0  0  0
  -21.8861  -12.9606   21.9965 N   0  0  0  0  0  0  0  0  0  0  0  0
  -22.5150  -19.4224   27.5875 N   0  0  0  0  0  0  0  0  0  0  0  0
  -19.8193  -19.6739   21.3320 N   0  0  0  0  0  0  0  0  0  0  0  0
  -20.6284  -22.0435   18.7247 N   0  3  0  0  0  0  0  0  0  0  0  0
  -22.6062  -14.8793   20.9677 O   0  0  0  0  0  0  0  0  0  0  0  0
  -22.3187  -17.9199   25.8193 O   0  0  0  0  0  0  0  0  0  0  0  0
  -19.5904  -19.9327   24.1762 O   0  0  0  0  0  0  0  0  0  0  0  0
  -21.6475  -19.7020   19.9058 O   0  0  0  0  0  0  0  0  0  0  0  0
  -31.1622  -15.0058   19.0015 O   0  0  0  0  0  0  0  0  0  0  0  0
  -21.7545   -7.7919   24.0709 O   0  0  0  0  0  0  0  0  0  0  0  0
  -27.9044  -19.3167   22.5798 O   0  0  0  0  0  0  0  0  0  1  0  0
  -22.0975   -2.6755   22.0441 F   0  0  0  0  0  0  0  0  0  0  0  0
  -24.1896   -6.4942   23.9004 F   0  0  0  0  0  0  0  0  0  0  0  0
  1  2  1  0  0  0  0
  1  5  2  0  0  0  0
  2  6  2  0  0  0  0
  3  8  2  0  0  0  0
  3 15  1  0  0  0  0
  4  9  1  0  0  0  0
  4 15  2  0  0  0  0
  5 17  1  0  0  0  0
  6 19  1  0  0  0  0
  7 10  2  0  0  0  0
  7 18  1  0  0  0  0
  8 21  1  0  0  0  0
  9 21  2  0  0  0  0
 10 22  1  0  0  0  0
 11 12  2  0  0  0  0
 11 23  1  0  0  0  0
 12 24  1  0  0  0  0
 13 20  1  0  0  0  0
 13 22  2  0  0  0  0
 14 24  2  0  0  0  0
 14 25  1  0  0  0  0
 15 26  1  0  0  0  0
 16 26  1  0  0  0  0
 16 27  2  0  0  0  0
 16 28  1  0  0  0  0
 17 19  2  0  0  0  0
 17 33  1  0  0  0  0
 18 20  2  0  0  0  0
 18 34  1  0  0  0  0
 19 46  1  0  0  0  0
 20 35  1  0  0  0  0
 21 74  1  0  0  0  0
 22 75  1  0  0  0  0
 23 25  2  0  0  0  0
 23 74  1  0  0  0  0
 24 76  1  0  0  0  0
 25 77  1  0  0  0  0
 26 59  2  0  0  0  0
 27 60  1  0  0  0  0
 27 64  1  0  0  0  0
 28 65  1  0  0  0  0
 28 69  2  0  0  0  0
 29 47  1  0  0  0  0
 29 66  1  0  0  0  0
 29 70  2  0  0  0  0
 30 56  1  0  0  0  0
 30 61  1  0  0  0  0
 30 71  2  0  0  0  0
 31 57  1  0  0  0  0
 31 67  1  0  0  0  0
 31 72  2  0  0  0  0
 32 62  1  0  0  0  0
 32 63  1  0  0  0  0
 32 73  2  0  0  0  0
 33 36  1  0  0  0  0
 34 47  1  0  0  0  0
 35 61  1  0  0  0  0
 36 38  1  0  0  0  0
 37 39  1  0  0  0  0
 37 42  1  0  0  0  0
 38 46  1  0  0  0  0
 39 49  1  0  0  0  0
 40 43  1  0  0  0  0
 40 48  1  0  0  0  0
 41 44  1  0  0  0  0
 41 48  1  0  0  0  0
 42 62  1  0  0  0  0
 43 63  1  0  0  0  0
 44 63  1  0  0  0  0
 45 49  1  0  0  0  0
 45 62  1  0  0  0  0
 46 66  1  0  0  0  0
 47 61  1  0  0  0  0
 48 55  1  0  0  0  0
 49 60  1  0  0  0  0
 50 57  1  0  0  0  0
 51 58  1  0  0  0  0
 52 58  1  0  0  0  0
 53 58  1  0  0  0  0
 54 68  1  0  0  0  0
 55 75  1  0  0  0  0
 56 58  1  0  0  0  0
 56 67  1  0  0  0  0
 57 68  1  0  0  0  0
 59 60  1  0  0  0  0
M  CHG  1  68   1
M  ISO  4  32 100  55 101  63 100  75 101
M  END
> <Batch ID>
0185

> <Smiles>
CNC(C)C(=O)NC(C(=O)N1Cc2cc([101O:1][101CH2:1]C3CC[100N:0]([100C:0](=O)N4CCCC(n5nc(-c6ccc(Oc7ccc(F)cc7F)cc6)c(C(N)=O)c5N)C4)CC3)ccc2CC1C(=O)NC1CCCc2ccccc21)C(C)(C)C

> <Shape>
0.164

> <Color>
0.146

> <Negative vol penalty>
0.000

$$$$

  -OEChem-04052323123D

 83 92  0     1  0  0  0  0  0999 V2000
  -26.7197  -34.9681   25.4575 C   0  0  0  0  0  0  0  0  0  0  0  0
  -27.2256  -33.7704   24.9625 C   0  0  0  0  0  0  0  0  0  0  0  0
  -23.3147  -10.5754   22.1151 C   0  0  0  0  0  0  0  0  0  0  0  0
  -24.5395   -8.7676   21.0813 C   0  0  0  0  0  0  0  0  0  0  0  0
  -25.3520  -35.1016   25.6927 C   0  0  0  0  0  0  0  0  0  0  0  0
  -26.3640  -32.7050   24.7035 C   0  0  0  0  0  0  0  0  0  0  0  0
  -26.8595  -28.5798   20.2043 C   0  0  0  0  0  0  0  0  0  0  0  0
  -22.2278   -9.7245   22.3155 C   0  0  0  0  0  0  0  0  0  0  0  0
  -23.4526   -7.9166   21.2818 C   0  0  0  0  0  0  0  0  0  0  0  0
  -27.3635  -27.2802   20.1746 C   0  0  0  0  0  0  0  0  0  0  0  0
  -22.1134   -6.1474   23.8307 C   0  0  0  0  0  0  0  0  0  0  0  0
  -22.3746   -4.8717   24.3304 C   0  0  0  0  0  0  0  0  0  0  0  0
  -25.1322  -26.4144   20.4761 C   0  0  0  0  0  0  0  0  0  0  0  0
  -21.3982   -3.8952   22.3480 C   0  0  0  0  0  0  0  0  0  0  0  0
  -24.4705  -10.0970   21.4979 C   0  0  0  0  0  0  0  0  0  0  0  0
  -26.6697  -11.2021   22.1687 C   0  0  0  0  0  0  0  0  0  0  0  0
  -24.4720  -34.0406   25.4273 C   0  0  0  0  0  0  0  0  0  0  0  0
  -25.4871  -28.8071   20.3814 C   0  0  0  0  0  0  0  0  0  0  0  0
  -24.9834  -32.8240   24.9366 C   0  0  0  0  0  0  0  0  0  0  0  0
  -24.6130  -27.7178   20.5051 C   0  0  0  0  0  0  0  0  0  0  0  0
  -28.1872  -22.4942   19.1140 C   0  0  0  0  0  0  0  0  0  0  0  0
  -22.2967   -8.3951   21.8989 C   0  0  0  0  0  0  0  0  0  0  0  0
  -26.5002  -26.1974   20.3134 C   0  0  0  0  0  0  0  0  0  0  0  0
  -21.4944   -6.2971   22.5897 C   0  0  0  0  0  0  0  0  0  0  0  0
  -22.0171   -3.7455   23.5891 C   0  0  0  0  0  0  0  0  0  0  0  0
  -21.1369   -5.1710   21.8483 C   0  0  0  0  0  0  0  0  0  0  0  0
  -25.5934  -10.9756   21.2901 C   0  0  0  0  0  0  0  0  0  0  0  0
  -28.5649  -21.1684   19.1760 C   0  0  0  0  0  0  0  0  0  0  0  0
  -28.7346  -23.3166   20.0775 C   0  0  0  0  0  0  0  0  0  0  0  0
  -27.4622  -12.1126   21.5134 C   0  0  0  0  0  0  0  0  0  0  0  0
  -29.8773  -21.5748   20.9870 C   0  0  0  0  0  0  0  0  0  0  0  0
  -26.9299  -10.6396   23.4617 C   0  0  0  0  0  0  0  0  0  0  0  0
  -23.7215  -30.2713   22.5819 C   0  0  0  0  0  0  0  0  0  0  0  0
  -21.3117  -29.6490   20.5017 C   0  0  0  0  0  0  0  0  0  0  0  0
  -20.1112  -27.7275   17.9495 C   0  0  0  0  0  0  0  0  0  0  0  0
  -27.8750  -16.8458   18.7244 C   0  0  0  0  0  0  0  0  0  0  0  0
  -23.0074  -34.2161   25.7420 C   0  0  0  0  0  0  0  0  0  0  0  0
  -24.9558  -30.2143   20.3844 C   0  0  0  0  0  0  0  0  0  0  0  0
  -23.1288  -27.9076   20.6773 C   0  0  0  0  0  0  0  0  0  0  0  0
  -22.1137  -33.1658   25.0876 C   0  0  0  0  0  0  0  0  0  0  0  0
  -27.3514  -13.7704   16.7545 C   0  0  0  0  0  0  0  0  0  0  0  0
  -22.6992  -31.7707   25.2817 C   0  0  0  0  0  0  0  0  0  0  0  0
  -26.8825  -12.8041   17.8383 C   0  0  0  0  0  0  0  0  0  0  0  0
  -28.7142  -20.0584   16.8483 C   0  0  0  0  0  0  0  0  0  0  0  0
  -26.8855  -15.2011   17.0211 C   0  0  0  0  0  0  0  0  0  0  0  0
  -26.7977  -14.7414   19.4553 C   0  0  0  0  0  0  0  0  0  0  0  0
  -24.0775  -31.6539   24.6197 C   0  0  1  0  0  0  0  0  0  0  0  0
  -28.0280  -20.1931   18.1794 C   0  0  1  0  0  0  0  0  0  0  0  0
  -23.6069  -30.3422   21.0854 C   0  0  1  0  0  0  0  0  0  0  0  0
  -27.2978  -13.3064   19.2295 C   0  0  1  0  0  0  0  0  0  0  0  0
  -28.8362  -18.9582   17.8608 C   0  0  1  0  0  0  0  0  0  0  0  0
  -27.2506  -23.0069   18.0777 C   0  0  0  0  0  0  0  0  0  0  0  0
  -30.8165  -21.0644   22.0266 C   0  0  0  0  0  0  0  0  0  0  0  0
  -18.0955  -27.4354   16.4835 C   0  0  0  0  0  0  0  0  0  0  0  0
  -19.8236  -28.3282   22.8149 C   0  0  0  0  0  0  0  0  0  0  0  0
  -18.3124  -27.2495   21.1354 C   0  0  0  0  0  0  0  0  0  0  0  0
  -18.3933  -29.7357   21.3225 C   0  0  0  0  0  0  0  0  0  0  0  0
  -21.6739  -28.2689   15.4951 C   0  0  0  0  0  0  0  0  0  0  0  0
  -28.3979  -24.7784   20.1106 C   0  0  0  0  0  0  0  0  0  1  0  0
  -20.3478  -28.5060   20.2931 C   0  0  1  0  0  0  0  0  0  0  0  0
  -19.4560  -28.0986   16.6313 C   0  0  2  0  0  0  0  0  0  0  0  0
  -19.2475  -28.4510   21.3902 C   0  0  0  0  0  0  0  0  0  0  0  0
  -25.6901  -11.6852   20.1626 N   0  0  0  0  0  0  0  0  0  0  0  0
  -29.4112  -20.6726   20.1025 N   0  0  0  0  0  0  0  0  0  0  0  0
  -29.5861  -22.8888   21.0326 N   0  0  0  0  0  0  0  0  0  0  0  0
  -26.8366  -12.3665   20.3284 N   0  0  0  0  0  0  0  0  0  0  0  0
  -22.6585  -29.3027   20.6801 N   0  0  0  0  0  0  0  0  0  0  0  0
  -27.2370  -15.6402   18.3808 N   0  0  0  0  0  0  0  0  0  0  0  0
  -28.6262  -12.7128   21.8411 N   0  0  0  0  0  0  0  0  0  0  0  0
  -26.0127   -9.7191   23.9867 N   0  0  0  0  0  0  0  0  0  0  0  0
  -23.9386  -31.4940   23.1881 N   0  0  0  0  0  0  0  0  0  0  0  0
  -19.8319  -28.6495   18.9360 N   0  0  0  0  0  0  0  0  0  0  0  0
  -28.1884  -17.6889   17.6642 N   0  0  0  0  0  0  0  0  0  0  0  0
  -20.3131  -27.6728   15.4890 N   0  3  0  0  0  0  0  0  0  0  0  0
  -27.9372  -10.9568   24.1386 O   0  0  0  0  0  0  0  0  0  0  0  0
  -23.6191  -29.1878   23.1451 O   0  0  0  0  0  0  0  0  0  0  0  0
  -20.8863  -30.8069   20.4989 O   0  0  0  0  0  0  0  0  0  0  0  0
  -20.7986  -26.7186   18.0909 O   0  0  0  0  0  0  0  0  0  0  0  0
  -28.1419  -17.1535   19.8913 O   0  0  0  0  0  0  0  0  0  0  0  0
  -21.2364   -7.5644   22.0946 O   0  0  0  0  0  0  0  0  0  0  0  0
  -26.9896  -24.9279   20.2854 O   0  0  0  0  0  0  0  0  0  1  0  0
  -22.2694   -2.5205   24.0683 F   0  0  0  0  0  0  0  0  0  0  0  0
  -20.5431   -5.3085   20.6548 F   0  0  0  0  0  0  0  0  0  0  0  0
  1  2  1  0  0  0  0
  1  5  2  0  0  0  0
  2  6  2  0  0  0  0
  3  8  2  0  0  0  0
  3 15  1  0  0  0  0
  4  9  1  0  0  0  0
  4 15  2  0  0  0  0
  5 17  1  0  0  0  0
  6 19  1  0  0  0  0
  7 10  2  0  0  0  0
  7 18  1  0  0  0  0
  8 22  1  0  0  0  0
  9 22  2  0  0  0  0
 10 23  1  0  0  0  0
 11 12  2  0  0  0  0
 11 24  1  0  0  0  0
 12 25  1  0  0  0  0
 13 20  1  0  0  0  0
 13 23  2  0  0  0  0
 14 25  2  0  0  0  0
 14 26  1  0  0  0  0
 15 27  1  0  0  0  0
 16 27  1  0  0  0  0
 16 30  2  0  0  0  0
 16 32  1  0  0  0  0
 17 19  2  0  0  0  0
 17 37  1  0  0  0  0
 18 20  2  0  0  0  0
 18 38  1  0  0  0  0
 19 47  1  0  0  0  0
 20 39  1  0  0  0  0
 21 28  1  0  0  0  0
 21 29  2  0  0  0  0
 21 52  1  0  0  0  0
 22 80  1  0  0  0  0
 23 81  1  0  0  0  0
 24 26  2  0  0  0  0
 24 80  1  0  0  0  0
 25 82  1  0  0  0  0
 26 83  1  0  0  0  0
 27 63  2  0  0  0  0
 28 48  1  0  0  0  0
 28 64  2  0  0  0  0
 29 59  1  0  0  0  0
 29 65  1  0  0  0  0
 30 66  1  0  0  0  0
 30 69  1  0  0  0  0
 31 53  1  0  0  0  0
 31 64  1  0  0  0  0
 31 65  2  0  0  0  0
 32 70  1  0  0  0  0
 32 75  2  0  0  0  0
 33 49  1  0  0  0  0
 33 71  1  0  0  0  0
 33 76  2  0  0  0  0
 34 60  1  0  0  0  0
 34 67  1  0  0  0  0
 34 77  2  0  0  0  0
 35 61  1  0  0  0  0
 35 72  1  0  0  0  0
 35 78  2  0  0  0  0
 36 68  1  0  0  0  0
 36 73  1  0  0  0  0
 36 79  2  0  0  0  0
 37 40  1  0  0  0  0
 38 49  1  0  0  0  0
 39 67  1  0  0  0  0
 40 42  1  0  0  0  0
 41 43  1  0  0  0  0
 41 45  1  0  0  0  0
 42 47  1  0  0  0  0
 43 50  1  0  0  0  0
 44 48  1  0  0  0  0
 44 51  1  0  0  0  0
 45 68  1  0  0  0  0
 46 50  1  0  0  0  0
 46 68  1  0  0  0  0
 47 71  1  0  0  0  0
 48 51  1  0  0  0  0
 49 67  1  0  0  0  0
 50 66  1  0  0  0  0
 51 73  1  0  0  0  0
 54 61  1  0  0  0  0
 55 62  1  0  0  0  0
 56 62  1  0  0  0  0
 57 62  1  0  0  0  0
 58 74  1  0  0  0  0
 59 81  1  0  0  0  0
 60 62  1  0  0  0  0
 60 72  1  0  0  0  0
 61 74  1  0  0  0  0
 63 66  1  0  0  0  0
M  CHG  1  74   1
M  ISO  4  36 100  59 101  73 100  81 101
M  END
> <Batch ID>
0185

> <Smiles>
CNC(C)C(=O)NC(C(=O)N1Cc2cc([101O:1][101CH2:1]c3nc(C)nc(C4CC4[100NH:0][100C:0](=O)N4CCCC(n5nc(-c6ccc(Oc7ccc(F)cc7F)cc6)c(C(N)=O)c5N)C4)c3C)ccc2CC1C(=O)NC1CCCc2ccccc21)C(C)(C)C

> <Shape>
0.290

> <Color>
0.102

> <Negative vol penalty>
0.000

$$$$

  -OEChem-04052323123D

 86 95  0     1  0  0  0  0  0999 V2000
  -29.8318  -36.2705   23.7081 C   0  0  0  0  0  0  0  0  0  0  0  0
  -29.5969  -34.9530   23.3280 C   0  0  0  0  0  0  0  0  0  0  0  0
  -24.0153   -9.6467   21.8118 C   0  0  0  0  0  0  0  0  0  0  0  0
  -21.9735  -10.5893   20.9289 C   0  0  0  0  0  0  0  0  0  0  0  0
  -28.8673  -36.9679   24.4343 C   0  0  0  0  0  0  0  0  0  0  0  0
  -28.3977  -34.3317   23.6750 C   0  0  0  0  0  0  0  0  0  0  0  0
  -25.3008  -30.2046   20.3762 C   0  0  0  0  0  0  0  0  0  0  0  0
  -23.4584   -8.3701   21.7368 C   0  0  0  0  0  0  0  0  0  0  0  0
  -21.4166   -9.3127   20.8538 C   0  0  0  0  0  0  0  0  0  0  0  0
  -25.2395  -28.8130   20.4334 C   0  0  0  0  0  0  0  0  0  0  0  0
  -21.2900   -6.4901   23.5223 C   0  0  0  0  0  0  0  0  0  0  0  0
  -21.4585   -5.6449   24.6190 C   0  0  0  0  0  0  0  0  0  0  0  0
  -23.2453  -28.9622   21.7826 C   0  0  0  0  0  0  0  0  0  0  0  0
  -22.6127   -4.0531   23.2150 C   0  0  0  0  0  0  0  0  0  0  0  0
  -23.2728  -10.7564   21.4079 C   0  0  0  0  0  0  0  0  0  0  0  0
  -24.5855  -12.7413   20.4890 C   0  0  0  0  0  0  0  0  0  0  0  0
  -27.6517  -36.3579   24.7820 C   0  0  0  0  0  0  0  0  0  0  0  0
  -24.3393  -30.9870   21.0319 C   0  0  0  0  0  0  0  0  0  0  0  0
  -27.4166  -35.0211   24.4077 C   0  0  0  0  0  0  0  0  0  0  0  0
  -23.2952  -30.3636   21.7300 C   0  0  0  0  0  0  0  0  0  0  0  0
  -22.1591   -8.2030   21.2578 C   0  0  0  0  0  0  0  0  0  0  0  0
  -24.2134  -28.1916   21.1391 C   0  0  0  0  0  0  0  0  0  0  0  0
  -21.7828   -6.1168   22.2719 C   0  0  0  0  0  0  0  0  0  0  0  0
  -22.1199   -4.4264   24.4654 C   0  0  0  0  0  0  0  0  0  0  0  0
  -22.4442   -4.8984   22.1183 C   0  0  0  0  0  0  0  0  0  0  0  0
  -23.8473  -12.0754   21.4857 C   0  0  0  0  0  0  0  0  0  0  0  0
  -24.9024  -13.9546   21.0493 C   0  0  0  0  0  0  0  0  0  0  0  0
  -24.7728  -23.7450   19.7445 C   0  0  0  0  0  0  0  0  0  0  0  0
  -24.9743  -24.0980   22.0783 C   0  0  0  0  0  0  0  0  0  0  0  0
  -24.9657  -24.6409   20.7128 C   0  0  0  0  0  0  0  0  0  0  0  0
  -24.5850  -22.3101   20.0625 C   0  0  0  0  0  0  0  0  0  0  0  0
  -24.9519  -12.3024   19.1742 C   0  0  0  0  0  0  0  0  0  0  0  0
  -24.4126  -33.1338   23.3749 C   0  0  0  0  0  0  0  0  0  0  0  0
  -21.2774  -33.4880   22.6216 C   0  0  0  0  0  0  0  0  0  0  0  0
  -18.4572  -32.1417   21.2502 C   0  0  0  0  0  0  0  0  0  0  0  0
  -23.4774  -18.4578   23.9832 C   0  0  0  0  0  0  0  0  0  0  0  0
  -26.6590  -37.1366   25.6084 C   0  0  0  0  0  0  0  0  0  0  0  0
  -24.4042  -32.4868   20.9382 C   0  0  0  0  0  0  0  0  0  0  0  0
  -22.2268  -31.1580   22.4342 C   0  0  0  0  0  0  0  0  0  0  0  0
  -25.2594  -36.5272   25.6130 C   0  0  0  0  0  0  0  0  0  0  0  0
  -24.4925  -15.6140   25.7935 C   0  0  0  0  0  0  0  0  0  0  0  0
  -25.3327  -35.0234   25.8578 C   0  0  0  0  0  0  0  0  0  0  0  0
  -24.4543  -14.4836   24.7680 C   0  0  0  0  0  0  0  0  0  0  0  0
  -21.9451  -20.7457   21.4927 C   0  0  0  0  0  0  0  0  0  0  0  0
  -23.3317  -16.5770   25.5819 C   0  0  0  0  0  0  0  0  0  0  0  0
  -23.2690  -16.0623   23.1581 C   0  0  0  0  0  0  0  0  0  0  0  0
  -21.5528  -18.5473   22.3134 C   0  0  0  0  0  0  0  0  0  0  0  0
  -26.1179  -34.3207   24.7438 C   0  0  1  0  0  0  0  0  0  0  0  0
  -23.6646  -33.1889   22.0729 C   0  0  1  0  0  0  0  0  0  0  0  0
  -24.4160  -15.0468   23.3383 C   0  0  2  0  0  0  0  0  0  0  0  0
  -20.8240  -19.8338   21.9663 C   0  0  2  0  0  0  0  0  0  0  0  0
  -23.0755  -20.4099   22.4750 C   0  0  2  0  0  0  0  0  0  0  0  0
  -16.0401  -32.6560   20.8139 C   0  0  0  0  0  0  0  0  0  0  0  0
  -20.6432  -32.9918   25.5646 C   0  0  0  0  0  0  0  0  0  0  0  0
  -18.2632  -32.5737   24.9093 C   0  0  0  0  0  0  0  0  0  0  0  0
  -19.2941  -34.8079   24.4985 C   0  0  0  0  0  0  0  0  0  0  0  0
  -19.1090  -20.8508   20.4618 C   0  0  0  0  0  0  0  0  0  0  0  0
  -18.8126  -31.8929   18.3226 C   0  0  0  0  0  0  0  0  0  0  0  0
  -25.1653  -26.1032   20.5158 C   0  0  0  0  0  0  0  0  0  1  0  0
  -24.4495  -20.5860   21.8420 C   0  0  0  0  0  0  0  0  0  0  0  0
  -19.9900  -32.8404   23.0713 C   0  0  1  0  0  0  0  0  0  0  0  0
  -17.4545  -32.7007   20.2569 C   0  0  2  0  0  0  0  0  0  0  0  0
  -19.5687  -33.2882   24.4994 C   0  0  0  0  0  0  0  0  0  0  0  0
  -23.7039  -12.8052   22.5952 N   0  0  0  0  0  0  0  0  0  0  0  0
  -24.8163  -22.8627   22.4147 N   0  0  0  0  0  0  0  0  0  0  0  0
  -24.3563  -13.9421   22.2990 N   0  0  0  0  0  0  0  0  0  0  0  0
  -24.6181  -21.9353   21.4140 N   0  0  0  0  0  0  0  0  0  0  0  0
  -22.3372  -32.6216   22.3187 N   0  0  0  0  0  0  0  0  0  0  0  0
  -23.2977  -17.0873   24.2104 N   0  0  0  0  0  0  0  0  0  0  0  0
  -22.8158  -19.0223   22.8896 N   0  0  0  0  0  0  0  0  0  0  0  0
  -25.5921  -15.0203   20.5899 N   0  0  0  0  0  0  0  0  0  0  0  0
  -24.5445  -11.0277   18.7576 N   0  0  0  0  0  0  0  0  0  0  0  0
  -25.2979  -34.1785   23.5598 N   0  0  0  0  0  0  0  0  0  0  0  0
  -19.0029  -33.1333   22.0377 N   0  0  0  0  0  0  0  0  0  0  0  0
  -19.8238  -19.6181   20.9077 N   0  3  0  0  0  0  0  0  0  0  0  0
  -17.4861  -31.9148   18.9911 N   0  3  0  0  0  0  0  0  0  0  0  0
  -24.4103  -21.5218   19.1334 O   0  0  0  0  0  0  0  0  0  0  0  0
  -25.6348  -13.0128   18.3980 O   0  0  0  0  0  0  0  0  0  0  0  0
  -24.2010  -32.2125   24.1547 O   0  0  0  0  0  0  0  0  0  0  0  0
  -21.3381  -34.7170   22.5352 O   0  0  0  0  0  0  0  0  0  0  0  0
  -18.7265  -30.9448   21.3228 O   0  0  0  0  0  0  0  0  0  0  0  0
  -24.1720  -19.1508   24.7380 O   0  0  0  0  0  0  0  0  0  0  0  0
  -21.6154   -6.9574   21.1842 O   0  0  0  0  0  0  0  0  0  0  0  0
  -24.1511  -26.8220   21.1976 O   0  0  0  0  0  0  0  0  0  1  0  0
  -22.2829   -3.6155   25.5190 F   0  0  0  0  0  0  0  0  0  0  0  0
  -22.9208   -4.5349   20.9197 F   0  0  0  0  0  0  0  0  0  0  0  0
  1  2  1  0  0  0  0
  1  5  2  0  0  0  0
  2  6  2  0  0  0  0
  3  8  2  0  0  0  0
  3 15  1  0  0  0  0
  4  9  1  0  0  0  0
  4 15  2  0  0  0  0
  5 17  1  0  0  0  0
  6 19  1  0  0  0  0
  7 10  2  0  0  0  0
  7 18  1  0  0  0  0
  8 21  1  0  0  0  0
  9 21  2  0  0  0  0
 10 22  1  0  0  0  0
 11 12  2  0  0  0  0
 11 23  1  0  0  0  0
 12 24  1  0  0  0  0
 13 20  1  0  0  0  0
 13 22  2  0  0  0  0
 14 24  2  0  0  0  0
 14 25  1  0  0  0  0
 15 26  1  0  0  0  0
 16 26  1  0  0  0  0
 16 27  2  0  0  0  0
 16 32  1  0  0  0  0
 17 19  2  0  0  0  0
 17 37  1  0  0  0  0
 18 20  2  0  0  0  0
 18 38  1  0  0  0  0
 19 48  1  0  0  0  0
 20 39  1  0  0  0  0
 21 83  1  0  0  0  0
 22 84  1  0  0  0  0
 23 25  2  0  0  0  0
 23 83  1  0  0  0  0
 24 85  1  0  0  0  0
 25 86  1  0  0  0  0
 26 64  2  0  0  0  0
 27 66  1  0  0  0  0
 27 71  1  0  0  0  0
 28 30  2  0  0  0  0
 28 31  1  0  0  0  0
 29 30  1  0  0  0  0
 29 65  2  0  0  0  0
 30 59  1  0  0  0  0
 31 67  1  0  0  0  0
 31 77  2  0  0  0  0
 32 72  1  0  0  0  0
 32 78  2  0  0  0  0
 33 49  1  0  0  0  0
 33 73  1  0  0  0  0
 33 79  2  0  0  0  0
 34 61  1  0  0  0  0
 34 68  1  0  0  0  0
 34 80  2  0  0  0  0
 35 62  1  0  0  0  0
 35 74  1  0  0  0  0
 35 81  2  0  0  0  0
 36 69  1  0  0  0  0
 36 70  1  0  0  0  0
 36 82  2  0  0  0  0
 37 40  1  0  0  0  0
 38 49  1  0  0  0  0
 39 68  1  0  0  0  0
 40 42  1  0  0  0  0
 41 43  1  0  0  0  0
 41 45  1  0  0  0  0
 42 48  1  0  0  0  0
 43 50  1  0  0  0  0
 44 51  1  0  0  0  0
 44 52  1  0  0  0  0
 45 69  1  0  0  0  0
 46 50  1  0  0  0  0
 46 69  1  0  0  0  0
 47 51  1  0  0  0  0
 47 70  1  0  0  0  0
 48 73  1  0  0  0  0
 49 68  1  0  0  0  0
 50 66  1  0  0  0  0
 51 75  1  0  0  0  0
 52 60  1  0  0  0  0
 52 70  1  0  0  0  0
 53 62  1  0  0  0  0
 54 63  1  0  0  0  0
 55 63  1  0  0  0  0
 56 63  1  0  0  0  0
 57 75  1  0  0  0  0
 58 76  1  0  0  0  0
 59 84  1  0  0  0  0
 60 67  1  0  0  0  0
 61 63  1  0  0  0  0
 61 74  1  0  0  0  0
 62 76  1  0  0  0  0
 64 66  1  0  0  0  0
 65 67  1  0  0  0  0
M  CHG  2  75   1  76   1
M  ISO  4  36 100  59 101  70 100  84 101
M  END
> <Batch ID>
0185

> <Smiles>
CNC1CC(Cn2ncc([101CH2:1][101O:1]c3ccc4c(c3)CN(C(=O)C(NC(=O)C(C)NC)C(C)(C)C)C(C(=O)NC3CCCc5ccccc53)C4)cc2=O)[100N:0]([100C:0](=O)N2CCCC(n3nc(-c4ccc(Oc5ccc(F)cc5F)cc4)c(C(N)=O)c3N)C2)C1

> <Shape>
0.191

> <Color>
0.120

> <Negative vol penalty>
0.000

$$$$

  -OEChem-04052323123D

 84 93  0     1  0  0  0  0  0999 V2000
  -18.2422  -32.6685   20.9174 C   0  0  0  0  0  0  0  0  0  0  0  0
  -19.5234  -32.4649   20.4149 C   0  0  0  0  0  0  0  0  0  0  0  0
  -25.8331  -15.9433   20.5329 C   0  0  0  0  0  0  0  0  0  0  0  0
  -28.0521  -15.1575   19.9891 C   0  0  0  0  0  0  0  0  0  0  0  0
  -17.8918  -32.1471   22.1621 C   0  0  0  0  0  0  0  0  0  0  0  0
  -20.4554  -31.7407   21.1574 C   0  0  0  0  0  0  0  0  0  0  0  0
  -24.8000  -28.0129   18.9819 C   0  0  0  0  0  0  0  0  0  0  0  0
  -25.3837  -14.6248   20.6045 C   0  0  0  0  0  0  0  0  0  0  0  0
  -27.6026  -13.8389   20.0607 C   0  0  0  0  0  0  0  0  0  0  0  0
  -26.1612  -28.1975   18.7435 C   0  0  0  0  0  0  0  0  0  0  0  0
  -25.5070  -12.0675   22.8131 C   0  0  0  0  0  0  0  0  0  0  0  0
  -24.6982  -11.7162   23.8938 C   0  0  0  0  0  0  0  0  0  0  0  0
  -26.6632  -27.2292   20.8952 C   0  0  0  0  0  0  0  0  0  0  0  0
  -22.9268  -11.1042   22.3690 C   0  0  0  0  0  0  0  0  0  0  0  0
  -27.1673  -16.2097   20.2251 C   0  0  0  0  0  0  0  0  0  0  0  0
  -28.1636  -18.3470   21.1982 C   0  0  0  0  0  0  0  0  0  0  0  0
  -18.8170  -31.4080   22.9160 C   0  0  0  0  0  0  0  0  0  0  0  0
  -24.3589  -27.4441   20.1853 C   0  0  0  0  0  0  0  0  0  0  0  0
  -20.1175  -31.2101   22.4140 C   0  0  0  0  0  0  0  0  0  0  0  0
  -25.2960  -27.0361   21.1453 C   0  0  0  0  0  0  0  0  0  0  0  0
  -31.1888  -27.0772   19.4587 C   0  0  0  0  0  0  0  0  0  0  0  0
  -26.2684  -13.5726   20.3684 C   0  0  0  0  0  0  0  0  0  0  0  0
  -27.0929  -27.8083   19.7014 C   0  0  0  0  0  0  0  0  0  0  0  0
  -25.0258  -11.9374   21.5103 C   0  0  0  0  0  0  0  0  0  0  0  0
  -23.4081  -11.2345   23.6717 C   0  0  0  0  0  0  0  0  0  0  0  0
  -23.7357  -11.4557   21.2883 C   0  0  0  0  0  0  0  0  0  0  0  0
  -27.6320  -17.5715   20.1505 C   0  0  0  0  0  0  0  0  0  0  0  0
  -31.3176  -27.0169   18.0860 C   0  0  0  0  0  0  0  0  0  0  0  0
  -31.5263  -25.9263   20.1411 C   0  0  0  0  0  0  0  0  0  0  0  0
  -28.4511  -19.5580   20.6174 C   0  0  0  0  0  0  0  0  0  0  0  0
  -32.0407  -24.8648   18.1980 C   0  0  0  0  0  0  0  0  0  0  0  0
  -28.3785  -18.0034   22.5735 C   0  0  0  0  0  0  0  0  0  0  0  0
  -22.5484  -28.4338   22.6032 C   0  0  0  0  0  0  0  0  0  0  0  0
  -22.8865  -25.3661   23.6018 C   0  0  0  0  0  0  0  0  0  0  0  0
  -24.7122  -22.4834   23.5391 C   0  0  0  0  0  0  0  0  0  0  0  0
  -30.5596  -22.5602   16.4120 C   0  0  0  0  0  0  0  0  0  0  0  0
  -18.4070  -30.9044   24.2772 C   0  0  0  0  0  0  0  0  0  0  0  0
  -22.8885  -27.2272   20.4159 C   0  0  0  0  0  0  0  0  0  0  0  0
  -24.8751  -26.4021   22.4450 C   0  0  0  0  0  0  0  0  0  0  0  0
  -19.3365  -29.8293   24.8343 C   0  0  0  0  0  0  0  0  0  0  0  0
  -27.2066  -21.4102   16.0780 C   0  0  0  0  0  0  0  0  0  0  0  0
  -20.7946  -30.2423   24.6613 C   0  0  0  0  0  0  0  0  0  0  0  0
  -31.6269  -28.3654   15.9043 C   0  0  0  0  0  0  0  0  0  0  0  0
  -32.0228  -29.2680   17.0307 C   0  0  0  0  0  0  0  0  0  0  0  0
  -27.0645  -20.3691   17.1896 C   0  0  0  0  0  0  0  0  0  0  0  0
  -28.6006  -21.3841   15.4551 C   0  0  0  0  0  0  0  0  0  0  0  0
  -29.5692  -20.4702   17.5288 C   0  0  0  0  0  0  0  0  0  0  0  0
  -21.1487  -30.4088   23.1786 C   0  0  1  0  0  0  0  0  0  0  0  0
  -30.9767  -28.2092   17.2524 C   0  0  0  0  0  0  0  0  0  0  0  0
  -22.5262  -27.1098   21.8932 C   0  0  1  0  0  0  0  0  0  0  0  0
  -28.1979  -20.4964   18.2253 C   0  0  2  0  0  0  0  0  0  0  0  0
  -31.4277  -25.8725   21.6304 C   0  0  0  0  0  0  0  0  0  0  0  0
  -24.7576  -20.1595   24.4850 C   0  0  0  0  0  0  0  0  0  0  0  0
  -23.8633  -26.4746   26.2715 C   0  0  0  0  0  0  0  0  0  0  0  0
  -24.7714  -24.2028   26.8031 C   0  0  0  0  0  0  0  0  0  0  0  0
  -22.3208  -24.5148   26.4572 C   0  0  0  0  0  0  0  0  0  0  0  0
  -24.5226  -21.2605   20.8507 C   0  0  0  0  0  0  0  0  0  0  0  0
  -30.7099  -28.3191   20.1704 C   0  0  0  0  0  0  0  0  0  0  0  0
  -32.5145  -23.6364   17.4980 C   0  0  0  0  0  0  0  0  0  0  0  0
  -29.2538  -28.2105   20.6096 C   0  0  0  0  0  0  0  0  0  1  0  0
  -23.8774  -24.6269   24.4681 C   0  0  1  0  0  0  0  0  0  0  0  0
  -24.3034  -21.0367   23.3287 C   0  0  2  0  0  0  0  0  0  0  0  0
  -23.7164  -24.9685   25.9764 C   0  0  0  0  0  0  0  0  0  0  0  0
  -27.5834  -18.2343   18.9919 N   0  0  0  0  0  0  0  0  0  0  0  0
  -31.7421  -25.9229   17.4203 N   0  0  0  0  0  0  0  0  0  0  0  0
  -31.9574  -24.7977   19.5404 N   0  0  0  0  0  0  0  0  0  0  0  0
  -28.0880  -19.4390   19.3082 N   0  0  0  0  0  0  0  0  0  0  0  0
  -23.4258  -26.2169   22.6265 N   0  0  0  0  0  0  0  0  0  0  0  0
  -29.6295  -21.5106   16.4902 N   0  0  0  0  0  0  0  0  0  0  0  0
  -28.9764  -20.7024   21.1041 N   0  0  0  0  0  0  0  0  0  0  0  0
  -28.0272  -16.7164   23.0034 N   0  0  0  0  0  0  0  0  0  0  0  0
  -21.3478  -29.1165   22.5583 N   0  0  0  0  0  0  0  0  0  0  0  0
  -23.7163  -23.2110   24.1556 N   0  0  0  0  0  0  0  0  0  0  0  0
  -31.4967  -22.6111   17.4366 N   0  0  0  0  0  0  0  0  0  0  0  0
  -24.9042  -20.5061   22.0723 N   0  3  0  0  0  0  0  0  0  0  0  0
  -28.8522  -18.8189   23.4006 O   0  0  0  0  0  0  0  0  0  0  0  0
  -23.5781  -28.8077   23.1524 O   0  0  0  0  0  0  0  0  0  0  0  0
  -21.6786  -25.1895   23.7789 O   0  0  0  0  0  0  0  0  0  0  0  0
  -25.8069  -22.9232   23.1945 O   0  0  0  0  0  0  0  0  0  0  0  0
  -30.5519  -23.3937   15.4997 O   0  0  0  0  0  0  0  0  0  0  0  0
  -25.8303  -12.2859   20.4384 O   0  0  0  0  0  0  0  0  0  0  0  0
  -28.4221  -27.9879   19.4716 O   0  0  0  0  0  0  0  0  0  1  0  0
  -22.6320  -10.8956   24.7096 F   0  0  0  0  0  0  0  0  0  0  0  0
  -23.2682  -11.3273   20.0390 F   0  0  0  0  0  0  0  0  0  0  0  0
  1  2  1  0  0  0  0
  1  5  2  0  0  0  0
  2  6  2  0  0  0  0
  3  8  2  0  0  0  0
  3 15  1  0  0  0  0
  4  9  1  0  0  0  0
  4 15  2  0  0  0  0
  5 17  1  0  0  0  0
  6 19  1  0  0  0  0
  7 10  2  0  0  0  0
  7 18  1  0  0  0  0
  8 22  1  0  0  0  0
  9 22  2  0  0  0  0
 10 23  1  0  0  0  0
 11 12  2  0  0  0  0
 11 24  1  0  0  0  0
 12 25  1  0  0  0  0
 13 20  1  0  0  0  0
 13 23  2  0  0  0  0
 14 25  2  0  0  0  0
 14 26  1  0  0  0  0
 15 27  1  0  0  0  0
 16 27  1  0  0  0  0
 16 30  2  0  0  0  0
 16 32  1  0  0  0  0
 17 19  2  0  0  0  0
 17 37  1  0  0  0  0
 18 20  2  0  0  0  0
 18 38  1  0  0  0  0
 19 48  1  0  0  0  0
 20 39  1  0  0  0  0
 21 28  2  0  0  0  0
 21 29  1  0  0  0  0
 21 58  1  0  0  0  0
 22 81  1  0  0  0  0
 23 82  1  0  0  0  0
 24 26  2  0  0  0  0
 24 81  1  0  0  0  0
 25 83  1  0  0  0  0
 26 84  1  0  0  0  0
 27 64  2  0  0  0  0
 28 49  1  0  0  0  0
 28 65  1  0  0  0  0
 29 52  1  0  0  0  0
 29 66  2  0  0  0  0
 30 67  1  0  0  0  0
 30 70  1  0  0  0  0
 31 59  1  0  0  0  0
 31 65  2  0  0  0  0
 31 66  1  0  0  0  0
 32 71  1  0  0  0  0
 32 76  2  0  0  0  0
 33 50  1  0  0  0  0
 33 72  1  0  0  0  0
 33 77  2  0  0  0  0
 34 61  1  0  0  0  0
 34 68  1  0  0  0  0
 34 78  2  0  0  0  0
 35 62  1  0  0  0  0
 35 73  1  0  0  0  0
 35 79  2  0  0  0  0
 36 69  1  0  0  0  0
 36 74  1  0  0  0  0
 36 80  2  0  0  0  0
 37 40  1  0  0  0  0
 38 50  1  0  0  0  0
 39 68  1  0  0  0  0
 40 42  1  0  0  0  0
 41 45  1  0  0  0  0
 41 46  1  0  0  0  0
 42 48  1  0  0  0  0
 43 44  1  0  0  0  0
 43 49  1  0  0  0  0
 44 49  1  0  0  0  0
 45 51  1  0  0  0  0
 46 69  1  0  0  0  0
 47 51  1  0  0  0  0
 47 69  1  0  0  0  0
 48 72  1  0  0  0  0
 50 68  1  0  0  0  0
 51 67  1  0  0  0  0
 53 62  1  0  0  0  0
 54 63  1  0  0  0  0
 55 63  1  0  0  0  0
 56 63  1  0  0  0  0
 57 75  1  0  0  0  0
 58 60  1  0  0  0  0
 59 74  1  0  0  0  0
 60 82  1  0  0  0  0
 61 63  1  0  0  0  0
 61 73  1  0  0  0  0
 62 75  1  0  0  0  0
 64 67  1  0  0  0  0
M  CHG  1  75   1
M  ISO  4  36 100  60 101  74 100  82 101
M  END
> <Batch ID>
0185

> <Smiles>
CNC(C)C(=O)NC(C(=O)N1Cc2cc([101O:1][101CH2:1]Cc3c(C)nc(C[100NH:0][100C:0](=O)N4CCCC(n5nc(-c6ccc(Oc7ccc(F)cc7F)cc6)c(C(N)=O)c5N)C4)nc3C3CC3)ccc2CC1C(=O)NC1CCCc2ccccc21)C(C)(C)C

> <Shape>
0.193

> <Color>
0.071

> <Negative vol penalty>
0.000

$$$$

  -OEChem-04052323123D

 83 92  0     1  0  0  0  0  0999 V2000
  -20.1511  -31.6451   17.2096 C   0  0  0  0  0  0  0  0  0  0  0  0
  -21.4733  -31.3073   17.4802 C   0  0  0  0  0  0  0  0  0  0  0  0
  -26.1143  -12.8608   21.7769 C   0  0  0  0  0  0  0  0  0  0  0  0
  -26.0266  -13.4671   19.4399 C   0  0  0  0  0  0  0  0  0  0  0  0
  -19.3397  -32.1488   18.2254 C   0  0  0  0  0  0  0  0  0  0  0  0
  -21.9850  -31.4739   18.7666 C   0  0  0  0  0  0  0  0  0  0  0  0
  -24.7016  -27.4879   20.3083 C   0  0  0  0  0  0  0  0  0  0  0  0
  -24.9425  -12.1188   21.6284 C   0  0  0  0  0  0  0  0  0  0  0  0
  -24.8549  -12.7251   19.2913 C   0  0  0  0  0  0  0  0  0  0  0  0
  -26.0003  -27.3730   19.8143 C   0  0  0  0  0  0  0  0  0  0  0  0
  -24.0474   -9.0929   20.4138 C   0  0  0  0  0  0  0  0  0  0  0  0
  -24.0081   -7.8218   20.9867 C   0  0  0  0  0  0  0  0  0  0  0  0
  -26.8586  -28.2870   21.8752 C   0  0  0  0  0  0  0  0  0  0  0  0
  -22.1331   -8.4958   22.3533 C   0  0  0  0  0  0  0  0  0  0  0  0
  -26.6563  -13.5350   20.6827 C   0  0  0  0  0  0  0  0  0  0  0  0
  -29.1881  -13.8474   20.6679 C   0  0  0  0  0  0  0  0  0  0  0  0
  -19.8390  -32.3127   19.5271 C   0  0  0  0  0  0  0  0  0  0  0  0
  -24.4706  -28.0142   21.5873 C   0  0  0  0  0  0  0  0  0  0  0  0
  -21.1799  -31.9816   19.8004 C   0  0  0  0  0  0  0  0  0  0  0  0
  -25.5562  -28.4051   22.3840 C   0  0  0  0  0  0  0  0  0  0  0  0
  -24.3129  -12.0509   20.3856 C   0  0  0  0  0  0  0  0  0  0  0  0
  -27.0788  -27.7752   20.5966 C   0  0  0  0  0  0  0  0  0  0  0  0
  -23.1297  -10.0655   20.8106 C   0  0  0  0  0  0  0  0  0  0  0  0
  -23.0509   -7.5232   21.9565 C   0  0  0  0  0  0  0  0  0  0  0  0
  -22.1725   -9.7670   21.7803 C   0  0  0  0  0  0  0  0  0  0  0  0
  -27.8664  -14.3021   20.8356 C   0  0  0  0  0  0  0  0  0  0  0  0
  -29.9657  -14.9502   20.9240 C   0  0  0  0  0  0  0  0  0  0  0  0
  -29.8930  -25.2448   18.5562 C   0  0  0  0  0  0  0  0  0  0  0  0
  -29.4981  -24.0731   18.0311 C   0  0  0  0  0  0  0  0  0  0  0  0
  -29.4445  -23.0590   20.0783 C   0  0  0  0  0  0  0  0  0  0  0  0
  -29.8904  -24.3239   20.7697 C   0  0  0  0  0  0  0  0  0  0  0  0
  -29.6698  -12.5446   20.3123 C   0  0  0  0  0  0  0  0  0  0  0  0
  -22.9267  -30.5494   22.7245 C   0  0  0  0  0  0  0  0  0  0  0  0
  -23.6336  -29.2070   25.5917 C   0  0  0  0  0  0  0  0  0  0  0  0
  -25.6542  -27.1365   27.4019 C   0  0  0  0  0  0  0  0  0  0  0  0
  -28.8741  -20.7286   20.4574 C   0  0  0  0  0  0  0  0  0  0  0  0
  -18.9375  -32.9052   20.5811 C   0  0  0  0  0  0  0  0  0  0  0  0
  -23.0655  -28.1068   22.1160 C   0  0  0  0  0  0  0  0  0  0  0  0
  -25.3631  -28.9577   23.7718 C   0  0  0  0  0  0  0  0  0  0  0  0
  -19.4481  -32.6995   22.0050 C   0  0  0  0  0  0  0  0  0  0  0  0
  -29.9788  -19.0197   23.4463 C   0  0  0  0  0  0  0  0  0  0  0  0
  -20.9321  -33.0407   22.0944 C   0  0  0  0  0  0  0  0  0  0  0  0
  -27.9426  -23.3670   16.1375 C   0  0  0  0  0  0  0  0  0  0  0  0
  -28.3202  -24.7973   15.8887 C   0  0  0  0  0  0  0  0  0  0  0  0
  -29.6869  -17.5611   23.0879 C   0  0  0  0  0  0  0  0  0  0  0  0
  -28.8954  -19.9482   22.9058 C   0  0  0  0  0  0  0  0  0  0  0  0
  -28.3720  -18.3820   21.0781 C   0  0  0  0  0  0  0  0  0  0  0  0
  -21.7643  -32.1248   21.1889 C   0  0  1  0  0  0  0  0  0  0  0  0
  -29.2720  -23.8794   16.5799 C   0  0  0  0  0  0  0  0  0  0  0  0
  -22.9136  -29.1353   23.2324 C   0  0  1  0  0  0  0  0  0  0  0  0
  -29.4412  -17.3927   21.5766 C   0  0  2  0  0  0  0  0  0  0  0  0
  -26.0068  -26.2693   29.7302 C   0  0  0  0  0  0  0  0  0  0  0  0
  -24.8677  -31.8787   26.3972 C   0  0  0  0  0  0  0  0  0  0  0  0
  -26.0134  -30.7006   28.2862 C   0  0  0  0  0  0  0  0  0  0  0  0
  -23.5216  -30.7688   28.1891 C   0  0  0  0  0  0  0  0  0  0  0  0
  -25.2042  -24.3375   26.5521 C   0  0  0  0  0  0  0  0  0  0  0  0
  -30.5251  -26.6894   20.4109 C   0  0  0  0  0  0  0  0  0  0  0  0
  -29.3860  -27.4459   21.0705 C   0  0  0  0  0  0  0  0  0  1  0  0
  -24.7858  -29.3034   26.5622 C   0  0  1  0  0  0  0  0  0  0  0  0
  -25.3354  -26.0267   28.3874 C   0  0  2  0  0  0  0  0  0  0  0  0
  -24.8010  -30.6543   27.3318 C   0  0  0  0  0  0  0  0  0  0  0  0
  -27.8041  -15.5931   21.1723 N   0  0  0  0  0  0  0  0  0  0  0  0
  -29.2650  -22.9562   18.8011 N   0  0  0  0  0  0  0  0  0  0  0  0
  -29.0964  -15.9591   21.2184 N   0  0  0  0  0  0  0  0  0  0  0  0
  -30.0993  -25.4078   19.9143 N   0  0  0  0  0  0  0  0  0  0  0  0
  -23.9699  -29.0343   24.2415 N   0  0  0  0  0  0  0  0  0  0  0  0
  -28.7301  -19.7524   21.4587 N   0  0  0  0  0  0  0  0  0  0  0  0
  -31.3014  -15.1457   20.9239 N   0  0  0  0  0  0  0  0  0  0  0  0
  -28.7348  -11.5259   20.0839 N   0  0  0  0  0  0  0  0  0  0  0  0
  -29.2362  -22.0007   20.9046 N   0  0  0  0  0  0  0  0  0  0  0  0
  -21.9343  -30.8256   21.8035 N   0  0  0  0  0  0  0  0  0  0  0  0
  -24.6956  -28.1275   27.4210 N   0  0  0  0  0  0  0  0  0  0  0  0
  -25.8030  -24.7142   27.8585 N   0  3  0  0  0  0  0  0  0  0  0  0
  -30.0300  -24.3106   21.9845 O   0  0  0  0  0  0  0  0  0  0  0  0
  -30.8938  -12.2873   20.2166 O   0  0  0  0  0  0  0  0  0  0  0  0
  -23.7735  -31.3324   23.1387 O   0  0  0  0  0  0  0  0  0  0  0  0
  -22.4775  -29.2750   26.0167 O   0  0  0  0  0  0  0  0  0  0  0  0
  -26.6555  -27.1272   26.6893 O   0  0  0  0  0  0  0  0  0  0  0  0
  -28.7173  -20.4817   19.2568 O   0  0  0  0  0  0  0  0  0  0  0  0
  -23.1696  -11.3268   20.2402 O   0  0  0  0  0  0  0  0  0  0  0  0
  -28.3474  -27.6648   20.1166 O   0  0  0  0  0  0  0  0  0  1  0  0
  -23.0122   -6.3021   22.5055 F   0  0  0  0  0  0  0  0  0  0  0  0
  -21.2875  -10.6969   22.1647 F   0  0  0  0  0  0  0  0  0  0  0  0
  1  2  1  0  0  0  0
  1  5  2  0  0  0  0
  2  6  2  0  0  0  0
  3  8  2  0  0  0  0
  3 15  1  0  0  0  0
  4  9  1  0  0  0  0
  4 15  2  0  0  0  0
  5 17  1  0  0  0  0
  6 19  1  0  0  0  0
  7 10  2  0  0  0  0
  7 18  1  0  0  0  0
  8 21  1  0  0  0  0
  9 21  2  0  0  0  0
 10 22  1  0  0  0  0
 11 12  2  0  0  0  0
 11 23  1  0  0  0  0
 12 24  1  0  0  0  0
 13 20  1  0  0  0  0
 13 22  2  0  0  0  0
 14 24  2  0  0  0  0
 14 25  1  0  0  0  0
 15 26  1  0  0  0  0
 16 26  1  0  0  0  0
 16 27  2  0  0  0  0
 16 32  1  0  0  0  0
 17 19  2  0  0  0  0
 17 37  1  0  0  0  0
 18 20  2  0  0  0  0
 18 38  1  0  0  0  0
 19 48  1  0  0  0  0
 20 39  1  0  0  0  0
 21 80  1  0  0  0  0
 22 81  1  0  0  0  0
 23 25  2  0  0  0  0
 23 80  1  0  0  0  0
 24 82  1  0  0  0  0
 25 83  1  0  0  0  0
 26 62  2  0  0  0  0
 27 64  1  0  0  0  0
 27 68  1  0  0  0  0
 28 29  2  0  0  0  0
 28 65  1  0  0  0  0
 29 49  1  0  0  0  0
 29 63  1  0  0  0  0
 30 31  1  0  0  0  0
 30 63  2  0  0  0  0
 30 70  1  0  0  0  0
 31 65  1  0  0  0  0
 31 74  2  0  0  0  0
 32 69  1  0  0  0  0
 32 75  2  0  0  0  0
 33 50  1  0  0  0  0
 33 71  1  0  0  0  0
 33 76  2  0  0  0  0
 34 59  1  0  0  0  0
 34 66  1  0  0  0  0
 34 77  2  0  0  0  0
 35 60  1  0  0  0  0
 35 72  1  0  0  0  0
 35 78  2  0  0  0  0
 36 67  1  0  0  0  0
 36 70  1  0  0  0  0
 36 79  2  0  0  0  0
 37 40  1  0  0  0  0
 38 50  1  0  0  0  0
 39 66  1  0  0  0  0
 40 42  1  0  0  0  0
 41 45  1  0  0  0  0
 41 46  1  0  0  0  0
 42 48  1  0  0  0  0
 43 44  1  0  0  0  0
 43 49  1  0  0  0  0
 44 49  1  0  0  0  0
 45 51  1  0  0  0  0
 46 67  1  0  0  0  0
 47 51  1  0  0  0  0
 47 67  1  0  0  0  0
 48 71  1  0  0  0  0
 50 66  1  0  0  0  0
 51 64  1  0  0  0  0
 52 60  1  0  0  0  0
 53 61  1  0  0  0  0
 54 61  1  0  0  0  0
 55 61  1  0  0  0  0
 56 73  1  0  0  0  0
 57 58  1  0  0  0  0
 57 65  1  0  0  0  0
 58 81  1  0  0  0  0
 59 61  1  0  0  0  0
 59 72  1  0  0  0  0
 60 73  1  0  0  0  0
 62 64  1  0  0  0  0
M  CHG  1  73   1
M  ISO  4  36 100  58 101  70 100  81 101
M  END
> <Batch ID>
0185

> <Smiles>
CNC(C)C(=O)NC(C(=O)N1Cc2cc([101O:1][101CH2:1]Cn3cc(C4CC4)nc([100NH:0][100C:0](=O)N4CCCC(n5nc(-c6ccc(Oc7ccc(F)cc7F)cc6)c(C(N)=O)c5N)C4)c3=O)ccc2CC1C(=O)NC1CCCc2ccccc21)C(C)(C)C

> <Shape>
0.278

> <Color>
0.087

> <Negative vol penalty>
0.000

$$$$

  -OEChem-04052323123D

 85 95  0     1  0  0  0  0  0999 V2000
  -28.1105  -36.2087   17.1998 C   0  0  0  0  0  0  0  0  0  0  0  0
  -28.1748  -34.8236   17.0868 C   0  0  0  0  0  0  0  0  0  0  0  0
  -24.1429  -11.5149   19.4495 C   0  0  0  0  0  0  0  0  0  0  0  0
  -24.4812  -10.3174   21.5203 C   0  0  0  0  0  0  0  0  0  0  0  0
  -27.9816  -36.7992   18.4562 C   0  0  0  0  0  0  0  0  0  0  0  0
  -28.1112  -34.0282   18.2304 C   0  0  0  0  0  0  0  0  0  0  0  0
  -25.5037  -28.5100   18.7364 C   0  0  0  0  0  0  0  0  0  0  0  0
  -23.6520  -10.3516   18.8569 C   0  0  0  0  0  0  0  0  0  0  0  0
  -23.9902   -9.1540   20.9278 C   0  0  0  0  0  0  0  0  0  0  0  0
  -26.0278  -27.2184   18.7050 C   0  0  0  0  0  0  0  0  0  0  0  0
  -20.9769   -7.8418   20.1412 C   0  0  0  0  0  0  0  0  0  0  0  0
  -20.0622   -7.0815   20.8698 C   0  0  0  0  0  0  0  0  0  0  0  0
  -26.1102  -27.1996   21.1158 C   0  0  0  0  0  0  0  0  0  0  0  0
  -21.5716   -5.1964   20.7976 C   0  0  0  0  0  0  0  0  0  0  0  0
  -24.5575  -11.4978   20.7812 C   0  0  0  0  0  0  0  0  0  0  0  0
  -24.3265  -13.6801   22.0819 C   0  0  0  0  0  0  0  0  0  0  0  0
  -27.9067  -36.0103   19.6149 C   0  0  0  0  0  0  0  0  0  0  0  0
  -25.2887  -29.1613   19.9596 C   0  0  0  0  0  0  0  0  0  0  0  0
  -27.9825  -34.6088   19.5036 C   0  0  0  0  0  0  0  0  0  0  0  0
  -25.5808  -28.4984   21.1602 C   0  0  0  0  0  0  0  0  0  0  0  0
  -23.5756   -9.1711   19.5960 C   0  0  0  0  0  0  0  0  0  0  0  0
  -26.3339  -26.5641   19.8946 C   0  0  0  0  0  0  0  0  0  0  0  0
  -22.1889   -7.2794   19.7408 C   0  0  0  0  0  0  0  0  0  0  0  0
  -20.3595   -5.7588   21.1980 C   0  0  0  0  0  0  0  0  0  0  0  0
  -22.4863   -5.9567   20.0690 C   0  0  0  0  0  0  0  0  0  0  0  0
  -25.0653  -12.6991   21.3937 C   0  0  0  0  0  0  0  0  0  0  0  0
  -25.2630  -14.6082   22.4667 C   0  0  0  0  0  0  0  0  0  0  0  0
  -27.2794  -21.0997   18.7367 C   0  0  0  0  0  0  0  0  0  0  0  0
  -27.5841  -23.3230   18.7636 C   0  0  0  0  0  0  0  0  0  0  0  0
  -29.2884  -21.9508   19.2628 C   0  0  0  0  0  0  0  0  0  0  0  0
  -22.9195  -13.7464   22.3496 C   0  0  0  0  0  0  0  0  0  0  0  0
  -26.4192  -31.7996   21.3251 C   0  0  0  0  0  0  0  0  0  0  0  0
  -24.2008  -31.1106   23.5892 C   0  0  0  0  0  0  0  0  0  0  0  0
  -22.2559  -28.7604   25.1192 C   0  0  0  0  0  0  0  0  0  0  0  0
  -29.5379  -17.8149   21.1271 C   0  0  0  0  0  0  0  0  0  0  0  0
  -27.8151  -36.6958   20.9552 C   0  0  0  0  0  0  0  0  0  0  0  0
  -24.6977  -30.5443   19.9773 C   0  0  0  0  0  0  0  0  0  0  0  0
  -25.3496  -29.1460   22.5001 C   0  0  0  0  0  0  0  0  0  0  0  0
  -27.3777  -35.7676   22.0855 C   0  0  0  0  0  0  0  0  0  0  0  0
  -30.3005  -14.4406   22.4097 C   0  0  0  0  0  0  0  0  0  0  0  0
  -28.1568  -34.4573   22.0319 C   0  0  0  0  0  0  0  0  0  0  0  0
  -26.8115  -18.8583   17.5405 C   0  0  0  0  0  0  0  0  0  0  0  0
  -25.6742  -19.7725   17.2070 C   0  0  0  0  0  0  0  0  0  0  0  0
  -28.9445  -13.7569   22.2610 C   0  0  0  0  0  0  0  0  0  0  0  0
  -32.4258  -20.2713   20.6928 C   0  0  0  0  0  0  0  0  0  0  0  0
  -30.5512  -15.4639   21.3028 C   0  0  0  0  0  0  0  0  0  0  0  0
  -28.1103  -15.7962   21.0280 C   0  0  0  0  0  0  0  0  0  0  0  0
  -27.8919  -33.7112   20.7186 C   0  0  1  0  0  0  0  0  0  0  0  0
  -26.3919  -19.9199   18.5228 C   0  0  0  0  0  0  0  0  0  0  0  0
  -25.0010  -31.3072   21.2631 C   0  0  1  0  0  0  0  0  0  0  0  0
  -27.8199  -14.7987   22.1599 C   0  0  1  0  0  0  0  0  0  0  0  0
  -31.2138  -20.4676   19.8274 C   0  0  1  0  0  0  0  0  0  0  0  0
  -31.0922  -19.7426   21.1434 C   0  0  1  0  0  0  0  0  0  0  0  0
  -20.5735  -28.4917   26.9616 C   0  0  0  0  0  0  0  0  0  0  0  0
  -26.4405  -31.2740   25.6549 C   0  0  0  0  0  0  0  0  0  0  0  0
  -24.9399  -30.0913   27.2728 C   0  0  0  0  0  0  0  0  0  0  0  0
  -24.2847  -32.3219   26.3684 C   0  0  0  0  0  0  0  0  0  0  0  0
  -20.1680  -27.8375   23.2355 C   0  0  0  0  0  0  0  0  0  0  0  0
  -27.0446  -24.7115   18.5837 C   0  0  0  0  0  0  0  0  0  1  0  0
  -24.1874  -30.2954   24.8597 C   0  0  1  0  0  0  0  0  0  0  0  0
  -20.7808  -28.7518   25.4777 C   0  0  2  0  0  0  0  0  0  0  0  0
  -24.9694  -30.9839   26.0138 C   0  0  0  0  0  0  0  0  0  0  0  0
  -26.3705  -12.9781   21.3424 N   0  0  0  0  0  0  0  0  0  0  0  0
  -26.7273  -22.3105   18.5557 N   0  0  0  0  0  0  0  0  0  0  0  0
  -28.5495  -20.8431   19.0893 N   0  0  0  0  0  0  0  0  0  0  0  0
  -28.8751  -23.2201   19.1181 N   0  0  0  0  0  0  0  0  0  0  0  0
  -26.4591  -14.1450   22.0033 N   0  0  0  0  0  0  0  0  0  0  0  0
  -24.7759  -30.5014   22.4649 N   0  0  0  0  0  0  0  0  0  0  0  0
  -29.4337  -16.4132   21.1802 N   0  0  0  0  0  0  0  0  0  0  0  0
  -25.1717  -15.7673   23.1527 N   0  0  0  0  0  0  0  0  0  0  0  0
  -22.1009  -12.7090   21.8825 N   0  0  0  0  0  0  0  0  0  0  0  0
  -30.6368  -21.7613   19.6354 N   0  0  0  0  0  0  0  0  0  0  0  0
  -26.6061  -33.0486   20.7643 N   0  0  0  0  0  0  0  0  0  0  0  0
  -22.7844  -30.0333   25.1618 N   0  0  0  0  0  0  0  0  0  0  0  0
  -30.8279  -18.3294   21.1924 N   0  0  0  0  0  0  0  0  0  0  0  0
  -20.0674  -27.6919   24.7105 N   0  3  0  0  0  0  0  0  0  0  0  0
  -22.4011  -14.7056   22.9699 O   0  0  0  0  0  0  0  0  0  0  0  0
  -27.2799  -31.0989   21.8446 O   0  0  0  0  0  0  0  0  0  0  0  0
  -23.7123  -32.2433   23.5922 O   0  0  0  0  0  0  0  0  0  0  0  0
  -22.8780  -27.7396   24.8338 O   0  0  0  0  0  0  0  0  0  0  0  0
  -28.5544  -18.5562   21.0232 O   0  0  0  0  0  0  0  0  0  0  0  0
  -23.0964   -8.0358   19.0181 O   0  0  0  0  0  0  0  0  0  0  0  0
  -26.8462  -25.3037   19.8668 O   0  0  0  0  0  0  0  0  0  1  0  0
  -19.4817   -5.0293   21.8990 F   0  0  0  0  0  0  0  0  0  0  0  0
  -23.6496   -5.4113   19.6881 F   0  0  0  0  0  0  0  0  0  0  0  0
  1  2  1  0  0  0  0
  1  5  2  0  0  0  0
  2  6  2  0  0  0  0
  3  8  2  0  0  0  0
  3 15  1  0  0  0  0
  4  9  1  0  0  0  0
  4 15  2  0  0  0  0
  5 17  1  0  0  0  0
  6 19  1  0  0  0  0
  7 10  2  0  0  0  0
  7 18  1  0  0  0  0
  8 21  1  0  0  0  0
  9 21  2  0  0  0  0
 10 22  1  0  0  0  0
 11 12  2  0  0  0  0
 11 23  1  0  0  0  0
 12 24  1  0  0  0  0
 13 20  1  0  0  0  0
 13 22  2  0  0  0  0
 14 24  2  0  0  0  0
 14 25  1  0  0  0  0
 15 26  1  0  0  0  0
 16 26  1  0  0  0  0
 16 27  2  0  0  0  0
 16 31  1  0  0  0  0
 17 19  2  0  0  0  0
 17 36  1  0  0  0  0
 18 20  2  0  0  0  0
 18 37  1  0  0  0  0
 19 48  1  0  0  0  0
 20 38  1  0  0  0  0
 21 82  1  0  0  0  0
 22 83  1  0  0  0  0
 23 25  2  0  0  0  0
 23 82  1  0  0  0  0
 24 84  1  0  0  0  0
 25 85  1  0  0  0  0
 26 63  2  0  0  0  0
 27 67  1  0  0  0  0
 27 70  1  0  0  0  0
 28 49  1  0  0  0  0
 28 64  1  0  0  0  0
 28 65  2  0  0  0  0
 29 59  1  0  0  0  0
 29 64  2  0  0  0  0
 29 66  1  0  0  0  0
 30 65  1  0  0  0  0
 30 66  2  0  0  0  0
 30 72  1  0  0  0  0
 31 71  1  0  0  0  0
 31 77  2  0  0  0  0
 32 50  1  0  0  0  0
 32 73  1  0  0  0  0
 32 78  2  0  0  0  0
 33 60  1  0  0  0  0
 33 68  1  0  0  0  0
 33 79  2  0  0  0  0
 34 61  1  0  0  0  0
 34 74  1  0  0  0  0
 34 80  2  0  0  0  0
 35 69  1  0  0  0  0
 35 75  1  0  0  0  0
 35 81  2  0  0  0  0
 36 39  1  0  0  0  0
 37 50  1  0  0  0  0
 38 68  1  0  0  0  0
 39 41  1  0  0  0  0
 40 44  1  0  0  0  0
 40 46  1  0  0  0  0
 41 48  1  0  0  0  0
 42 43  1  0  0  0  0
 42 49  1  0  0  0  0
 43 49  1  0  0  0  0
 44 51  1  0  0  0  0
 45 52  1  0  0  0  0
 45 53  1  0  0  0  0
 46 69  1  0  0  0  0
 47 51  1  0  0  0  0
 47 69  1  0  0  0  0
 48 73  1  0  0  0  0
 50 68  1  0  0  0  0
 51 67  1  0  0  0  0
 52 53  1  0  0  0  0
 52 72  1  0  0  0  0
 53 75  1  0  0  0  0
 54 61  1  0  0  0  0
 55 62  1  0  0  0  0
 56 62  1  0  0  0  0
 57 62  1  0  0  0  0
 58 76  1  0  0  0  0
 59 83  1  0  0  0  0
 60 62  1  0  0  0  0
 60 74  1  0  0  0  0
 61 76  1  0  0  0  0
 63 67  1  0  0  0  0
M  CHG  1  76   1
M  ISO  4  35 100  59 101  75 100  83 101
M  END
> <Batch ID>
0185

> <Smiles>
CNC(C)C(=O)NC(C(=O)N1Cc2cc([101O:1][101CH2:1]c3nc(NC4CC4[100NH:0][100C:0](=O)N4CCCC(n5nc(-c6ccc(Oc7ccc(F)cc7F)cc6)c(C(N)=O)c5N)C4)nc(C4CC4)n3)ccc2CC1C(=O)NC1CCCc2ccccc21)C(C)(C)C

> <Shape>
0.238

> <Color>
0.092

> <Negative vol penalty>
0.000

$$$$

  -OEChem-04052323123D

 84 93  0     1  0  0  0  0  0999 V2000
  -26.5525  -38.3705   22.7026 C   0  0  0  0  0  0  0  0  0  0  0  0
  -27.2036  -37.4272   21.9140 C   0  0  0  0  0  0  0  0  0  0  0  0
  -24.5089  -10.1011   23.2092 C   0  0  0  0  0  0  0  0  0  0  0  0
  -24.4564   -8.5921   21.3231 C   0  0  0  0  0  0  0  0  0  0  0  0
  -25.8116  -37.9597   23.8099 C   0  0  0  0  0  0  0  0  0  0  0  0
  -27.1151  -36.0727   22.2331 C   0  0  0  0  0  0  0  0  0  0  0  0
  -26.9423  -29.6099   19.1477 C   0  0  0  0  0  0  0  0  0  0  0  0
  -23.3583   -9.5013   23.7211 C   0  0  0  0  0  0  0  0  0  0  0  0
  -23.3057   -7.9924   21.8350 C   0  0  0  0  0  0  0  0  0  0  0  0
  -27.5756  -28.3694   19.2099 C   0  0  0  0  0  0  0  0  0  0  0  0
  -22.5285   -5.7388   24.2304 C   0  0  0  0  0  0  0  0  0  0  0  0
  -22.4702   -4.3452   24.2283 C   0  0  0  0  0  0  0  0  0  0  0  0
  -30.2258  -24.3255   20.5266 C   0  0  0  0  0  0  0  0  0  0  0  0
  -30.6923  -23.0300   20.6636 C   0  0  0  0  0  0  0  0  0  0  0  0
  -26.2023  -27.7699   21.1004 C   0  0  0  0  0  0  0  0  0  0  0  0
  -20.5038   -4.4296   22.8272 C   0  0  0  0  0  0  0  0  0  0  0  0
  -25.0579   -9.6465   22.0101 C   0  0  0  0  0  0  0  0  0  0  0  0
  -27.5814   -9.9002   21.7357 C   0  0  0  0  0  0  0  0  0  0  0  0
  -25.7060  -36.5987   24.1371 C   0  0  0  0  0  0  0  0  0  0  0  0
  -25.9401  -29.9445   20.0697 C   0  0  0  0  0  0  0  0  0  0  0  0
  -26.3731  -35.6435   23.3467 C   0  0  0  0  0  0  0  0  0  0  0  0
  -25.5560  -29.0143   21.0461 C   0  0  0  0  0  0  0  0  0  0  0  0
  -22.7567   -8.4470   23.0340 C   0  0  0  0  0  0  0  0  0  0  0  0
  -27.2076  -27.4503   20.1882 C   0  0  0  0  0  0  0  0  0  0  0  0
  -21.5744   -6.4779   23.5309 C   0  0  0  0  0  0  0  0  0  0  0  0
  -21.4579   -3.6906   23.5267 C   0  0  0  0  0  0  0  0  0  0  0  0
  -20.5621   -5.8232   22.8293 C   0  0  0  0  0  0  0  0  0  0  0  0
  -26.2461  -10.2660   21.4806 C   0  0  0  0  0  0  0  0  0  0  0  0
  -29.3729  -24.5973   19.4758 C   0  0  0  0  0  0  0  0  0  0  0  0
  -30.2749  -22.0919   19.7409 C   0  0  0  0  0  0  0  0  0  0  0  0
  -28.3274  -10.7900   21.0020 C   0  0  0  0  0  0  0  0  0  0  0  0
  -28.1010   -8.8500   22.5620 C   0  0  0  0  0  0  0  0  0  0  0  0
  -25.5992  -32.1862   22.2973 C   0  0  0  0  0  0  0  0  0  0  0  0
  -22.6097  -30.9491   22.5307 C   0  0  0  0  0  0  0  0  0  0  0  0
  -20.5343  -28.2800   22.0665 C   0  0  0  0  0  0  0  0  0  0  0  0
  -29.5152  -15.7186   19.2404 C   0  0  0  0  0  0  0  0  0  0  0  0
  -24.9327  -36.2067   25.3712 C   0  0  0  0  0  0  0  0  0  0  0  0
  -25.2481  -31.2764   19.9724 C   0  0  0  0  0  0  0  0  0  0  0  0
  -24.4718  -29.3170   22.0467 C   0  0  0  0  0  0  0  0  0  0  0  0
  -24.5806  -34.7222   25.4234 C   0  0  0  0  0  0  0  0  0  0  0  0
  -26.9569  -14.1115   17.4512 C   0  0  0  0  0  0  0  0  0  0  0  0
  -25.7976  -33.8723   25.0722 C   0  0  0  0  0  0  0  0  0  0  0  0
  -26.6451  -12.9271   18.3655 C   0  0  0  0  0  0  0  0  0  0  0  0
  -28.9921  -19.1978   19.3396 C   0  0  0  0  0  0  0  0  0  0  0  0
  -31.4294  -18.6017   19.0715 C   0  0  0  0  0  0  0  0  0  0  0  0
  -27.2078  -15.3962   18.2429 C   0  0  0  0  0  0  0  0  0  0  0  0
  -28.6178  -17.9716   18.5018 C   0  0  0  0  0  0  0  0  0  0  0  0
  -31.0097  -17.4078   18.2185 C   0  0  0  0  0  0  0  0  0  0  0  0
  -27.9314  -14.0774   20.2064 C   0  0  0  0  0  0  0  0  0  0  0  0
  -26.2805  -34.1630   23.6461 C   0  0  1  0  0  0  0  0  0  0  0  0
  -24.5984  -31.7093   21.2831 C   0  0  1  0  0  0  0  0  0  0  0  0
  -27.7320  -12.7594   19.4423 C   0  0  1  0  0  0  0  0  0  0  0  0
  -30.3862  -19.7186   18.9825 C   0  0  0  0  0  0  0  0  0  0  0  0
  -18.1524  -27.5577   22.3860 C   0  0  0  0  0  0  0  0  0  0  0  0
  -23.1102  -30.6310   25.5238 C   0  0  0  0  0  0  0  0  0  0  0  0
  -21.1487  -29.0780   25.6160 C   0  0  0  0  0  0  0  0  0  0  0  0
  -20.8246  -31.4543   24.9300 C   0  0  0  0  0  0  0  0  0  0  0  0
  -20.1634  -27.8185   19.1667 C   0  0  0  0  0  0  0  0  0  0  0  0
  -28.8403  -25.9759   19.2846 C   0  0  0  0  0  0  0  0  0  1  0  0
  -21.9675  -29.8512   23.3439 C   0  0  1  0  0  0  0  0  0  0  0  0
  -19.1616  -28.1705   21.4275 C   0  0  2  0  0  0  0  0  0  0  0  0
  -21.7845  -30.2484   24.8359 C   0  0  0  0  0  0  0  0  0  0  0  0
  -26.1465  -11.3071   20.6498 N   0  0  0  0  0  0  0  0  0  0  0  0
  -28.9809  -23.6594   18.5875 N   0  0  0  0  0  0  0  0  0  0  0  0
  -29.4393  -22.3861   18.7225 N   0  0  0  0  0  0  0  0  0  0  0  0
  -27.4286  -11.6032   20.3766 N   0  0  0  0  0  0  0  0  0  0  0  0
  -23.8293  -30.6351   21.9146 N   0  0  0  0  0  0  0  0  0  0  0  0
  -28.2220  -15.1765   19.2834 N   0  0  0  0  0  0  0  0  0  0  0  0
  -29.6689  -16.9469   18.5803 N   0  0  0  0  0  0  0  0  0  0  0  0
  -29.6578  -10.9484   20.8373 N   0  0  0  0  0  0  0  0  0  0  0  0
  -27.1951   -8.0278   23.2460 N   0  0  0  0  0  0  0  0  0  0  0  0
  -30.7445  -20.7976   19.8766 N   0  0  0  0  0  0  0  0  0  0  0  0
  -25.4289  -33.5031   22.6798 N   0  0  0  0  0  0  0  0  0  0  0  0
  -20.7249  -29.5100   22.6597 N   0  0  0  0  0  0  0  0  0  0  0  0
  -19.2255  -27.3201   20.2054 N   0  3  0  0  0  0  0  0  0  0  0  0
  -29.3324   -8.6570   22.7030 O   0  0  0  0  0  0  0  0  0  0  0  0
  -26.4612  -31.4160   22.7040 O   0  0  0  0  0  0  0  0  0  0  0  0
  -22.0463  -32.0427   22.4396 O   0  0  0  0  0  0  0  0  0  0  0  0
  -21.3540  -27.3644   22.0449 O   0  0  0  0  0  0  0  0  0  0  0  0
  -30.4765  -15.1393   19.7613 O   0  0  0  0  0  0  0  0  0  0  0  0
  -21.6341   -7.8614   23.5333 O   0  0  0  0  0  0  0  0  0  0  0  0
  -27.8288  -26.2309   20.2520 O   0  0  0  0  0  0  0  0  0  1  0  0
  -21.4029   -2.3522   23.5235 F   0  0  0  0  0  0  0  0  0  0  0  0
  -19.6434   -6.5278   22.1545 F   0  0  0  0  0  0  0  0  0  0  0  0
  1  2  1  0  0  0  0
  1  5  2  0  0  0  0
  2  6  2  0  0  0  0
  3  8  2  0  0  0  0
  3 17  1  0  0  0  0
  4  9  1  0  0  0  0
  4 17  2  0  0  0  0
  5 19  1  0  0  0  0
  6 21  1  0  0  0  0
  7 10  2  0  0  0  0
  7 20  1  0  0  0  0
  8 23  1  0  0  0  0
  9 23  2  0  0  0  0
 10 24  1  0  0  0  0
 11 12  2  0  0  0  0
 11 25  1  0  0  0  0
 12 26  1  0  0  0  0
 13 14  2  0  0  0  0
 13 29  1  0  0  0  0
 14 30  1  0  0  0  0
 15 22  1  0  0  0  0
 15 24  2  0  0  0  0
 16 26  2  0  0  0  0
 16 27  1  0  0  0  0
 17 28  1  0  0  0  0
 18 28  1  0  0  0  0
 18 31  2  0  0  0  0
 18 32  1  0  0  0  0
 19 21  2  0  0  0  0
 19 37  1  0  0  0  0
 20 22  2  0  0  0  0
 20 38  1  0  0  0  0
 21 50  1  0  0  0  0
 22 39  1  0  0  0  0
 23 81  1  0  0  0  0
 24 82  1  0  0  0  0
 25 27  2  0  0  0  0
 25 81  1  0  0  0  0
 26 83  1  0  0  0  0
 27 84  1  0  0  0  0
 28 63  2  0  0  0  0
 29 59  1  0  0  0  0
 29 64  2  0  0  0  0
 30 65  2  0  0  0  0
 30 72  1  0  0  0  0
 31 66  1  0  0  0  0
 31 70  1  0  0  0  0
 32 71  1  0  0  0  0
 32 76  2  0  0  0  0
 33 51  1  0  0  0  0
 33 73  1  0  0  0  0
 33 77  2  0  0  0  0
 34 60  1  0  0  0  0
 34 67  1  0  0  0  0
 34 78  2  0  0  0  0
 35 61  1  0  0  0  0
 35 74  1  0  0  0  0
 35 79  2  0  0  0  0
 36 68  1  0  0  0  0
 36 69  1  0  0  0  0
 36 80  2  0  0  0  0
 37 40  1  0  0  0  0
 38 51  1  0  0  0  0
 39 67  1  0  0  0  0
 40 42  1  0  0  0  0
 41 43  1  0  0  0  0
 41 46  1  0  0  0  0
 42 50  1  0  0  0  0
 43 52  1  0  0  0  0
 44 47  1  0  0  0  0
 44 53  1  0  0  0  0
 45 48  1  0  0  0  0
 45 53  1  0  0  0  0
 46 68  1  0  0  0  0
 47 69  1  0  0  0  0
 48 69  1  0  0  0  0
 49 52  1  0  0  0  0
 49 68  1  0  0  0  0
 50 73  1  0  0  0  0
 51 67  1  0  0  0  0
 52 66  1  0  0  0  0
 53 72  1  0  0  0  0
 54 61  1  0  0  0  0
 55 62  1  0  0  0  0
 56 62  1  0  0  0  0
 57 62  1  0  0  0  0
 58 75  1  0  0  0  0
 59 82  1  0  0  0  0
 60 62  1  0  0  0  0
 60 74  1  0  0  0  0
 61 75  1  0  0  0  0
 63 66  1  0  0  0  0
 64 65  1  0  0  0  0
M  CHG  1  75   1
M  ISO  4  36 100  59 101  69 100  82 101
M  END
> <Batch ID>
0185

> <Smiles>
CNC(C)C(=O)NC(C(=O)N1Cc2cc([101O:1][101CH2:1]c3ccc(NC4CC[100N:0]([100C:0](=O)N5CCCC(n6nc(-c7ccc(Oc8ccc(F)cc8F)cc7)c(C(N)=O)c6N)C5)CC4)nn3)ccc2CC1C(=O)NC1CCCc2ccccc21)C(C)(C)C

> <Shape>
0.331

> <Color>
0.115

> <Negative vol penalty>
0.000

$$$$

  -OEChem-04052323123D

 80 88  0     1  0  0  0  0  0999 V2000
  -22.8785  -32.2265   14.1102 C   0  0  0  0  0  0  0  0  0  0  0  0
  -23.8060  -31.3769   14.7046 C   0  0  0  0  0  0  0  0  0  0  0  0
  -24.5641   -9.6226   20.3759 C   0  0  0  0  0  0  0  0  0  0  0  0
  -25.2505  -10.2211   22.6137 C   0  0  0  0  0  0  0  0  0  0  0  0
  -22.5942  -33.4619   14.6907 C   0  0  0  0  0  0  0  0  0  0  0  0
  -24.4506  -31.7626   15.8794 C   0  0  0  0  0  0  0  0  0  0  0  0
  -24.6181  -28.0451   19.3140 C   0  0  0  0  0  0  0  0  0  0  0  0
  -24.3609   -8.3063   20.7902 C   0  0  0  0  0  0  0  0  0  0  0  0
  -25.0473   -8.9048   23.0280 C   0  0  0  0  0  0  0  0  0  0  0  0
  -25.5735  -27.0472   19.1261 C   0  0  0  0  0  0  0  0  0  0  0  0
  -23.3160   -4.8686   21.3432 C   0  0  0  0  0  0  0  0  0  0  0  0
  -22.1466   -4.2314   20.9284 C   0  0  0  0  0  0  0  0  0  0  0  0
  -26.9989  -28.1136   20.7540 C   0  0  0  0  0  0  0  0  0  0  0  0
  -20.8296   -5.9192   22.0482 C   0  0  0  0  0  0  0  0  0  0  0  0
  -26.9963  -19.9975   20.4867 C   0  0  0  0  0  0  0  0  0  0  0  0
  -29.1906  -21.5180   20.4687 C   0  0  0  0  0  0  0  0  0  0  0  0
  -25.0089  -10.5800   21.2876 C   0  0  0  0  0  0  0  0  0  0  0  0
  -24.2805  -12.9885   20.8678 C   0  0  0  0  0  0  0  0  0  0  0  0
  -23.2285  -33.8588   15.8785 C   0  0  0  0  0  0  0  0  0  0  0  0
  -24.8511  -29.0924   20.2169 C   0  0  0  0  0  0  0  0  0  0  0  0
  -24.1754  -33.0050   16.4757 C   0  0  0  0  0  0  0  0  0  0  0  0
  -26.0438  -29.1221   20.9535 C   0  0  0  0  0  0  0  0  0  0  0  0
  -24.6024   -7.9474   22.1163 C   0  0  0  0  0  0  0  0  0  0  0  0
  -26.7653  -27.0829   19.8440 C   0  0  0  0  0  0  0  0  0  0  0  0
  -23.2422   -6.0312   22.1106 C   0  0  0  0  0  0  0  0  0  0  0  0
  -20.9034   -4.7566   21.2809 C   0  0  0  0  0  0  0  0  0  0  0  0
  -21.9990   -6.5564   22.4630 C   0  0  0  0  0  0  0  0  0  0  0  0
  -25.2196  -11.9397   20.8600 C   0  0  0  0  0  0  0  0  0  0  0  0
  -28.2494  -19.4358   20.3777 C   0  0  0  0  0  0  0  0  0  0  0  0
  -27.9376  -22.0797   20.5769 C   0  0  0  0  0  0  0  0  0  0  0  0
  -24.9675  -14.0682   20.3692 C   0  0  0  0  0  0  0  0  0  0  0  0
  -22.9098  -12.9868   21.2883 C   0  0  0  0  0  0  0  0  0  0  0  0
  -25.1100  -32.2509   19.9700 C   0  0  0  0  0  0  0  0  0  0  0  0
  -25.2325  -32.1031   23.2082 C   0  0  0  0  0  0  0  0  0  0  0  0
  -25.9236  -30.2669   26.0005 C   0  0  0  0  0  0  0  0  0  0  0  0
  -29.5176  -17.2705   20.1555 C   0  0  0  0  0  0  0  0  0  0  0  0
  -22.9235  -35.2237   16.4431 C   0  0  0  0  0  0  0  0  0  0  0  0
  -23.7991  -30.1466   20.4278 C   0  0  0  0  0  0  0  0  0  0  0  0
  -26.3336  -30.2138   21.9498 C   0  0  0  0  0  0  0  0  0  0  0  0
  -23.3731  -35.3980   17.8915 C   0  0  0  0  0  0  0  0  0  0  0  0
  -29.4995  -14.3414   18.1314 C   0  0  0  0  0  0  0  0  0  0  0  0
  -24.7947  -34.8765   18.0756 C   0  0  0  0  0  0  0  0  0  0  0  0
  -28.3072  -13.5417   18.6615 C   0  0  0  0  0  0  0  0  0  0  0  0
  -30.2375  -15.0700   19.2531 C   0  0  0  0  0  0  0  0  0  0  0  0
  -28.1996  -15.1148   20.6365 C   0  0  0  0  0  0  0  0  0  0  0  0
  -24.8771  -33.3773   17.7638 C   0  0  1  0  0  0  0  0  0  0  0  0
  -24.3612  -31.4466   20.9948 C   0  0  1  0  0  0  0  0  0  0  0  0
  -27.3861  -14.4157   19.5351 C   0  0  2  0  0  0  0  0  0  0  0  0
  -25.9652  -30.4290   28.5044 C   0  0  0  0  0  0  0  0  0  0  0  0
  -27.8218  -33.7104   23.0586 C   0  0  0  0  0  0  0  0  0  0  0  0
  -28.2985  -33.0304   25.4205 C   0  0  0  0  0  0  0  0  0  0  0  0
  -26.2749  -34.3935   24.9012 C   0  0  0  0  0  0  0  0  0  0  0  0
  -23.9045  -28.1223   26.2888 C   0  0  0  0  0  0  0  0  0  0  0  0
  -28.9828  -24.3433   20.6725 C   0  0  0  0  0  0  0  0  0  0  0  0
  -28.5292  -25.7898   20.7780 C   0  0  0  0  0  0  0  0  0  1  0  0
  -26.3333  -31.9564   24.2308 C   0  0  1  0  0  0  0  0  0  0  0  0
  -25.1412  -30.0511   27.2834 C   0  0  2  0  0  0  0  0  0  0  0  0
  -27.1778  -33.2530   24.3827 C   0  0  0  0  0  0  0  0  0  0  0  0
  -29.3691  -20.1859   20.3670 N   0  0  0  0  0  0  0  0  0  0  0  0
  -26.8179  -21.3295   20.5880 N   0  0  0  0  0  0  0  0  0  0  0  0
  -26.4122  -12.3190   20.3933 N   0  0  0  0  0  0  0  0  0  0  0  0
  -26.2272  -13.6181   20.1031 N   0  0  0  0  0  0  0  0  0  0  0  0
  -25.2766  -31.2251   22.1160 N   0  0  0  0  0  0  0  0  0  0  0  0
  -29.3024  -15.8812   20.0356 N   0  0  0  0  0  0  0  0  0  0  0  0
  -24.6109  -15.3493   20.1367 N   0  0  0  0  0  0  0  0  0  0  0  0
  -22.3617  -11.7922   21.7751 N   0  0  0  0  0  0  0  0  0  0  0  0
  -28.3517  -18.0264   20.2733 N   0  0  0  0  0  0  0  0  0  0  0  0
  -27.8410  -23.4579   20.6761 N   0  0  0  0  0  0  0  0  0  0  0  0
  -24.3538  -32.6019   18.8680 N   0  0  0  0  0  0  0  0  0  0  0  0
  -25.6894  -31.5149   25.4632 N   0  0  0  0  0  0  0  0  0  0  0  0
  -24.7400  -28.6216   27.4112 N   0  3  0  0  0  0  0  0  0  0  0  0
  -22.1875  -14.0100   21.2185 O   0  0  0  0  0  0  0  0  0  0  0  0
  -26.2863  -32.5334   20.1655 O   0  0  0  0  0  0  0  0  0  0  0  0
  -24.3615  -32.9603   23.3760 O   0  0  0  0  0  0  0  0  0  0  0  0
  -26.6710  -29.4150   25.5249 O   0  0  0  0  0  0  0  0  0  0  0  0
  -30.6511  -17.7565   20.1265 O   0  0  0  0  0  0  0  0  0  0  0  0
  -24.4040   -6.6631   22.5210 O   0  0  0  0  0  0  0  0  0  0  0  0
  -27.6997  -26.1105   19.6620 O   0  0  0  0  0  0  0  0  0  1  0  0
  -19.7806   -4.1454   20.8811 F   0  0  0  0  0  0  0  0  0  0  0  0
  -21.9217   -7.6736   23.1991 F   0  0  0  0  0  0  0  0  0  0  0  0
  1  2  1  0  0  0  0
  1  5  2  0  0  0  0
  2  6  2  0  0  0  0
  3  8  2  0  0  0  0
  3 17  1  0  0  0  0
  4  9  1  0  0  0  0
  4 17  2  0  0  0  0
  5 19  1  0  0  0  0
  6 21  1  0  0  0  0
  7 10  2  0  0  0  0
  7 20  1  0  0  0  0
  8 23  1  0  0  0  0
  9 23  2  0  0  0  0
 10 24  1  0  0  0  0
 11 12  2  0  0  0  0
 11 25  1  0  0  0  0
 12 26  1  0  0  0  0
 13 22  1  0  0  0  0
 13 24  2  0  0  0  0
 14 26  2  0  0  0  0
 14 27  1  0  0  0  0
 15 29  2  0  0  0  0
 15 60  1  0  0  0  0
 16 30  1  0  0  0  0
 16 59  2  0  0  0  0
 17 28  1  0  0  0  0
 18 28  1  0  0  0  0
 18 31  2  0  0  0  0
 18 32  1  0  0  0  0
 19 21  2  0  0  0  0
 19 37  1  0  0  0  0
 20 22  2  0  0  0  0
 20 38  1  0  0  0  0
 21 46  1  0  0  0  0
 22 39  1  0  0  0  0
 23 77  1  0  0  0  0
 24 78  1  0  0  0  0
 25 27  2  0  0  0  0
 25 77  1  0  0  0  0
 26 79  1  0  0  0  0
 27 80  1  0  0  0  0
 28 61  2  0  0  0  0
 29 59  1  0  0  0  0
 29 67  1  0  0  0  0
 30 60  2  0  0  0  0
 30 68  1  0  0  0  0
 31 62  1  0  0  0  0
 31 65  1  0  0  0  0
 32 66  1  0  0  0  0
 32 72  2  0  0  0  0
 33 47  1  0  0  0  0
 33 69  1  0  0  0  0
 33 73  2  0  0  0  0
 34 56  1  0  0  0  0
 34 63  1  0  0  0  0
 34 74  2  0  0  0  0
 35 57  1  0  0  0  0
 35 70  1  0  0  0  0
 35 75  2  0  0  0  0
 36 64  1  0  0  0  0
 36 67  1  0  0  0  0
 36 76  2  0  0  0  0
 37 40  1  0  0  0  0
 38 47  1  0  0  0  0
 39 63  1  0  0  0  0
 40 42  1  0  0  0  0
 41 43  1  0  0  0  0
 41 44  1  0  0  0  0
 42 46  1  0  0  0  0
 43 48  1  0  0  0  0
 44 64  1  0  0  0  0
 45 48  1  0  0  0  0
 45 64  1  0  0  0  0
 46 69  1  0  0  0  0
 47 63  1  0  0  0  0
 48 62  1  0  0  0  0
 49 57  1  0  0  0  0
 50 58  1  0  0  0  0
 51 58  1  0  0  0  0
 52 58  1  0  0  0  0
 53 71  1  0  0  0  0
 54 55  1  0  0  0  0
 54 68  1  0  0  0  0
 55 78  1  0  0  0  0
 56 58  1  0  0  0  0
 56 70  1  0  0  0  0
 57 71  1  0  0  0  0
 61 62  1  0  0  0  0
M  CHG  1  71   1
M  ISO  4  36 100  55 101  67 100  78 101
M  END
> <Batch ID>
0185

> <Smiles>
CNC(C)C(=O)NC(C(=O)N1Cc2cc([101O:1][101CH2:1]CNc3cnc([100NH:0][100C:0](=O)N4CCCC(n5nc(-c6ccc(Oc7ccc(F)cc7F)cc6)c(C(N)=O)c5N)C4)cn3)ccc2CC1C(=O)NC1CCCc2ccccc21)C(C)(C)C

> <Shape>
0.319

> <Color>
0.146

> <Negative vol penalty>
0.000

$$$$

  -OEChem-04052323123D

 79 87  0     1  0  0  0  0  0999 V2000
  -21.9821  -29.5560   21.0881 C   0  0  0  0  0  0  0  0  0  0  0  0
  -22.6515  -28.4833   21.6684 C   0  0  0  0  0  0  0  0  0  0  0  0
  -23.1158   -9.7178   19.9615 C   0  0  0  0  0  0  0  0  0  0  0  0
  -23.5493  -10.0543   22.3143 C   0  0  0  0  0  0  0  0  0  0  0  0
  -20.6251  -29.7496   21.3431 C   0  0  0  0  0  0  0  0  0  0  0  0
  -21.9645  -27.6043   22.5049 C   0  0  0  0  0  0  0  0  0  0  0  0
  -23.0385  -22.7529   21.5273 C   0  0  0  0  0  0  0  0  0  0  0  0
  -22.3275   -8.6079   20.2654 C   0  0  0  0  0  0  0  0  0  0  0  0
  -22.7609   -8.9444   22.6183 C   0  0  0  0  0  0  0  0  0  0  0  0
  -24.2482  -22.2582   22.0130 C   0  0  0  0  0  0  0  0  0  0  0  0
  -23.0777   -5.5785   22.5821 C   0  0  0  0  0  0  0  0  0  0  0  0
  -23.5722   -4.6688   23.5167 C   0  0  0  0  0  0  0  0  0  0  0  0
  -23.0825  -21.2425   23.8646 C   0  0  0  0  0  0  0  0  0  0  0  0
  -21.6527   -5.0739   24.9268 C   0  0  0  0  0  0  0  0  0  0  0  0
  -23.7268  -10.4409   20.9859 C   0  0  0  0  0  0  0  0  0  0  0  0
  -24.1190  -12.9252   20.5593 C   0  0  0  0  0  0  0  0  0  0  0  0
  -19.9189  -28.8670   22.1754 C   0  0  0  0  0  0  0  0  0  0  0  0
  -21.8412  -22.5049   22.2138 C   0  0  0  0  0  0  0  0  0  0  0  0
  -20.5971  -27.7871   22.7723 C   0  0  0  0  0  0  0  0  0  0  0  0
  -21.8587  -21.7329   23.3842 C   0  0  0  0  0  0  0  0  0  0  0  0
  -22.1501   -8.2212   21.5938 C   0  0  0  0  0  0  0  0  0  0  0  0
  -24.2707  -21.5053   23.1833 C   0  0  0  0  0  0  0  0  0  0  0  0
  -21.8707   -6.2361   22.8199 C   0  0  0  0  0  0  0  0  0  0  0  0
  -22.8597   -4.4164   24.6890 C   0  0  0  0  0  0  0  0  0  0  0  0
  -21.1582   -5.9838   23.9922 C   0  0  0  0  0  0  0  0  0  0  0  0
  -24.5416  -11.5872   20.6726 C   0  0  0  0  0  0  0  0  0  0  0  0
  -25.2620  -13.6213   20.2501 C   0  0  0  0  0  0  0  0  0  0  0  0
  -22.8103  -13.4886   20.7194 C   0  0  0  0  0  0  0  0  0  0  0  0
  -19.6513  -24.3203   23.6324 C   0  0  0  0  0  0  0  0  0  0  0  0
  -18.0839  -21.4986   23.9539 C   0  0  0  0  0  0  0  0  0  0  0  0
  -18.2513  -18.0941   24.1211 C   0  0  0  0  0  0  0  0  0  0  0  0
  -30.5851  -14.7409   20.8682 C   0  0  0  0  0  0  0  0  0  0  0  0
  -18.4638  -29.1443   22.4592 C   0  0  0  0  0  0  0  0  0  0  0  0
  -20.5412  -23.0230   21.6624 C   0  0  0  0  0  0  0  0  0  0  0  0
  -20.5982  -21.4213   24.1475 C   0  0  0  0  0  0  0  0  0  0  0  0
  -17.7221  -27.9521   23.0581 C   0  0  0  0  0  0  0  0  0  0  0  0
  -29.8497  -12.0044   18.8872 C   0  0  0  0  0  0  0  0  0  0  0  0
  -18.5383  -27.3267   24.1848 C   0  0  0  0  0  0  0  0  0  0  0  0
  -28.3664  -11.7506   19.1552 C   0  0  0  0  0  0  0  0  0  0  0  0
  -28.8636  -18.0015   21.2310 C   0  0  0  0  0  0  0  0  0  0  0  0
  -28.1369  -16.4805   23.1038 C   0  0  0  0  0  0  0  0  0  0  0  0
  -30.5834  -12.3636   20.1743 C   0  0  0  0  0  0  0  0  0  0  0  0
  -30.1233  -17.1573   21.0591 C   0  0  0  0  0  0  0  0  0  0  0  0
  -29.4120  -15.6689   22.9005 C   0  0  0  0  0  0  0  0  0  0  0  0
  -28.5207  -13.3003   21.1659 C   0  0  0  0  0  0  0  0  0  0  0  0
  -19.8807  -26.7976   23.6655 C   0  0  1  0  0  0  0  0  0  0  0  0
  -19.4489  -23.1433   22.7206 C   0  0  1  0  0  0  0  0  0  0  0  0
  -28.3304  -17.9393   22.6682 C   0  0  0  0  0  0  0  0  0  0  0  0
  -27.7270  -12.9397   19.8941 C   0  0  2  0  0  0  0  0  0  0  0  0
  -16.8086  -16.0635   24.4257 C   0  0  0  0  0  0  0  0  0  0  0  0
  -17.8735  -22.0987   26.9381 C   0  0  0  0  0  0  0  0  0  0  0  0
  -17.3082  -19.6886   27.3120 C   0  0  0  0  0  0  0  0  0  0  0  0
  -15.8087  -21.1186   25.9230 C   0  0  0  0  0  0  0  0  0  0  0  0
  -19.0054  -17.0176   21.4694 C   0  0  0  0  0  0  0  0  0  0  0  0
  -27.0266  -18.7229   22.7992 C   0  0  0  0  0  0  0  0  0  0  0  0
  -26.7249  -19.0548   24.2553 C   0  0  0  0  0  0  0  0  0  0  0  0
  -25.4038  -19.7999   24.3931 C   0  0  0  0  0  0  0  0  0  1  0  0
  -18.0506  -20.4068   24.9959 C   0  0  1  0  0  0  0  0  0  0  0  0
  -17.4491  -17.0106   23.4231 C   0  0  2  0  0  0  0  0  0  0  0  0
  -17.2844  -20.8355   26.2792 C   0  0  0  0  0  0  0  0  0  0  0  0
  -25.8508  -11.4396   20.4530 N   0  0  0  0  0  0  0  0  0  0  0  0
  -26.2608  -12.6939   20.1986 N   0  0  0  0  0  0  0  0  0  0  0  0
  -19.3531  -21.9555   23.5715 N   0  0  0  0  0  0  0  0  0  0  0  0
  -29.9434  -13.4934   20.8479 N   0  0  0  0  0  0  0  0  0  0  0  0
  -29.9173  -15.7871   21.5262 N   0  0  0  0  0  0  0  0  0  0  0  0
  -25.5001  -14.9300   20.0198 N   0  0  0  0  0  0  0  0  0  0  0  0
  -21.7481  -12.6312   21.0369 N   0  0  0  0  0  0  0  0  0  0  0  0
  -19.6957  -25.5371   22.9790 N   0  0  0  0  0  0  0  0  0  0  0  0
  -17.4982  -19.2290   24.3356 N   0  0  0  0  0  0  0  0  0  0  0  0
  -18.3287  -16.2151   22.5206 N   0  3  0  0  0  0  0  0  0  0  0  0
  -22.5865  -14.7137   20.5686 O   0  0  0  0  0  0  0  0  0  0  0  0
  -19.7578  -24.1381   24.8395 O   0  0  0  0  0  0  0  0  0  0  0  0
  -17.0231  -21.9252   23.4908 O   0  0  0  0  0  0  0  0  0  0  0  0
  -19.4271  -17.9468   24.4470 O   0  0  0  0  0  0  0  0  0  0  0  0
  -31.6851  -14.9136   20.3286 O   0  0  0  0  0  0  0  0  0  0  0  0
  -21.3807   -7.1384   21.8907 O   0  0  0  0  0  0  0  0  0  0  0  0
  -25.4586  -21.0183   23.6633 O   0  0  0  0  0  0  0  0  0  1  0  0
  -23.3339   -3.5416   25.5856 F   0  0  0  0  0  0  0  0  0  0  0  0
  -19.9975   -6.6115   24.2256 F   0  0  0  0  0  0  0  0  0  0  0  0
  1  2  1  0  0  0  0
  1  5  2  0  0  0  0
  2  6  2  0  0  0  0
  3  8  2  0  0  0  0
  3 15  1  0  0  0  0
  4  9  1  0  0  0  0
  4 15  2  0  0  0  0
  5 17  1  0  0  0  0
  6 19  1  0  0  0  0
  7 10  2  0  0  0  0
  7 18  1  0  0  0  0
  8 21  1  0  0  0  0
  9 21  2  0  0  0  0
 10 22  1  0  0  0  0
 11 12  2  0  0  0  0
 11 23  1  0  0  0  0
 12 24  1  0  0  0  0
 13 20  1  0  0  0  0
 13 22  2  0  0  0  0
 14 24  2  0  0  0  0
 14 25  1  0  0  0  0
 15 26  1  0  0  0  0
 16 26  1  0  0  0  0
 16 27  2  0  0  0  0
 16 28  1  0  0  0  0
 17 19  2  0  0  0  0
 17 33  1  0  0  0  0
 18 20  2  0  0  0  0
 18 34  1  0  0  0  0
 19 46  1  0  0  0  0
 20 35  1  0  0  0  0
 21 76  1  0  0  0  0
 22 77  1  0  0  0  0
 23 25  2  0  0  0  0
 23 76  1  0  0  0  0
 24 78  1  0  0  0  0
 25 79  1  0  0  0  0
 26 61  2  0  0  0  0
 27 62  1  0  0  0  0
 27 66  1  0  0  0  0
 28 67  1  0  0  0  0
 28 71  2  0  0  0  0
 29 47  1  0  0  0  0
 29 68  1  0  0  0  0
 29 72  2  0  0  0  0
 30 58  1  0  0  0  0
 30 63  1  0  0  0  0
 30 73  2  0  0  0  0
 31 59  1  0  0  0  0
 31 69  1  0  0  0  0
 31 74  2  0  0  0  0
 32 64  1  0  0  0  0
 32 65  1  0  0  0  0
 32 75  2  0  0  0  0
 33 36  1  0  0  0  0
 34 47  1  0  0  0  0
 35 63  1  0  0  0  0
 36 38  1  0  0  0  0
 37 39  1  0  0  0  0
 37 42  1  0  0  0  0
 38 46  1  0  0  0  0
 39 49  1  0  0  0  0
 40 43  1  0  0  0  0
 40 48  1  0  0  0  0
 41 44  1  0  0  0  0
 41 48  1  0  0  0  0
 42 64  1  0  0  0  0
 43 65  1  0  0  0  0
 44 65  1  0  0  0  0
 45 49  1  0  0  0  0
 45 64  1  0  0  0  0
 46 68  1  0  0  0  0
 47 63  1  0  0  0  0
 48 55  1  0  0  0  0
 49 62  1  0  0  0  0
 50 59  1  0  0  0  0
 51 60  1  0  0  0  0
 52 60  1  0  0  0  0
 53 60  1  0  0  0  0
 54 70  1  0  0  0  0
 55 56  1  0  0  0  0
 56 57  1  0  0  0  0
 57 77  1  0  0  0  0
 58 60  1  0  0  0  0
 58 69  1  0  0  0  0
 59 70  1  0  0  0  0
 61 62  1  0  0  0  0
M  CHG  1  70   1
M  ISO  4  32 100  57 101  65 100  77 101
M  END
> <Batch ID>
0185

> <Smiles>
CNC(C)C(=O)NC(C(=O)N1Cc2cc([101O:1][101CH2:1]CCC3CC[100N:0]([100C:0](=O)N4CCCC(n5nc(-c6ccc(Oc7ccc(F)cc7F)cc6)c(C(N)=O)c5N)C4)CC3)ccc2CC1C(=O)NC1CCCc2ccccc21)C(C)(C)C

> <Shape>
0.235

> <Color>
0.213

> <Negative vol penalty>
0.000

$$$$

  -OEChem-04052323123D

 79 87  0     1  0  0  0  0  0999 V2000
  -18.5134  -25.0340   21.9210 C   0  0  0  0  0  0  0  0  0  0  0  0
  -19.7815  -25.1815   21.3682 C   0  0  0  0  0  0  0  0  0  0  0  0
  -28.4497  -13.3896   20.1415 C   0  0  0  0  0  0  0  0  0  0  0  0
  -30.6378  -12.5185   19.6029 C   0  0  0  0  0  0  0  0  0  0  0  0
  -17.7912  -26.1594   22.3159 C   0  0  0  0  0  0  0  0  0  0  0  0
  -20.3277  -26.4546   21.2089 C   0  0  0  0  0  0  0  0  0  0  0  0
  -25.1665  -26.6910   22.6838 C   0  0  0  0  0  0  0  0  0  0  0  0
  -27.8651  -12.4378   19.3062 C   0  0  0  0  0  0  0  0  0  0  0  0
  -30.0532  -11.5665   18.7676 C   0  0  0  0  0  0  0  0  0  0  0  0
  -26.1243  -26.1786   21.8098 C   0  0  0  0  0  0  0  0  0  0  0  0
  -27.0838   -9.1507   19.4391 C   0  0  0  0  0  0  0  0  0  0  0  0
  -25.9668   -8.4664   19.9182 C   0  0  0  0  0  0  0  0  0  0  0  0
  -26.6288  -28.4155   21.0610 C   0  0  0  0  0  0  0  0  0  0  0  0
  -24.6551   -9.3186   18.0768 C   0  0  0  0  0  0  0  0  0  0  0  0
  -29.8361  -13.4300   20.2898 C   0  0  0  0  0  0  0  0  0  0  0  0
  -30.7257  -14.2805   22.5243 C   0  0  0  0  0  0  0  0  0  0  0  0
  -18.3328  -27.4463   22.1703 C   0  0  0  0  0  0  0  0  0  0  0  0
  -24.9246  -28.0709   22.7452 C   0  0  0  0  0  0  0  0  0  0  0  0
  -19.6115  -27.5983   21.6010 C   0  0  0  0  0  0  0  0  0  0  0  0
  -25.6692  -28.9431   21.9385 C   0  0  0  0  0  0  0  0  0  0  0  0
  -28.6668  -11.5262   18.6192 C   0  0  0  0  0  0  0  0  0  0  0  0
  -26.8536  -27.0407   20.9961 C   0  0  0  0  0  0  0  0  0  0  0  0
  -26.9866   -9.9190   18.2790 C   0  0  0  0  0  0  0  0  0  0  0  0
  -24.7524   -8.5503   19.2370 C   0  0  0  0  0  0  0  0  0  0  0  0
  -25.7722  -10.0029   17.5978 C   0  0  0  0  0  0  0  0  0  0  0  0
  -30.4406  -14.4134   21.1521 C   0  0  0  0  0  0  0  0  0  0  0  0
  -31.2913  -15.4819   22.8754 C   0  0  0  0  0  0  0  0  0  0  0  0
  -30.4995  -13.1703   23.4030 C   0  0  0  0  0  0  0  0  0  0  0  0
  -22.4154  -29.9360   22.1721 C   0  0  0  0  0  0  0  0  0  0  0  0
  -24.3621  -32.2525   23.3411 C   0  0  0  0  0  0  0  0  0  0  0  0
  -27.5429  -33.3333   23.9418 C   0  0  0  0  0  0  0  0  0  0  0  0
  -30.7076  -20.8617   20.1863 C   0  0  0  0  0  0  0  0  0  0  0  0
  -17.4950  -28.6357   22.5681 C   0  0  0  0  0  0  0  0  0  0  0  0
  -23.9068  -28.6100   23.7126 C   0  0  0  0  0  0  0  0  0  0  0  0
  -25.4619  -30.4343   21.9811 C   0  0  0  0  0  0  0  0  0  0  0  0
  -18.2982  -29.9259   22.7109 C   0  0  0  0  0  0  0  0  0  0  0  0
  -33.8478  -19.0953   21.0660 C   0  0  0  0  0  0  0  0  0  0  0  0
  -19.2331  -30.1074   21.5194 C   0  0  0  0  0  0  0  0  0  0  0  0
  -33.3421  -17.6658   21.2658 C   0  0  0  0  0  0  0  0  0  0  0  0
  -32.0460  -23.9992   21.5562 C   0  0  0  0  0  0  0  0  0  0  0  0
  -33.0111  -19.8288   20.0259 C   0  0  0  0  0  0  0  0  0  0  0  0
  -32.3635  -22.5613   21.1575 C   0  0  0  0  0  0  0  0  0  0  0  0
  -31.0374  -18.4393   20.5265 C   0  0  0  0  0  0  0  0  0  0  0  0
  -30.4283  -23.3133   19.9455 C   0  0  0  0  0  0  0  0  0  0  0  0
  -20.2481  -28.9611   21.4350 C   0  0  1  0  0  0  0  0  0  0  0  0
  -23.3818  -29.9879   23.3214 C   0  0  1  0  0  0  0  0  0  0  0  0
  -31.8346  -17.6470   21.5779 C   0  0  1  0  0  0  0  0  0  0  0  0
  -31.2912  -24.4999   20.3338 C   0  0  1  0  0  0  0  0  0  0  0  0
  -28.8178  -35.2837   24.8736 C   0  0  0  0  0  0  0  0  0  0  0  0
  -31.3371  -27.3995   19.1544 C   0  0  0  0  0  0  0  0  0  0  0  0
  -23.8122  -33.8289   20.7872 C   0  0  0  0  0  0  0  0  0  0  0  0
  -25.7928  -35.2618   21.3281 C   0  0  0  0  0  0  0  0  0  0  0  0
  -23.8377  -35.2034   22.8764 C   0  0  0  0  0  0  0  0  0  0  0  0
  -28.7583  -31.6718   26.0681 C   0  0  0  0  0  0  0  0  0  0  0  0
  -28.9060  -27.3788   19.8431 C   0  0  0  0  0  0  0  0  0  1  0  0
  -25.3744  -33.2001   22.7442 C   0  0  1  0  0  0  0  0  0  0  0  0
  -28.1858  -33.9345   25.1787 C   0  0  2  0  0  0  0  0  0  0  0  0
  -30.1274  -26.5401   19.4843 C   0  0  2  0  0  0  0  0  0  0  0  0
  -24.7071  -34.3453   21.9315 C   0  0  0  0  0  0  0  0  0  0  0  0
  -30.7957  -15.6052   20.6648 N   0  0  0  0  0  0  0  0  0  0  0  0
  -31.3096  -16.2322   21.7366 N   0  0  0  0  0  0  0  0  0  0  0  0
  -24.4511  -30.9124   22.9387 N   0  0  0  0  0  0  0  0  0  0  0  0
  -31.5863  -19.7876   20.3669 N   0  0  0  0  0  0  0  0  0  0  0  0
  -31.2229  -22.1488   20.3328 N   0  0  0  0  0  0  0  0  0  0  0  0
  -31.7697  -15.9591   24.0441 N   0  0  0  0  0  0  0  0  0  0  0  0
  -29.9086  -12.0127   22.8785 N   0  0  0  0  0  0  0  0  0  0  0  0
  -21.3043  -29.1486   22.4064 N   0  0  0  0  0  0  0  0  0  0  0  0
  -26.2062  -33.6592   23.8514 N   0  0  0  0  0  0  0  0  0  0  0  0
  -30.4725  -25.6803   20.6553 N   0  3  0  0  0  0  0  0  0  0  0  0
  -29.2449  -33.0276   25.7047 N   0  3  0  0  0  0  0  0  0  0  0  0
  -30.7970  -13.2099   24.6209 O   0  0  0  0  0  0  0  0  0  0  0  0
  -22.6589  -30.5651   21.1490 O   0  0  0  0  0  0  0  0  0  0  0  0
  -23.5277  -32.6841   24.1406 O   0  0  0  0  0  0  0  0  0  0  0  0
  -28.1653  -32.6466   23.1346 O   0  0  0  0  0  0  0  0  0  0  0  0
  -29.5055  -20.6787   19.9527 O   0  0  0  0  0  0  0  0  0  0  0  0
  -28.0967  -10.5971   17.8042 O   0  0  0  0  0  0  0  0  0  0  0  0
  -27.7949  -26.5398   20.1359 O   0  0  0  0  0  0  0  0  0  1  0  0
  -23.6801   -7.8920   19.6963 F   0  0  0  0  0  0  0  0  0  0  0  0
  -25.6730  -10.7384   16.4820 F   0  0  0  0  0  0  0  0  0  0  0  0
  1  2  1  0  0  0  0
  1  5  2  0  0  0  0
  2  6  2  0  0  0  0
  3  8  2  0  0  0  0
  3 15  1  0  0  0  0
  4  9  1  0  0  0  0
  4 15  2  0  0  0  0
  5 17  1  0  0  0  0
  6 19  1  0  0  0  0
  7 10  2  0  0  0  0
  7 18  1  0  0  0  0
  8 21  1  0  0  0  0
  9 21  2  0  0  0  0
 10 22  1  0  0  0  0
 11 12  2  0  0  0  0
 11 23  1  0  0  0  0
 12 24  1  0  0  0  0
 13 20  1  0  0  0  0
 13 22  2  0  0  0  0
 14 24  2  0  0  0  0
 14 25  1  0  0  0  0
 15 26  1  0  0  0  0
 16 26  1  0  0  0  0
 16 27  2  0  0  0  0
 16 28  1  0  0  0  0
 17 19  2  0  0  0  0
 17 33  1  0  0  0  0
 18 20  2  0  0  0  0
 18 34  1  0  0  0  0
 19 45  1  0  0  0  0
 20 35  1  0  0  0  0
 21 76  1  0  0  0  0
 22 77  1  0  0  0  0
 23 25  2  0  0  0  0
 23 76  1  0  0  0  0
 24 78  1  0  0  0  0
 25 79  1  0  0  0  0
 26 60  2  0  0  0  0
 27 61  1  0  0  0  0
 27 65  1  0  0  0  0
 28 66  1  0  0  0  0
 28 71  2  0  0  0  0
 29 46  1  0  0  0  0
 29 67  1  0  0  0  0
 29 72  2  0  0  0  0
 30 56  1  0  0  0  0
 30 62  1  0  0  0  0
 30 73  2  0  0  0  0
 31 57  1  0  0  0  0
 31 68  1  0  0  0  0
 31 74  2  0  0  0  0
 32 63  1  0  0  0  0
 32 64  1  0  0  0  0
 32 75  2  0  0  0  0
 33 36  1  0  0  0  0
 34 46  1  0  0  0  0
 35 62  1  0  0  0  0
 36 38  1  0  0  0  0
 37 39  1  0  0  0  0
 37 41  1  0  0  0  0
 38 45  1  0  0  0  0
 39 47  1  0  0  0  0
 40 42  1  0  0  0  0
 40 48  1  0  0  0  0
 41 63  1  0  0  0  0
 42 64  1  0  0  0  0
 43 47  1  0  0  0  0
 43 63  1  0  0  0  0
 44 48  1  0  0  0  0
 44 64  1  0  0  0  0
 45 67  1  0  0  0  0
 46 62  1  0  0  0  0
 47 61  1  0  0  0  0
 48 69  1  0  0  0  0
 49 57  1  0  0  0  0
 50 58  1  0  0  0  0
 51 59  1  0  0  0  0
 52 59  1  0  0  0  0
 53 59  1  0  0  0  0
 54 70  1  0  0  0  0
 55 58  1  0  0  0  0
 55 77  1  0  0  0  0
 56 59  1  0  0  0  0
 56 68  1  0  0  0  0
 57 70  1  0  0  0  0
 58 69  1  0  0  0  0
 60 61  1  0  0  0  0
M  CHG  2  69   1  70   1
M  ISO  4  32 100  55 101  64 100  77 101
M  END
> <Batch ID>
0185

> <Smiles>
CNC(C)C(=O)NC(C(=O)N1Cc2cc([101O:1][101CH2:1]C(C)NC3CC[100N:0]([100C:0](=O)N4CCCC(n5nc(-c6ccc(Oc7ccc(F)cc7F)cc6)c(C(N)=O)c5N)C4)C3)ccc2CC1C(=O)NC1CCCc2ccccc21)C(C)(C)C

> <Shape>
0.274

> <Color>
0.101

> <Negative vol penalty>
0.000

$$$$

  -OEChem-04052323123D

 83 91  0     1  0  0  0  0  0999 V2000
  -30.2750  -25.9934   16.9557 C   0  0  0  0  0  0  0  0  0  0  0  0
  -28.8890  -25.9802   17.0750 C   0  0  0  0  0  0  0  0  0  0  0  0
  -25.3912  -14.3330   20.4677 C   0  0  0  0  0  0  0  0  0  0  0  0
  -23.1591  -13.9025   21.2860 C   0  0  0  0  0  0  0  0  0  0  0  0
  -31.0617  -26.4157   18.0265 C   0  0  0  0  0  0  0  0  0  0  0  0
  -28.2889  -26.3884   18.2657 C   0  0  0  0  0  0  0  0  0  0  0  0
  -22.9612  -29.3456   18.8785 C   0  0  0  0  0  0  0  0  0  0  0  0
  -25.7607  -13.0268   20.7883 C   0  0  0  0  0  0  0  0  0  0  0  0
  -23.5286  -12.5962   21.6066 C   0  0  0  0  0  0  0  0  0  0  0  0
  -21.6742  -28.9059   19.1852 C   0  0  0  0  0  0  0  0  0  0  0  0
  -23.9804   -9.6674   19.9824 C   0  0  0  0  0  0  0  0  0  0  0  0
  -23.1033   -8.6421   19.6288 C   0  0  0  0  0  0  0  0  0  0  0  0
  -22.0423  -29.4640   21.5030 C   0  0  0  0  0  0  0  0  0  0  0  0
  -22.9036   -8.0116   21.9526 C   0  0  0  0  0  0  0  0  0  0  0  0
  -24.0904  -14.7709   20.7166 C   0  0  0  0  0  0  0  0  0  0  0  0
  -23.1729  -16.5779   19.1672 C   0  0  0  0  0  0  0  0  0  0  0  0
  -30.4707  -26.8384   19.2275 C   0  0  0  0  0  0  0  0  0  0  0  0
  -23.8037  -29.8385   19.8853 C   0  0  0  0  0  0  0  0  0  0  0  0
  -29.0686  -26.8155   19.3540 C   0  0  0  0  0  0  0  0  0  0  0  0
  -23.3387  -29.9117   21.2060 C   0  0  0  0  0  0  0  0  0  0  0  0
  -24.8294  -12.1584   21.3577 C   0  0  0  0  0  0  0  0  0  0  0  0
  -21.2156  -28.9623   20.4981 C   0  0  0  0  0  0  0  0  0  0  0  0
  -24.3192   -9.8648   21.3210 C   0  0  0  0  0  0  0  0  0  0  0  0
  -22.5648   -7.8142   20.6139 C   0  0  0  0  0  0  0  0  0  0  0  0
  -23.7807   -9.0369   22.3061 C   0  0  0  0  0  0  0  0  0  0  0  0
  -23.7082  -16.1203   20.3861 C   0  0  0  0  0  0  0  0  0  0  0  0
  -22.9828  -17.9245   19.3596 C   0  0  0  0  0  0  0  0  0  0  0  0
  -22.8740  -15.8507   17.9682 C   0  0  0  0  0  0  0  0  0  0  0  0
  -26.6113  -28.9608   21.0897 C   0  0  0  0  0  0  0  0  0  0  0  0
  -26.3268  -31.7335   22.7490 C   0  0  0  0  0  0  0  0  0  0  0  0
  -24.2809  -34.1433   24.0351 C   0  0  0  0  0  0  0  0  0  0  0  0
  -20.9525  -21.9138   22.8639 C   0  0  0  0  0  0  0  0  0  0  0  0
  -31.3641  -27.2414   20.3738 C   0  0  0  0  0  0  0  0  0  0  0  0
  -25.1797  -30.3338   19.5336 C   0  0  0  0  0  0  0  0  0  0  0  0
  -24.1966  -30.4513   22.3201 C   0  0  0  0  0  0  0  0  0  0  0  0
  -30.6361  -28.0135   21.4712 C   0  0  0  0  0  0  0  0  0  0  0  0
  -24.5316  -20.9903   23.0606 C   0  0  0  0  0  0  0  0  0  0  0  0
  -29.3235  -27.3235   21.8284 C   0  0  0  0  0  0  0  0  0  0  0  0
  -24.5680  -19.6430   22.3412 C   0  0  0  0  0  0  0  0  0  0  0  0
  -23.1750  -21.2511   23.7081 C   0  0  0  0  0  0  0  0  0  0  0  0
  -22.0637  -19.7944   22.0477 C   0  0  0  0  0  0  0  0  0  0  0  0
  -17.8975  -24.8694   21.0909 C   0  0  0  0  0  0  0  0  0  0  0  0
  -19.8699  -24.9151   21.7776 C   0  0  0  0  0  0  0  0  0  0  0  0
  -28.3796  -27.2743   20.6209 C   0  0  1  0  0  0  0  0  0  0  0  0
  -26.1353  -30.3379   20.7229 C   0  0  1  0  0  0  0  0  0  0  0  0
  -19.0105  -23.8015   21.1424 C   0  0  0  0  0  0  0  0  0  0  0  0
  -23.4019  -19.5215   21.3448 C   0  0  2  0  0  0  0  0  0  0  0  0
  -24.3357  -36.2648   25.3744 C   0  0  0  0  0  0  0  0  0  0  0  0
  -26.7890  -30.1130   25.2926 C   0  0  0  0  0  0  0  0  0  0  0  0
  -25.9032  -32.0519   26.6057 C   0  0  0  0  0  0  0  0  0  0  0  0
  -27.9681  -32.3176   25.2315 C   0  0  0  0  0  0  0  0  0  0  0  0
  -23.0962  -35.7088   21.8204 C   0  0  0  0  0  0  0  0  0  0  0  0
  -18.4307  -17.8049   19.2898 C   0  0  0  0  0  0  0  0  0  0  0  0
  -19.2418  -19.8611   18.1431 C   0  0  0  0  0  0  0  0  0  0  0  0
  -18.7439  -22.5760   21.9903 C   0  0  0  0  0  0  0  0  0  0  0  0
  -20.0758  -20.9549   20.6926 C   0  0  0  0  0  0  0  0  0  0  0  0
  -18.6138  -26.9974   22.0697 C   0  0  0  0  0  0  0  0  0  0  0  0
  -19.0986  -19.7960   20.6283 C   0  0  0  0  0  0  0  0  0  0  0  0
  -19.7541  -27.9956   22.1060 C   0  0  0  0  0  0  0  0  0  1  0  0
  -25.7269  -32.1280   24.0770 C   0  0  1  0  0  0  0  0  0  0  0  0
  -24.3507  -35.6587   23.9797 C   0  0  2  0  0  0  0  0  0  0  0  0
  -26.5811  -31.6406   25.2813 C   0  0  0  0  0  0  0  0  0  0  0  0
  -23.8494  -17.0969   21.2863 N   0  0  0  0  0  0  0  0  0  0  0  0
  -23.4000  -18.1817   20.6325 N   0  0  0  0  0  0  0  0  0  0  0  0
  -25.5366  -30.9176   21.9270 N   0  0  0  0  0  0  0  0  0  0  0  0
  -22.0818  -21.0866   22.7495 N   0  0  0  0  0  0  0  0  0  0  0  0
  -22.5013  -18.9019   18.5626 N   0  0  0  0  0  0  0  0  0  0  0  0
  -23.1304  -14.4731   17.9408 N   0  0  0  0  0  0  0  0  0  0  0  0
  -27.7511  -28.5620   20.4178 N   0  0  0  0  0  0  0  0  0  0  0  0
  -25.5364  -33.5735   24.0257 N   0  0  0  0  0  0  0  0  0  0  0  0
  -19.9299  -21.7344   21.9200 N   0  0  0  0  0  0  0  0  0  0  0  0
  -18.9614  -25.8896   21.1444 N   0  3  0  0  0  0  0  0  0  0  0  0
  -23.1912  -36.2032   23.2181 N   0  3  0  0  0  0  0  0  0  0  0  0
  -19.3287  -19.0136   19.3888 N   0  3  0  0  0  0  0  0  0  0  0  0
  -22.4091  -16.4091   16.9457 O   0  0  0  0  0  0  0  0  0  0  0  0
  -25.9914  -28.3089   21.9218 O   0  0  0  0  0  0  0  0  0  0  0  0
  -27.4519  -32.1405   22.4489 O   0  0  0  0  0  0  0  0  0  0  0  0
  -23.2188  -33.5269   24.0858 O   0  0  0  0  0  0  0  0  0  0  0  0
  -20.8674  -22.7707   23.7530 O   0  0  0  0  0  0  0  0  0  0  0  0
  -25.1895  -10.8836   21.6705 O   0  0  0  0  0  0  0  0  0  0  0  0
  -19.9601  -28.5332   20.8003 O   0  0  0  0  0  0  0  0  0  1  0  0
  -21.7213   -6.8307   20.2744 F   0  0  0  0  0  0  0  0  0  0  0  0
  -24.1016   -9.2224   23.5939 F   0  0  0  0  0  0  0  0  0  0  0  0
  1  2  1  0  0  0  0
  1  5  2  0  0  0  0
  2  6  2  0  0  0  0
  3  8  2  0  0  0  0
  3 15  1  0  0  0  0
  4  9  1  0  0  0  0
  4 15  2  0  0  0  0
  5 17  1  0  0  0  0
  6 19  1  0  0  0  0
  7 10  2  0  0  0  0
  7 18  1  0  0  0  0
  8 21  1  0  0  0  0
  9 21  2  0  0  0  0
 10 22  1  0  0  0  0
 11 12  2  0  0  0  0
 11 23  1  0  0  0  0
 12 24  1  0  0  0  0
 13 20  1  0  0  0  0
 13 22  2  0  0  0  0
 14 24  2  0  0  0  0
 14 25  1  0  0  0  0
 15 26  1  0  0  0  0
 16 26  1  0  0  0  0
 16 27  2  0  0  0  0
 16 28  1  0  0  0  0
 17 19  2  0  0  0  0
 17 33  1  0  0  0  0
 18 20  2  0  0  0  0
 18 34  1  0  0  0  0
 19 44  1  0  0  0  0
 20 35  1  0  0  0  0
 21 80  1  0  0  0  0
 22 81  1  0  0  0  0
 23 25  2  0  0  0  0
 23 80  1  0  0  0  0
 24 82  1  0  0  0  0
 25 83  1  0  0  0  0
 26 63  2  0  0  0  0
 27 64  1  0  0  0  0
 27 67  1  0  0  0  0
 28 68  1  0  0  0  0
 28 75  2  0  0  0  0
 29 45  1  0  0  0  0
 29 69  1  0  0  0  0
 29 76  2  0  0  0  0
 30 60  1  0  0  0  0
 30 65  1  0  0  0  0
 30 77  2  0  0  0  0
 31 61  1  0  0  0  0
 31 70  1  0  0  0  0
 31 78  2  0  0  0  0
 32 66  1  0  0  0  0
 32 71  1  0  0  0  0
 32 79  2  0  0  0  0
 33 36  1  0  0  0  0
 34 45  1  0  0  0  0
 35 65  1  0  0  0  0
 36 38  1  0  0  0  0
 37 39  1  0  0  0  0
 37 40  1  0  0  0  0
 38 44  1  0  0  0  0
 39 47  1  0  0  0  0
 40 66  1  0  0  0  0
 41 47  1  0  0  0  0
 41 66  1  0  0  0  0
 42 46  1  0  0  0  0
 42 72  1  0  0  0  0
 43 46  1  0  0  0  0
 43 72  1  0  0  0  0
 44 69  1  0  0  0  0
 45 65  1  0  0  0  0
 46 55  1  0  0  0  0
 47 64  1  0  0  0  0
 48 61  1  0  0  0  0
 49 62  1  0  0  0  0
 50 62  1  0  0  0  0
 51 62  1  0  0  0  0
 52 73  1  0  0  0  0
 53 74  1  0  0  0  0
 54 74  1  0  0  0  0
 55 71  1  0  0  0  0
 56 58  1  0  0  0  0
 56 71  1  0  0  0  0
 57 59  1  0  0  0  0
 57 72  1  0  0  0  0
 58 74  1  0  0  0  0
 59 81  1  0  0  0  0
 60 62  1  0  0  0  0
 60 70  1  0  0  0  0
 61 73  1  0  0  0  0
 63 64  1  0  0  0  0
M  CHG  3  72   1  73   1  74   1
M  ISO  4  32 100  59 101  71 100  81 101
M  END
> <Batch ID>
0185

> <Smiles>
CNC(C)C(=O)NC(C(=O)N1Cc2cc([101O:1][101CH2:1]CN3CC(C[100N:0](CCN(C)C)[100C:0](=O)N4CCCC(n5nc(-c6ccc(Oc7ccc(F)cc7F)cc6)c(C(N)=O)c5N)C4)C3)ccc2CC1C(=O)NC1CCCc2ccccc21)C(C)(C)C

> <Shape>
0.284

> <Color>
0.075

> <Negative vol penalty>
0.000

$$$$

  -OEChem-04052323123D

 87 96  0     1  0  0  0  0  0999 V2000
  -36.4630   -6.3415   26.1571 C   0  0  0  0  0  0  0  0  0  0  0  0
  -35.8139   -7.1648   25.2426 C   0  0  0  0  0  0  0  0  0  0  0  0
  -23.0002   -9.8913   19.9821 C   0  0  0  0  0  0  0  0  0  0  0  0
  -23.7253   -9.9449   22.2861 C   0  0  0  0  0  0  0  0  0  0  0  0
  -37.7000   -6.7193   26.6779 C   0  0  0  0  0  0  0  0  0  0  0  0
  -36.4009   -8.3669   24.8492 C   0  0  0  0  0  0  0  0  0  0  0  0
  -36.9372  -12.7298   19.1929 C   0  0  0  0  0  0  0  0  0  0  0  0
  -22.2343   -8.7567   20.2495 C   0  0  0  0  0  0  0  0  0  0  0  0
  -22.9593   -8.8103   22.5535 C   0  0  0  0  0  0  0  0  0  0  0  0
  -36.7631  -14.0687   18.8450 C   0  0  0  0  0  0  0  0  0  0  0  0
  -23.2053   -5.4710   22.0849 C   0  0  0  0  0  0  0  0  0  0  0  0
  -23.7933   -4.4549   22.8380 C   0  0  0  0  0  0  0  0  0  0  0  0
  -38.9395  -14.5807   19.7506 C   0  0  0  0  0  0  0  0  0  0  0  0
  -22.0692   -4.6986   24.5129 C   0  0  0  0  0  0  0  0  0  0  0  0
  -29.7821  -17.7103   22.6629 C   0  0  0  0  0  0  0  0  0  0  0  0
  -23.7458  -10.4854   21.0004 C   0  0  0  0  0  0  0  0  0  0  0  0
  -24.1299  -13.0010   20.8219 C   0  0  0  0  0  0  0  0  0  0  0  0
  -38.3069   -7.9220   26.2833 C   0  0  0  0  0  0  0  0  0  0  0  0
  -38.1112  -12.3077   19.8331 C   0  0  0  0  0  0  0  0  0  0  0  0
  -37.6465   -8.7617   25.3662 C   0  0  0  0  0  0  0  0  0  0  0  0
  -39.1272  -13.2355   20.1032 C   0  0  0  0  0  0  0  0  0  0  0  0
  -22.2138   -8.2162   21.5352 C   0  0  0  0  0  0  0  0  0  0  0  0
  -37.7631  -14.9949   19.1264 C   0  0  0  0  0  0  0  0  0  0  0  0
  -22.0493   -6.1011   22.5458 C   0  0  0  0  0  0  0  0  0  0  0  0
  -23.2253   -4.0686   24.0520 C   0  0  0  0  0  0  0  0  0  0  0  0
  -21.4812   -5.7148   23.7598 C   0  0  0  0  0  0  0  0  0  0  0  0
  -24.5377  -11.6571   20.7246 C   0  0  0  0  0  0  0  0  0  0  0  0
  -32.2297  -18.4852   21.9305 C   0  0  0  0  0  0  0  0  0  0  0  0
  -30.5798  -16.9023   21.8831 C   0  0  0  0  0  0  0  0  0  0  0  0
  -31.4316  -19.2935   22.7098 C   0  0  0  0  0  0  0  0  0  0  0  0
  -25.2393  -13.7238   20.4568 C   0  0  0  0  0  0  0  0  0  0  0  0
  -22.8617  -13.5472   21.2078 C   0  0  0  0  0  0  0  0  0  0  0  0
  -38.7823  -10.9915   22.6476 C   0  0  0  0  0  0  0  0  0  0  0  0
  -41.7734  -10.8010   21.4067 C   0  0  0  0  0  0  0  0  0  0  0  0
  -44.0646  -11.9885   19.1737 C   0  0  0  0  0  0  0  0  0  0  0  0
  -30.7183  -14.6878   20.6900 C   0  0  0  0  0  0  0  0  0  0  0  0
  -39.6228   -8.3106   26.9095 C   0  0  0  0  0  0  0  0  0  0  0  0
  -38.2948  -10.8551   20.1778 C   0  0  0  0  0  0  0  0  0  0  0  0
  -40.4148  -12.8296   20.7708 C   0  0  0  0  0  0  0  0  0  0  0  0
  -40.3512   -9.4211   26.1567 C   0  0  0  0  0  0  0  0  0  0  0  0
  -29.6013  -12.2321   18.3665 C   0  0  0  0  0  0  0  0  0  0  0  0
  -39.3887  -10.5536   25.8134 C   0  0  0  0  0  0  0  0  0  0  0  0
  -28.1508  -11.9742   18.7808 C   0  0  0  0  0  0  0  0  0  0  0  0
  -34.6522  -17.9380   22.0680 C   0  0  0  0  0  0  0  0  0  0  0  0
  -33.6917  -18.9977   19.9845 C   0  0  0  0  0  0  0  0  0  0  0  0
  -30.5017  -12.4771   19.5760 C   0  0  0  0  0  0  0  0  0  0  0  0
  -28.5859  -13.2664   20.9087 C   0  0  0  0  0  0  0  0  0  0  0  0
  -36.0539  -18.3009   21.5947 C   0  0  0  0  0  0  0  0  0  0  0  0
  -35.1007  -19.3527   19.5272 C   0  0  0  0  0  0  0  0  0  0  0  0
  -38.2626  -10.0615   24.8961 C   0  0  1  0  0  0  0  0  0  0  0  0
  -33.6004  -18.9142   21.5167 C   0  0  0  0  0  0  0  0  0  0  0  0
  -39.3144  -10.6292   21.2899 C   0  0  1  0  0  0  0  0  0  0  0  0
  -27.6283  -13.0784   19.7207 C   0  0  2  0  0  0  0  0  0  0  0  0
  -46.4354  -11.6584   18.4201 C   0  0  0  0  0  0  0  0  0  0  0  0
  -42.7657  -12.2491   23.9024 C   0  0  0  0  0  0  0  0  0  0  0  0
  -44.9033  -12.7275   22.6899 C   0  0  0  0  0  0  0  0  0  0  0  0
  -44.2262  -10.3687   23.1373 C   0  0  0  0  0  0  0  0  0  0  0  0
  -43.2159  -11.2820   16.4279 C   0  0  0  0  0  0  0  0  0  0  0  0
  -30.9737  -21.2799   23.9348 C   0  0  0  0  0  0  0  0  0  0  0  0
  -37.4694  -18.5761   19.5611 C   0  0  0  0  0  0  0  0  0  0  0  0
  -38.2434  -17.2735   19.6092 C   0  0  0  0  0  0  0  0  0  1  0  0
  -42.9825  -11.7047   21.3879 C   0  0  1  0  0  0  0  0  0  0  0  0
  -44.9808  -11.2759   18.1953 C   0  0  2  0  0  0  0  0  0  0  0  0
  -43.6945  -11.7708   22.7685 C   0  0  0  0  0  0  0  0  0  0  0  0
  -30.1937  -18.9205   23.0902 N   0  0  0  0  0  0  0  0  0  0  0  0
  -25.8071  -11.5309   20.3286 N   0  0  0  0  0  0  0  0  0  0  0  0
  -31.8180  -17.2752   21.5029 N   0  0  0  0  0  0  0  0  0  0  0  0
  -26.2064  -12.8047   20.1737 N   0  0  0  0  0  0  0  0  0  0  0  0
  -40.5445  -11.3992   21.0940 N   0  0  0  0  0  0  0  0  0  0  0  0
  -29.9461  -13.5386   20.4183 N   0  0  0  0  0  0  0  0  0  0  0  0
  -25.4721  -15.0495   20.3535 N   0  0  0  0  0  0  0  0  0  0  0  0
  -21.8303  -12.6629   21.5522 N   0  0  0  0  0  0  0  0  0  0  0  0
  -30.0735  -15.6435   21.4746 N   0  0  0  0  0  0  0  0  0  0  0  0
  -38.7387   -9.9336   23.5354 N   0  0  0  0  0  0  0  0  0  0  0  0
  -43.8307  -11.2289   20.3004 N   0  0  0  0  0  0  0  0  0  0  0  0
  -36.0965  -18.3498   20.0790 N   0  3  0  0  0  0  0  0  0  0  0  0
  -44.6142  -11.6253   16.7937 N   0  3  0  0  0  0  0  0  0  0  0  0
  -22.6443  -14.7824   21.2304 O   0  0  0  0  0  0  0  0  0  0  0  0
  -38.4382  -12.1458   22.8733 O   0  0  0  0  0  0  0  0  0  0  0  0
  -41.9151   -9.6069   21.6816 O   0  0  0  0  0  0  0  0  0  0  0  0
  -43.6056  -13.1087   18.9614 O   0  0  0  0  0  0  0  0  0  0  0  0
  -31.8569  -14.8269   20.2359 O   0  0  0  0  0  0  0  0  0  0  0  0
  -21.4662   -7.1092   21.7966 O   0  0  0  0  0  0  0  0  0  0  0  0
  -37.5955  -16.3024   18.7885 O   0  0  0  0  0  0  0  0  0  1  0  0
  -31.8702  -20.5166   23.1334 O   0  0  0  0  0  0  0  0  0  0  0  0
  -23.7892   -3.0917   24.7744 F   0  0  0  0  0  0  0  0  0  0  0  0
  -20.3701   -6.3155   24.2072 F   0  0  0  0  0  0  0  0  0  0  0  0
  1  2  1  0  0  0  0
  1  5  2  0  0  0  0
  2  6  2  0  0  0  0
  3  8  2  0  0  0  0
  3 16  1  0  0  0  0
  4  9  1  0  0  0  0
  4 16  2  0  0  0  0
  5 18  1  0  0  0  0
  6 20  1  0  0  0  0
  7 10  2  0  0  0  0
  7 19  1  0  0  0  0
  8 22  1  0  0  0  0
  9 22  2  0  0  0  0
 10 23  1  0  0  0  0
 11 12  2  0  0  0  0
 11 24  1  0  0  0  0
 12 25  1  0  0  0  0
 13 21  1  0  0  0  0
 13 23  2  0  0  0  0
 14 25  2  0  0  0  0
 14 26  1  0  0  0  0
 15 29  1  0  0  0  0
 15 65  2  0  0  0  0
 16 27  1  0  0  0  0
 17 27  1  0  0  0  0
 17 31  2  0  0  0  0
 17 32  1  0  0  0  0
 18 20  2  0  0  0  0
 18 37  1  0  0  0  0
 19 21  2  0  0  0  0
 19 38  1  0  0  0  0
 20 50  1  0  0  0  0
 21 39  1  0  0  0  0
 22 83  1  0  0  0  0
 23 84  1  0  0  0  0
 24 26  2  0  0  0  0
 24 83  1  0  0  0  0
 25 86  1  0  0  0  0
 26 87  1  0  0  0  0
 27 66  2  0  0  0  0
 28 30  2  0  0  0  0
 28 51  1  0  0  0  0
 28 67  1  0  0  0  0
 29 67  2  0  0  0  0
 29 73  1  0  0  0  0
 30 65  1  0  0  0  0
 30 85  1  0  0  0  0
 31 68  1  0  0  0  0
 31 71  1  0  0  0  0
 32 72  1  0  0  0  0
 32 78  2  0  0  0  0
 33 52  1  0  0  0  0
 33 74  1  0  0  0  0
 33 79  2  0  0  0  0
 34 62  1  0  0  0  0
 34 69  1  0  0  0  0
 34 80  2  0  0  0  0
 35 63  1  0  0  0  0
 35 75  1  0  0  0  0
 35 81  2  0  0  0  0
 36 70  1  0  0  0  0
 36 73  1  0  0  0  0
 36 82  2  0  0  0  0
 37 40  1  0  0  0  0
 38 52  1  0  0  0  0
 39 69  1  0  0  0  0
 40 42  1  0  0  0  0
 41 43  1  0  0  0  0
 41 46  1  0  0  0  0
 42 50  1  0  0  0  0
 43 53  1  0  0  0  0
 44 48  1  0  0  0  0
 44 51  1  0  0  0  0
 45 49  1  0  0  0  0
 45 51  1  0  0  0  0
 46 70  1  0  0  0  0
 47 53  1  0  0  0  0
 47 70  1  0  0  0  0
 48 76  1  0  0  0  0
 49 76  1  0  0  0  0
 50 74  1  0  0  0  0
 52 69  1  0  0  0  0
 53 68  1  0  0  0  0
 54 63  1  0  0  0  0
 55 64  1  0  0  0  0
 56 64  1  0  0  0  0
 57 64  1  0  0  0  0
 58 77  1  0  0  0  0
 59 85  1  0  0  0  0
 60 61  1  0  0  0  0
 60 76  1  0  0  0  0
 61 84  1  0  0  0  0
 62 64  1  0  0  0  0
 62 75  1  0  0  0  0
 63 77  1  0  0  0  0
 66 68  1  0  0  0  0
M  CHG  2  76   1  77   1
M  ISO  4  36 100  61 101  73 100  84 101
M  END
> <Batch ID>
0185

> <Smiles>
CNC(C)C(=O)NC(C(=O)N1Cc2cc([101O:1][101CH2:1]CN3CCC(c4nc([100NH:0][100C:0](=O)N5CCCC(n6nc(-c7ccc(Oc8ccc(F)cc8F)cc7)c(C(N)=O)c6N)C5)cnc4OC)CC3)ccc2CC1C(=O)NC1CCCc2ccccc21)C(C)(C)C

> <Shape>
0.173

> <Color>
0.182

> <Negative vol penalty>
0.000

$$$$

  -OEChem-04052323123D

 80 88  0     1  0  0  0  0  0999 V2000
  -24.2334  -18.4447   25.9513 C   0  0  0  0  0  0  0  0  0  0  0  0
  -25.0251  -19.5736   25.7733 C   0  0  0  0  0  0  0  0  0  0  0  0
  -25.4743  -13.3253   21.8595 C   0  0  0  0  0  0  0  0  0  0  0  0
  -26.3932  -13.3114   19.6251 C   0  0  0  0  0  0  0  0  0  0  0  0
  -23.0621  -18.2958   25.2117 C   0  0  0  0  0  0  0  0  0  0  0  0
  -24.6397  -20.5596   24.8643 C   0  0  0  0  0  0  0  0  0  0  0  0
  -27.4864  -25.6488   23.0971 C   0  0  0  0  0  0  0  0  0  0  0  0
  -24.4597  -12.4612   21.4476 C   0  0  0  0  0  0  0  0  0  0  0  0
  -25.3787  -12.4473   19.2132 C   0  0  0  0  0  0  0  0  0  0  0  0
  -28.3669  -26.0382   22.0886 C   0  0  0  0  0  0  0  0  0  0  0  0
  -24.0991   -9.1555   20.8353 C   0  0  0  0  0  0  0  0  0  0  0  0
  -23.7957   -8.0722   21.6599 C   0  0  0  0  0  0  0  0  0  0  0  0
  -26.5052  -26.8411   20.7815 C   0  0  0  0  0  0  0  0  0  0  0  0
  -21.5335   -8.8864   21.8974 C   0  0  0  0  0  0  0  0  0  0  0  0
  -31.1762  -25.1927   18.6800 C   0  0  0  0  0  0  0  0  0  0  0  0
  -26.4410  -13.7504   20.9482 C   0  0  0  0  0  0  0  0  0  0  0  0
  -28.7485  -14.2898   21.8929 C   0  0  0  0  0  0  0  0  0  0  0  0
  -22.6693  -19.2750   24.2844 C   0  0  0  0  0  0  0  0  0  0  0  0
  -26.1054  -25.8430   22.9503 C   0  0  0  0  0  0  0  0  0  0  0  0
  -23.4486  -20.4390   24.1258 C   0  0  0  0  0  0  0  0  0  0  0  0
  -25.6095  -26.4556   21.7906 C   0  0  0  0  0  0  0  0  0  0  0  0
  -24.4119  -12.0222   20.1245 C   0  0  0  0  0  0  0  0  0  0  0  0
  -27.8761  -26.6318   20.9294 C   0  0  0  0  0  0  0  0  0  0  0  0
  -23.1197  -10.1043   20.5418 C   0  0  0  0  0  0  0  0  0  0  0  0
  -22.5129   -7.9376   22.1909 C   0  0  0  0  0  0  0  0  0  0  0  0
  -21.8369   -9.9698   21.0728 C   0  0  0  0  0  0  0  0  0  0  0  0
  -27.4890  -14.6435   21.3730 C   0  0  0  0  0  0  0  0  0  0  0  0
  -30.1026  -25.4590   17.8678 C   0  0  0  0  0  0  0  0  0  0  0  0
  -29.3678  -15.4907   22.1393 C   0  0  0  0  0  0  0  0  0  0  0  0
  -29.3085  -12.9917   22.1318 C   0  0  0  0  0  0  0  0  0  0  0  0
  -23.5710  -23.9282   22.8322 C   0  0  0  0  0  0  0  0  0  0  0  0
  -21.9397  -26.7319   22.8318 C   0  0  0  0  0  0  0  0  0  0  0  0
  -21.9316  -30.0791   22.1658 C   0  0  0  0  0  0  0  0  0  0  0  0
  -30.7702  -20.5346   20.5457 C   0  0  0  0  0  0  0  0  0  0  0  0
  -21.3880  -19.0668   23.5162 C   0  0  0  0  0  0  0  0  0  0  0  0
  -25.1712  -25.4417   24.0588 C   0  0  0  0  0  0  0  0  0  0  0  0
  -24.1374  -26.7048   21.5929 C   0  0  0  0  0  0  0  0  0  0  0  0
  -21.2944  -19.9391   22.2686 C   0  0  0  0  0  0  0  0  0  0  0  0
  -27.5343  -20.2056   22.1327 C   0  0  0  0  0  0  0  0  0  0  0  0
  -21.6214  -21.3832   22.6183 C   0  0  0  0  0  0  0  0  0  0  0  0
  -27.3409  -18.6882   22.1173 C   0  0  0  0  0  0  0  0  0  0  0  0
  -28.2266  -20.6875   20.8612 C   0  0  0  0  0  0  0  0  0  0  0  0
  -29.3415  -18.5095   20.5663 C   0  0  0  0  0  0  0  0  0  0  0  0
  -23.0653  -21.5099   23.1206 C   0  0  1  0  0  0  0  0  0  0  0  0
  -23.7392  -25.2193   23.5822 C   0  0  1  0  0  0  0  0  0  0  0  0
  -28.6668  -17.9571   21.8351 C   0  0  2  0  0  0  0  0  0  0  0  0
  -20.4414  -32.0971   22.2317 C   0  0  0  0  0  0  0  0  0  0  0  0
  -20.5117  -25.7564   20.3180 C   0  0  0  0  0  0  0  0  0  0  0  0
  -19.7784  -28.1142   19.9038 C   0  0  0  0  0  0  0  0  0  0  0  0
  -19.0388  -26.9241   21.9677 C   0  0  0  0  0  0  0  0  0  0  0  0
  -23.7007  -31.4664   24.0905 C   0  0  0  0  0  0  0  0  0  0  0  0
  -29.3910  -26.7692   17.6324 C   0  0  0  0  0  0  0  0  0  0  0  0
  -32.4063  -23.0415   19.1097 C   0  0  0  0  0  0  0  0  0  0  0  0
  -32.0699  -22.6483   20.5458 C   0  0  0  0  0  0  0  0  0  0  0  0
  -28.2372  -26.9855   18.6055 C   0  0  0  0  0  0  0  0  0  1  0  0
  -21.4432  -27.6798   21.7668 C   0  0  1  0  0  0  0  0  0  0  0  0
  -21.4684  -31.2685   22.9876 C   0  0  2  0  0  0  0  0  0  0  0  0
  -20.2206  -27.1123   20.9917 C   0  0  0  0  0  0  0  0  0  0  0  0
  -27.3168  -15.9656   21.2934 N   0  0  0  0  0  0  0  0  0  0  0  0
  -29.7105  -24.3128   17.2339 N   0  0  0  0  0  0  0  0  0  0  0  0
  -30.5136  -23.3317   17.6308 N   0  0  0  0  0  0  0  0  0  0  0  0
  -31.3916  -23.8613   18.4979 N   0  0  0  0  0  0  0  0  0  0  0  0
  -28.4762  -16.4532   21.7668 N   0  0  0  0  0  0  0  0  0  0  0  0
  -23.2637  -26.2891   22.7026 N   0  0  0  0  0  0  0  0  0  0  0  0
  -29.4910  -19.9655   20.6607 N   0  0  0  0  0  0  0  0  0  0  0  0
  -30.5825  -15.8067   22.6362 N   0  0  0  0  0  0  0  0  0  0  0  0
  -28.5366  -11.8637   21.8221 N   0  0  0  0  0  0  0  0  0  0  0  0
  -23.2701  -22.8455   23.6364 N   0  0  0  0  0  0  0  0  0  0  0  0
  -21.1882  -28.9500   22.4376 N   0  0  0  0  0  0  0  0  0  0  0  0
  -30.8242  -21.9199   20.6391 N   0  0  0  0  0  0  0  0  0  0  0  0
  -22.6243  -32.1465   23.3251 N   0  3  0  0  0  0  0  0  0  0  0  0
  -30.4531  -12.8369   22.6211 O   0  0  0  0  0  0  0  0  0  0  0  0
  -23.7030  -23.9155   21.6140 O   0  0  0  0  0  0  0  0  0  0  0  0
  -21.1830  -26.4024   23.7486 O   0  0  0  0  0  0  0  0  0  0  0  0
  -22.8576  -30.1459   21.3605 O   0  0  0  0  0  0  0  0  0  0  0  0
  -31.7902  -19.8575   20.3775 O   0  0  0  0  0  0  0  0  0  0  0  0
  -23.4222  -11.1789   19.7223 O   0  0  0  0  0  0  0  0  0  0  0  0
  -28.7332  -27.0123   19.9433 O   0  0  0  0  0  0  0  0  0  1  0  0
  -22.2213   -6.8964   22.9815 F   0  0  0  0  0  0  0  0  0  0  0  0
  -20.8915  -10.8775   20.7934 F   0  0  0  0  0  0  0  0  0  0  0  0
  1  2  1  0  0  0  0
  1  5  2  0  0  0  0
  2  6  2  0  0  0  0
  3  8  2  0  0  0  0
  3 16  1  0  0  0  0
  4  9  1  0  0  0  0
  4 16  2  0  0  0  0
  5 18  1  0  0  0  0
  6 20  1  0  0  0  0
  7 10  2  0  0  0  0
  7 19  1  0  0  0  0
  8 22  1  0  0  0  0
  9 22  2  0  0  0  0
 10 23  1  0  0  0  0
 11 12  2  0  0  0  0
 11 24  1  0  0  0  0
 12 25  1  0  0  0  0
 13 21  1  0  0  0  0
 13 23  2  0  0  0  0
 14 25  2  0  0  0  0
 14 26  1  0  0  0  0
 15 28  2  0  0  0  0
 15 62  1  0  0  0  0
 16 27  1  0  0  0  0
 17 27  1  0  0  0  0
 17 29  2  0  0  0  0
 17 30  1  0  0  0  0
 18 20  2  0  0  0  0
 18 35  1  0  0  0  0
 19 21  2  0  0  0  0
 19 36  1  0  0  0  0
 20 44  1  0  0  0  0
 21 37  1  0  0  0  0
 22 77  1  0  0  0  0
 23 78  1  0  0  0  0
 24 26  2  0  0  0  0
 24 77  1  0  0  0  0
 25 79  1  0  0  0  0
 26 80  1  0  0  0  0
 27 59  2  0  0  0  0
 28 52  1  0  0  0  0
 28 60  1  0  0  0  0
 29 63  1  0  0  0  0
 29 66  1  0  0  0  0
 30 67  1  0  0  0  0
 30 72  2  0  0  0  0
 31 45  1  0  0  0  0
 31 68  1  0  0  0  0
 31 73  2  0  0  0  0
 32 56  1  0  0  0  0
 32 64  1  0  0  0  0
 32 74  2  0  0  0  0
 33 57  1  0  0  0  0
 33 69  1  0  0  0  0
 33 75  2  0  0  0  0
 34 65  1  0  0  0  0
 34 70  1  0  0  0  0
 34 76  2  0  0  0  0
 35 38  1  0  0  0  0
 36 45  1  0  0  0  0
 37 64  1  0  0  0  0
 38 40  1  0  0  0  0
 39 41  1  0  0  0  0
 39 42  1  0  0  0  0
 40 44  1  0  0  0  0
 41 46  1  0  0  0  0
 42 65  1  0  0  0  0
 43 46  1  0  0  0  0
 43 65  1  0  0  0  0
 44 68  1  0  0  0  0
 45 64  1  0  0  0  0
 46 63  1  0  0  0  0
 47 57  1  0  0  0  0
 48 58  1  0  0  0  0
 49 58  1  0  0  0  0
 50 58  1  0  0  0  0
 51 71  1  0  0  0  0
 52 55  1  0  0  0  0
 53 54  1  0  0  0  0
 53 62  1  0  0  0  0
 54 70  1  0  0  0  0
 55 78  1  0  0  0  0
 56 58  1  0  0  0  0
 56 69  1  0  0  0  0
 57 71  1  0  0  0  0
 59 63  1  0  0  0  0
 60 61  2  0  0  0  0
 61 62  1  0  0  0  0
M  CHG  1  71   1
M  ISO  4  34 100  55 101  70 100  78 101
M  END
> <Batch ID>
0185

> <Smiles>
CNC(C)C(=O)NC(C(=O)N1Cc2cc([101O:1][101CH2:1]Cc3cn(CC[100NH:0][100C:0](=O)N4CCCC(n5nc(-c6ccc(Oc7ccc(F)cc7F)cc6)c(C(N)=O)c5N)C4)nn3)ccc2CC1C(=O)NC1CCCc2ccccc21)C(C)(C)C

> <Shape>
0.237

> <Color>
0.064

> <Negative vol penalty>
0.000

$$$$

  -OEChem-04052323123D

 85 94  0     1  0  0  0  0  0999 V2000
  -28.4580  -23.1661   19.1835 C   0  0  0  0  0  0  0  0  0  0  0  0
  -27.2804  -23.4904   19.8495 C   0  0  0  0  0  0  0  0  0  0  0  0
  -23.6608  -12.7554   21.4255 C   0  0  0  0  0  0  0  0  0  0  0  0
  -25.2198  -11.9289   19.7752 C   0  0  0  0  0  0  0  0  0  0  0  0
  -29.6358  -23.8515   19.4784 C   0  0  0  0  0  0  0  0  0  0  0  0
  -27.2802  -24.4998   20.8116 C   0  0  0  0  0  0  0  0  0  0  0  0
  -23.3287  -27.6317   20.3408 C   0  0  0  0  0  0  0  0  0  0  0  0
  -22.8256  -11.6649   21.1827 C   0  0  0  0  0  0  0  0  0  0  0  0
  -24.3846  -10.8384   19.5324 C   0  0  0  0  0  0  0  0  0  0  0  0
  -22.0996  -27.1828   20.8219 C   0  0  0  0  0  0  0  0  0  0  0  0
  -20.4563   -8.9088   21.2560 C   0  0  0  0  0  0  0  0  0  0  0  0
  -19.9177   -8.2462   22.3590 C   0  0  0  0  0  0  0  0  0  0  0  0
  -22.4177  -28.4817   22.8295 C   0  0  0  0  0  0  0  0  0  0  0  0
  -22.1460   -7.7325   23.1386 C   0  0  0  0  0  0  0  0  0  0  0  0
  -18.6784  -23.7222   23.4268 C   0  0  0  0  0  0  0  0  0  0  0  0
  -24.8578  -12.8875   20.7217 C   0  0  0  0  0  0  0  0  0  0  0  0
  -26.7623  -14.0941   21.9152 C   0  0  0  0  0  0  0  0  0  0  0  0
  -29.6479  -24.8762   20.4378 C   0  0  0  0  0  0  0  0  0  0  0  0
  -24.1179  -28.5019   21.1065 C   0  0  0  0  0  0  0  0  0  0  0  0
  -28.4595  -25.1986   21.1206 C   0  0  0  0  0  0  0  0  0  0  0  0
  -23.6553  -28.9423   22.3548 C   0  0  0  0  0  0  0  0  0  0  0  0
  -23.1876  -10.7064   20.2362 C   0  0  0  0  0  0  0  0  0  0  0  0
  -21.6452  -27.6055   22.0676 C   0  0  0  0  0  0  0  0  0  0  0  0
  -21.8398   -8.9832   21.0943 C   0  0  0  0  0  0  0  0  0  0  0  0
  -20.7625   -7.6581   23.3003 C   0  0  0  0  0  0  0  0  0  0  0  0
  -22.6846   -8.3951   22.0356 C   0  0  0  0  0  0  0  0  0  0  0  0
  -25.7207  -14.0140   20.9716 C   0  0  0  0  0  0  0  0  0  0  0  0
  -19.1239  -22.5020   22.9609 C   0  0  0  0  0  0  0  0  0  0  0  0
  -19.6632  -24.6236   23.7760 C   0  0  0  0  0  0  0  0  0  0  0  0
  -27.2701  -15.3608   21.7594 C   0  0  0  0  0  0  0  0  0  0  0  0
  -21.2910  -23.1401   23.2133 C   0  0  0  0  0  0  0  0  0  0  0  0
  -27.2292  -13.1114   22.8490 C   0  0  0  0  0  0  0  0  0  0  0  0
  -27.0119  -28.3435   22.4117 C   0  0  0  0  0  0  0  0  0  0  0  0
  -26.4343  -31.4549   23.1244 C   0  0  0  0  0  0  0  0  0  0  0  0
  -24.1438  -33.9256   23.6684 C   0  0  0  0  0  0  0  0  0  0  0  0
  -24.6228  -20.3373   19.4717 C   0  0  0  0  0  0  0  0  0  0  0  0
  -30.9555  -25.5568   20.7565 C   0  0  0  0  0  0  0  0  0  0  0  0
  -25.4292  -28.9981   20.5617 C   0  0  0  0  0  0  0  0  0  0  0  0
  -24.4554  -29.8921   23.2070 C   0  0  0  0  0  0  0  0  0  0  0  0
  -30.7895  -26.8677   21.5209 C   0  0  0  0  0  0  0  0  0  0  0  0
  -27.8116  -18.8102   18.4856 C   0  0  0  0  0  0  0  0  0  0  0  0
  -29.8033  -26.6935   22.6715 C   0  0  0  0  0  0  0  0  0  0  0  0
  -27.7011  -17.3961   19.0574 C   0  0  0  0  0  0  0  0  0  0  0  0
  -24.6089  -21.3699   23.0002 C   0  0  0  0  0  0  0  0  0  0  0  0
  -26.4469  -19.3833   18.1104 C   0  0  0  0  0  0  0  0  0  0  0  0
  -25.0506  -20.3077   21.9989 C   0  0  0  0  0  0  0  0  0  0  0  0
  -25.3374  -17.9257   19.7589 C   0  0  0  0  0  0  0  0  0  0  0  0
  -23.1824  -21.5217   21.1038 C   0  0  0  0  0  0  0  0  0  0  0  0
  -28.4137  -26.3042   22.1530 C   0  0  1  0  0  0  0  0  0  0  0  0
  -26.3854  -29.4769   21.6497 C   0  0  1  0  0  0  0  0  0  0  0  0
  -26.6829  -17.3419   20.2117 C   0  0  1  0  0  0  0  0  0  0  0  0
  -23.1463  -21.5796   22.6236 C   0  0  2  0  0  0  0  0  0  0  0  0
  -18.1326  -21.4621   22.5589 C   0  0  0  0  0  0  0  0  0  0  0  0
  -23.9732  -36.3562   24.2688 C   0  0  0  0  0  0  0  0  0  0  0  0
  -27.0865  -30.7809   26.0279 C   0  0  0  0  0  0  0  0  0  0  0  0
  -26.0009  -32.9349   26.6988 C   0  0  0  0  0  0  0  0  0  0  0  0
  -28.0161  -32.9607   25.2288 C   0  0  0  0  0  0  0  0  0  0  0  0
  -22.7817  -34.5781   21.1232 C   0  0  0  0  0  0  0  0  0  0  0  0
  -19.2785  -25.9701   24.2905 C   0  0  0  0  0  0  0  0  0  0  0  0
  -20.3069  -27.0541   23.9547 C   0  0  0  0  0  0  0  0  0  1  0  0
  -25.8026  -32.1866   24.2839 C   0  0  1  0  0  0  0  0  0  0  0  0
  -24.0466  -35.3440   23.1362 C   0  0  2  0  0  0  0  0  0  0  0  0
  -26.7121  -32.1964   25.5449 C   0  0  0  0  0  0  0  0  0  0  0  0
  -25.5741  -15.1401   20.2685 N   0  0  0  0  0  0  0  0  0  0  0  0
  -20.4276  -22.1761   22.8408 N   0  0  0  0  0  0  0  0  0  0  0  0
  -20.9840  -24.3648   23.6818 N   0  0  0  0  0  0  0  0  0  0  0  0
  -26.5303  -15.9399   20.7707 N   0  0  0  0  0  0  0  0  0  0  0  0
  -25.7338  -30.3440   22.6334 N   0  0  0  0  0  0  0  0  0  0  0  0
  -25.5100  -19.2828   19.2296 N   0  0  0  0  0  0  0  0  0  0  0  0
  -24.2640  -20.5892   20.7952 N   0  0  0  0  0  0  0  0  0  0  0  0
  -28.2727  -16.0245   22.3730 N   0  0  0  0  0  0  0  0  0  0  0  0
  -26.5951  -11.8618   22.8769 N   0  0  0  0  0  0  0  0  0  0  0  0
  -22.6418  -22.8393   23.1028 N   0  0  0  0  0  0  0  0  0  0  0  0
  -27.7288  -27.4638   21.6233 N   0  0  0  0  0  0  0  0  0  0  0  0
  -25.4543  -33.5137   23.7881 N   0  0  0  0  0  0  0  0  0  0  0  0
  -22.8299  -35.4972   22.2893 N   0  3  0  0  0  0  0  0  0  0  0  0
  -28.1698  -13.3405   23.6467 O   0  0  0  0  0  0  0  0  0  0  0  0
  -26.8576  -28.2731   23.6254 O   0  0  0  0  0  0  0  0  0  0  0  0
  -27.5063  -31.8584   22.6664 O   0  0  0  0  0  0  0  0  0  0  0  0
  -23.1562  -33.2519   23.9532 O   0  0  0  0  0  0  0  0  0  0  0  0
  -24.2062  -21.0528   18.5510 O   0  0  0  0  0  0  0  0  0  0  0  0
  -22.3730   -9.6420   19.9992 O   0  0  0  0  0  0  0  0  0  0  0  0
  -20.4377  -27.1652   22.5432 O   0  0  0  0  0  0  0  0  0  1  0  0
  -20.2451   -7.0232   24.3602 F   0  0  0  0  0  0  0  0  0  0  0  0
  -24.0146   -8.4643   21.8862 F   0  0  0  0  0  0  0  0  0  0  0  0
  1  2  1  0  0  0  0
  1  5  2  0  0  0  0
  2  6  2  0  0  0  0
  3  8  2  0  0  0  0
  3 16  1  0  0  0  0
  4  9  1  0  0  0  0
  4 16  2  0  0  0  0
  5 18  1  0  0  0  0
  6 20  1  0  0  0  0
  7 10  2  0  0  0  0
  7 19  1  0  0  0  0
  8 22  1  0  0  0  0
  9 22  2  0  0  0  0
 10 23  1  0  0  0  0
 11 12  2  0  0  0  0
 11 24  1  0  0  0  0
 12 25  1  0  0  0  0
 13 21  1  0  0  0  0
 13 23  2  0  0  0  0
 14 25  2  0  0  0  0
 14 26  1  0  0  0  0
 15 28  2  0  0  0  0
 15 29  1  0  0  0  0
 16 27  1  0  0  0  0
 17 27  1  0  0  0  0
 17 30  2  0  0  0  0
 17 32  1  0  0  0  0
 18 20  2  0  0  0  0
 18 37  1  0  0  0  0
 19 21  2  0  0  0  0
 19 38  1  0  0  0  0
 20 49  1  0  0  0  0
 21 39  1  0  0  0  0
 22 82  1  0  0  0  0
 23 83  1  0  0  0  0
 24 26  2  0  0  0  0
 24 82  1  0  0  0  0
 25 84  1  0  0  0  0
 26 85  1  0  0  0  0
 27 64  2  0  0  0  0
 28 53  1  0  0  0  0
 28 65  1  0  0  0  0
 29 59  1  0  0  0  0
 29 66  2  0  0  0  0
 30 67  1  0  0  0  0
 30 71  1  0  0  0  0
 31 65  2  0  0  0  0
 31 66  1  0  0  0  0
 31 73  1  0  0  0  0
 32 72  1  0  0  0  0
 32 77  2  0  0  0  0
 33 50  1  0  0  0  0
 33 74  1  0  0  0  0
 33 78  2  0  0  0  0
 34 61  1  0  0  0  0
 34 68  1  0  0  0  0
 34 79  2  0  0  0  0
 35 62  1  0  0  0  0
 35 75  1  0  0  0  0
 35 80  2  0  0  0  0
 36 69  1  0  0  0  0
 36 70  1  0  0  0  0
 36 81  2  0  0  0  0
 37 40  1  0  0  0  0
 38 50  1  0  0  0  0
 39 68  1  0  0  0  0
 40 42  1  0  0  0  0
 41 43  1  0  0  0  0
 41 45  1  0  0  0  0
 42 49  1  0  0  0  0
 43 51  1  0  0  0  0
 44 46  1  0  0  0  0
 44 52  1  0  0  0  0
 45 69  1  0  0  0  0
 46 70  1  0  0  0  0
 47 51  1  0  0  0  0
 47 69  1  0  0  0  0
 48 52  1  0  0  0  0
 48 70  1  0  0  0  0
 49 74  1  0  0  0  0
 50 68  1  0  0  0  0
 51 67  1  0  0  0  0
 52 73  1  0  0  0  0
 54 62  1  0  0  0  0
 55 63  1  0  0  0  0
 56 63  1  0  0  0  0
 57 63  1  0  0  0  0
 58 76  1  0  0  0  0
 59 60  1  0  0  0  0
 60 83  1  0  0  0  0
 61 63  1  0  0  0  0
 61 75  1  0  0  0  0
 62 76  1  0  0  0  0
 64 67  1  0  0  0  0
M  CHG  1  76   1
M  ISO  4  36 100  60 101  70 100  83 101
M  END
> <Batch ID>
0185

> <Smiles>
CNC(C)C(=O)NC(C(=O)N1Cc2cc([101O:1][101CH2:1]Cc3cc(C)nc(NC4CC[100N:0]([100C:0](=O)N5CCCC(n6nc(-c7ccc(Oc8ccc(F)cc8F)cc7)c(C(N)=O)c6N)C5)C4)n3)ccc2CC1C(=O)NC1CCCc2ccccc21)C(C)(C)C

> <Shape>
0.259

> <Color>
0.048

> <Negative vol penalty>
0.000

$$$$

  -OEChem-04052323123D

 85 94  0     1  0  0  0  0  0999 V2000
  -18.6189  -33.8951   23.7354 C   0  0  0  0  0  0  0  0  0  0  0  0
  -19.9452  -33.9064   23.3158 C   0  0  0  0  0  0  0  0  0  0  0  0
  -23.5757   -9.9607   22.0880 C   0  0  0  0  0  0  0  0  0  0  0  0
  -24.2508   -9.0689   19.9465 C   0  0  0  0  0  0  0  0  0  0  0  0
  -18.0525  -32.7171   24.2206 C   0  0  0  0  0  0  0  0  0  0  0  0
  -20.7063  -32.7398   23.3822 C   0  0  0  0  0  0  0  0  0  0  0  0
  -26.0023  -29.3276   19.9726 C   0  0  0  0  0  0  0  0  0  0  0  0
  -22.6622   -8.9169   22.2347 C   0  0  0  0  0  0  0  0  0  0  0  0
  -23.3373   -8.0250   20.0933 C   0  0  0  0  0  0  0  0  0  0  0  0
  -27.2424  -28.7415   20.2224 C   0  0  0  0  0  0  0  0  0  0  0  0
  -22.7303   -5.6518   23.1106 C   0  0  0  0  0  0  0  0  0  0  0  0
  -22.6765   -5.0064   24.3459 C   0  0  0  0  0  0  0  0  0  0  0  0
  -26.1350  -26.7460   21.0042 C   0  0  0  0  0  0  0  0  0  0  0  0
  -20.3558   -5.6384   24.5749 C   0  0  0  0  0  0  0  0  0  0  0  0
  -24.3700  -10.0367   20.9438 C   0  0  0  0  0  0  0  0  0  0  0  0
  -26.6581  -11.1333   21.2075 C   0  0  0  0  0  0  0  0  0  0  0  0
  -18.8041  -31.5332   24.2839 C   0  0  0  0  0  0  0  0  0  0  0  0
  -24.8171  -28.6302   20.2474 C   0  0  0  0  0  0  0  0  0  0  0  0
  -20.1498  -31.5452   23.8700 C   0  0  0  0  0  0  0  0  0  0  0  0
  -24.8812  -27.3245   20.7546 C   0  0  0  0  0  0  0  0  0  0  0  0
  -22.5430   -7.9491   21.2374 C   0  0  0  0  0  0  0  0  0  0  0  0
  -27.3089  -27.4516   20.7410 C   0  0  0  0  0  0  0  0  0  0  0  0
  -21.5970   -6.2906   22.6074 C   0  0  0  0  0  0  0  0  0  0  0  0
  -21.4892   -4.9997   25.0781 C   0  0  0  0  0  0  0  0  0  0  0  0
  -20.4097   -6.2839   23.3395 C   0  0  0  0  0  0  0  0  0  0  0  0
  -25.3134  -11.1151   20.7914 C   0  0  0  0  0  0  0  0  0  0  0  0
  -27.1162  -12.3733   20.8346 C   0  0  0  0  0  0  0  0  0  0  0  0
  -29.8214  -23.4983   17.7302 C   0  0  0  0  0  0  0  0  0  0  0  0
  -30.0617  -24.8920   19.4728 C   0  0  0  0  0  0  0  0  0  0  0  0
  -28.8200  -23.0345   19.6844 C   0  0  0  0  0  0  0  0  0  0  0  0
  -27.4247  -10.1199   21.8717 C   0  0  0  0  0  0  0  0  0  0  0  0
  -22.3404  -29.0924   22.1854 C   0  0  0  0  0  0  0  0  0  0  0  0
  -21.1482  -26.4995   20.6434 C   0  0  0  0  0  0  0  0  0  0  0  0
  -21.7582  -23.6652   18.8430 C   0  0  0  0  0  0  0  0  0  0  0  0
  -26.4275  -17.8092   20.7068 C   0  0  0  0  0  0  0  0  0  0  0  0
  -18.1624  -30.2958   24.8601 C   0  0  0  0  0  0  0  0  0  0  0  0
  -23.4876  -29.2664   19.9472 C   0  0  0  0  0  0  0  0  0  0  0  0
  -23.6384  -26.5258   21.0477 C   0  0  0  0  0  0  0  0  0  0  0  0
  -18.9262  -29.0117   24.5474 C   0  0  0  0  0  0  0  0  0  0  0  0
  -25.0725  -15.9051   17.8822 C   0  0  0  0  0  0  0  0  0  0  0  0
  -20.4174  -29.2008   24.8070 C   0  0  0  0  0  0  0  0  0  0  0  0
  -25.0719  -14.4919   18.4554 C   0  0  0  0  0  0  0  0  0  0  0  0
  -25.2354  -20.8696   21.4086 C   0  0  0  0  0  0  0  0  0  0  0  0
  -24.7850  -16.9646   18.9467 C   0  0  0  0  0  0  0  0  0  0  0  0
  -24.6570  -19.7284   20.5664 C   0  0  0  0  0  0  0  0  0  0  0  0
  -25.6782  -15.4562   20.7018 C   0  0  0  0  0  0  0  0  0  0  0  0
  -21.0004  -30.2940   23.9033 C   0  0  1  0  0  0  0  0  0  0  0  0
  -22.3399  -28.6579   20.7470 C   0  0  1  0  0  0  0  0  0  0  0  0
  -26.0325  -14.3957   19.6499 C   0  0  1  0  0  0  0  0  0  0  0  0
  -26.6396  -20.3244   21.1063 C   0  0  2  0  0  0  0  0  0  0  0  0
  -30.1132  -23.1418   16.3125 C   0  0  0  0  0  0  0  0  0  0  0  0
  -20.5852  -21.7312   17.7561 C   0  0  0  0  0  0  0  0  0  0  0  0
  -20.7179  -25.2246   23.3819 C   0  0  0  0  0  0  0  0  0  0  0  0
  -20.4607  -23.0140   22.2350 C   0  0  0  0  0  0  0  0  0  0  0  0
  -18.8524  -24.8599   21.7567 C   0  0  0  0  0  0  0  0  0  0  0  0
  -22.7742  -24.4048   16.1635 C   0  0  0  0  0  0  0  0  0  0  0  0
  -30.6300  -26.1386   20.0600 C   0  0  0  0  0  0  0  0  0  0  0  0
  -27.4251  -20.9888   19.9929 C   0  0  0  0  0  0  0  0  0  0  0  0
  -29.6073  -27.2753   20.1562 C   0  0  0  0  0  0  0  0  0  1  0  0
  -21.2106  -25.0064   20.8569 C   0  0  1  0  0  0  0  0  0  0  0  0
  -21.1413  -23.1333   17.5619 C   0  0  2  0  0  0  0  0  0  0  0  0
  -20.3340  -24.5417   22.0540 C   0  0  0  0  0  0  0  0  0  0  0  0
  -24.9413  -12.2532   20.1996 N   0  0  0  0  0  0  0  0  0  0  0  0
  -30.3672  -24.6357   18.1907 N   0  0  0  0  0  0  0  0  0  0  0  0
  -29.0396  -22.6496   18.4169 N   0  0  0  0  0  0  0  0  0  0  0  0
  -29.2964  -24.1397   20.2798 N   0  0  0  0  0  0  0  0  0  0  0  0
  -26.0591  -12.9982   20.2412 N   0  0  0  0  0  0  0  0  0  0  0  0
  -22.3622  -27.1938   20.7433 N   0  0  0  0  0  0  0  0  0  0  0  0
  -25.6456  -16.8053   20.1250 N   0  0  0  0  0  0  0  0  0  0  0  0
  -25.9712  -19.1069   20.6413 N   0  0  0  0  0  0  0  0  0  0  0  0
  -28.3161  -12.9791   20.9597 N   0  0  0  0  0  0  0  0  0  0  0  0
  -26.7992   -8.9045   22.1815 N   0  0  0  0  0  0  0  0  0  0  0  0
  -28.0153  -22.2018   20.4614 N   0  0  0  0  0  0  0  0  0  0  0  0
  -21.2068  -29.7859   22.5641 N   0  0  0  0  0  0  0  0  0  0  0  0
  -20.8516  -24.3963   19.5812 N   0  0  0  0  0  0  0  0  0  0  0  0
  -22.1608  -23.0883   16.4759 N   0  3  0  0  0  0  0  0  0  0  0  0
  -28.6240  -10.2933   22.1959 O   0  0  0  0  0  0  0  0  0  0  0  0
  -23.2977  -28.8174   22.8993 O   0  0  0  0  0  0  0  0  0  0  0  0
  -20.0634  -27.0294   20.3900 O   0  0  0  0  0  0  0  0  0  0  0  0
  -22.9263  -23.4503   19.1590 O   0  0  0  0  0  0  0  0  0  0  0  0
  -27.4867  -17.5544   21.2951 O   0  0  0  0  0  0  0  0  0  0  0  0
  -21.6518   -6.9302   21.3804 O   0  0  0  0  0  0  0  0  0  0  0  0
  -28.5265  -26.8734   20.9882 O   0  0  0  0  0  0  0  0  0  1  0  0
  -21.4372   -4.3785   26.2637 F   0  0  0  0  0  0  0  0  0  0  0  0
  -19.3174   -6.8948   22.8608 F   0  0  0  0  0  0  0  0  0  0  0  0
  1  2  1  0  0  0  0
  1  5  2  0  0  0  0
  2  6  2  0  0  0  0
  3  8  2  0  0  0  0
  3 15  1  0  0  0  0
  4  9  1  0  0  0  0
  4 15  2  0  0  0  0
  5 17  1  0  0  0  0
  6 19  1  0  0  0  0
  7 10  2  0  0  0  0
  7 18  1  0  0  0  0
  8 21  1  0  0  0  0
  9 21  2  0  0  0  0
 10 22  1  0  0  0  0
 11 12  2  0  0  0  0
 11 23  1  0  0  0  0
 12 24  1  0  0  0  0
 13 20  1  0  0  0  0
 13 22  2  0  0  0  0
 14 24  2  0  0  0  0
 14 25  1  0  0  0  0
 15 26  1  0  0  0  0
 16 26  1  0  0  0  0
 16 27  2  0  0  0  0
 16 31  1  0  0  0  0
 17 19  2  0  0  0  0
 17 36  1  0  0  0  0
 18 20  2  0  0  0  0
 18 37  1  0  0  0  0
 19 47  1  0  0  0  0
 20 38  1  0  0  0  0
 21 82  1  0  0  0  0
 22 83  1  0  0  0  0
 23 25  2  0  0  0  0
 23 82  1  0  0  0  0
 24 84  1  0  0  0  0
 25 85  1  0  0  0  0
 26 63  2  0  0  0  0
 27 67  1  0  0  0  0
 27 71  1  0  0  0  0
 28 51  1  0  0  0  0
 28 64  2  0  0  0  0
 28 65  1  0  0  0  0
 29 57  1  0  0  0  0
 29 64  1  0  0  0  0
 29 66  2  0  0  0  0
 30 65  2  0  0  0  0
 30 66  1  0  0  0  0
 30 73  1  0  0  0  0
 31 72  1  0  0  0  0
 31 77  2  0  0  0  0
 32 48  1  0  0  0  0
 32 74  1  0  0  0  0
 32 78  2  0  0  0  0
 33 60  1  0  0  0  0
 33 68  1  0  0  0  0
 33 79  2  0  0  0  0
 34 61  1  0  0  0  0
 34 75  1  0  0  0  0
 34 80  2  0  0  0  0
 35 69  1  0  0  0  0
 35 70  1  0  0  0  0
 35 81  2  0  0  0  0
 36 39  1  0  0  0  0
 37 48  1  0  0  0  0
 38 68  1  0  0  0  0
 39 41  1  0  0  0  0
 40 42  1  0  0  0  0
 40 44  1  0  0  0  0
 41 47  1  0  0  0  0
 42 49  1  0  0  0  0
 43 45  1  0  0  0  0
 43 50  1  0  0  0  0
 44 69  1  0  0  0  0
 45 70  1  0  0  0  0
 46 49  1  0  0  0  0
 46 69  1  0  0  0  0
 47 74  1  0  0  0  0
 48 68  1  0  0  0  0
 49 67  1  0  0  0  0
 50 58  1  0  0  0  0
 50 70  1  0  0  0  0
 52 61  1  0  0  0  0
 53 62  1  0  0  0  0
 54 62  1  0  0  0  0
 55 62  1  0  0  0  0
 56 76  1  0  0  0  0
 57 59  1  0  0  0  0
 58 73  1  0  0  0  0
 59 83  1  0  0  0  0
 60 62  1  0  0  0  0
 60 75  1  0  0  0  0
 61 76  1  0  0  0  0
 63 67  1  0  0  0  0
M  CHG  1  76   1
M  ISO  4  35 100  59 101  70 100  83 101
M  END
> <Batch ID>
0185

> <Smiles>
CNC(C)C(=O)NC(C(=O)N1Cc2cc([101O:1][101CH2:1]Cc3nc(C)nc(NCC4CC[100N:0]4[100C:0](=O)N4CCCC(n5nc(-c6ccc(Oc7ccc(F)cc7F)cc6)c(C(N)=O)c5N)C4)n3)ccc2CC1C(=O)NC1CCCc2ccccc21)C(C)(C)C

> <Shape>
0.277

> <Color>
0.136

> <Negative vol penalty>
0.000

$$$$

  -OEChem-04052323123D

 83 92  0     1  0  0  0  0  0999 V2000
  -24.5580  -17.9076   25.7252 C   0  0  0  0  0  0  0  0  0  0  0  0
  -25.4973  -18.9330   25.7632 C   0  0  0  0  0  0  0  0  0  0  0  0
  -26.2076  -12.6658   21.5694 C   0  0  0  0  0  0  0  0  0  0  0  0
  -25.9081  -13.2529   19.2450 C   0  0  0  0  0  0  0  0  0  0  0  0
  -23.6058  -17.8734   24.7074 C   0  0  0  0  0  0  0  0  0  0  0  0
  -25.4856  -19.9244   24.7826 C   0  0  0  0  0  0  0  0  0  0  0  0
  -26.8752  -26.8926   23.8719 C   0  0  0  0  0  0  0  0  0  0  0  0
  -25.0227  -11.9306   21.5363 C   0  0  0  0  0  0  0  0  0  0  0  0
  -24.7232  -12.5177   19.2119 C   0  0  0  0  0  0  0  0  0  0  0  0
  -27.6092  -27.7460   23.0492 C   0  0  0  0  0  0  0  0  0  0  0  0
  -22.2638   -9.6025   21.9650 C   0  0  0  0  0  0  0  0  0  0  0  0
  -22.2685   -8.3380   22.5538 C   0  0  0  0  0  0  0  0  0  0  0  0
  -25.8679  -27.6286   21.3839 C   0  0  0  0  0  0  0  0  0  0  0  0
  -24.0052   -7.6344   21.0286 C   0  0  0  0  0  0  0  0  0  0  0  0
  -26.6503  -13.3270   20.4237 C   0  0  0  0  0  0  0  0  0  0  0  0
  -29.1717  -13.6219   20.1725 C   0  0  0  0  0  0  0  0  0  0  0  0
  -23.5764  -18.8701   23.7193 C   0  0  0  0  0  0  0  0  0  0  0  0
  -25.6349  -26.3913   23.4514 C   0  0  0  0  0  0  0  0  0  0  0  0
  -24.5330  -19.9028   23.7498 C   0  0  0  0  0  0  0  0  0  0  0  0
  -25.1189  -26.7711   22.2042 C   0  0  0  0  0  0  0  0  0  0  0  0
  -24.2805  -11.8565   20.3576 C   0  0  0  0  0  0  0  0  0  0  0  0
  -27.1070  -28.1118   21.8038 C   0  0  0  0  0  0  0  0  0  0  0  0
  -23.1297   -9.8829   20.9079 C   0  0  0  0  0  0  0  0  0  0  0  0
  -23.1392   -7.3540   22.0857 C   0  0  0  0  0  0  0  0  0  0  0  0
  -24.0004   -8.8989   20.4398 C   0  0  0  0  0  0  0  0  0  0  0  0
  -27.8739  -14.0871   20.4574 C   0  0  0  0  0  0  0  0  0  0  0  0
  -29.9763  -14.7215   20.3457 C   0  0  0  0  0  0  0  0  0  0  0  0
  -30.2538  -28.5834   18.4901 C   0  0  0  0  0  0  0  0  0  0  0  0
  -29.6826  -26.5444   19.2334 C   0  0  0  0  0  0  0  0  0  0  0  0
  -28.7147  -28.3698   20.1094 C   0  0  0  0  0  0  0  0  0  1  0  0
  -29.6107  -12.3130   19.7858 C   0  0  0  0  0  0  0  0  0  0  0  0
  -24.4660  -23.4921   22.8752 C   0  0  0  0  0  0  0  0  0  0  0  0
  -21.6834  -25.1154   22.4945 C   0  0  0  0  0  0  0  0  0  0  0  0
  -20.1251  -28.0640   21.7707 C   0  0  0  0  0  0  0  0  0  0  0  0
  -28.8733  -20.5067   19.9327 C   0  0  0  0  0  0  0  0  0  0  0  0
  -22.5578  -18.7648   22.6120 C   0  0  0  0  0  0  0  0  0  0  0  0
  -24.8432  -25.4931   24.3618 C   0  0  0  0  0  0  0  0  0  0  0  0
  -23.7831  -26.2766   21.7147 C   0  0  0  0  0  0  0  0  0  0  0  0
  -22.3785  -20.0600   21.8242 C   0  0  0  0  0  0  0  0  0  0  0  0
  -30.2485  -18.8103   22.8186 C   0  0  0  0  0  0  0  0  0  0  0  0
  -23.7348  -20.6556   21.4603 C   0  0  0  0  0  0  0  0  0  0  0  0
  -29.9123  -17.3517   22.5029 C   0  0  0  0  0  0  0  0  0  0  0  0
  -30.7484  -23.0391   18.8074 C   0  0  0  0  0  0  0  0  0  0  0  0
  -29.1285  -19.7451   22.3715 C   0  0  0  0  0  0  0  0  0  0  0  0
  -30.7372  -24.4755   18.2846 C   0  0  0  0  0  0  0  0  0  0  0  0
  -28.4257  -18.1663   20.6144 C   0  0  0  0  0  0  0  0  0  0  0  0
  -29.0960  -24.2436   20.0482 C   0  0  0  0  0  0  0  0  0  0  0  0
  -24.5371  -21.0099   22.7182 C   0  0  1  0  0  0  0  0  0  0  0  0
  -23.8276  -24.6325   23.6166 C   0  0  1  0  0  0  0  0  0  0  0  0
  -29.5290  -17.1730   21.0219 C   0  0  2  0  0  0  0  0  0  0  0  0
  -29.3552  -22.8820   19.4011 C   0  0  2  0  0  0  0  0  0  0  0  0
  -31.0632  -29.4474   17.5840 C   0  0  0  0  0  0  0  0  0  0  0  0
  -17.8427  -29.0711   21.4992 C   0  0  0  0  0  0  0  0  0  0  0  0
  -21.4166  -23.7697   19.7691 C   0  0  0  0  0  0  0  0  0  0  0  0
  -19.6925  -25.4833   19.1695 C   0  0  0  0  0  0  0  0  0  0  0  0
  -19.2866  -23.9206   21.0711 C   0  0  0  0  0  0  0  0  0  0  0  0
  -20.5819  -29.9825   23.9775 C   0  0  0  0  0  0  0  0  0  0  0  0
  -20.9823  -25.7775   21.3331 C   0  0  1  0  0  0  0  0  0  0  0  0
  -18.9897  -28.7990   22.4600 C   0  0  2  0  0  0  0  0  0  0  0  0
  -20.3706  -24.7457   20.3438 C   0  0  0  0  0  0  0  0  0  0  0  0
  -27.8507  -15.3813   20.7868 N   0  0  0  0  0  0  0  0  0  0  0  0
  -30.4438  -27.2581   18.3882 N   0  0  0  0  0  0  0  0  0  0  0  0
  -29.4090  -29.2098   19.3250 N   0  0  0  0  0  0  0  0  0  0  0  0
  -28.7984  -27.0297   20.1197 N   0  0  0  0  0  0  0  0  0  0  0  0
  -29.1440  -15.7388   20.7100 N   0  0  0  0  0  0  0  0  0  0  0  0
  -29.8233  -25.1738   19.1863 N   0  0  3  0  0  0  0  0  0  0  0  0
  -23.0497  -25.3955   22.6384 N   0  0  0  0  0  0  0  0  0  0  0  0
  -28.8249  -19.5375   20.9485 N   0  0  0  0  0  0  0  0  0  0  0  0
  -31.3075  -14.9078   20.2206 N   0  0  0  0  0  0  0  0  0  0  0  0
  -28.6524  -11.2987   19.6538 N   0  0  0  0  0  0  0  0  0  0  0  0
  -24.0503  -22.2437   23.2973 N   0  0  0  0  0  0  0  0  0  0  0  0
  -20.0102  -26.6974   21.9138 N   0  0  0  0  0  0  0  0  0  0  0  0
  -29.2538  -21.7815   20.3337 N   0  0  0  0  0  0  0  0  0  0  0  0
  -19.4691  -30.1023   23.0007 N   0  3  0  0  0  0  0  0  0  0  0  0
  -30.8190  -12.0464   19.5798 O   0  0  0  0  0  0  0  0  0  0  0  0
  -25.2746  -23.7275   21.9851 O   0  0  0  0  0  0  0  0  0  0  0  0
  -21.0409  -24.3824   23.2506 O   0  0  0  0  0  0  0  0  0  0  0  0
  -21.0221  -28.6440   21.1628 O   0  0  0  0  0  0  0  0  0  0  0  0
  -28.6025  -20.2534   18.7539 O   0  0  0  0  0  0  0  0  0  0  0  0
  -23.1244  -11.1390   20.3250 O   0  0  0  0  0  0  0  0  0  0  0  0
  -27.8217  -28.9440   20.9986 O   0  0  0  0  0  0  0  0  0  1  0  0
  -23.1447   -6.1402   22.6522 F   0  0  0  0  0  0  0  0  0  0  0  0
  -24.8354   -9.1627   19.4254 F   0  0  0  0  0  0  0  0  0  0  0  0
  1  2  1  0  0  0  0
  1  5  2  0  0  0  0
  2  6  2  0  0  0  0
  3  8  2  0  0  0  0
  3 15  1  0  0  0  0
  4  9  1  0  0  0  0
  4 15  2  0  0  0  0
  5 17  1  0  0  0  0
  6 19  1  0  0  0  0
  7 10  2  0  0  0  0
  7 18  1  0  0  0  0
  8 21  1  0  0  0  0
  9 21  2  0  0  0  0
 10 22  1  0  0  0  0
 11 12  2  0  0  0  0
 11 23  1  0  0  0  0
 12 24  1  0  0  0  0
 13 20  1  0  0  0  0
 13 22  2  0  0  0  0
 14 24  2  0  0  0  0
 14 25  1  0  0  0  0
 15 26  1  0  0  0  0
 16 26  1  0  0  0  0
 16 27  2  0  0  0  0
 16 31  1  0  0  0  0
 17 19  2  0  0  0  0
 17 36  1  0  0  0  0
 18 20  2  0  0  0  0
 18 37  1  0  0  0  0
 19 48  1  0  0  0  0
 20 38  1  0  0  0  0
 21 80  1  0  0  0  0
 22 81  1  0  0  0  0
 23 25  2  0  0  0  0
 23 80  1  0  0  0  0
 24 82  1  0  0  0  0
 25 83  1  0  0  0  0
 26 61  2  0  0  0  0
 27 65  1  0  0  0  0
 27 69  1  0  0  0  0
 28 52  1  0  0  0  0
 28 62  1  0  0  0  0
 28 63  2  0  0  0  0
 29 62  2  0  0  0  0
 29 64  1  0  0  0  0
 29 66  1  0  0  0  0
 30 63  1  0  0  0  0
 30 64  2  0  0  0  0
 30 81  1  0  0  0  0
 31 70  1  0  0  0  0
 31 75  2  0  0  0  0
 32 49  1  0  0  0  0
 32 71  1  0  0  0  0
 32 76  2  0  0  0  0
 33 58  1  0  0  0  0
 33 67  1  0  0  0  0
 33 77  2  0  0  0  0
 34 59  1  0  0  0  0
 34 72  1  0  0  0  0
 34 78  2  0  0  0  0
 35 68  1  0  0  0  0
 35 73  1  0  0  0  0
 35 79  2  0  0  0  0
 36 39  1  0  0  0  0
 37 49  1  0  0  0  0
 38 67  1  0  0  0  0
 39 41  1  0  0  0  0
 40 42  1  0  0  0  0
 40 44  1  0  0  0  0
 41 48  1  0  0  0  0
 42 50  1  0  0  0  0
 43 45  1  0  0  0  0
 43 51  1  0  0  0  0
 44 68  1  0  0  0  0
 45 66  1  0  0  0  0
 46 50  1  0  0  0  0
 46 68  1  0  0  0  0
 47 51  1  0  0  0  0
 47 66  1  0  0  0  0
 48 71  1  0  0  0  0
 49 67  1  0  0  0  0
 50 65  1  0  0  0  0
 51 73  1  0  0  0  0
 53 59  1  0  0  0  0
 54 60  1  0  0  0  0
 55 60  1  0  0  0  0
 56 60  1  0  0  0  0
 57 74  1  0  0  0  0
 58 60  1  0  0  0  0
 58 72  1  0  0  0  0
 59 74  1  0  0  0  0
 61 65  1  0  0  0  0
M  CHG  1  74   1
M  ISO  4  30 101  35 100  73 100  81 101
M  END
> <Batch ID>
0185

> <Smiles>
CNC(C)C(=O)NC(C(=O)N1Cc2cc([101O:1][101c:1]3nc(C)nc(N4CCC([100NH:0][100C:0](=O)N5CCCC(n6nc(-c7ccc(Oc8ccc(F)cc8F)cc7)c(C(N)=O)c6N)C5)C4)n3)ccc2CC1C(=O)NC1CCCc2ccccc21)C(C)(C)C

> <Shape>
0.260

> <Color>
0.058

> <Negative vol penalty>
0.000

$$$$

  -OEChem-04052323123D

 80 89  0     1  0  0  0  0  0999 V2000
  -29.3823  -23.4779   28.9892 C   0  0  0  0  0  0  0  0  0  0  0  0
  -29.5889  -23.3214   27.6224 C   0  0  0  0  0  0  0  0  0  0  0  0
  -24.0347   -9.7488   21.1639 C   0  0  0  0  0  0  0  0  0  0  0  0
  -24.7056  -10.6490   23.3033 C   0  0  0  0  0  0  0  0  0  0  0  0
  -28.1184  -23.8216   29.4672 C   0  0  0  0  0  0  0  0  0  0  0  0
  -28.5313  -23.5074   26.7327 C   0  0  0  0  0  0  0  0  0  0  0  0
  -29.8497  -26.2685   22.6975 C   0  0  0  0  0  0  0  0  0  0  0  0
  -23.6012   -8.5809   21.7913 C   0  0  0  0  0  0  0  0  0  0  0  0
  -24.2719   -9.4811   23.9307 C   0  0  0  0  0  0  0  0  0  0  0  0
  -30.5715  -25.6245   21.6936 C   0  0  0  0  0  0  0  0  0  0  0  0
  -20.9131   -7.5594   23.5700 C   0  0  0  0  0  0  0  0  0  0  0  0
  -19.6743   -7.0419   23.1917 C   0  0  0  0  0  0  0  0  0  0  0  0
  -28.5478  -25.3808   20.4033 C   0  0  0  0  0  0  0  0  0  0  0  0
  -20.7441   -4.9910   22.4942 C   0  0  0  0  0  0  0  0  0  0  0  0
  -30.4682  -19.5210   20.0498 C   0  0  0  0  0  0  0  0  0  0  0  0
  -24.5870  -10.7828   21.9199 C   0  0  0  0  0  0  0  0  0  0  0  0
  -24.2804  -13.1504   21.0208 C   0  0  0  0  0  0  0  0  0  0  0  0
  -27.0472  -24.0213   28.5823 C   0  0  0  0  0  0  0  0  0  0  0  0
  -28.4673  -26.4642   22.5666 C   0  0  0  0  0  0  0  0  0  0  0  0
  -27.2516  -23.8527   27.1994 C   0  0  0  0  0  0  0  0  0  0  0  0
  -27.8113  -26.0300   21.4059 C   0  0  0  0  0  0  0  0  0  0  0  0
  -23.7197   -8.4470   23.1747 C   0  0  0  0  0  0  0  0  0  0  0  0
  -29.9201  -25.1779   20.5475 C   0  0  0  0  0  0  0  0  0  0  0  0
  -22.0675   -6.7927   23.4104 C   0  0  0  0  0  0  0  0  0  0  0  0
  -19.5898   -5.7577   22.6538 C   0  0  0  0  0  0  0  0  0  0  0  0
  -21.9829   -5.5085   22.8726 C   0  0  0  0  0  0  0  0  0  0  0  0
  -25.0356  -11.9893   21.2723 C   0  0  0  0  0  0  0  0  0  0  0  0
  -30.0630  -20.8308   20.3692 C   0  0  0  0  0  0  0  0  0  0  0  0
  -29.4495  -18.7241   20.5118 C   0  0  0  0  0  0  0  0  0  0  0  0
  -25.1562  -13.9996   20.3898 C   0  0  0  0  0  0  0  0  0  0  0  0
  -22.9098  -13.4358   21.3300 C   0  0  0  0  0  0  0  0  0  0  0  0
  -25.9033  -25.5078   24.1835 C   0  0  0  0  0  0  0  0  0  0  0  0
  -24.3545  -27.4934   22.1389 C   0  0  0  0  0  0  0  0  0  0  0  0
  -24.3177  -29.0945   19.1252 C   0  0  0  0  0  0  0  0  0  0  0  0
  -30.1718  -16.3772   19.9489 C   0  0  0  0  0  0  0  0  0  0  0  0
  -25.6878  -24.3455   29.1495 C   0  0  0  0  0  0  0  0  0  0  0  0
  -27.7077  -27.1846   23.6466 C   0  0  0  0  0  0  0  0  0  0  0  0
  -26.3322  -26.2337   21.2077 C   0  0  0  0  0  0  0  0  0  0  0  0
  -24.7095  -24.8914   28.1125 C   0  0  0  0  0  0  0  0  0  0  0  0
  -29.7704  -13.1552   18.4878 C   0  0  0  0  0  0  0  0  0  0  0  0
  -24.7446  -24.0416   26.8462 C   0  0  0  0  0  0  0  0  0  0  0  0
  -28.4407  -12.6602   19.0613 C   0  0  0  0  0  0  0  0  0  0  0  0
  -31.3074  -22.3318   18.6174 C   0  0  0  0  0  0  0  0  0  0  0  0
  -30.5647  -13.9625   19.5130 C   0  0  0  0  0  0  0  0  0  0  0  0
  -28.4997  -14.5763   20.7081 C   0  0  0  0  0  0  0  0  0  0  0  0
  -26.1354  -24.0701   26.2010 C   0  0  1  0  0  0  0  0  0  0  0  0
  -30.8845  -22.0911   20.0478 C   0  0  1  0  0  0  0  0  0  0  0  0
  -26.2145  -26.8723   23.6369 C   0  0  1  0  0  0  0  0  0  0  0  0
  -27.6349  -13.8129   19.6918 C   0  0  2  0  0  0  0  0  0  0  0  0
  -30.2368  -23.1845   19.2268 C   0  0  1  0  0  0  0  0  0  1  0  0
  -22.9010  -30.6167   17.7205 C   0  0  0  0  0  0  0  0  0  0  0  0
  -22.5324  -25.1481   21.4392 C   0  0  0  0  0  0  0  0  0  0  0  0
  -21.7964  -26.4157   19.4095 C   0  0  0  0  0  0  0  0  0  0  0  0
  -21.3597  -27.3434   21.6836 C   0  0  0  0  0  0  0  0  0  0  0  0
  -27.2800  -19.2138   21.6858 C   0  0  0  0  0  0  0  0  0  0  0  0
  -26.3944  -31.2030   19.1092 C   0  0  0  0  0  0  0  0  0  0  0  0
  -23.7200  -27.3430   20.7773 C   0  0  1  0  0  0  0  0  0  0  0  0
  -24.0142  -30.5346   18.7534 C   0  0  2  0  0  0  0  0  0  0  0  0
  -22.3796  -26.5568   20.8317 C   0  0  0  0  0  0  0  0  0  0  0  0
  -26.2943  -12.0884   20.8365 N   0  0  0  0  0  0  0  0  0  0  0  0
  -28.8790  -20.8681   20.9863 N   0  0  0  0  0  0  0  0  0  0  0  0
  -26.3367  -13.3219   20.3047 N   0  0  0  0  0  0  0  0  0  0  0  0
  -28.5315  -19.5719   21.0583 N   0  0  0  0  0  0  0  0  0  0  0  0
  -25.6322  -26.9376   22.2949 N   0  0  0  0  0  0  0  0  0  0  0  0
  -29.7391  -15.0392   20.0643 N   0  0  0  0  0  0  0  0  0  0  0  0
  -25.0240  -15.2525   19.9048 N   0  0  0  0  0  0  0  0  0  0  0  0
  -22.1528  -12.4519   21.9806 N   0  0  0  0  0  0  0  0  0  0  0  0
  -29.2891  -17.3166   20.4809 N   0  0  0  0  0  0  0  0  0  0  0  0
  -26.3335  -25.3102   25.4817 N   0  0  0  0  0  0  0  0  0  0  0  0
  -23.6005  -28.6907   20.2315 N   0  0  0  0  0  0  0  0  0  0  0  0
  -25.2277  -31.1908   18.1896 N   0  3  0  0  0  0  0  0  0  0  0  0
  -22.3677  -14.5246   21.0234 O   0  0  0  0  0  0  0  0  0  0  0  0
  -25.3150  -24.6948   23.4802 O   0  0  0  0  0  0  0  0  0  0  0  0
  -23.7420  -28.0885   23.0290 O   0  0  0  0  0  0  0  0  0  0  0  0
  -25.1088  -28.3963   18.4950 O   0  0  0  0  0  0  0  0  0  0  0  0
  -31.2334  -16.6703   19.3930 O   0  0  0  0  0  0  0  0  0  0  0  0
  -23.2965   -7.3077   23.7872 O   0  0  0  0  0  0  0  0  0  0  0  0
  -30.6221  -24.5484   19.5664 O   0  0  0  0  0  0  0  0  0  1  0  0
  -18.3999   -5.2602   22.2920 F   0  0  0  0  0  0  0  0  0  0  0  0
  -23.0883   -4.7668   22.7179 F   0  0  0  0  0  0  0  0  0  0  0  0
  1  2  1  0  0  0  0
  1  5  2  0  0  0  0
  2  6  2  0  0  0  0
  3  8  2  0  0  0  0
  3 16  1  0  0  0  0
  4  9  1  0  0  0  0
  4 16  2  0  0  0  0
  5 18  1  0  0  0  0
  6 20  1  0  0  0  0
  7 10  2  0  0  0  0
  7 19  1  0  0  0  0
  8 22  1  0  0  0  0
  9 22  2  0  0  0  0
 10 23  1  0  0  0  0
 11 12  2  0  0  0  0
 11 24  1  0  0  0  0
 12 25  1  0  0  0  0
 13 21  1  0  0  0  0
 13 23  2  0  0  0  0
 14 25  2  0  0  0  0
 14 26  1  0  0  0  0
 15 28  1  0  0  0  0
 15 29  2  0  0  0  0
 16 27  1  0  0  0  0
 17 27  1  0  0  0  0
 17 30  2  0  0  0  0
 17 31  1  0  0  0  0
 18 20  2  0  0  0  0
 18 36  1  0  0  0  0
 19 21  2  0  0  0  0
 19 37  1  0  0  0  0
 20 46  1  0  0  0  0
 21 38  1  0  0  0  0
 22 77  1  0  0  0  0
 23 78  1  0  0  0  0
 24 26  2  0  0  0  0
 24 77  1  0  0  0  0
 25 79  1  0  0  0  0
 26 80  1  0  0  0  0
 27 60  2  0  0  0  0
 28 47  1  0  0  0  0
 28 61  2  0  0  0  0
 29 63  1  0  0  0  0
 29 68  1  0  0  0  0
 30 62  1  0  0  0  0
 30 66  1  0  0  0  0
 31 67  1  0  0  0  0
 31 72  2  0  0  0  0
 32 48  1  0  0  0  0
 32 69  1  0  0  0  0
 32 73  2  0  0  0  0
 33 57  1  0  0  0  0
 33 64  1  0  0  0  0
 33 74  2  0  0  0  0
 34 58  1  0  0  0  0
 34 70  1  0  0  0  0
 34 75  2  0  0  0  0
 35 65  1  0  0  0  0
 35 68  1  0  0  0  0
 35 76  2  0  0  0  0
 36 39  1  0  0  0  0
 37 48  1  0  0  0  0
 38 64  1  0  0  0  0
 39 41  1  0  0  0  0
 40 42  1  0  0  0  0
 40 44  1  0  0  0  0
 41 46  1  0  0  0  0
 42 49  1  0  0  0  0
 43 47  1  0  0  0  0
 43 50  1  0  0  0  0
 44 65  1  0  0  0  0
 45 49  1  0  0  0  0
 45 65  1  0  0  0  0
 46 69  1  0  0  0  0
 47 50  1  0  0  0  0
 48 64  1  0  0  0  0
 49 62  1  0  0  0  0
 50 78  1  0  0  0  0
 51 58  1  0  0  0  0
 52 59  1  0  0  0  0
 53 59  1  0  0  0  0
 54 59  1  0  0  0  0
 55 63  1  0  0  0  0
 56 71  1  0  0  0  0
 57 59  1  0  0  0  0
 57 70  1  0  0  0  0
 58 71  1  0  0  0  0
 60 62  1  0  0  0  0
 61 63  1  0  0  0  0
M  CHG  1  71   1
M  ISO  4  35 100  50 101  68 100  78 101
M  END
> <Batch ID>
0185

> <Smiles>
CNC(C)C(=O)NC(C(=O)N1Cc2cc([101O:1][101CH:1]3CC3c3cc([100NH:0][100C:0](=O)N4CCCC(n5nc(-c6ccc(Oc7ccc(F)cc7F)cc6)c(C(N)=O)c5N)C4)n(C)n3)ccc2CC1C(=O)NC1CCCc2ccccc21)C(C)(C)C

> <Shape>
0.235

> <Color>
0.134

> <Negative vol penalty>
0.000

$$$$

  -OEChem-04052323123D

 78 86  0     1  0  0  0  0  0999 V2000
  -27.7140  -33.4076   26.5691 C   0  0  0  0  0  0  0  0  0  0  0  0
  -27.8897  -32.2116   25.8805 C   0  0  0  0  0  0  0  0  0  0  0  0
  -26.1219  -15.6450   21.2448 C   0  0  0  0  0  0  0  0  0  0  0  0
  -25.9384  -14.4819   19.1352 C   0  0  0  0  0  0  0  0  0  0  0  0
  -26.4283  -33.8935   26.8032 C   0  0  0  0  0  0  0  0  0  0  0  0
  -26.7796  -31.5002   25.4265 C   0  0  0  0  0  0  0  0  0  0  0  0
  -27.3456  -29.8408   20.6756 C   0  0  0  0  0  0  0  0  0  0  0  0
  -24.7546  -15.4714   21.4594 C   0  0  0  0  0  0  0  0  0  0  0  0
  -24.5711  -14.3083   19.3498 C   0  0  0  0  0  0  0  0  0  0  0  0
  -28.1388  -28.7099   20.4864 C   0  0  0  0  0  0  0  0  0  0  0  0
  -21.0988  -13.2427   19.5102 C   0  0  0  0  0  0  0  0  0  0  0  0
  -20.5554  -11.9846   19.2504 C   0  0  0  0  0  0  0  0  0  0  0  0
  -26.1523  -27.3501   20.3320 C   0  0  0  0  0  0  0  0  0  0  0  0
  -22.0284  -11.0081   20.8978 C   0  0  0  0  0  0  0  0  0  0  0  0
  -26.7138  -15.1502   20.0827 C   0  0  0  0  0  0  0  0  0  0  0  0
  -29.1647  -14.4622   20.2479 C   0  0  0  0  0  0  0  0  0  0  0  0
  -25.3022  -33.1926   26.3435 C   0  0  0  0  0  0  0  0  0  0  0  0
  -25.9478  -29.7330   20.7054 C   0  0  0  0  0  0  0  0  0  0  0  0
  -25.4776  -31.9765   25.6559 C   0  0  0  0  0  0  0  0  0  0  0  0
  -25.3436  -28.4815   20.5192 C   0  0  0  0  0  0  0  0  0  0  0  0
  -23.9792  -14.8031   20.5119 C   0  0  0  0  0  0  0  0  0  0  0  0
  -27.5422  -27.4639   20.3175 C   0  0  0  0  0  0  0  0  0  0  0  0
  -22.1071  -13.3835   20.4638 C   0  0  0  0  0  0  0  0  0  0  0  0
  -21.0202  -10.8673   19.9442 C   0  0  0  0  0  0  0  0  0  0  0  0
  -22.5719  -12.2662   21.1576 C   0  0  0  0  0  0  0  0  0  0  0  0
  -28.1260  -15.3297   19.8601 C   0  0  0  0  0  0  0  0  0  0  0  0
  -30.3099  -15.0792   19.8072 C   0  0  0  0  0  0  0  0  0  0  0  0
  -29.1001  -13.2105   20.9441 C   0  0  0  0  0  0  0  0  0  0  0  0
  -23.6984  -30.3200   22.8732 C   0  0  0  0  0  0  0  0  0  0  0  0
  -21.6978  -29.6327   20.4140 C   0  0  0  0  0  0  0  0  0  0  0  0
  -21.2132  -28.0523   17.4283 C   0  0  0  0  0  0  0  0  0  0  0  0
  -29.9048  -19.3518   21.2736 C   0  0  0  0  0  0  0  0  0  0  0  0
  -23.9307  -33.7332   26.6618 C   0  0  0  0  0  0  0  0  0  0  0  0
  -25.1057  -30.9665   20.8837 C   0  0  0  0  0  0  0  0  0  0  0  0
  -23.8467  -28.3152   20.5226 C   0  0  0  0  0  0  0  0  0  0  0  0
  -22.8199  -33.1096   25.8207 C   0  0  0  0  0  0  0  0  0  0  0  0
  -29.2265  -19.1783   17.7533 C   0  0  0  0  0  0  0  0  0  0  0  0
  -22.9709  -31.5924   25.7773 C   0  0  0  0  0  0  0  0  0  0  0  0
  -30.1903  -18.0613   17.3474 C   0  0  0  0  0  0  0  0  0  0  0  0
  -28.5916  -22.1261   23.3406 C   0  0  0  0  0  0  0  0  0  0  0  0
  -29.7895  -20.0895   18.8427 C   0  0  0  0  0  0  0  0  0  0  0  0
  -28.9550  -20.6622   23.1460 C   0  0  0  0  0  0  0  0  0  0  0  0
  -29.5095  -21.8850   21.1573 C   0  0  0  0  0  0  0  0  0  0  0  0
  -31.3447  -18.3105   19.5572 C   0  0  0  0  0  0  0  0  0  0  0  0
  -24.2992  -31.1886   25.1260 C   0  0  1  0  0  0  0  0  0  0  0  0
  -23.7063  -30.6635   21.4104 C   0  0  1  0  0  0  0  0  0  0  0  0
  -29.5190  -22.8362   22.3538 C   0  0  1  0  0  0  0  0  0  0  0  0
  -30.7843  -17.2906   18.5460 C   0  0  1  0  0  0  0  0  0  0  0  0
  -19.4620  -27.6409   15.6786 C   0  0  0  0  0  0  0  0  0  0  0  0
  -20.3550  -27.5913   22.2415 C   0  0  0  0  0  0  0  0  0  0  0  0
  -19.2945  -26.5768   20.2131 C   0  0  0  0  0  0  0  0  0  0  0  0
  -18.7774  -28.9349   20.8413 C   0  0  0  0  0  0  0  0  0  0  0  0
  -22.8225  -29.3920   15.3368 C   0  0  0  0  0  0  0  0  0  0  0  0
  -29.0633  -24.2429   22.0095 C   0  0  0  0  0  0  0  0  0  0  0  0
  -30.0352  -24.9298   21.0529 C   0  0  0  0  0  0  0  0  0  0  0  0
  -29.6040  -26.3567   20.7404 C   0  0  0  0  0  0  0  0  0  1  0  0
  -21.0493  -28.3774   19.8822 C   0  0  1  0  0  0  0  0  0  0  0  0
  -20.6117  -28.5331   16.1201 C   0  0  2  0  0  0  0  0  0  0  0  0
  -19.8973  -27.8726   20.7963 C   0  0  0  0  0  0  0  0  0  0  0  0
  -28.5719  -16.4153   19.2223 N   0  0  0  0  0  0  0  0  0  0  0  0
  -29.9034  -16.2340   19.2060 N   0  0  0  0  0  0  0  0  0  0  0  0
  -23.0664  -29.5500   20.7069 N   0  0  0  0  0  0  0  0  0  0  0  0
  -30.3528  -19.3134   19.9491 N   0  0  0  0  0  0  0  0  0  0  0  0
  -29.3900  -20.5536   21.7567 N   0  0  0  0  0  0  0  0  0  0  0  0
  -31.6149  -14.7412   19.8792 N   0  0  0  0  0  0  0  0  0  0  0  0
  -27.8428  -12.7213   21.3239 N   0  0  0  0  0  0  0  0  0  0  0  0
  -24.2141  -31.3110   23.6865 N   0  0  0  0  0  0  0  0  0  0  0  0
  -20.6391  -28.6777   18.5148 N   0  0  0  0  0  0  0  0  0  0  0  0
  -21.6441  -28.5356   15.0453 N   0  3  0  0  0  0  0  0  0  0  0  0
  -30.1281  -12.5534   21.2356 O   0  0  0  0  0  0  0  0  0  0  0  0
  -23.2558  -29.2368   23.2371 O   0  0  0  0  0  0  0  0  0  0  0  0
  -21.0167  -30.6511   20.5573 O   0  0  0  0  0  0  0  0  0  0  0  0
  -22.1008  -27.2039   17.4813 O   0  0  0  0  0  0  0  0  0  0  0  0
  -30.0002  -18.3626   22.0129 O   0  0  0  0  0  0  0  0  0  0  0  0
  -22.6451  -14.6333   20.7211 O   0  0  0  0  0  0  0  0  0  0  0  0
  -28.3196  -26.3503   20.1319 O   0  0  0  0  0  0  0  0  0  1  0  0
  -20.4972   -9.6595   19.6957 F   0  0  0  0  0  0  0  0  0  0  0  0
  -23.5395  -12.3955   22.0756 F   0  0  0  0  0  0  0  0  0  0  0  0
  1  2  1  0  0  0  0
  1  5  2  0  0  0  0
  2  6  2  0  0  0  0
  3  8  2  0  0  0  0
  3 15  1  0  0  0  0
  4  9  1  0  0  0  0
  4 15  2  0  0  0  0
  5 17  1  0  0  0  0
  6 19  1  0  0  0  0
  7 10  2  0  0  0  0
  7 18  1  0  0  0  0
  8 21  1  0  0  0  0
  9 21  2  0  0  0  0
 10 22  1  0  0  0  0
 11 12  2  0  0  0  0
 11 23  1  0  0  0  0
 12 24  1  0  0  0  0
 13 20  1  0  0  0  0
 13 22  2  0  0  0  0
 14 24  2  0  0  0  0
 14 25  1  0  0  0  0
 15 26  1  0  0  0  0
 16 26  1  0  0  0  0
 16 27  2  0  0  0  0
 16 28  1  0  0  0  0
 17 19  2  0  0  0  0
 17 33  1  0  0  0  0
 18 20  2  0  0  0  0
 18 34  1  0  0  0  0
 19 45  1  0  0  0  0
 20 35  1  0  0  0  0
 21 75  1  0  0  0  0
 22 76  1  0  0  0  0
 23 25  2  0  0  0  0
 23 75  1  0  0  0  0
 24 77  1  0  0  0  0
 25 78  1  0  0  0  0
 26 60  2  0  0  0  0
 27 61  1  0  0  0  0
 27 65  1  0  0  0  0
 28 66  1  0  0  0  0
 28 70  2  0  0  0  0
 29 46  1  0  0  0  0
 29 67  1  0  0  0  0
 29 71  2  0  0  0  0
 30 57  1  0  0  0  0
 30 62  1  0  0  0  0
 30 72  2  0  0  0  0
 31 58  1  0  0  0  0
 31 68  1  0  0  0  0
 31 73  2  0  0  0  0
 32 63  1  0  0  0  0
 32 64  1  0  0  0  0
 32 74  2  0  0  0  0
 33 36  1  0  0  0  0
 34 46  1  0  0  0  0
 35 62  1  0  0  0  0
 36 38  1  0  0  0  0
 37 39  1  0  0  0  0
 37 41  1  0  0  0  0
 38 45  1  0  0  0  0
 39 48  1  0  0  0  0
 40 42  1  0  0  0  0
 40 47  1  0  0  0  0
 41 63  1  0  0  0  0
 42 64  1  0  0  0  0
 43 47  1  0  0  0  0
 43 64  1  0  0  0  0
 44 48  1  0  0  0  0
 44 63  1  0  0  0  0
 45 67  1  0  0  0  0
 46 62  1  0  0  0  0
 47 54  1  0  0  0  0
 48 61  1  0  0  0  0
 49 58  1  0  0  0  0
 50 59  1  0  0  0  0
 51 59  1  0  0  0  0
 52 59  1  0  0  0  0
 53 69  1  0  0  0  0
 54 55  1  0  0  0  0
 55 56  1  0  0  0  0
 56 76  1  0  0  0  0
 57 59  1  0  0  0  0
 57 68  1  0  0  0  0
 58 69  1  0  0  0  0
 60 61  1  0  0  0  0
M  CHG  1  69   1
M  ISO  4  32 100  56 101  64 100  76 101
M  END
> <Batch ID>
0185

> <Smiles>
CNC(C)C(=O)NC(C(=O)N1Cc2cc([101O:1][101CH2:1]CCC3CC[100N:0]([100C:0](=O)N4CCCC(n5nc(-c6ccc(Oc7ccc(F)cc7F)cc6)c(C(N)=O)c5N)C4)C3)ccc2CC1C(=O)NC1CCCc2ccccc21)C(C)(C)C

> <Shape>
0.289

> <Color>
0.098

> <Negative vol penalty>
0.000

$$$$

  -OEChem-04052323123D

 81 89  0     1  0  0  0  0  0999 V2000
  -28.2293  -33.5592   25.9726 C   0  0  0  0  0  0  0  0  0  0  0  0
  -28.3274  -32.3346   25.3197 C   0  0  0  0  0  0  0  0  0  0  0  0
  -25.1285  -13.9760   21.8510 C   0  0  0  0  0  0  0  0  0  0  0  0
  -27.4396  -13.2722   21.8700 C   0  0  0  0  0  0  0  0  0  0  0  0
  -26.9797  -34.0472   26.3524 C   0  0  0  0  0  0  0  0  0  0  0  0
  -27.1759  -31.5968   25.0472 C   0  0  0  0  0  0  0  0  0  0  0  0
  -27.1335  -29.7295   20.3402 C   0  0  0  0  0  0  0  0  0  0  0  0
  -24.7277  -12.6674   22.1203 C   0  0  0  0  0  0  0  0  0  0  0  0
  -27.0389  -11.9636   22.1393 C   0  0  0  0  0  0  0  0  0  0  0  0
  -27.9084  -28.5961   20.0978 C   0  0  0  0  0  0  0  0  0  0  0  0
  -24.3299   -9.7819   20.4056 C   0  0  0  0  0  0  0  0  0  0  0  0
  -23.2662   -9.2655   19.6658 C   0  0  0  0  0  0  0  0  0  0  0  0
  -25.9352  -27.2186   20.2656 C   0  0  0  0  0  0  0  0  0  0  0  0
  -30.9297  -22.9697   20.1006 C   0  0  0  0  0  0  0  0  0  0  0  0
  -22.0136   -8.9262   21.7038 C   0  0  0  0  0  0  0  0  0  0  0  0
  -26.4845  -14.2784   21.7258 C   0  0  0  0  0  0  0  0  0  0  0  0
  -27.1984  -16.6375   22.3835 C   0  0  0  0  0  0  0  0  0  0  0  0
  -25.8115  -33.3195   26.0759 C   0  0  0  0  0  0  0  0  0  0  0  0
  -25.7531  -29.6147   20.5583 C   0  0  0  0  0  0  0  0  0  0  0  0
  -25.9097  -32.0749   25.4249 C   0  0  0  0  0  0  0  0  0  0  0  0
  -25.1446  -28.3524   20.5080 C   0  0  0  0  0  0  0  0  0  0  0  0
  -30.3301  -24.1926   20.3801 C   0  0  0  0  0  0  0  0  0  0  0  0
  -30.1096  -25.1034   19.3529 C   0  0  0  0  0  0  0  0  0  0  0  0
  -25.6829  -11.6612   22.2645 C   0  0  0  0  0  0  0  0  0  0  0  0
  -27.3097  -27.3402   20.0633 C   0  0  0  0  0  0  0  0  0  0  0  0
  -24.2356   -9.8705   21.7945 C   0  0  0  0  0  0  0  0  0  0  0  0
  -22.1080   -8.8376   20.3149 C   0  0  0  0  0  0  0  0  0  0  0  0
  -23.0774   -9.4427   22.4436 C   0  0  0  0  0  0  0  0  0  0  0  0
  -26.8990  -15.6299   21.4471 C   0  0  0  0  0  0  0  0  0  0  0  0
  -31.2874  -22.7077   18.7879 C   0  0  0  0  0  0  0  0  0  0  0  0
  -30.5041  -24.7460   18.0737 C   0  0  0  0  0  0  0  0  0  0  0  0
  -27.5374  -17.7270   21.6190 C   0  0  0  0  0  0  0  0  0  0  0  0
  -27.1725  -16.5926   23.8163 C   0  0  0  0  0  0  0  0  0  0  0  0
  -23.8006  -30.2846   22.9755 C   0  0  0  0  0  0  0  0  0  0  0  0
  -21.5030  -29.4755   20.8334 C   0  0  0  0  0  0  0  0  0  0  0  0
  -20.6498  -27.7599   18.0093 C   0  0  0  0  0  0  0  0  0  0  0  0
  -30.2536  -19.9854   17.2984 C   0  0  0  0  0  0  0  0  0  0  0  0
  -24.4873  -33.8656   26.5480 C   0  0  0  0  0  0  0  0  0  0  0  0
  -24.9269  -30.8497   20.7919 C   0  0  0  0  0  0  0  0  0  0  0  0
  -23.6632  -28.1773   20.7157 C   0  0  0  0  0  0  0  0  0  0  0  0
  -23.2832  -33.1982   25.8884 C   0  0  0  0  0  0  0  0  0  0  0  0
  -27.0677  -18.5352   16.6478 C   0  0  0  0  0  0  0  0  0  0  0  0
  -23.4453  -31.6814   25.8918 C   0  0  0  0  0  0  0  0  0  0  0  0
  -26.7677  -17.7286   17.9125 C   0  0  0  0  0  0  0  0  0  0  0  0
  -28.5518  -18.4937   16.2907 C   0  0  0  0  0  0  0  0  0  0  0  0
  -29.1622  -18.0893   18.6439 C   0  0  0  0  0  0  0  0  0  0  0  0
  -24.6814  -31.2569   25.0897 C   0  0  1  0  0  0  0  0  0  0  0  0
  -23.6125  -30.5622   21.5109 C   0  0  1  0  0  0  0  0  0  0  0  0
  -27.6869  -18.1473   19.0757 C   0  0  2  0  0  0  0  0  0  0  0  0
  -29.9365  -24.5034   21.7864 C   0  0  0  0  0  0  0  0  0  0  0  0
  -30.2921  -25.6820   16.9288 C   0  0  0  0  0  0  0  0  0  0  0  0
  -18.6892  -27.2599   16.5249 C   0  0  0  0  0  0  0  0  0  0  0  0
  -20.4360  -27.5100   22.9090 C   0  0  0  0  0  0  0  0  0  0  0  0
  -19.1308  -26.3991   21.0841 C   0  0  0  0  0  0  0  0  0  0  0  0
  -18.6724  -28.7798   21.6713 C   0  0  0  0  0  0  0  0  0  0  0  0
  -21.9547  -29.0143   15.6677 C   0  0  0  0  0  0  0  0  0  0  0  0
  -29.4624  -26.4296   19.6241 C   0  0  0  0  0  0  0  0  0  1  0  0
  -31.9319  -21.4047   18.4507 C   0  0  0  0  0  0  0  0  0  0  0  0
  -20.8054  -28.1937   20.4469 C   0  0  1  0  0  0  0  0  0  0  0  0
  -19.8762  -28.1779   16.7718 C   0  0  2  0  0  0  0  0  0  0  0  0
  -19.7894  -27.7234   21.5258 C   0  0  0  0  0  0  0  0  0  0  0  0
  -27.0356  -16.0426   20.1841 N   0  0  0  0  0  0  0  0  0  0  0  0
  -31.0893  -23.5674   17.7635 N   0  0  0  0  0  0  0  0  0  0  0  0
  -27.4245  -17.3217   20.3216 N   0  0  0  0  0  0  0  0  0  0  0  0
  -22.8992  -29.4144   20.9470 N   0  0  0  0  0  0  0  0  0  0  0  0
  -29.3684  -18.9034   17.4358 N   0  0  0  0  0  0  0  0  0  0  0  0
  -27.9179  -18.9827   21.9366 N   0  0  0  0  0  0  0  0  0  0  0  0
  -26.8015  -15.3939   24.4406 N   0  0  0  0  0  0  0  0  0  0  0  0
  -24.4067  -31.3141   23.6699 N   0  0  0  0  0  0  0  0  0  0  0  0
  -20.2158  -28.4299   19.1335 N   0  0  0  0  0  0  0  0  0  0  0  0
  -30.9851  -20.3120   18.4337 N   0  0  0  0  0  0  0  0  0  0  0  0
  -20.7585  -28.1385   15.5715 N   0  3  0  0  0  0  0  0  0  0  0  0
  -27.4536  -17.5909   24.5220 O   0  0  0  0  0  0  0  0  0  0  0  0
  -23.4225  -29.2161   23.4414 O   0  0  0  0  0  0  0  0  0  0  0  0
  -20.8345  -30.4952   21.0205 O   0  0  0  0  0  0  0  0  0  0  0  0
  -21.5468  -26.9201   17.9820 O   0  0  0  0  0  0  0  0  0  0  0  0
  -30.3785  -20.6171   16.2438 O   0  0  0  0  0  0  0  0  0  0  0  0
  -25.2922  -10.3842   22.5275 O   0  0  0  0  0  0  0  0  0  0  0  0
  -28.0638  -26.2322   19.8276 O   0  0  0  0  0  0  0  0  0  1  0  0
  -21.0860   -8.3432   19.6042 F   0  0  0  0  0  0  0  0  0  0  0  0
  -22.9804   -9.5264   23.7775 F   0  0  0  0  0  0  0  0  0  0  0  0
  1  2  1  0  0  0  0
  1  5  2  0  0  0  0
  2  6  2  0  0  0  0
  3  8  2  0  0  0  0
  3 16  1  0  0  0  0
  4  9  1  0  0  0  0
  4 16  2  0  0  0  0
  5 18  1  0  0  0  0
  6 20  1  0  0  0  0
  7 10  2  0  0  0  0
  7 19  1  0  0  0  0
  8 24  1  0  0  0  0
  9 24  2  0  0  0  0
 10 25  1  0  0  0  0
 11 12  2  0  0  0  0
 11 26  1  0  0  0  0
 12 27  1  0  0  0  0
 13 21  1  0  0  0  0
 13 25  2  0  0  0  0
 14 22  2  0  0  0  0
 14 30  1  0  0  0  0
 15 27  2  0  0  0  0
 15 28  1  0  0  0  0
 16 29  1  0  0  0  0
 17 29  1  0  0  0  0
 17 32  2  0  0  0  0
 17 33  1  0  0  0  0
 18 20  2  0  0  0  0
 18 38  1  0  0  0  0
 19 21  2  0  0  0  0
 19 39  1  0  0  0  0
 20 47  1  0  0  0  0
 21 40  1  0  0  0  0
 22 23  1  0  0  0  0
 22 50  1  0  0  0  0
 23 31  2  0  0  0  0
 23 57  1  0  0  0  0
 24 78  1  0  0  0  0
 25 79  1  0  0  0  0
 26 28  2  0  0  0  0
 26 78  1  0  0  0  0
 27 80  1  0  0  0  0
 28 81  1  0  0  0  0
 29 62  2  0  0  0  0
 30 58  1  0  0  0  0
 30 63  2  0  0  0  0
 31 51  1  0  0  0  0
 31 63  1  0  0  0  0
 32 64  1  0  0  0  0
 32 67  1  0  0  0  0
 33 68  1  0  0  0  0
 33 73  2  0  0  0  0
 34 48  1  0  0  0  0
 34 69  1  0  0  0  0
 34 74  2  0  0  0  0
 35 59  1  0  0  0  0
 35 65  1  0  0  0  0
 35 75  2  0  0  0  0
 36 60  1  0  0  0  0
 36 70  1  0  0  0  0
 36 76  2  0  0  0  0
 37 66  1  0  0  0  0
 37 71  1  0  0  0  0
 37 77  2  0  0  0  0
 38 41  1  0  0  0  0
 39 48  1  0  0  0  0
 40 65  1  0  0  0  0
 41 43  1  0  0  0  0
 42 44  1  0  0  0  0
 42 45  1  0  0  0  0
 43 47  1  0  0  0  0
 44 49  1  0  0  0  0
 45 66  1  0  0  0  0
 46 49  1  0  0  0  0
 46 66  1  0  0  0  0
 47 69  1  0  0  0  0
 48 65  1  0  0  0  0
 49 64  1  0  0  0  0
 52 60  1  0  0  0  0
 53 61  1  0  0  0  0
 54 61  1  0  0  0  0
 55 61  1  0  0  0  0
 56 72  1  0  0  0  0
 57 79  1  0  0  0  0
 58 71  1  0  0  0  0
 59 61  1  0  0  0  0
 59 70  1  0  0  0  0
 60 72  1  0  0  0  0
 62 64  1  0  0  0  0
M  CHG  1  72   1
M  ISO  4  37 100  57 101  71 100  79 101
M  END
> <Batch ID>
0185

> <Smiles>
CNC(C)C(=O)NC(C(=O)N1Cc2cc([101O:1][101CH2:1]c3c(C)cc(C[100NH:0][100C:0](=O)N4CCCC(n5nc(-c6ccc(Oc7ccc(F)cc7F)cc6)c(C(N)=O)c5N)C4)nc3C)ccc2CC1C(=O)NC1CCCc2ccccc21)C(C)(C)C

> <Shape>
0.278

> <Color>
0.076

> <Negative vol penalty>
0.000

$$$$

  -OEChem-04052323123D

 77 85  0     1  0  0  0  0  0999 V2000
  -27.4115  -31.7838   27.9746 C   0  0  0  0  0  0  0  0  0  0  0  0
  -27.7416  -31.0021   26.8721 C   0  0  0  0  0  0  0  0  0  0  0  0
  -26.8283  -14.0702   20.1201 C   0  0  0  0  0  0  0  0  0  0  0  0
  -24.5736  -14.4482   20.9014 C   0  0  0  0  0  0  0  0  0  0  0  0
  -26.0787  -31.9105   28.3639 C   0  0  0  0  0  0  0  0  0  0  0  0
  -26.7391  -30.3456   26.1590 C   0  0  0  0  0  0  0  0  0  0  0  0
  -27.3039  -30.8010   21.1472 C   0  0  0  0  0  0  0  0  0  0  0  0
  -26.7571  -12.7467   20.5548 C   0  0  0  0  0  0  0  0  0  0  0  0
  -24.5023  -13.1247   21.3360 C   0  0  0  0  0  0  0  0  0  0  0  0
  -28.2592  -29.9889   20.5377 C   0  0  0  0  0  0  0  0  0  0  0  0
  -23.9938  -10.0783   19.9645 C   0  0  0  0  0  0  0  0  0  0  0  0
  -22.8348   -9.3616   19.6669 C   0  0  0  0  0  0  0  0  0  0  0  0
  -26.5160  -28.4783   19.8317 C   0  0  0  0  0  0  0  0  0  0  0  0
  -22.4350   -9.0285   22.0262 C   0  0  0  0  0  0  0  0  0  0  0  0
  -25.7366  -14.9210   20.2935 C   0  0  0  0  0  0  0  0  0  0  0  0
  -25.4542  -16.7877   18.5779 C   0  0  0  0  0  0  0  0  0  0  0  0
  -25.0585  -31.2631   27.6494 C   0  0  0  0  0  0  0  0  0  0  0  0
  -25.9462  -30.4516   21.1128 C   0  0  0  0  0  0  0  0  0  0  0  0
  -25.3916  -30.4627   26.5400 C   0  0  0  0  0  0  0  0  0  0  0  0
  -25.5451  -29.2890   20.4393 C   0  0  0  0  0  0  0  0  0  0  0  0
  -25.5941  -12.2740   21.1627 C   0  0  0  0  0  0  0  0  0  0  0  0
  -27.8657  -28.8258   19.8823 C   0  0  0  0  0  0  0  0  0  0  0  0
  -24.3735  -10.2701   21.2929 C   0  0  0  0  0  0  0  0  0  0  0  0
  -22.0554   -8.8367   20.6977 C   0  0  0  0  0  0  0  0  0  0  0  0
  -23.5941   -9.7452   22.3238 C   0  0  0  0  0  0  0  0  0  0  0  0
  -25.8098  -16.2884   19.8452 C   0  0  0  0  0  0  0  0  0  0  0  0
  -25.7066  -18.1355   18.6567 C   0  0  0  0  0  0  0  0  0  0  0  0
  -24.9415  -16.0952   17.4320 C   0  0  0  0  0  0  0  0  0  0  0  0
  -23.7550  -29.7477   23.3053 C   0  0  0  0  0  0  0  0  0  0  0  0
  -21.7601  -29.7442   20.7474 C   0  0  0  0  0  0  0  0  0  0  0  0
  -21.3751  -29.4000   17.3740 C   0  0  0  0  0  0  0  0  0  0  0  0
  -29.0965  -22.2238   20.0111 C   0  0  0  0  0  0  0  0  0  0  0  0
  -23.6369  -31.3916   28.1365 C   0  0  0  0  0  0  0  0  0  0  0  0
  -24.9252  -31.3523   21.7522 C   0  0  0  0  0  0  0  0  0  0  0  0
  -24.0979  -28.8800   20.3564 C   0  0  0  0  0  0  0  0  0  0  0  0
  -22.5978  -30.9658   27.1025 C   0  0  0  0  0  0  0  0  0  0  0  0
  -26.7724  -21.0767   22.6039 C   0  0  0  0  0  0  0  0  0  0  0  0
  -22.9919  -29.6370   26.4656 C   0  0  0  0  0  0  0  0  0  0  0  0
  -26.3340  -19.7334   22.0303 C   0  0  0  0  0  0  0  0  0  0  0  0
  -31.9004  -23.8652   20.8616 C   0  0  0  0  0  0  0  0  0  0  0  0
  -28.2268  -21.4066   22.2661 C   0  0  0  0  0  0  0  0  0  0  0  0
  -30.9587  -22.9800   21.6838 C   0  0  0  0  0  0  0  0  0  0  0  0
  -28.0888  -19.9810   20.2407 C   0  0  0  0  0  0  0  0  0  0  0  0
  -24.3301  -29.7550   25.7260 C   0  0  1  0  0  0  0  0  0  0  0  0
  -23.6255  -30.6318   22.0972 C   0  0  1  0  0  0  0  0  0  0  0  0
  -26.6103  -19.6774   20.5206 C   0  0  1  0  0  0  0  0  0  0  0  0
  -30.7151  -24.2002   19.9433 C   0  0  2  0  0  0  0  0  0  0  0  0
  -19.6201  -29.4114   15.5803 C   0  0  0  0  0  0  0  0  0  0  0  0
  -20.8721  -26.9529   21.6018 C   0  0  0  0  0  0  0  0  0  0  0  0
  -19.8806  -26.6468   19.3234 C   0  0  0  0  0  0  0  0  0  0  0  0
  -19.0211  -28.4442   20.8245 C   0  0  0  0  0  0  0  0  0  0  0  0
  -22.6254  -31.7060   16.0036 C   0  0  0  0  0  0  0  0  0  0  0  0
  -29.9885  -25.5085   20.1852 C   0  0  0  0  0  0  0  0  0  0  0  0
  -30.7759  -26.6762   19.5924 C   0  0  0  0  0  0  0  0  0  0  0  0
  -30.1009  -28.0139   19.8620 C   0  0  0  0  0  0  0  0  0  1  0  0
  -21.2967  -28.7059   19.7544 C   0  0  1  0  0  0  0  0  0  0  0  0
  -20.6314  -30.2430   16.3538 C   0  0  2  0  0  0  0  0  0  0  0  0
  -20.2952  -27.6938   20.3791 C   0  0  0  0  0  0  0  0  0  0  0  0
  -26.2544  -17.2413   20.6687 N   0  0  0  0  0  0  0  0  0  0  0  0
  -26.1800  -18.3530   19.9172 N   0  0  0  0  0  0  0  0  0  0  0  0
  -23.1380  -29.7902   21.0025 N   0  0  0  0  0  0  0  0  0  0  0  0
  -28.5036  -21.2585   20.8323 N   0  0  0  0  0  0  0  0  0  0  0  0
  -30.0218  -23.0746   20.5738 N   0  0  0  0  0  0  0  0  0  0  0  0
  -25.5677  -19.1440   17.7701 N   0  0  0  0  0  0  0  0  0  0  0  0
  -24.7414  -14.7110   17.5221 N   0  0  0  0  0  0  0  0  0  0  0  0
  -24.1463  -30.4141   24.4508 N   0  0  0  0  0  0  0  0  0  0  0  0
  -20.7677  -29.4418   18.6112 N   0  0  0  0  0  0  0  0  0  0  0  0
  -21.5883  -30.8432   15.3816 N   0  3  0  0  0  0  0  0  0  0  0  0
  -24.6843  -16.6838   16.3545 O   0  0  0  0  0  0  0  0  0  0  0  0
  -23.5161  -28.5499   23.2058 O   0  0  0  0  0  0  0  0  0  0  0  0
  -20.9309  -30.4919   21.2718 O   0  0  0  0  0  0  0  0  0  0  0  0
  -22.3908  -28.7647   17.0998 O   0  0  0  0  0  0  0  0  0  0  0  0
  -28.8330  -22.3066   18.8042 O   0  0  0  0  0  0  0  0  0  0  0  0
  -25.5241  -10.9825   21.5867 O   0  0  0  0  0  0  0  0  0  0  0  0
  -28.8029  -28.0253   19.2828 O   0  0  0  0  0  0  0  0  0  1  0  0
  -20.9415   -8.1498   20.4119 F   0  0  0  0  0  0  0  0  0  0  0  0
  -23.9531   -9.9272   23.6020 F   0  0  0  0  0  0  0  0  0  0  0  0
  1  2  1  0  0  0  0
  1  5  2  0  0  0  0
  2  6  2  0  0  0  0
  3  8  2  0  0  0  0
  3 15  1  0  0  0  0
  4  9  1  0  0  0  0
  4 15  2  0  0  0  0
  5 17  1  0  0  0  0
  6 19  1  0  0  0  0
  7 10  2  0  0  0  0
  7 18  1  0  0  0  0
  8 21  1  0  0  0  0
  9 21  2  0  0  0  0
 10 22  1  0  0  0  0
 11 12  2  0  0  0  0
 11 23  1  0  0  0  0
 12 24  1  0  0  0  0
 13 20  1  0  0  0  0
 13 22  2  0  0  0  0
 14 24  2  0  0  0  0
 14 25  1  0  0  0  0
 15 26  1  0  0  0  0
 16 26  1  0  0  0  0
 16 27  2  0  0  0  0
 16 28  1  0  0  0  0
 17 19  2  0  0  0  0
 17 33  1  0  0  0  0
 18 20  2  0  0  0  0
 18 34  1  0  0  0  0
 19 44  1  0  0  0  0
 20 35  1  0  0  0  0
 21 74  1  0  0  0  0
 22 75  1  0  0  0  0
 23 25  2  0  0  0  0
 23 74  1  0  0  0  0
 24 76  1  0  0  0  0
 25 77  1  0  0  0  0
 26 59  2  0  0  0  0
 27 60  1  0  0  0  0
 27 64  1  0  0  0  0
 28 65  1  0  0  0  0
 28 69  2  0  0  0  0
 29 45  1  0  0  0  0
 29 66  1  0  0  0  0
 29 70  2  0  0  0  0
 30 56  1  0  0  0  0
 30 61  1  0  0  0  0
 30 71  2  0  0  0  0
 31 57  1  0  0  0  0
 31 67  1  0  0  0  0
 31 72  2  0  0  0  0
 32 62  1  0  0  0  0
 32 63  1  0  0  0  0
 32 73  2  0  0  0  0
 33 36  1  0  0  0  0
 34 45  1  0  0  0  0
 35 61  1  0  0  0  0
 36 38  1  0  0  0  0
 37 39  1  0  0  0  0
 37 41  1  0  0  0  0
 38 44  1  0  0  0  0
 39 46  1  0  0  0  0
 40 42  1  0  0  0  0
 40 47  1  0  0  0  0
 41 62  1  0  0  0  0
 42 63  1  0  0  0  0
 43 46  1  0  0  0  0
 43 62  1  0  0  0  0
 44 66  1  0  0  0  0
 45 61  1  0  0  0  0
 46 60  1  0  0  0  0
 47 53  1  0  0  0  0
 47 63  1  0  0  0  0
 48 57  1  0  0  0  0
 49 58  1  0  0  0  0
 50 58  1  0  0  0  0
 51 58  1  0  0  0  0
 52 68  1  0  0  0  0
 53 54  1  0  0  0  0
 54 55  1  0  0  0  0
 55 75  1  0  0  0  0
 56 58  1  0  0  0  0
 56 67  1  0  0  0  0
 57 68  1  0  0  0  0
 59 60  1  0  0  0  0
M  CHG  1  68   1
M  ISO  4  32 100  55 101  63 100  75 101
M  END
> <Batch ID>
0185

> <Smiles>
CNC(C)C(=O)NC(C(=O)N1Cc2cc([101O:1][101CH2:1]CCC3CC[100N:0]3[100C:0](=O)N3CCCC(n4nc(-c5ccc(Oc6ccc(F)cc6F)cc5)c(C(N)=O)c4N)C3)ccc2CC1C(=O)NC1CCCc2ccccc21)C(C)(C)C

> <Shape>
0.260

> <Color>
0.082

> <Negative vol penalty>
0.000

$$$$

  -OEChem-04052323123D

 81 90  0     1  0  0  0  0  0999 V2000
  -38.7582  -28.1806   15.0871 C   0  0  0  0  0  0  0  0  0  0  0  0
  -38.1881  -27.3372   16.0353 C   0  0  0  0  0  0  0  0  0  0  0  0
  -23.0734   -9.8707   19.9373 C   0  0  0  0  0  0  0  0  0  0  0  0
  -23.8364   -9.8709   22.2297 C   0  0  0  0  0  0  0  0  0  0  0  0
  -37.9592  -29.0882   14.3929 C   0  0  0  0  0  0  0  0  0  0  0  0
  -36.8188  -27.4017   16.2907 C   0  0  0  0  0  0  0  0  0  0  0  0
  -34.6783  -22.8212   16.5776 C   0  0  0  0  0  0  0  0  0  0  0  0
  -22.3297   -8.7169   20.1849 C   0  0  0  0  0  0  0  0  0  0  0  0
  -23.0926   -8.7172   22.4773 C   0  0  0  0  0  0  0  0  0  0  0  0
  -34.8582  -22.1074   17.7616 C   0  0  0  0  0  0  0  0  0  0  0  0
  -19.8652   -7.9181   23.0819 C   0  0  0  0  0  0  0  0  0  0  0  0
  -19.1098   -7.8749   24.2537 C   0  0  0  0  0  0  0  0  0  0  0  0
  -32.6576  -22.7741   18.4909 C   0  0  0  0  0  0  0  0  0  0  0  0
  -20.3519   -5.9352   24.9829 C   0  0  0  0  0  0  0  0  0  0  0  0
  -30.2335  -18.8604   23.1225 C   0  0  0  0  0  0  0  0  0  0  0  0
  -23.8268  -10.4477   20.9597 C   0  0  0  0  0  0  0  0  0  0  0  0
  -24.1689  -12.9731   20.8465 C   0  0  0  0  0  0  0  0  0  0  0  0
  -36.5778  -29.1572   14.6330 C   0  0  0  0  0  0  0  0  0  0  0  0
  -33.4890  -23.5270   16.3458 C   0  0  0  0  0  0  0  0  0  0  0  0
  -36.0008  -28.3120   15.6001 C   0  0  0  0  0  0  0  0  0  0  0  0
  -32.4640  -23.4940   17.3021 C   0  0  0  0  0  0  0  0  0  0  0  0
  -31.4685  -19.3130   22.7421 C   0  0  0  0  0  0  0  0  0  0  0  0
  -22.3393   -8.1402   21.4549 C   0  0  0  0  0  0  0  0  0  0  0  0
  -33.8489  -22.0861   18.7198 C   0  0  0  0  0  0  0  0  0  0  0  0
  -20.8639   -6.9698   22.8605 C   0  0  0  0  0  0  0  0  0  0  0  0
  -19.3532   -6.8835   25.2042 C   0  0  0  0  0  0  0  0  0  0  0  0
  -21.1072   -5.9783   23.8110 C   0  0  0  0  0  0  0  0  0  0  0  0
  -24.5957  -11.6392   20.7043 C   0  0  0  0  0  0  0  0  0  0  0  0
  -32.2138  -18.4822   21.9259 C   0  0  0  0  0  0  0  0  0  0  0  0
  -25.2607  -13.7234   20.4839 C   0  0  0  0  0  0  0  0  0  0  0  0
  -30.5747  -16.9452   21.9118 C   0  0  0  0  0  0  0  0  0  0  0  0
  -22.8991  -13.4879   21.2686 C   0  0  0  0  0  0  0  0  0  0  0  0
  -32.7476  -26.5838   15.8874 C   0  0  0  0  0  0  0  0  0  0  0  0
  -29.7905  -25.3776   15.3189 C   0  0  0  0  0  0  0  0  0  0  0  0
  -27.5556  -22.8422   15.7920 C   0  0  0  0  0  0  0  0  0  0  0  0
  -30.7273  -14.7677   20.6542 C   0  0  0  0  0  0  0  0  0  0  0  0
  -35.7627  -30.1872   13.8918 C   0  0  0  0  0  0  0  0  0  0  0  0
  -33.2999  -24.2702   15.0518 C   0  0  0  0  0  0  0  0  0  0  0  0
  -32.2012  -20.5592   23.0921 C   0  0  0  0  0  0  0  0  0  0  0  0
  -31.1603  -24.2185   17.0925 C   0  0  0  0  0  0  0  0  0  0  0  0
  -33.5586  -19.0859   21.6366 C   0  0  0  0  0  0  0  0  0  0  0  0
  -34.2587  -29.9328   13.9529 C   0  0  0  0  0  0  0  0  0  0  0  0
  -29.6093  -12.3609   18.2805 C   0  0  0  0  0  0  0  0  0  0  0  0
  -33.8296  -29.6094   15.3805 C   0  0  0  0  0  0  0  0  0  0  0  0
  -28.1701  -12.0683   18.7112 C   0  0  0  0  0  0  0  0  0  0  0  0
  -30.5260  -12.5861   19.4815 C   0  0  0  0  0  0  0  0  0  0  0  0
  -28.6211  -13.3068   20.8675 C   0  0  0  0  0  0  0  0  0  0  0  0
  -34.5152  -28.3349   15.8874 C   0  0  1  0  0  0  0  0  0  0  0  0
  -32.2520  -25.3751   15.1450 C   0  0  1  0  0  0  0  0  0  0  0  0
  -33.3299  -20.5636   22.0326 C   0  0  1  0  0  0  0  0  0  0  0  0
  -27.6466  -13.1371   19.6905 C   0  0  2  0  0  0  0  0  0  0  0  0
  -25.2062  -22.1578   15.2358 C   0  0  0  0  0  0  0  0  0  0  0  0
  -28.7296  -27.3264   17.4134 C   0  0  0  0  0  0  0  0  0  0  0  0
  -26.6234  -25.9759   17.5020 C   0  0  0  0  0  0  0  0  0  0  0  0
  -27.2942  -27.0991   15.3781 C   0  0  0  0  0  0  0  0  0  0  0  0
  -28.4777  -20.4371   14.3344 C   0  0  0  0  0  0  0  0  0  0  0  0
  -32.9469  -21.4119   20.8144 C   0  0  0  0  0  0  0  0  0  1  0  0
  -28.5801  -25.0702   16.1671 C   0  0  1  0  0  0  0  0  0  0  0  0
  -26.6671  -22.0881   14.8192 C   0  0  2  0  0  0  0  0  0  0  0  0
  -27.8320  -26.3558   16.6202 C   0  0  0  0  0  0  0  0  0  0  0  0
  -29.7520  -17.6669   22.7124 N   0  0  0  0  0  0  0  0  0  0  0  0
  -25.8600  -11.5443   20.2840 N   0  0  0  0  0  0  0  0  0  0  0  0
  -31.8098  -17.2828   21.4852 N   0  0  0  0  0  0  0  0  0  0  0  0
  -26.2370  -12.8282   20.1589 N   0  0  0  0  0  0  0  0  0  0  0  0
  -31.0257  -24.9361   15.8140 N   0  0  0  0  0  0  0  0  0  0  0  0
  -29.9684  -13.6145   20.3627 N   0  0  0  0  0  0  0  0  0  0  0  0
  -25.4712  -15.0551   20.4144 N   0  0  0  0  0  0  0  0  0  0  0  0
  -21.8874  -12.5779   21.6046 N   0  0  0  0  0  0  0  0  0  0  0  0
  -30.0811  -15.6905   21.4762 N   0  0  0  0  0  0  0  0  0  0  0  0
  -33.8740  -27.1616   15.3336 N   0  0  0  0  0  0  0  0  0  0  0  0
  -27.7618  -24.1451   15.3906 N   0  0  0  0  0  0  0  0  0  0  0  0
  -27.0695  -20.6546   14.7547 N   0  3  0  0  0  0  0  0  0  0  0  0
  -22.6631  -14.7184   21.3298 O   0  0  0  0  0  0  0  0  0  0  0  0
  -32.1512  -26.9649   16.8878 O   0  0  0  0  0  0  0  0  0  0  0  0
  -29.6445  -25.9807   14.2528 O   0  0  0  0  0  0  0  0  0  0  0  0
  -28.0173  -22.3280   16.8083 O   0  0  0  0  0  0  0  0  0  0  0  0
  -31.8557  -14.9376   20.1855 O   0  0  0  0  0  0  0  0  0  0  0  0
  -21.6135   -7.0145   21.6970 O   0  0  0  0  0  0  0  0  0  0  0  0
  -34.0222  -21.3907   19.8766 O   0  0  0  0  0  0  0  0  0  1  0  0
  -18.6287   -6.8431   26.3301 F   0  0  0  0  0  0  0  0  0  0  0  0
  -22.0661   -5.0653   23.6045 F   0  0  0  0  0  0  0  0  0  0  0  0
  1  2  1  0  0  0  0
  1  5  2  0  0  0  0
  2  6  2  0  0  0  0
  3  8  2  0  0  0  0
  3 16  1  0  0  0  0
  4  9  1  0  0  0  0
  4 16  2  0  0  0  0
  5 18  1  0  0  0  0
  6 20  1  0  0  0  0
  7 10  2  0  0  0  0
  7 19  1  0  0  0  0
  8 23  1  0  0  0  0
  9 23  2  0  0  0  0
 10 24  1  0  0  0  0
 11 12  2  0  0  0  0
 11 25  1  0  0  0  0
 12 26  1  0  0  0  0
 13 21  1  0  0  0  0
 13 24  2  0  0  0  0
 14 26  2  0  0  0  0
 14 27  1  0  0  0  0
 15 22  1  0  0  0  0
 15 61  2  0  0  0  0
 16 28  1  0  0  0  0
 17 28  1  0  0  0  0
 17 30  2  0  0  0  0
 17 32  1  0  0  0  0
 18 20  2  0  0  0  0
 18 37  1  0  0  0  0
 19 21  2  0  0  0  0
 19 38  1  0  0  0  0
 20 48  1  0  0  0  0
 21 40  1  0  0  0  0
 22 29  2  0  0  0  0
 22 39  1  0  0  0  0
 23 78  1  0  0  0  0
 24 79  1  0  0  0  0
 25 27  2  0  0  0  0
 25 78  1  0  0  0  0
 26 80  1  0  0  0  0
 27 81  1  0  0  0  0
 28 62  2  0  0  0  0
 29 41  1  0  0  0  0
 29 63  1  0  0  0  0
 30 64  1  0  0  0  0
 30 67  1  0  0  0  0
 31 61  1  0  0  0  0
 31 63  2  0  0  0  0
 31 69  1  0  0  0  0
 32 68  1  0  0  0  0
 32 73  2  0  0  0  0
 33 49  1  0  0  0  0
 33 70  1  0  0  0  0
 33 74  2  0  0  0  0
 34 58  1  0  0  0  0
 34 65  1  0  0  0  0
 34 75  2  0  0  0  0
 35 59  1  0  0  0  0
 35 71  1  0  0  0  0
 35 76  2  0  0  0  0
 36 66  1  0  0  0  0
 36 69  1  0  0  0  0
 36 77  2  0  0  0  0
 37 42  1  0  0  0  0
 38 49  1  0  0  0  0
 39 50  1  0  0  0  0
 40 65  1  0  0  0  0
 41 50  1  0  0  0  0
 42 44  1  0  0  0  0
 43 45  1  0  0  0  0
 43 46  1  0  0  0  0
 44 48  1  0  0  0  0
 45 51  1  0  0  0  0
 46 66  1  0  0  0  0
 47 51  1  0  0  0  0
 47 66  1  0  0  0  0
 48 70  1  0  0  0  0
 49 65  1  0  0  0  0
 50 57  1  0  0  0  0
 51 64  1  0  0  0  0
 52 59  1  0  0  0  0
 53 60  1  0  0  0  0
 54 60  1  0  0  0  0
 55 60  1  0  0  0  0
 56 72  1  0  0  0  0
 57 79  1  0  0  0  0
 58 60  1  0  0  0  0
 58 71  1  0  0  0  0
 59 72  1  0  0  0  0
 62 64  1  0  0  0  0
M  CHG  1  72   1
M  ISO  4  36 100  57 101  69 100  79 101
M  END
> <Batch ID>
0185

> <Smiles>
CNC(C)C(=O)NC(C(=O)N1Cc2cc([101O:1][101CH2:1]C3Cc4cnc([100NH:0][100C:0](=O)N5CCCC(n6nc(-c7ccc(Oc8ccc(F)cc8F)cc7)c(C(N)=O)c6N)C5)nc4C3)ccc2CC1C(=O)NC1CCCc2ccccc21)C(C)(C)C

> <Shape>
0.185

> <Color>
0.188

> <Negative vol penalty>
0.000

$$$$

  -OEChem-04052323123D

 84 93  0     1  0  0  0  0  0999 V2000
  -29.1904  -36.4722   23.4455 C   0  0  0  0  0  0  0  0  0  0  0  0
  -29.4041  -35.1570   23.0455 C   0  0  0  0  0  0  0  0  0  0  0  0
  -21.1578  -11.4762   20.2180 C   0  0  0  0  0  0  0  0  0  0  0  0
  -23.5691  -11.4231   20.3585 C   0  0  0  0  0  0  0  0  0  0  0  0
  -28.0067  -36.8182   24.0960 C   0  0  0  0  0  0  0  0  0  0  0  0
  -28.4346  -34.1868   23.2966 C   0  0  0  0  0  0  0  0  0  0  0  0
  -27.0205  -29.3928   19.7577 C   0  0  0  0  0  0  0  0  0  0  0  0
  -21.1708  -10.2604   19.5345 C   0  0  0  0  0  0  0  0  0  0  0  0
  -23.5821  -10.2072   19.6750 C   0  0  0  0  0  0  0  0  0  0  0  0
  -27.3898  -28.0492   19.8070 C   0  0  0  0  0  0  0  0  0  0  0  0
  -23.0228   -6.9497   20.3793 C   0  0  0  0  0  0  0  0  0  0  0  0
  -23.8467   -5.9387   20.8740 C   0  0  0  0  0  0  0  0  0  0  0  0
  -25.3543  -27.5397   20.9971 C   0  0  0  0  0  0  0  0  0  0  0  0
  -25.0538   -5.8986   18.7815 C   0  0  0  0  0  0  0  0  0  0  0  0
  -22.3569  -12.0576   20.6299 C   0  0  0  0  0  0  0  0  0  0  0  0
  -22.2674  -13.5060   22.7280 C   0  0  0  0  0  0  0  0  0  0  0  0
  -27.0180  -35.8536   24.3466 C   0  0  0  0  0  0  0  0  0  0  0  0
  -25.8185  -29.8223   20.3384 C   0  0  0  0  0  0  0  0  0  0  0  0
  -27.2371  -34.5199   23.9522 C   0  0  0  0  0  0  0  0  0  0  0  0
  -24.9709  -28.8888   20.9516 C   0  0  0  0  0  0  0  0  0  0  0  0
  -22.3830   -9.6259   19.2630 C   0  0  0  0  0  0  0  0  0  0  0  0
  -26.5580  -27.1230   20.4293 C   0  0  0  0  0  0  0  0  0  0  0  0
  -23.2143   -7.4351   19.0857 C   0  0  0  0  0  0  0  0  0  0  0  0
  -24.8622   -5.4132   20.0751 C   0  0  0  0  0  0  0  0  0  0  0  0
  -24.2298   -6.9095   18.2868 C   0  0  0  0  0  0  0  0  0  0  0  0
  -22.3441  -13.3138   21.3355 C   0  0  0  0  0  0  0  0  0  0  0  0
  -22.2889  -14.8700   22.8881 C   0  0  0  0  0  0  0  0  0  0  0  0
  -29.1621  -18.9867   20.1459 C   0  0  0  0  0  0  0  0  0  0  0  0
  -28.3167  -20.9916   19.5960 C   0  0  0  0  0  0  0  0  0  0  0  0
  -26.9503  -19.2298   19.8531 C   0  0  0  0  0  0  0  0  0  0  0  0
  -22.1842  -12.5381   23.7825 C   0  0  0  0  0  0  0  0  0  0  0  0
  -25.0505  -31.8245   22.6846 C   0  0  0  0  0  0  0  0  0  0  0  0
  -22.0241  -31.2125   21.6903 C   0  0  0  0  0  0  0  0  0  0  0  0
  -19.8689  -29.0972   20.1006 C   0  0  0  0  0  0  0  0  0  0  0  0
  -24.4505  -19.3371   19.5599 C   0  0  0  0  0  0  0  0  0  0  0  0
  -25.7751  -36.2656   25.0950 C   0  0  0  0  0  0  0  0  0  0  0  0
  -25.4219  -31.2707   20.2533 C   0  0  0  0  0  0  0  0  0  0  0  0
  -23.6602  -29.2955   21.5723 C   0  0  0  0  0  0  0  0  0  0  0  0
  -24.6370  -35.2537   24.9893 C   0  0  0  0  0  0  0  0  0  0  0  0
  -21.0835  -18.9236   20.6411 C   0  0  0  0  0  0  0  0  0  0  0  0
  -25.1547  -33.8402   25.2358 C   0  0  0  0  0  0  0  0  0  0  0  0
  -21.0193  -17.4572   21.0743 C   0  0  0  0  0  0  0  0  0  0  0  0
  -27.8620  -24.5216   22.2748 C   0  0  0  0  0  0  0  0  0  0  0  0
  -21.9795  -19.1152   19.4188 C   0  0  0  0  0  0  0  0  0  0  0  0
  -23.2681  -17.0920   19.9805 C   0  0  0  0  0  0  0  0  0  0  0  0
  -27.7376  -23.1928   21.5569 C   0  0  0  0  0  0  0  0  0  0  0  0
  -29.0652  -24.7425   20.2020 C   0  0  0  0  0  0  0  0  0  0  0  0
  -26.1986  -33.4440   24.1847 C   0  0  1  0  0  0  0  0  0  0  0  0
  -24.4200  -31.6800   21.3285 C   0  0  1  0  0  0  0  0  0  0  0  0
  -22.4290  -16.8585   21.2474 C   0  0  2  0  0  0  0  0  0  0  0  0
  -28.1395  -25.4968   21.1437 C   0  0  1  0  0  0  0  0  0  1  0  0
  -30.3345  -18.1249   20.4710 C   0  0  0  0  0  0  0  0  0  0  0  0
  -17.4503  -28.8508   19.4786 C   0  0  0  0  0  0  0  0  0  0  0  0
  -21.3610  -30.4676   24.5740 C   0  0  0  0  0  0  0  0  0  0  0  0
  -19.2828  -29.3521   23.7344 C   0  0  0  0  0  0  0  0  0  0  0  0
  -19.5974  -31.8053   23.4101 C   0  0  0  0  0  0  0  0  0  0  0  0
  -20.4977  -29.0471   17.2090 C   0  0  0  0  0  0  0  0  0  0  0  0
  -28.5160  -22.4451   19.2823 C   0  0  0  0  0  0  0  0  0  0  0  0
  -20.9717  -30.1873   22.0371 C   0  0  1  0  0  0  0  0  0  0  0  0
  -18.8180  -29.3448   19.0335 C   0  0  2  0  0  0  0  0  0  0  0  0
  -20.3287  -30.4454   23.4290 C   0  0  0  0  0  0  0  0  0  0  0  0
  -22.4093  -14.4637   20.6591 N   0  0  0  0  0  0  0  0  0  0  0  0
  -29.4182  -20.2774   19.8777 N   0  0  0  0  0  0  0  0  0  0  0  0
  -27.9573  -18.3937   20.1526 N   0  0  0  0  0  0  0  0  0  0  0  0
  -27.0536  -20.5371   19.5646 N   0  0  0  0  0  0  0  0  0  0  0  0
  -22.3736  -15.3916   21.6307 N   0  0  0  0  0  0  0  0  0  0  0  0
  -23.3196  -30.7241   21.4689 N   0  0  0  0  0  0  0  0  0  0  0  0
  -23.2994  -18.5271   19.6572 N   0  0  0  0  0  0  0  0  0  0  0  0
  -22.2434  -15.6620   23.9803 N   0  0  0  0  0  0  0  0  0  0  0  0
  -22.1734  -11.1785   23.4422 N   0  0  0  0  0  0  0  0  0  0  0  0
  -25.6461  -18.6761   19.8396 N   0  0  0  0  0  0  0  0  0  0  0  0
  -25.5523  -33.0864   22.9402 N   0  0  0  0  0  0  0  0  0  0  0  0
  -20.0210  -30.1878   20.9304 N   0  0  0  0  0  0  0  0  0  0  0  0
  -28.8081  -23.2711   20.4936 N   0  3  2  0  0  0  0  0  0  0  0  0
  -19.1844  -28.6406   17.7722 N   0  3  0  0  0  0  0  0  0  0  0  0
  -22.1048  -12.8694   24.9897 O   0  0  0  0  0  0  0  0  0  0  0  0
  -25.0784  -30.8628   23.4436 O   0  0  0  0  0  0  0  0  0  0  0  0
  -21.7070  -32.4019   21.6116 O   0  0  0  0  0  0  0  0  0  0  0  0
  -20.4899  -28.0405   20.1913 O   0  0  0  0  0  0  0  0  0  0  0  0
  -24.3784  -20.5360   19.2778 O   0  0  0  0  0  0  0  0  0  0  0  0
  -22.3960   -8.4393   18.5963 O   0  0  0  0  0  0  0  0  0  0  0  0
  -26.9163  -25.8111   20.4793 O   0  0  0  0  0  0  0  0  0  1  0  0
  -25.6543   -4.4434   20.5509 F   0  0  0  0  0  0  0  0  0  0  0  0
  -24.4194   -7.3726   17.0437 F   0  0  0  0  0  0  0  0  0  0  0  0
  1  2  1  0  0  0  0
  1  5  2  0  0  0  0
  2  6  2  0  0  0  0
  3  8  2  0  0  0  0
  3 15  1  0  0  0  0
  4  9  1  0  0  0  0
  4 15  2  0  0  0  0
  5 17  1  0  0  0  0
  6 19  1  0  0  0  0
  7 10  2  0  0  0  0
  7 18  1  0  0  0  0
  8 21  1  0  0  0  0
  9 21  2  0  0  0  0
 10 22  1  0  0  0  0
 11 12  2  0  0  0  0
 11 23  1  0  0  0  0
 12 24  1  0  0  0  0
 13 20  1  0  0  0  0
 13 22  2  0  0  0  0
 14 24  2  0  0  0  0
 14 25  1  0  0  0  0
 15 26  1  0  0  0  0
 16 26  1  0  0  0  0
 16 27  2  0  0  0  0
 16 31  1  0  0  0  0
 17 19  2  0  0  0  0
 17 36  1  0  0  0  0
 18 20  2  0  0  0  0
 18 37  1  0  0  0  0
 19 48  1  0  0  0  0
 20 38  1  0  0  0  0
 21 81  1  0  0  0  0
 22 82  1  0  0  0  0
 23 25  2  0  0  0  0
 23 81  1  0  0  0  0
 24 83  1  0  0  0  0
 25 84  1  0  0  0  0
 26 62  2  0  0  0  0
 27 66  1  0  0  0  0
 27 69  1  0  0  0  0
 28 52  1  0  0  0  0
 28 63  2  0  0  0  0
 28 64  1  0  0  0  0
 29 58  1  0  0  0  0
 29 63  1  0  0  0  0
 29 65  2  0  0  0  0
 30 64  2  0  0  0  0
 30 65  1  0  0  0  0
 30 71  1  0  0  0  0
 31 70  1  0  0  0  0
 31 76  2  0  0  0  0
 32 49  1  0  0  0  0
 32 72  1  0  0  0  0
 32 77  2  0  0  0  0
 33 59  1  0  0  0  0
 33 67  1  0  0  0  0
 33 78  2  0  0  0  0
 34 60  1  0  0  0  0
 34 73  1  0  0  0  0
 34 79  2  0  0  0  0
 35 68  1  0  0  0  0
 35 71  1  0  0  0  0
 35 80  2  0  0  0  0
 36 39  1  0  0  0  0
 37 49  1  0  0  0  0
 38 67  1  0  0  0  0
 39 41  1  0  0  0  0
 40 42  1  0  0  0  0
 40 44  1  0  0  0  0
 41 48  1  0  0  0  0
 42 50  1  0  0  0  0
 43 46  1  0  0  0  0
 43 51  1  0  0  0  0
 44 68  1  0  0  0  0
 45 50  1  0  0  0  0
 45 68  1  0  0  0  0
 46 74  1  0  0  0  0
 47 51  1  0  0  0  0
 47 74  1  0  0  0  0
 48 72  1  0  0  0  0
 49 67  1  0  0  0  0
 50 66  1  0  0  0  0
 51 82  1  0  0  0  0
 53 60  1  0  0  0  0
 54 61  1  0  0  0  0
 55 61  1  0  0  0  0
 56 61  1  0  0  0  0
 57 75  1  0  0  0  0
 58 74  1  0  0  0  0
 59 61  1  0  0  0  0
 59 73  1  0  0  0  0
 60 75  1  0  0  0  0
 62 66  1  0  0  0  0
M  CHG  2  74   1  75   1
M  ISO  4  35 100  51 101  71 100  82 101
M  END
> <Batch ID>
0185

> <Smiles>
CNC(C)C(=O)NC(C(=O)N1Cc2cc([101O:1][101CH:1]3CCN(Cc4nc(C)nc([100NH:0][100C:0](=O)N5CCCC(n6nc(-c7ccc(Oc8ccc(F)cc8F)cc7)c(C(N)=O)c6N)C5)n4)C3)ccc2CC1C(=O)NC1CCCc2ccccc21)C(C)(C)C

> <Shape>
0.234

> <Color>
0.071

> <Negative vol penalty>
0.000

$$$$

  -OEChem-04052323123D

 81 89  0     1  0  0  0  0  0999 V2000
  -28.9409  -10.2211   16.4172 C   0  0  0  0  0  0  0  0  0  0  0  0
  -27.7975  -10.9976   16.2588 C   0  0  0  0  0  0  0  0  0  0  0  0
  -23.1804  -31.9582   24.8915 C   0  0  0  0  0  0  0  0  0  0  0  0
  -25.2775  -31.3610   25.9319 C   0  0  0  0  0  0  0  0  0  0  0  0
  -29.7600  -10.4073   17.5300 C   0  0  0  0  0  0  0  0  0  0  0  0
  -27.4720  -11.9601   17.2138 C   0  0  0  0  0  0  0  0  0  0  0  0
  -24.8038  -17.3814   16.2155 C   0  0  0  0  0  0  0  0  0  0  0  0
  -22.5899  -32.0766   26.1496 C   0  0  0  0  0  0  0  0  0  0  0  0
  -24.6871  -31.4794   27.1900 C   0  0  0  0  0  0  0  0  0  0  0  0
  -23.4834  -17.8129   16.3337 C   0  0  0  0  0  0  0  0  0  0  0  0
  -23.8267  -31.9758   30.6874 C   0  0  0  0  0  0  0  0  0  0  0  0
  -24.5367  -32.6567   31.6763 C   0  0  0  0  0  0  0  0  0  0  0  0
  -23.9641  -18.6604   18.5404 C   0  0  0  0  0  0  0  0  0  0  0  0
  -24.5389  -34.6459   30.3051 C   0  0  0  0  0  0  0  0  0  0  0  0
  -24.5242  -31.6004   24.7826 C   0  0  0  0  0  0  0  0  0  0  0  0
  -25.7859  -32.4879   22.7509 C   0  0  0  0  0  0  0  0  0  0  0  0
  -29.4496  -11.3793   18.4941 C   0  0  0  0  0  0  0  0  0  0  0  0
  -25.7131  -17.5768   17.2651 C   0  0  0  0  0  0  0  0  0  0  0  0
  -28.2870  -12.1587   18.3412 C   0  0  0  0  0  0  0  0  0  0  0  0
  -25.2962  -18.2328   18.4321 C   0  0  0  0  0  0  0  0  0  0  0  0
  -23.3432  -31.8372   27.2989 C   0  0  0  0  0  0  0  0  0  0  0  0
  -23.0625  -18.4499   17.4974 C   0  0  0  0  0  0  0  0  0  0  0  0
  -23.4729  -32.6300   29.5073 C   0  0  0  0  0  0  0  0  0  0  0  0
  -24.8927  -33.9917   31.4852 C   0  0  0  0  0  0  0  0  0  0  0  0
  -23.8290  -33.9650   29.3162 C   0  0  0  0  0  0  0  0  0  0  0  0
  -25.1346  -31.4774   23.4832 C   0  0  0  0  0  0  0  0  0  0  0  0
  -26.1856  -31.8688   21.5918 C   0  0  0  0  0  0  0  0  0  0  0  0
  -26.0098  -33.8634   23.0882 C   0  0  0  0  0  0  0  0  0  0  0  0
  -27.4190  -15.6600   19.1411 C   0  0  0  0  0  0  0  0  0  0  0  0
  -28.6869  -18.4564   20.1875 C   0  0  0  0  0  0  0  0  0  0  0  0
  -28.3339  -21.8270   20.5888 C   0  0  0  0  0  0  0  0  0  0  0  0
  -24.1940  -27.3703   18.5575 C   0  0  0  0  0  0  0  0  0  0  0  0
  -30.3399  -11.5117   19.7043 C   0  0  0  0  0  0  0  0  0  0  0  0
  -27.1409  -17.1294   17.1114 C   0  0  0  0  0  0  0  0  0  0  0  0
  -26.2384  -18.4849   19.5798 C   0  0  0  0  0  0  0  0  0  0  0  0
  -30.1260  -12.8096   20.4787 C   0  0  0  0  0  0  0  0  0  0  0  0
  -27.4480  -27.5957   19.8630 C   0  0  0  0  0  0  0  0  0  0  0  0
  -28.6370  -13.0689   20.6853 C   0  0  0  0  0  0  0  0  0  0  0  0
  -27.2892  -28.7258   20.8797 C   0  0  0  0  0  0  0  0  0  0  0  0
  -26.2446  -26.6513   19.8626 C   0  0  0  0  0  0  0  0  0  0  0  0
  -24.4346  -24.8533   18.3803 C   0  0  0  0  0  0  0  0  0  0  0  0
  -23.6738  -26.1846   16.4473 C   0  0  0  0  0  0  0  0  0  0  0  0
  -24.7860  -28.4659   20.6985 C   0  0  0  0  0  0  0  0  0  0  0  0
  -23.1663  -24.0089   18.3100 C   0  0  0  0  0  0  0  0  0  0  0  0
  -22.3869  -25.3800   16.3633 C   0  0  0  0  0  0  0  0  0  0  0  0
  -27.9137  -13.2299   19.3428 C   0  0  1  0  0  0  0  0  0  0  0  0
  -27.8488  -16.9213   18.4467 C   0  0  1  0  0  0  0  0  0  0  0  0
  -25.9537  -29.4643   20.6803 C   0  0  1  0  0  0  0  0  0  0  0  0
  -29.5217  -23.8361   21.5109 C   0  0  0  0  0  0  0  0  0  0  0  0
  -19.8967  -18.3423   16.2126 C   0  0  0  0  0  0  0  0  0  0  0  0
  -27.9726  -17.5757   23.0202 C   0  0  0  0  0  0  0  0  0  0  0  0
  -28.2907  -19.9455   23.7624 C   0  0  0  0  0  0  0  0  0  0  0  0
  -30.2092  -18.6731   22.8017 C   0  0  0  0  0  0  0  0  0  0  0  0
  -28.4081  -23.1435   17.9392 C   0  0  0  0  0  0  0  0  0  0  0  0
  -21.8814  -21.6534   16.6945 C   0  0  0  0  0  0  0  0  0  0  0  0
  -20.6815  -20.7189   16.5078 C   0  0  0  0  0  0  0  0  0  0  0  0
  -21.4348  -23.1072   16.7564 C   0  0  0  0  0  0  0  0  0  0  0  0
  -28.3452  -19.4437   21.2773 C   0  0  1  0  0  0  0  0  0  0  0  0
  -29.2691  -22.9818   20.2783 C   0  0  2  0  0  0  0  0  0  0  0  0
  -21.1030  -19.2496   16.4126 C   0  0  1  0  0  0  0  0  0  1  0  0
  -28.6860  -18.9032   22.6947 C   0  0  0  0  0  0  0  0  0  0  0  0
  -25.1189  -30.3052   22.8430 N   0  0  0  0  0  0  0  0  0  0  0  0
  -25.7653  -30.5754   21.6962 N   0  0  0  0  0  0  0  0  0  0  0  0
  -27.6226  -18.0232   19.3842 N   0  0  0  0  0  0  0  0  0  0  0  0
  -24.9918  -27.4043   19.7110 N   0  0  0  0  0  0  0  0  0  0  0  0
  -24.2105  -26.1857   17.8064 N   0  0  0  0  0  0  0  0  0  0  0  0
  -26.8518  -32.3099   20.5037 N   0  0  0  0  0  0  0  0  0  0  0  0
  -25.5330  -34.3357   24.3186 N   0  0  0  0  0  0  0  0  0  0  0  0
  -28.1577  -14.5457   18.7918 N   0  0  0  0  0  0  0  0  0  0  0  0
  -29.0278  -20.6858   20.9314 N   0  0  0  0  0  0  0  0  0  0  0  0
  -22.6445  -23.9887   16.8933 N   0  3  0  0  0  0  0  0  0  0  0  0
  -28.6857  -23.8496   19.2165 N   0  3  0  0  0  0  0  0  0  0  0  0
  -26.6003  -34.6543   22.3140 O   0  0  0  0  0  0  0  0  0  0  0  0
  -26.4871  -15.6955   19.9361 O   0  0  0  0  0  0  0  0  0  0  0  0
  -29.8563  -18.0888   20.0494 O   0  0  0  0  0  0  0  0  0  0  0  0
  -27.1102  -21.9284   20.5366 O   0  0  0  0  0  0  0  0  0  0  0  0
  -23.5063  -28.3418   18.2188 O   0  0  0  0  0  0  0  0  0  0  0  0
  -22.7674  -31.9528   28.5267 O   0  0  0  0  0  0  0  0  0  0  0  0
  -21.7662  -18.8741   17.6163 O   0  0  0  0  0  0  0  0  0  1  0  0
  -25.5732  -34.6459   32.4356 F   0  0  0  0  0  0  0  0  0  0  0  0
  -23.4909  -34.5991   28.1850 F   0  0  0  0  0  0  0  0  0  0  0  0
  1  2  1  0  0  0  0
  1  5  2  0  0  0  0
  2  6  2  0  0  0  0
  3  8  2  0  0  0  0
  3 15  1  0  0  0  0
  4  9  1  0  0  0  0
  4 15  2  0  0  0  0
  5 17  1  0  0  0  0
  6 19  1  0  0  0  0
  7 10  2  0  0  0  0
  7 18  1  0  0  0  0
  8 21  1  0  0  0  0
  9 21  2  0  0  0  0
 10 22  1  0  0  0  0
 11 12  2  0  0  0  0
 11 23  1  0  0  0  0
 12 24  1  0  0  0  0
 13 20  1  0  0  0  0
 13 22  2  0  0  0  0
 14 24  2  0  0  0  0
 14 25  1  0  0  0  0
 15 26  1  0  0  0  0
 16 26  1  0  0  0  0
 16 27  2  0  0  0  0
 16 28  1  0  0  0  0
 17 19  2  0  0  0  0
 17 33  1  0  0  0  0
 18 20  2  0  0  0  0
 18 34  1  0  0  0  0
 19 46  1  0  0  0  0
 20 35  1  0  0  0  0
 21 78  1  0  0  0  0
 22 79  1  0  0  0  0
 23 25  2  0  0  0  0
 23 78  1  0  0  0  0
 24 80  1  0  0  0  0
 25 81  1  0  0  0  0
 26 62  2  0  0  0  0
 27 63  1  0  0  0  0
 27 67  1  0  0  0  0
 28 68  1  0  0  0  0
 28 73  2  0  0  0  0
 29 47  1  0  0  0  0
 29 69  1  0  0  0  0
 29 74  2  0  0  0  0
 30 58  1  0  0  0  0
 30 64  1  0  0  0  0
 30 75  2  0  0  0  0
 31 59  1  0  0  0  0
 31 70  1  0  0  0  0
 31 76  2  0  0  0  0
 32 65  1  0  0  0  0
 32 66  1  0  0  0  0
 32 77  2  0  0  0  0
 33 36  1  0  0  0  0
 34 47  1  0  0  0  0
 35 64  1  0  0  0  0
 36 38  1  0  0  0  0
 37 39  1  0  0  0  0
 37 40  1  0  0  0  0
 38 46  1  0  0  0  0
 39 48  1  0  0  0  0
 40 65  1  0  0  0  0
 41 44  1  0  0  0  0
 41 66  1  0  0  0  0
 42 45  1  0  0  0  0
 42 66  1  0  0  0  0
 43 48  1  0  0  0  0
 43 65  1  0  0  0  0
 44 71  1  0  0  0  0
 45 71  1  0  0  0  0
 46 69  1  0  0  0  0
 47 64  1  0  0  0  0
 48 63  1  0  0  0  0
 49 59  1  0  0  0  0
 50 60  1  0  0  0  0
 51 61  1  0  0  0  0
 52 61  1  0  0  0  0
 53 61  1  0  0  0  0
 54 72  1  0  0  0  0
 55 56  1  0  0  0  0
 55 57  1  0  0  0  0
 56 60  1  0  0  0  0
 57 71  1  0  0  0  0
 58 61  1  0  0  0  0
 58 70  1  0  0  0  0
 59 72  1  0  0  0  0
 60 79  1  0  0  0  0
 62 63  1  0  0  0  0
M  CHG  2  71   1  72   1
M  ISO  4  32 100  60 101  66 100  79 101
M  END
> <Batch ID>
0185

> <Smiles>
CNC(C)C(=O)NC(C(=O)N1Cc2cc([101O:1][101CH:1](C)CCCN3CC[100N:0]([100C:0](=O)N4CCCC(n5nc(-c6ccc(Oc7ccc(F)cc7F)cc6)c(C(N)=O)c5N)C4)CC3)ccc2CC1C(=O)NC1CCCc2ccccc21)C(C)(C)C

> <Shape>
0.219

> <Color>
0.086

> <Negative vol penalty>
0.000

$$$$

  -OEChem-04052323123D

 85 95  0     1  0  0  0  0  0999 V2000
  -26.0408  -31.7379   28.7150 C   0  0  0  0  0  0  0  0  0  0  0  0
  -26.6703  -31.0409   27.6887 C   0  0  0  0  0  0  0  0  0  0  0  0
  -26.3380  -12.8271   21.7563 C   0  0  0  0  0  0  0  0  0  0  0  0
  -26.1118  -13.8489   19.5787 C   0  0  0  0  0  0  0  0  0  0  0  0
  -24.6514  -31.7066   28.8275 C   0  0  0  0  0  0  0  0  0  0  0  0
  -25.9108  -30.3111   26.7749 C   0  0  0  0  0  0  0  0  0  0  0  0
  -27.0927  -29.5025   20.8205 C   0  0  0  0  0  0  0  0  0  0  0  0
  -30.2136  -24.3966   15.9113 C   0  0  0  0  0  0  0  0  0  0  0  0
  -24.9831  -12.4960   21.7416 C   0  0  0  0  0  0  0  0  0  0  0  0
  -24.7569  -13.5177   19.5640 C   0  0  0  0  0  0  0  0  0  0  0  0
  -27.6853  -28.4557   20.1156 C   0  0  0  0  0  0  0  0  0  0  0  0
  -23.0114  -10.1333   20.3407 C   0  0  0  0  0  0  0  0  0  0  0  0
  -22.6544   -8.8456   20.7408 C   0  0  0  0  0  0  0  0  0  0  0  0
  -29.8020  -25.5001   16.6502 C   0  0  0  0  0  0  0  0  0  0  0  0
  -25.5006  -27.5627   19.6169 C   0  0  0  0  0  0  0  0  0  0  0  0
  -21.3063   -9.7719   22.5189 C   0  0  0  0  0  0  0  0  0  0  0  0
  -26.9024  -13.5037   20.6748 C   0  0  0  0  0  0  0  0  0  0  0  0
  -29.3730  -13.0676   20.2126 C   0  0  0  0  0  0  0  0  0  0  0  0
  -23.8739  -30.9840   27.9089 C   0  0  0  0  0  0  0  0  0  0  0  0
  -25.6976  -29.5813   20.9384 C   0  0  0  0  0  0  0  0  0  0  0  0
  -24.5098  -30.2690   26.8760 C   0  0  0  0  0  0  0  0  0  0  0  0
  -30.1517  -23.1271   16.4751 C   0  0  0  0  0  0  0  0  0  0  0  0
  -24.8927  -28.6129   20.3217 C   0  0  0  0  0  0  0  0  0  0  0  0
  -24.1926  -12.8412   20.6455 C   0  0  0  0  0  0  0  0  0  0  0  0
  -26.8894  -27.4841   19.5161 C   0  0  0  0  0  0  0  0  0  0  0  0
  -22.5158  -11.2403   21.0297 C   0  0  0  0  0  0  0  0  0  0  0  0
  -21.8019   -8.6649   21.8299 C   0  0  0  0  0  0  0  0  0  0  0  0
  -21.6633  -11.0596   22.1188 C   0  0  0  0  0  0  0  0  0  0  0  0
  -28.3018  -13.8465   20.6896 C   0  0  0  0  0  0  0  0  0  0  0  0
  -29.6743  -23.0155   17.7710 C   0  0  0  0  0  0  0  0  0  0  0  0
  -29.3400  -25.2824   17.9383 C   0  0  0  0  0  0  0  0  0  0  0  0
  -30.4880  -13.8321   20.4546 C   0  0  0  0  0  0  0  0  0  0  0  0
  -29.3611  -11.7690   19.6050 C   0  0  0  0  0  0  0  0  0  0  0  0
  -23.6441  -29.5157   23.3638 C   0  0  0  0  0  0  0  0  0  0  0  0
  -21.4805  -30.1838   21.0411 C   0  0  0  0  0  0  0  0  0  0  0  0
  -20.6502  -30.0616   17.7331 C   0  0  0  0  0  0  0  0  0  0  0  0
  -31.2942  -19.7243   21.1115 C   0  0  0  0  0  0  0  0  0  0  0  0
  -22.3783  -30.9412   28.0991 C   0  0  0  0  0  0  0  0  0  0  0  0
  -25.0729  -30.7314   21.6796 C   0  0  0  0  0  0  0  0  0  0  0  0
  -23.3895  -28.6633   20.4015 C   0  0  0  0  0  0  0  0  0  0  0  0
  -21.6215  -30.4497   26.8679 C   0  0  0  0  0  0  0  0  0  0  0  0
  -32.1841  -17.1791   23.3946 C   0  0  0  0  0  0  0  0  0  0  0  0
  -30.5483  -22.0001   14.1846 C   0  0  0  0  0  0  0  0  0  0  0  0
  -29.5657  -21.1458   14.9228 C   0  0  0  0  0  0  0  0  0  0  0  0
  -22.2815  -29.1970   26.3004 C   0  0  0  0  0  0  0  0  0  0  0  0
  -31.3694  -15.9691   22.9456 C   0  0  0  0  0  0  0  0  0  0  0  0
  -28.5024  -21.4901   19.5172 C   0  0  0  0  0  0  0  0  0  0  0  0
  -31.3805  -18.4624   23.2329 C   0  0  0  0  0  0  0  0  0  0  0  0
  -28.9368  -20.2222   20.2400 C   0  0  0  0  0  0  0  0  0  0  0  0
  -30.8436  -21.2428   19.2081 C   0  0  0  0  0  0  0  0  0  0  0  0
  -30.1012  -17.4913   21.3433 C   0  0  0  0  0  0  0  0  0  0  0  0
  -30.5915  -21.9400   15.6897 C   0  0  0  0  0  0  0  0  0  0  0  0
  -23.7187  -29.4862   25.8506 C   0  0  1  0  0  0  0  0  0  0  0  0
  -29.5833  -21.6606   18.4374 C   0  0  2  0  0  0  0  0  0  0  0  0
  -23.6606  -30.4292   22.1708 C   0  0  1  0  0  0  0  0  0  0  0  0
  -30.8635  -16.1602   21.5073 C   0  0  2  0  0  0  0  0  0  0  0  0
  -18.8001  -30.6510   16.1434 C   0  0  0  0  0  0  0  0  0  0  0  0
  -19.8836  -27.7705   22.0085 C   0  0  0  0  0  0  0  0  0  0  0  0
  -18.6080  -27.8392   19.8553 C   0  0  0  0  0  0  0  0  0  0  0  0
  -18.5008  -29.7720   21.4286 C   0  0  0  0  0  0  0  0  0  0  0  0
  -22.3875  -31.9165   16.2166 C   0  0  0  0  0  0  0  0  0  0  0  0
  -28.8898  -26.4440   18.7596 C   0  0  0  0  0  0  0  0  0  1  0  0
  -20.6201  -29.3610   20.1128 C   0  0  1  0  0  0  0  0  0  0  0  0
  -20.0930  -31.1168   16.7948 C   0  0  2  0  0  0  0  0  0  0  0  0
  -19.4315  -28.6834   20.8513 C   0  0  0  0  0  0  0  0  0  0  0  0
  -28.7005  -15.0162   21.1965 N   0  0  0  0  0  0  0  0  0  0  0  0
  -29.2654  -24.0642   18.5198 N   0  0  0  0  0  0  0  0  0  0  0  0
  -30.0346  -14.9778   21.0394 N   0  0  0  0  0  0  0  0  0  0  0  0
  -22.8263  -29.8039   21.1427 N   0  0  0  0  0  0  0  0  0  0  0  0
  -30.8792  -18.6218   21.8666 N   0  0  0  0  0  0  0  0  0  0  0  0
  -30.3969  -20.2560   20.1861 N   0  0  0  0  0  0  0  0  0  0  0  0
  -31.8023  -13.6294   20.2222 N   0  0  0  0  0  0  0  0  0  0  0  0
  -28.1291  -11.1239   19.4311 N   0  0  0  0  0  0  0  0  0  0  0  0
  -23.7211  -30.1731   24.5768 N   0  0  0  0  0  0  0  0  0  0  0  0
  -20.2204  -30.2525   19.0293 N   0  0  0  0  0  0  0  0  0  0  0  0
  -21.0770  -31.4248   15.7188 N   0  3  0  0  0  0  0  0  0  0  0  0
  -30.4135  -11.1906   19.2424 O   0  0  0  0  0  0  0  0  0  0  0  0
  -23.5657  -28.3044   23.1961 O   0  0  0  0  0  0  0  0  0  0  0  0
  -20.9787  -31.1332   21.6481 O   0  0  0  0  0  0  0  0  0  0  0  0
  -21.3896  -29.1562   17.3535 O   0  0  0  0  0  0  0  0  0  0  0  0
  -32.4066  -20.2403   21.2851 O   0  0  0  0  0  0  0  0  0  0  0  0
  -22.8705  -12.5180   20.6308 O   0  0  0  0  0  0  0  0  0  0  0  0
  -27.4692  -26.4538   18.8232 O   0  0  0  0  0  0  0  0  0  1  0  0
  -21.4579   -7.4284   22.2131 F   0  0  0  0  0  0  0  0  0  0  0  0
  -21.1831  -12.1192   22.7840 F   0  0  0  0  0  0  0  0  0  0  0  0
  1  2  1  0  0  0  0
  1  5  2  0  0  0  0
  2  6  2  0  0  0  0
  3  9  2  0  0  0  0
  3 17  1  0  0  0  0
  4 10  1  0  0  0  0
  4 17  2  0  0  0  0
  5 19  1  0  0  0  0
  6 21  1  0  0  0  0
  7 11  2  0  0  0  0
  7 20  1  0  0  0  0
  8 14  2  0  0  0  0
  8 22  1  0  0  0  0
  9 24  1  0  0  0  0
 10 24  2  0  0  0  0
 11 25  1  0  0  0  0
 12 13  2  0  0  0  0
 12 26  1  0  0  0  0
 13 27  1  0  0  0  0
 14 31  1  0  0  0  0
 15 23  1  0  0  0  0
 15 25  2  0  0  0  0
 16 27  2  0  0  0  0
 16 28  1  0  0  0  0
 17 29  1  0  0  0  0
 18 29  1  0  0  0  0
 18 32  2  0  0  0  0
 18 33  1  0  0  0  0
 19 21  2  0  0  0  0
 19 38  1  0  0  0  0
 20 23  2  0  0  0  0
 20 39  1  0  0  0  0
 21 53  1  0  0  0  0
 22 30  2  0  0  0  0
 22 52  1  0  0  0  0
 23 40  1  0  0  0  0
 24 82  1  0  0  0  0
 25 83  1  0  0  0  0
 26 28  2  0  0  0  0
 26 82  1  0  0  0  0
 27 84  1  0  0  0  0
 28 85  1  0  0  0  0
 29 66  2  0  0  0  0
 30 54  1  0  0  0  0
 30 67  1  0  0  0  0
 31 62  1  0  0  0  0
 31 67  2  0  0  0  0
 32 68  1  0  0  0  0
 32 72  1  0  0  0  0
 33 73  1  0  0  0  0
 33 77  2  0  0  0  0
 34 55  1  0  0  0  0
 34 74  1  0  0  0  0
 34 78  2  0  0  0  0
 35 63  1  0  0  0  0
 35 69  1  0  0  0  0
 35 79  2  0  0  0  0
 36 64  1  0  0  0  0
 36 75  1  0  0  0  0
 36 80  2  0  0  0  0
 37 70  1  0  0  0  0
 37 71  1  0  0  0  0
 37 81  2  0  0  0  0
 38 41  1  0  0  0  0
 39 55  1  0  0  0  0
 40 69  1  0  0  0  0
 41 45  1  0  0  0  0
 42 46  1  0  0  0  0
 42 48  1  0  0  0  0
 43 44  1  0  0  0  0
 43 52  1  0  0  0  0
 44 52  1  0  0  0  0
 45 53  1  0  0  0  0
 46 56  1  0  0  0  0
 47 49  1  0  0  0  0
 47 54  1  0  0  0  0
 48 70  1  0  0  0  0
 49 71  1  0  0  0  0
 50 54  1  0  0  0  0
 50 71  1  0  0  0  0
 51 56  1  0  0  0  0
 51 70  1  0  0  0  0
 53 74  1  0  0  0  0
 55 69  1  0  0  0  0
 56 68  1  0  0  0  0
 57 64  1  0  0  0  0
 58 65  1  0  0  0  0
 59 65  1  0  0  0  0
 60 65  1  0  0  0  0
 61 76  1  0  0  0  0
 62 83  1  0  0  0  0
 63 65  1  0  0  0  0
 63 75  1  0  0  0  0
 64 76  1  0  0  0  0
 66 68  1  0  0  0  0
M  CHG  1  76   1
M  ISO  4  37 100  62 101  71 100  83 101
M  END
> <Batch ID>
0185

> <Smiles>
CNC(C)C(=O)NC(C(=O)N1Cc2cc([101O:1][101CH2:1]c3ccc(C4CC4)c(C4CC[100N:0]([100C:0](=O)N5CCCC(n6nc(-c7ccc(Oc8ccc(F)cc8F)cc7)c(C(N)=O)c6N)C5)C4)n3)ccc2CC1C(=O)NC1CCCc2ccccc21)C(C)(C)C

> <Shape>
0.301

> <Color>
0.075

> <Negative vol penalty>
0.000

$$$$

  -OEChem-04052323123D

 80 89  0     1  0  0  0  0  0999 V2000
  -29.9998  -27.0545   17.2617 C   0  0  0  0  0  0  0  0  0  0  0  0
  -30.4487  -25.7463   17.1199 C   0  0  0  0  0  0  0  0  0  0  0  0
  -24.2101  -24.8944   20.0946 C   0  0  0  0  0  0  0  0  0  0  0  0
  -24.9384  -24.1441   22.2727 C   0  0  0  0  0  0  0  0  0  0  0  0
  -29.8953  -27.6176   18.5318 C   0  0  0  0  0  0  0  0  0  0  0  0
  -30.7817  -24.9969   18.2487 C   0  0  0  0  0  0  0  0  0  0  0  0
  -30.8685  -18.0414   18.6715 C   0  0  0  0  0  0  0  0  0  0  0  0
  -23.9523  -26.1616   20.6173 C   0  0  0  0  0  0  0  0  0  0  0  0
  -24.6806  -25.4114   22.7954 C   0  0  0  0  0  0  0  0  0  0  0  0
  -31.0144  -16.6563   18.7506 C   0  0  0  0  0  0  0  0  0  0  0  0
  -25.7243  -28.9124   21.4694 C   0  0  0  0  0  0  0  0  0  0  0  0
  -26.1600  -30.0167   20.7370 C   0  0  0  0  0  0  0  0  0  0  0  0
  -31.7119  -16.8509   21.0579 C   0  0  0  0  0  0  0  0  0  0  0  0
  -23.8817  -30.8024   20.5663 C   0  0  0  0  0  0  0  0  0  0  0  0
  -27.3002  -14.7067   20.8331 C   0  0  0  0  0  0  0  0  0  0  0  0
  -26.1677  -12.3043   20.4387 C   0  0  0  0  0  0  0  0  0  0  0  0
  -24.7031  -23.8856   20.9223 C   0  0  0  0  0  0  0  0  0  0  0  0
  -26.1757  -22.1170   19.8217 C   0  0  0  0  0  0  0  0  0  0  0  0
  -30.2392  -26.8781   19.6754 C   0  0  0  0  0  0  0  0  0  0  0  0
  -31.1292  -18.8362   19.7912 C   0  0  0  0  0  0  0  0  0  0  0  0
  -30.6601  -25.5394   19.5408 C   0  0  0  0  0  0  0  0  0  0  0  0
  -31.5555  -18.2378   20.9883 C   0  0  0  0  0  0  0  0  0  0  0  0
  -24.1876  -26.4202   21.9677 C   0  0  0  0  0  0  0  0  0  0  0  0
  -31.4354  -16.0626   19.9408 C   0  0  0  0  0  0  0  0  0  0  0  0
  -24.3673  -28.7531   21.7502 C   0  0  0  0  0  0  0  0  0  0  0  0
  -25.2388  -30.9617   20.2855 C   0  0  0  0  0  0  0  0  0  0  0  0
  -23.4460  -29.6981   21.2986 C   0  0  0  0  0  0  0  0  0  0  0  0
  -24.9691  -22.5762   20.3831 C   0  0  0  0  0  0  0  0  0  0  0  0
  -28.0410  -13.5433   20.7886 C   0  0  0  0  0  0  0  0  0  0  0  0
  -25.9394  -14.5549   20.6615 C   0  0  0  0  0  0  0  0  0  0  0  0
  -25.9145  -20.8174   19.4623 C   0  0  0  0  0  0  0  0  0  0  0  0
  -27.4212  -22.8039   19.6413 C   0  0  0  0  0  0  0  0  0  0  0  0
  -31.2278  -22.2866   21.2611 C   0  0  0  0  0  0  0  0  0  0  0  0
  -30.0707  -20.4334   23.4145 C   0  0  0  0  0  0  0  0  0  0  0  0
  -28.1683  -18.4047   24.8869 C   0  0  0  0  0  0  0  0  0  0  0  0
  -23.7537  -15.8027   20.5518 C   0  0  0  0  0  0  0  0  0  0  0  0
  -30.0996  -27.5343   21.0264 C   0  0  0  0  0  0  0  0  0  0  0  0
  -31.0446  -20.3373   19.7336 C   0  0  0  0  0  0  0  0  0  0  0  0
  -31.8579  -19.1353   22.1570 C   0  0  0  0  0  0  0  0  0  0  0  0
  -30.8910  -26.8215   22.1182 C   0  0  0  0  0  0  0  0  0  0  0  0
  -21.5437  -18.2730   19.2514 C   0  0  0  0  0  0  0  0  0  0  0  0
  -30.5989  -25.3289   22.0814 C   0  0  0  0  0  0  0  0  0  0  0  0
  -22.3371  -19.5750   19.3837 C   0  0  0  0  0  0  0  0  0  0  0  0
  -30.3846  -12.5331   20.3846 C   0  0  0  0  0  0  0  0  0  0  0  0
  -21.7986  -17.3315   20.4272 C   0  0  0  0  0  0  0  0  0  0  0  0
  -24.0067  -18.3471   20.8301 C   0  0  0  0  0  0  0  0  0  0  0  0
  -31.0571  -24.7153   20.7522 C   0  0  1  0  0  0  0  0  0  0  0  0
  -29.5107  -13.6199   20.9659 C   0  0  1  0  0  0  0  0  0  0  0  0
  -30.5502  -20.9648   21.0493 C   0  0  1  0  0  0  0  0  0  0  0  0
  -23.8325  -19.3004   19.6366 C   0  0  2  0  0  0  0  0  0  0  0  0
  -30.3874  -13.8968   19.7643 C   0  0  1  0  0  0  0  0  0  1  0  0
  -26.6802  -17.0528   26.3887 C   0  0  0  0  0  0  0  0  0  0  0  0
  -32.7944  -20.3615   24.7858 C   0  0  0  0  0  0  0  0  0  0  0  0
  -31.7101  -19.2014   26.7214 C   0  0  0  0  0  0  0  0  0  0  0  0
  -30.9974  -21.5081   26.0938 C   0  0  0  0  0  0  0  0  0  0  0  0
  -25.8078  -20.0681   24.2385 C   0  0  0  0  0  0  0  0  0  0  0  0
  -30.3448  -19.5638   24.6153 C   0  0  1  0  0  0  0  0  0  0  0  0
  -26.9146  -18.4095   25.7429 C   0  0  2  0  0  0  0  0  0  0  0  0
  -31.4600  -20.1478   25.5279 C   0  0  0  0  0  0  0  0  0  0  0  0
  -27.5054  -12.3206   20.5925 N   0  0  0  0  0  0  0  0  0  0  0  0
  -25.3373  -13.3642   20.4612 N   0  0  0  0  0  0  0  0  0  0  0  0
  -24.0125  -21.6441   20.3824 N   0  0  0  0  0  0  0  0  0  0  0  0
  -24.6177  -20.5862   19.8161 N   0  0  0  0  0  0  0  0  0  0  0  0
  -30.8302  -20.1826   22.2653 N   0  0  0  0  0  0  0  0  0  0  0  0
  -23.2362  -17.1143   20.6038 N   0  0  0  0  0  0  0  0  0  0  0  0
  -26.6698  -19.8613   18.8811 N   0  0  0  0  0  0  0  0  0  0  0  0
  -27.5175  -24.1357   20.0670 N   0  0  0  0  0  0  0  0  0  0  0  0
  -25.1379  -15.7228   20.7002 N   0  0  0  0  0  0  0  0  0  0  0  0
  -30.5774  -23.3533   20.6708 N   0  0  0  0  0  0  0  0  0  0  0  0
  -29.0621  -19.3762   25.2848 N   0  0  0  0  0  0  0  0  0  0  0  0
  -25.7229  -18.7478   24.9143 N   0  3  0  0  0  0  0  0  0  0  0  0
  -28.4142  -22.2580   19.1031 O   0  0  0  0  0  0  0  0  0  0  0  0
  -32.2640  -22.3367   21.9135 O   0  0  0  0  0  0  0  0  0  0  0  0
  -29.2111  -21.3157   23.4923 O   0  0  0  0  0  0  0  0  0  0  0  0
  -28.3392  -17.6154   23.9604 O   0  0  0  0  0  0  0  0  0  0  0  0
  -23.0260  -14.8251   20.3604 O   0  0  0  0  0  0  0  0  0  0  0  0
  -23.9363  -27.6567   22.4780 O   0  0  0  0  0  0  0  0  0  0  0  0
  -31.5714  -14.7094   20.0125 O   0  0  0  0  0  0  0  0  0  1  0  0
  -25.6575  -32.0228   19.5835 F   0  0  0  0  0  0  0  0  0  0  0  0
  -22.1412  -29.5511   21.5662 F   0  0  0  0  0  0  0  0  0  0  0  0
  1  2  1  0  0  0  0
  1  5  2  0  0  0  0
  2  6  2  0  0  0  0
  3  8  2  0  0  0  0
  3 17  1  0  0  0  0
  4  9  1  0  0  0  0
  4 17  2  0  0  0  0
  5 19  1  0  0  0  0
  6 21  1  0  0  0  0
  7 10  2  0  0  0  0
  7 20  1  0  0  0  0
  8 23  1  0  0  0  0
  9 23  2  0  0  0  0
 10 24  1  0  0  0  0
 11 12  2  0  0  0  0
 11 25  1  0  0  0  0
 12 26  1  0  0  0  0
 13 22  1  0  0  0  0
 13 24  2  0  0  0  0
 14 26  2  0  0  0  0
 14 27  1  0  0  0  0
 15 29  1  0  0  0  0
 15 30  2  0  0  0  0
 16 60  1  0  0  0  0
 16 61  2  0  0  0  0
 17 28  1  0  0  0  0
 18 28  1  0  0  0  0
 18 31  2  0  0  0  0
 18 32  1  0  0  0  0
 19 21  2  0  0  0  0
 19 37  1  0  0  0  0
 20 22  2  0  0  0  0
 20 38  1  0  0  0  0
 21 47  1  0  0  0  0
 22 39  1  0  0  0  0
 23 77  1  0  0  0  0
 24 78  1  0  0  0  0
 25 27  2  0  0  0  0
 25 77  1  0  0  0  0
 26 79  1  0  0  0  0
 27 80  1  0  0  0  0
 28 62  2  0  0  0  0
 29 48  1  0  0  0  0
 29 60  2  0  0  0  0
 30 61  1  0  0  0  0
 30 68  1  0  0  0  0
 31 63  1  0  0  0  0
 31 66  1  0  0  0  0
 32 67  1  0  0  0  0
 32 72  2  0  0  0  0
 33 49  1  0  0  0  0
 33 69  1  0  0  0  0
 33 73  2  0  0  0  0
 34 57  1  0  0  0  0
 34 64  1  0  0  0  0
 34 74  2  0  0  0  0
 35 58  1  0  0  0  0
 35 70  1  0  0  0  0
 35 75  2  0  0  0  0
 36 65  1  0  0  0  0
 36 68  1  0  0  0  0
 36 76  2  0  0  0  0
 37 40  1  0  0  0  0
 38 49  1  0  0  0  0
 39 64  1  0  0  0  0
 40 42  1  0  0  0  0
 41 43  1  0  0  0  0
 41 45  1  0  0  0  0
 42 47  1  0  0  0  0
 43 50  1  0  0  0  0
 44 48  1  0  0  0  0
 44 51  1  0  0  0  0
 45 65  1  0  0  0  0
 46 50  1  0  0  0  0
 46 65  1  0  0  0  0
 47 69  1  0  0  0  0
 48 51  1  0  0  0  0
 49 64  1  0  0  0  0
 50 63  1  0  0  0  0
 51 78  1  0  0  0  0
 52 58  1  0  0  0  0
 53 59  1  0  0  0  0
 54 59  1  0  0  0  0
 55 59  1  0  0  0  0
 56 71  1  0  0  0  0
 57 59  1  0  0  0  0
 57 70  1  0  0  0  0
 58 71  1  0  0  0  0
 62 63  1  0  0  0  0
M  CHG  1  71   1
M  ISO  4  36 100  51 101  68 100  78 101
M  END
> <Batch ID>
0185

> <Smiles>
CNC(C)C(=O)NC(C(=O)N1Cc2cc([101O:1][101CH:1]3CC3c3cc([100NH:0][100C:0](=O)N4CCCC(n5nc(-c6ccc(Oc7ccc(F)cc7F)cc6)c(C(N)=O)c5N)C4)ncn3)ccc2CC1C(=O)NC1CCCc2ccccc21)C(C)(C)C

> <Shape>
0.185

> <Color>
0.073

> <Negative vol penalty>
0.000

$$$$

  -OEChem-04052323123D

 81 90  0     1  0  0  0  0  0999 V2000
  -16.7260  -29.9791   24.4364 C   0  0  0  0  0  0  0  0  0  0  0  0
  -16.8137  -28.7082   23.8775 C   0  0  0  0  0  0  0  0  0  0  0  0
  -27.7410  -15.0404   22.9085 C   0  0  0  0  0  0  0  0  0  0  0  0
  -26.8673  -14.8390   20.6651 C   0  0  0  0  0  0  0  0  0  0  0  0
  -17.6000  -30.9834   24.0221 C   0  0  0  0  0  0  0  0  0  0  0  0
  -17.7747  -28.4410   22.9030 C   0  0  0  0  0  0  0  0  0  0  0  0
  -21.9838  -23.1603   20.5127 C   0  0  0  0  0  0  0  0  0  0  0  0
  -26.7356  -14.1940   23.3760 C   0  0  0  0  0  0  0  0  0  0  0  0
  -25.8619  -13.9926   21.1325 C   0  0  0  0  0  0  0  0  0  0  0  0
  -22.3126  -22.4958   19.3321 C   0  0  0  0  0  0  0  0  0  0  0  0
  -25.5548  -10.7472   22.0233 C   0  0  0  0  0  0  0  0  0  0  0  0
  -25.2903   -9.5908   21.2897 C   0  0  0  0  0  0  0  0  0  0  0  0
  -23.8208  -24.2866   18.7513 C   0  0  0  0  0  0  0  0  0  0  0  0
  -23.0173  -10.3320   20.9411 C   0  0  0  0  0  0  0  0  0  0  0  0
  -27.8068  -15.3629   21.5530 C   0  0  0  0  0  0  0  0  0  0  0  0
  -30.1211  -15.8670   20.6056 C   0  0  0  0  0  0  0  0  0  0  0  0
  -18.5785  -30.7258   23.0491 C   0  0  0  0  0  0  0  0  0  0  0  0
  -22.5637  -24.4003   20.8169 C   0  0  0  0  0  0  0  0  0  0  0  0
  -18.6616  -29.4432   22.4743 C   0  0  0  0  0  0  0  0  0  0  0  0
  -23.4995  -24.9636   19.9377 C   0  0  0  0  0  0  0  0  0  0  0  0
  -25.7961  -13.6701   22.4881 C   0  0  0  0  0  0  0  0  0  0  0  0
  -23.2291  -23.0603   18.4497 C   0  0  0  0  0  0  0  0  0  0  0  0
  -24.5506  -11.6961   22.2159 C   0  0  0  0  0  0  0  0  0  0  0  0
  -24.0215   -9.3831   20.7486 C   0  0  0  0  0  0  0  0  0  0  0  0
  -23.2819  -11.4884   21.6748 C   0  0  0  0  0  0  0  0  0  0  0  0
  -28.8447  -16.2376   21.0696 C   0  0  0  0  0  0  0  0  0  0  0  0
  -30.7207  -17.0546   20.2646 C   0  0  0  0  0  0  0  0  0  0  0  0
  -30.7118  -14.5654   20.4928 C   0  0  0  0  0  0  0  0  0  0  0  0
  -21.4546  -27.3442   21.2717 C   0  0  0  0  0  0  0  0  0  0  0  0
  -24.5364  -27.9621   22.0737 C   0  0  0  0  0  0  0  0  0  0  0  0
  -27.8277  -27.0995   21.8092 C   0  0  0  0  0  0  0  0  0  0  0  0
  -28.5570  -22.3946   18.6356 C   0  0  0  0  0  0  0  0  0  0  0  0
  -19.4700  -31.8560   22.5991 C   0  0  0  0  0  0  0  0  0  0  0  0
  -22.2185  -25.0916   22.1073 C   0  0  0  0  0  0  0  0  0  0  0  0
  -24.1657  -26.2830   20.2275 C   0  0  0  0  0  0  0  0  0  0  0  0
  -20.7046  -31.3896   21.8320 C   0  0  0  0  0  0  0  0  0  0  0  0
  -30.7174  -21.7071   21.3808 C   0  0  0  0  0  0  0  0  0  0  0  0
  -20.3200  -30.3531   20.7809 C   0  0  0  0  0  0  0  0  0  0  0  0
  -28.8905  -20.6820   14.9450 C   0  0  0  0  0  0  0  0  0  0  0  0
  -30.5976  -20.1939   21.5705 C   0  0  0  0  0  0  0  0  0  0  0  0
  -27.4352  -20.2194   15.1136 C   0  0  0  0  0  0  0  0  0  0  0  0
  -29.3859  -22.3314   20.9691 C   0  0  0  0  0  0  0  0  0  0  0  0
  -28.6342  -20.2050   19.9756 C   0  0  0  0  0  0  0  0  0  0  0  0
  -28.1462  -22.8874   14.0493 C   0  0  0  0  0  0  0  0  0  0  0  0
  -19.7069  -29.1078   21.4327 C   0  0  1  0  0  0  0  0  0  0  0  0
  -22.4829  -26.5936   22.0698 C   0  0  1  0  0  0  0  0  0  0  0  0
  -28.8147  -22.1939   15.2422 C   0  0  1  0  0  0  0  0  0  0  0  0
  -29.9646  -19.5225   20.3369 C   0  0  2  0  0  0  0  0  0  0  0  0
  -27.7139  -22.2952   16.3035 C   0  0  1  0  0  0  0  0  0  0  0  0
  -26.6945  -21.5295   15.4413 C   0  0  2  0  0  0  0  0  0  0  0  0
  -30.2953  -27.1641   22.2612 C   0  0  0  0  0  0  0  0  0  0  0  0
  -24.4847  -30.2236   20.0260 C   0  0  0  0  0  0  0  0  0  0  0  0
  -26.9864  -30.2669   20.1140 C   0  0  0  0  0  0  0  0  0  0  0  0
  -25.6590  -30.7781   22.1633 C   0  0  0  0  0  0  0  0  0  0  0  0
  -26.1050  -21.8795   12.9202 C   0  0  0  0  0  0  0  0  0  0  0  0
  -27.5779  -25.2216   24.0830 C   0  0  0  0  0  0  0  0  0  0  0  0
  -25.2943  -21.3844   16.0097 C   0  0  0  0  0  0  0  0  0  0  0  0
  -24.8648  -22.6241   16.7793 C   0  0  0  0  0  0  0  0  0  1  0  0
  -25.7705  -28.3970   21.3208 C   0  0  1  0  0  0  0  0  0  0  0  0
  -28.9143  -26.9392   22.8571 C   0  0  2  0  0  0  0  0  0  0  0  0
  -25.7113  -29.8924   20.8993 C   0  0  0  0  0  0  0  0  0  0  0  0
  -28.6444  -17.5576   21.0286 N   0  0  0  0  0  0  0  0  0  0  0  0
  -29.8029  -18.0267   20.5349 N   0  0  0  0  0  0  0  0  0  0  0  0
  -23.7905  -26.9233   21.4990 N   0  0  0  0  0  0  0  0  0  0  0  0
  -28.8399  -21.6503   19.7927 N   0  0  0  0  0  0  0  0  0  0  0  0
  -31.9383  -17.3519   19.7630 N   0  0  0  0  0  0  0  0  0  0  0  0
  -29.9568  -13.4525   20.8875 N   0  0  0  0  0  0  0  0  0  0  0  0
  -20.7429  -28.2747   22.0045 N   0  0  0  0  0  0  0  0  0  0  0  0
  -26.9072  -28.0603   22.1709 N   0  0  0  0  0  0  0  0  0  0  0  0
  -28.0481  -21.6708   17.5642 N   0  0  0  0  0  0  0  0  0  0  0  0
  -26.6953  -22.4258   14.1812 N   0  3  2  0  0  0  0  0  0  0  0  0
  -28.8721  -25.5689   23.4416 N   0  3  0  0  0  0  0  0  0  0  0  0
  -31.8807  -14.3958   20.0704 O   0  0  0  0  0  0  0  0  0  0  0  0
  -21.3181  -27.0984   20.0789 O   0  0  0  0  0  0  0  0  0  0  0  0
  -24.2489  -28.5186   23.1364 O   0  0  0  0  0  0  0  0  0  0  0  0
  -27.8005  -26.4412   20.7718 O   0  0  0  0  0  0  0  0  0  0  0  0
  -28.7489  -23.6131   18.5609 O   0  0  0  0  0  0  0  0  0  0  0  0
  -24.8151  -12.8440   22.9438 O   0  0  0  0  0  0  0  0  0  0  0  0
  -23.5514  -22.4141   17.2963 O   0  0  0  0  0  0  0  0  0  1  0  0
  -23.7681   -8.2733   20.0428 F   0  0  0  0  0  0  0  0  0  0  0  0
  -22.3135  -12.3969   21.8554 F   0  0  0  0  0  0  0  0  0  0  0  0
  1  2  1  0  0  0  0
  1  5  2  0  0  0  0
  2  6  2  0  0  0  0
  3  8  2  0  0  0  0
  3 15  1  0  0  0  0
  4  9  1  0  0  0  0
  4 15  2  0  0  0  0
  5 17  1  0  0  0  0
  6 19  1  0  0  0  0
  7 10  2  0  0  0  0
  7 18  1  0  0  0  0
  8 21  1  0  0  0  0
  9 21  2  0  0  0  0
 10 22  1  0  0  0  0
 11 12  2  0  0  0  0
 11 23  1  0  0  0  0
 12 24  1  0  0  0  0
 13 20  1  0  0  0  0
 13 22  2  0  0  0  0
 14 24  2  0  0  0  0
 14 25  1  0  0  0  0
 15 26  1  0  0  0  0
 16 26  1  0  0  0  0
 16 27  2  0  0  0  0
 16 28  1  0  0  0  0
 17 19  2  0  0  0  0
 17 33  1  0  0  0  0
 18 20  2  0  0  0  0
 18 34  1  0  0  0  0
 19 45  1  0  0  0  0
 20 35  1  0  0  0  0
 21 78  1  0  0  0  0
 22 79  1  0  0  0  0
 23 25  2  0  0  0  0
 23 78  1  0  0  0  0
 24 80  1  0  0  0  0
 25 81  1  0  0  0  0
 26 62  2  0  0  0  0
 27 63  1  0  0  0  0
 27 66  1  0  0  0  0
 28 67  1  0  0  0  0
 28 73  2  0  0  0  0
 29 46  1  0  0  0  0
 29 68  1  0  0  0  0
 29 74  2  0  0  0  0
 30 59  1  0  0  0  0
 30 64  1  0  0  0  0
 30 75  2  0  0  0  0
 31 60  1  0  0  0  0
 31 69  1  0  0  0  0
 31 76  2  0  0  0  0
 32 65  1  0  0  0  0
 32 70  1  0  0  0  0
 32 77  2  0  0  0  0
 33 36  1  0  0  0  0
 34 46  1  0  0  0  0
 35 64  1  0  0  0  0
 36 38  1  0  0  0  0
 37 40  1  0  0  0  0
 37 42  1  0  0  0  0
 38 45  1  0  0  0  0
 39 41  1  0  0  0  0
 39 47  1  0  0  0  0
 40 48  1  0  0  0  0
 41 50  1  0  0  0  0
 42 65  1  0  0  0  0
 43 48  1  0  0  0  0
 43 65  1  0  0  0  0
 44 47  1  0  0  0  0
 44 71  1  0  0  0  0
 45 68  1  0  0  0  0
 46 64  1  0  0  0  0
 47 49  1  0  0  0  0
 48 63  1  0  0  0  0
 49 50  1  0  0  0  0
 49 70  1  0  0  0  0
 50 57  1  0  0  0  0
 50 71  1  0  0  0  0
 51 60  1  0  0  0  0
 52 61  1  0  0  0  0
 53 61  1  0  0  0  0
 54 61  1  0  0  0  0
 55 71  1  0  0  0  0
 56 72  1  0  0  0  0
 57 58  1  0  0  0  0
 58 79  1  0  0  0  0
 59 61  1  0  0  0  0
 59 69  1  0  0  0  0
 60 72  1  0  0  0  0
 62 63  1  0  0  0  0
M  CHG  2  71   1  72   1
M  ISO  4  32 100  58 101  70 100  79 101
M  END
> <Batch ID>
0185

> <Smiles>
CNC(C)C(=O)NC(C(=O)N1Cc2cc([101O:1][101CH2:1]CC34CCC(CN3C)C4[100NH:0][100C:0](=O)N3CCCC(n4nc(-c5ccc(Oc6ccc(F)cc6F)cc5)c(C(N)=O)c4N)C3)ccc2CC1C(=O)NC1CCCc2ccccc21)C(C)(C)C

> <Shape>
0.224

> <Color>
0.061

> <Negative vol penalty>
0.000

$$$$

  -OEChem-04052323123D

 81 89  0     1  0  0  0  0  0999 V2000
  -42.9410  -24.6549   17.9518 C   0  0  0  0  0  0  0  0  0  0  0  0
  -41.9983  -23.7790   18.4806 C   0  0  0  0  0  0  0  0  0  0  0  0
  -23.0383   -9.8975   19.9889 C   0  0  0  0  0  0  0  0  0  0  0  0
  -23.8751   -9.9283   22.2551 C   0  0  0  0  0  0  0  0  0  0  0  0
  -42.8753  -26.0141   18.2553 C   0  0  0  0  0  0  0  0  0  0  0  0
  -40.9901  -24.2617   19.3141 C   0  0  0  0  0  0  0  0  0  0  0  0
  -35.2292  -22.2177   19.6881 C   0  0  0  0  0  0  0  0  0  0  0  0
  -22.3157   -8.7384   20.2714 C   0  0  0  0  0  0  0  0  0  0  0  0
  -23.1525   -8.7691   22.5377 C   0  0  0  0  0  0  0  0  0  0  0  0
  -34.5980  -21.3488   20.5771 C   0  0  0  0  0  0  0  0  0  0  0  0
  -21.8135   -5.6170   23.7548 C   0  0  0  0  0  0  0  0  0  0  0  0
  -22.4624   -4.6045   24.4614 C   0  0  0  0  0  0  0  0  0  0  0  0
  -33.8188  -23.2371   21.8601 C   0  0  0  0  0  0  0  0  0  0  0  0
  -24.1097   -4.4328   22.7023 C   0  0  0  0  0  0  0  0  0  0  0  0
  -23.8181  -10.4924   20.9807 C   0  0  0  0  0  0  0  0  0  0  0  0
  -24.1286  -13.0202   20.8327 C   0  0  0  0  0  0  0  0  0  0  0  0
  -41.8600  -26.5152   19.0852 C   0  0  0  0  0  0  0  0  0  0  0  0
  -35.1689  -23.6048   19.8848 C   0  0  0  0  0  0  0  0  0  0  0  0
  -40.9116  -25.6287   19.6301 C   0  0  0  0  0  0  0  0  0  0  0  0
  -34.4478  -24.1216   20.9707 C   0  0  0  0  0  0  0  0  0  0  0  0
  -22.3728   -8.1742   21.5458 C   0  0  0  0  0  0  0  0  0  0  0  0
  -33.8951  -21.8583   21.6650 C   0  0  0  0  0  0  0  0  0  0  0  0
  -22.3126   -6.0374   22.5219 C   0  0  0  0  0  0  0  0  0  0  0  0
  -23.6105   -4.0124   23.9352 C   0  0  0  0  0  0  0  0  0  0  0  0
  -23.4607   -5.4453   21.9957 C   0  0  0  0  0  0  0  0  0  0  0  0
  -24.5652  -11.6895   20.6893 C   0  0  0  0  0  0  0  0  0  0  0  0
  -25.1997  -13.7785   20.4277 C   0  0  0  0  0  0  0  0  0  0  0  0
  -22.8675  -13.5255   21.2910 C   0  0  0  0  0  0  0  0  0  0  0  0
  -37.3124  -25.8891   20.4244 C   0  0  0  0  0  0  0  0  0  0  0  0
  -34.7378  -27.8379   20.1144 C   0  0  0  0  0  0  0  0  0  0  0  0
  -31.3503  -28.2129   20.2896 C   0  0  0  0  0  0  0  0  0  0  0  0
  -30.8206  -14.5349   20.8685 C   0  0  0  0  0  0  0  0  0  0  0  0
  -41.8579  -27.9851   19.4230 C   0  0  0  0  0  0  0  0  0  0  0  0
  -35.8326  -24.5297   18.9018 C   0  0  0  0  0  0  0  0  0  0  0  0
  -34.3359  -25.6036   21.2151 C   0  0  0  0  0  0  0  0  0  0  0  0
  -40.5368  -28.4727   20.0123 C   0  0  0  0  0  0  0  0  0  0  0  0
  -29.4805  -12.4806   18.0890 C   0  0  0  0  0  0  0  0  0  0  0  0
  -40.0492  -27.5148   21.0946 C   0  0  0  0  0  0  0  0  0  0  0  0
  -28.0725  -12.1439   18.5766 C   0  0  0  0  0  0  0  0  0  0  0  0
  -31.5064  -17.3404   22.7908 C   0  0  0  0  0  0  0  0  0  0  0  0
  -29.4915  -17.7653   21.3273 C   0  0  0  0  0  0  0  0  0  0  0  0
  -30.4426  -12.7099   19.2504 C   0  0  0  0  0  0  0  0  0  0  0  0
  -31.0583  -15.8878   22.9296 C   0  0  0  0  0  0  0  0  0  0  0  0
  -29.0966  -16.2928   21.4738 C   0  0  0  0  0  0  0  0  0  0  0  0
  -28.5685  -13.4031   20.7097 C   0  0  0  0  0  0  0  0  0  0  0  0
  -39.7882  -26.1179   20.5182 C   0  0  1  0  0  0  0  0  0  0  0  0
  -36.1378  -25.9049   19.4875 C   0  0  1  0  0  0  0  0  0  0  0  0
  -27.5651  -13.2100   19.5627 C   0  0  2  0  0  0  0  0  0  0  0  0
  -30.3001  -18.2408   22.5324 C   0  0  0  0  0  0  0  0  0  0  0  0
  -29.5420  -29.9319   20.0194 C   0  0  0  0  0  0  0  0  0  0  0  0
  -29.9153  -20.8122   24.2512 C   0  0  0  0  0  0  0  0  0  0  0  0
  -35.4768  -29.0372   22.8210 C   0  0  0  0  0  0  0  0  0  0  0  0
  -33.1792  -30.0256   22.9321 C   0  0  0  0  0  0  0  0  0  0  0  0
  -34.7397  -30.7035   21.1079 C   0  0  0  0  0  0  0  0  0  0  0  0
  -30.0806  -26.6996   18.0858 C   0  0  0  0  0  0  0  0  0  0  0  0
  -29.7830  -20.4427   21.4909 C   0  0  0  0  0  0  0  0  0  0  0  0
  -32.1026  -21.4923   23.1845 C   0  0  0  0  0  0  0  0  0  1  0  0
  -33.7016  -28.3987   21.0583 C   0  0  1  0  0  0  0  0  0  0  0  0
  -30.3561  -28.8461   19.3329 C   0  0  2  0  0  0  0  0  0  0  0  0
  -31.1780  -20.3369   23.5509 C   0  0  2  0  0  0  0  0  0  0  0  0
  -34.2779  -29.5132   21.9766 C   0  0  0  0  0  0  0  0  0  0  0  0
  -25.8162  -11.6041   20.2291 N   0  0  0  0  0  0  0  0  0  0  0  0
  -26.1747  -12.8906   20.0797 N   0  0  0  0  0  0  0  0  0  0  0  0
  -35.0073  -26.4668   20.2294 N   0  0  0  0  0  0  0  0  0  0  0  0
  -29.9175  -13.6920   20.1991 N   0  0  0  0  0  0  0  0  0  0  0  0
  -30.2750  -15.4637   21.7675 N   0  0  0  0  0  0  0  0  0  0  0  0
  -25.3933  -15.1116   20.3389 N   0  0  0  0  0  0  0  0  0  0  0  0
  -21.8774  -12.6081   21.6683 N   0  0  0  0  0  0  0  0  0  0  0  0
  -38.5300  -26.0930   19.8036 N   0  0  0  0  0  0  0  0  0  0  0  0
  -32.5824  -28.8286   20.2271 N   0  0  0  0  0  0  0  0  0  0  0  0
  -29.4164  -27.8165   18.8060 N   0  3  0  0  0  0  0  0  0  0  0  0
  -30.7738  -19.6268   22.2831 N   0  3  1  0  0  0  0  0  0  0  0  0
  -22.6202  -14.7539   21.3482 O   0  0  0  0  0  0  0  0  0  0  0  0
  -37.1275  -25.7069   21.6220 O   0  0  0  0  0  0  0  0  0  0  0  0
  -35.2827  -28.5874   19.3001 O   0  0  0  0  0  0  0  0  0  0  0  0
  -31.0615  -27.2691   21.0219 O   0  0  0  0  0  0  0  0  0  0  0  0
  -32.0401  -14.4621   20.6718 O   0  0  0  0  0  0  0  0  0  0  0  0
  -21.6676   -7.0433   21.8220 O   0  0  0  0  0  0  0  0  0  0  0  0
  -33.2746  -21.0066   22.5405 O   0  0  0  0  0  0  0  0  0  1  0  0
  -24.2345   -3.0412   24.6145 F   0  0  0  0  0  0  0  0  0  0  0  0
  -23.9456   -5.8457   20.8123 F   0  0  0  0  0  0  0  0  0  0  0  0
  1  2  1  0  0  0  0
  1  5  2  0  0  0  0
  2  6  2  0  0  0  0
  3  8  2  0  0  0  0
  3 15  1  0  0  0  0
  4  9  1  0  0  0  0
  4 15  2  0  0  0  0
  5 17  1  0  0  0  0
  6 19  1  0  0  0  0
  7 10  2  0  0  0  0
  7 18  1  0  0  0  0
  8 21  1  0  0  0  0
  9 21  2  0  0  0  0
 10 22  1  0  0  0  0
 11 12  2  0  0  0  0
 11 23  1  0  0  0  0
 12 24  1  0  0  0  0
 13 20  1  0  0  0  0
 13 22  2  0  0  0  0
 14 24  2  0  0  0  0
 14 25  1  0  0  0  0
 15 26  1  0  0  0  0
 16 26  1  0  0  0  0
 16 27  2  0  0  0  0
 16 28  1  0  0  0  0
 17 19  2  0  0  0  0
 17 33  1  0  0  0  0
 18 20  2  0  0  0  0
 18 34  1  0  0  0  0
 19 46  1  0  0  0  0
 20 35  1  0  0  0  0
 21 78  1  0  0  0  0
 22 79  1  0  0  0  0
 23 25  2  0  0  0  0
 23 78  1  0  0  0  0
 24 80  1  0  0  0  0
 25 81  1  0  0  0  0
 26 62  2  0  0  0  0
 27 63  1  0  0  0  0
 27 67  1  0  0  0  0
 28 68  1  0  0  0  0
 28 73  2  0  0  0  0
 29 47  1  0  0  0  0
 29 69  1  0  0  0  0
 29 74  2  0  0  0  0
 30 58  1  0  0  0  0
 30 64  1  0  0  0  0
 30 75  2  0  0  0  0
 31 59  1  0  0  0  0
 31 70  1  0  0  0  0
 31 76  2  0  0  0  0
 32 65  1  0  0  0  0
 32 66  1  0  0  0  0
 32 77  2  0  0  0  0
 33 36  1  0  0  0  0
 34 47  1  0  0  0  0
 35 64  1  0  0  0  0
 36 38  1  0  0  0  0
 37 39  1  0  0  0  0
 37 42  1  0  0  0  0
 38 46  1  0  0  0  0
 39 48  1  0  0  0  0
 40 43  1  0  0  0  0
 40 49  1  0  0  0  0
 41 44  1  0  0  0  0
 41 49  1  0  0  0  0
 42 65  1  0  0  0  0
 43 66  1  0  0  0  0
 44 66  1  0  0  0  0
 45 48  1  0  0  0  0
 45 65  1  0  0  0  0
 46 69  1  0  0  0  0
 47 64  1  0  0  0  0
 48 63  1  0  0  0  0
 49 72  1  0  0  0  0
 50 59  1  0  0  0  0
 51 60  1  0  0  0  0
 52 61  1  0  0  0  0
 53 61  1  0  0  0  0
 54 61  1  0  0  0  0
 55 71  1  0  0  0  0
 56 72  1  0  0  0  0
 57 60  1  0  0  0  0
 57 79  1  0  0  0  0
 58 61  1  0  0  0  0
 58 70  1  0  0  0  0
 59 71  1  0  0  0  0
 60 72  1  0  0  0  0
 62 63  1  0  0  0  0
M  CHG  2  71   1  72   1
M  ISO  4  32 100  57 101  66 100  79 101
M  END
> <Batch ID>
0185

> <Smiles>
CNC(C)C(=O)NC(C(=O)N1Cc2cc([101O:1][101CH2:1]C(C)N(C)C3CC[100N:0]([100C:0](=O)N4CCCC(n5nc(-c6ccc(Oc7ccc(F)cc7F)cc6)c(C(N)=O)c5N)C4)CC3)ccc2CC1C(=O)NC1CCCc2ccccc21)C(C)(C)C

> <Shape>
0.201

> <Color>
0.188

> <Negative vol penalty>
0.000

$$$$

  -OEChem-04052323123D

 83 92  0     1  0  0  0  0  0999 V2000
  -27.7704  -30.9119   27.5389 C   0  0  0  0  0  0  0  0  0  0  0  0
  -27.5944  -29.7112   26.8587 C   0  0  0  0  0  0  0  0  0  0  0  0
  -22.7761  -10.4122   20.9872 C   0  0  0  0  0  0  0  0  0  0  0  0
  -24.5362   -8.8215   21.4443 C   0  0  0  0  0  0  0  0  0  0  0  0
  -26.9420  -31.9980   27.2594 C   0  0  0  0  0  0  0  0  0  0  0  0
  -26.5892  -29.5955   25.8993 C   0  0  0  0  0  0  0  0  0  0  0  0
  -28.1848  -27.2906   21.6819 C   0  0  0  0  0  0  0  0  0  0  0  0
  -21.9642   -9.7853   21.9324 C   0  0  0  0  0  0  0  0  0  0  0  0
  -23.7243   -8.1947   22.3895 C   0  0  0  0  0  0  0  0  0  0  0  0
  -28.2987  -25.9016   21.7196 C   0  0  0  0  0  0  0  0  0  0  0  0
  -21.1389   -6.0161   22.4003 C   0  0  0  0  0  0  0  0  0  0  0  0
  -21.0812   -4.6226   22.3829 C   0  0  0  0  0  0  0  0  0  0  0  0
  -26.1797  -25.7031   20.5840 C   0  0  0  0  0  0  0  0  0  0  0  0
  -21.9262   -4.5594   24.6455 C   0  0  0  0  0  0  0  0  0  0  0  0
  -28.4557  -20.9042   20.5725 C   0  0  0  0  0  0  0  0  0  0  0  0
  -24.0622   -9.9302   20.7431 C   0  0  0  0  0  0  0  0  0  0  0  0
  -24.6366  -10.7409   18.3935 C   0  0  0  0  0  0  0  0  0  0  0  0
  -25.9324  -31.8986   26.2891 C   0  0  0  0  0  0  0  0  0  0  0  0
  -27.0604  -27.8971   21.1037 C   0  0  0  0  0  0  0  0  0  0  0  0
  -25.7457  -30.6809   25.6074 C   0  0  0  0  0  0  0  0  0  0  0  0
  -26.0552  -27.1000   20.5379 C   0  0  0  0  0  0  0  0  0  0  0  0
  -22.4382   -8.6766   22.6336 C   0  0  0  0  0  0  0  0  0  0  0  0
  -27.2947  -25.1075   21.1731 C   0  0  0  0  0  0  0  0  0  0  0  0
  -21.5903   -6.6813   23.5402 C   0  0  0  0  0  0  0  0  0  0  0  0
  -21.4748   -3.8942   23.5055 C   0  0  0  0  0  0  0  0  0  0  0  0
  -21.9839   -5.9529   24.6628 C   0  0  0  0  0  0  0  0  0  0  0  0
  -24.9012  -10.5770   19.7664 C   0  0  0  0  0  0  0  0  0  0  0  0
  -28.4265  -19.6055   21.0267 C   0  0  0  0  0  0  0  0  0  0  0  0
  -28.5256  -21.6875   21.7398 C   0  0  0  0  0  0  0  0  0  0  0  0
  -25.7329  -11.4125   17.9104 C   0  0  0  0  0  0  0  0  0  0  0  0
  -23.5012  -10.3235   17.6238 C   0  0  0  0  0  0  0  0  0  0  0  0
  -24.7403  -29.7933   22.1644 C   0  0  0  0  0  0  0  0  0  0  0  0
  -23.9162  -29.8883   19.0285 C   0  0  0  0  0  0  0  0  0  0  0  0
  -24.0140  -28.3964   15.9607 C   0  0  0  0  0  0  0  0  0  0  0  0
  -29.7152  -15.0369   20.2941 C   0  0  0  0  0  0  0  0  0  0  0  0
  -25.0311  -33.0850   26.0551 C   0  0  0  0  0  0  0  0  0  0  0  0
  -26.9653  -29.3972   21.0471 C   0  0  0  0  0  0  0  0  0  0  0  0
  -24.8376  -27.7023   19.8874 C   0  0  0  0  0  0  0  0  0  0  0  0
  -28.3665  -18.2987   20.3166 C   0  0  0  0  0  0  0  0  0  0  0  0
  -24.2320  -32.9963   24.7575 C   0  0  0  0  0  0  0  0  0  0  0  0
  -30.4018  -12.0355   18.6983 C   0  0  0  0  0  0  0  0  0  0  0  0
  -23.6053  -31.6134   24.6100 C   0  0  0  0  0  0  0  0  0  0  0  0
  -29.0498  -11.3249   18.6544 C   0  0  0  0  0  0  0  0  0  0  0  0
  -28.1833  -17.2304   22.5892 C   0  0  0  0  0  0  0  0  0  0  0  0
  -30.6029  -12.7410   20.0342 C   0  0  0  0  0  0  0  0  0  0  0  0
  -28.1627  -13.0283   20.3243 C   0  0  0  0  0  0  0  0  0  0  0  0
  -24.6823  -30.5240   24.5421 C   0  0  1  0  0  0  0  0  0  0  0  0
  -25.5332  -29.8997   20.8925 C   0  0  1  0  0  0  0  0  0  0  0  0
  -27.9052  -12.2967   18.9909 C   0  0  2  0  0  0  0  0  0  0  0  0
  -28.8620  -17.1584   21.2154 C   0  0  1  0  0  0  0  0  0  0  0  0
  -28.5146  -18.5553   23.3079 C   0  0  2  0  0  0  0  0  0  0  0  0
  -27.6084  -18.7274   24.5283 C   0  0  0  0  0  0  0  0  0  0  0  0
  -23.2184  -28.6937   13.5993 C   0  0  0  0  0  0  0  0  0  0  0  0
  -21.1100  -29.0347   19.8690 C   0  0  0  0  0  0  0  0  0  0  0  0
  -20.6526  -28.4356   17.4815 C   0  0  0  0  0  0  0  0  0  0  0  0
  -21.1770  -30.7960   18.0948 C   0  0  0  0  0  0  0  0  0  0  0  0
  -27.2297  -15.4236   20.5728 C   0  0  0  0  0  0  0  0  0  0  0  0
  -26.7818  -28.4820   14.9161 C   0  0  0  0  0  0  0  0  0  0  0  0
  -28.5919  -23.1836   21.8322 C   0  0  0  0  0  0  0  0  0  1  0  0
  -23.0208  -29.0665   18.1330 C   0  0  1  0  0  0  0  0  0  0  0  0
  -24.3494  -28.9433   14.5849 C   0  0  2  0  0  0  0  0  0  0  0  0
  -21.5120  -29.3215   18.4085 C   0  0  0  0  0  0  0  0  0  0  0  0
  -26.0737  -11.1020   20.1319 N   0  0  0  0  0  0  0  0  0  0  0  0
  -28.5404  -20.9537   22.8555 N   0  0  0  0  0  0  0  0  0  0  0  0
  -28.4479  -19.6909   22.3954 N   0  0  0  0  0  0  0  0  0  0  0  0
  -26.5556  -11.6024   18.9814 N   0  0  0  0  0  0  0  0  0  0  0  0
  -24.7875  -29.1735   19.8626 N   0  0  0  0  0  0  0  0  0  0  0  0
  -29.4950  -13.6518   20.3241 N   0  0  0  0  0  0  0  0  0  0  0  0
  -26.0638  -11.8533   16.6780 N   0  0  0  0  0  0  0  0  0  0  0  0
  -23.5268   -9.0542   17.0299 N   0  0  0  0  0  0  0  0  0  0  0  0
  -25.2844  -30.4899   23.2266 N   0  0  0  0  0  0  0  0  0  0  0  0
  -23.4356  -29.3558   16.7646 N   0  0  0  0  0  0  0  0  0  0  0  0
  -28.6226  -15.8666   20.5878 N   0  0  0  0  0  0  0  0  0  0  0  0
  -25.5839  -28.2964   14.0572 N   0  3  0  0  0  0  0  0  0  0  0  0
  -22.5008  -11.0608   17.4538 O   0  0  0  0  0  0  0  0  0  0  0  0
  -23.7102  -29.1296   22.1806 O   0  0  0  0  0  0  0  0  0  0  0  0
  -23.8501  -31.1193   18.9842 O   0  0  0  0  0  0  0  0  0  0  0  0
  -24.2389  -27.2333   16.2882 O   0  0  0  0  0  0  0  0  0  0  0  0
  -30.8284  -15.5076   20.0273 O   0  0  0  0  0  0  0  0  0  0  0  0
  -21.6463   -8.0649   23.5561 O   0  0  0  0  0  0  0  0  0  0  0  0
  -27.4031  -23.7515   21.2092 O   0  0  0  0  0  0  0  0  0  1  0  0
  -21.4179   -2.5560   23.4892 F   0  0  0  0  0  0  0  0  0  0  0  0
  -22.4174   -6.5865   25.7612 F   0  0  0  0  0  0  0  0  0  0  0  0
  1  2  1  0  0  0  0
  1  5  2  0  0  0  0
  2  6  2  0  0  0  0
  3  8  2  0  0  0  0
  3 16  1  0  0  0  0
  4  9  1  0  0  0  0
  4 16  2  0  0  0  0
  5 18  1  0  0  0  0
  6 20  1  0  0  0  0
  7 10  2  0  0  0  0
  7 19  1  0  0  0  0
  8 22  1  0  0  0  0
  9 22  2  0  0  0  0
 10 23  1  0  0  0  0
 11 12  2  0  0  0  0
 11 24  1  0  0  0  0
 12 25  1  0  0  0  0
 13 21  1  0  0  0  0
 13 23  2  0  0  0  0
 14 25  2  0  0  0  0
 14 26  1  0  0  0  0
 15 28  2  0  0  0  0
 15 29  1  0  0  0  0
 16 27  1  0  0  0  0
 17 27  1  0  0  0  0
 17 30  2  0  0  0  0
 17 31  1  0  0  0  0
 18 20  2  0  0  0  0
 18 36  1  0  0  0  0
 19 21  2  0  0  0  0
 19 37  1  0  0  0  0
 20 47  1  0  0  0  0
 21 38  1  0  0  0  0
 22 80  1  0  0  0  0
 23 81  1  0  0  0  0
 24 26  2  0  0  0  0
 24 80  1  0  0  0  0
 25 82  1  0  0  0  0
 26 83  1  0  0  0  0
 27 63  2  0  0  0  0
 28 39  1  0  0  0  0
 28 65  1  0  0  0  0
 29 59  1  0  0  0  0
 29 64  2  0  0  0  0
 30 66  1  0  0  0  0
 30 69  1  0  0  0  0
 31 70  1  0  0  0  0
 31 75  2  0  0  0  0
 32 48  1  0  0  0  0
 32 71  1  0  0  0  0
 32 76  2  0  0  0  0
 33 60  1  0  0  0  0
 33 67  1  0  0  0  0
 33 77  2  0  0  0  0
 34 61  1  0  0  0  0
 34 72  1  0  0  0  0
 34 78  2  0  0  0  0
 35 68  1  0  0  0  0
 35 73  1  0  0  0  0
 35 79  2  0  0  0  0
 36 40  1  0  0  0  0
 37 48  1  0  0  0  0
 38 67  1  0  0  0  0
 39 50  1  0  0  0  0
 40 42  1  0  0  0  0
 41 43  1  0  0  0  0
 41 45  1  0  0  0  0
 42 47  1  0  0  0  0
 43 49  1  0  0  0  0
 44 50  1  0  0  0  0
 44 51  1  0  0  0  0
 45 68  1  0  0  0  0
 46 49  1  0  0  0  0
 46 68  1  0  0  0  0
 47 71  1  0  0  0  0
 48 67  1  0  0  0  0
 49 66  1  0  0  0  0
 50 73  1  0  0  0  0
 51 52  1  0  0  0  0
 51 65  1  0  0  0  0
 53 61  1  0  0  0  0
 54 62  1  0  0  0  0
 55 62  1  0  0  0  0
 56 62  1  0  0  0  0
 57 73  1  0  0  0  0
 58 74  1  0  0  0  0
 59 81  1  0  0  0  0
 60 62  1  0  0  0  0
 60 72  1  0  0  0  0
 61 74  1  0  0  0  0
 63 66  1  0  0  0  0
 64 65  1  0  0  0  0
M  CHG  1  74   1
M  ISO  4  35 100  59 101  73 100  81 101
M  END
> <Batch ID>
0185

> <Smiles>
CNC(C)C(=O)NC(C(=O)N1Cc2cc([101O:1][101CH2:1]c3cc4n(n3)C(C)CC([100N:0](C)[100C:0](=O)N3CCCC(n5nc(-c6ccc(Oc7ccc(F)cc7F)cc6)c(C(N)=O)c5N)C3)C4)ccc2CC1C(=O)NC1CCCc2ccccc21)C(C)(C)C

> <Shape>
0.284

> <Color>
0.087

> <Negative vol penalty>
0.000

$$$$

  -OEChem-04052323123D

 85 94  0     1  0  0  0  0  0999 V2000
  -23.8822  -38.0233   21.7913 C   0  0  0  0  0  0  0  0  0  0  0  0
  -24.3555  -37.1698   20.7998 C   0  0  0  0  0  0  0  0  0  0  0  0
  -23.4040  -10.4649   18.9294 C   0  0  0  0  0  0  0  0  0  0  0  0
  -24.2798   -9.1778   20.7769 C   0  0  0  0  0  0  0  0  0  0  0  0
  -24.0002  -37.6642   23.1333 C   0  0  0  0  0  0  0  0  0  0  0  0
  -24.9481  -35.9571   21.1499 C   0  0  0  0  0  0  0  0  0  0  0  0
  -25.6953  -29.2276   18.8107 C   0  0  0  0  0  0  0  0  0  0  0  0
  -22.8733   -9.3021   18.3709 C   0  0  0  0  0  0  0  0  0  0  0  0
  -23.7491   -8.0150   20.2184 C   0  0  0  0  0  0  0  0  0  0  0  0
  -26.6857  -28.2811   18.5517 C   0  0  0  0  0  0  0  0  0  0  0  0
  -20.7332   -6.5042   20.0128 C   0  0  0  0  0  0  0  0  0  0  0  0
  -20.0597   -5.6276   20.8633 C   0  0  0  0  0  0  0  0  0  0  0  0
  -26.7640  -27.7296   20.8988 C   0  0  0  0  0  0  0  0  0  0  0  0
  -21.6397   -3.8834   20.3167 C   0  0  0  0  0  0  0  0  0  0  0  0
  -31.5851  -24.3598   19.2460 C   0  0  0  0  0  0  0  0  0  0  0  0
  -24.1073  -10.4027   20.1324 C   0  0  0  0  0  0  0  0  0  0  0  0
  -24.0255  -12.4759   21.6166 C   0  0  0  0  0  0  0  0  0  0  0  0
  -24.5858  -36.4421   23.4996 C   0  0  0  0  0  0  0  0  0  0  0  0
  -25.2389  -29.4403   20.1194 C   0  0  0  0  0  0  0  0  0  0  0  0
  -25.0753  -35.5819   22.4982 C   0  0  0  0  0  0  0  0  0  0  0  0
  -25.7659  -28.6777   21.1714 C   0  0  0  0  0  0  0  0  0  0  0  0
  -30.8054  -23.1904   19.3251 C   0  0  0  0  0  0  0  0  0  0  0  0
  -23.0459   -8.0772   19.0154 C   0  0  0  0  0  0  0  0  0  0  0  0
  -27.2222  -27.5340   19.5962 C   0  0  0  0  0  0  0  0  0  0  0  0
  -21.8599   -6.0705   19.3142 C   0  0  0  0  0  0  0  0  0  0  0  0
  -20.5129   -4.3172   21.0153 C   0  0  0  0  0  0  0  0  0  0  0  0
  -22.3132   -4.7602   19.4662 C   0  0  0  0  0  0  0  0  0  0  0  0
  -24.6562  -11.6034   20.7096 C   0  0  0  0  0  0  0  0  0  0  0  0
  -29.5914  -23.6188   19.8036 C   0  0  0  0  0  0  0  0  0  0  0  0
  -24.9587  -13.4545   21.8571 C   0  0  0  0  0  0  0  0  0  0  0  0
  -22.7134  -12.4077   22.1906 C   0  0  0  0  0  0  0  0  0  0  0  0
  -25.2366  -31.9098   22.1208 C   0  0  0  0  0  0  0  0  0  0  0  0
  -23.4641  -29.9143   23.9643 C   0  0  0  0  0  0  0  0  0  0  0  0
  -22.5985  -26.7112   24.7628 C   0  0  0  0  0  0  0  0  0  0  0  0
  -28.6232  -17.0410   19.6210 C   0  0  0  0  0  0  0  0  0  0  0  0
  -24.7340  -36.1186   24.9653 C   0  0  0  0  0  0  0  0  0  0  0  0
  -24.1510  -30.4463   20.3784 C   0  0  0  0  0  0  0  0  0  0  0  0
  -25.2957  -28.8534   22.5914 C   0  0  0  0  0  0  0  0  0  0  0  0
  -25.0361  -34.6471   25.2367 C   0  0  0  0  0  0  0  0  0  0  0  0
  -29.8634  -13.7035   20.6593 C   0  0  0  0  0  0  0  0  0  0  0  0
  -26.1352  -34.1470   24.3046 C   0  0  0  0  0  0  0  0  0  0  0  0
  -28.5536  -12.9261   20.7967 C   0  0  0  0  0  0  0  0  0  0  0  0
  -31.5620  -18.6452   21.1382 C   0  0  0  0  0  0  0  0  0  0  0  0
  -29.7500  -14.7765   19.5843 C   0  0  0  0  0  0  0  0  0  0  0  0
  -30.9176  -17.3241   20.7301 C   0  0  0  0  0  0  0  0  0  0  0  0
  -27.3169  -14.9697   19.9302 C   0  0  0  0  0  0  0  0  0  0  0  0
  -29.9809  -19.1051   19.4148 C   0  0  0  0  0  0  0  0  0  0  0  0
  -25.7018  -34.2467   22.8371 C   0  0  1  0  0  0  0  0  0  0  0  0
  -24.1269  -30.9421   21.8210 C   0  0  1  0  0  0  0  0  0  0  0  0
  -27.3620  -13.8767   21.0128 C   0  0  1  0  0  0  0  0  0  0  0  0
  -31.3750  -19.4821   19.8816 C   0  0  1  0  0  0  0  0  0  0  0  0
  -28.3500  -22.8823   20.1082 C   0  0  0  0  0  0  0  0  0  0  0  0
  -21.1541  -25.3952   26.3374 C   0  0  0  0  0  0  0  0  0  0  0  0
  -25.4544  -30.4315   26.2184 C   0  0  0  0  0  0  0  0  0  0  0  0
  -24.5375  -28.4210   27.3954 C   0  0  0  0  0  0  0  0  0  0  0  0
  -23.0588  -30.3764   26.9343 C   0  0  0  0  0  0  0  0  0  0  0  0
  -21.0463  -25.5306   22.5366 C   0  0  0  0  0  0  0  0  0  0  0  0
  -32.7827  -21.3006   20.8363 C   0  0  0  0  0  0  0  0  0  0  0  0
  -31.2144  -21.7923   18.9657 C   0  0  0  0  0  0  0  0  0  0  0  0
  -28.7003  -25.8745   20.4617 C   0  0  0  0  0  0  0  0  0  1  0  0
  -23.7702  -28.8824   25.0227 C   0  0  1  0  0  0  0  0  0  0  0  0
  -21.2452  -26.0555   24.9704 C   0  0  2  0  0  0  0  0  0  0  0  0
  -24.2157  -29.5256   26.3663 C   0  0  0  0  0  0  0  0  0  0  0  0
  -30.9220  -25.4494   19.6424 N   0  0  0  0  0  0  0  0  0  0  0  0
  -25.8943  -11.9935   20.3950 N   0  0  0  0  0  0  0  0  0  0  0  0
  -29.7128  -24.9664   19.9751 N   0  0  0  0  0  0  0  0  0  0  0  0
  -26.0491  -13.1219   21.1084 N   0  0  0  0  0  0  0  0  0  0  0  0
  -24.2348  -29.8538   22.7946 N   0  0  0  0  0  0  0  0  0  0  0  0
  -28.6060  -15.6580   19.8339 N   0  0  0  0  0  0  0  0  0  0  0  0
  -29.8286  -17.7106   19.8268 N   0  0  0  0  0  0  0  0  0  0  0  0
  -24.9447  -14.5586   22.6338 N   0  0  0  0  0  0  0  0  0  0  0  0
  -21.8838  -11.3353   21.8357 N   0  0  0  0  0  0  0  0  0  0  0  0
  -24.8012  -33.1648   22.5015 N   0  0  0  0  0  0  0  0  0  0  0  0
  -22.5831  -28.0408   25.1278 N   0  0  0  0  0  0  0  0  0  0  0  0
  -21.0083  -25.0156   23.9295 N   0  3  0  0  0  0  0  0  0  0  0  0
  -31.4750  -20.9211   20.1756 N   0  3  1  0  0  0  0  0  0  0  0  0
  -22.2832  -13.2811   22.9816 O   0  0  0  0  0  0  0  0  0  0  0  0
  -26.4016  -31.5445   22.0159 O   0  0  0  0  0  0  0  0  0  0  0  0
  -22.5691  -30.7392   24.1649 O   0  0  0  0  0  0  0  0  0  0  0  0
  -23.5728  -26.1037   24.3244 O   0  0  0  0  0  0  0  0  0  0  0  0
  -27.5962  -17.6579   19.3084 O   0  0  0  0  0  0  0  0  0  0  0  0
  -22.5280   -6.9424   18.4708 O   0  0  0  0  0  0  0  0  0  0  0  0
  -28.1957  -26.6039   19.3446 O   0  0  0  0  0  0  0  0  0  1  0  0
  -19.8669   -3.4758   21.8333 F   0  0  0  0  0  0  0  0  0  0  0  0
  -23.3958   -4.3381   18.7986 F   0  0  0  0  0  0  0  0  0  0  0  0
  1  2  1  0  0  0  0
  1  5  2  0  0  0  0
  2  6  2  0  0  0  0
  3  8  2  0  0  0  0
  3 16  1  0  0  0  0
  4  9  1  0  0  0  0
  4 16  2  0  0  0  0
  5 18  1  0  0  0  0
  6 20  1  0  0  0  0
  7 10  2  0  0  0  0
  7 19  1  0  0  0  0
  8 23  1  0  0  0  0
  9 23  2  0  0  0  0
 10 24  1  0  0  0  0
 11 12  2  0  0  0  0
 11 25  1  0  0  0  0
 12 26  1  0  0  0  0
 13 21  1  0  0  0  0
 13 24  2  0  0  0  0
 14 26  2  0  0  0  0
 14 27  1  0  0  0  0
 15 22  1  0  0  0  0
 15 64  2  0  0  0  0
 16 28  1  0  0  0  0
 17 28  1  0  0  0  0
 17 30  2  0  0  0  0
 17 31  1  0  0  0  0
 18 20  2  0  0  0  0
 18 36  1  0  0  0  0
 19 21  2  0  0  0  0
 19 37  1  0  0  0  0
 20 48  1  0  0  0  0
 21 38  1  0  0  0  0
 22 29  2  0  0  0  0
 22 59  1  0  0  0  0
 23 82  1  0  0  0  0
 24 83  1  0  0  0  0
 25 27  2  0  0  0  0
 25 82  1  0  0  0  0
 26 84  1  0  0  0  0
 27 85  1  0  0  0  0
 28 65  2  0  0  0  0
 29 52  1  0  0  0  0
 29 66  1  0  0  0  0
 30 67  1  0  0  0  0
 30 71  1  0  0  0  0
 31 72  1  0  0  0  0
 31 77  2  0  0  0  0
 32 49  1  0  0  0  0
 32 73  1  0  0  0  0
 32 78  2  0  0  0  0
 33 61  1  0  0  0  0
 33 68  1  0  0  0  0
 33 79  2  0  0  0  0
 34 62  1  0  0  0  0
 34 74  1  0  0  0  0
 34 80  2  0  0  0  0
 35 69  1  0  0  0  0
 35 70  1  0  0  0  0
 35 81  2  0  0  0  0
 36 39  1  0  0  0  0
 37 49  1  0  0  0  0
 38 68  1  0  0  0  0
 39 41  1  0  0  0  0
 40 42  1  0  0  0  0
 40 44  1  0  0  0  0
 41 48  1  0  0  0  0
 42 50  1  0  0  0  0
 43 45  1  0  0  0  0
 43 51  1  0  0  0  0
 44 69  1  0  0  0  0
 45 70  1  0  0  0  0
 46 50  1  0  0  0  0
 46 69  1  0  0  0  0
 47 51  1  0  0  0  0
 47 70  1  0  0  0  0
 48 73  1  0  0  0  0
 49 68  1  0  0  0  0
 50 67  1  0  0  0  0
 51 76  1  0  0  0  0
 53 62  1  0  0  0  0
 54 63  1  0  0  0  0
 55 63  1  0  0  0  0
 56 63  1  0  0  0  0
 57 75  1  0  0  0  0
 58 76  1  0  0  0  0
 59 76  1  0  0  0  0
 60 66  1  0  0  0  0
 60 83  1  0  0  0  0
 61 63  1  0  0  0  0
 61 74  1  0  0  0  0
 62 75  1  0  0  0  0
 64 66  1  0  0  0  0
 65 67  1  0  0  0  0
M  CHG  2  75   1  76   1
M  ISO  4  35 100  60 101  70 100  83 101
M  END
> <Batch ID>
0185

> <Smiles>
CNC(C)C(=O)NC(C(=O)N1Cc2cc([101O:1][101CH2:1]n3ncc(CN(C)C4CC[100N:0]([100C:0](=O)N5CCCC(n6nc(-c7ccc(Oc8ccc(F)cc8F)cc7)c(C(N)=O)c6N)C5)C4)c3C)ccc2CC1C(=O)NC1CCCc2ccccc21)C(C)(C)C

> <Shape>
0.286

> <Color>
0.096

> <Negative vol penalty>
0.000

$$$$

  -OEChem-04052323123D

 78 86  0     1  0  0  0  0  0999 V2000
  -27.2439  -37.9358   21.4583 C   0  0  0  0  0  0  0  0  0  0  0  0
  -27.7369  -36.8800   20.6982 C   0  0  0  0  0  0  0  0  0  0  0  0
  -24.1762   -9.3145   22.6650 C   0  0  0  0  0  0  0  0  0  0  0  0
  -23.8090  -10.1251   20.4188 C   0  0  0  0  0  0  0  0  0  0  0  0
  -26.6183  -37.6824   22.6782 C   0  0  0  0  0  0  0  0  0  0  0  0
  -27.6056  -35.5702   21.1582 C   0  0  0  0  0  0  0  0  0  0  0  0
  -26.6712  -28.8816   18.7697 C   0  0  0  0  0  0  0  0  0  0  0  0
  -23.1750   -8.3603   22.4843 C   0  0  0  0  0  0  0  0  0  0  0  0
  -22.8078   -9.1708   20.2381 C   0  0  0  0  0  0  0  0  0  0  0  0
  -27.2311  -27.6097   18.8821 C   0  0  0  0  0  0  0  0  0  0  0  0
  -22.8425   -5.3544   20.9721 C   0  0  0  0  0  0  0  0  0  0  0  0
  -23.1041   -4.0519   21.3970 C   0  0  0  0  0  0  0  0  0  0  0  0
  -26.0617  -27.2858   20.9670 C   0  0  0  0  0  0  0  0  0  0  0  0
  -21.2266   -4.1693   22.9130 C   0  0  0  0  0  0  0  0  0  0  0  0
  -24.4931  -10.1970   21.6323 C   0  0  0  0  0  0  0  0  0  0  0  0
  -26.8996  -11.0387   21.5417 C   0  0  0  0  0  0  0  0  0  0  0  0
  -26.4706  -36.3681   23.1489 C   0  0  0  0  0  0  0  0  0  0  0  0
  -25.8095  -29.3702   19.7622 C   0  0  0  0  0  0  0  0  0  0  0  0
  -26.9786  -35.2991   22.3862 C   0  0  0  0  0  0  0  0  0  0  0  0
  -25.4902  -28.5632   20.8635 C   0  0  0  0  0  0  0  0  0  0  0  0
  -22.4908   -8.2884   21.2709 C   0  0  0  0  0  0  0  0  0  0  0  0
  -26.9287  -26.8127   19.9823 C   0  0  0  0  0  0  0  0  0  0  0  0
  -21.7729   -6.0644   21.5177 C   0  0  0  0  0  0  0  0  0  0  0  0
  -22.2962   -3.4593   22.3675 C   0  0  0  0  0  0  0  0  0  0  0  0
  -20.9650   -5.4719   22.4881 C   0  0  0  0  0  0  0  0  0  0  0  0
  -25.5269  -11.1833   21.8185 C   0  0  0  0  0  0  0  0  0  0  0  0
  -27.4489  -12.2491   21.8878 C   0  0  0  0  0  0  0  0  0  0  0  0
  -27.6142   -9.9112   21.0185 C   0  0  0  0  0  0  0  0  0  0  0  0
  -25.8759  -31.8249   21.7805 C   0  0  0  0  0  0  0  0  0  0  0  0
  -22.8668  -30.8323   22.4752 C   0  0  0  0  0  0  0  0  0  0  0  0
  -27.0457  -23.1976   20.2604 C   0  0  0  0  0  0  0  0  0  0  0  0
  -20.5928  -28.2879   22.5182 C   0  0  0  0  0  0  0  0  0  0  0  0
  -27.3306  -17.7211   21.6333 C   0  0  0  0  0  0  0  0  0  0  0  0
  -25.8293  -36.1472   24.4959 C   0  0  0  0  0  0  0  0  0  0  0  0
  -25.1928  -30.7339   19.6128 C   0  0  0  0  0  0  0  0  0  0  0  0
  -24.5547  -29.0332   21.9463 C   0  0  0  0  0  0  0  0  0  0  0  0
  -25.3968  -34.7029   24.7351 C   0  0  0  0  0  0  0  0  0  0  0  0
  -25.5221  -16.1580   24.4121 C   0  0  0  0  0  0  0  0  0  0  0  0
  -26.5089  -33.7391   24.3334 C   0  0  0  0  0  0  0  0  0  0  0  0
  -25.4263  -14.7162   23.9243 C   0  0  0  0  0  0  0  0  0  0  0  0
  -25.4478  -17.1662   23.2646 C   0  0  0  0  0  0  0  0  0  0  0  0
  -26.3359  -15.4619   21.6970 C   0  0  0  0  0  0  0  0  0  0  0  0
  -27.8023  -20.1548   21.0209 C   0  0  0  0  0  0  0  0  0  0  0  0
  -25.7850  -19.8354   21.6111 C   0  0  0  0  0  0  0  0  0  0  0  0
  -26.8331  -33.8627   22.8397 C   0  0  1  0  0  0  0  0  0  0  0  0
  -24.7331  -31.3304   20.9396 C   0  0  1  0  0  0  0  0  0  0  0  0
  -26.4779  -14.4449   22.8382 C   0  0  2  0  0  0  0  0  0  0  0  0
  -26.4637  -20.7817   20.6089 C   0  0  0  0  0  0  0  0  0  0  0  0
  -18.2274  -27.7709   23.1776 C   0  0  0  0  0  0  0  0  0  0  0  0
  -23.7041  -30.7542   25.4083 C   0  0  0  0  0  0  0  0  0  0  0  0
  -21.6775  -29.3611   25.8775 C   0  0  0  0  0  0  0  0  0  0  0  0
  -21.4177  -31.6818   25.0004 C   0  0  0  0  0  0  0  0  0  0  0  0
  -19.8480  -27.5910   19.7399 C   0  0  0  0  0  0  0  0  0  0  0  0
  -26.7241  -24.5817   20.7803 C   0  0  0  0  0  0  0  0  0  1  0  0
  -22.2620  -29.8624   23.4613 C   0  0  1  0  0  0  0  0  0  0  0  0
  -19.1491  -28.2194   22.0541 C   0  0  2  0  0  0  0  0  0  0  0  0
  -22.2845  -30.4065   24.9176 C   0  0  0  0  0  0  0  0  0  0  0  0
  -25.2229  -12.3902   22.3032 N   0  0  0  0  0  0  0  0  0  0  0  0
  -26.4123  -13.0151   22.3338 N   0  0  0  0  0  0  0  0  0  0  0  0
  -23.9821  -30.3765   21.7582 N   0  0  0  0  0  0  0  0  0  0  0  0
  -26.3938  -16.8434   22.1896 N   0  0  0  0  0  0  0  0  0  0  0  0
  -27.0150  -19.0587   21.5779 N   0  0  0  0  0  0  0  0  0  0  0  0
  -28.7127  -12.7222   21.8512 N   0  0  0  0  0  0  0  0  0  0  0  0
  -26.8957   -8.7464   20.7165 N   0  0  0  0  0  0  0  0  0  0  0  0
  -25.8329  -33.1801   22.0472 N   0  0  0  0  0  0  0  0  0  0  0  0
  -26.3315  -22.1962   20.9243 N   0  0  0  0  0  0  0  0  0  0  0  0
  -20.9277  -29.5502   22.9607 N   0  0  0  0  0  0  0  0  0  0  0  0
  -19.0136  -27.2584   20.9232 N   0  3  0  0  0  0  0  0  0  0  0  0
  -28.8557   -9.9304   20.8401 O   0  0  0  0  0  0  0  0  0  0  0  0
  -26.7324  -31.0352   22.1606 O   0  0  0  0  0  0  0  0  0  0  0  0
  -22.3638  -31.9506   22.3408 O   0  0  0  0  0  0  0  0  0  0  0  0
  -27.8487  -22.9933   19.3539 O   0  0  0  0  0  0  0  0  0  0  0  0
  -21.3470  -27.3178   22.4942 O   0  0  0  0  0  0  0  0  0  0  0  0
  -28.4065  -17.3204   21.1699 O   0  0  0  0  0  0  0  0  0  0  0  0
  -21.5140   -7.3572   21.0942 O   0  0  0  0  0  0  0  0  0  0  0  0
  -27.4800  -25.5582   20.0960 O   0  0  0  0  0  0  0  0  0  1  0  0
  -22.5466   -2.2079   22.7743 F   0  0  0  0  0  0  0  0  0  0  0  0
  -19.9353   -6.1486   23.0150 F   0  0  0  0  0  0  0  0  0  0  0  0
  1  2  1  0  0  0  0
  1  5  2  0  0  0  0
  2  6  2  0  0  0  0
  3  8  2  0  0  0  0
  3 15  1  0  0  0  0
  4  9  1  0  0  0  0
  4 15  2  0  0  0  0
  5 17  1  0  0  0  0
  6 19  1  0  0  0  0
  7 10  2  0  0  0  0
  7 18  1  0  0  0  0
  8 21  1  0  0  0  0
  9 21  2  0  0  0  0
 10 22  1  0  0  0  0
 11 12  2  0  0  0  0
 11 23  1  0  0  0  0
 12 24  1  0  0  0  0
 13 20  1  0  0  0  0
 13 22  2  0  0  0  0
 14 24  2  0  0  0  0
 14 25  1  0  0  0  0
 15 26  1  0  0  0  0
 16 26  1  0  0  0  0
 16 27  2  0  0  0  0
 16 28  1  0  0  0  0
 17 19  2  0  0  0  0
 17 34  1  0  0  0  0
 18 20  2  0  0  0  0
 18 35  1  0  0  0  0
 19 45  1  0  0  0  0
 20 36  1  0  0  0  0
 21 75  1  0  0  0  0
 22 76  1  0  0  0  0
 23 25  2  0  0  0  0
 23 75  1  0  0  0  0
 24 77  1  0  0  0  0
 25 78  1  0  0  0  0
 26 58  2  0  0  0  0
 27 59  1  0  0  0  0
 27 63  1  0  0  0  0
 28 64  1  0  0  0  0
 28 69  2  0  0  0  0
 29 46  1  0  0  0  0
 29 65  1  0  0  0  0
 29 70  2  0  0  0  0
 30 55  1  0  0  0  0
 30 60  1  0  0  0  0
 30 71  2  0  0  0  0
 31 54  1  0  0  0  0
 31 66  1  0  0  0  0
 31 72  2  0  0  0  0
 32 56  1  0  0  0  0
 32 67  1  0  0  0  0
 32 73  2  0  0  0  0
 33 61  1  0  0  0  0
 33 62  1  0  0  0  0
 33 74  2  0  0  0  0
 34 37  1  0  0  0  0
 35 46  1  0  0  0  0
 36 60  1  0  0  0  0
 37 39  1  0  0  0  0
 38 40  1  0  0  0  0
 38 41  1  0  0  0  0
 39 45  1  0  0  0  0
 40 47  1  0  0  0  0
 41 61  1  0  0  0  0
 42 47  1  0  0  0  0
 42 61  1  0  0  0  0
 43 48  1  0  0  0  0
 43 62  1  0  0  0  0
 44 48  1  0  0  0  0
 44 62  1  0  0  0  0
 45 65  1  0  0  0  0
 46 60  1  0  0  0  0
 47 59  1  0  0  0  0
 48 66  1  0  0  0  0
 49 56  1  0  0  0  0
 50 57  1  0  0  0  0
 51 57  1  0  0  0  0
 52 57  1  0  0  0  0
 53 68  1  0  0  0  0
 54 76  1  0  0  0  0
 55 57  1  0  0  0  0
 55 67  1  0  0  0  0
 56 68  1  0  0  0  0
 58 59  1  0  0  0  0
M  CHG  1  68   1
M  ISO  4  33 100  54 101  62 100  76 101
M  END
> <Batch ID>
0185

> <Smiles>
CNC(C)C(=O)NC(C(=O)N1Cc2cc([101O:1][101CH2:1]C(=O)NC3C[100N:0]([100C:0](=O)N4CCCC(n5nc(-c6ccc(Oc7ccc(F)cc7F)cc6)c(C(N)=O)c5N)C4)C3)ccc2CC1C(=O)NC1CCCc2ccccc21)C(C)(C)C

> <Shape>
0.267

> <Color>
0.084

> <Negative vol penalty>
0.000

$$$$

  -OEChem-04052323123D

 79 87  0     1  0  0  0  0  0999 V2000
  -28.5825  -37.1320   20.3951 C   0  0  0  0  0  0  0  0  0  0  0  0
  -28.9523  -35.7990   20.2476 C   0  0  0  0  0  0  0  0  0  0  0  0
  -26.9383  -12.4039   21.8728 C   0  0  0  0  0  0  0  0  0  0  0  0
  -26.0202  -14.2398   20.5986 C   0  0  0  0  0  0  0  0  0  0  0  0
  -27.5662  -37.4780   21.2847 C   0  0  0  0  0  0  0  0  0  0  0  0
  -28.3066  -34.8112   20.9906 C   0  0  0  0  0  0  0  0  0  0  0  0
  -27.0415  -29.0933   19.1988 C   0  0  0  0  0  0  0  0  0  0  0  0
  -25.6614  -11.8593   22.0083 C   0  0  0  0  0  0  0  0  0  0  0  0
  -24.7432  -13.6952   20.7341 C   0  0  0  0  0  0  0  0  0  0  0  0
  -27.6817  -27.8758   19.4260 C   0  0  0  0  0  0  0  0  0  0  0  0
  -22.6916   -9.7964   22.3822 C   0  0  0  0  0  0  0  0  0  0  0  0
  -22.5453   -8.4255   22.1702 C   0  0  0  0  0  0  0  0  0  0  0  0
  -26.1826  -27.4374   21.2644 C   0  0  0  0  0  0  0  0  0  0  0  0
  -23.3605   -8.6878   19.9111 C   0  0  0  0  0  0  0  0  0  0  0  0
  -27.1178  -13.5941   21.1680 C   0  0  0  0  0  0  0  0  0  0  0  0
  -29.3633  -13.9066   19.9985 C   0  0  0  0  0  0  0  0  0  0  0  0
  -26.9012  -36.4930   22.0317 C   0  0  0  0  0  0  0  0  0  0  0  0
  -25.9722  -29.4976   20.0110 C   0  0  0  0  0  0  0  0  0  0  0  0
  -27.2814  -35.1445   21.8920 C   0  0  0  0  0  0  0  0  0  0  0  0
  -25.5289  -28.6593   21.0438 C   0  0  0  0  0  0  0  0  0  0  0  0
  -24.5638  -12.5049   21.4390 C   0  0  0  0  0  0  0  0  0  0  0  0
  -27.2542  -27.0490   20.4607 C   0  0  0  0  0  0  0  0  0  0  0  0
  -23.1722  -10.6130   21.3586 C   0  0  0  0  0  0  0  0  0  0  0  0
  -22.8798   -7.8712   20.9347 C   0  0  0  0  0  0  0  0  0  0  0  0
  -23.5067  -10.0587   20.1230 C   0  0  0  0  0  0  0  0  0  0  0  0
  -28.4366  -14.1575   21.0281 C   0  0  0  0  0  0  0  0  0  0  0  0
  -30.4531  -14.6774   20.3222 C   0  0  0  0  0  0  0  0  0  0  0  0
  -29.2492  -13.0532   18.8520 C   0  0  0  0  0  0  0  0  0  0  0  0
  -25.4487  -31.9373   21.9801 C   0  0  0  0  0  0  0  0  0  0  0  0
  -22.4633  -30.6764   22.1218 C   0  0  0  0  0  0  0  0  0  0  0  0
  -20.4549  -27.9392   21.7747 C   0  0  0  0  0  0  0  0  0  0  0  0
  -31.0963  -19.6767   23.5538 C   0  0  0  0  0  0  0  0  0  0  0  0
  -25.8411  -36.9204   23.0157 C   0  0  0  0  0  0  0  0  0  0  0  0
  -25.2749  -30.8017   19.7360 C   0  0  0  0  0  0  0  0  0  0  0  0
  -24.3724  -29.0380   21.9314 C   0  0  0  0  0  0  0  0  0  0  0  0
  -24.9514  -35.7737   23.4889 C   0  0  0  0  0  0  0  0  0  0  0  0
  -32.7242  -16.5561   24.0909 C   0  0  0  0  0  0  0  0  0  0  0  0
  -25.7979  -34.5629   23.8686 C   0  0  0  0  0  0  0  0  0  0  0  0
  -31.8935  -15.5649   23.2740 C   0  0  0  0  0  0  0  0  0  0  0  0
  -31.2354  -22.0144   21.1844 C   0  0  0  0  0  0  0  0  0  0  0  0
  -31.8498  -17.6318   24.7315 C   0  0  0  0  0  0  0  0  0  0  0  0
  -30.1403  -17.3639   22.9767 C   0  0  0  0  0  0  0  0  0  0  0  0
  -30.7841  -23.4069   20.7822 C   0  0  0  0  0  0  0  0  0  0  0  0
  -26.5877  -34.0417   22.6619 C   0  0  1  0  0  0  0  0  0  0  0  0
  -24.5283  -31.3475   20.9492 C   0  0  1  0  0  0  0  0  0  0  0  0
  -30.9845  -16.2926   22.2653 C   0  0  2  0  0  0  0  0  0  0  0  0
  -30.2520  -21.6297   22.2763 C   0  0  1  0  0  0  0  0  0  0  0  0
  -28.9186  -22.1013   21.7039 C   0  0  1  0  0  0  0  0  0  0  0  0
  -27.8450  -22.3343   22.7533 C   0  0  0  0  0  0  0  0  0  0  0  0
  -18.0639  -27.2096   21.9946 C   0  0  0  0  0  0  0  0  0  0  0  0
  -22.7511  -30.6571   25.1594 C   0  0  0  0  0  0  0  0  0  0  0  0
  -20.8044  -29.0862   25.2641 C   0  0  0  0  0  0  0  0  0  0  0  0
  -20.5054  -31.3793   24.3288 C   0  0  0  0  0  0  0  0  0  0  0  0
  -20.2980  -27.1940   18.9148 C   0  0  0  0  0  0  0  0  0  0  0  0
  -28.4793  -23.7087   19.7957 C   0  0  0  0  0  0  0  0  0  0  0  0
  -28.4528  -25.2053   19.5553 C   0  0  0  0  0  0  0  0  0  1  0  0
  -21.7760  -29.6510   22.9908 C   0  0  1  0  0  0  0  0  0  0  0  0
  -19.1328  -27.7447   21.0545 C   0  0  2  0  0  0  0  0  0  0  0  0
  -21.4823  -30.1869   24.4205 C   0  0  0  0  0  0  0  0  0  0  0  0
  -28.8974  -15.0200   21.9378 N   0  0  0  0  0  0  0  0  0  0  0  0
  -30.1257  -15.3178   21.4810 N   0  0  0  0  0  0  0  0  0  0  0  0
  -23.7273  -30.3258   21.6266 N   0  0  0  0  0  0  0  0  0  0  0  0
  -31.0136  -18.2846   23.7213 N   0  0  0  0  0  0  0  0  0  0  0  0
  -31.6499  -14.8629   19.7258 N   0  0  0  0  0  0  0  0  0  0  0  0
  -28.0609  -12.3325   18.6712 N   0  0  0  0  0  0  0  0  0  0  0  0
  -25.7261  -33.2770   21.7860 N   0  0  0  0  0  0  0  0  0  0  0  0
  -20.5895  -29.2238   22.2573 N   0  0  0  0  0  0  0  0  0  0  0  0
  -30.2746  -20.2142   22.5707 N   0  0  0  0  0  0  0  0  0  0  0  0
  -29.2762  -23.4224   21.0153 N   0  3  2  0  0  0  0  0  0  0  0  0
  -19.2932  -26.7817   19.9285 N   0  3  0  0  0  0  0  0  0  0  0  0
  -30.1800  -12.9208   18.0215 O   0  0  0  0  0  0  0  0  0  0  0  0
  -25.8744  -31.2297   22.8856 O   0  0  0  0  0  0  0  0  0  0  0  0
  -21.8964  -31.7461   21.8852 O   0  0  0  0  0  0  0  0  0  0  0  0
  -21.2836  -27.0403   21.9002 O   0  0  0  0  0  0  0  0  0  0  0  0
  -31.8507  -20.3873   24.2268 O   0  0  0  0  0  0  0  0  0  0  0  0
  -23.3176  -11.9737   21.5708 O   0  0  0  0  0  0  0  0  0  0  0  0
  -27.8778  -25.8604   20.6851 O   0  0  0  0  0  0  0  0  0  1  0  0
  -22.7407   -6.5545   20.7318 F   0  0  0  0  0  0  0  0  0  0  0  0
  -23.9701  -10.8380   19.1362 F   0  0  0  0  0  0  0  0  0  0  0  0
  1  2  1  0  0  0  0
  1  5  2  0  0  0  0
  2  6  2  0  0  0  0
  3  8  2  0  0  0  0
  3 15  1  0  0  0  0
  4  9  1  0  0  0  0
  4 15  2  0  0  0  0
  5 17  1  0  0  0  0
  6 19  1  0  0  0  0
  7 10  2  0  0  0  0
  7 18  1  0  0  0  0
  8 21  1  0  0  0  0
  9 21  2  0  0  0  0
 10 22  1  0  0  0  0
 11 12  2  0  0  0  0
 11 23  1  0  0  0  0
 12 24  1  0  0  0  0
 13 20  1  0  0  0  0
 13 22  2  0  0  0  0
 14 24  2  0  0  0  0
 14 25  1  0  0  0  0
 15 26  1  0  0  0  0
 16 26  1  0  0  0  0
 16 27  2  0  0  0  0
 16 28  1  0  0  0  0
 17 19  2  0  0  0  0
 17 33  1  0  0  0  0
 18 20  2  0  0  0  0
 18 34  1  0  0  0  0
 19 44  1  0  0  0  0
 20 35  1  0  0  0  0
 21 76  1  0  0  0  0
 22 77  1  0  0  0  0
 23 25  2  0  0  0  0
 23 76  1  0  0  0  0
 24 78  1  0  0  0  0
 25 79  1  0  0  0  0
 26 60  2  0  0  0  0
 27 61  1  0  0  0  0
 27 64  1  0  0  0  0
 28 65  1  0  0  0  0
 28 71  2  0  0  0  0
 29 45  1  0  0  0  0
 29 66  1  0  0  0  0
 29 72  2  0  0  0  0
 30 57  1  0  0  0  0
 30 62  1  0  0  0  0
 30 73  2  0  0  0  0
 31 58  1  0  0  0  0
 31 67  1  0  0  0  0
 31 74  2  0  0  0  0
 32 63  1  0  0  0  0
 32 68  1  0  0  0  0
 32 75  2  0  0  0  0
 33 36  1  0  0  0  0
 34 45  1  0  0  0  0
 35 62  1  0  0  0  0
 36 38  1  0  0  0  0
 37 39  1  0  0  0  0
 37 41  1  0  0  0  0
 38 44  1  0  0  0  0
 39 46  1  0  0  0  0
 40 43  1  0  0  0  0
 40 47  1  0  0  0  0
 41 63  1  0  0  0  0
 42 46  1  0  0  0  0
 42 63  1  0  0  0  0
 43 69  1  0  0  0  0
 44 66  1  0  0  0  0
 45 62  1  0  0  0  0
 46 61  1  0  0  0  0
 47 48  1  0  0  0  0
 47 68  1  0  0  0  0
 48 49  1  0  0  0  0
 48 69  1  0  0  0  0
 50 58  1  0  0  0  0
 51 59  1  0  0  0  0
 52 59  1  0  0  0  0
 53 59  1  0  0  0  0
 54 70  1  0  0  0  0
 55 56  1  0  0  0  0
 55 69  1  0  0  0  0
 56 77  1  0  0  0  0
 57 59  1  0  0  0  0
 57 67  1  0  0  0  0
 58 70  1  0  0  0  0
 60 61  1  0  0  0  0
M  CHG  2  69   1  70   1
M  ISO  4  32 100  56 101  68 100  77 101
M  END
> <Batch ID>
0185

> <Smiles>
CNC(C)C(=O)NC(C(=O)N1Cc2cc([101O:1][101CH2:1]CN3CCC([100NH:0][100C:0](=O)N4CCCC(n5nc(-c6ccc(Oc7ccc(F)cc7F)cc6)c(C(N)=O)c5N)C4)C3C)ccc2CC1C(=O)NC1CCCc2ccccc21)C(C)(C)C

> <Shape>
0.316

> <Color>
0.090

> <Negative vol penalty>
0.000

$$$$

  -OEChem-04052323123D

 81 90  0     1  0  0  0  0  0999 V2000
  -16.7007  -29.1462   24.2558 C   0  0  0  0  0  0  0  0  0  0  0  0
  -17.3414  -28.2263   23.4320 C   0  0  0  0  0  0  0  0  0  0  0  0
  -25.2311  -13.6924   19.8355 C   0  0  0  0  0  0  0  0  0  0  0  0
  -25.8363  -12.6411   21.9249 C   0  0  0  0  0  0  0  0  0  0  0  0
  -17.1462  -30.4665   24.3031 C   0  0  0  0  0  0  0  0  0  0  0  0
  -18.4273  -28.6265   22.6541 C   0  0  0  0  0  0  0  0  0  0  0  0
  -23.3524  -25.2849   21.2107 C   0  0  0  0  0  0  0  0  0  0  0  0
  -24.8856  -12.4477   19.3092 C   0  0  0  0  0  0  0  0  0  0  0  0
  -25.4908  -11.3964   21.3986 C   0  0  0  0  0  0  0  0  0  0  0  0
  -23.6888  -24.5534   20.0725 C   0  0  0  0  0  0  0  0  0  0  0  0
  -24.4274   -7.9853   20.7264 C   0  0  0  0  0  0  0  0  0  0  0  0
  -23.6693   -7.1301   21.5261 C   0  0  0  0  0  0  0  0  0  0  0  0
  -24.9480  -26.4360   19.2421 C   0  0  0  0  0  0  0  0  0  0  0  0
  -21.9056   -8.7788   21.6174 C   0  0  0  0  0  0  0  0  0  0  0  0
  -25.7065  -13.7891   21.1433 C   0  0  0  0  0  0  0  0  0  0  0  0
  -25.2249  -15.9677   22.3800 C   0  0  0  0  0  0  0  0  0  0  0  0
  -18.2441  -30.8808   23.5327 C   0  0  0  0  0  0  0  0  0  0  0  0
  -23.8029  -26.6034   21.3683 C   0  0  0  0  0  0  0  0  0  0  0  0
  -18.8870  -29.9539   22.6902 C   0  0  0  0  0  0  0  0  0  0  0  0
  -24.6180  -27.1812   20.3844 C   0  0  0  0  0  0  0  0  0  0  0  0
  -25.0154  -11.2997   20.0908 C   0  0  0  0  0  0  0  0  0  0  0  0
  -24.4843  -25.1299   19.0867 C   0  0  0  0  0  0  0  0  0  0  0  0
  -23.9247   -9.2373   20.3723 C   0  0  0  0  0  0  0  0  0  0  0  0
  -22.4084   -7.5268   21.9715 C   0  0  0  0  0  0  0  0  0  0  0  0
  -22.6638   -9.6341   20.8178 C   0  0  0  0  0  0  0  0  0  0  0  0
  -26.0640  -15.0745   21.6873 C   0  0  0  0  0  0  0  0  0  0  0  0
  -26.0348  -17.0347   22.6832 C   0  0  0  0  0  0  0  0  0  0  0  0
  -23.8373  -15.8439   22.7191 C   0  0  0  0  0  0  0  0  0  0  0  0
  -22.3919  -29.4387   21.6400 C   0  0  0  0  0  0  0  0  0  0  0  0
  -25.4228  -30.4598   22.1820 C   0  0  0  0  0  0  0  0  0  0  0  0
  -28.7713  -29.9395   21.7773 C   0  0  0  0  0  0  0  0  0  0  0  0
  -29.9358  -20.7275   21.1876 C   0  0  0  0  0  0  0  0  0  0  0  0
  -18.6596  -32.3298   23.5814 C   0  0  0  0  0  0  0  0  0  0  0  0
  -23.4533  -27.3699   22.6144 C   0  0  0  0  0  0  0  0  0  0  0  0
  -25.1442  -28.5863   20.5153 C   0  0  0  0  0  0  0  0  0  0  0  0
  -20.0519  -32.5838   23.0092 C   0  0  0  0  0  0  0  0  0  0  0  0
  -31.0350  -17.5867   22.3728 C   0  0  0  0  0  0  0  0  0  0  0  0
  -20.2212  -31.8613   21.6765 C   0  0  0  0  0  0  0  0  0  0  0  0
  -29.7868  -16.7096   22.3288 C   0  0  0  0  0  0  0  0  0  0  0  0
  -28.0429  -23.4254   19.5035 C   0  0  0  0  0  0  0  0  0  0  0  0
  -25.6561  -22.9015   15.6267 C   0  0  0  0  0  0  0  0  0  0  0  0
  -31.0720  -18.5347   21.1816 C   0  0  0  0  0  0  0  0  0  0  0  0
  -29.0957  -22.9505   20.4928 C   0  0  0  0  0  0  0  0  0  0  0  0
  -28.1488  -21.0500   19.3740 C   0  0  0  0  0  0  0  0  0  0  0  0
  -28.5954  -18.5709   21.0601 C   0  0  0  0  0  0  0  0  0  0  0  0
  -26.1818  -21.4972   15.3984 C   0  0  0  0  0  0  0  0  0  0  0  0
  -20.0838  -30.3439   21.8502 C   0  0  1  0  0  0  0  0  0  0  0  0
  -23.5420  -28.8818   22.4305 C   0  0  1  0  0  0  0  0  0  0  0  0
  -27.9997  -22.2851   18.4856 C   0  0  1  0  0  0  0  0  0  0  0  0
  -26.5966  -23.4573   16.6898 C   0  0  2  0  0  0  0  0  0  0  0  0
  -28.5203  -17.5747   22.2357 C   0  0  1  0  0  0  0  0  0  0  0  0
  -26.7340  -22.2764   17.6496 C   0  0  1  0  0  0  0  0  0  0  0  0
  -31.0013  -30.9659   22.2976 C   0  0  0  0  0  0  0  0  0  0  0  0
  -24.9994  -32.5024   19.9552 C   0  0  0  0  0  0  0  0  0  0  0  0
  -27.4808  -32.8254   19.8748 C   0  0  0  0  0  0  0  0  0  0  0  0
  -26.2197  -33.3773   21.9552 C   0  0  0  0  0  0  0  0  0  0  0  0
  -29.6022  -27.6001   23.3885 C   0  0  0  0  0  0  0  0  0  0  0  0
  -26.0588  -24.7152   17.3532 C   0  0  0  0  0  0  0  0  0  1  0  0
  -26.5553  -30.9546   21.3151 C   0  0  1  0  0  0  0  0  0  0  0  0
  -29.9256  -29.9961   22.7616 C   0  0  2  0  0  0  0  0  0  0  0  0
  -26.3025  -32.3891   20.7714 C   0  0  0  0  0  0  0  0  0  0  0  0
  -27.3114  -15.5342   21.5578 N   0  0  0  0  0  0  0  0  0  0  0  0
  -27.2620  -16.7279   22.1732 N   0  0  0  0  0  0  0  0  0  0  0  0
  -24.7696  -29.2972   21.7489 N   0  0  0  0  0  0  0  0  0  0  0  0
  -29.8496  -19.3347   21.0851 N   0  0  0  0  0  0  0  0  0  0  0  0
  -29.0231  -21.4929   20.4631 N   0  0  0  0  0  0  0  0  0  0  0  0
  -25.8099  -18.1961   23.3335 N   0  0  0  0  0  0  0  0  0  0  0  0
  -23.1558  -14.6823   22.3312 N   0  0  0  0  0  0  0  0  0  0  0  0
  -21.2975  -29.7871   22.4083 N   0  0  0  0  0  0  0  0  0  0  0  0
  -27.7686  -30.8238   22.1147 N   0  0  0  0  0  0  0  0  0  0  0  0
  -26.7376  -21.0800   16.7309 N   0  3  0  0  0  0  0  0  0  0  0  0
  -30.5424  -28.6482   22.9147 N   0  3  0  0  0  0  0  0  0  0  0  0
  -23.2160  -16.7441   23.3331 O   0  0  0  0  0  0  0  0  0  0  0  0
  -22.4908  -29.5459   20.4233 O   0  0  0  0  0  0  0  0  0  0  0  0
  -25.1331  -31.0780   23.2094 O   0  0  0  0  0  0  0  0  0  0  0  0
  -28.7617  -29.1886   20.8044 O   0  0  0  0  0  0  0  0  0  0  0  0
  -30.8197  -21.2686   21.8657 O   0  0  0  0  0  0  0  0  0  0  0  0
  -24.6782  -10.0849   19.5777 O   0  0  0  0  0  0  0  0  0  0  0  0
  -24.8165  -24.4123   17.9650 O   0  0  0  0  0  0  0  0  0  1  0  0
  -21.6798   -6.7048   22.7382 F   0  0  0  0  0  0  0  0  0  0  0  0
  -22.1750  -10.8352   20.4798 F   0  0  0  0  0  0  0  0  0  0  0  0
  1  2  1  0  0  0  0
  1  5  2  0  0  0  0
  2  6  2  0  0  0  0
  3  8  2  0  0  0  0
  3 15  1  0  0  0  0
  4  9  1  0  0  0  0
  4 15  2  0  0  0  0
  5 17  1  0  0  0  0
  6 19  1  0  0  0  0
  7 10  2  0  0  0  0
  7 18  1  0  0  0  0
  8 21  1  0  0  0  0
  9 21  2  0  0  0  0
 10 22  1  0  0  0  0
 11 12  2  0  0  0  0
 11 23  1  0  0  0  0
 12 24  1  0  0  0  0
 13 20  1  0  0  0  0
 13 22  2  0  0  0  0
 14 24  2  0  0  0  0
 14 25  1  0  0  0  0
 15 26  1  0  0  0  0
 16 26  1  0  0  0  0
 16 27  2  0  0  0  0
 16 28  1  0  0  0  0
 17 19  2  0  0  0  0
 17 33  1  0  0  0  0
 18 20  2  0  0  0  0
 18 34  1  0  0  0  0
 19 47  1  0  0  0  0
 20 35  1  0  0  0  0
 21 78  1  0  0  0  0
 22 79  1  0  0  0  0
 23 25  2  0  0  0  0
 23 78  1  0  0  0  0
 24 80  1  0  0  0  0
 25 81  1  0  0  0  0
 26 62  2  0  0  0  0
 27 63  1  0  0  0  0
 27 67  1  0  0  0  0
 28 68  1  0  0  0  0
 28 73  2  0  0  0  0
 29 48  1  0  0  0  0
 29 69  1  0  0  0  0
 29 74  2  0  0  0  0
 30 59  1  0  0  0  0
 30 64  1  0  0  0  0
 30 75  2  0  0  0  0
 31 60  1  0  0  0  0
 31 70  1  0  0  0  0
 31 76  2  0  0  0  0
 32 65  1  0  0  0  0
 32 66  1  0  0  0  0
 32 77  2  0  0  0  0
 33 36  1  0  0  0  0
 34 48  1  0  0  0  0
 35 64  1  0  0  0  0
 36 38  1  0  0  0  0
 37 39  1  0  0  0  0
 37 42  1  0  0  0  0
 38 47  1  0  0  0  0
 39 51  1  0  0  0  0
 40 43  1  0  0  0  0
 40 49  1  0  0  0  0
 41 46  1  0  0  0  0
 41 50  1  0  0  0  0
 42 65  1  0  0  0  0
 43 66  1  0  0  0  0
 44 49  1  0  0  0  0
 44 66  1  0  0  0  0
 45 51  1  0  0  0  0
 45 65  1  0  0  0  0
 46 71  1  0  0  0  0
 47 69  1  0  0  0  0
 48 64  1  0  0  0  0
 49 52  1  0  0  0  0
 50 52  1  0  0  0  0
 50 58  1  0  0  0  0
 51 63  1  0  0  0  0
 52 71  1  0  0  0  0
 53 60  1  0  0  0  0
 54 61  1  0  0  0  0
 55 61  1  0  0  0  0
 56 61  1  0  0  0  0
 57 72  1  0  0  0  0
 58 79  1  0  0  0  0
 59 61  1  0  0  0  0
 59 70  1  0  0  0  0
 60 72  1  0  0  0  0
 62 63  1  0  0  0  0
M  CHG  2  71   1  72   1
M  ISO  4  32 100  58 101  66 100  79 101
M  END
> <Batch ID>
0185

> <Smiles>
CNC(C)C(=O)NC(C(=O)N1Cc2cc([101O:1][101CH2:1]C3CCNC3C3CC[100N:0]([100C:0](=O)N4CCCC(n5nc(-c6ccc(Oc7ccc(F)cc7F)cc6)c(C(N)=O)c5N)C4)C3)ccc2CC1C(=O)NC1CCCc2ccccc21)C(C)(C)C

> <Shape>
0.247

> <Color>
0.063

> <Negative vol penalty>
0.000

$$$$

  -OEChem-04052323123D

 83 93  0     1  0  0  0  0  0999 V2000
  -16.1832  -27.8479   20.9299 C   0  0  0  0  0  0  0  0  0  0  0  0
  -17.3977  -27.5662   20.3126 C   0  0  0  0  0  0  0  0  0  0  0  0
  -26.0755  -13.7288   19.6623 C   0  0  0  0  0  0  0  0  0  0  0  0
  -24.1418  -13.9090   21.0993 C   0  0  0  0  0  0  0  0  0  0  0  0
  -16.1646  -28.4616   22.1817 C   0  0  0  0  0  0  0  0  0  0  0  0
  -18.5944  -27.8989   20.9463 C   0  0  0  0  0  0  0  0  0  0  0  0
  -22.0194  -24.1764   20.7079 C   0  0  0  0  0  0  0  0  0  0  0  0
  -26.2048  -12.3829   20.0050 C   0  0  0  0  0  0  0  0  0  0  0  0
  -24.2710  -12.5631   21.4421 C   0  0  0  0  0  0  0  0  0  0  0  0
  -22.7078  -24.0206   19.5056 C   0  0  0  0  0  0  0  0  0  0  0  0
  -23.5306   -9.5636   20.0726 C   0  0  0  0  0  0  0  0  0  0  0  0
  -22.3736   -8.7847   20.0815 C   0  0  0  0  0  0  0  0  0  0  0  0
  -24.5953  -25.1961   20.4409 C   0  0  0  0  0  0  0  0  0  0  0  0
  -22.7155   -8.3035   22.4243 C   0  0  0  0  0  0  0  0  0  0  0  0
  -28.6392  -24.1892   19.9937 C   0  0  0  0  0  0  0  0  0  0  0  0
  -25.0440  -14.4919   20.2095 C   0  0  0  0  0  0  0  0  0  0  0  0
  -24.1670  -16.4207   18.7888 C   0  0  0  0  0  0  0  0  0  0  0  0
  -17.3619  -28.7932   22.8354 C   0  0  0  0  0  0  0  0  0  0  0  0
  -22.6106  -24.8539   21.7840 C   0  0  0  0  0  0  0  0  0  0  0  0
  -18.5918  -28.5188   22.2074 C   0  0  0  0  0  0  0  0  0  0  0  0
  -23.9132  -25.3569   21.6567 C   0  0  0  0  0  0  0  0  0  0  0  0
  -25.3026  -11.8001   20.8949 C   0  0  0  0  0  0  0  0  0  0  0  0
  -23.9948  -24.5330   19.3710 C   0  0  0  0  0  0  0  0  0  0  0  0
  -24.2802   -9.7124   21.2396 C   0  0  0  0  0  0  0  0  0  0  0  0
  -21.9660   -8.1547   21.2573 C   0  0  0  0  0  0  0  0  0  0  0  0
  -23.8726   -9.0824   22.4154 C   0  0  0  0  0  0  0  0  0  0  0  0
  -24.9103  -15.8824   19.8563 C   0  0  0  0  0  0  0  0  0  0  0  0
  -28.4630  -24.1393   18.6337 C   0  0  0  0  0  0  0  0  0  0  0  0
  -24.3627  -17.7768   18.8835 C   0  0  0  0  0  0  0  0  0  0  0  0
  -23.3707  -15.7543   17.8001 C   0  0  0  0  0  0  0  0  0  0  0  0
  -21.9238  -27.4871   23.4266 C   0  0  0  0  0  0  0  0  0  0  0  0
  -24.4160  -26.5217   25.2648 C   0  0  0  0  0  0  0  0  0  0  0  0
  -27.3052  -24.7226   25.5155 C   0  0  0  0  0  0  0  0  0  0  0  0
  -28.8438  -20.8755   21.2171 C   0  0  0  0  0  0  0  0  0  0  0  0
  -17.2908  -29.4984   24.1667 C   0  0  0  0  0  0  0  0  0  0  0  0
  -21.8650  -24.9902   23.0831 C   0  0  0  0  0  0  0  0  0  0  0  0
  -24.6004  -26.0745   22.7887 C   0  0  0  0  0  0  0  0  0  0  0  0
  -18.6083  -29.4788   24.9374 C   0  0  0  0  0  0  0  0  0  0  0  0
  -25.2875  -21.2281   22.0345 C   0  0  0  0  0  0  0  0  0  0  0  0
  -19.7690  -29.8507   24.0202 C   0  0  0  0  0  0  0  0  0  0  0  0
  -24.7354  -19.9046   21.5156 C   0  0  0  0  0  0  0  0  0  0  0  0
  -31.1855  -22.0348   23.3270 C   0  0  0  0  0  0  0  0  0  0  0  0
  -26.5909  -23.3978   16.9557 C   0  0  0  0  0  0  0  0  0  0  0  0
  -26.7048  -21.0887   22.5913 C   0  0  0  0  0  0  0  0  0  0  0  0
  -29.7024  -21.7162   23.5396 C   0  0  0  0  0  0  0  0  0  0  0  0
  -27.0994  -19.1303   21.1208 C   0  0  0  0  0  0  0  0  0  0  0  0
  -19.9114  -28.8420   22.8740 C   0  0  1  0  0  0  0  0  0  0  0  0
  -27.1644  -24.4412   17.8979 C   0  0  1  0  0  0  0  0  0  0  0  0
  -22.3670  -26.1470   23.9417 C   0  0  1  0  0  0  0  0  0  0  0  0
  -25.7033  -19.2794   20.5001 C   0  0  1  0  0  0  0  0  0  0  0  0
  -25.9113  -23.6620   18.2644 C   0  0  1  0  0  0  0  0  0  1  0  0
  -30.8737  -22.2952   21.8454 C   0  0  2  0  0  0  0  0  0  0  0  0
  -29.3106  -23.6777   26.6036 C   0  0  0  0  0  0  0  0  0  0  0  0
  -25.6295  -29.2910   24.8540 C   0  0  0  0  0  0  0  0  0  0  0  0
  -27.8181  -28.3739   25.6520 C   0  0  0  0  0  0  0  0  0  0  0  0
  -25.8447  -28.3920   27.1778 C   0  0  0  0  0  0  0  0  0  0  0  0
  -25.7912  -22.2815   26.2282 C   0  0  0  0  0  0  0  0  0  0  0  0
  -30.6872  -23.7355   21.4106 C   0  0  0  0  0  0  0  0  0  0  0  0
  -25.9075  -26.7552   25.2519 C   0  0  1  0  0  0  0  0  0  0  0  0
  -27.7915  -23.7391   26.5645 C   0  0  2  0  0  0  0  0  0  0  0  0
  -26.2865  -28.1912   25.7118 C   0  0  0  0  0  0  0  0  0  0  0  0
  -25.5320  -16.8201   20.5762 N   0  0  0  0  0  0  0  0  0  0  0  0
  -29.6361  -23.7780   18.0314 N   0  0  0  0  0  0  0  0  0  0  0  0
  -30.5454  -23.5987   18.9833 N   0  0  0  0  0  0  0  0  0  0  0  0
  -29.9456  -23.8456   20.1591 N   0  0  0  0  0  0  0  0  0  0  0  0
  -25.1799  -17.9612   19.9599 N   0  0  0  0  0  0  0  0  0  0  0  0
  -23.8277  -26.1879   24.0367 N   0  0  0  0  0  0  0  0  0  0  0  0
  -27.5990  -20.4051   21.6493 N   0  0  0  0  0  0  0  0  0  0  0  0
  -29.5889  -21.6362   22.0905 N   0  0  0  0  0  0  0  0  0  0  0  0
  -23.9139  -18.8176   18.1503 N   0  0  0  0  0  0  0  0  0  0  0  0
  -23.2772  -14.3568   17.8484 N   0  0  0  0  0  0  0  0  0  0  0  0
  -20.5521  -27.6318   23.3424 N   0  0  0  0  0  0  0  0  0  0  0  0
  -26.4938  -25.6937   26.0630 N   0  0  0  0  0  0  0  0  0  0  0  0
  -27.2733  -22.3725   26.2731 N   0  3  0  0  0  0  0  0  0  0  0  0
  -22.7734  -16.3785   16.8906 O   0  0  0  0  0  0  0  0  0  0  0  0
  -22.7640  -28.3281   23.1290 O   0  0  0  0  0  0  0  0  0  0  0  0
  -23.7970  -26.6246   26.3268 O   0  0  0  0  0  0  0  0  0  0  0  0
  -27.6171  -24.6400   24.3295 O   0  0  0  0  0  0  0  0  0  0  0  0
  -29.2934  -20.6009   20.0967 O   0  0  0  0  0  0  0  0  0  0  0  0
  -25.4282  -10.4867   21.2293 O   0  0  0  0  0  0  0  0  0  0  0  0
  -24.6702  -24.3826   18.1958 O   0  0  0  0  0  0  0  0  0  1  0  0
  -20.8540   -7.4079   21.2660 F   0  0  0  0  0  0  0  0  0  0  0  0
  -24.5879   -9.2226   23.5399 F   0  0  0  0  0  0  0  0  0  0  0  0
  1  2  1  0  0  0  0
  1  5  2  0  0  0  0
  2  6  2  0  0  0  0
  3  8  2  0  0  0  0
  3 16  1  0  0  0  0
  4  9  1  0  0  0  0
  4 16  2  0  0  0  0
  5 18  1  0  0  0  0
  6 20  1  0  0  0  0
  7 10  2  0  0  0  0
  7 19  1  0  0  0  0
  8 22  1  0  0  0  0
  9 22  2  0  0  0  0
 10 23  1  0  0  0  0
 11 12  2  0  0  0  0
 11 24  1  0  0  0  0
 12 25  1  0  0  0  0
 13 21  1  0  0  0  0
 13 23  2  0  0  0  0
 14 25  2  0  0  0  0
 14 26  1  0  0  0  0
 15 28  2  0  0  0  0
 15 65  1  0  0  0  0
 16 27  1  0  0  0  0
 17 27  1  0  0  0  0
 17 29  2  0  0  0  0
 17 30  1  0  0  0  0
 18 20  2  0  0  0  0
 18 35  1  0  0  0  0
 19 21  2  0  0  0  0
 19 36  1  0  0  0  0
 20 47  1  0  0  0  0
 21 37  1  0  0  0  0
 22 80  1  0  0  0  0
 23 81  1  0  0  0  0
 24 26  2  0  0  0  0
 24 80  1  0  0  0  0
 25 82  1  0  0  0  0
 26 83  1  0  0  0  0
 27 62  2  0  0  0  0
 28 48  1  0  0  0  0
 28 63  1  0  0  0  0
 29 66  1  0  0  0  0
 29 70  1  0  0  0  0
 30 71  1  0  0  0  0
 30 75  2  0  0  0  0
 31 49  1  0  0  0  0
 31 72  1  0  0  0  0
 31 76  2  0  0  0  0
 32 59  1  0  0  0  0
 32 67  1  0  0  0  0
 32 77  2  0  0  0  0
 33 60  1  0  0  0  0
 33 73  1  0  0  0  0
 33 78  2  0  0  0  0
 34 68  1  0  0  0  0
 34 69  1  0  0  0  0
 34 79  2  0  0  0  0
 35 38  1  0  0  0  0
 36 49  1  0  0  0  0
 37 67  1  0  0  0  0
 38 40  1  0  0  0  0
 39 41  1  0  0  0  0
 39 44  1  0  0  0  0
 40 47  1  0  0  0  0
 41 50  1  0  0  0  0
 42 45  1  0  0  0  0
 42 52  1  0  0  0  0
 43 48  1  0  0  0  0
 43 51  1  0  0  0  0
 44 68  1  0  0  0  0
 45 69  1  0  0  0  0
 46 50  1  0  0  0  0
 46 68  1  0  0  0  0
 47 72  1  0  0  0  0
 48 51  1  0  0  0  0
 49 67  1  0  0  0  0
 50 66  1  0  0  0  0
 51 81  1  0  0  0  0
 52 58  1  0  0  0  0
 52 69  1  0  0  0  0
 53 60  1  0  0  0  0
 54 61  1  0  0  0  0
 55 61  1  0  0  0  0
 56 61  1  0  0  0  0
 57 74  1  0  0  0  0
 58 65  1  0  0  0  0
 59 61  1  0  0  0  0
 59 73  1  0  0  0  0
 60 74  1  0  0  0  0
 62 66  1  0  0  0  0
 63 64  2  0  0  0  0
 64 65  1  0  0  0  0
M  CHG  1  74   1
M  ISO  4  34 100  51 101  69 100  81 101
M  END
> <Batch ID>
0185

> <Smiles>
CNC(C)C(=O)NC(C(=O)N1Cc2cc([101O:1][101CH:1]3CC3c3cn(CC4CC[100N:0]4[100C:0](=O)N4CCCC(n5nc(-c6ccc(Oc7ccc(F)cc7F)cc6)c(C(N)=O)c5N)C4)nn3)ccc2CC1C(=O)NC1CCCc2ccccc21)C(C)(C)C

> <Shape>
0.189

> <Color>
0.080

> <Negative vol penalty>
0.000

$$$$

  -OEChem-04052323123D

 83 92  0     1  0  0  0  0  0999 V2000
  -26.8556  -37.6026   22.4830 C   0  0  0  0  0  0  0  0  0  0  0  0
  -27.5181  -36.6083   21.7704 C   0  0  0  0  0  0  0  0  0  0  0  0
  -23.4142  -12.3013   16.2132 C   0  0  0  0  0  0  0  0  0  0  0  0
  -22.6327  -11.0940   18.1545 C   0  0  0  0  0  0  0  0  0  0  0  0
  -26.0239  -37.2590   23.5479 C   0  0  0  0  0  0  0  0  0  0  0  0
  -27.3500  -35.2697   22.1231 C   0  0  0  0  0  0  0  0  0  0  0  0
  -27.1122  -28.7212   19.2287 C   0  0  0  0  0  0  0  0  0  0  0  0
  -22.5896  -11.5254   15.3986 C   0  0  0  0  0  0  0  0  0  0  0  0
  -21.8080  -10.3181   17.3399 C   0  0  0  0  0  0  0  0  0  0  0  0
  -27.6862  -27.4588   19.3721 C   0  0  0  0  0  0  0  0  0  0  0  0
  -22.6285   -8.4289   14.0442 C   0  0  0  0  0  0  0  0  0  0  0  0
  -23.1741   -7.9245   12.8638 C   0  0  0  0  0  0  0  0  0  0  0  0
  -30.0648  -23.3561   20.9910 C   0  0  0  0  0  0  0  0  0  0  0  0
  -30.4651  -22.0479   21.1990 C   0  0  0  0  0  0  0  0  0  0  0  0
  -26.1625  -26.9781   21.1795 C   0  0  0  0  0  0  0  0  0  0  0  0
  -21.5058   -9.1147   11.5841 C   0  0  0  0  0  0  0  0  0  0  0  0
  -23.4359  -12.0856   17.5911 C   0  0  0  0  0  0  0  0  0  0  0  0
  -23.9620  -14.1042   19.0594 C   0  0  0  0  0  0  0  0  0  0  0  0
  -25.8380  -35.9149   23.9077 C   0  0  0  0  0  0  0  0  0  0  0  0
  -26.0646  -29.1264   20.0682 C   0  0  0  0  0  0  0  0  0  0  0  0
  -26.5161  -34.9079   23.1947 C   0  0  0  0  0  0  0  0  0  0  0  0
  -25.5753  -28.2452   21.0429 C   0  0  0  0  0  0  0  0  0  0  0  0
  -21.7864  -10.5338   15.9620 C   0  0  0  0  0  0  0  0  0  0  0  0
  -27.2132  -26.5881   20.3495 C   0  0  0  0  0  0  0  0  0  0  0  0
  -21.5215   -9.2761   13.9947 C   0  0  0  0  0  0  0  0  0  0  0  0
  -22.6128   -8.2674   11.6337 C   0  0  0  0  0  0  0  0  0  0  0  0
  -20.9602   -9.6191   12.7646 C   0  0  0  0  0  0  0  0  0  0  0  0
  -24.2880  -12.8863   18.4330 C   0  0  0  0  0  0  0  0  0  0  0  0
  -29.2981  -23.6276   19.8757 C   0  0  0  0  0  0  0  0  0  0  0  0
  -30.0719  -21.0977   20.2780 C   0  0  0  0  0  0  0  0  0  0  0  0
  -25.1024  -14.4568   19.7389 C   0  0  0  0  0  0  0  0  0  0  0  0
  -22.7378  -14.8499   19.0299 C   0  0  0  0  0  0  0  0  0  0  0  0
  -25.6685  -31.4522   22.1983 C   0  0  0  0  0  0  0  0  0  0  0  0
  -22.6198  -30.3458   22.2600 C   0  0  0  0  0  0  0  0  0  0  0  0
  -20.4688  -27.7493   21.7328 C   0  0  0  0  0  0  0  0  0  0  0  0
  -30.7154  -15.0442   19.5764 C   0  0  0  0  0  0  0  0  0  0  0  0
  -24.9661  -35.5955   25.0962 C   0  0  0  0  0  0  0  0  0  0  0  0
  -25.4385  -30.4814   19.8830 C   0  0  0  0  0  0  0  0  0  0  0  0
  -24.4391  -28.6244   21.9561 C   0  0  0  0  0  0  0  0  0  0  0  0
  -24.5481  -34.1291   25.1683 C   0  0  0  0  0  0  0  0  0  0  0  0
  -29.3209  -11.8406   20.7012 C   0  0  0  0  0  0  0  0  0  0  0  0
  -25.7488  -33.2193   24.9283 C   0  0  0  0  0  0  0  0  0  0  0  0
  -27.8721  -11.9132   20.2171 C   0  0  0  0  0  0  0  0  0  0  0  0
  -28.7520  -18.1353   19.9031 C   0  0  0  0  0  0  0  0  0  0  0  0
  -30.2661  -12.6275   19.7963 C   0  0  0  0  0  0  0  0  0  0  0  0
  -28.8241  -16.7479   19.2739 C   0  0  0  0  0  0  0  0  0  0  0  0
  -28.4212  -14.0959   19.0797 C   0  0  0  0  0  0  0  0  0  0  0  0
  -31.0388  -17.4877   19.8332 C   0  0  0  0  0  0  0  0  0  0  0  0
  -26.3400  -33.4430   23.5312 C   0  0  1  0  0  0  0  0  0  0  0  0
  -24.7198  -30.9832   21.1317 C   0  0  1  0  0  0  0  0  0  0  0  0
  -27.4306  -13.3731   20.0029 C   0  0  1  0  0  0  0  0  0  0  0  0
  -30.1400  -18.6946   19.6103 C   0  0  2  0  0  0  0  0  0  0  0  0
  -18.0419  -27.1353   21.9072 C   0  0  0  0  0  0  0  0  0  0  0  0
  -22.9007  -30.1064   25.2889 C   0  0  0  0  0  0  0  0  0  0  0  0
  -20.8728  -28.6381   25.2909 C   0  0  0  0  0  0  0  0  0  0  0  0
  -20.6983  -31.0018   24.5129 C   0  0  0  0  0  0  0  0  0  0  0  0
  -20.2775  -27.2081   18.8294 C   0  0  0  0  0  0  0  0  0  0  0  0
  -28.8393  -25.0197   19.6065 C   0  0  0  0  0  0  0  0  0  1  0  0
  -21.8772  -29.3023   23.0591 C   0  0  1  0  0  0  0  0  0  0  0  0
  -19.1395  -27.6747   21.0034 C   0  0  2  0  0  0  0  0  0  0  0  0
  -21.6099  -29.7554   24.5222 C   0  0  0  0  0  0  0  0  0  0  0  0
  -25.5376  -12.4919   18.6913 N   0  0  0  0  0  0  0  0  0  0  0  0
  -28.9280  -22.6777   18.9908 N   0  0  0  0  0  0  0  0  0  0  0  0
  -29.3211  -21.3919   19.1955 N   0  0  0  0  0  0  0  0  0  0  0  0
  -26.0070  -13.4675   19.4876 N   0  0  0  0  0  0  0  0  0  0  0  0
  -23.8642  -29.9624   21.7400 N   0  0  0  0  0  0  0  0  0  0  0  0
  -29.7882  -13.9967   19.6024 N   0  0  0  0  0  0  0  0  0  0  0  0
  -30.2216  -16.3413   19.4429 N   0  0  0  0  0  0  0  0  0  0  0  0
  -25.4097  -15.5136   20.5207 N   0  0  0  0  0  0  0  0  0  0  0  0
  -21.6653  -14.3443   18.2827 N   0  0  0  0  0  0  0  0  0  0  0  0
  -30.4767  -19.7861   20.4857 N   0  0  0  0  0  0  0  0  0  0  0  0
  -25.5289  -32.7868   22.5282 N   0  0  0  0  0  0  0  0  0  0  0  0
  -20.6709  -28.9895   22.3006 N   0  0  0  0  0  0  0  0  0  0  0  0
  -19.2503  -26.7826   19.8147 N   0  3  0  0  0  0  0  0  0  0  0  0
  -22.6045  -15.9409   19.6345 O   0  0  0  0  0  0  0  0  0  0  0  0
  -26.4670  -30.6614   22.6869 O   0  0  0  0  0  0  0  0  0  0  0  0
  -22.1113  -31.4578   22.0970 O   0  0  0  0  0  0  0  0  0  0  0  0
  -21.2481  -26.8011   21.7958 O   0  0  0  0  0  0  0  0  0  0  0  0
  -31.9279  -14.8346   19.7138 O   0  0  0  0  0  0  0  0  0  0  0  0
  -20.9814   -9.7767   15.1674 O   0  0  0  0  0  0  0  0  0  0  0  0
  -27.7758  -25.3471   20.4930 O   0  0  0  0  0  0  0  0  0  1  0  0
  -23.1379   -7.7842   10.5001 F   0  0  0  0  0  0  0  0  0  0  0  0
  -19.8974  -10.4335   12.7106 F   0  0  0  0  0  0  0  0  0  0  0  0
  1  2  1  0  0  0  0
  1  5  2  0  0  0  0
  2  6  2  0  0  0  0
  3  8  2  0  0  0  0
  3 17  1  0  0  0  0
  4  9  1  0  0  0  0
  4 17  2  0  0  0  0
  5 19  1  0  0  0  0
  6 21  1  0  0  0  0
  7 10  2  0  0  0  0
  7 20  1  0  0  0  0
  8 23  1  0  0  0  0
  9 23  2  0  0  0  0
 10 24  1  0  0  0  0
 11 12  2  0  0  0  0
 11 25  1  0  0  0  0
 12 26  1  0  0  0  0
 13 14  2  0  0  0  0
 13 29  1  0  0  0  0
 14 30  1  0  0  0  0
 15 22  1  0  0  0  0
 15 24  2  0  0  0  0
 16 26  2  0  0  0  0
 16 27  1  0  0  0  0
 17 28  1  0  0  0  0
 18 28  1  0  0  0  0
 18 31  2  0  0  0  0
 18 32  1  0  0  0  0
 19 21  2  0  0  0  0
 19 37  1  0  0  0  0
 20 22  2  0  0  0  0
 20 38  1  0  0  0  0
 21 49  1  0  0  0  0
 22 39  1  0  0  0  0
 23 80  1  0  0  0  0
 24 81  1  0  0  0  0
 25 27  2  0  0  0  0
 25 80  1  0  0  0  0
 26 82  1  0  0  0  0
 27 83  1  0  0  0  0
 28 62  2  0  0  0  0
 29 58  1  0  0  0  0
 29 63  2  0  0  0  0
 30 64  2  0  0  0  0
 30 71  1  0  0  0  0
 31 65  1  0  0  0  0
 31 69  1  0  0  0  0
 32 70  1  0  0  0  0
 32 75  2  0  0  0  0
 33 50  1  0  0  0  0
 33 72  1  0  0  0  0
 33 76  2  0  0  0  0
 34 59  1  0  0  0  0
 34 66  1  0  0  0  0
 34 77  2  0  0  0  0
 35 60  1  0  0  0  0
 35 73  1  0  0  0  0
 35 78  2  0  0  0  0
 36 67  1  0  0  0  0
 36 68  1  0  0  0  0
 36 79  2  0  0  0  0
 37 40  1  0  0  0  0
 38 50  1  0  0  0  0
 39 66  1  0  0  0  0
 40 42  1  0  0  0  0
 41 43  1  0  0  0  0
 41 45  1  0  0  0  0
 42 49  1  0  0  0  0
 43 51  1  0  0  0  0
 44 46  1  0  0  0  0
 44 52  1  0  0  0  0
 45 67  1  0  0  0  0
 46 68  1  0  0  0  0
 47 51  1  0  0  0  0
 47 67  1  0  0  0  0
 48 52  1  0  0  0  0
 48 68  1  0  0  0  0
 49 72  1  0  0  0  0
 50 66  1  0  0  0  0
 51 65  1  0  0  0  0
 52 71  1  0  0  0  0
 53 60  1  0  0  0  0
 54 61  1  0  0  0  0
 55 61  1  0  0  0  0
 56 61  1  0  0  0  0
 57 74  1  0  0  0  0
 58 81  1  0  0  0  0
 59 61  1  0  0  0  0
 59 73  1  0  0  0  0
 60 74  1  0  0  0  0
 62 65  1  0  0  0  0
 63 64  1  0  0  0  0
M  CHG  1  74   1
M  ISO  4  36 100  58 101  68 100  81 101
M  END
> <Batch ID>
0185

> <Smiles>
CNC(C)C(=O)NC(C(=O)N1Cc2cc([101O:1][101CH2:1]c3ccc(NC4CC[100N:0]([100C:0](=O)N5CCCC(n6nc(-c7ccc(Oc8ccc(F)cc8F)cc7)c(C(N)=O)c6N)C5)C4)nn3)ccc2CC1C(=O)NC1CCCc2ccccc21)C(C)(C)C

> <Shape>
0.295

> <Color>
0.131

> <Negative vol penalty>
0.000

$$$$

  -OEChem-04052323123D

 86 96  0     1  0  0  0  0  0999 V2000
  -28.0836  -33.1923   25.1871 C   0  0  0  0  0  0  0  0  0  0  0  0
  -28.1665  -31.8354   24.8919 C   0  0  0  0  0  0  0  0  0  0  0  0
  -23.1524  -16.3071   21.4558 C   0  0  0  0  0  0  0  0  0  0  0  0
  -22.3876  -15.2773   19.4084 C   0  0  0  0  0  0  0  0  0  0  0  0
  -26.8400  -33.8216   25.2250 C   0  0  0  0  0  0  0  0  0  0  0  0
  -27.0057  -31.1066   24.6355 C   0  0  0  0  0  0  0  0  0  0  0  0
  -27.4708  -28.0630   20.6148 C   0  0  0  0  0  0  0  0  0  0  0  0
  -22.1499  -17.2707   21.3456 C   0  0  0  0  0  0  0  0  0  0  0  0
  -21.3851  -16.2408   19.2983 C   0  0  0  0  0  0  0  0  0  0  0  0
  -28.1705  -26.8709   20.7962 C   0  0  0  0  0  0  0  0  0  0  0  0
  -19.5667  -19.7886   21.7949 C   0  0  0  0  0  0  0  0  0  0  0  0
  -18.8375  -20.0999   22.9424 C   0  0  0  0  0  0  0  0  0  0  0  0
  -26.0811  -25.6812   20.9910 C   0  0  0  0  0  0  0  0  0  0  0  0
  -18.1003  -17.8042   23.0968 C   0  0  0  0  0  0  0  0  0  0  0  0
  -23.2713  -15.3104   20.4871 C   0  0  0  0  0  0  0  0  0  0  0  0
  -24.2239  -13.0723   21.2561 C   0  0  0  0  0  0  0  0  0  0  0  0
  -25.6641  -33.1023   24.9595 C   0  0  0  0  0  0  0  0  0  0  0  0
  -26.0687  -28.0749   20.6311 C   0  0  0  0  0  0  0  0  0  0  0  0
  -25.7451  -31.7265   24.6712 C   0  0  0  0  0  0  0  0  0  0  0  0
  -25.3659  -26.8744   20.8070 C   0  0  0  0  0  0  0  0  0  0  0  0
  -21.2662  -17.2375   20.2669 C   0  0  0  0  0  0  0  0  0  0  0  0
  -27.4757  -25.6802   20.9873 C   0  0  0  0  0  0  0  0  0  0  0  0
  -19.5626  -18.4851   21.2982 C   0  0  0  0  0  0  0  0  0  0  0  0
  -18.1043  -19.1077   23.5934 C   0  0  0  0  0  0  0  0  0  0  0  0
  -18.8295  -17.4929   21.9492 C   0  0  0  0  0  0  0  0  0  0  0  0
  -24.3071  -14.3151   20.6001 C   0  0  0  0  0  0  0  0  0  0  0  0
  -29.3203  -20.6710   23.0228 C   0  0  0  0  0  0  0  0  0  0  0  0
  -29.0643  -21.6013   20.5336 C   0  0  0  0  0  0  0  0  0  0  0  0
  -28.3567  -22.1573   21.5765 C   0  0  0  0  0  0  0  0  0  0  0  0
  -30.0274  -20.1144   21.9798 C   0  0  0  0  0  0  0  0  0  0  0  0
  -25.4624  -12.5061   21.0772 C   0  0  0  0  0  0  0  0  0  0  0  0
  -23.1253  -12.4824   21.9637 C   0  0  0  0  0  0  0  0  0  0  0  0
  -23.8581  -29.4521   22.4532 C   0  0  0  0  0  0  0  0  0  0  0  0
  -21.8269  -28.2130   20.2484 C   0  0  0  0  0  0  0  0  0  0  0  0
  -21.2380  -25.8525   17.8551 C   0  0  0  0  0  0  0  0  0  0  0  0
  -30.8670  -15.0091   19.9420 C   0  0  0  0  0  0  0  0  0  0  0  0
  -24.3389  -33.8154   25.0587 C   0  0  0  0  0  0  0  0  0  0  0  0
  -25.3285  -29.3651   20.4072 C   0  0  0  0  0  0  0  0  0  0  0  0
  -23.8604  -26.8303   20.8125 C   0  0  0  0  0  0  0  0  0  0  0  0
  -23.1873  -33.0543   24.4068 C   0  0  0  0  0  0  0  0  0  0  0  0
  -29.1686  -12.4394   18.0863 C   0  0  0  0  0  0  0  0  0  0  0  0
  -23.2146  -31.5867   24.8221 C   0  0  0  0  0  0  0  0  0  0  0  0
  -29.2258  -18.6807   24.6671 C   0  0  0  0  0  0  0  0  0  0  0  0
  -28.2438  -19.6968   25.1606 C   0  0  0  0  0  0  0  0  0  0  0  0
  -27.7144  -12.5508   18.5324 C   0  0  0  0  0  0  0  0  0  0  0  0
  -29.8327  -13.8093   18.0502 C   0  0  0  0  0  0  0  0  0  0  0  0
  -28.3426  -14.6342   19.8544 C   0  0  0  0  0  0  0  0  0  0  0  0
  -31.8252  -16.8741   21.3937 C   0  0  0  0  0  0  0  0  0  0  0  0
  -29.8337  -17.2701   20.7579 C   0  0  0  0  0  0  0  0  0  0  0  0
  -24.5104  -30.9074   24.3630 C   0  0  1  0  0  0  0  0  0  0  0  0
  -29.4705  -20.1445   24.4099 C   0  0  0  0  0  0  0  0  0  0  0  0
  -23.9051  -29.3402   20.9556 C   0  0  1  0  0  0  0  0  0  0  0  0
  -27.6215  -13.2718   19.8848 C   0  0  1  0  0  0  0  0  0  0  0  0
  -31.0435  -18.1582   21.0875 C   0  0  0  0  0  0  0  0  0  0  0  0
  -28.9278  -22.1143   19.1409 C   0  0  0  0  0  0  0  0  0  0  0  0
  -19.4725  -25.0695   16.2528 C   0  0  0  0  0  0  0  0  0  0  0  0
  -20.3083  -26.9200   22.5574 C   0  0  0  0  0  0  0  0  0  0  0  0
  -19.1842  -25.4277   20.8907 C   0  0  0  0  0  0  0  0  0  0  0  0
  -18.8562  -27.8977   20.7714 C   0  0  0  0  0  0  0  0  0  0  0  0
  -22.9670  -26.3790   15.5115 C   0  0  0  0  0  0  0  0  0  0  0  0
  -27.4216  -23.2977   21.3608 C   0  0  0  0  0  0  0  0  0  1  0  0
  -21.0824  -26.9089   20.0943 C   0  0  1  0  0  0  0  0  0  0  0  0
  -20.6877  -25.9635   16.4447 C   0  0  2  0  0  0  0  0  0  0  0  0
  -19.8861  -26.7894   21.0803 C   0  0  0  0  0  0  0  0  0  0  0  0
  -25.5039  -14.5266   20.0460 N   0  0  0  0  0  0  0  0  0  0  0  0
  -28.4722  -21.7024   22.8399 N   0  0  0  0  0  0  0  0  0  0  0  0
  -29.9121  -20.5697   20.7165 N   0  0  0  0  0  0  0  0  0  0  0  0
  -26.1841  -13.4092   20.3535 N   0  0  0  0  0  0  0  0  0  0  0  0
  -23.1820  -28.1188   20.5958 N   0  0  0  0  0  0  0  0  0  0  0  0
  -29.7098  -14.5161   19.3288 N   0  0  0  0  0  0  0  0  0  0  0  0
  -30.7661  -16.1572   20.6937 N   0  0  0  0  0  0  0  0  0  0  0  0
  -25.9936  -11.3289   21.4701 N   0  0  0  0  0  0  0  0  0  0  0  0
  -21.9247  -13.2002   22.0520 N   0  0  0  0  0  0  0  0  0  0  0  0
  -24.4466  -30.5993   22.9504 N   0  0  0  0  0  0  0  0  0  0  0  0
  -20.7085  -26.8160   18.6872 N   0  0  0  0  0  0  0  0  0  0  0  0
  -21.7250  -25.5662   15.4511 N   0  3  0  0  0  0  0  0  0  0  0  0
  -23.2111  -11.3593   22.5158 O   0  0  0  0  0  0  0  0  0  0  0  0
  -23.3259  -28.5642   23.1090 O   0  0  0  0  0  0  0  0  0  0  0  0
  -21.2301  -29.2760   20.0602 O   0  0  0  0  0  0  0  0  0  0  0  0
  -22.0531  -24.9944   18.1865 O   0  0  0  0  0  0  0  0  0  0  0  0
  -31.9672  -14.4594   19.7983 O   0  0  0  0  0  0  0  0  0  0  0  0
  -20.2877  -18.1774   20.1592 O   0  0  0  0  0  0  0  0  0  0  0  0
  -28.1694  -24.4926   21.1687 O   0  0  0  0  0  0  0  0  0  1  0  0
  -30.8802  -19.0711   22.1862 O   0  0  0  0  0  0  0  0  0  0  0  0
  -17.4054  -19.4065   24.6963 F   0  0  0  0  0  0  0  0  0  0  0  0
  -18.8228  -16.2386   21.4774 F   0  0  0  0  0  0  0  0  0  0  0  0
  1  2  1  0  0  0  0
  1  5  2  0  0  0  0
  2  6  2  0  0  0  0
  3  8  2  0  0  0  0
  3 15  1  0  0  0  0
  4  9  1  0  0  0  0
  4 15  2  0  0  0  0
  5 17  1  0  0  0  0
  6 19  1  0  0  0  0
  7 10  2  0  0  0  0
  7 18  1  0  0  0  0
  8 21  1  0  0  0  0
  9 21  2  0  0  0  0
 10 22  1  0  0  0  0
 11 12  2  0  0  0  0
 11 23  1  0  0  0  0
 12 24  1  0  0  0  0
 13 20  1  0  0  0  0
 13 22  2  0  0  0  0
 14 24  2  0  0  0  0
 14 25  1  0  0  0  0
 15 26  1  0  0  0  0
 16 26  1  0  0  0  0
 16 31  2  0  0  0  0
 16 32  1  0  0  0  0
 17 19  2  0  0  0  0
 17 37  1  0  0  0  0
 18 20  2  0  0  0  0
 18 38  1  0  0  0  0
 19 50  1  0  0  0  0
 20 39  1  0  0  0  0
 21 82  1  0  0  0  0
 22 83  1  0  0  0  0
 23 25  2  0  0  0  0
 23 82  1  0  0  0  0
 24 85  1  0  0  0  0
 25 86  1  0  0  0  0
 26 65  2  0  0  0  0
 27 30  1  0  0  0  0
 27 51  1  0  0  0  0
 27 66  2  0  0  0  0
 28 29  2  0  0  0  0
 28 55  1  0  0  0  0
 28 67  1  0  0  0  0
 29 61  1  0  0  0  0
 29 66  1  0  0  0  0
 30 67  2  0  0  0  0
 30 84  1  0  0  0  0
 31 68  1  0  0  0  0
 31 72  1  0  0  0  0
 32 73  1  0  0  0  0
 32 77  2  0  0  0  0
 33 52  1  0  0  0  0
 33 74  1  0  0  0  0
 33 78  2  0  0  0  0
 34 62  1  0  0  0  0
 34 69  1  0  0  0  0
 34 79  2  0  0  0  0
 35 63  1  0  0  0  0
 35 75  1  0  0  0  0
 35 80  2  0  0  0  0
 36 70  1  0  0  0  0
 36 71  1  0  0  0  0
 36 81  2  0  0  0  0
 37 40  1  0  0  0  0
 38 52  1  0  0  0  0
 39 69  1  0  0  0  0
 40 42  1  0  0  0  0
 41 45  1  0  0  0  0
 41 46  1  0  0  0  0
 42 50  1  0  0  0  0
 43 44  1  0  0  0  0
 43 51  1  0  0  0  0
 44 51  1  0  0  0  0
 45 53  1  0  0  0  0
 46 70  1  0  0  0  0
 47 53  1  0  0  0  0
 47 70  1  0  0  0  0
 48 54  1  0  0  0  0
 48 71  1  0  0  0  0
 49 54  1  0  0  0  0
 49 71  1  0  0  0  0
 50 74  1  0  0  0  0
 52 69  1  0  0  0  0
 53 68  1  0  0  0  0
 54 84  1  0  0  0  0
 56 63  1  0  0  0  0
 57 64  1  0  0  0  0
 58 64  1  0  0  0  0
 59 64  1  0  0  0  0
 60 76  1  0  0  0  0
 61 83  1  0  0  0  0
 62 64  1  0  0  0  0
 62 75  1  0  0  0  0
 63 76  1  0  0  0  0
 65 68  1  0  0  0  0
M  CHG  1  76   1
M  ISO  4  36 100  61 101  71 100  83 101
M  END
> <Batch ID>
0185

> <Smiles>
CNC(C)C(=O)NC(C(=O)N1Cc2cc([101O:1][101CH2:1]c3nc(C4CC4)c(OC4C[100N:0]([100C:0](=O)N5CCCC(n6nc(-c7ccc(Oc8ccc(F)cc8F)cc7)c(C(N)=O)c6N)C5)C4)nc3C)ccc2CC1C(=O)NC1CCCc2ccccc21)C(C)(C)C

> <Shape>
0.275

> <Color>
0.093

> <Negative vol penalty>
0.000

$$$$

  -OEChem-04052323123D

 80 88  0     1  0  0  0  0  0999 V2000
  -29.4333  -10.9715   16.1840 C   0  0  0  0  0  0  0  0  0  0  0  0
  -28.1256  -11.4405   16.1107 C   0  0  0  0  0  0  0  0  0  0  0  0
  -26.2651  -29.1182   21.2180 C   0  0  0  0  0  0  0  0  0  0  0  0
  -25.4009  -27.6317   19.5207 C   0  0  0  0  0  0  0  0  0  0  0  0
  -30.1879  -11.1912   17.3356 C   0  0  0  0  0  0  0  0  0  0  0  0
  -27.5713  -12.1285   17.1895 C   0  0  0  0  0  0  0  0  0  0  0  0
  -22.9381  -17.3872   18.6714 C   0  0  0  0  0  0  0  0  0  0  0  0
  -27.5183  -29.0879   20.6064 C   0  0  0  0  0  0  0  0  0  0  0  0
  -26.6542  -27.6015   18.9091 C   0  0  0  0  0  0  0  0  0  0  0  0
  -21.8133  -17.6427   19.4546 C   0  0  0  0  0  0  0  0  0  0  0  0
  -31.0384  -29.1151   19.6943 C   0  0  0  0  0  0  0  0  0  0  0  0
  -32.1568  -28.9514   20.5117 C   0  0  0  0  0  0  0  0  0  0  0  0
  -23.2375  -18.0326   21.3622 C   0  0  0  0  0  0  0  0  0  0  0  0
  -31.2884  -26.8299   21.2748 C   0  0  0  0  0  0  0  0  0  0  0  0
  -25.2064  -28.3900   20.6752 C   0  0  0  0  0  0  0  0  0  0  0  0
  -23.1007  -29.5493   21.5293 C   0  0  0  0  0  0  0  0  0  0  0  0
  -29.6458  -11.8907   18.4254 C   0  0  0  0  0  0  0  0  0  0  0  0
  -24.2226  -17.4419   19.2314 C   0  0  0  0  0  0  0  0  0  0  0  0
  -28.3189  -12.3566   18.3573 C   0  0  0  0  0  0  0  0  0  0  0  0
  -24.3771  -17.7799   20.5834 C   0  0  0  0  0  0  0  0  0  0  0  0
  -27.7129  -28.3296   19.4520 C   0  0  0  0  0  0  0  0  0  0  0  0
  -21.9627  -17.9626   20.8008 C   0  0  0  0  0  0  0  0  0  0  0  0
  -30.0450  -28.1363   19.6673 C   0  0  0  0  0  0  0  0  0  0  0  0
  -32.2818  -27.8088   21.3019 C   0  0  0  0  0  0  0  0  0  0  0  0
  -30.1700  -26.9937   20.4575 C   0  0  0  0  0  0  0  0  0  0  0  0
  -23.9117  -28.4204   21.3068 C   0  0  0  0  0  0  0  0  0  0  0  0
  -21.9840  -29.0519   22.1556 C   0  0  0  0  0  0  0  0  0  0  0  0
  -23.3356  -30.9247   21.1994 C   0  0  0  0  0  0  0  0  0  0  0  0
  -26.5787  -15.3494   19.6486 C   0  0  0  0  0  0  0  0  0  0  0  0
  -28.1961  -17.9658   20.6787 C   0  0  0  0  0  0  0  0  0  0  0  0
  -28.0785  -21.1117   21.9963 C   0  0  0  0  0  0  0  0  0  0  0  0
  -19.4626  -23.7147   22.0469 C   0  0  0  0  0  0  0  0  0  0  0  0
  -30.4843  -12.0625   19.6672 C   0  0  0  0  0  0  0  0  0  0  0  0
  -25.4273  -17.1899   18.3667 C   0  0  0  0  0  0  0  0  0  0  0  0
  -25.7354  -17.8717   21.2277 C   0  0  0  0  0  0  0  0  0  0  0  0
  -29.9485  -13.1269   20.6214 C   0  0  0  0  0  0  0  0  0  0  0  0
  -20.5694  -25.4778   25.0073 C   0  0  0  0  0  0  0  0  0  0  0  0
  -28.4458  -12.9574   20.8208 C   0  0  0  0  0  0  0  0  0  0  0  0
  -21.4813  -26.5464   24.4018 C   0  0  0  0  0  0  0  0  0  0  0  0
  -18.6541  -19.8221   22.5695 C   0  0  0  0  0  0  0  0  0  0  0  0
  -20.6936  -24.1552   24.2568 C   0  0  0  0  0  0  0  0  0  0  0  0
  -21.3469  -25.3188   22.1848 C   0  0  0  0  0  0  0  0  0  0  0  0
  -17.1165  -18.5098   21.2943 C   0  0  0  0  0  0  0  0  0  0  0  0
  -27.6908  -13.1288   19.4972 C   0  0  1  0  0  0  0  0  0  0  0  0
  -26.6579  -16.7697   19.1645 C   0  0  1  0  0  0  0  0  0  0  0  0
  -21.2505  -26.6863   22.8854 C   0  0  2  0  0  0  0  0  0  0  0  0
  -18.0950  -20.7586   21.5048 C   0  0  2  0  0  0  0  0  0  0  0  0
  -18.4933  -18.4258   21.9605 C   0  0  2  0  0  0  0  0  0  0  0  0
  -18.5219  -17.3408   23.0408 C   0  0  0  0  0  0  0  0  0  0  0  0
  -29.5643  -22.9831   22.7630 C   0  0  0  0  0  0  0  0  0  0  0  0
  -28.8240  -16.4178   23.2320 C   0  0  0  0  0  0  0  0  0  0  0  0
  -29.4539  -18.5880   24.3099 C   0  0  0  0  0  0  0  0  0  0  0  0
  -30.7306  -17.7629   22.3320 C   0  0  0  0  0  0  0  0  0  0  0  0
  -16.7546  -20.1890   19.4349 C   0  0  0  0  0  0  0  0  0  0  0  0
  -26.9631  -22.9759   19.9864 C   0  0  0  0  0  0  0  0  0  0  0  0
  -17.5959  -22.0800   22.0629 C   0  0  0  0  0  0  0  0  0  0  0  0
  -19.5936  -18.1279   20.9279 C   0  0  0  0  0  0  0  0  0  1  0  0
  -28.3849  -18.6500   22.0111 C   0  0  1  0  0  0  0  0  0  0  0  0
  -28.7811  -22.3973   21.5985 C   0  0  2  0  0  0  0  0  0  0  0  0
  -29.3225  -17.8511   22.9599 C   0  0  0  0  0  0  0  0  0  0  0  0
  -23.3575  -27.2909   21.7554 N   0  0  0  0  0  0  0  0  0  0  0  0
  -22.1864  -27.7076   22.2661 N   0  0  0  0  0  0  0  0  0  0  0  0
  -26.8822  -17.6104   20.3422 N   0  0  0  0  0  0  0  0  0  0  0  0
  -20.4441  -24.3543   22.8221 N   0  0  0  0  0  0  0  0  0  0  0  0
  -20.8587  -29.6376   22.6171 N   0  0  0  0  0  0  0  0  0  0  0  0
  -22.9069  -31.3948   19.9506 N   0  0  0  0  0  0  0  0  0  0  0  0
  -27.5780  -14.5311   19.1576 N   0  0  0  0  0  0  0  0  0  0  0  0
  -28.8463  -20.0017   21.7140 N   0  0  0  0  0  0  0  0  0  0  0  0
  -18.6536  -22.8109   22.7248 N   0  0  0  0  0  0  0  0  0  0  0  0
  -16.9395  -19.9714   20.9059 N   0  3  1  0  0  0  0  0  0  0  0  0
  -27.7879  -23.4107   21.1429 N   0  3  0  0  0  0  0  0  0  0  0  0
  -23.9234  -31.7093   21.9820 O   0  0  0  0  0  0  0  0  0  0  0  0
  -25.6785  -15.0208   20.4123 O   0  0  0  0  0  0  0  0  0  0  0  0
  -29.1772  -17.7609   19.9597 O   0  0  0  0  0  0  0  0  0  0  0  0
  -26.9620  -21.0942   22.5097 O   0  0  0  0  0  0  0  0  0  0  0  0
  -19.3144  -23.9366   20.8403 O   0  0  0  0  0  0  0  0  0  0  0  0
  -28.9356  -28.3000   18.8548 O   0  0  0  0  0  0  0  0  0  0  0  0
  -20.8664  -18.2118   21.5676 O   0  0  0  0  0  0  0  0  0  1  0  0
  -33.3566  -27.6509   22.0855 F   0  0  0  0  0  0  0  0  0  0  0  0
  -29.2194  -26.0494   20.4349 F   0  0  0  0  0  0  0  0  0  0  0  0
  1  2  1  0  0  0  0
  1  5  2  0  0  0  0
  2  6  2  0  0  0  0
  3  8  2  0  0  0  0
  3 15  1  0  0  0  0
  4  9  1  0  0  0  0
  4 15  2  0  0  0  0
  5 17  1  0  0  0  0
  6 19  1  0  0  0  0
  7 10  2  0  0  0  0
  7 18  1  0  0  0  0
  8 21  1  0  0  0  0
  9 21  2  0  0  0  0
 10 22  1  0  0  0  0
 11 12  2  0  0  0  0
 11 23  1  0  0  0  0
 12 24  1  0  0  0  0
 13 20  1  0  0  0  0
 13 22  2  0  0  0  0
 14 24  2  0  0  0  0
 14 25  1  0  0  0  0
 15 26  1  0  0  0  0
 16 26  1  0  0  0  0
 16 27  2  0  0  0  0
 16 28  1  0  0  0  0
 17 19  2  0  0  0  0
 17 33  1  0  0  0  0
 18 20  2  0  0  0  0
 18 34  1  0  0  0  0
 19 44  1  0  0  0  0
 20 35  1  0  0  0  0
 21 77  1  0  0  0  0
 22 78  1  0  0  0  0
 23 25  2  0  0  0  0
 23 77  1  0  0  0  0
 24 79  1  0  0  0  0
 25 80  1  0  0  0  0
 26 61  2  0  0  0  0
 27 62  1  0  0  0  0
 27 65  1  0  0  0  0
 28 66  1  0  0  0  0
 28 72  2  0  0  0  0
 29 45  1  0  0  0  0
 29 67  1  0  0  0  0
 29 73  2  0  0  0  0
 30 58  1  0  0  0  0
 30 63  1  0  0  0  0
 30 74  2  0  0  0  0
 31 59  1  0  0  0  0
 31 68  1  0  0  0  0
 31 75  2  0  0  0  0
 32 64  1  0  0  0  0
 32 69  1  0  0  0  0
 32 76  2  0  0  0  0
 33 36  1  0  0  0  0
 34 45  1  0  0  0  0
 35 63  1  0  0  0  0
 36 38  1  0  0  0  0
 37 39  1  0  0  0  0
 37 41  1  0  0  0  0
 38 44  1  0  0  0  0
 39 46  1  0  0  0  0
 40 47  1  0  0  0  0
 40 48  1  0  0  0  0
 41 64  1  0  0  0  0
 42 46  1  0  0  0  0
 42 64  1  0  0  0  0
 43 48  1  0  0  0  0
 43 70  1  0  0  0  0
 44 67  1  0  0  0  0
 45 63  1  0  0  0  0
 46 62  1  0  0  0  0
 47 56  1  0  0  0  0
 47 70  1  0  0  0  0
 48 49  1  0  0  0  0
 48 57  1  0  0  0  0
 50 59  1  0  0  0  0
 51 60  1  0  0  0  0
 52 60  1  0  0  0  0
 53 60  1  0  0  0  0
 54 70  1  0  0  0  0
 55 71  1  0  0  0  0
 56 69  1  0  0  0  0
 57 78  1  0  0  0  0
 58 60  1  0  0  0  0
 58 68  1  0  0  0  0
 59 71  1  0  0  0  0
 61 62  1  0  0  0  0
M  CHG  2  70   1  71   1
M  ISO  4  32 100  57 101  69 100  78 101
M  END
> <Batch ID>
0185

> <Smiles>
CNC(C)C(=O)NC(C(=O)N1Cc2cc([101O:1][101CH2:1]C3(C)CC(C[100NH:0][100C:0](=O)N4CCCC(n5nc(-c6ccc(Oc7ccc(F)cc7F)cc6)c(C(N)=O)c5N)C4)N(C)C3)ccc2CC1C(=O)NC1CCCc2ccccc21)C(C)(C)C

> <Shape>
0.216

> <Color>
0.070

> <Negative vol penalty>
0.000

$$$$

  -OEChem-04052323123D

 89 98  0     1  0  0  0  0  0999 V2000
  -34.5169  -21.8949   22.7133 C   0  0  0  0  0  0  0  0  0  0  0  0
  -34.0887  -21.5359   21.4393 C   0  0  0  0  0  0  0  0  0  0  0  0
  -22.6436  -10.2707   20.1999 C   0  0  0  0  0  0  0  0  0  0  0  0
  -24.2068   -9.5167   21.8806 C   0  0  0  0  0  0  0  0  0  0  0  0
  -33.6862  -22.6509   23.5394 C   0  0  0  0  0  0  0  0  0  0  0  0
  -32.8290  -21.9316   20.9910 C   0  0  0  0  0  0  0  0  0  0  0  0
  -32.9250  -23.7152   16.2524 C   0  0  0  0  0  0  0  0  0  0  0  0
  -21.8669   -9.1315   20.4111 C   0  0  0  0  0  0  0  0  0  0  0  0
  -23.4301   -8.3775   22.0919 C   0  0  0  0  0  0  0  0  0  0  0  0
  -32.9900  -22.7793   15.2210 C   0  0  0  0  0  0  0  0  0  0  0  0
  -19.6019   -8.0454   22.6745 C   0  0  0  0  0  0  0  0  0  0  0  0
  -18.2212   -8.2127   22.7804 C   0  0  0  0  0  0  0  0  0  0  0  0
  -30.6153  -23.0133   14.8672 C   0  0  0  0  0  0  0  0  0  0  0  0
  -17.8996   -6.7667   20.8718 C   0  0  0  0  0  0  0  0  0  0  0  0
  -31.7688  -19.2100   12.8747 C   0  0  0  0  0  0  0  0  0  0  0  0
  -23.8135  -10.4633   20.9346 C   0  0  0  0  0  0  0  0  0  0  0  0
  -24.2213  -12.9809   20.8795 C   0  0  0  0  0  0  0  0  0  0  0  0
  -32.4195  -23.0643   23.0974 C   0  0  0  0  0  0  0  0  0  0  0  0
  -31.7007  -24.3000   16.6067 C   0  0  0  0  0  0  0  0  0  0  0  0
  -31.9800  -22.6927   21.8125 C   0  0  0  0  0  0  0  0  0  0  0  0
  -30.5378  -23.9582   15.9017 C   0  0  0  0  0  0  0  0  0  0  0  0
  -22.2602   -8.1849   21.3571 C   0  0  0  0  0  0  0  0  0  0  0  0
  -31.8346  -22.4261   14.5302 C   0  0  0  0  0  0  0  0  0  0  0  0
  -20.1315   -7.2389   21.6671 C   0  0  0  0  0  0  0  0  0  0  0  0
  -17.3700   -7.5733   21.8791 C   0  0  0  0  0  0  0  0  0  0  0  0
  -19.2803   -6.5996   20.7658 C   0  0  0  0  0  0  0  0  0  0  0  0
  -24.6165  -11.6396   20.7165 C   0  0  0  0  0  0  0  0  0  0  0  0
  -31.3291  -18.5681   15.4285 C   0  0  0  0  0  0  0  0  0  0  0  0
  -31.3799  -17.5991   14.4506 C   0  0  0  0  0  0  0  0  0  0  0  0
  -31.7177  -20.1789   13.8526 C   0  0  0  0  0  0  0  0  0  1  0  0
  -25.3376  -13.7102   20.5501 C   0  0  0  0  0  0  0  0  0  0  0  0
  -22.9582  -13.5194   21.2919 C   0  0  0  0  0  0  0  0  0  0  0  0
  -29.9086  -24.3365   19.2318 C   0  0  0  0  0  0  0  0  0  0  0  0
  -28.1446  -26.4594   17.5278 C   0  0  0  0  0  0  0  0  0  0  0  0
  -26.9832  -26.7891   14.1278 C   0  0  0  0  0  0  0  0  0  0  0  0
  -30.7192  -14.6153   20.9576 C   0  0  0  0  0  0  0  0  0  0  0  0
  -31.5380  -23.8401   24.0439 C   0  0  0  0  0  0  0  0  0  0  0  0
  -31.6519  -25.3277   17.7039 C   0  0  0  0  0  0  0  0  0  0  0  0
  -29.2022  -24.5722   16.2298 C   0  0  0  0  0  0  0  0  0  0  0  0
  -30.3685  -24.5373   23.3536 C   0  0  0  0  0  0  0  0  0  0  0  0
  -29.6839  -12.2861   18.3885 C   0  0  0  0  0  0  0  0  0  0  0  0
  -29.6731  -23.5833   22.3876 C   0  0  0  0  0  0  0  0  0  0  0  0
  -28.2303  -12.0221   18.7852 C   0  0  0  0  0  0  0  0  0  0  0  0
  -34.0698  -15.4477   21.6060 C   0  0  0  0  0  0  0  0  0  0  0  0
  -30.5753  -12.4292   19.6186 C   0  0  0  0  0  0  0  0  0  0  0  0
  -28.6771  -13.2111   20.9821 C   0  0  0  0  0  0  0  0  0  0  0  0
  -34.9792  -16.6141   21.9626 C   0  0  0  0  0  0  0  0  0  0  0  0
  -34.1418  -17.9010   19.9825 C   0  0  0  0  0  0  0  0  0  0  0  0
  -30.6303  -23.1240   21.2811 C   0  0  1  0  0  0  0  0  0  0  0  0
  -30.2648  -25.4774   18.3212 C   0  0  1  0  0  0  0  0  0  0  0  0
  -27.7209  -13.0792   19.7828 C   0  0  2  0  0  0  0  0  0  0  0  0
  -32.8291  -15.9143   20.8365 C   0  0  1  0  0  0  0  0  0  0  0  0
  -33.2245  -16.7412   19.5984 C   0  0  1  0  0  0  0  0  0  0  0  0
  -26.4024  -28.8333   12.7931 C   0  0  0  0  0  0  0  0  0  0  0  0
  -25.2960  -25.9148   18.4759 C   0  0  0  0  0  0  0  0  0  0  0  0
  -24.4837  -26.6126   16.2129 C   0  0  0  0  0  0  0  0  0  0  0  0
  -25.6960  -28.2443   17.6587 C   0  0  0  0  0  0  0  0  0  0  0  0
  -28.8727  -26.0590   11.9701 C   0  0  0  0  0  0  0  0  0  0  0  0
  -31.0842  -18.2189   16.8566 C   0  0  0  0  0  0  0  0  0  0  0  0
  -32.3095  -17.6235   17.5620 C   0  0  0  0  0  0  0  0  0  0  0  0
  -31.1923  -16.1566   14.7753 C   0  0  0  0  0  0  0  0  0  0  0  0
  -26.9813  -26.3584   16.5709 C   0  0  1  0  0  0  0  0  0  0  0  0
  -27.4676  -27.7908   13.0951 C   0  0  2  0  0  0  0  0  0  0  0  0
  -25.6331  -26.7614   17.2323 C   0  0  0  0  0  0  0  0  0  0  0  0
  -31.6009  -17.9026   13.1561 N   0  0  0  0  0  0  0  0  0  0  0  0
  -25.8847  -11.5210   20.3146 N   0  0  0  0  0  0  0  0  0  0  0  0
  -31.4970  -19.8754   15.1470 N   0  0  0  0  0  0  0  0  0  0  0  0
  -26.2961  -12.7970   20.2222 N   0  0  0  0  0  0  0  0  0  0  0  0
  -29.2050  -25.5673   17.3147 N   0  0  0  0  0  0  0  0  0  0  0  0
  -30.0454  -13.4637   20.5182 N   0  0  0  0  0  0  0  0  0  0  0  0
  -25.5829  -15.0372   20.5118 N   0  0  0  0  0  0  0  0  0  0  0  0
  -22.7386  -13.7363   22.6591 N   0  0  0  0  0  0  0  0  0  0  0  0
  -30.7863  -24.1619   20.2847 N   0  0  0  0  0  0  0  0  0  0  0  0
  -27.3394  -27.1614   15.4068 N   0  0  0  0  0  0  0  0  0  0  0  0
  -32.0132  -14.7766   20.4778 N   0  0  0  0  0  0  0  0  0  0  0  0
  -32.0374  -17.2784   18.9316 N   0  0  0  0  0  0  0  0  0  0  0  0
  -35.3257  -17.3664   20.7213 N   0  3  0  0  0  0  0  0  0  0  0  0
  -27.8188  -27.0958   11.8244 N   0  3  0  0  0  0  0  0  0  0  0  0
  -22.0450  -13.7847   20.4739 O   0  0  0  0  0  0  0  0  0  0  0  0
  -28.9106  -23.6652   18.9973 O   0  0  0  0  0  0  0  0  0  0  0  0
  -28.1166  -27.3038   18.4267 O   0  0  0  0  0  0  0  0  0  0  0  0
  -26.3488  -25.7794   13.8301 O   0  0  0  0  0  0  0  0  0  0  0  0
  -30.2036  -15.4422   21.7176 O   0  0  0  0  0  0  0  0  0  0  0  0
  -21.5025   -7.0733   21.5637 O   0  0  0  0  0  0  0  0  0  0  0  0
  -31.8951  -21.5124   13.5235 O   0  0  0  0  0  0  0  0  0  1  0  0
  -16.0441   -7.7327   21.9820 F   0  0  0  0  0  0  0  0  0  0  0  0
  -19.7832   -5.8226   19.7966 F   0  0  0  0  0  0  0  0  0  0  0  0
  -31.2615  -15.3941   13.6522 F   0  0  0  0  0  0  0  0  0  0  0  0
  -29.9635  -15.9375   15.3135 F   0  0  0  0  0  0  0  0  0  0  0  0
  1  2  1  0  0  0  0
  1  5  2  0  0  0  0
  2  6  2  0  0  0  0
  3  8  2  0  0  0  0
  3 16  1  0  0  0  0
  4  9  1  0  0  0  0
  4 16  2  0  0  0  0
  5 18  1  0  0  0  0
  6 20  1  0  0  0  0
  7 10  2  0  0  0  0
  7 19  1  0  0  0  0
  8 22  1  0  0  0  0
  9 22  2  0  0  0  0
 10 23  1  0  0  0  0
 11 12  2  0  0  0  0
 11 24  1  0  0  0  0
 12 25  1  0  0  0  0
 13 21  1  0  0  0  0
 13 23  2  0  0  0  0
 14 25  2  0  0  0  0
 14 26  1  0  0  0  0
 15 30  1  0  0  0  0
 15 65  2  0  0  0  0
 16 27  1  0  0  0  0
 17 27  1  0  0  0  0
 17 31  2  0  0  0  0
 17 32  1  0  0  0  0
 18 20  2  0  0  0  0
 18 37  1  0  0  0  0
 19 21  2  0  0  0  0
 19 38  1  0  0  0  0
 20 49  1  0  0  0  0
 21 39  1  0  0  0  0
 22 84  1  0  0  0  0
 23 85  1  0  0  0  0
 24 26  2  0  0  0  0
 24 84  1  0  0  0  0
 25 86  1  0  0  0  0
 26 87  1  0  0  0  0
 27 66  2  0  0  0  0
 28 29  2  0  0  0  0
 28 59  1  0  0  0  0
 28 67  1  0  0  0  0
 29 61  1  0  0  0  0
 29 65  1  0  0  0  0
 30 67  2  0  0  0  0
 30 85  1  0  0  0  0
 31 68  1  0  0  0  0
 31 71  1  0  0  0  0
 32 72  1  0  0  0  0
 32 79  2  0  0  0  0
 33 50  1  0  0  0  0
 33 73  1  0  0  0  0
 33 80  2  0  0  0  0
 34 62  1  0  0  0  0
 34 69  1  0  0  0  0
 34 81  2  0  0  0  0
 35 63  1  0  0  0  0
 35 74  1  0  0  0  0
 35 82  2  0  0  0  0
 36 70  1  0  0  0  0
 36 75  1  0  0  0  0
 36 83  2  0  0  0  0
 37 40  1  0  0  0  0
 38 50  1  0  0  0  0
 39 69  1  0  0  0  0
 40 42  1  0  0  0  0
 41 43  1  0  0  0  0
 41 45  1  0  0  0  0
 42 49  1  0  0  0  0
 43 51  1  0  0  0  0
 44 47  1  0  0  0  0
 44 52  1  0  0  0  0
 45 70  1  0  0  0  0
 46 51  1  0  0  0  0
 46 70  1  0  0  0  0
 47 77  1  0  0  0  0
 48 53  1  0  0  0  0
 48 77  1  0  0  0  0
 49 73  1  0  0  0  0
 50 69  1  0  0  0  0
 51 68  1  0  0  0  0
 52 53  1  0  0  0  0
 52 75  1  0  0  0  0
 53 76  1  0  0  0  0
 54 63  1  0  0  0  0
 55 64  1  0  0  0  0
 56 64  1  0  0  0  0
 57 64  1  0  0  0  0
 58 78  1  0  0  0  0
 59 60  1  0  0  0  0
 60 76  1  0  0  0  0
 61 88  1  0  0  0  0
 61 89  1  0  0  0  0
 62 64  1  0  0  0  0
 62 74  1  0  0  0  0
 63 78  1  0  0  0  0
 66 68  1  0  0  0  0
M  CHG  2  77   1  78   1
M  ISO  4  30 101  36 100  75 100  85 101
M  END
> <Batch ID>
0185

> <Smiles>
CNC(C)C(=O)NC(C(=O)N1Cc2cc([101O:1][101c:1]3cnc(C(F)F)c(CCNC4CNCCC4[100NH:0][100C:0](=O)N4CCCC(n5nc(-c6ccc(Oc7ccc(F)cc7F)cc6)c(C(N)=O)c5N)C4)n3)ccc2CC1C(=O)NC1CCCc2ccccc21)C(C)(C)C

> <Shape>
0.182

> <Color>
0.150

> <Negative vol penalty>
0.000

$$$$

  -OEChem-04052323123D

 81 89  0     1  0  0  0  0  0999 V2000
  -27.1590  -10.9386   22.6737 C   0  0  0  0  0  0  0  0  0  0  0  0
  -27.9436  -12.0707   22.4784 C   0  0  0  0  0  0  0  0  0  0  0  0
  -23.2811  -28.9137   22.0922 C   0  0  0  0  0  0  0  0  0  0  0  0
  -23.0083  -29.5463   19.7765 C   0  0  0  0  0  0  0  0  0  0  0  0
  -25.9307  -10.8226   22.0244 C   0  0  0  0  0  0  0  0  0  0  0  0
  -27.5008  -13.0870   21.6326 C   0  0  0  0  0  0  0  0  0  0  0  0
  -28.4428  -19.1017   22.2972 C   0  0  0  0  0  0  0  0  0  0  0  0
  -21.9956  -29.3782   22.3706 C   0  0  0  0  0  0  0  0  0  0  0  0
  -21.7228  -30.0107   20.0549 C   0  0  0  0  0  0  0  0  0  0  0  0
  -29.3693  -19.9745   21.7283 C   0  0  0  0  0  0  0  0  0  0  0  0
  -18.8166  -28.2939   21.9815 C   0  0  0  0  0  0  0  0  0  0  0  0
  -17.9928  -27.4891   22.7682 C   0  0  0  0  0  0  0  0  0  0  0  0
  -27.7461  -20.5980   20.0562 C   0  0  0  0  0  0  0  0  0  0  0  0
  -17.8246  -29.2597   24.4034 C   0  0  0  0  0  0  0  0  0  0  0  0
  -23.7874  -28.9978   20.7952 C   0  0  0  0  0  0  0  0  0  0  0  0
  -25.4826  -27.2193   20.1088 C   0  0  0  0  0  0  0  0  0  0  0  0
  -25.4682  -11.8423   21.1777 C   0  0  0  0  0  0  0  0  0  0  0  0
  -27.1625  -18.9622   21.7424 C   0  0  0  0  0  0  0  0  0  0  0  0
  -26.2657  -12.9839   20.9702 C   0  0  0  0  0  0  0  0  0  0  0  0
  -26.8044  -19.7246   20.6215 C   0  0  0  0  0  0  0  0  0  0  0  0
  -21.2165  -29.9267   21.3519 C   0  0  0  0  0  0  0  0  0  0  0  0
  -29.0220  -20.7207   20.6060 C   0  0  0  0  0  0  0  0  0  0  0  0
  -19.1446  -29.5817   22.4057 C   0  0  0  0  0  0  0  0  0  0  0  0
  -17.4967  -27.9719   23.9792 C   0  0  0  0  0  0  0  0  0  0  0  0
  -18.6485  -30.0645   23.6166 C   0  0  0  0  0  0  0  0  0  0  0  0
  -25.1154  -28.5187   20.5072 C   0  0  0  0  0  0  0  0  0  0  0  0
  -26.8471  -27.2776   19.9631 C   0  0  0  0  0  0  0  0  0  0  0  0
  -30.9535  -24.4599   18.4722 C   0  0  0  0  0  0  0  0  0  0  0  0
  -31.9423  -25.5591   18.6243 C   0  0  0  0  0  0  0  0  0  0  0  0
  -30.4015  -23.8364   19.5150 C   0  0  0  0  0  0  0  0  0  0  0  0
  -24.6635  -26.0631   19.8899 C   0  0  0  0  0  0  0  0  0  0  0  0
  -25.5330  -16.5659   20.4361 C   0  0  0  0  0  0  0  0  0  0  0  0
  -23.1165  -18.7300   20.4258 C   0  0  0  0  0  0  0  0  0  0  0  0
  -22.1613  -22.0063   20.4380 C   0  0  0  0  0  0  0  0  0  0  0  0
  -31.4406  -29.8709   18.1413 C   0  0  0  0  0  0  0  0  0  0  0  0
  -24.1553  -11.6508   20.4606 C   0  0  0  0  0  0  0  0  0  0  0  0
  -26.1658  -18.0362   22.3839 C   0  0  0  0  0  0  0  0  0  0  0  0
  -25.4360  -19.6265   19.9999 C   0  0  0  0  0  0  0  0  0  0  0  0
  -30.6871  -24.2189   17.0208 C   0  0  0  0  0  0  0  0  0  0  0  0
  -23.5878  -12.9407   19.8739 C   0  0  0  0  0  0  0  0  0  0  0  0
  -30.1516  -30.8632   21.3084 C   0  0  0  0  0  0  0  0  0  0  0  0
  -24.6740  -13.7126   19.1314 C   0  0  0  0  0  0  0  0  0  0  0  0
  -28.7552  -30.2399   21.3465 C   0  0  0  0  0  0  0  0  0  0  0  0
  -31.2759  -25.4514   16.3508 C   0  0  0  0  0  0  0  0  0  0  0  0
  -30.5170  -31.3440   19.9058 C   0  0  0  0  0  0  0  0  0  0  0  0
  -28.9884  -29.7017   18.8859 C   0  0  0  0  0  0  0  0  0  0  0  0
  -25.8084  -14.1189   20.0798 C   0  0  1  0  0  0  0  0  0  0  0  0
  -25.0626  -17.5913   21.4286 C   0  0  1  0  0  0  0  0  0  0  0  0
  -28.5974  -29.1512   20.2680 C   0  0  2  0  0  0  0  0  0  0  0  0
  -20.1184  -23.4628   20.3875 C   0  0  0  0  0  0  0  0  0  0  0  0
  -22.7892  -18.1635   17.4456 C   0  0  0  0  0  0  0  0  0  0  0  0
  -21.4422  -20.2661   17.2649 C   0  0  0  0  0  0  0  0  0  0  0  0
  -20.6413  -18.3939   18.7057 C   0  0  0  0  0  0  0  0  0  0  0  0
  -22.8111  -23.2078   23.0634 C   0  0  0  0  0  0  0  0  0  0  0  0
  -29.4066  -22.7302   19.3935 C   0  0  0  0  0  0  0  0  0  1  0  0
  -32.9953  -27.1740   17.0097 C   0  0  0  0  0  0  0  0  0  0  0  0
  -32.2226  -28.3167   16.3715 C   0  0  0  0  0  0  0  0  0  0  0  0
  -22.6216  -19.7753   19.4556 C   0  0  1  0  0  0  0  0  0  0  0  0
  -21.1338  -22.7529   21.2694 C   0  0  2  0  0  0  0  0  0  0  0  0
  -21.9001  -19.1503   18.2282 C   0  0  0  0  0  0  0  0  0  0  0  0
  -26.1622  -29.3421   20.6083 N   0  0  0  0  0  0  0  0  0  0  0  0
  -27.2005  -28.5583   20.2714 N   0  0  0  0  0  0  0  0  0  0  0  0
  -32.1405  -26.0543   17.3432 N   0  0  0  0  0  0  0  0  0  0  0  0
  -24.4987  -18.7026   20.6597 N   0  0  0  0  0  0  0  0  0  0  0  0
  -30.3474  -30.2639   18.9308 N   0  0  0  0  0  0  0  0  0  0  0  0
  -27.7670  -26.3577   19.6027 N   0  0  0  0  0  0  0  0  0  0  0  0
  -23.2803  -26.1776   20.0849 N   0  0  0  0  0  0  0  0  0  0  0  0
  -25.4160  -15.2615   20.8767 N   0  0  0  0  0  0  0  0  0  0  0  0
  -21.7946  -20.6933   20.2313 N   0  0  0  0  0  0  0  0  0  0  0  0
  -31.1958  -28.8358   17.2472 N   0  0  0  0  0  0  0  0  0  0  0  0
  -21.8030  -23.7703   22.1284 N   0  3  0  0  0  0  0  0  0  0  0  0
  -32.4494  -25.9158   19.6741 O   0  0  0  0  0  0  0  0  0  0  0  0
  -25.1457  -24.9568   19.5479 O   0  0  0  0  0  0  0  0  0  0  0  0
  -25.9683  -16.9312   19.3504 O   0  0  0  0  0  0  0  0  0  0  0  0
  -22.3058  -17.9705   20.9621 O   0  0  0  0  0  0  0  0  0  0  0  0
  -23.1850  -22.5360   20.0112 O   0  0  0  0  0  0  0  0  0  0  0  0
  -32.5540  -30.3996   18.2305 O   0  0  0  0  0  0  0  0  0  0  0  0
  -19.9620  -30.3798   21.6231 O   0  0  0  0  0  0  0  0  0  0  0  0
  -29.9246  -21.5729   20.0483 O   0  0  0  0  0  0  0  0  0  1  0  0
  -16.7043  -27.1995   24.7339 F   0  0  0  0  0  0  0  0  0  0  0  0
  -18.9591  -31.3012   24.0289 F   0  0  0  0  0  0  0  0  0  0  0  0
  1  2  1  0  0  0  0
  1  5  2  0  0  0  0
  2  6  2  0  0  0  0
  3  8  2  0  0  0  0
  3 15  1  0  0  0  0
  4  9  1  0  0  0  0
  4 15  2  0  0  0  0
  5 17  1  0  0  0  0
  6 19  1  0  0  0  0
  7 10  2  0  0  0  0
  7 18  1  0  0  0  0
  8 21  1  0  0  0  0
  9 21  2  0  0  0  0
 10 22  1  0  0  0  0
 11 12  2  0  0  0  0
 11 23  1  0  0  0  0
 12 24  1  0  0  0  0
 13 20  1  0  0  0  0
 13 22  2  0  0  0  0
 14 24  2  0  0  0  0
 14 25  1  0  0  0  0
 15 26  1  0  0  0  0
 16 26  1  0  0  0  0
 16 27  2  0  0  0  0
 16 31  1  0  0  0  0
 17 19  2  0  0  0  0
 17 36  1  0  0  0  0
 18 20  2  0  0  0  0
 18 37  1  0  0  0  0
 19 47  1  0  0  0  0
 20 38  1  0  0  0  0
 21 78  1  0  0  0  0
 22 79  1  0  0  0  0
 23 25  2  0  0  0  0
 23 78  1  0  0  0  0
 24 80  1  0  0  0  0
 25 81  1  0  0  0  0
 26 61  2  0  0  0  0
 27 62  1  0  0  0  0
 27 66  1  0  0  0  0
 28 29  1  0  0  0  0
 28 30  2  0  0  0  0
 28 39  1  0  0  0  0
 29 63  1  0  0  0  0
 29 72  2  0  0  0  0
 30 55  1  0  0  0  0
 31 67  1  0  0  0  0
 31 73  2  0  0  0  0
 32 48  1  0  0  0  0
 32 68  1  0  0  0  0
 32 74  2  0  0  0  0
 33 58  1  0  0  0  0
 33 64  1  0  0  0  0
 33 75  2  0  0  0  0
 34 59  1  0  0  0  0
 34 69  1  0  0  0  0
 34 76  2  0  0  0  0
 35 65  1  0  0  0  0
 35 70  1  0  0  0  0
 35 77  2  0  0  0  0
 36 40  1  0  0  0  0
 37 48  1  0  0  0  0
 38 64  1  0  0  0  0
 39 44  1  0  0  0  0
 40 42  1  0  0  0  0
 41 43  1  0  0  0  0
 41 45  1  0  0  0  0
 42 47  1  0  0  0  0
 43 49  1  0  0  0  0
 44 63  1  0  0  0  0
 45 65  1  0  0  0  0
 46 49  1  0  0  0  0
 46 65  1  0  0  0  0
 47 68  1  0  0  0  0
 48 64  1  0  0  0  0
 49 62  1  0  0  0  0
 50 59  1  0  0  0  0
 51 60  1  0  0  0  0
 52 60  1  0  0  0  0
 53 60  1  0  0  0  0
 54 71  1  0  0  0  0
 55 79  1  0  0  0  0
 56 57  1  0  0  0  0
 56 63  1  0  0  0  0
 57 70  1  0  0  0  0
 58 60  1  0  0  0  0
 58 69  1  0  0  0  0
 59 71  1  0  0  0  0
 61 62  1  0  0  0  0
M  CHG  1  71   1
M  ISO  4  35 100  55 101  70 100  79 101
M  END
> <Batch ID>
0185

> <Smiles>
CNC(C)C(=O)NC(C(=O)N1Cc2cc([101O:1][101CH2:1]C=C3CCN(CC[100NH:0][100C:0](=O)N4CCCC(n5nc(-c6ccc(Oc7ccc(F)cc7F)cc6)c(C(N)=O)c5N)C4)C3=O)ccc2CC1C(=O)NC1CCCc2ccccc21)C(C)(C)C

> <Shape>
0.212

> <Color>
0.075

> <Negative vol penalty>
0.000

$$$$

  -OEChem-04052323123D

 87 96  0     1  0  0  0  0  0999 V2000
  -26.3020  -19.4881   26.1387 C   0  0  0  0  0  0  0  0  0  0  0  0
  -26.6939  -20.6831   25.5460 C   0  0  0  0  0  0  0  0  0  0  0  0
  -23.5279  -11.4197   22.2871 C   0  0  0  0  0  0  0  0  0  0  0  0
  -22.3240  -12.2108   20.3475 C   0  0  0  0  0  0  0  0  0  0  0  0
  -24.9644  -19.1004   26.0985 C   0  0  0  0  0  0  0  0  0  0  0  0
  -25.7465  -21.4965   24.9232 C   0  0  0  0  0  0  0  0  0  0  0  0
  -27.2674  -25.9073   23.3628 C   0  0  0  0  0  0  0  0  0  0  0  0
  -22.4071  -10.6915   22.6858 C   0  0  0  0  0  0  0  0  0  0  0  0
  -21.2032  -11.4825   20.7463 C   0  0  0  0  0  0  0  0  0  0  0  0
  -28.1025  -26.0692   22.2582 C   0  0  0  0  0  0  0  0  0  0  0  0
  -19.9816   -8.3373   24.0237 C   0  0  0  0  0  0  0  0  0  0  0  0
  -20.1800   -7.0256   24.4546 C   0  0  0  0  0  0  0  0  0  0  0  0
  -26.2103  -26.7744   20.9386 C   0  0  0  0  0  0  0  0  0  0  0  0
  -31.4762  -23.8202   19.2747 C   0  0  0  0  0  0  0  0  0  0  0  0
  -21.1111   -6.4582   22.2986 C   0  0  0  0  0  0  0  0  0  0  0  0
  -23.4864  -12.1794   21.1179 C   0  0  0  0  0  0  0  0  0  0  0  0
  -25.6922  -12.4929   19.8755 C   0  0  0  0  0  0  0  0  0  0  0  0
  -24.0029  -19.9039   25.4639 C   0  0  0  0  0  0  0  0  0  0  0  0
  -25.8933  -26.1677   23.2605 C   0  0  0  0  0  0  0  0  0  0  0  0
  -24.3877  -21.1341   24.8930 C   0  0  0  0  0  0  0  0  0  0  0  0
  -25.3603  -26.6175   22.0440 C   0  0  0  0  0  0  0  0  0  0  0  0
  -30.7527  -24.8749   18.7560 C   0  0  0  0  0  0  0  0  0  0  0  0
  -29.4963  -24.6671   18.1869 C   0  0  0  0  0  0  0  0  0  0  0  0
  -21.2447  -10.7229   21.9154 C   0  0  0  0  0  0  0  0  0  0  0  0
  -27.5736  -26.5001   21.0451 C   0  0  0  0  0  0  0  0  0  0  0  0
  -20.3478   -8.7094   22.7302 C   0  0  0  0  0  0  0  0  0  0  0  0
  -20.7448   -6.0861   23.5921 C   0  0  0  0  0  0  0  0  0  0  0  0
  -20.9126   -7.7699   21.8677 C   0  0  0  0  0  0  0  0  0  0  0  0
  -24.6437  -12.9323   20.7058 C   0  0  0  0  0  0  0  0  0  0  0  0
  -30.8889  -22.5671   19.1777 C   0  0  0  0  0  0  0  0  0  0  0  0
  -28.9912  -23.3881   18.1400 C   0  0  0  0  0  0  0  0  0  0  0  0
  -26.5376  -13.5720   19.7899 C   0  0  0  0  0  0  0  0  0  0  0  0
  -25.8848  -11.2229   19.2386 C   0  0  0  0  0  0  0  0  0  0  0  0
  -23.2506  -24.4335   23.5956 C   0  0  0  0  0  0  0  0  0  0  0  0
  -21.7866  -27.3039   23.2211 C   0  0  0  0  0  0  0  0  0  0  0  0
  -21.9285  -30.4930   22.0144 C   0  0  0  0  0  0  0  0  0  0  0  0
  -29.3428  -17.5677   22.3428 C   0  0  0  0  0  0  0  0  0  0  0  0
  -22.5677  -19.4398   25.4566 C   0  0  0  0  0  0  0  0  0  0  0  0
  -25.0104  -26.0138   24.4684 C   0  0  0  0  0  0  0  0  0  0  0  0
  -31.1072  -26.3272   18.7503 C   0  0  0  0  0  0  0  0  0  0  0  0
  -23.8953  -26.9301   21.8874 C   0  0  0  0  0  0  0  0  0  0  0  0
  -21.7217  -20.1403   24.3983 C   0  0  0  0  0  0  0  0  0  0  0  0
  -30.1233  -26.8702   17.7000 C   0  0  0  0  0  0  0  0  0  0  0  0
  -25.9258  -18.3708   21.2060 C   0  0  0  0  0  0  0  0  0  0  0  0
  -21.9232  -21.6458   24.4847 C   0  0  0  0  0  0  0  0  0  0  0  0
  -25.3631  -16.9743   20.9588 C   0  0  0  0  0  0  0  0  0  0  0  0
  -26.9132  -18.3932   22.3721 C   0  0  0  0  0  0  0  0  0  0  0  0
  -27.4569  -16.0059   21.9850 C   0  0  0  0  0  0  0  0  0  0  0  0
  -28.8816  -25.9513   17.7226 C   0  0  2  0  0  0  0  0  0  0  0  0
  -23.3799  -22.0201   24.1833 C   0  0  1  0  0  0  0  0  0  0  0  0
  -23.5404  -25.8143   24.1126 C   0  0  1  0  0  0  0  0  0  0  0  0
  -26.4990  -15.9546   20.7849 C   0  0  1  0  0  0  0  0  0  0  0  0
  -26.7090  -22.4119   18.4904 C   0  0  0  0  0  0  0  0  0  0  0  0
  -20.5642  -32.5908   21.8270 C   0  0  0  0  0  0  0  0  0  0  0  0
  -20.1470  -26.0346   20.9826 C   0  0  0  0  0  0  0  0  0  0  0  0
  -19.5256  -28.3389   20.2258 C   0  0  0  0  0  0  0  0  0  0  0  0
  -18.8523  -27.5490   22.4942 C   0  0  0  0  0  0  0  0  0  0  0  0
  -23.8940  -32.0501   23.5865 C   0  0  0  0  0  0  0  0  0  0  0  0
  -27.6758  -23.0806   17.5151 C   0  0  0  0  0  0  0  0  0  0  0  0
  -31.6254  -21.3793   19.7035 C   0  0  0  0  0  0  0  0  0  0  0  0
  -27.8051  -26.4499   18.6787 C   0  0  0  0  0  0  0  0  0  1  0  0
  -31.1260  -19.2206   22.8117 C   0  0  0  0  0  0  0  0  0  0  0  0
  -31.7664  -19.6573   21.5073 C   0  0  0  0  0  0  0  0  0  0  0  0
  -21.2784  -28.0991   22.0428 C   0  0  1  0  0  0  0  0  0  0  0  0
  -21.5881  -31.8276   22.6527 C   0  0  2  0  0  0  0  0  0  0  0  0
  -19.9781  -27.4977   21.4384 C   0  0  0  0  0  0  0  0  0  0  0  0
  -24.8061  -14.1922   21.1183 N   0  0  0  0  0  0  0  0  0  0  0  0
  -29.6700  -22.3230   18.6246 N   0  0  0  0  0  0  0  0  0  0  0  0
  -25.9665  -14.5538   20.5450 N   0  0  0  0  0  0  0  0  0  0  0  0
  -23.0719  -26.7580   23.0956 N   0  0  0  0  0  0  0  0  0  0  0  0
  -27.9562  -17.3668   22.2178 N   0  0  0  0  0  0  0  0  0  0  0  0
  -27.7064  -13.7674   19.1432 N   0  0  0  0  0  0  0  0  0  0  0  0
  -24.9195  -10.2253   19.4318 N   0  0  0  0  0  0  0  0  0  0  0  0
  -23.5779  -23.4221   24.4784 N   0  0  0  0  0  0  0  0  0  0  0  0
  -21.1403  -29.4750   22.5079 N   0  0  0  0  0  0  0  0  0  0  0  0
  -29.7421  -18.8643   22.6468 N   0  0  0  0  0  0  0  0  0  0  0  0
  -22.8118  -32.6688   22.7785 N   0  3  0  0  0  0  0  0  0  0  0  0
  -31.0838  -20.8740   20.9945 N   0  3  0  0  0  0  0  0  0  0  0  0
  -26.8915  -10.9745   18.5327 O   0  0  0  0  0  0  0  0  0  0  0  0
  -22.7645  -24.2961   22.4791 O   0  0  0  0  0  0  0  0  0  0  0  0
  -21.0723  -27.1779   24.2189 O   0  0  0  0  0  0  0  0  0  0  0  0
  -22.8035  -30.3670   21.1605 O   0  0  0  0  0  0  0  0  0  0  0  0
  -30.1669  -16.6577   22.2000 O   0  0  0  0  0  0  0  0  0  0  0  0
  -20.1509  -10.0123   22.3041 O   0  0  0  0  0  0  0  0  0  0  0  0
  -28.3864  -26.6583   19.9652 O   0  0  0  0  0  0  0  0  0  1  0  0
  -20.9367   -4.8269   24.0066 F   0  0  0  0  0  0  0  0  0  0  0  0
  -21.2675   -8.1217   20.6243 F   0  0  0  0  0  0  0  0  0  0  0  0
  1  2  1  0  0  0  0
  1  5  2  0  0  0  0
  2  6  2  0  0  0  0
  3  8  2  0  0  0  0
  3 16  1  0  0  0  0
  4  9  1  0  0  0  0
  4 16  2  0  0  0  0
  5 18  1  0  0  0  0
  6 20  1  0  0  0  0
  7 10  2  0  0  0  0
  7 19  1  0  0  0  0
  8 24  1  0  0  0  0
  9 24  2  0  0  0  0
 10 25  1  0  0  0  0
 11 12  2  0  0  0  0
 11 26  1  0  0  0  0
 12 27  1  0  0  0  0
 13 21  1  0  0  0  0
 13 25  2  0  0  0  0
 14 22  2  0  0  0  0
 14 30  1  0  0  0  0
 15 27  2  0  0  0  0
 15 28  1  0  0  0  0
 16 29  1  0  0  0  0
 17 29  1  0  0  0  0
 17 32  2  0  0  0  0
 17 33  1  0  0  0  0
 18 20  2  0  0  0  0
 18 38  1  0  0  0  0
 19 21  2  0  0  0  0
 19 39  1  0  0  0  0
 20 50  1  0  0  0  0
 21 41  1  0  0  0  0
 22 23  1  0  0  0  0
 22 40  1  0  0  0  0
 23 31  2  0  0  0  0
 23 49  1  0  0  0  0
 24 84  1  0  0  0  0
 25 85  1  0  0  0  0
 26 28  2  0  0  0  0
 26 84  1  0  0  0  0
 27 86  1  0  0  0  0
 28 87  1  0  0  0  0
 29 67  2  0  0  0  0
 30 60  1  0  0  0  0
 30 68  2  0  0  0  0
 31 59  1  0  0  0  0
 31 68  1  0  0  0  0
 32 69  1  0  0  0  0
 32 72  1  0  0  0  0
 33 73  1  0  0  0  0
 33 79  2  0  0  0  0
 34 51  1  0  0  0  0
 34 74  1  0  0  0  0
 34 80  2  0  0  0  0
 35 64  1  0  0  0  0
 35 70  1  0  0  0  0
 35 81  2  0  0  0  0
 36 65  1  0  0  0  0
 36 75  1  0  0  0  0
 36 82  2  0  0  0  0
 37 71  1  0  0  0  0
 37 76  1  0  0  0  0
 37 83  2  0  0  0  0
 38 42  1  0  0  0  0
 39 51  1  0  0  0  0
 40 43  1  0  0  0  0
 41 70  1  0  0  0  0
 42 45  1  0  0  0  0
 43 49  1  0  0  0  0
 44 46  1  0  0  0  0
 44 47  1  0  0  0  0
 45 50  1  0  0  0  0
 46 52  1  0  0  0  0
 47 71  1  0  0  0  0
 48 52  1  0  0  0  0
 48 71  1  0  0  0  0
 49 61  1  0  0  0  0
 50 74  1  0  0  0  0
 51 70  1  0  0  0  0
 52 69  1  0  0  0  0
 53 59  1  0  0  0  0
 54 65  1  0  0  0  0
 55 66  1  0  0  0  0
 56 66  1  0  0  0  0
 57 66  1  0  0  0  0
 58 77  1  0  0  0  0
 60 78  1  0  0  0  0
 61 85  1  0  0  0  0
 62 63  1  0  0  0  0
 62 76  1  0  0  0  0
 63 78  1  0  0  0  0
 64 66  1  0  0  0  0
 64 75  1  0  0  0  0
 65 77  1  0  0  0  0
 67 69  1  0  0  0  0
M  CHG  2  77   1  78   1
M  ISO  4  37 100  61 101  76 100  85 101
M  END
> <Batch ID>
0185

> <Smiles>
CCc1nc(CNCC[100NH:0][100C:0](=O)N2CCCC(n3nc(-c4ccc(Oc5ccc(F)cc5F)cc4)c(C(N)=O)c3N)C2)cc2c1C([101CH2:1][101O:1]c1ccc3c(c1)CN(C(=O)C(NC(=O)C(C)NC)C(C)(C)C)C(C(=O)NC1CCCc4ccccc41)C3)CC2

> <Shape>
0.231

> <Color>
0.050

> <Negative vol penalty>
0.000

$$$$

  -OEChem-04052323123D

 82 91  0     1  0  0  0  0  0999 V2000
  -25.7670  -23.5155   17.4128 C   0  0  0  0  0  0  0  0  0  0  0  0
  -24.9180  -24.5840   17.6781 C   0  0  0  0  0  0  0  0  0  0  0  0
  -24.2353  -14.3047   19.8265 C   0  0  0  0  0  0  0  0  0  0  0  0
  -25.2999  -13.9315   21.9629 C   0  0  0  0  0  0  0  0  0  0  0  0
  -26.8467  -23.2621   18.2561 C   0  0  0  0  0  0  0  0  0  0  0  0
  -25.1552  -25.4065   18.7799 C   0  0  0  0  0  0  0  0  0  0  0  0
  -22.3432  -29.4193   19.2199 C   0  0  0  0  0  0  0  0  0  0  0  0
  -25.0609  -13.3414   19.2468 C   0  0  0  0  0  0  0  0  0  0  0  0
  -26.1256  -12.9682   21.3833 C   0  0  0  0  0  0  0  0  0  0  0  0
  -20.9973  -29.3608   19.5791 C   0  0  0  0  0  0  0  0  0  0  0  0
  -28.7588  -10.6682   20.3904 C   0  0  0  0  0  0  0  0  0  0  0  0
  -30.1164  -10.7014   20.7088 C   0  0  0  0  0  0  0  0  0  0  0  0
  -21.5668  -30.0867   21.8080 C   0  0  0  0  0  0  0  0  0  0  0  0
  -30.2760  -12.9326   19.7958 C   0  0  0  0  0  0  0  0  0  0  0  0
  -17.4876  -28.3323   22.1103 C   0  0  0  0  0  0  0  0  0  0  0  0
  -24.3548  -14.5998   21.1846 C   0  0  0  0  0  0  0  0  0  0  0  0
  -22.2422  -15.3899   22.3763 C   0  0  0  0  0  0  0  0  0  0  0  0
  -27.0893  -24.0749   19.3757 C   0  0  0  0  0  0  0  0  0  0  0  0
  -23.3139  -29.8020   20.1568 C   0  0  0  0  0  0  0  0  0  0  0  0
  -26.2535  -25.1815   19.6294 C   0  0  0  0  0  0  0  0  0  0  0  0
  -22.9240  -30.1517   21.4575 C   0  0  0  0  0  0  0  0  0  0  0  0
  -26.0060  -12.6732   20.0252 C   0  0  0  0  0  0  0  0  0  0  0  0
  -20.6093  -29.6918   20.8741 C   0  0  0  0  0  0  0  0  0  0  0  0
  -28.1598  -11.7672   19.7746 C   0  0  0  0  0  0  0  0  0  0  0  0
  -30.8750  -11.8336   20.4115 C   0  0  0  0  0  0  0  0  0  0  0  0
  -28.9183  -12.8994   19.4774 C   0  0  0  0  0  0  0  0  0  0  0  0
  -23.5026  -15.5951   21.7839 C   0  0  0  0  0  0  0  0  0  0  0  0
  -17.8588  -26.1588   22.7178 C   0  0  0  0  0  0  0  0  0  0  0  0
  -19.1787  -26.2791   22.3421 C   0  0  0  0  0  0  0  0  0  0  0  0
  -18.8074  -28.4525   21.7344 C   0  0  0  0  0  0  0  0  0  1  0  0
  -21.8501  -16.6393   22.7909 C   0  0  0  0  0  0  0  0  0  0  0  0
  -21.4929  -14.1782   22.5376 C   0  0  0  0  0  0  0  0  0  0  0  0
  -25.8473  -28.3960   21.4638 C   0  0  0  0  0  0  0  0  0  0  0  0
  -26.3212  -31.3318   22.7594 C   0  0  0  0  0  0  0  0  0  0  0  0
  -24.9883  -34.3198   23.7298 C   0  0  0  0  0  0  0  0  0  0  0  0
  -21.1691  -21.9675   21.7021 C   0  0  0  0  0  0  0  0  0  0  0  0
  -28.2769  -23.7600   20.2507 C   0  0  0  0  0  0  0  0  0  0  0  0
  -24.7584  -29.8858   19.7461 C   0  0  0  0  0  0  0  0  0  0  0  0
  -23.9248  -30.5885   22.4949 C   0  0  0  0  0  0  0  0  0  0  0  0
  -28.1885  -24.4079   21.6287 C   0  0  0  0  0  0  0  0  0  0  0  0
  -24.4014  -20.9697   23.1150 C   0  0  0  0  0  0  0  0  0  0  0  0
  -27.8516  -25.8848   21.4880 C   0  0  0  0  0  0  0  0  0  0  0  0
  -24.3695  -19.4628   22.8829 C   0  0  0  0  0  0  0  0  0  0  0  0
  -20.8901  -24.8405   19.9852 C   0  0  0  0  0  0  0  0  0  0  0  0
  -23.6927  -21.7445   22.0034 C   0  0  0  0  0  0  0  0  0  0  0  0
  -22.1167  -24.0058   20.3660 C   0  0  0  0  0  0  0  0  0  0  0  0
  -22.2754  -19.7675   21.5170 C   0  0  0  0  0  0  0  0  0  0  0  0
  -26.4741  -26.0713   20.8393 C   0  0  1  0  0  0  0  0  0  0  0  0
  -25.7214  -29.7932   20.9257 C   0  0  1  0  0  0  0  0  0  0  0  0
  -22.9270  -18.9828   22.6643 C   0  0  1  0  0  0  0  0  0  0  0  0
  -20.1720  -24.2701   21.2178 C   0  0  2  0  0  0  0  0  0  0  0  0
  -17.3205  -24.8822   23.2676 C   0  0  0  0  0  0  0  0  0  0  0  0
  -25.6167  -36.5056   24.7904 C   0  0  0  0  0  0  0  0  0  0  0  0
  -26.4413  -29.9707   25.4876 C   0  0  0  0  0  0  0  0  0  0  0  0
  -26.1131  -32.2164   26.5447 C   0  0  0  0  0  0  0  0  0  0  0  0
  -28.1341  -31.7802   25.1491 C   0  0  0  0  0  0  0  0  0  0  0  0
  -24.1659  -35.8512   21.3345 C   0  0  0  0  0  0  0  0  0  0  0  0
  -20.1410  -25.1249   22.4694 C   0  0  0  0  0  0  0  0  0  0  0  0
  -25.8819  -32.0247   24.0266 C   0  0  1  0  0  0  0  0  0  0  0  0
  -25.4350  -35.7496   23.4834 C   0  0  2  0  0  0  0  0  0  0  0  0
  -26.6237  -31.4880   25.2832 C   0  0  0  0  0  0  0  0  0  0  0  0
  -16.9895  -27.1831   22.6086 N   0  0  0  0  0  0  0  0  0  0  0  0
  -23.8858  -16.8743   21.8169 N   0  0  0  0  0  0  0  0  0  0  0  0
  -19.6767  -27.4281   21.8436 N   0  0  0  0  0  0  0  0  0  0  0  0
  -22.8600  -17.4840   22.4351 N   0  0  0  0  0  0  0  0  0  0  0  0
  -25.3259  -30.6484   22.0467 N   0  0  0  0  0  0  0  0  0  0  0  0
  -22.3491  -21.2166   21.7381 N   0  0  0  0  0  0  0  0  0  0  0  0
  -21.2442  -23.2739   21.2726 N   0  0  0  0  0  0  0  0  0  0  0  0
  -20.7434  -17.0867   23.4213 N   0  0  0  0  0  0  0  0  0  0  0  0
  -22.0427  -12.9832   22.0541 N   0  0  0  0  0  0  0  0  0  0  0  0
  -26.2822  -27.4718   20.5331 N   0  0  0  0  0  0  0  0  0  0  0  0
  -26.0594  -33.4538   23.7930 N   0  0  0  0  0  0  0  0  0  0  0  0
  -24.4261  -36.4726   22.6586 N   0  3  0  0  0  0  0  0  0  0  0  0
  -20.3617  -14.1585   23.0794 O   0  0  0  0  0  0  0  0  0  0  0  0
  -25.5718  -28.1731   22.6369 O   0  0  0  0  0  0  0  0  0  0  0  0
  -27.5025  -31.4006   22.4109 O   0  0  0  0  0  0  0  0  0  0  0  0
  -23.8075  -34.0035   23.8574 O   0  0  0  0  0  0  0  0  0  0  0  0
  -20.0744  -21.4804   22.0139 O   0  0  0  0  0  0  0  0  0  0  0  0
  -26.8117  -11.7330   19.4599 O   0  0  0  0  0  0  0  0  0  0  0  0
  -19.2755  -29.6340   21.2331 O   0  0  0  0  0  0  0  0  0  1  0  0
  -32.1784  -11.8659   20.7187 F   0  0  0  0  0  0  0  0  0  0  0  0
  -28.3481  -13.9586   18.8869 F   0  0  0  0  0  0  0  0  0  0  0  0
  1  2  1  0  0  0  0
  1  5  2  0  0  0  0
  2  6  2  0  0  0  0
  3  8  2  0  0  0  0
  3 16  1  0  0  0  0
  4  9  1  0  0  0  0
  4 16  2  0  0  0  0
  5 18  1  0  0  0  0
  6 20  1  0  0  0  0
  7 10  2  0  0  0  0
  7 19  1  0  0  0  0
  8 22  1  0  0  0  0
  9 22  2  0  0  0  0
 10 23  1  0  0  0  0
 11 12  2  0  0  0  0
 11 24  1  0  0  0  0
 12 25  1  0  0  0  0
 13 21  1  0  0  0  0
 13 23  2  0  0  0  0
 14 25  2  0  0  0  0
 14 26  1  0  0  0  0
 15 30  1  0  0  0  0
 15 62  2  0  0  0  0
 16 27  1  0  0  0  0
 17 27  1  0  0  0  0
 17 31  2  0  0  0  0
 17 32  1  0  0  0  0
 18 20  2  0  0  0  0
 18 37  1  0  0  0  0
 19 21  2  0  0  0  0
 19 38  1  0  0  0  0
 20 48  1  0  0  0  0
 21 39  1  0  0  0  0
 22 79  1  0  0  0  0
 23 80  1  0  0  0  0
 24 26  2  0  0  0  0
 24 79  1  0  0  0  0
 25 81  1  0  0  0  0
 26 82  1  0  0  0  0
 27 63  2  0  0  0  0
 28 29  2  0  0  0  0
 28 52  1  0  0  0  0
 28 62  1  0  0  0  0
 29 58  1  0  0  0  0
 29 64  1  0  0  0  0
 30 64  2  0  0  0  0
 30 80  1  0  0  0  0
 31 65  1  0  0  0  0
 31 69  1  0  0  0  0
 32 70  1  0  0  0  0
 32 74  2  0  0  0  0
 33 49  1  0  0  0  0
 33 71  1  0  0  0  0
 33 75  2  0  0  0  0
 34 59  1  0  0  0  0
 34 66  1  0  0  0  0
 34 76  2  0  0  0  0
 35 60  1  0  0  0  0
 35 72  1  0  0  0  0
 35 77  2  0  0  0  0
 36 67  1  0  0  0  0
 36 68  1  0  0  0  0
 36 78  2  0  0  0  0
 37 40  1  0  0  0  0
 38 49  1  0  0  0  0
 39 66  1  0  0  0  0
 40 42  1  0  0  0  0
 41 43  1  0  0  0  0
 41 45  1  0  0  0  0
 42 48  1  0  0  0  0
 43 50  1  0  0  0  0
 44 46  1  0  0  0  0
 44 51  1  0  0  0  0
 45 67  1  0  0  0  0
 46 68  1  0  0  0  0
 47 50  1  0  0  0  0
 47 67  1  0  0  0  0
 48 71  1  0  0  0  0
 49 66  1  0  0  0  0
 50 65  1  0  0  0  0
 51 58  1  0  0  0  0
 51 68  1  0  0  0  0
 53 60  1  0  0  0  0
 54 61  1  0  0  0  0
 55 61  1  0  0  0  0
 56 61  1  0  0  0  0
 57 73  1  0  0  0  0
 59 61  1  0  0  0  0
 59 72  1  0  0  0  0
 60 73  1  0  0  0  0
 63 65  1  0  0  0  0
M  CHG  1  73   1
M  ISO  4  30 101  36 100  68 100  80 101
M  END
> <Batch ID>
0185

> <Smiles>
CNC(C)C(=O)NC(C(=O)N1Cc2cc([101O:1][101c:1]3cnc(C)c(CC4CC[100N:0]4[100C:0](=O)N4CCCC(n5nc(-c6ccc(Oc7ccc(F)cc7F)cc6)c(C(N)=O)c5N)C4)n3)ccc2CC1C(=O)NC1CCCc2ccccc21)C(C)(C)C

> <Shape>
0.276

> <Color>
0.083

> <Negative vol penalty>
0.000

$$$$

  -OEChem-04052323123D

 78 86  0     1  0  0  0  0  0999 V2000
  -26.4126  -37.2933   23.2413 C   0  0  0  0  0  0  0  0  0  0  0  0
  -27.1079  -36.1912   22.7544 C   0  0  0  0  0  0  0  0  0  0  0  0
  -27.0704  -12.9169   22.5395 C   0  0  0  0  0  0  0  0  0  0  0  0
  -27.3427  -11.4888   20.6099 C   0  0  0  0  0  0  0  0  0  0  0  0
  -25.2829  -37.1075   24.0371 C   0  0  0  0  0  0  0  0  0  0  0  0
  -26.6746  -34.9024   23.0639 C   0  0  0  0  0  0  0  0  0  0  0  0
  -26.9815  -29.9527   19.4706 C   0  0  0  0  0  0  0  0  0  0  0  0
  -26.1628  -12.0084   23.0839 C   0  0  0  0  0  0  0  0  0  0  0  0
  -26.4352  -10.5802   21.1543 C   0  0  0  0  0  0  0  0  0  0  0  0
  -27.8838  -28.8916   19.4107 C   0  0  0  0  0  0  0  0  0  0  0  0
  -23.0805  -10.2879   21.4571 C   0  0  0  0  0  0  0  0  0  0  0  0
  -22.1004   -9.7662   20.6129 C   0  0  0  0  0  0  0  0  0  0  0  0
  -26.4139  -27.5715   20.7949 C   0  0  0  0  0  0  0  0  0  0  0  0
  -22.9346   -7.5361   21.0223 C   0  0  0  0  0  0  0  0  0  0  0  0
  -27.6603  -12.6572   21.3025 C   0  0  0  0  0  0  0  0  0  0  0  0
  -29.9933  -13.6160   20.9210 C   0  0  0  0  0  0  0  0  0  0  0  0
  -24.8299  -35.8159   24.3486 C   0  0  0  0  0  0  0  0  0  0  0  0
  -25.7917  -29.8348   20.2033 C   0  0  0  0  0  0  0  0  0  0  0  0
  -25.5386  -34.6992   23.8658 C   0  0  0  0  0  0  0  0  0  0  0  0
  -25.4970  -28.6317   20.8604 C   0  0  0  0  0  0  0  0  0  0  0  0
  -25.8452  -10.8400   22.3913 C   0  0  0  0  0  0  0  0  0  0  0  0
  -27.6015  -27.7018   20.0752 C   0  0  0  0  0  0  0  0  0  0  0  0
  -23.9878   -9.4337   22.0839 C   0  0  0  0  0  0  0  0  0  0  0  0
  -22.0274   -8.3904   20.3955 C   0  0  0  0  0  0  0  0  0  0  0  0
  -23.9148   -8.0578   21.8665 C   0  0  0  0  0  0  0  0  0  0  0  0
  -28.5975  -13.5957   20.7393 C   0  0  0  0  0  0  0  0  0  0  0  0
  -30.4200  -14.6930   20.1831 C   0  0  0  0  0  0  0  0  0  0  0  0
  -30.8295  -12.7396   21.6882 C   0  0  0  0  0  0  0  0  0  0  0  0
  -24.5487  -31.3293   22.7183 C   0  0  0  0  0  0  0  0  0  0  0  0
  -21.9623  -29.4924   22.0408 C   0  0  0  0  0  0  0  0  0  0  0  0
  -20.7173  -26.6607   20.5992 C   0  0  0  0  0  0  0  0  0  0  0  0
  -27.5803  -19.6428   18.5824 C   0  0  0  0  0  0  0  0  0  0  0  0
  -23.6313  -35.6650   25.2515 C   0  0  0  0  0  0  0  0  0  0  0  0
  -24.8162  -30.9793   20.2360 C   0  0  0  0  0  0  0  0  0  0  0  0
  -24.2240  -28.4472   21.6439 C   0  0  0  0  0  0  0  0  0  0  0  0
  -23.0200  -34.2666   25.2237 C   0  0  0  0  0  0  0  0  0  0  0  0
  -29.3092  -17.3006   16.3542 C   0  0  0  0  0  0  0  0  0  0  0  0
  -24.1095  -33.2052   25.3394 C   0  0  0  0  0  0  0  0  0  0  0  0
  -29.3924  -16.0618   17.2396 C   0  0  0  0  0  0  0  0  0  0  0  0
  -26.5405  -22.2712   16.7686 C   0  0  0  0  0  0  0  0  0  0  0  0
  -28.0314  -18.1046   16.5976 C   0  0  0  0  0  0  0  0  0  0  0  0
  -27.0970  -20.9082   16.3457 C   0  0  0  0  0  0  0  0  0  0  0  0
  -27.9026  -17.2165   18.9102 C   0  0  0  0  0  0  0  0  0  0  0  0
  -25.0853  -33.2855   24.1592 C   0  0  1  0  0  0  0  0  0  0  0  0
  -23.8757  -30.9287   21.4361 C   0  0  1  0  0  0  0  0  0  0  0  0
  -29.2147  -16.4435   18.7166 C   0  0  1  0  0  0  0  0  0  0  0  0
  -27.3242  -22.1360   18.0831 C   0  0  2  0  0  0  0  0  0  0  0  0
  -18.5696  -25.4131   20.2413 C   0  0  0  0  0  0  0  0  0  0  0  0
  -22.0334  -28.5431   24.9397 C   0  0  0  0  0  0  0  0  0  0  0  0
  -20.5301  -26.6515   24.2841 C   0  0  0  0  0  0  0  0  0  0  0  0
  -19.7427  -29.0069   24.0498 C   0  0  0  0  0  0  0  0  0  0  0  0
  -20.9481  -26.8751   17.6565 C   0  0  0  0  0  0  0  0  0  0  0  0
  -28.6572  -22.8513   18.1816 C   0  0  0  0  0  0  0  0  0  0  0  0
  -29.6556  -25.0994   18.6155 C   0  0  0  0  0  0  0  0  0  0  0  0
  -29.2767  -26.5497   18.8415 C   0  0  0  0  0  0  0  0  0  1  0  0
  -21.4892  -28.1190   22.4518 C   0  0  1  0  0  0  0  0  0  0  0  0
  -19.5371  -26.4383   19.6707 C   0  0  2  0  0  0  0  0  0  0  0  0
  -20.9738  -28.0840   23.9183 C   0  0  0  0  0  0  0  0  0  0  0  0
  -28.1661  -14.5816   19.9482 N   0  0  0  0  0  0  0  0  0  0  0  0
  -29.2975  -15.2315   19.6262 N   0  0  0  0  0  0  0  0  0  0  0  0
  -23.3050  -29.5974   21.6511 N   0  0  0  0  0  0  0  0  0  0  0  0
  -27.8223  -18.3832   18.0234 N   0  0  0  0  0  0  0  0  0  0  0  0
  -27.4955  -20.7240   17.7336 N   0  0  0  0  0  0  0  0  0  0  0  0
  -31.6421  -15.2224   19.9628 N   0  0  0  0  0  0  0  0  0  0  0  0
  -30.2280  -11.6834   22.3860 N   0  0  0  0  0  0  0  0  0  0  0  0
  -24.5012  -32.6855   22.9788 N   0  0  0  0  0  0  0  0  0  0  0  0
  -20.4981  -27.7151   21.4603 N   0  0  0  0  0  0  0  0  0  0  0  0
  -20.0073  -25.9526   18.3426 N   0  3  0  0  0  0  0  0  0  0  0  0
  -28.4178  -24.2894   18.4401 N   0  3  0  0  0  0  0  0  0  0  0  0
  -32.0713  -12.8986   21.7662 O   0  0  0  0  0  0  0  0  0  0  0  0
  -25.0710  -30.4712   23.4202 O   0  0  0  0  0  0  0  0  0  0  0  0
  -21.1678  -30.4359   22.0579 O   0  0  0  0  0  0  0  0  0  0  0  0
  -21.7307  -25.9660   20.5666 O   0  0  0  0  0  0  0  0  0  0  0  0
  -27.4135  -19.7968   19.7995 O   0  0  0  0  0  0  0  0  0  0  0  0
  -24.9598   -9.9531   22.9224 O   0  0  0  0  0  0  0  0  0  0  0  0
  -28.4871  -26.6573   20.0185 O   0  0  0  0  0  0  0  0  0  1  0  0
  -21.0851   -7.8894   19.5859 F   0  0  0  0  0  0  0  0  0  0  0  0
  -24.7829   -7.2321   22.4668 F   0  0  0  0  0  0  0  0  0  0  0  0
  1  2  1  0  0  0  0
  1  5  2  0  0  0  0
  2  6  2  0  0  0  0
  3  8  2  0  0  0  0
  3 15  1  0  0  0  0
  4  9  1  0  0  0  0
  4 15  2  0  0  0  0
  5 17  1  0  0  0  0
  6 19  1  0  0  0  0
  7 10  2  0  0  0  0
  7 18  1  0  0  0  0
  8 21  1  0  0  0  0
  9 21  2  0  0  0  0
 10 22  1  0  0  0  0
 11 12  2  0  0  0  0
 11 23  1  0  0  0  0
 12 24  1  0  0  0  0
 13 20  1  0  0  0  0
 13 22  2  0  0  0  0
 14 24  2  0  0  0  0
 14 25  1  0  0  0  0
 15 26  1  0  0  0  0
 16 26  1  0  0  0  0
 16 27  2  0  0  0  0
 16 28  1  0  0  0  0
 17 19  2  0  0  0  0
 17 33  1  0  0  0  0
 18 20  2  0  0  0  0
 18 34  1  0  0  0  0
 19 44  1  0  0  0  0
 20 35  1  0  0  0  0
 21 75  1  0  0  0  0
 22 76  1  0  0  0  0
 23 25  2  0  0  0  0
 23 75  1  0  0  0  0
 24 77  1  0  0  0  0
 25 78  1  0  0  0  0
 26 59  2  0  0  0  0
 27 60  1  0  0  0  0
 27 64  1  0  0  0  0
 28 65  1  0  0  0  0
 28 70  2  0  0  0  0
 29 45  1  0  0  0  0
 29 66  1  0  0  0  0
 29 71  2  0  0  0  0
 30 56  1  0  0  0  0
 30 61  1  0  0  0  0
 30 72  2  0  0  0  0
 31 57  1  0  0  0  0
 31 67  1  0  0  0  0
 31 73  2  0  0  0  0
 32 62  1  0  0  0  0
 32 63  1  0  0  0  0
 32 74  2  0  0  0  0
 33 36  1  0  0  0  0
 34 45  1  0  0  0  0
 35 61  1  0  0  0  0
 36 38  1  0  0  0  0
 37 39  1  0  0  0  0
 37 41  1  0  0  0  0
 38 44  1  0  0  0  0
 39 46  1  0  0  0  0
 40 42  1  0  0  0  0
 40 47  1  0  0  0  0
 41 62  1  0  0  0  0
 42 63  1  0  0  0  0
 43 46  1  0  0  0  0
 43 62  1  0  0  0  0
 44 66  1  0  0  0  0
 45 61  1  0  0  0  0
 46 60  1  0  0  0  0
 47 53  1  0  0  0  0
 47 63  1  0  0  0  0
 48 57  1  0  0  0  0
 49 58  1  0  0  0  0
 50 58  1  0  0  0  0
 51 58  1  0  0  0  0
 52 68  1  0  0  0  0
 53 69  1  0  0  0  0
 54 55  1  0  0  0  0
 54 69  1  0  0  0  0
 55 76  1  0  0  0  0
 56 58  1  0  0  0  0
 56 67  1  0  0  0  0
 57 68  1  0  0  0  0
 59 60  1  0  0  0  0
M  CHG  2  68   1  69   1
M  ISO  4  32 100  55 101  63 100  76 101
M  END
> <Batch ID>
0185

> <Smiles>
CNC(C)C(=O)NC(C(=O)N1Cc2cc([101O:1][101CH2:1]CNCC3CC[100N:0]3[100C:0](=O)N3CCCC(n4nc(-c5ccc(Oc6ccc(F)cc6F)cc5)c(C(N)=O)c4N)C3)ccc2CC1C(=O)NC1CCCc2ccccc21)C(C)(C)C

> <Shape>
0.307

> <Color>
0.080

> <Negative vol penalty>
0.000

$$$$

  -OEChem-04052323123D

 78 87  0     1  0  0  0  0  0999 V2000
  -25.1939  -20.0423   25.1555 C   0  0  0  0  0  0  0  0  0  0  0  0
  -26.2349  -20.6999   24.5080 C   0  0  0  0  0  0  0  0  0  0  0  0
  -25.0395  -13.6869   19.7772 C   0  0  0  0  0  0  0  0  0  0  0  0
  -25.8171  -14.1748   22.0120 C   0  0  0  0  0  0  0  0  0  0  0  0
  -23.8784  -20.4614   24.9614 C   0  0  0  0  0  0  0  0  0  0  0  0
  -25.9608  -21.7764   23.6651 C   0  0  0  0  0  0  0  0  0  0  0  0
  -29.4122  -26.7650   22.8233 C   0  0  0  0  0  0  0  0  0  0  0  0
  -25.0011  -12.3275   20.0874 C   0  0  0  0  0  0  0  0  0  0  0  0
  -25.7786  -12.8154   22.3222 C   0  0  0  0  0  0  0  0  0  0  0  0
  -30.3305  -27.1142   21.8342 C   0  0  0  0  0  0  0  0  0  0  0  0
  -24.3532   -8.7644   20.4030 C   0  0  0  0  0  0  0  0  0  0  0  0
  -23.2286   -8.0404   20.0071 C   0  0  0  0  0  0  0  0  0  0  0  0
  -28.6048  -28.3343   20.6712 C   0  0  0  0  0  0  0  0  0  0  0  0
  -21.8285   -9.4821   21.3481 C   0  0  0  0  0  0  0  0  0  0  0  0
  -25.4476  -14.6105   20.7395 C   0  0  0  0  0  0  0  0  0  0  0  0
  -24.4499  -16.9527   20.5762 C   0  0  0  0  0  0  0  0  0  0  0  0
  -23.5889  -21.5496   24.1233 C   0  0  0  0  0  0  0  0  0  0  0  0
  -28.0784  -27.1894   22.7381 C   0  0  0  0  0  0  0  0  0  0  0  0
  -24.6400  -22.2096   23.4586 C   0  0  0  0  0  0  0  0  0  0  0  0
  -27.6721  -27.9912   21.6619 C   0  0  0  0  0  0  0  0  0  0  0  0
  -25.3706  -11.8918   21.3599 C   0  0  0  0  0  0  0  0  0  0  0  0
  -29.9262  -27.8966   20.7564 C   0  0  0  0  0  0  0  0  0  0  0  0
  -24.2155   -9.8472   21.2715 C   0  0  0  0  0  0  0  0  0  0  0  0
  -21.9662   -8.3993   20.4796 C   0  0  0  0  0  0  0  0  0  0  0  0
  -22.9532  -10.2061   21.7440 C   0  0  0  0  0  0  0  0  0  0  0  0
  -25.4881  -16.0148   20.4196 C   0  0  0  0  0  0  0  0  0  0  0  0
  -24.9866  -18.1364   20.1319 C   0  0  0  0  0  0  0  0  0  0  0  0
  -23.1195  -16.7702   21.0784 C   0  0  0  0  0  0  0  0  0  0  0  0
  -25.2685  -25.7225   22.5007 C   0  0  0  0  0  0  0  0  0  0  0  0
  -24.1078  -28.7332   22.8340 C   0  0  0  0  0  0  0  0  0  0  0  0
  -24.6278  -32.0908   22.5129 C   0  0  0  0  0  0  0  0  0  0  0  0
  -29.2139  -21.7095   20.1991 C   0  0  0  0  0  0  0  0  0  0  0  0
  -22.1471  -21.9362   23.9075 C   0  0  0  0  0  0  0  0  0  0  0  0
  -27.1064  -26.8265   23.8271 C   0  0  0  0  0  0  0  0  0  0  0  0
  -26.2565  -28.4895   21.5343 C   0  0  0  0  0  0  0  0  0  0  0  0
  -21.9738  -23.3223   23.2917 C   0  0  0  0  0  0  0  0  0  0  0  0
  -29.2868  -19.0789   17.6455 C   0  0  0  0  0  0  0  0  0  0  0  0
  -22.9216  -23.5039   22.1104 C   0  0  0  0  0  0  0  0  0  0  0  0
  -28.2237  -18.1136   18.1723 C   0  0  0  0  0  0  0  0  0  0  0  0
  -31.9366  -27.4678   17.6945 C   0  0  0  0  0  0  0  0  0  0  0  0
  -30.0358  -19.7447   18.7935 C   0  0  0  0  0  0  0  0  0  0  0  0
  -28.0985  -19.5070   20.2939 C   0  0  0  0  0  0  0  0  0  0  0  0
  -29.9204  -22.8540   17.9525 C   0  0  0  0  0  0  0  0  0  0  0  0
  -30.1046  -24.0502   19.7036 C   0  0  0  0  0  0  0  0  0  0  0  0
  -24.3851  -23.3971   22.5559 C   0  0  1  0  0  0  0  0  0  0  0  0
  -25.6512  -26.8846   23.3729 C   0  0  1  0  0  0  0  0  0  0  0  0
  -27.2927  -18.8073   19.1838 C   0  0  2  0  0  0  0  0  0  0  0  0
  -30.6919  -26.6459   17.8722 C   0  0  2  0  0  0  0  0  0  0  0  0
  -29.7689  -24.3541   18.2393 C   0  0  0  0  0  0  0  0  0  0  0  0
  -31.4364  -27.1517   19.0770 C   0  0  2  0  0  0  0  0  0  1  0  0
  -23.4814  -34.3007   22.8279 C   0  0  0  0  0  0  0  0  0  0  0  0
  -22.5095  -28.2658   20.2773 C   0  0  0  0  0  0  0  0  0  0  0  0
  -22.1583  -30.7401   20.1273 C   0  0  0  0  0  0  0  0  0  0  0  0
  -21.2644  -29.4714   22.0803 C   0  0  0  0  0  0  0  0  0  0  0  0
  -26.6213  -32.9706   24.5156 C   0  0  0  0  0  0  0  0  0  0  0  0
  -23.7559  -29.8543   21.8863 C   0  0  1  0  0  0  0  0  0  0  0  0
  -24.3721  -33.2453   23.4648 C   0  0  2  0  0  0  0  0  0  0  0  0
  -22.4483  -29.5721   21.0939 C   0  0  0  0  0  0  0  0  0  0  0  0
  -26.6001  -16.5560   19.9150 N   0  0  0  0  0  0  0  0  0  0  0  0
  -26.2637  -17.8468   19.7507 N   0  0  0  0  0  0  0  0  0  0  0  0
  -25.3419  -28.1027   22.6213 N   0  0  0  0  0  0  0  0  0  0  0  0
  -29.1038  -20.4036   19.7138 N   0  0  0  0  0  0  0  0  0  0  0  0
  -29.7947  -22.6573   19.3896 N   0  0  0  0  0  0  0  0  0  0  0  0
  -24.4860  -19.3862   20.0340 N   0  0  0  0  0  0  0  0  0  0  0  0
  -22.7315  -15.4887   21.4924 N   0  0  0  0  0  0  0  0  0  0  0  0
  -24.8083  -24.6225   23.1991 N   0  0  0  0  0  0  0  0  0  0  0  0
  -23.7167  -31.0712   22.6901 N   0  0  0  0  0  0  0  0  0  0  0  0
  -30.7760  -25.1844   17.5685 N   0  3  0  0  0  0  0  0  0  0  0  0
  -25.6580  -33.8891   23.8556 N   0  3  0  0  0  0  0  0  0  0  0  0
  -22.2937  -17.7123   21.1424 O   0  0  0  0  0  0  0  0  0  0  0  0
  -25.3809  -25.8174   21.2842 O   0  0  0  0  0  0  0  0  0  0  0  0
  -23.3201  -28.4329   23.7345 O   0  0  0  0  0  0  0  0  0  0  0  0
  -25.5421  -32.0947   21.6915 O   0  0  0  0  0  0  0  0  0  0  0  0
  -28.7770  -22.0307   21.3123 O   0  0  0  0  0  0  0  0  0  0  0  0
  -25.3329  -10.5654   21.6630 O   0  0  0  0  0  0  0  0  0  0  0  0
  -30.8224  -28.2391   19.7871 O   0  0  0  0  0  0  0  0  0  1  0  0
  -20.8862   -7.7050   20.0982 F   0  0  0  0  0  0  0  0  0  0  0  0
  -22.8145  -11.2461   22.5777 F   0  0  0  0  0  0  0  0  0  0  0  0
  1  2  1  0  0  0  0
  1  5  2  0  0  0  0
  2  6  2  0  0  0  0
  3  8  2  0  0  0  0
  3 15  1  0  0  0  0
  4  9  1  0  0  0  0
  4 15  2  0  0  0  0
  5 17  1  0  0  0  0
  6 19  1  0  0  0  0
  7 10  2  0  0  0  0
  7 18  1  0  0  0  0
  8 21  1  0  0  0  0
  9 21  2  0  0  0  0
 10 22  1  0  0  0  0
 11 12  2  0  0  0  0
 11 23  1  0  0  0  0
 12 24  1  0  0  0  0
 13 20  1  0  0  0  0
 13 22  2  0  0  0  0
 14 24  2  0  0  0  0
 14 25  1  0  0  0  0
 15 26  1  0  0  0  0
 16 26  1  0  0  0  0
 16 27  2  0  0  0  0
 16 28  1  0  0  0  0
 17 19  2  0  0  0  0
 17 33  1  0  0  0  0
 18 20  2  0  0  0  0
 18 34  1  0  0  0  0
 19 45  1  0  0  0  0
 20 35  1  0  0  0  0
 21 75  1  0  0  0  0
 22 76  1  0  0  0  0
 23 25  2  0  0  0  0
 23 75  1  0  0  0  0
 24 77  1  0  0  0  0
 25 78  1  0  0  0  0
 26 59  2  0  0  0  0
 27 60  1  0  0  0  0
 27 64  1  0  0  0  0
 28 65  1  0  0  0  0
 28 70  2  0  0  0  0
 29 46  1  0  0  0  0
 29 66  1  0  0  0  0
 29 71  2  0  0  0  0
 30 56  1  0  0  0  0
 30 61  1  0  0  0  0
 30 72  2  0  0  0  0
 31 57  1  0  0  0  0
 31 67  1  0  0  0  0
 31 73  2  0  0  0  0
 32 62  1  0  0  0  0
 32 63  1  0  0  0  0
 32 74  2  0  0  0  0
 33 36  1  0  0  0  0
 34 46  1  0  0  0  0
 35 61  1  0  0  0  0
 36 38  1  0  0  0  0
 37 39  1  0  0  0  0
 37 41  1  0  0  0  0
 38 45  1  0  0  0  0
 39 47  1  0  0  0  0
 40 48  1  0  0  0  0
 40 50  1  0  0  0  0
 41 62  1  0  0  0  0
 42 47  1  0  0  0  0
 42 62  1  0  0  0  0
 43 49  1  0  0  0  0
 43 63  1  0  0  0  0
 44 49  1  0  0  0  0
 44 63  1  0  0  0  0
 45 66  1  0  0  0  0
 46 61  1  0  0  0  0
 47 60  1  0  0  0  0
 48 50  1  0  0  0  0
 48 68  1  0  0  0  0
 49 68  1  0  0  0  0
 50 76  1  0  0  0  0
 51 57  1  0  0  0  0
 52 58  1  0  0  0  0
 53 58  1  0  0  0  0
 54 58  1  0  0  0  0
 55 69  1  0  0  0  0
 56 58  1  0  0  0  0
 56 67  1  0  0  0  0
 57 69  1  0  0  0  0
 59 60  1  0  0  0  0
M  CHG  2  68   1  69   1
M  ISO  4  32 100  50 101  63 100  76 101
M  END
> <Batch ID>
0185

> <Smiles>
CNC(C)C(=O)NC(C(=O)N1Cc2cc([101O:1][101CH:1]3CC3NC3C[100N:0]([100C:0](=O)N4CCCC(n5nc(-c6ccc(Oc7ccc(F)cc7F)cc6)c(C(N)=O)c5N)C4)C3)ccc2CC1C(=O)NC1CCCc2ccccc21)C(C)(C)C

> <Shape>
0.252

> <Color>
0.061

> <Negative vol penalty>
0.000

$$$$

  -OEChem-04052323123D

 84 93  0     1  0  0  0  0  0999 V2000
  -27.4490  -24.2694   16.9025 C   0  0  0  0  0  0  0  0  0  0  0  0
  -26.3240  -24.5329   17.6773 C   0  0  0  0  0  0  0  0  0  0  0  0
  -27.1699  -13.4343   22.5064 C   0  0  0  0  0  0  0  0  0  0  0  0
  -26.8509  -12.8820   20.1761 C   0  0  0  0  0  0  0  0  0  0  0  0
  -28.6934  -24.7634   17.2919 C   0  0  0  0  0  0  0  0  0  0  0  0
  -26.4428  -25.2895   18.8425 C   0  0  0  0  0  0  0  0  0  0  0  0
  -22.7966  -28.7772   19.2744 C   0  0  0  0  0  0  0  0  0  0  0  0
  -26.6297  -12.2015   22.8726 C   0  0  0  0  0  0  0  0  0  0  0  0
  -26.3108  -11.6492   20.5422 C   0  0  0  0  0  0  0  0  0  0  0  0
  -21.5422  -28.3381   19.6960 C   0  0  0  0  0  0  0  0  0  0  0  0
  -24.5166   -8.5056   20.8718 C   0  0  0  0  0  0  0  0  0  0  0  0
  -23.3545   -8.0884   20.2229 C   0  0  0  0  0  0  0  0  0  0  0  0
  -22.0306  -29.1070   21.9297 C   0  0  0  0  0  0  0  0  0  0  0  0
  -22.1964  -10.0454   21.0390 C   0  0  0  0  0  0  0  0  0  0  0  0
  -27.2804  -13.7746   21.1582 C   0  0  0  0  0  0  0  0  0  0  0  0
  -29.1906  -15.3421   20.5243 C   0  0  0  0  0  0  0  0  0  0  0  0
  -28.8259  -25.5346   18.4574 C   0  0  0  0  0  0  0  0  0  0  0  0
  -23.6831  -29.3756   20.1813 C   0  0  0  0  0  0  0  0  0  0  0  0
  -27.6903  -25.7931   19.2485 C   0  0  0  0  0  0  0  0  0  0  0  0
  -23.2945  -29.5551   21.5165 C   0  0  0  0  0  0  0  0  0  0  0  0
  -26.2002  -11.3090   21.8905 C   0  0  0  0  0  0  0  0  0  0  0  0
  -21.1602  -28.5004   21.0244 C   0  0  0  0  0  0  0  0  0  0  0  0
  -24.5186   -9.6926   21.6044 C   0  0  0  0  0  0  0  0  0  0  0  0
  -22.1944   -8.8583   20.3065 C   0  0  0  0  0  0  0  0  0  0  0  0
  -23.3585  -10.4625   21.6880 C   0  0  0  0  0  0  0  0  0  0  0  0
  -27.8377  -15.0482   20.7793 C   0  0  0  0  0  0  0  0  0  0  0  0
  -29.1976  -16.6781   20.2058 C   0  0  0  0  0  0  0  0  0  0  0  0
  -18.6409  -24.8946   22.2004 C   0  0  0  0  0  0  0  0  0  0  0  0
  -20.7681  -24.9986   22.9080 C   0  0  0  0  0  0  0  0  0  0  0  0
  -19.8310  -26.7743   21.9055 C   0  0  0  0  0  0  0  0  0  1  0  0
  -30.3383  -14.4840   20.5710 C   0  0  0  0  0  0  0  0  0  0  0  0
  -26.5794  -28.6697   21.2843 C   0  0  0  0  0  0  0  0  0  0  0  0
  -26.3174  -31.5714   22.7103 C   0  0  0  0  0  0  0  0  0  0  0  0
  -24.2858  -34.0400   23.9042 C   0  0  0  0  0  0  0  0  0  0  0  0
  -25.8132  -21.1505   21.6031 C   0  0  0  0  0  0  0  0  0  0  0  0
  -30.1995  -26.0071   18.8629 C   0  0  0  0  0  0  0  0  0  0  0  0
  -25.0221  -29.8679   19.7048 C   0  0  0  0  0  0  0  0  0  0  0  0
  -24.2015  -30.2098   22.5251 C   0  0  0  0  0  0  0  0  0  0  0  0
  -30.1772  -27.1160   19.9118 C   0  0  0  0  0  0  0  0  0  0  0  0
  -26.4495  -20.0989   18.3118 C   0  0  0  0  0  0  0  0  0  0  0  0
  -29.2069  -26.7679   21.0361 C   0  0  0  0  0  0  0  0  0  0  0  0
  -27.0150  -18.6982   18.5451 C   0  0  0  0  0  0  0  0  0  0  0  0
  -25.2737  -20.4047   19.2414 C   0  0  0  0  0  0  0  0  0  0  0  0
  -23.7326  -22.3663   20.8173 C   0  0  0  0  0  0  0  0  0  0  0  0
  -25.4177  -23.5199   22.2021 C   0  0  0  0  0  0  0  0  0  0  0  0
  -26.1383  -18.7952   20.9090 C   0  0  0  0  0  0  0  0  0  0  0  0
  -22.6528  -22.6900   21.8448 C   0  0  0  0  0  0  0  0  0  0  0  0
  -24.3727  -23.8383   23.2591 C   0  0  0  0  0  0  0  0  0  0  0  0
  -27.7745  -26.6308   20.5060 C   0  0  1  0  0  0  0  0  0  0  0  0
  -26.0453  -29.9982   20.8287 C   0  0  1  0  0  0  0  0  0  0  0  0
  -27.3585  -18.4815   20.0295 C   0  0  1  0  0  0  0  0  0  0  0  0
  -17.3684  -24.1335   22.0436 C   0  0  0  0  0  0  0  0  0  0  0  0
  -24.3614  -36.2723   25.0480 C   0  0  0  0  0  0  0  0  0  0  0  0
  -26.9722  -30.1927   25.3524 C   0  0  0  0  0  0  0  0  0  0  0  0
  -26.1126  -32.2203   26.5433 C   0  0  0  0  0  0  0  0  0  0  0  0
  -28.0853  -32.4086   25.0281 C   0  0  0  0  0  0  0  0  0  0  0  0
  -22.9309  -35.3771   21.6380 C   0  0  0  0  0  0  0  0  0  0  0  0
  -21.9504  -24.3521   23.5677 C   0  0  0  0  0  0  0  0  0  0  0  0
  -25.7861  -32.0685   24.0331 C   0  0  1  0  0  0  0  0  0  0  0  0
  -24.3110  -35.5458   23.7130 C   0  0  2  0  0  0  0  0  0  0  0  0
  -26.7225  -31.7084   25.2209 C   0  0  0  0  0  0  0  0  0  0  0  0
  -27.0430  -16.1120   20.6355 N   0  0  0  0  0  0  0  0  0  0  0  0
  -19.6565  -24.2531   22.8004 N   0  0  0  0  0  0  0  0  0  0  0  0
  -18.6546  -26.1516   21.7284 N   0  0  0  0  0  0  0  0  0  0  0  0
  -20.9289  -26.2627   22.4850 N   0  0  0  0  0  0  0  0  0  0  0  0
  -27.8991  -17.0874   20.2867 N   0  0  0  0  0  0  0  0  0  0  0  0
  -25.5029  -30.6688   22.0121 N   0  0  0  0  0  0  0  0  0  0  0  0
  -25.6356  -20.1445   20.6417 N   0  0  0  0  0  0  0  0  0  0  0  0
  -25.0586  -22.3225   21.4455 N   0  0  0  0  0  0  0  0  0  0  0  0
  -30.1878  -17.5310   19.8674 N   0  0  0  0  0  0  0  0  0  0  0  0
  -30.1529  -13.1384   20.9161 N   0  0  0  0  0  0  0  0  0  0  0  0
  -27.1903  -27.9363   20.2850 N   0  0  0  0  0  0  0  0  0  0  0  0
  -25.5537  -33.4993   23.8679 N   0  0  0  0  0  0  0  0  0  0  0  0
  -23.0211  -23.9487   22.5929 N   0  3  0  0  0  0  0  0  0  0  0  0
  -23.0944  -35.9951   22.9790 N   0  3  0  0  0  0  0  0  0  0  0  0
  -31.4962  -14.9022   20.3303 O   0  0  0  0  0  0  0  0  0  0  0  0
  -26.4483  -28.3354   22.4559 O   0  0  0  0  0  0  0  0  0  0  0  0
  -27.4115  -31.9748   22.3081 O   0  0  0  0  0  0  0  0  0  0  0  0
  -23.2457  -33.4073   24.0729 O   0  0  0  0  0  0  0  0  0  0  0  0
  -26.5999  -21.0095   22.5480 O   0  0  0  0  0  0  0  0  0  0  0  0
  -25.6734  -10.1058   22.2474 O   0  0  0  0  0  0  0  0  0  0  0  0
  -19.9211  -28.0667   21.4440 O   0  0  0  0  0  0  0  0  0  1  0  0
  -21.0789   -8.4584   19.6820 F   0  0  0  0  0  0  0  0  0  0  0  0
  -23.3546  -11.6044   22.3893 F   0  0  0  0  0  0  0  0  0  0  0  0
  1  2  1  0  0  0  0
  1  5  2  0  0  0  0
  2  6  2  0  0  0  0
  3  8  2  0  0  0  0
  3 15  1  0  0  0  0
  4  9  1  0  0  0  0
  4 15  2  0  0  0  0
  5 17  1  0  0  0  0
  6 19  1  0  0  0  0
  7 10  2  0  0  0  0
  7 18  1  0  0  0  0
  8 21  1  0  0  0  0
  9 21  2  0  0  0  0
 10 22  1  0  0  0  0
 11 12  2  0  0  0  0
 11 23  1  0  0  0  0
 12 24  1  0  0  0  0
 13 20  1  0  0  0  0
 13 22  2  0  0  0  0
 14 24  2  0  0  0  0
 14 25  1  0  0  0  0
 15 26  1  0  0  0  0
 16 26  1  0  0  0  0
 16 27  2  0  0  0  0
 16 31  1  0  0  0  0
 17 19  2  0  0  0  0
 17 36  1  0  0  0  0
 18 20  2  0  0  0  0
 18 37  1  0  0  0  0
 19 49  1  0  0  0  0
 20 38  1  0  0  0  0
 21 81  1  0  0  0  0
 22 82  1  0  0  0  0
 23 25  2  0  0  0  0
 23 81  1  0  0  0  0
 24 83  1  0  0  0  0
 25 84  1  0  0  0  0
 26 62  2  0  0  0  0
 27 66  1  0  0  0  0
 27 70  1  0  0  0  0
 28 52  1  0  0  0  0
 28 63  1  0  0  0  0
 28 64  2  0  0  0  0
 29 58  1  0  0  0  0
 29 63  2  0  0  0  0
 29 65  1  0  0  0  0
 30 64  1  0  0  0  0
 30 65  2  0  0  0  0
 30 82  1  0  0  0  0
 31 71  1  0  0  0  0
 31 76  2  0  0  0  0
 32 50  1  0  0  0  0
 32 72  1  0  0  0  0
 32 77  2  0  0  0  0
 33 59  1  0  0  0  0
 33 67  1  0  0  0  0
 33 78  2  0  0  0  0
 34 60  1  0  0  0  0
 34 73  1  0  0  0  0
 34 79  2  0  0  0  0
 35 68  1  0  0  0  0
 35 69  1  0  0  0  0
 35 80  2  0  0  0  0
 36 39  1  0  0  0  0
 37 50  1  0  0  0  0
 38 67  1  0  0  0  0
 39 41  1  0  0  0  0
 40 42  1  0  0  0  0
 40 43  1  0  0  0  0
 41 49  1  0  0  0  0
 42 51  1  0  0  0  0
 43 68  1  0  0  0  0
 44 47  1  0  0  0  0
 44 69  1  0  0  0  0
 45 48  1  0  0  0  0
 45 69  1  0  0  0  0
 46 51  1  0  0  0  0
 46 68  1  0  0  0  0
 47 74  1  0  0  0  0
 48 74  1  0  0  0  0
 49 72  1  0  0  0  0
 50 67  1  0  0  0  0
 51 66  1  0  0  0  0
 53 60  1  0  0  0  0
 54 61  1  0  0  0  0
 55 61  1  0  0  0  0
 56 61  1  0  0  0  0
 57 75  1  0  0  0  0
 58 74  1  0  0  0  0
 59 61  1  0  0  0  0
 59 73  1  0  0  0  0
 60 75  1  0  0  0  0
 62 66  1  0  0  0  0
M  CHG  2  74   1  75   1
M  ISO  4  30 101  35 100  69 100  82 101
M  END
> <Batch ID>
0185

> <Smiles>
CNC(C)C(=O)NC(C(=O)N1Cc2cc([101O:1][101c:1]3nc(C)nc(CN4CC[100N:0]([100C:0](=O)N5CCCC(n6nc(-c7ccc(Oc8ccc(F)cc8F)cc7)c(C(N)=O)c6N)C5)CC4)n3)ccc2CC1C(=O)NC1CCCc2ccccc21)C(C)(C)C

> <Shape>
0.325

> <Color>
0.102

> <Negative vol penalty>
0.000

$$$$

  -OEChem-04052323123D

 86 96  0     1  0  0  0  0  0999 V2000
  -28.8525  -10.6109   16.8121 C   0  0  0  0  0  0  0  0  0  0  0  0
  -27.6681  -11.3269   16.6710 C   0  0  0  0  0  0  0  0  0  0  0  0
  -26.3482  -29.8812   17.4004 C   0  0  0  0  0  0  0  0  0  0  0  0
  -27.5083  -31.0584   19.1626 C   0  0  0  0  0  0  0  0  0  0  0  0
  -29.6791  -10.8426   17.9107 C   0  0  0  0  0  0  0  0  0  0  0  0
  -27.3090  -12.2743   17.6291 C   0  0  0  0  0  0  0  0  0  0  0  0
  -23.9214  -18.5530   18.2764 C   0  0  0  0  0  0  0  0  0  0  0  0
  -26.6958  -30.8875   16.4993 C   0  0  0  0  0  0  0  0  0  0  0  0
  -27.8559  -32.0648   18.2615 C   0  0  0  0  0  0  0  0  0  0  0  0
  -22.9041  -19.1569   19.0140 C   0  0  0  0  0  0  0  0  0  0  0  0
  -29.4174  -31.8000   14.7123 C   0  0  0  0  0  0  0  0  0  0  0  0
  -29.8960  -31.4125   13.4608 C   0  0  0  0  0  0  0  0  0  0  0  0
  -24.4490  -19.5292   20.8288 C   0  0  0  0  0  0  0  0  0  0  0  0
  -20.7177  -22.5083   22.7178 C   0  0  0  0  0  0  0  0  0  0  0  0
  -28.0655  -32.5788   12.3996 C   0  0  0  0  0  0  0  0  0  0  0  0
  -20.6166  -20.6553   24.0049 C   0  0  0  0  0  0  0  0  0  0  0  0
  -26.7544  -29.9666   18.7321 C   0  0  0  0  0  0  0  0  0  0  0  0
  -27.1269  -27.7622   19.9608 C   0  0  0  0  0  0  0  0  0  0  0  0
  -29.3348  -11.8002   18.8777 C   0  0  0  0  0  0  0  0  0  0  0  0
  -25.2097  -18.4227   18.8147 C   0  0  0  0  0  0  0  0  0  0  0  0
  -28.1312  -12.5181   18.7424 C   0  0  0  0  0  0  0  0  0  0  0  0
  -25.4816  -18.9256   20.0951 C   0  0  0  0  0  0  0  0  0  0  0  0
  -21.3320  -21.2599   22.9928 C   0  0  0  0  0  0  0  0  0  0  0  0
  -27.4496  -31.9793   16.9298 C   0  0  0  0  0  0  0  0  0  0  0  0
  -23.1670  -19.6425   20.2915 C   0  0  0  0  0  0  0  0  0  0  0  0
  -28.2627  -32.5768   14.8075 C   0  0  0  0  0  0  0  0  0  0  0  0
  -29.2202  -31.8019   12.3044 C   0  0  0  0  0  0  0  0  0  0  0  0
  -27.5868  -32.9662   13.6511 C   0  0  0  0  0  0  0  0  0  0  0  0
  -26.3952  -28.9277   19.6636 C   0  0  0  0  0  0  0  0  0  0  0  0
  -19.6422  -22.6308   23.5718 C   0  0  0  0  0  0  0  0  0  0  0  0
  -26.3659  -27.1091   20.8993 C   0  0  0  0  0  0  0  0  0  0  0  0
  -17.7038  -22.3533   25.4320 C   0  0  0  0  0  0  0  0  0  0  0  0
  -18.5956  -21.3575   25.3030 C   0  0  0  0  0  0  0  0  0  0  0  0
  -18.6410  -23.6787   23.7626 C   0  0  0  0  0  0  0  0  0  0  0  0
  -28.3822  -27.3105   19.4356 C   0  0  0  0  0  0  0  0  0  0  0  0
  -27.0968  -15.9724   19.5489 C   0  0  0  0  0  0  0  0  0  0  0  0
  -29.2575  -18.3179   20.1424 C   0  0  0  0  0  0  0  0  0  0  0  0
  -29.8422  -21.5834   20.9432 C   0  0  0  0  0  0  0  0  0  0  0  0
  -20.5320  -27.2745   21.9317 C   0  0  0  0  0  0  0  0  0  0  0  0
  -30.2369  -11.9821   20.0726 C   0  0  0  0  0  0  0  0  0  0  0  0
  -26.3029  -17.7927   17.9958 C   0  0  0  0  0  0  0  0  0  0  0  0
  -26.8529  -18.8286   20.7104 C   0  0  0  0  0  0  0  0  0  0  0  0
  -29.9690  -13.2696   20.8477 C   0  0  0  0  0  0  0  0  0  0  0  0
  -23.1986  -27.8882   24.3714 C   0  0  0  0  0  0  0  0  0  0  0  0
  -28.4723  -13.4523   21.0783 C   0  0  0  0  0  0  0  0  0  0  0  0
  -24.3781  -28.1774   23.4491 C   0  0  0  0  0  0  0  0  0  0  0  0
  -17.4105  -28.3587   22.5317 C   0  0  0  0  0  0  0  0  0  0  0  0
  -21.8733  -28.3876   23.7947 C   0  0  0  0  0  0  0  0  0  0  0  0
  -18.7546  -28.7560   23.1497 C   0  0  0  0  0  0  0  0  0  0  0  0
  -22.7863  -28.1841   21.4972 C   0  0  0  0  0  0  0  0  0  0  0  0
  -27.7196  -13.5717   19.7477 C   0  0  1  0  0  0  0  0  0  0  0  0
  -27.4494  -17.2520   18.8447 C   0  0  1  0  0  0  0  0  0  0  0  0
  -24.1082  -27.6250   22.0417 C   0  0  1  0  0  0  0  0  0  0  0  0
  -18.0099  -26.9791   22.2193 C   0  0  2  0  0  0  0  0  0  0  0  0
  -31.1586  -23.6784   21.3624 C   0  0  0  0  0  0  0  0  0  0  0  0
  -29.6479  -17.0864   22.9066 C   0  0  0  0  0  0  0  0  0  0  0  0
  -30.7528  -19.2159   23.6227 C   0  0  0  0  0  0  0  0  0  0  0  0
  -31.7559  -17.8456   21.7955 C   0  0  0  0  0  0  0  0  0  0  0  0
  -29.7299  -22.3633   18.0905 C   0  0  0  0  0  0  0  0  0  0  0  0
  -22.5221  -20.7062   22.3185 C   0  0  0  0  0  0  0  0  0  1  0  0
  -17.6995  -25.8463   23.1777 C   0  0  0  0  0  0  0  0  0  0  0  0
  -29.6337  -19.1448   21.3481 C   0  0  1  0  0  0  0  0  0  0  0  0
  -30.7796  -22.6155   20.3429 C   0  0  2  0  0  0  0  0  0  0  0  0
  -30.4212  -18.3234   22.4077 C   0  0  0  0  0  0  0  0  0  0  0  0
  -25.2568  -29.0126   20.3569 N   0  0  0  0  0  0  0  0  0  0  0  0
  -17.7063  -23.5142   24.6793 N   0  0  0  0  0  0  0  0  0  0  0  0
  -19.5898  -21.4949   24.3522 N   0  0  0  0  0  0  0  0  0  0  0  0
  -25.2673  -27.8923   21.0991 N   0  0  0  0  0  0  0  0  0  0  0  0
  -27.8867  -18.1986   19.8727 N   0  0  0  0  0  0  0  0  0  0  0  0
  -21.6692  -27.9308   22.4148 N   0  0  0  0  0  0  0  0  0  0  0  0
  -19.3156  -27.5800   22.5007 N   0  0  0  0  0  0  0  0  0  0  0  0
  -26.5359  -25.9469   21.5647 N   0  0  0  0  0  0  0  0  0  0  0  0
  -29.0301  -28.1033   18.4785 N   0  0  0  0  0  0  0  0  0  0  0  0
  -18.6559  -24.7966   23.0270 N   0  0  0  0  0  0  0  0  0  0  0  0
  -27.8862  -14.8966   19.1898 N   0  0  0  0  0  0  0  0  0  0  0  0
  -30.3529  -20.3070   20.8378 N   0  0  0  0  0  0  0  0  0  0  0  0
  -30.1334  -23.2883   19.1807 N   0  3  0  0  0  0  0  0  0  0  0  0
  -28.9056  -26.2277   19.7920 O   0  0  0  0  0  0  0  0  0  0  0  0
  -26.1775  -15.9622   20.3592 O   0  0  0  0  0  0  0  0  0  0  0  0
  -30.1473  -17.8030   19.4607 O   0  0  0  0  0  0  0  0  0  0  0  0
  -28.7663  -21.8803   21.4579 O   0  0  0  0  0  0  0  0  0  0  0  0
  -20.5926  -26.4622   20.9993 O   0  0  0  0  0  0  0  0  0  0  0  0
  -27.7891  -32.9614   16.0507 O   0  0  0  0  0  0  0  0  0  0  0  0
  -22.1705  -20.2348   21.0175 O   0  0  0  0  0  0  0  0  0  1  0  0
  -29.6809  -31.4310   11.1026 F   0  0  0  0  0  0  0  0  0  0  0  0
  -26.4777  -33.7135   13.7361 F   0  0  0  0  0  0  0  0  0  0  0  0
  1  2  1  0  0  0  0
  1  5  2  0  0  0  0
  2  6  2  0  0  0  0
  3  8  2  0  0  0  0
  3 17  1  0  0  0  0
  4  9  1  0  0  0  0
  4 17  2  0  0  0  0
  5 19  1  0  0  0  0
  6 21  1  0  0  0  0
  7 10  2  0  0  0  0
  7 20  1  0  0  0  0
  8 24  1  0  0  0  0
  9 24  2  0  0  0  0
 10 25  1  0  0  0  0
 11 12  2  0  0  0  0
 11 26  1  0  0  0  0
 12 27  1  0  0  0  0
 13 22  1  0  0  0  0
 13 25  2  0  0  0  0
 14 23  1  0  0  0  0
 14 30  2  0  0  0  0
 15 27  2  0  0  0  0
 15 28  1  0  0  0  0
 16 23  2  0  0  0  0
 16 67  1  0  0  0  0
 17 29  1  0  0  0  0
 18 29  1  0  0  0  0
 18 31  2  0  0  0  0
 18 35  1  0  0  0  0
 19 21  2  0  0  0  0
 19 40  1  0  0  0  0
 20 22  2  0  0  0  0
 20 41  1  0  0  0  0
 21 51  1  0  0  0  0
 22 42  1  0  0  0  0
 23 60  1  0  0  0  0
 24 83  1  0  0  0  0
 25 84  1  0  0  0  0
 26 28  2  0  0  0  0
 26 83  1  0  0  0  0
 27 85  1  0  0  0  0
 28 86  1  0  0  0  0
 29 65  2  0  0  0  0
 30 34  1  0  0  0  0
 30 67  1  0  0  0  0
 31 68  1  0  0  0  0
 31 72  1  0  0  0  0
 32 33  2  0  0  0  0
 32 66  1  0  0  0  0
 33 67  1  0  0  0  0
 34 66  2  0  0  0  0
 34 74  1  0  0  0  0
 35 73  1  0  0  0  0
 35 78  2  0  0  0  0
 36 52  1  0  0  0  0
 36 75  1  0  0  0  0
 36 79  2  0  0  0  0
 37 62  1  0  0  0  0
 37 69  1  0  0  0  0
 37 80  2  0  0  0  0
 38 63  1  0  0  0  0
 38 76  1  0  0  0  0
 38 81  2  0  0  0  0
 39 70  1  0  0  0  0
 39 71  1  0  0  0  0
 39 82  2  0  0  0  0
 40 43  1  0  0  0  0
 41 52  1  0  0  0  0
 42 69  1  0  0  0  0
 43 45  1  0  0  0  0
 44 46  1  0  0  0  0
 44 48  1  0  0  0  0
 45 51  1  0  0  0  0
 46 53  1  0  0  0  0
 47 49  1  0  0  0  0
 47 54  1  0  0  0  0
 48 70  1  0  0  0  0
 49 71  1  0  0  0  0
 50 53  1  0  0  0  0
 50 70  1  0  0  0  0
 51 75  1  0  0  0  0
 52 69  1  0  0  0  0
 53 68  1  0  0  0  0
 54 61  1  0  0  0  0
 54 71  1  0  0  0  0
 55 63  1  0  0  0  0
 56 64  1  0  0  0  0
 57 64  1  0  0  0  0
 58 64  1  0  0  0  0
 59 77  1  0  0  0  0
 60 84  1  0  0  0  0
 61 74  1  0  0  0  0
 62 64  1  0  0  0  0
 62 76  1  0  0  0  0
 63 77  1  0  0  0  0
 65 68  1  0  0  0  0
M  CHG  1  77   1
M  ISO  4  39 100  60 101  71 100  84 101
M  END
> <Batch ID>
0185

> <Smiles>
CNC(C)C(=O)NC(C(=O)N1Cc2cc([101O:1][101CH2:1]c3cc4c(NCC5CC[100N:0]5[100C:0](=O)N5CCCC(n6nc(-c7ccc(Oc8ccc(F)cc8F)cc7)c(C(N)=O)c6N)C5)nccn4c3)ccc2CC1C(=O)NC1CCCc2ccccc21)C(C)(C)C

> <Shape>
0.215

> <Color>
0.073

> <Negative vol penalty>
0.000

$$$$

  -OEChem-04052323123D

 81 90  0     1  0  0  0  0  0999 V2000
  -25.8544  -10.9204   23.5950 C   0  0  0  0  0  0  0  0  0  0  0  0
  -26.7304  -11.9977   23.6810 C   0  0  0  0  0  0  0  0  0  0  0  0
  -22.3719  -28.2648   20.8515 C   0  0  0  0  0  0  0  0  0  0  0  0
  -23.6404  -27.5902   22.7940 C   0  0  0  0  0  0  0  0  0  0  0  0
  -25.0463  -10.7686   22.4690 C   0  0  0  0  0  0  0  0  0  0  0  0
  -26.7996  -12.9233   22.6404 C   0  0  0  0  0  0  0  0  0  0  0  0
  -27.8180  -18.9425   23.1293 C   0  0  0  0  0  0  0  0  0  0  0  0
  -21.1850  -28.0463   21.5507 C   0  0  0  0  0  0  0  0  0  0  0  0
  -22.4534  -27.3718   23.4932 C   0  0  0  0  0  0  0  0  0  0  0  0
  -28.9679  -19.7150   22.9725 C   0  0  0  0  0  0  0  0  0  0  0  0
  -19.3319  -29.6552   23.8768 C   0  0  0  0  0  0  0  0  0  0  0  0
  -18.3349  -30.6259   23.7807 C   0  0  0  0  0  0  0  0  0  0  0  0
  -34.4385  -23.6800   21.7228 C   0  0  0  0  0  0  0  0  0  0  0  0
  -28.3293  -20.1923   20.6957 C   0  0  0  0  0  0  0  0  0  0  0  0
  -16.8277  -28.9852   22.8459 C   0  0  0  0  0  0  0  0  0  0  0  0
  -34.6141  -22.3683   22.1140 C   0  0  0  0  0  0  0  0  0  0  0  0
  -23.5997  -28.0367   21.4731 C   0  0  0  0  0  0  0  0  0  0  0  0
  -25.5658  -29.4576   20.6837 C   0  0  0  0  0  0  0  0  0  0  0  0
  -25.0987  -11.6983   21.4184 C   0  0  0  0  0  0  0  0  0  0  0  0
  -26.9191  -18.7798   22.0654 C   0  0  0  0  0  0  0  0  0  0  0  0
  -25.9924  -12.7832   21.4987 C   0  0  0  0  0  0  0  0  0  0  0  0
  -27.1674  -19.4193   20.8424 C   0  0  0  0  0  0  0  0  0  0  0  0
  -21.2257  -27.5998   22.8716 C   0  0  0  0  0  0  0  0  0  0  0  0
  -29.2252  -20.3377   21.7546 C   0  0  0  0  0  0  0  0  0  0  0  0
  -19.0769  -28.3495   23.4574 C   0  0  0  0  0  0  0  0  0  0  0  0
  -17.0828  -30.2909   23.2652 C   0  0  0  0  0  0  0  0  0  0  0  0
  -17.8248  -28.0145   22.9420 C   0  0  0  0  0  0  0  0  0  0  0  0
  -24.8262  -28.2617   20.7512 C   0  0  0  0  0  0  0  0  0  0  0  0
  -33.1317  -24.1213   21.6830 C   0  0  0  0  0  0  0  0  0  0  0  0
  -26.6371  -29.1538   19.8797 C   0  0  0  0  0  0  0  0  0  0  0  0
  -32.3720  -22.0904   22.3651 C   0  0  0  0  0  0  0  0  0  0  0  0
  -25.3076  -30.7293   21.2934 C   0  0  0  0  0  0  0  0  0  0  0  0
  -25.8684  -16.3011   20.3755 C   0  0  0  0  0  0  0  0  0  0  0  0
  -23.8982  -18.5235   19.0711 C   0  0  0  0  0  0  0  0  0  0  0  0
  -23.3056  -21.8075   18.3565 C   0  0  0  0  0  0  0  0  0  0  0  0
  -30.7690  -25.5640   18.5154 C   0  0  0  0  0  0  0  0  0  0  0  0
  -24.2399  -11.4664   20.2005 C   0  0  0  0  0  0  0  0  0  0  0  0
  -25.6697  -17.9651   22.2590 C   0  0  0  0  0  0  0  0  0  0  0  0
  -26.2237  -19.2928   19.6754 C   0  0  0  0  0  0  0  0  0  0  0  0
  -24.1033  -12.6974   19.3081 C   0  0  0  0  0  0  0  0  0  0  0  0
  -27.5562  -25.1523   16.9636 C   0  0  0  0  0  0  0  0  0  0  0  0
  -25.4655  -13.3448   19.0795 C   0  0  0  0  0  0  0  0  0  0  0  0
  -26.6099  -25.9749   17.8321 C   0  0  0  0  0  0  0  0  0  0  0  0
  -28.6513  -24.5134   17.8070 C   0  0  0  0  0  0  0  0  0  0  0  0
  -32.9255  -26.0454   19.7863 C   0  0  0  0  0  0  0  0  0  0  0  0
  -31.2249  -25.9440   21.0605 C   0  0  0  0  0  0  0  0  0  0  0  0
  -28.5336  -26.3655   19.4531 C   0  0  0  0  0  0  0  0  0  0  0  0
  -26.0784  -13.8220   20.4016 C   0  0  1  0  0  0  0  0  0  0  0  0
  -32.7240  -25.6057   21.2559 C   0  0  0  0  0  0  0  0  0  0  0  0
  -25.0846  -17.4478   20.9485 C   0  0  1  0  0  0  0  0  0  0  0  0
  -27.3939  -27.0161   18.6439 C   0  0  2  0  0  0  0  0  0  0  0  0
  -21.6290  -23.3113   17.2496 C   0  0  0  0  0  0  0  0  0  0  0  0
  -24.9065  -17.6289   16.3338 C   0  0  0  0  0  0  0  0  0  0  0  0
  -23.9588  -19.7376   15.3728 C   0  0  0  0  0  0  0  0  0  0  0  0
  -22.4473  -18.0689   16.4468 C   0  0  0  0  0  0  0  0  0  0  0  0
  -22.7947  -23.2819   20.8712 C   0  0  0  0  0  0  0  0  0  0  0  0
  -31.2172  -21.2023   22.7243 C   0  0  0  0  0  0  0  0  0  1  0  0
  -23.9796  -19.4653   17.8940 C   0  0  1  0  0  0  0  0  0  0  0  0
  -22.0769  -22.6762   18.5568 C   0  0  2  0  0  0  0  0  0  0  0  0
  -23.8420  -18.7262   16.5331 C   0  0  0  0  0  0  0  0  0  0  0  0
  -33.5996  -21.5422   22.4434 N   0  0  0  0  0  0  0  0  0  0  0  0
  -25.3806  -27.2720   20.0460 N   0  0  0  0  0  0  0  0  0  0  0  0
  -32.0702  -23.3506   21.9986 N   0  0  0  0  0  0  0  0  0  0  0  0
  -26.4800  -27.8455   19.5278 N   0  0  0  0  0  0  0  0  0  0  0  0
  -25.0190  -18.4803   19.9123 N   0  0  0  0  0  0  0  0  0  0  0  0
  -29.3744  -25.5025   18.6118 N   0  0  0  0  0  0  0  0  0  0  0  0
  -31.4813  -25.9405   19.6313 N   0  0  0  0  0  0  0  0  0  0  0  0
  -27.6888  -29.8809   19.4463 N   0  0  0  0  0  0  0  0  0  0  0  0
  -24.1621  -30.8686   22.0889 N   0  0  0  0  0  0  0  0  0  0  0  0
  -25.4614  -15.0601   20.8269 N   0  0  0  0  0  0  0  0  0  0  0  0
  -22.9679  -20.4915   18.1216 N   0  0  0  0  0  0  0  0  0  0  0  0
  -22.3654  -23.7644   19.5333 N   0  3  0  0  0  0  0  0  0  0  0  0
  -26.0613  -31.7176   21.1241 O   0  0  0  0  0  0  0  0  0  0  0  0
  -26.7743  -16.5256   19.5814 O   0  0  0  0  0  0  0  0  0  0  0  0
  -22.8749  -17.8562   19.2420 O   0  0  0  0  0  0  0  0  0  0  0  0
  -24.4503  -22.2527   18.4000 O   0  0  0  0  0  0  0  0  0  0  0  0
  -31.3655  -25.2619   17.4733 O   0  0  0  0  0  0  0  0  0  0  0  0
  -20.0676  -27.3868   23.5543 O   0  0  0  0  0  0  0  0  0  0  0  0
  -30.3472  -21.0918   21.5986 O   0  0  0  0  0  0  0  0  0  1  0  0
  -16.1249  -31.2227   23.1744 F   0  0  0  0  0  0  0  0  0  0  0  0
  -17.5736  -26.7615   22.5386 F   0  0  0  0  0  0  0  0  0  0  0  0
  1  2  1  0  0  0  0
  1  5  2  0  0  0  0
  2  6  2  0  0  0  0
  3  8  2  0  0  0  0
  3 17  1  0  0  0  0
  4  9  1  0  0  0  0
  4 17  2  0  0  0  0
  5 19  1  0  0  0  0
  6 21  1  0  0  0  0
  7 10  2  0  0  0  0
  7 20  1  0  0  0  0
  8 23  1  0  0  0  0
  9 23  2  0  0  0  0
 10 24  1  0  0  0  0
 11 12  2  0  0  0  0
 11 25  1  0  0  0  0
 12 26  1  0  0  0  0
 13 16  1  0  0  0  0
 13 29  2  0  0  0  0
 14 22  1  0  0  0  0
 14 24  2  0  0  0  0
 15 26  2  0  0  0  0
 15 27  1  0  0  0  0
 16 61  2  0  0  0  0
 17 28  1  0  0  0  0
 18 28  1  0  0  0  0
 18 30  2  0  0  0  0
 18 32  1  0  0  0  0
 19 21  2  0  0  0  0
 19 37  1  0  0  0  0
 20 22  2  0  0  0  0
 20 38  1  0  0  0  0
 21 48  1  0  0  0  0
 22 39  1  0  0  0  0
 23 78  1  0  0  0  0
 24 79  1  0  0  0  0
 25 27  2  0  0  0  0
 25 78  1  0  0  0  0
 26 80  1  0  0  0  0
 27 81  1  0  0  0  0
 28 62  2  0  0  0  0
 29 49  1  0  0  0  0
 29 63  1  0  0  0  0
 30 64  1  0  0  0  0
 30 68  1  0  0  0  0
 31 57  1  0  0  0  0
 31 61  1  0  0  0  0
 31 63  2  0  0  0  0
 32 69  1  0  0  0  0
 32 73  2  0  0  0  0
 33 50  1  0  0  0  0
 33 70  1  0  0  0  0
 33 74  2  0  0  0  0
 34 58  1  0  0  0  0
 34 65  1  0  0  0  0
 34 75  2  0  0  0  0
 35 59  1  0  0  0  0
 35 71  1  0  0  0  0
 35 76  2  0  0  0  0
 36 66  1  0  0  0  0
 36 67  1  0  0  0  0
 36 77  2  0  0  0  0
 37 40  1  0  0  0  0
 38 50  1  0  0  0  0
 39 65  1  0  0  0  0
 40 42  1  0  0  0  0
 41 43  1  0  0  0  0
 41 44  1  0  0  0  0
 42 48  1  0  0  0  0
 43 51  1  0  0  0  0
 44 66  1  0  0  0  0
 45 49  1  0  0  0  0
 45 67  1  0  0  0  0
 46 49  1  0  0  0  0
 46 67  1  0  0  0  0
 47 51  1  0  0  0  0
 47 66  1  0  0  0  0
 48 70  1  0  0  0  0
 50 65  1  0  0  0  0
 51 64  1  0  0  0  0
 52 59  1  0  0  0  0
 53 60  1  0  0  0  0
 54 60  1  0  0  0  0
 55 60  1  0  0  0  0
 56 72  1  0  0  0  0
 57 79  1  0  0  0  0
 58 60  1  0  0  0  0
 58 71  1  0  0  0  0
 59 72  1  0  0  0  0
 62 64  1  0  0  0  0
M  CHG  1  72   1
M  ISO  4  36 100  57 101  67 100  79 101
M  END
> <Batch ID>
0185

> <Smiles>
CNC(C)C(=O)NC(C(=O)N1Cc2cc([101O:1][101CH2:1]c3nccc(C4C[100N:0]([100C:0](=O)N5CCCC(n6nc(-c7ccc(Oc8ccc(F)cc8F)cc7)c(C(N)=O)c6N)C5)C4)n3)ccc2CC1C(=O)NC1CCCc2ccccc21)C(C)(C)C

> <Shape>
0.214

> <Color>
0.069

> <Negative vol penalty>
0.000

$$$$

  -OEChem-04052323123D

 80 89  0     1  0  0  0  0  0999 V2000
  -25.5176  -31.7909   23.9402 C   0  0  0  0  0  0  0  0  0  0  0  0
  -26.0778  -30.5831   24.3434 C   0  0  0  0  0  0  0  0  0  0  0  0
  -20.9128  -20.9244   20.5153 C   0  0  0  0  0  0  0  0  0  0  0  0
  -22.7735  -21.1921   22.0328 C   0  0  0  0  0  0  0  0  0  0  0  0
  -24.9674  -31.9116   22.6648 C   0  0  0  0  0  0  0  0  0  0  0  0
  -26.0872  -29.4947   23.4718 C   0  0  0  0  0  0  0  0  0  0  0  0
  -30.0283  -23.7726   21.7278 C   0  0  0  0  0  0  0  0  0  0  0  0
  -20.2022  -21.9001   21.2143 C   0  0  0  0  0  0  0  0  0  0  0  0
  -22.0630  -22.1678   22.7319 C   0  0  0  0  0  0  0  0  0  0  0  0
  -29.9103  -22.3932   21.5627 C   0  0  0  0  0  0  0  0  0  0  0  0
  -20.8792  -24.9865   24.6996 C   0  0  0  0  0  0  0  0  0  0  0  0
  -21.5562  -26.1532   25.0548 C   0  0  0  0  0  0  0  0  0  0  0  0
  -29.0022  -22.7414   19.3551 C   0  0  0  0  0  0  0  0  0  0  0  0
  -21.9897  -26.6116   22.7226 C   0  0  0  0  0  0  0  0  0  0  0  0
  -22.1984  -20.5703   20.9245 C   0  0  0  0  0  0  0  0  0  0  0  0
  -23.7967  -19.7591   19.1093 C   0  0  0  0  0  0  0  0  0  0  0  0
  -24.9787  -30.8270   21.7736 C   0  0  0  0  0  0  0  0  0  0  0  0
  -29.6233  -24.6485   20.7104 C   0  0  0  0  0  0  0  0  0  0  0  0
  -25.5354  -29.6005   22.1837 C   0  0  0  0  0  0  0  0  0  0  0  0
  -29.1185  -24.1313   19.5088 C   0  0  0  0  0  0  0  0  0  0  0  0
  -20.7773  -22.5219   22.3226 C   0  0  0  0  0  0  0  0  0  0  0  0
  -29.3945  -21.8775   20.3773 C   0  0  0  0  0  0  0  0  0  0  0  0
  -20.7575  -24.6324   23.3559 C   0  0  0  0  0  0  0  0  0  0  0  0
  -22.1115  -26.9657   24.0663 C   0  0  0  0  0  0  0  0  0  0  0  0
  -21.3127  -25.4449   22.3675 C   0  0  0  0  0  0  0  0  0  0  0  0
  -22.9327  -19.5621   20.2032 C   0  0  0  0  0  0  0  0  0  0  0  0
  -29.5229  -18.2664   20.9159 C   0  0  0  0  0  0  0  0  0  0  0  0
  -28.7572  -17.2984   21.5159 C   0  0  0  0  0  0  0  0  0  0  0  0
  -24.2394  -18.4987   18.7902 C   0  0  0  0  0  0  0  0  0  0  0  0
  -24.1661  -20.9728   18.4416 C   0  0  0  0  0  0  0  0  0  0  0  0
  -26.2369  -13.5354   20.4306 C   0  0  0  0  0  0  0  0  0  0  0  0
  -27.4322  -26.9378   20.4618 C   0  0  0  0  0  0  0  0  0  0  0  0
  -28.8218  -27.4146   17.5697 C   0  0  0  0  0  0  0  0  0  0  0  0
  -30.6611  -26.1391   14.9936 C   0  0  0  0  0  0  0  0  0  0  0  0
  -24.3296  -30.9912   20.4222 C   0  0  0  0  0  0  0  0  0  0  0  0
  -29.7820  -26.1329   20.8937 C   0  0  0  0  0  0  0  0  0  0  0  0
  -28.6884  -25.0284   18.3780 C   0  0  0  0  0  0  0  0  0  0  0  0
  -24.7155  -29.9018   19.4248 C   0  0  0  0  0  0  0  0  0  0  0  0
  -22.6734  -13.9557   20.3456 C   0  0  0  0  0  0  0  0  0  0  0  0
  -24.6193  -28.5250   20.0743 C   0  0  0  0  0  0  0  0  0  0  0  0
  -22.4941  -15.4700   20.2441 C   0  0  0  0  0  0  0  0  0  0  0  0
  -28.8019  -13.6991   20.1380 C   0  0  0  0  0  0  0  0  0  0  0  0
  -23.8846  -13.5929   21.1991 C   0  0  0  0  0  0  0  0  0  0  0  0
  -24.9839  -15.7393   20.6370 C   0  0  0  0  0  0  0  0  0  0  0  0
  -25.5868  -28.4045   21.2579 C   0  0  1  0  0  0  0  0  0  0  0  0
  -27.4345  -14.2881   19.9478 C   0  0  2  0  0  0  0  0  0  0  0  0
  -28.8596  -26.9482   19.9927 C   0  0  1  0  0  0  0  0  0  0  0  0
  -23.7878  -16.1483   19.7594 C   0  0  2  0  0  0  0  0  0  0  0  0
  -28.3848  -14.8910   20.9646 C   0  0  2  0  0  0  0  0  0  0  0  0
  -27.8747  -17.3203   22.6941 C   0  0  0  0  0  0  0  0  0  0  0  0
  -31.6040  -26.7565   12.7515 C   0  0  0  0  0  0  0  0  0  0  0  0
  -26.0455  -27.1495   16.3319 C   0  0  0  0  0  0  0  0  0  0  0  0
  -27.1452  -26.8215   14.1068 C   0  0  0  0  0  0  0  0  0  0  0  0
  -27.4580  -28.9632   15.3470 C   0  0  0  0  0  0  0  0  0  0  0  0
  -33.4387  -25.6784   15.9055 C   0  0  0  0  0  0  0  0  0  0  0  0
  -29.7027  -19.7063   21.2975 C   0  0  0  0  0  0  0  0  0  1  0  0
  -28.6076  -26.8704   16.1780 C   0  0  1  0  0  0  0  0  0  0  0  0
  -31.8651  -26.6859   14.2480 C   0  0  2  0  0  0  0  0  0  0  0  0
  -27.3203  -27.4340   15.5128 C   0  0  0  0  0  0  0  0  0  0  0  0
  -22.8310  -18.2776   20.5552 N   0  0  0  0  0  0  0  0  0  0  0  0
  -30.1678  -17.7364   19.8330 N   0  0  0  0  0  0  0  0  0  0  0  0
  -29.8234  -16.4567   19.7388 N   0  0  0  0  0  0  0  0  0  0  0  0
  -28.9774  -16.1962   20.7486 N   0  0  0  0  0  0  0  0  0  0  0  0
  -23.6368  -17.6561   19.6774 N   0  0  0  0  0  0  0  0  0  0  0  0
  -25.0879  -14.2768   20.7244 N   0  0  0  0  0  0  0  0  0  0  0  0
  -28.8573  -26.4727   18.6077 N   0  0  0  0  0  0  0  0  0  0  0  0
  -25.0814  -18.0399   17.8398 N   0  0  0  0  0  0  0  0  0  0  0  0
  -23.6192  -22.1798   18.8982 N   0  0  0  0  0  0  0  0  0  0  0  0
  -26.9375  -28.1866   20.7864 N   0  0  0  0  0  0  0  0  0  0  0  0
  -29.8336  -27.1486   15.4378 N   0  0  0  0  0  0  0  0  0  0  0  0
  -33.0545  -25.8177   14.4772 N   0  3  0  0  0  0  0  0  0  0  0  0
  -24.9451  -20.9849   17.4584 O   0  0  0  0  0  0  0  0  0  0  0  0
  -26.3303  -12.3156   20.5392 O   0  0  0  0  0  0  0  0  0  0  0  0
  -26.8242  -25.8756   20.5233 O   0  0  0  0  0  0  0  0  0  0  0  0
  -28.9597  -28.6300   17.7292 O   0  0  0  0  0  0  0  0  0  0  0  0
  -30.4716  -24.9364   15.1617 O   0  0  0  0  0  0  0  0  0  0  0  0
  -20.0844  -23.4742   23.0049 O   0  0  0  0  0  0  0  0  0  0  0  0
  -29.2776  -20.5316   20.2138 O   0  0  0  0  0  0  0  0  0  1  0  0
  -22.7602  -28.0869   24.4075 F   0  0  0  0  0  0  0  0  0  0  0  0
  -21.1980  -25.1105   21.0749 F   0  0  0  0  0  0  0  0  0  0  0  0
  1  2  1  0  0  0  0
  1  5  2  0  0  0  0
  2  6  2  0  0  0  0
  3  8  2  0  0  0  0
  3 15  1  0  0  0  0
  4  9  1  0  0  0  0
  4 15  2  0  0  0  0
  5 17  1  0  0  0  0
  6 19  1  0  0  0  0
  7 10  2  0  0  0  0
  7 18  1  0  0  0  0
  8 21  1  0  0  0  0
  9 21  2  0  0  0  0
 10 22  1  0  0  0  0
 11 12  2  0  0  0  0
 11 23  1  0  0  0  0
 12 24  1  0  0  0  0
 13 20  1  0  0  0  0
 13 22  2  0  0  0  0
 14 24  2  0  0  0  0
 14 25  1  0  0  0  0
 15 26  1  0  0  0  0
 16 26  1  0  0  0  0
 16 29  2  0  0  0  0
 16 30  1  0  0  0  0
 17 19  2  0  0  0  0
 17 35  1  0  0  0  0
 18 20  2  0  0  0  0
 18 36  1  0  0  0  0
 19 45  1  0  0  0  0
 20 37  1  0  0  0  0
 21 77  1  0  0  0  0
 22 78  1  0  0  0  0
 23 25  2  0  0  0  0
 23 77  1  0  0  0  0
 24 79  1  0  0  0  0
 25 80  1  0  0  0  0
 26 60  2  0  0  0  0
 27 28  2  0  0  0  0
 27 56  1  0  0  0  0
 27 61  1  0  0  0  0
 28 50  1  0  0  0  0
 28 63  1  0  0  0  0
 29 64  1  0  0  0  0
 29 67  1  0  0  0  0
 30 68  1  0  0  0  0
 30 72  2  0  0  0  0
 31 46  1  0  0  0  0
 31 65  1  0  0  0  0
 31 73  2  0  0  0  0
 32 47  1  0  0  0  0
 32 69  1  0  0  0  0
 32 74  2  0  0  0  0
 33 57  1  0  0  0  0
 33 66  1  0  0  0  0
 33 75  2  0  0  0  0
 34 58  1  0  0  0  0
 34 70  1  0  0  0  0
 34 76  2  0  0  0  0
 35 38  1  0  0  0  0
 36 47  1  0  0  0  0
 37 66  1  0  0  0  0
 38 40  1  0  0  0  0
 39 41  1  0  0  0  0
 39 43  1  0  0  0  0
 40 45  1  0  0  0  0
 41 48  1  0  0  0  0
 42 46  1  0  0  0  0
 42 49  1  0  0  0  0
 43 65  1  0  0  0  0
 44 48  1  0  0  0  0
 44 65  1  0  0  0  0
 45 69  1  0  0  0  0
 46 49  1  0  0  0  0
 47 66  1  0  0  0  0
 48 64  1  0  0  0  0
 49 63  1  0  0  0  0
 51 58  1  0  0  0  0
 52 59  1  0  0  0  0
 53 59  1  0  0  0  0
 54 59  1  0  0  0  0
 55 71  1  0  0  0  0
 56 78  1  0  0  0  0
 57 59  1  0  0  0  0
 57 70  1  0  0  0  0
 58 71  1  0  0  0  0
 60 64  1  0  0  0  0
 61 62  2  0  0  0  0
 62 63  1  0  0  0  0
M  CHG  1  71   1
M  ISO  4  31 100  46 100  56 101  78 101
M  END
> <Batch ID>
0185

> <Smiles>
CNC(C)C(=O)NC(C(=O)N1Cc2cc([101O:1][101CH2:1]c3nnn(C4C[100CH:0]4[100C:0](=O)N4CCCC(n5nc(-c6ccc(Oc7ccc(F)cc7F)cc6)c(C(N)=O)c5N)C4)c3C)ccc2CC1C(=O)NC1CCCc2ccccc21)C(C)(C)C

> <Shape>
0.213

> <Color>
0.066

> <Negative vol penalty>
0.000

$$$$

  -OEChem-04052323123D

 83 92  0     1  0  0  0  0  0999 V2000
  -27.0373  -37.5704   22.6538 C   0  0  0  0  0  0  0  0  0  0  0  0
  -27.6821  -36.5786   21.9218 C   0  0  0  0  0  0  0  0  0  0  0  0
  -23.4736  -12.1761   16.2488 C   0  0  0  0  0  0  0  0  0  0  0  0
  -22.6911  -10.9999   18.2086 C   0  0  0  0  0  0  0  0  0  0  0  0
  -26.2046  -37.2212   23.7162 C   0  0  0  0  0  0  0  0  0  0  0  0
  -27.4954  -35.2369   22.2524 C   0  0  0  0  0  0  0  0  0  0  0  0
  -27.1488  -28.7429   19.2482 C   0  0  0  0  0  0  0  0  0  0  0  0
  -22.6626  -11.3756   15.4444 C   0  0  0  0  0  0  0  0  0  0  0  0
  -21.8800  -10.1993   17.4043 C   0  0  0  0  0  0  0  0  0  0  0  0
  -27.7043  -27.4698   19.3679 C   0  0  0  0  0  0  0  0  0  0  0  0
  -18.9039  -10.4638   15.8253 C   0  0  0  0  0  0  0  0  0  0  0  0
  -17.5924  -10.2434   16.2458 C   0  0  0  0  0  0  0  0  0  0  0  0
  -26.1805  -26.9811   21.1730 C   0  0  0  0  0  0  0  0  0  0  0  0
  -18.0172   -7.8664   16.3250 C   0  0  0  0  0  0  0  0  0  0  0  0
  -30.3742  -22.1048   21.0646 C   0  0  0  0  0  0  0  0  0  0  0  0
  -23.4879  -11.9883   17.6309 C   0  0  0  0  0  0  0  0  0  0  0  0
  -23.9831  -14.0413   19.0618 C   0  0  0  0  0  0  0  0  0  0  0  0
  -26.0000  -35.8740   24.0538 C   0  0  0  0  0  0  0  0  0  0  0  0
  -26.1105  -29.1493   20.0987 C   0  0  0  0  0  0  0  0  0  0  0  0
  -26.6603  -34.8693   23.3211 C   0  0  0  0  0  0  0  0  0  0  0  0
  -25.6118  -28.2590   21.0604 C   0  0  0  0  0  0  0  0  0  0  0  0
  -21.8658  -10.3872   16.0222 C   0  0  0  0  0  0  0  0  0  0  0  0
  -27.2221  -26.5897   20.3323 C   0  0  0  0  0  0  0  0  0  0  0  0
  -19.7721   -9.3854   15.6545 C   0  0  0  0  0  0  0  0  0  0  0  0
  -17.1490   -8.9447   16.4957 C   0  0  0  0  0  0  0  0  0  0  0  0
  -19.3288   -8.0867   15.9044 C   0  0  0  0  0  0  0  0  0  0  0  0
  -24.3259  -12.8146   18.4622 C   0  0  0  0  0  0  0  0  0  0  0  0
  -30.0124  -21.1209   20.1806 C   0  0  0  0  0  0  0  0  0  0  0  0
  -25.1151  -14.4193   19.7417 C   0  0  0  0  0  0  0  0  0  0  0  0
  -29.2606  -23.6074   19.7989 C   0  0  0  0  0  0  0  0  0  0  0  0
  -22.7516  -14.7736   19.0090 C   0  0  0  0  0  0  0  0  0  0  0  0
  -25.7573  -31.4441   22.2696 C   0  0  0  0  0  0  0  0  0  0  0  0
  -22.6927  -30.3823   22.3249 C   0  0  0  0  0  0  0  0  0  0  0  0
  -20.5011  -27.8274   21.7624 C   0  0  0  0  0  0  0  0  0  0  0  0
  -30.7227  -15.0616   19.6053 C   0  0  0  0  0  0  0  0  0  0  0  0
  -25.1280  -35.5474   25.2402 C   0  0  0  0  0  0  0  0  0  0  0  0
  -25.5040  -30.5164   19.9391 C   0  0  0  0  0  0  0  0  0  0  0  0
  -24.4849  -28.6394   21.9844 C   0  0  0  0  0  0  0  0  0  0  0  0
  -24.6884  -34.0863   25.2892 C   0  0  0  0  0  0  0  0  0  0  0  0
  -29.3533  -11.8669   20.7850 C   0  0  0  0  0  0  0  0  0  0  0  0
  -25.8744  -33.1630   25.0289 C   0  0  0  0  0  0  0  0  0  0  0  0
  -27.9073  -11.9147   20.2897 C   0  0  0  0  0  0  0  0  0  0  0  0
  -28.7256  -18.1381   19.8564 C   0  0  0  0  0  0  0  0  0  0  0  0
  -30.2967  -12.6453   19.8708 C   0  0  0  0  0  0  0  0  0  0  0  0
  -28.8163  -16.7391   19.2559 C   0  0  0  0  0  0  0  0  0  0  0  0
  -28.4419  -14.0797   19.1123 C   0  0  0  0  0  0  0  0  0  0  0  0
  -31.0193  -17.5130   19.8151 C   0  0  0  0  0  0  0  0  0  0  0  0
  -26.4635  -33.4017   23.6334 C   0  0  1  0  0  0  0  0  0  0  0  0
  -24.7977  -31.0075   21.1990 C   0  0  1  0  0  0  0  0  0  0  0  0
  -27.4524  -13.3653   20.0432 C   0  0  1  0  0  0  0  0  0  0  0  0
  -30.1097  -18.7058   19.5618 C   0  0  2  0  0  0  0  0  0  0  0  0
  -18.0660  -27.2467   21.9363 C   0  0  0  0  0  0  0  0  0  0  0  0
  -22.9815  -30.0872   25.3481 C   0  0  0  0  0  0  0  0  0  0  0  0
  -20.9319  -28.6494   25.3335 C   0  0  0  0  0  0  0  0  0  0  0  0
  -20.7897  -31.0283   24.5964 C   0  0  0  0  0  0  0  0  0  0  0  0
  -20.2907  -27.3387   18.8511 C   0  0  0  0  0  0  0  0  0  0  0  0
  -28.8218  -25.0103   19.5560 C   0  0  0  0  0  0  0  0  0  1  0  0
  -21.9376  -29.3364   23.1092 C   0  0  1  0  0  0  0  0  0  0  0  0
  -19.1681  -27.7850   21.0373 C   0  0  2  0  0  0  0  0  0  0  0  0
  -21.6827  -29.7686   24.5808 C   0  0  0  0  0  0  0  0  0  0  0  0
  -30.0033  -23.3827   20.8930 N   0  0  0  0  0  0  0  0  0  0  0  0
  -25.5777  -12.4384   18.7369 N   0  0  0  0  0  0  0  0  0  0  0  0
  -29.2653  -21.4068   19.0989 N   0  0  0  0  0  0  0  0  0  0  0  0
  -28.8759  -22.6828   18.8972 N   0  0  0  0  0  0  0  0  0  0  0  0
  -26.0314  -13.4346   19.5165 N   0  0  0  0  0  0  0  0  0  0  0  0
  -23.9292  -29.9893   21.7934 N   0  0  0  0  0  0  0  0  0  0  0  0
  -29.8062  -14.0053   19.6461 N   0  0  0  0  0  0  0  0  0  0  0  0
  -30.2167  -16.3505   19.4424 N   0  0  0  0  0  0  0  0  0  0  0  0
  -25.4060  -15.4947   20.5041 N   0  0  0  0  0  0  0  0  0  0  0  0
  -21.6895  -14.2419   18.2649 N   0  0  0  0  0  0  0  0  0  0  0  0
  -30.4292  -19.8180   20.4173 N   0  0  0  0  0  0  0  0  0  0  0  0
  -25.6389  -32.7748   22.6227 N   0  0  0  0  0  0  0  0  0  0  0  0
  -20.7239  -29.0546   22.3504 N   0  0  0  0  0  0  0  0  0  0  0  0
  -19.2610  -26.9118   19.8332 N   0  3  0  0  0  0  0  0  0  0  0  0
  -22.6029  -15.8750   19.5905 O   0  0  0  0  0  0  0  0  0  0  0  0
  -26.5458  -30.6333   22.7415 O   0  0  0  0  0  0  0  0  0  0  0  0
  -22.2002  -31.5043   22.1829 O   0  0  0  0  0  0  0  0  0  0  0  0
  -21.2664  -26.8668   21.8062 O   0  0  0  0  0  0  0  0  0  0  0  0
  -31.9364  -14.8674   19.7551 O   0  0  0  0  0  0  0  0  0  0  0  0
  -21.0742   -9.6059   15.2377 O   0  0  0  0  0  0  0  0  0  0  0  0
  -27.7667  -25.3383   20.4524 O   0  0  0  0  0  0  0  0  0  1  0  0
  -15.8900   -8.7334   16.9011 F   0  0  0  0  0  0  0  0  0  0  0  0
  -20.1586   -7.0469   15.7433 F   0  0  0  0  0  0  0  0  0  0  0  0
  1  2  1  0  0  0  0
  1  5  2  0  0  0  0
  2  6  2  0  0  0  0
  3  8  2  0  0  0  0
  3 16  1  0  0  0  0
  4  9  1  0  0  0  0
  4 16  2  0  0  0  0
  5 18  1  0  0  0  0
  6 20  1  0  0  0  0
  7 10  2  0  0  0  0
  7 19  1  0  0  0  0
  8 22  1  0  0  0  0
  9 22  2  0  0  0  0
 10 23  1  0  0  0  0
 11 12  2  0  0  0  0
 11 24  1  0  0  0  0
 12 25  1  0  0  0  0
 13 21  1  0  0  0  0
 13 23  2  0  0  0  0
 14 25  2  0  0  0  0
 14 26  1  0  0  0  0
 15 28  1  0  0  0  0
 15 61  2  0  0  0  0
 16 27  1  0  0  0  0
 17 27  1  0  0  0  0
 17 29  2  0  0  0  0
 17 31  1  0  0  0  0
 18 20  2  0  0  0  0
 18 36  1  0  0  0  0
 19 21  2  0  0  0  0
 19 37  1  0  0  0  0
 20 48  1  0  0  0  0
 21 38  1  0  0  0  0
 22 80  1  0  0  0  0
 23 81  1  0  0  0  0
 24 26  2  0  0  0  0
 24 80  1  0  0  0  0
 25 82  1  0  0  0  0
 26 83  1  0  0  0  0
 27 62  2  0  0  0  0
 28 63  2  0  0  0  0
 28 71  1  0  0  0  0
 29 65  1  0  0  0  0
 29 69  1  0  0  0  0
 30 57  1  0  0  0  0
 30 61  1  0  0  0  0
 30 64  2  0  0  0  0
 31 70  1  0  0  0  0
 31 75  2  0  0  0  0
 32 49  1  0  0  0  0
 32 72  1  0  0  0  0
 32 76  2  0  0  0  0
 33 58  1  0  0  0  0
 33 66  1  0  0  0  0
 33 77  2  0  0  0  0
 34 59  1  0  0  0  0
 34 73  1  0  0  0  0
 34 78  2  0  0  0  0
 35 67  1  0  0  0  0
 35 68  1  0  0  0  0
 35 79  2  0  0  0  0
 36 39  1  0  0  0  0
 37 49  1  0  0  0  0
 38 66  1  0  0  0  0
 39 41  1  0  0  0  0
 40 42  1  0  0  0  0
 40 44  1  0  0  0  0
 41 48  1  0  0  0  0
 42 50  1  0  0  0  0
 43 45  1  0  0  0  0
 43 51  1  0  0  0  0
 44 67  1  0  0  0  0
 45 68  1  0  0  0  0
 46 50  1  0  0  0  0
 46 67  1  0  0  0  0
 47 51  1  0  0  0  0
 47 68  1  0  0  0  0
 48 72  1  0  0  0  0
 49 66  1  0  0  0  0
 50 65  1  0  0  0  0
 51 71  1  0  0  0  0
 52 59  1  0  0  0  0
 53 60  1  0  0  0  0
 54 60  1  0  0  0  0
 55 60  1  0  0  0  0
 56 74  1  0  0  0  0
 57 81  1  0  0  0  0
 58 60  1  0  0  0  0
 58 73  1  0  0  0  0
 59 74  1  0  0  0  0
 62 65  1  0  0  0  0
 63 64  1  0  0  0  0
M  CHG  1  74   1
M  ISO  4  35 100  57 101  68 100  81 101
M  END
> <Batch ID>
0185

> <Smiles>
CNC(C)C(=O)NC(C(=O)N1Cc2cc([101O:1][101CH2:1]c3ncc(NC4CC[100N:0]([100C:0](=O)N5CCCC(n6nc(-c7ccc(Oc8ccc(F)cc8F)cc7)c(C(N)=O)c6N)C5)C4)nn3)ccc2CC1C(=O)NC1CCCc2ccccc21)C(C)(C)C

> <Shape>
0.295

> <Color>
0.130

> <Negative vol penalty>
0.000

$$$$

  -OEChem-04052323123D

 81 90  0     1  0  0  0  0  0999 V2000
  -16.5780  -28.2474   22.7009 C   0  0  0  0  0  0  0  0  0  0  0  0
  -17.6597  -27.7531   21.9791 C   0  0  0  0  0  0  0  0  0  0  0  0
  -29.5236  -25.5962   16.5794 C   0  0  0  0  0  0  0  0  0  0  0  0
  -25.1752  -14.4825   21.5650 C   0  0  0  0  0  0  0  0  0  0  0  0
  -26.6159  -12.5549   21.3505 C   0  0  0  0  0  0  0  0  0  0  0  0
  -16.7903  -29.1485   23.7434 C   0  0  0  0  0  0  0  0  0  0  0  0
  -18.9544  -28.1605   22.2987 C   0  0  0  0  0  0  0  0  0  0  0  0
  -24.0588  -24.7918   21.9774 C   0  0  0  0  0  0  0  0  0  0  0  0
  -24.1163  -13.7509   21.0273 C   0  0  0  0  0  0  0  0  0  0  0  0
  -25.5569  -11.8233   20.8129 C   0  0  0  0  0  0  0  0  0  0  0  0
  -25.0644  -24.7020   21.0159 C   0  0  0  0  0  0  0  0  0  0  0  0
  -22.8164  -10.2070   21.9520 C   0  0  0  0  0  0  0  0  0  0  0  0
  -22.6180   -8.9112   22.4285 C   0  0  0  0  0  0  0  0  0  0  0  0
  -30.3809  -24.5016   16.5994 C   0  0  0  0  0  0  0  0  0  0  0  0
  -28.4019  -25.6087   17.4010 C   0  0  0  0  0  0  0  0  0  0  0  0
  -26.3971  -26.2723   22.2717 C   0  0  0  0  0  0  0  0  0  0  0  0
  -22.9400   -8.0415   20.1976 C   0  0  0  0  0  0  0  0  0  0  0  0
  -26.4251  -13.8845   21.7266 C   0  0  0  0  0  0  0  0  0  0  0  0
  -27.8725  -14.7523   23.6396 C   0  0  0  0  0  0  0  0  0  0  0  0
  -18.0891  -29.5597   24.0823 C   0  0  0  0  0  0  0  0  0  0  0  0
  -24.2105  -25.6323   23.0896 C   0  0  0  0  0  0  0  0  0  0  0  0
  -19.1842  -29.0690   23.3459 C   0  0  0  0  0  0  0  0  0  0  0  0
  -25.3931  -26.3691   23.2472 C   0  0  0  0  0  0  0  0  0  0  0  0
  -24.3071  -12.4213   20.6513 C   0  0  0  0  0  0  0  0  0  0  0  0
  -26.2325  -25.4445   21.1615 C   0  0  0  0  0  0  0  0  0  0  0  0
  -23.0765  -10.4201   20.5982 C   0  0  0  0  0  0  0  0  0  0  0  0
  -22.6798   -7.8284   21.5513 C   0  0  0  0  0  0  0  0  0  0  0  0
  -23.1383   -9.3374   19.7210 C   0  0  0  0  0  0  0  0  0  0  0  0
  -27.5195  -14.6398   22.2814 C   0  0  0  0  0  0  0  0  0  0  0  0
  -30.0744  -23.4533   17.4519 C   0  0  0  0  0  0  0  0  0  0  0  0
  -28.1839  -24.5107   18.2175 C   0  0  0  0  0  0  0  0  0  0  0  0
  -28.9733  -15.5737   23.6413 C   0  0  0  0  0  0  0  0  0  0  0  0
  -27.2602  -14.1665   24.7961 C   0  0  0  0  0  0  0  0  0  0  0  0
  -22.6643  -28.1746   24.2075 C   0  0  0  0  0  0  0  0  0  0  0  0
  -24.6892  -27.8175   26.7164 C   0  0  0  0  0  0  0  0  0  0  0  0
  -27.6639  -26.6278   27.8920 C   0  0  0  0  0  0  0  0  0  0  0  0
  -30.6695  -19.7350   19.7290 C   0  0  0  0  0  0  0  0  0  0  0  0
  -18.2651  -30.5719   25.1864 C   0  0  0  0  0  0  0  0  0  0  0  0
  -23.1277  -25.6976   24.1316 C   0  0  0  0  0  0  0  0  0  0  0  0
  -25.6135  -27.2706   24.4334 C   0  0  0  0  0  0  0  0  0  0  0  0
  -19.6979  -30.6647   25.7049 C   0  0  0  0  0  0  0  0  0  0  0  0
  -32.6795  -16.8908   20.9468 C   0  0  0  0  0  0  0  0  0  0  0  0
  -20.6830  -30.7328   24.5422 C   0  0  0  0  0  0  0  0  0  0  0  0
  -31.5903  -15.9793   21.5044 C   0  0  0  0  0  0  0  0  0  0  0  0
  -32.4457  -22.4762   17.7603 C   0  0  0  0  0  0  0  0  0  0  0  0
  -32.2010  -17.6760   19.7263 C   0  0  0  0  0  0  0  0  0  0  0  0
  -29.8598  -17.5377   20.5289 C   0  0  0  0  0  0  0  0  0  0  0  0
  -20.6056  -29.4680   23.6786 C   0  0  1  0  0  0  0  0  0  0  0  0
  -30.9804  -22.2684   17.4888 C   0  0  1  0  0  0  0  0  0  0  0  0
  -23.1724  -26.9777   24.9603 C   0  0  1  0  0  0  0  0  0  0  0  0
  -30.3074  -16.7764   21.7860 C   0  0  1  0  0  0  0  0  0  0  0  0
  -31.5788  -21.8473   18.8107 C   0  0  1  0  0  0  0  0  0  0  0  0
  -29.0578  -26.5218   29.9760 C   0  0  0  0  0  0  0  0  0  0  0  0
  -25.4780  -30.7402   26.3345 C   0  0  0  0  0  0  0  0  0  0  0  0
  -27.4901  -30.3111   27.7612 C   0  0  0  0  0  0  0  0  0  0  0  0
  -25.2030  -30.0368   28.7187 C   0  0  0  0  0  0  0  0  0  0  0  0
  -27.5914  -23.6694   27.9292 C   0  0  0  0  0  0  0  0  0  0  0  0
  -26.9832  -24.4893   19.1170 C   0  0  0  0  0  0  0  0  0  1  0  0
  -26.0654  -28.3334   27.0613 C   0  0  1  0  0  0  0  0  0  0  0  0
  -28.0069  -25.8196   29.1304 C   0  0  2  0  0  0  0  0  0  0  0  0
  -26.0545  -29.8399   27.4455 C   0  0  0  0  0  0  0  0  0  0  0  0
  -28.3302  -15.3343   21.4787 N   0  0  0  0  0  0  0  0  0  0  0  0
  -28.9942  -23.4295   18.2644 N   0  0  0  0  0  0  0  0  0  0  0  0
  -29.2035  -15.8912   22.3350 N   0  0  0  0  0  0  0  0  0  0  0  0
  -24.5230  -27.3053   25.4218 N   0  0  0  0  0  0  0  0  0  0  0  0
  -30.9379  -18.3805   19.9972 N   0  0  0  0  0  0  0  0  0  0  0  0
  -29.7570  -16.0482   24.6327 N   0  0  0  0  0  0  0  0  0  0  0  0
  -26.1369  -13.3481   24.6152 N   0  0  0  0  0  0  0  0  0  0  0  0
  -21.3016  -28.3739   24.3212 N   0  0  0  0  0  0  0  0  0  0  0  0
  -26.5810  -27.4543   28.1052 N   0  0  0  0  0  0  0  0  0  0  0  0
  -31.7074  -20.4548   19.1480 N   0  0  0  0  0  0  0  0  0  0  0  0
  -28.5324  -24.4793   28.7451 N   0  3  0  0  0  0  0  0  0  0  0  0
  -27.6864  -14.3763   25.9571 O   0  0  0  0  0  0  0  0  0  0  0  0
  -23.4505  -28.8670   23.5717 O   0  0  0  0  0  0  0  0  0  0  0  0
  -23.7965  -27.8607   27.5666 O   0  0  0  0  0  0  0  0  0  0  0  0
  -28.2960  -26.5379   26.8418 O   0  0  0  0  0  0  0  0  0  0  0  0
  -29.5823  -20.2654   19.9828 O   0  0  0  0  0  0  0  0  0  0  0  0
  -23.2740  -11.7071   20.1268 O   0  0  0  0  0  0  0  0  0  0  0  0
  -27.2153  -25.3592   20.2241 O   0  0  0  0  0  0  0  0  0  1  0  0
  -22.4908   -6.5840   22.0093 F   0  0  0  0  0  0  0  0  0  0  0  0
  -23.3890   -9.5357   18.4197 F   0  0  0  0  0  0  0  0  0  0  0  0
  1  2  1  0  0  0  0
  1  6  2  0  0  0  0
  2  7  2  0  0  0  0
  3 14  1  0  0  0  0
  3 15  2  0  0  0  0
  4  9  2  0  0  0  0
  4 18  1  0  0  0  0
  5 10  1  0  0  0  0
  5 18  2  0  0  0  0
  6 20  1  0  0  0  0
  7 22  1  0  0  0  0
  8 11  2  0  0  0  0
  8 21  1  0  0  0  0
  9 24  1  0  0  0  0
 10 24  2  0  0  0  0
 11 25  1  0  0  0  0
 12 13  2  0  0  0  0
 12 26  1  0  0  0  0
 13 27  1  0  0  0  0
 14 30  2  0  0  0  0
 15 31  1  0  0  0  0
 16 23  1  0  0  0  0
 16 25  2  0  0  0  0
 17 27  2  0  0  0  0
 17 28  1  0  0  0  0
 18 29  1  0  0  0  0
 19 29  1  0  0  0  0
 19 32  2  0  0  0  0
 19 33  1  0  0  0  0
 20 22  2  0  0  0  0
 20 38  1  0  0  0  0
 21 23  2  0  0  0  0
 21 39  1  0  0  0  0
 22 48  1  0  0  0  0
 23 40  1  0  0  0  0
 24 78  1  0  0  0  0
 25 79  1  0  0  0  0
 26 28  2  0  0  0  0
 26 78  1  0  0  0  0
 27 80  1  0  0  0  0
 28 81  1  0  0  0  0
 29 62  2  0  0  0  0
 30 49  1  0  0  0  0
 30 63  1  0  0  0  0
 31 58  1  0  0  0  0
 31 63  2  0  0  0  0
 32 64  1  0  0  0  0
 32 67  1  0  0  0  0
 33 68  1  0  0  0  0
 33 73  2  0  0  0  0
 34 50  1  0  0  0  0
 34 69  1  0  0  0  0
 34 74  2  0  0  0  0
 35 59  1  0  0  0  0
 35 65  1  0  0  0  0
 35 75  2  0  0  0  0
 36 60  1  0  0  0  0
 36 70  1  0  0  0  0
 36 76  2  0  0  0  0
 37 66  1  0  0  0  0
 37 71  1  0  0  0  0
 37 77  2  0  0  0  0
 38 41  1  0  0  0  0
 39 50  1  0  0  0  0
 40 65  1  0  0  0  0
 41 43  1  0  0  0  0
 42 44  1  0  0  0  0
 42 46  1  0  0  0  0
 43 48  1  0  0  0  0
 44 51  1  0  0  0  0
 45 49  1  0  0  0  0
 45 52  1  0  0  0  0
 46 66  1  0  0  0  0
 47 51  1  0  0  0  0
 47 66  1  0  0  0  0
 48 69  1  0  0  0  0
 49 52  1  0  0  0  0
 50 65  1  0  0  0  0
 51 64  1  0  0  0  0
 52 71  1  0  0  0  0
 53 60  1  0  0  0  0
 54 61  1  0  0  0  0
 55 61  1  0  0  0  0
 56 61  1  0  0  0  0
 57 72  1  0  0  0  0
 58 79  1  0  0  0  0
 59 61  1  0  0  0  0
 59 70  1  0  0  0  0
 60 72  1  0  0  0  0
 62 64  1  0  0  0  0
M  CHG  1  72   1
M  ISO  4  37 100  58 101  71 100  79 101
M  END
> <Batch ID>
0185

> <Smiles>
CNC(C)C(=O)NC(C(=O)N1Cc2cc([101O:1][101CH2:1]c3cccc(C4CC4[100NH:0][100C:0](=O)N4CCCC(n5nc(-c6ccc(Oc7ccc(F)cc7F)cc6)c(C(N)=O)c5N)C4)n3)ccc2CC1C(=O)NC1CCCc2ccccc21)C(C)(C)C

> <Shape>
0.201

> <Color>
0.089

> <Negative vol penalty>
0.000

$$$$

  -OEChem-04052323123D

 85 94  0     1  0  0  0  0  0999 V2000
  -26.4404  -33.7109   25.7293 C   0  0  0  0  0  0  0  0  0  0  0  0
  -27.2579  -32.6813   25.2746 C   0  0  0  0  0  0  0  0  0  0  0  0
  -26.9842  -13.0953   21.0255 C   0  0  0  0  0  0  0  0  0  0  0  0
  -26.8522  -13.4471   18.6389 C   0  0  0  0  0  0  0  0  0  0  0  0
  -25.0539  -33.5757   25.6717 C   0  0  0  0  0  0  0  0  0  0  0  0
  -26.6894  -31.5153   24.7630 C   0  0  0  0  0  0  0  0  0  0  0  0
  -28.8657  -28.0509   20.2058 C   0  0  0  0  0  0  0  0  0  0  0  0
  -26.3248  -11.8746   20.8821 C   0  0  0  0  0  0  0  0  0  0  0  0
  -26.1928  -12.2263   18.4954 C   0  0  0  0  0  0  0  0  0  0  0  0
  -29.6084  -26.8711   20.1968 C   0  0  0  0  0  0  0  0  0  0  0  0
  -23.1520  -10.7941   20.4463 C   0  0  0  0  0  0  0  0  0  0  0  0
  -22.1247  -10.5039   21.3440 C   0  0  0  0  0  0  0  0  0  0  0  0
  -27.5738  -25.5992   19.9487 C   0  0  0  0  0  0  0  0  0  0  0  0
  -23.3263   -8.5433   22.0853 C   0  0  0  0  0  0  0  0  0  0  0  0
  -27.2479  -13.8816   19.9039 C   0  0  0  0  0  0  0  0  0  0  0  0
  -29.3172  -15.3699   20.0079 C   0  0  0  0  0  0  0  0  0  0  0  0
  -24.4681  -32.4115   25.1502 C   0  0  0  0  0  0  0  0  0  0  0  0
  -27.4681  -28.0130   20.0970 C   0  0  0  0  0  0  0  0  0  0  0  0
  -25.2938  -31.3638   24.6996 C   0  0  0  0  0  0  0  0  0  0  0  0
  -26.8158  -26.7801   19.9540 C   0  0  0  0  0  0  0  0  0  0  0  0
  -25.9292  -11.4401   19.6171 C   0  0  0  0  0  0  0  0  0  0  0  0
  -28.9623  -25.6448   20.0712 C   0  0  0  0  0  0  0  0  0  0  0  0
  -24.2665   -9.9589   20.3680 C   0  0  0  0  0  0  0  0  0  0  0  0
  -22.2118   -9.3785   22.1636 C   0  0  0  0  0  0  0  0  0  0  0  0
  -24.3536   -8.8335   21.1875 C   0  0  0  0  0  0  0  0  0  0  0  0
  -27.9285  -15.1430   20.0515 C   0  0  0  0  0  0  0  0  0  0  0  0
  -29.4501  -16.7235   20.1992 C   0  0  0  0  0  0  0  0  0  0  0  0
  -30.8309  -22.2046   22.4748 C   0  0  0  0  0  0  0  0  0  0  0  0
  -29.6886  -23.8372   23.5074 C   0  0  0  0  0  0  0  0  0  0  0  0
  -29.9271  -23.8729   21.2761 C   0  0  0  0  0  0  0  0  0  1  0  0
  -30.3909  -14.4402   19.8119 C   0  0  0  0  0  0  0  0  0  0  0  0
  -25.0485  -28.8981   21.9587 C   0  0  0  0  0  0  0  0  0  0  0  0
  -23.2703  -28.0898   19.3689 C   0  0  0  0  0  0  0  0  0  0  0  0
  -23.0005  -26.2738   16.4921 C   0  0  0  0  0  0  0  0  0  0  0  0
  -25.9125  -20.5969   22.9576 C   0  0  0  0  0  0  0  0  0  0  0  0
  -22.9646  -32.2918   25.1521 C   0  0  0  0  0  0  0  0  0  0  0  0
  -26.6835  -29.2962   20.0814 C   0  0  0  0  0  0  0  0  0  0  0  0
  -25.3191  -26.6863   19.8136 C   0  0  0  0  0  0  0  0  0  0  0  0
  -22.4412  -31.1775   24.2496 C   0  0  0  0  0  0  0  0  0  0  0  0
  -27.1747  -20.8542   19.5253 C   0  0  0  0  0  0  0  0  0  0  0  0
  -23.2362  -29.8944   24.4697 C   0  0  0  0  0  0  0  0  0  0  0  0
  -27.5835  -19.4101   19.2549 C   0  0  0  0  0  0  0  0  0  0  0  0
  -23.2259  -22.3744   23.9076 C   0  0  0  0  0  0  0  0  0  0  0  0
  -25.9466  -20.9511   20.4312 C   0  0  0  0  0  0  0  0  0  0  0  0
  -23.7504  -22.0004   22.5178 C   0  0  0  0  0  0  0  0  0  0  0  0
  -26.4979  -18.7479   21.4290 C   0  0  0  0  0  0  0  0  0  0  0  0
  -24.7147  -30.0938   24.1150 C   0  0  1  0  0  0  0  0  0  0  0  0
  -25.2233  -29.1086   20.4813 C   0  0  1  0  0  0  0  0  0  0  0  0
  -27.7697  -18.6478   20.5751 C   0  0  1  0  0  0  0  0  0  0  0  0
  -24.6660  -22.2708   24.4325 C   0  0  2  0  0  0  0  0  0  0  0  0
  -31.6145  -20.9377   22.5391 C   0  0  0  0  0  0  0  0  0  0  0  0
  -21.4141  -25.7916   14.6084 C   0  0  0  0  0  0  0  0  0  0  0  0
  -21.6365  -26.2864   21.2096 C   0  0  0  0  0  0  0  0  0  0  0  0
  -20.7302  -25.1463   19.1732 C   0  0  0  0  0  0  0  0  0  0  0  0
  -20.2868  -27.5731   19.5431 C   0  0  0  0  0  0  0  0  0  0  0  0
  -24.8858  -27.3429   14.4767 C   0  0  0  0  0  0  0  0  0  0  0  0
  -29.1567  -24.4531   24.7678 C   0  0  0  0  0  0  0  0  0  0  0  0
  -25.4527  -23.5582   24.5807 C   0  0  0  0  0  0  0  0  0  0  0  0
  -26.9515  -23.2944   24.5852 C   0  0  0  0  0  0  0  0  0  0  0  0
  -22.6086  -26.8244   18.8791 C   0  0  1  0  0  0  0  0  0  0  0  0
  -22.5621  -26.6639   15.0920 C   0  0  2  0  0  0  0  0  0  0  0  0
  -21.3436  -26.4589   19.7058 C   0  0  0  0  0  0  0  0  0  0  0  0
  -27.2292  -16.2627   20.2547 N   0  0  0  0  0  0  0  0  0  0  0  0
  -30.3860  -22.6976   23.6418 N   0  0  0  0  0  0  0  0  0  0  0  0
  -30.6410  -22.7358   21.2562 N   0  0  0  0  0  0  0  0  0  0  0  0
  -29.4198  -24.4813   22.3603 N   0  0  0  0  0  0  0  0  0  0  0  0
  -28.1824  -17.2062   20.3406 N   0  0  0  0  0  0  0  0  0  0  0  0
  -24.5955  -27.9685   19.8103 N   0  0  0  0  0  0  0  0  0  0  0  0
  -26.0973  -20.1429   21.6471 N   0  0  0  0  0  0  0  0  0  0  0  0
  -24.9819  -21.5885   23.1755 N   0  0  0  0  0  0  0  0  0  0  0  0
  -30.5266  -17.5359   20.2587 N   0  0  0  0  0  0  0  0  0  0  0  0
  -30.0777  -13.0862   19.6304 N   0  0  0  0  0  0  0  0  0  0  0  0
  -24.8982  -30.0673   22.6797 N   0  0  0  0  0  0  0  0  0  0  0  0
  -22.3561  -27.0205   17.4556 N   0  0  0  0  0  0  0  0  0  0  0  0
  -23.6961  -26.5211   14.1356 N   0  3  0  0  0  0  0  0  0  0  0  0
  -27.6730  -24.5754   24.7761 N   0  3  0  0  0  0  0  0  0  0  0  0
  -31.5935  -14.7971   19.8145 O   0  0  0  0  0  0  0  0  0  0  0  0
  -25.0485  -27.7591   22.4108 O   0  0  0  0  0  0  0  0  0  0  0  0
  -22.6371  -29.1483   19.3536 O   0  0  0  0  0  0  0  0  0  0  0  0
  -23.8287  -25.3921   16.7094 O   0  0  0  0  0  0  0  0  0  0  0  0
  -26.5356  -20.1124   23.9114 O   0  0  0  0  0  0  0  0  0  0  0  0
  -25.2859  -10.2488   19.4767 O   0  0  0  0  0  0  0  0  0  0  0  0
  -29.6941  -24.4769   20.0628 O   0  0  0  0  0  0  0  0  0  1  0  0
  -21.2259   -9.1008   23.0267 F   0  0  0  0  0  0  0  0  0  0  0  0
  -25.4224   -8.0281   21.1176 F   0  0  0  0  0  0  0  0  0  0  0  0
  1  2  1  0  0  0  0
  1  5  2  0  0  0  0
  2  6  2  0  0  0  0
  3  8  2  0  0  0  0
  3 15  1  0  0  0  0
  4  9  1  0  0  0  0
  4 15  2  0  0  0  0
  5 17  1  0  0  0  0
  6 19  1  0  0  0  0
  7 10  2  0  0  0  0
  7 18  1  0  0  0  0
  8 21  1  0  0  0  0
  9 21  2  0  0  0  0
 10 22  1  0  0  0  0
 11 12  2  0  0  0  0
 11 23  1  0  0  0  0
 12 24  1  0  0  0  0
 13 20  1  0  0  0  0
 13 22  2  0  0  0  0
 14 24  2  0  0  0  0
 14 25  1  0  0  0  0
 15 26  1  0  0  0  0
 16 26  1  0  0  0  0
 16 27  2  0  0  0  0
 16 31  1  0  0  0  0
 17 19  2  0  0  0  0
 17 36  1  0  0  0  0
 18 20  2  0  0  0  0
 18 37  1  0  0  0  0
 19 47  1  0  0  0  0
 20 38  1  0  0  0  0
 21 82  1  0  0  0  0
 22 83  1  0  0  0  0
 23 25  2  0  0  0  0
 23 82  1  0  0  0  0
 24 84  1  0  0  0  0
 25 85  1  0  0  0  0
 26 63  2  0  0  0  0
 27 67  1  0  0  0  0
 27 71  1  0  0  0  0
 28 51  1  0  0  0  0
 28 64  1  0  0  0  0
 28 65  2  0  0  0  0
 29 57  1  0  0  0  0
 29 64  2  0  0  0  0
 29 66  1  0  0  0  0
 30 65  1  0  0  0  0
 30 66  2  0  0  0  0
 30 83  1  0  0  0  0
 31 72  1  0  0  0  0
 31 77  2  0  0  0  0
 32 48  1  0  0  0  0
 32 73  1  0  0  0  0
 32 78  2  0  0  0  0
 33 60  1  0  0  0  0
 33 68  1  0  0  0  0
 33 79  2  0  0  0  0
 34 61  1  0  0  0  0
 34 74  1  0  0  0  0
 34 80  2  0  0  0  0
 35 69  1  0  0  0  0
 35 70  1  0  0  0  0
 35 81  2  0  0  0  0
 36 39  1  0  0  0  0
 37 48  1  0  0  0  0
 38 68  1  0  0  0  0
 39 41  1  0  0  0  0
 40 42  1  0  0  0  0
 40 44  1  0  0  0  0
 41 47  1  0  0  0  0
 42 49  1  0  0  0  0
 43 45  1  0  0  0  0
 43 50  1  0  0  0  0
 44 69  1  0  0  0  0
 45 70  1  0  0  0  0
 46 49  1  0  0  0  0
 46 69  1  0  0  0  0
 47 73  1  0  0  0  0
 48 68  1  0  0  0  0
 49 67  1  0  0  0  0
 50 58  1  0  0  0  0
 50 70  1  0  0  0  0
 52 61  1  0  0  0  0
 53 62  1  0  0  0  0
 54 62  1  0  0  0  0
 55 62  1  0  0  0  0
 56 75  1  0  0  0  0
 57 76  1  0  0  0  0
 58 59  1  0  0  0  0
 59 76  1  0  0  0  0
 60 62  1  0  0  0  0
 60 74  1  0  0  0  0
 61 75  1  0  0  0  0
 63 67  1  0  0  0  0
M  CHG  2  75   1  76   1
M  ISO  4  30 101  35 100  70 100  83 101
M  END
> <Batch ID>
0185

> <Smiles>
CNC(C)C(=O)NC(C(=O)N1Cc2cc([101O:1][101c:1]3nc(C)nc(CNCCC4CC[100N:0]4[100C:0](=O)N4CCCC(n5nc(-c6ccc(Oc7ccc(F)cc7F)cc6)c(C(N)=O)c5N)C4)n3)ccc2CC1C(=O)NC1CCCc2ccccc21)C(C)(C)C

> <Shape>
0.239

> <Color>
0.068

> <Negative vol penalty>
0.000

$$$$

  -OEChem-04052323123D

 86 95  0     1  0  0  0  0  0999 V2000
  -28.9490  -37.5653   23.5944 C   0  0  0  0  0  0  0  0  0  0  0  0
  -29.2264  -36.2154   23.4033 C   0  0  0  0  0  0  0  0  0  0  0  0
  -24.5214   -9.7087   21.4790 C   0  0  0  0  0  0  0  0  0  0  0  0
  -24.8578  -10.8202   23.5976 C   0  0  0  0  0  0  0  0  0  0  0  0
  -27.8282  -37.9481   24.3300 C   0  0  0  0  0  0  0  0  0  0  0  0
  -28.3836  -35.2476   23.9487 C   0  0  0  0  0  0  0  0  0  0  0  0
  -26.9717  -29.8051   21.5216 C   0  0  0  0  0  0  0  0  0  0  0  0
  -24.2210   -8.5227   22.1489 C   0  0  0  0  0  0  0  0  0  0  0  0
  -24.5574   -9.6342   24.2676 C   0  0  0  0  0  0  0  0  0  0  0  0
  -27.4603  -28.5199   21.7525 C   0  0  0  0  0  0  0  0  0  0  0  0
  -21.5798   -7.1842   23.7815 C   0  0  0  0  0  0  0  0  0  0  0  0
  -20.4733   -6.4557   23.3452 C   0  0  0  0  0  0  0  0  0  0  0  0
  -25.6384  -28.1080   23.2790 C   0  0  0  0  0  0  0  0  0  0  0  0
  -21.9034   -4.5667   22.8722 C   0  0  0  0  0  0  0  0  0  0  0  0
  -27.3363  -21.2969   20.9691 C   0  0  0  0  0  0  0  0  0  0  0  0
  -24.8398  -10.8575   22.2034 C   0  0  0  0  0  0  0  0  0  0  0  0
  -24.2497  -13.0929   21.1253 C   0  0  0  0  0  0  0  0  0  0  0  0
  -26.9659  -36.9846   24.8765 C   0  0  0  0  0  0  0  0  0  0  0  0
  -25.8169  -30.2560   22.1771 C   0  0  0  0  0  0  0  0  0  0  0  0
  -27.2509  -35.6180   24.6935 C   0  0  0  0  0  0  0  0  0  0  0  0
  -25.1357  -29.3984   23.0527 C   0  0  0  0  0  0  0  0  0  0  0  0
  -28.3672  -22.0592   20.4587 C   0  0  0  0  0  0  0  0  0  0  0  0
  -24.2390   -8.4854   23.5432 C   0  0  0  0  0  0  0  0  0  0  0  0
  -26.7953  -27.6721   22.6335 C   0  0  0  0  0  0  0  0  0  0  0  0
  -22.8482   -6.6041   23.7630 C   0  0  0  0  0  0  0  0  0  0  0  0
  -20.6350   -5.1469   22.8906 C   0  0  0  0  0  0  0  0  0  0  0  0
  -23.0100   -5.2953   23.3084 C   0  0  0  0  0  0  0  0  0  0  0  0
  -25.1508  -12.0828   21.5119 C   0  0  0  0  0  0  0  0  0  0  0  0
  -29.4748  -21.3560   20.0311 C   0  0  0  0  0  0  0  0  0  0  0  0
  -25.0349  -14.0352   20.5072 C   0  0  0  0  0  0  0  0  0  0  0  0
  -28.5074  -19.3820   20.6099 C   0  0  0  0  0  0  0  0  0  0  0  0
  -22.8299  -13.1723   21.3085 C   0  0  0  0  0  0  0  0  0  0  0  0
  -25.1698  -32.6013   24.2226 C   0  0  0  0  0  0  0  0  0  0  0  0
  -22.1097  -31.6245   23.7711 C   0  0  0  0  0  0  0  0  0  0  0  0
  -19.9694  -29.1197   22.8811 C   0  0  0  0  0  0  0  0  0  0  0  0
  -29.6416  -17.1552   20.2920 C   0  0  0  0  0  0  0  0  0  0  0  0
  -25.7927  -37.4464   25.7042 C   0  0  0  0  0  0  0  0  0  0  0  0
  -25.2877  -31.6357   21.8967 C   0  0  0  0  0  0  0  0  0  0  0  0
  -23.8804  -29.8273   23.7659 C   0  0  0  0  0  0  0  0  0  0  0  0
  -24.7432  -36.3615   25.9317 C   0  0  0  0  0  0  0  0  0  0  0  0
  -29.8710  -13.8353   19.0260 C   0  0  0  0  0  0  0  0  0  0  0  0
  -25.4089  -35.0533   26.3469 C   0  0  0  0  0  0  0  0  0  0  0  0
  -28.5893  -13.1665   19.5281 C   0  0  0  0  0  0  0  0  0  0  0  0
  -29.1050  -25.0784   23.6499 C   0  0  0  0  0  0  0  0  0  0  0  0
  -30.4394  -14.8140   20.0521 C   0  0  0  0  0  0  0  0  0  0  0  0
  -28.2089  -15.1548   21.0411 C   0  0  0  0  0  0  0  0  0  0  0  0
  -28.7264  -23.8541   22.8409 C   0  0  0  0  0  0  0  0  0  0  0  0
  -29.0363  -25.7691   21.3454 C   0  0  0  0  0  0  0  0  0  0  0  0
  -26.3468  -34.5387   25.2483 C   0  0  1  0  0  0  0  0  0  0  0  0
  -24.3930  -32.1702   23.0108 C   0  0  1  0  0  0  0  0  0  0  0  0
  -27.5635  -14.2085   20.0155 C   0  0  2  0  0  0  0  0  0  0  0  0
  -28.6804  -26.2270   22.7512 C   0  0  1  0  0  0  0  0  0  1  0  0
  -17.5237  -28.6089   22.6466 C   0  0  0  0  0  0  0  0  0  0  0  0
  -21.8723  -31.3805   26.8033 C   0  0  0  0  0  0  0  0  0  0  0  0
  -19.8126  -29.9990   26.4611 C   0  0  0  0  0  0  0  0  0  0  0  0
  -19.8693  -32.3661   25.6761 C   0  0  0  0  0  0  0  0  0  0  0  0
  -20.2413  -28.5804   19.9839 C   0  0  0  0  0  0  0  0  0  0  0  0
  -28.2644  -23.5542   20.3842 C   0  0  0  0  0  0  0  0  0  0  0  0
  -30.6520  -22.0767   19.4618 C   0  0  0  0  0  0  0  0  0  0  0  0
  -21.2014  -30.6150   24.4306 C   0  0  1  0  0  0  0  0  0  0  0  0
  -18.7781  -29.0995   21.9405 C   0  0  2  0  0  0  0  0  0  0  0  0
  -20.7136  -31.0824   25.8310 C   0  0  0  0  0  0  0  0  0  0  0  0
  -27.3730  -19.9512   21.0599 N   0  0  0  0  0  0  0  0  0  0  0  0
  -26.4119  -12.3575   21.1681 N   0  0  0  0  0  0  0  0  0  0  0  0
  -29.5792  -20.0122   20.0924 N   0  0  0  0  0  0  0  0  0  0  0  0
  -26.3088  -13.5509   20.5589 N   0  0  0  0  0  0  0  0  0  0  0  0
  -23.4060  -31.1878   23.4635 N   0  0  0  0  0  0  0  0  0  0  0  0
  -29.4127  -15.7736   20.4643 N   0  0  0  0  0  0  0  0  0  0  0  0
  -24.7529  -15.2225   19.9299 N   0  0  0  0  0  0  0  0  0  0  0  0
  -22.1808  -12.1174   21.9642 N   0  0  0  0  0  0  0  0  0  0  0  0
  -28.5817  -17.9693   20.6900 N   0  0  0  0  0  0  0  0  0  0  0  0
  -25.5867  -33.9182   24.1845 N   0  0  0  0  0  0  0  0  0  0  0  0
  -20.1260  -30.3516   23.4806 N   0  0  0  0  0  0  0  0  0  0  0  0
  -29.0797  -24.2500   21.4263 N   0  3  2  0  0  0  0  0  0  0  0  0
  -19.0476  -28.2008   20.7826 N   0  3  0  0  0  0  0  0  0  0  0  0
  -22.1545  -14.1423   20.8883 O   0  0  0  0  0  0  0  0  0  0  0  0
  -25.3744  -31.7990   25.1260 O   0  0  0  0  0  0  0  0  0  0  0  0
  -21.6824  -32.7565   23.5311 O   0  0  0  0  0  0  0  0  0  0  0  0
  -20.6869  -28.1396   23.0685 O   0  0  0  0  0  0  0  0  0  0  0  0
  -30.6892  -17.5831   19.8005 O   0  0  0  0  0  0  0  0  0  0  0  0
  -23.9457   -7.3284   24.1972 O   0  0  0  0  0  0  0  0  0  0  0  0
  -27.2704  -26.4174   22.8612 O   0  0  0  0  0  0  0  0  0  1  0  0
  -19.5721   -4.4469   22.4731 F   0  0  0  0  0  0  0  0  0  0  0  0
  -24.2259   -4.7322   23.2894 F   0  0  0  0  0  0  0  0  0  0  0  0
  -31.6361  -21.2026   19.1263 F   0  0  0  0  0  0  0  0  0  0  0  0
  -31.1854  -22.9261   20.3778 F   0  0  0  0  0  0  0  0  0  0  0  0
  1  2  1  0  0  0  0
  1  5  2  0  0  0  0
  2  6  2  0  0  0  0
  3  8  2  0  0  0  0
  3 16  1  0  0  0  0
  4  9  1  0  0  0  0
  4 16  2  0  0  0  0
  5 18  1  0  0  0  0
  6 20  1  0  0  0  0
  7 10  2  0  0  0  0
  7 19  1  0  0  0  0
  8 23  1  0  0  0  0
  9 23  2  0  0  0  0
 10 24  1  0  0  0  0
 11 12  2  0  0  0  0
 11 25  1  0  0  0  0
 12 26  1  0  0  0  0
 13 21  1  0  0  0  0
 13 24  2  0  0  0  0
 14 26  2  0  0  0  0
 14 27  1  0  0  0  0
 15 22  1  0  0  0  0
 15 63  2  0  0  0  0
 16 28  1  0  0  0  0
 17 28  1  0  0  0  0
 17 30  2  0  0  0  0
 17 32  1  0  0  0  0
 18 20  2  0  0  0  0
 18 37  1  0  0  0  0
 19 21  2  0  0  0  0
 19 38  1  0  0  0  0
 20 49  1  0  0  0  0
 21 39  1  0  0  0  0
 22 29  2  0  0  0  0
 22 58  1  0  0  0  0
 23 81  1  0  0  0  0
 24 82  1  0  0  0  0
 25 27  2  0  0  0  0
 25 81  1  0  0  0  0
 26 83  1  0  0  0  0
 27 84  1  0  0  0  0
 28 64  2  0  0  0  0
 29 59  1  0  0  0  0
 29 65  1  0  0  0  0
 30 66  1  0  0  0  0
 30 69  1  0  0  0  0
 31 63  1  0  0  0  0
 31 65  2  0  0  0  0
 31 71  1  0  0  0  0
 32 70  1  0  0  0  0
 32 76  2  0  0  0  0
 33 50  1  0  0  0  0
 33 72  1  0  0  0  0
 33 77  2  0  0  0  0
 34 60  1  0  0  0  0
 34 67  1  0  0  0  0
 34 78  2  0  0  0  0
 35 61  1  0  0  0  0
 35 73  1  0  0  0  0
 35 79  2  0  0  0  0
 36 68  1  0  0  0  0
 36 71  1  0  0  0  0
 36 80  2  0  0  0  0
 37 40  1  0  0  0  0
 38 50  1  0  0  0  0
 39 67  1  0  0  0  0
 40 42  1  0  0  0  0
 41 43  1  0  0  0  0
 41 45  1  0  0  0  0
 42 49  1  0  0  0  0
 43 51  1  0  0  0  0
 44 47  1  0  0  0  0
 44 52  1  0  0  0  0
 45 68  1  0  0  0  0
 46 51  1  0  0  0  0
 46 68  1  0  0  0  0
 47 74  1  0  0  0  0
 48 52  1  0  0  0  0
 48 74  1  0  0  0  0
 49 72  1  0  0  0  0
 50 67  1  0  0  0  0
 51 66  1  0  0  0  0
 52 82  1  0  0  0  0
 53 61  1  0  0  0  0
 54 62  1  0  0  0  0
 55 62  1  0  0  0  0
 56 62  1  0  0  0  0
 57 75  1  0  0  0  0
 58 74  1  0  0  0  0
 59 85  1  0  0  0  0
 59 86  1  0  0  0  0
 60 62  1  0  0  0  0
 60 73  1  0  0  0  0
 61 75  1  0  0  0  0
 64 66  1  0  0  0  0
M  CHG  2  74   1  75   1
M  ISO  4  36 100  52 101  71 100  82 101
M  END
> <Batch ID>
0185

> <Smiles>
CNC(C)C(=O)NC(C(=O)N1Cc2cc([101O:1][101CH:1]3CCN(Cc4cnc([100NH:0][100C:0](=O)N5CCCC(n6nc(-c7ccc(Oc8ccc(F)cc8F)cc7)c(C(N)=O)c6N)C5)nc4C(F)F)C3)ccc2CC1C(=O)NC1CCCc2ccccc21)C(C)(C)C

> <Shape>
0.334

> <Color>
0.131

> <Negative vol penalty>
0.000

$$$$

  -OEChem-04052323123D

 79 87  0     1  0  0  0  0  0999 V2000
  -27.7748  -30.0573   14.0892 C   0  0  0  0  0  0  0  0  0  0  0  0
  -28.0873  -28.7366   14.3949 C   0  0  0  0  0  0  0  0  0  0  0  0
  -23.4334   -9.6343   20.6114 C   0  0  0  0  0  0  0  0  0  0  0  0
  -23.3349  -11.3406   22.3190 C   0  0  0  0  0  0  0  0  0  0  0  0
  -27.6334  -30.9937   15.1124 C   0  0  0  0  0  0  0  0  0  0  0  0
  -28.2597  -28.3518   15.7241 C   0  0  0  0  0  0  0  0  0  0  0  0
  -26.7720  -22.9600   18.2183 C   0  0  0  0  0  0  0  0  0  0  0  0
  -22.4825   -8.8855   21.3047 C   0  0  0  0  0  0  0  0  0  0  0  0
  -22.3840  -10.5918   23.0123 C   0  0  0  0  0  0  0  0  0  0  0  0
  -27.5237  -21.8232   18.5124 C   0  0  0  0  0  0  0  0  0  0  0  0
  -22.4037   -6.8296   23.9864 C   0  0  0  0  0  0  0  0  0  0  0  0
  -22.6367   -5.4620   24.1313 C   0  0  0  0  0  0  0  0  0  0  0  0
  -27.7900  -22.5942   20.7826 C   0  0  0  0  0  0  0  0  0  0  0  0
  -20.5807   -4.9871   22.9545 C   0  0  0  0  0  0  0  0  0  0  0  0
  -23.8597  -10.8618   21.1185 C   0  0  0  0  0  0  0  0  0  0  0  0
  -24.6027  -12.6100   19.4158 C   0  0  0  0  0  0  0  0  0  0  0  0
  -27.7946  -30.6181   16.4554 C   0  0  0  0  0  0  0  0  0  0  0  0
  -26.5324  -23.9293   19.2028 C   0  0  0  0  0  0  0  0  0  0  0  0
  -28.1216  -29.2844   16.7661 C   0  0  0  0  0  0  0  0  0  0  0  0
  -27.0328  -23.7411   20.4991 C   0  0  0  0  0  0  0  0  0  0  0  0
  -21.9578   -9.3643   22.5052 C   0  0  0  0  0  0  0  0  0  0  0  0
  -28.0353  -21.6416   19.7939 C   0  0  0  0  0  0  0  0  0  0  0  0
  -21.2592   -7.2759   23.3256 C   0  0  0  0  0  0  0  0  0  0  0  0
  -21.7252   -4.5407   23.6153 C   0  0  0  0  0  0  0  0  0  0  0  0
  -20.3477   -6.3547   22.8096 C   0  0  0  0  0  0  0  0  0  0  0  0
  -24.8423  -11.6355   20.4031 C   0  0  0  0  0  0  0  0  0  0  0  0
  -25.8536  -13.0462   19.0532 C   0  0  0  0  0  0  0  0  0  0  0  0
  -23.3605  -13.0790   18.8748 C   0  0  0  0  0  0  0  0  0  0  0  0
  -27.2514  -27.0069   19.5426 C   0  0  0  0  0  0  0  0  0  0  0  0
  -25.3777  -26.7526   22.1783 C   0  0  0  0  0  0  0  0  0  0  0  0
  -24.0261  -24.7518   24.5901 C   0  0  0  0  0  0  0  0  0  0  0  0
  -30.9866  -14.6535   20.3473 C   0  0  0  0  0  0  0  0  0  0  0  0
  -27.6784  -31.6760   17.5241 C   0  0  0  0  0  0  0  0  0  0  0  0
  -25.6971  -25.1369   18.8767 C   0  0  0  0  0  0  0  0  0  0  0  0
  -26.7869  -24.7421   21.5972 C   0  0  0  0  0  0  0  0  0  0  0  0
  -27.5084  -31.1057   18.9298 C   0  0  0  0  0  0  0  0  0  0  0  0
  -30.4304  -11.2099   20.1007 C   0  0  0  0  0  0  0  0  0  0  0  0
  -28.5117  -29.9833   19.1755 C   0  0  0  0  0  0  0  0  0  0  0  0
  -28.9095  -11.0777   20.1000 C   0  0  0  0  0  0  0  0  0  0  0  0
  -30.8773  -12.2933   21.0728 C   0  0  0  0  0  0  0  0  0  0  0  0
  -29.8357  -16.2606   21.9574 C   0  0  0  0  0  0  0  0  0  0  0  0
  -28.7530  -13.5347   20.7591 C   0  0  0  0  0  0  0  0  0  0  0  0
  -30.1362  -17.7154   22.2405 C   0  0  0  0  0  0  0  0  0  0  0  0
  -28.2920  -28.8230   18.1973 C   0  0  1  0  0  0  0  0  0  0  0  0
  -25.9492  -26.3100   19.8189 C   0  0  1  0  0  0  0  0  0  0  0  0
  -28.2468  -12.4328   19.8050 C   0  0  2  0  0  0  0  0  0  0  0  0
  -31.0357  -17.1692   20.0626 C   0  0  0  0  0  0  0  0  0  0  0  0
  -32.5585  -17.3509   20.1627 C   0  0  0  0  0  0  0  0  0  0  0  0
  -30.5506  -17.2388   18.6119 C   0  0  0  0  0  0  0  0  0  0  0  0
  -22.5674  -24.8364   26.6303 C   0  0  0  0  0  0  0  0  0  0  0  0
  -27.6973  -27.9126   23.7857 C   0  0  0  0  0  0  0  0  0  0  0  0
  -26.5701  -27.0989   25.8679 C   0  0  0  0  0  0  0  0  0  0  0  0
  -25.4443  -28.7917   24.4224 C   0  0  0  0  0  0  0  0  0  0  0  0
  -22.0106  -22.9639   23.3654 C   0  0  0  0  0  0  0  0  0  0  0  0
  -30.8869  -19.6646   20.8346 C   0  0  0  0  0  0  0  0  0  0  0  0
  -29.7739  -20.6622   21.0878 C   0  0  0  0  0  0  0  0  0  1  0  0
  -25.6126  -26.3979   23.6268 C   0  0  1  0  0  0  0  0  0  0  0  0
  -22.6099  -24.6336   25.1237 C   0  0  2  0  0  0  0  0  0  0  0  0
  -26.3375  -27.5322   24.4047 C   0  0  0  0  0  0  0  0  0  0  0  0
  -26.1432  -11.4624   20.6517 N   0  0  0  0  0  0  0  0  0  0  0  0
  -26.7322  -12.3340   19.8154 N   0  0  0  0  0  0  0  0  0  0  0  0
  -25.9697  -25.9095   21.2272 N   0  0  0  0  0  0  0  0  0  0  0  0
  -30.2201  -13.5713   20.7992 N   0  0  0  0  0  0  0  0  0  0  0  0
  -30.5766  -15.9359   20.7372 N   0  0  0  0  0  0  0  0  0  0  0  0
  -26.2767  -13.9656   18.1599 N   0  0  0  0  0  0  0  0  0  0  0  0
  -22.1685  -12.5238   19.3598 N   0  0  0  0  0  0  0  0  0  0  0  0
  -27.1593  -28.0220   18.6095 N   0  0  0  0  0  0  0  0  0  0  0  0
  -24.3099  -26.0356   24.1747 N   0  0  0  0  0  0  0  0  0  0  0  0
  -30.3222  -18.2796   20.8535 N   0  3  2  0  0  0  0  0  0  0  0  0
  -22.0507  -23.2872   24.8148 N   0  3  0  0  0  0  0  0  0  0  0  0
  -23.3098  -13.9525   17.9760 O   0  0  0  0  0  0  0  0  0  0  0  0
  -28.2643  -26.6510   20.1333 O   0  0  0  0  0  0  0  0  0  0  0  0
  -24.6884  -27.7372   21.9010 O   0  0  0  0  0  0  0  0  0  0  0  0
  -24.8042  -23.8012   24.5496 O   0  0  0  0  0  0  0  0  0  0  0  0
  -32.0052  -14.4649   19.6716 O   0  0  0  0  0  0  0  0  0  0  0  0
  -21.0297   -8.6340   23.1819 O   0  0  0  0  0  0  0  0  0  0  0  0
  -28.7752  -20.5253   20.0856 O   0  0  0  0  0  0  0  0  0  1  0  0
  -21.9499   -3.2274   23.7532 F   0  0  0  0  0  0  0  0  0  0  0  0
  -19.2470   -6.7775   22.1728 F   0  0  0  0  0  0  0  0  0  0  0  0
  1  2  1  0  0  0  0
  1  5  2  0  0  0  0
  2  6  2  0  0  0  0
  3  8  2  0  0  0  0
  3 15  1  0  0  0  0
  4  9  1  0  0  0  0
  4 15  2  0  0  0  0
  5 17  1  0  0  0  0
  6 19  1  0  0  0  0
  7 10  2  0  0  0  0
  7 18  1  0  0  0  0
  8 21  1  0  0  0  0
  9 21  2  0  0  0  0
 10 22  1  0  0  0  0
 11 12  2  0  0  0  0
 11 23  1  0  0  0  0
 12 24  1  0  0  0  0
 13 20  1  0  0  0  0
 13 22  2  0  0  0  0
 14 24  2  0  0  0  0
 14 25  1  0  0  0  0
 15 26  1  0  0  0  0
 16 26  1  0  0  0  0
 16 27  2  0  0  0  0
 16 28  1  0  0  0  0
 17 19  2  0  0  0  0
 17 33  1  0  0  0  0
 18 20  2  0  0  0  0
 18 34  1  0  0  0  0
 19 44  1  0  0  0  0
 20 35  1  0  0  0  0
 21 76  1  0  0  0  0
 22 77  1  0  0  0  0
 23 25  2  0  0  0  0
 23 76  1  0  0  0  0
 24 78  1  0  0  0  0
 25 79  1  0  0  0  0
 26 60  2  0  0  0  0
 27 61  1  0  0  0  0
 27 65  1  0  0  0  0
 28 66  1  0  0  0  0
 28 71  2  0  0  0  0
 29 45  1  0  0  0  0
 29 67  1  0  0  0  0
 29 72  2  0  0  0  0
 30 57  1  0  0  0  0
 30 62  1  0  0  0  0
 30 73  2  0  0  0  0
 31 58  1  0  0  0  0
 31 68  1  0  0  0  0
 31 74  2  0  0  0  0
 32 63  1  0  0  0  0
 32 64  1  0  0  0  0
 32 75  2  0  0  0  0
 33 36  1  0  0  0  0
 34 45  1  0  0  0  0
 35 62  1  0  0  0  0
 36 38  1  0  0  0  0
 37 39  1  0  0  0  0
 37 40  1  0  0  0  0
 38 44  1  0  0  0  0
 39 46  1  0  0  0  0
 40 63  1  0  0  0  0
 41 43  1  0  0  0  0
 41 64  1  0  0  0  0
 42 46  1  0  0  0  0
 42 63  1  0  0  0  0
 43 69  1  0  0  0  0
 44 67  1  0  0  0  0
 45 62  1  0  0  0  0
 46 61  1  0  0  0  0
 47 48  1  0  0  0  0
 47 49  1  0  0  0  0
 47 64  1  0  0  0  0
 47 69  1  0  0  0  0
 50 58  1  0  0  0  0
 51 59  1  0  0  0  0
 52 59  1  0  0  0  0
 53 59  1  0  0  0  0
 54 70  1  0  0  0  0
 55 56  1  0  0  0  0
 55 69  1  0  0  0  0
 56 77  1  0  0  0  0
 57 59  1  0  0  0  0
 57 68  1  0  0  0  0
 58 70  1  0  0  0  0
 60 61  1  0  0  0  0
M  CHG  2  69   1  70   1
M  ISO  4  32 100  56 101  64 100  77 101
M  END
> <Batch ID>
0185

> <Smiles>
CNC(C)C(=O)NC(C(=O)N1Cc2cc([101O:1][101CH2:1]CN3CC[100N:0]([100C:0](=O)N4CCCC(n5nc(-c6ccc(Oc7ccc(F)cc7F)cc6)c(C(N)=O)c5N)C4)C3(C)C)ccc2CC1C(=O)NC1CCCc2ccccc21)C(C)(C)C

> <Shape>
0.201

> <Color>
0.096

> <Negative vol penalty>
0.000

$$$$

  -OEChem-04052323123D

 80 89  0     1  0  0  0  0  0999 V2000
  -24.8374  -19.9229   28.1181 C   0  0  0  0  0  0  0  0  0  0  0  0
  -25.7105  -20.4918   27.1964 C   0  0  0  0  0  0  0  0  0  0  0  0
  -24.1625  -14.6091   21.3354 C   0  0  0  0  0  0  0  0  0  0  0  0
  -25.9815  -14.7176   19.7491 C   0  0  0  0  0  0  0  0  0  0  0  0
  -23.4601  -20.0363   27.9338 C   0  0  0  0  0  0  0  0  0  0  0  0
  -25.2067  -21.1735   26.0893 C   0  0  0  0  0  0  0  0  0  0  0  0
  -27.6346  -26.1011   23.3818 C   0  0  0  0  0  0  0  0  0  0  0  0
  -24.3892  -13.2429   21.5020 C   0  0  0  0  0  0  0  0  0  0  0  0
  -26.2082  -13.3514   19.9157 C   0  0  0  0  0  0  0  0  0  0  0  0
  -28.4303  -26.2512   22.2468 C   0  0  0  0  0  0  0  0  0  0  0  0
  -23.7009  -10.3831   19.8371 C   0  0  0  0  0  0  0  0  0  0  0  0
  -22.5913   -9.5379   19.8364 C   0  0  0  0  0  0  0  0  0  0  0  0
  -26.4614  -26.7265   20.9367 C   0  0  0  0  0  0  0  0  0  0  0  0
  -23.1456   -8.8084   22.0720 C   0  0  0  0  0  0  0  0  0  0  0  0
  -24.9586  -15.3464   20.4589 C   0  0  0  0  0  0  0  0  0  0  0  0
  -23.5443  -17.3737   19.8285 C   0  0  0  0  0  0  0  0  0  0  0  0
  -22.9391  -20.7280   26.8290 C   0  0  0  0  0  0  0  0  0  0  0  0
  -26.2428  -26.2521   23.3003 C   0  0  0  0  0  0  0  0  0  0  0  0
  -23.8210  -21.2951   25.8893 C   0  0  0  0  0  0  0  0  0  0  0  0
  -25.6505  -26.5804   22.0725 C   0  0  0  0  0  0  0  0  0  0  0  0
  -25.4121  -12.6141   20.7922 C   0  0  0  0  0  0  0  0  0  0  0  0
  -27.8435  -26.5611   21.0235 C   0  0  0  0  0  0  0  0  0  0  0  0
  -24.5330  -10.4409   20.9552 C   0  0  0  0  0  0  0  0  0  0  0  0
  -22.3136   -8.7506   20.9538 C   0  0  0  0  0  0  0  0  0  0  0  0
  -24.2552   -9.6535   22.0726 C   0  0  0  0  0  0  0  0  0  0  0  0
  -24.7245  -16.7576   20.2860 C   0  0  0  0  0  0  0  0  0  0  0  0
  -23.8300  -18.7171   19.8442 C   0  0  0  0  0  0  0  0  0  0  0  0
  -22.3009  -16.7845   19.4254 C   0  0  0  0  0  0  0  0  0  0  0  0
  -23.7465  -24.3535   23.8172 C   0  0  0  0  0  0  0  0  0  0  0  0
  -22.0623  -27.0771   23.2998 C   0  0  0  0  0  0  0  0  0  0  0  0
  -21.9365  -30.1818   21.8884 C   0  0  0  0  0  0  0  0  0  0  0  0
  -29.0081  -21.5667   19.4043 C   0  0  0  0  0  0  0  0  0  0  0  0
  -21.4430  -20.7836   26.6469 C   0  0  0  0  0  0  0  0  0  0  0  0
  -25.4012  -26.1133   24.5392 C   0  0  0  0  0  0  0  0  0  0  0  0
  -24.1630  -26.7730   21.9360 C   0  0  0  0  0  0  0  0  0  0  0  0
  -20.9901  -21.8441   25.6467 C   0  0  0  0  0  0  0  0  0  0  0  0
  -26.5197  -21.9601   22.0675 C   0  0  0  0  0  0  0  0  0  0  0  0
  -21.8378  -21.7801   24.3802 C   0  0  0  0  0  0  0  0  0  0  0  0
  -25.7049  -20.6822   21.8977 C   0  0  0  0  0  0  0  0  0  0  0  0
  -32.1822  -22.5463   19.8995 C   0  0  0  0  0  0  0  0  0  0  0  0
  -28.6697  -25.4690   16.3018 C   0  0  0  0  0  0  0  0  0  0  0  0
  -27.9991  -21.7544   21.7401 C   0  0  0  0  0  0  0  0  0  0  0  0
  -31.0493  -22.2528   20.8878 C   0  0  0  0  0  0  0  0  0  0  0  0
  -27.4130  -19.8734   20.2328 C   0  0  0  0  0  0  0  0  0  0  0  0
  -29.6198  -24.2770   16.4943 C   0  0  0  0  0  0  0  0  0  0  0  0
  -23.3129  -22.0637   24.6888 C   0  0  1  0  0  0  0  0  0  0  0  0
  -23.9428  -25.7829   24.2368 C   0  0  1  0  0  0  0  0  0  0  0  0
  -25.9165  -20.0919   20.4957 C   0  0  1  0  0  0  0  0  0  0  0  0
  -31.1177  -22.8979   18.8490 C   0  0  2  0  0  0  0  0  0  0  0  0
  -29.1141  -25.8976   17.7161 C   0  0  1  0  0  0  0  0  0  0  0  0
  -21.0307  -32.4587   21.3473 C   0  0  0  0  0  0  0  0  0  0  0  0
  -20.4736  -25.5459   21.1923 C   0  0  0  0  0  0  0  0  0  0  0  0
  -19.6635  -27.7432   20.3070 C   0  0  0  0  0  0  0  0  0  0  0  0
  -19.1024  -27.0568   22.6386 C   0  0  0  0  0  0  0  0  0  0  0  0
  -23.2074  -31.3822   24.2764 C   0  0  0  0  0  0  0  0  0  0  0  0
  -30.7973  -24.3647   18.6391 C   0  0  0  0  0  0  0  0  0  0  0  0
  -28.0287  -26.3738   18.6599 C   0  0  0  0  0  0  0  0  0  1  0  0
  -21.4694  -27.7535   22.0873 C   0  0  1  0  0  0  0  0  0  0  0  0
  -21.5107  -31.5267   22.4491 C   0  0  2  0  0  0  0  0  0  0  0  0
  -20.2051  -27.0194   21.5582 C   0  0  0  0  0  0  0  0  0  0  0  0
  -25.6882  -17.6373   20.5714 N   0  0  0  0  0  0  0  0  0  0  0  0
  -25.1140  -18.8199   20.2924 N   0  0  0  0  0  0  0  0  0  0  0  0
  -23.3820  -26.6205   23.1747 N   0  0  0  0  0  0  0  0  0  0  0  0
  -28.1869  -21.1034   20.4380 N   0  0  0  0  0  0  0  0  0  0  0  0
  -30.1501  -22.2580   19.7431 N   0  0  0  0  0  0  0  0  0  0  0  0
  -23.1056  -19.8086   19.5182 N   0  0  0  0  0  0  0  0  0  0  0  0
  -22.1323  -16.4360   18.0784 N   0  0  0  0  0  0  0  0  0  0  0  0
  -23.5278  -23.4836   24.8684 N   0  0  0  0  0  0  0  0  0  0  0  0
  -21.2385  -29.1430   22.4671 N   0  0  0  0  0  0  0  0  0  0  0  0
  -29.4920  -24.4822   17.9516 N   0  3  2  0  0  0  0  0  0  0  0  0
  -22.6510  -32.1790   23.1528 N   0  3  0  0  0  0  0  0  0  0  0  0
  -21.3610  -16.5883   20.2326 O   0  0  0  0  0  0  0  0  0  0  0  0
  -23.7887  -24.0617   22.6278 O   0  0  0  0  0  0  0  0  0  0  0  0
  -21.3820  -26.9647   24.3227 O   0  0  0  0  0  0  0  0  0  0  0  0
  -22.7992  -30.0647   21.0208 O   0  0  0  0  0  0  0  0  0  0  0  0
  -28.7489  -21.3451   18.2141 O   0  0  0  0  0  0  0  0  0  0  0  0
  -25.6338  -11.2810   20.9546 O   0  0  0  0  0  0  0  0  0  0  0  0
  -28.6235  -26.7086   19.9057 O   0  0  0  0  0  0  0  0  0  1  0  0
  -21.2471   -7.9402   20.9536 F   0  0  0  0  0  0  0  0  0  0  0  0
  -25.0502   -9.7057   23.1502 F   0  0  0  0  0  0  0  0  0  0  0  0
  1  2  1  0  0  0  0
  1  5  2  0  0  0  0
  2  6  2  0  0  0  0
  3  8  2  0  0  0  0
  3 15  1  0  0  0  0
  4  9  1  0  0  0  0
  4 15  2  0  0  0  0
  5 17  1  0  0  0  0
  6 19  1  0  0  0  0
  7 10  2  0  0  0  0
  7 18  1  0  0  0  0
  8 21  1  0  0  0  0
  9 21  2  0  0  0  0
 10 22  1  0  0  0  0
 11 12  2  0  0  0  0
 11 23  1  0  0  0  0
 12 24  1  0  0  0  0
 13 20  1  0  0  0  0
 13 22  2  0  0  0  0
 14 24  2  0  0  0  0
 14 25  1  0  0  0  0
 15 26  1  0  0  0  0
 16 26  1  0  0  0  0
 16 27  2  0  0  0  0
 16 28  1  0  0  0  0
 17 19  2  0  0  0  0
 17 33  1  0  0  0  0
 18 20  2  0  0  0  0
 18 34  1  0  0  0  0
 19 46  1  0  0  0  0
 20 35  1  0  0  0  0
 21 77  1  0  0  0  0
 22 78  1  0  0  0  0
 23 25  2  0  0  0  0
 23 77  1  0  0  0  0
 24 79  1  0  0  0  0
 25 80  1  0  0  0  0
 26 61  2  0  0  0  0
 27 62  1  0  0  0  0
 27 66  1  0  0  0  0
 28 67  1  0  0  0  0
 28 72  2  0  0  0  0
 29 47  1  0  0  0  0
 29 68  1  0  0  0  0
 29 73  2  0  0  0  0
 30 58  1  0  0  0  0
 30 63  1  0  0  0  0
 30 74  2  0  0  0  0
 31 59  1  0  0  0  0
 31 69  1  0  0  0  0
 31 75  2  0  0  0  0
 32 64  1  0  0  0  0
 32 65  1  0  0  0  0
 32 76  2  0  0  0  0
 33 36  1  0  0  0  0
 34 47  1  0  0  0  0
 35 63  1  0  0  0  0
 36 38  1  0  0  0  0
 37 39  1  0  0  0  0
 37 42  1  0  0  0  0
 38 46  1  0  0  0  0
 39 48  1  0  0  0  0
 40 43  1  0  0  0  0
 40 49  1  0  0  0  0
 41 45  1  0  0  0  0
 41 50  1  0  0  0  0
 42 64  1  0  0  0  0
 43 65  1  0  0  0  0
 44 48  1  0  0  0  0
 44 64  1  0  0  0  0
 45 70  1  0  0  0  0
 46 68  1  0  0  0  0
 47 63  1  0  0  0  0
 48 62  1  0  0  0  0
 49 56  1  0  0  0  0
 49 65  1  0  0  0  0
 50 57  1  0  0  0  0
 50 70  1  0  0  0  0
 51 59  1  0  0  0  0
 52 60  1  0  0  0  0
 53 60  1  0  0  0  0
 54 60  1  0  0  0  0
 55 71  1  0  0  0  0
 56 70  1  0  0  0  0
 57 78  1  0  0  0  0
 58 60  1  0  0  0  0
 58 69  1  0  0  0  0
 59 71  1  0  0  0  0
 61 62  1  0  0  0  0
M  CHG  2  70   1  71   1
M  ISO  4  32 100  57 101  65 100  78 101
M  END
> <Batch ID>
0185

> <Smiles>
CNC(C)C(=O)NC(C(=O)N1Cc2cc([101O:1][101CH2:1]C3CCN3CC3CC[100N:0]3[100C:0](=O)N3CCCC(n4nc(-c5ccc(Oc6ccc(F)cc6F)cc5)c(C(N)=O)c4N)C3)ccc2CC1C(=O)NC1CCCc2ccccc21)C(C)(C)C

> <Shape>
0.209

> <Color>
0.068

> <Negative vol penalty>
0.000

$$$$

  -OEChem-04052323123D

 81 90  0     1  0  0  0  0  0999 V2000
  -22.0724  -24.3277   21.3538 C   0  0  0  0  0  0  0  0  0  0  0  0
  -23.0573  -23.4606   20.8918 C   0  0  0  0  0  0  0  0  0  0  0  0
  -30.1626  -17.4638   20.4095 C   0  0  0  0  0  0  0  0  0  0  0  0
  -22.3949  -28.2275   20.9365 C   0  0  0  0  0  0  0  0  0  0  0  0
  -23.7826  -28.0418   22.9055 C   0  0  0  0  0  0  0  0  0  0  0  0
  -21.2688  -23.9574   22.4313 C   0  0  0  0  0  0  0  0  0  0  0  0
  -23.2399  -22.2229   21.5077 C   0  0  0  0  0  0  0  0  0  0  0  0
  -23.7943  -18.4548   18.1702 C   0  0  0  0  0  0  0  0  0  0  0  0
  -21.2549  -28.0740   21.7255 C   0  0  0  0  0  0  0  0  0  0  0  0
  -22.6426  -27.8883   23.6945 C   0  0  0  0  0  0  0  0  0  0  0  0
  -25.0397  -18.3253   17.5572 C   0  0  0  0  0  0  0  0  0  0  0  0
  -19.3728  -29.9873   23.7822 C   0  0  0  0  0  0  0  0  0  0  0  0
  -18.3018  -30.8498   23.5487 C   0  0  0  0  0  0  0  0  0  0  0  0
  -30.5115  -18.8368   20.3936 C   0  0  0  0  0  0  0  0  0  0  0  0
  -25.6047  -16.5530   19.0930 C   0  0  0  0  0  0  0  0  0  0  0  0
  -16.8902  -28.9579   23.0341 C   0  0  0  0  0  0  0  0  0  0  0  0
  -29.6656  -17.1512   19.1635 C   0  0  0  0  0  0  0  0  0  0  0  0
  -23.6587  -28.2114   21.5265 C   0  0  0  0  0  0  0  0  0  0  0  0
  -25.4802  -29.5745   20.3725 C   0  0  0  0  0  0  0  0  0  0  0  0
  -21.4352  -22.7106   23.0546 C   0  0  0  0  0  0  0  0  0  0  0  0
  -23.4483  -17.6404   19.2581 C   0  0  0  0  0  0  0  0  0  0  0  0
  -22.4386  -21.8362   22.5954 C   0  0  0  0  0  0  0  0  0  0  0  0
  -24.3533  -16.6724   19.7165 C   0  0  0  0  0  0  0  0  0  0  0  0
  -21.3787  -27.9044   23.1044 C   0  0  0  0  0  0  0  0  0  0  0  0
  -25.9463  -17.3763   18.0204 C   0  0  0  0  0  0  0  0  0  0  0  0
  -19.2025  -28.6099   23.6416 C   0  0  0  0  0  0  0  0  0  0  0  0
  -17.0605  -30.3352   23.1746 C   0  0  0  0  0  0  0  0  0  0  0  0
  -17.9612  -28.0953   23.2676 C   0  0  0  0  0  0  0  0  0  0  0  0
  -24.8367  -28.3693   20.7120 C   0  0  0  0  0  0  0  0  0  0  0  0
  -30.2168  -19.3215   19.1383 C   0  0  0  0  0  0  0  0  0  0  0  0
  -26.5407  -29.1889   19.5896 C   0  0  0  0  0  0  0  0  0  0  0  0
  -25.1488  -30.9222   20.7326 C   0  0  0  0  0  0  0  0  0  0  0  0
  -22.7075  -18.1624   22.3048 C   0  0  0  0  0  0  0  0  0  0  0  0
  -22.0962  -14.9768   22.2970 C   0  0  0  0  0  0  0  0  0  0  0  0
  -22.6648  -11.9210   20.8877 C   0  0  0  0  0  0  0  0  0  0  0  0
  -29.5099  -24.0373   19.4097 C   0  0  0  0  0  0  0  0  0  0  0  0
  -20.5740  -22.3740   24.2461 C   0  0  0  0  0  0  0  0  0  0  0  0
  -22.0906  -17.7743   19.8914 C   0  0  0  0  0  0  0  0  0  0  0  0
  -24.0225  -15.7597   20.8681 C   0  0  0  0  0  0  0  0  0  0  0  0
  -20.5826  -20.8901   24.6041 C   0  0  0  0  0  0  0  0  0  0  0  0
  -27.9511  -25.7859   16.5764 C   0  0  0  0  0  0  0  0  0  0  0  0
  -22.0092  -20.3502   24.6087 C   0  0  0  0  0  0  0  0  0  0  0  0
  -26.9764  -26.7069   17.3018 C   0  0  0  0  0  0  0  0  0  0  0  0
  -28.1494  -24.4560   17.3043 C   0  0  0  0  0  0  0  0  0  0  0  0
  -29.1968  -21.6898   18.3417 C   0  0  0  0  0  0  0  0  0  0  0  0
  -30.8428  -21.8911   19.6701 C   0  0  0  0  0  0  0  0  0  0  0  0
  -27.5523  -25.5437   19.4591 C   0  0  0  0  0  0  0  0  0  0  0  0
  -22.6508  -20.4748   23.2215 C   0  0  1  0  0  0  0  0  0  0  0  0
  -30.4343  -20.8130   18.6450 C   0  0  0  0  0  0  0  0  0  0  0  0
  -22.0426  -17.2423   21.3204 C   0  0  1  0  0  0  0  0  0  0  0  0
  -27.4112  -26.9032   18.7613 C   0  0  2  0  0  0  0  0  0  0  0  0
  -22.0528   -9.4987   21.1228 C   0  0  0  0  0  0  0  0  0  0  0  0
  -23.9712  -14.7380   24.6922 C   0  0  0  0  0  0  0  0  0  0  0  0
  -24.0671  -12.2699   24.2827 C   0  0  0  0  0  0  0  0  0  0  0  0
  -21.8939  -13.3545   24.8515 C   0  0  0  0  0  0  0  0  0  0  0  0
  -21.4542  -11.8452   18.1882 C   0  0  0  0  0  0  0  0  0  0  0  0
  -29.2459  -18.3798   16.9636 C   0  0  0  0  0  0  0  0  0  0  0  0
  -27.7267  -18.4219   16.8403 C   0  0  0  0  0  0  0  0  0  1  0  0
  -22.9068  -13.7319   22.5660 C   0  0  1  0  0  0  0  0  0  0  0  0
  -21.7146  -10.8206   20.4512 C   0  0  2  0  0  0  0  0  0  0  0  0
  -23.2170  -13.5419   24.0776 C   0  0  0  0  0  0  0  0  0  0  0  0
  -25.4382  -27.2982   20.1876 N   0  0  0  0  0  0  0  0  0  0  0  0
  -29.7029  -18.2882   18.3992 N   0  0  0  0  0  0  0  0  0  0  0  0
  -26.4707  -27.8291   19.5106 N   0  0  0  0  0  0  0  0  0  0  0  0
  -22.6849  -15.9336   21.4581 N   0  0  0  0  0  0  0  0  0  0  0  0
  -28.4487  -24.6421   18.7278 N   0  0  0  0  0  0  0  0  0  0  0  0
  -29.9094  -22.7843   18.9897 N   0  0  0  0  0  0  0  0  0  0  0  0
  -27.5171  -29.8836   18.9679 N   0  0  0  0  0  0  0  0  0  0  0  0
  -24.0265  -31.1404   21.5433 N   0  0  0  0  0  0  0  0  0  0  0  0
  -22.1638  -19.4322   22.3439 N   0  0  0  0  0  0  0  0  0  0  0  0
  -22.1693  -12.6265   21.9638 N   0  0  0  0  0  0  0  0  0  0  0  0
  -21.7865  -10.6296   18.9749 N   0  3  0  0  0  0  0  0  0  0  0  0
  -25.8183  -31.9051   20.3335 O   0  0  0  0  0  0  0  0  0  0  0  0
  -23.6434  -17.7504   22.9800 O   0  0  0  0  0  0  0  0  0  0  0  0
  -20.9787  -15.0926   22.8064 O   0  0  0  0  0  0  0  0  0  0  0  0
  -23.7408  -12.1312   20.3323 O   0  0  0  0  0  0  0  0  0  0  0  0
  -30.0608  -24.5760   20.3781 O   0  0  0  0  0  0  0  0  0  0  0  0
  -20.2665  -27.7548   23.8746 O   0  0  0  0  0  0  0  0  0  0  0  0
  -27.1629  -17.2483   17.4243 O   0  0  0  0  0  0  0  0  0  1  0  0
  -16.0318  -31.1635   22.9519 F   0  0  0  0  0  0  0  0  0  0  0  0
  -17.7912  -26.7729   23.1321 F   0  0  0  0  0  0  0  0  0  0  0  0
  1  2  1  0  0  0  0
  1  6  2  0  0  0  0
  2  7  2  0  0  0  0
  3 14  1  0  0  0  0
  3 17  2  0  0  0  0
  4  9  2  0  0  0  0
  4 18  1  0  0  0  0
  5 10  1  0  0  0  0
  5 18  2  0  0  0  0
  6 20  1  0  0  0  0
  7 22  1  0  0  0  0
  8 11  2  0  0  0  0
  8 21  1  0  0  0  0
  9 24  1  0  0  0  0
 10 24  2  0  0  0  0
 11 25  1  0  0  0  0
 12 13  2  0  0  0  0
 12 26  1  0  0  0  0
 13 27  1  0  0  0  0
 14 30  2  0  0  0  0
 15 23  1  0  0  0  0
 15 25  2  0  0  0  0
 16 27  2  0  0  0  0
 16 28  1  0  0  0  0
 17 63  1  0  0  0  0
 18 29  1  0  0  0  0
 19 29  1  0  0  0  0
 19 31  2  0  0  0  0
 19 32  1  0  0  0  0
 20 22  2  0  0  0  0
 20 37  1  0  0  0  0
 21 23  2  0  0  0  0
 21 38  1  0  0  0  0
 22 48  1  0  0  0  0
 23 39  1  0  0  0  0
 24 78  1  0  0  0  0
 25 79  1  0  0  0  0
 26 28  2  0  0  0  0
 26 78  1  0  0  0  0
 27 80  1  0  0  0  0
 28 81  1  0  0  0  0
 29 62  2  0  0  0  0
 30 49  1  0  0  0  0
 30 63  1  0  0  0  0
 31 64  1  0  0  0  0
 31 68  1  0  0  0  0
 32 69  1  0  0  0  0
 32 73  2  0  0  0  0
 33 50  1  0  0  0  0
 33 70  1  0  0  0  0
 33 74  2  0  0  0  0
 34 59  1  0  0  0  0
 34 65  1  0  0  0  0
 34 75  2  0  0  0  0
 35 60  1  0  0  0  0
 35 71  1  0  0  0  0
 35 76  2  0  0  0  0
 36 66  1  0  0  0  0
 36 67  1  0  0  0  0
 36 77  2  0  0  0  0
 37 40  1  0  0  0  0
 38 50  1  0  0  0  0
 39 65  1  0  0  0  0
 40 42  1  0  0  0  0
 41 43  1  0  0  0  0
 41 44  1  0  0  0  0
 42 48  1  0  0  0  0
 43 51  1  0  0  0  0
 44 66  1  0  0  0  0
 45 49  1  0  0  0  0
 45 67  1  0  0  0  0
 46 49  1  0  0  0  0
 46 67  1  0  0  0  0
 47 51  1  0  0  0  0
 47 66  1  0  0  0  0
 48 70  1  0  0  0  0
 50 65  1  0  0  0  0
 51 64  1  0  0  0  0
 52 60  1  0  0  0  0
 53 61  1  0  0  0  0
 54 61  1  0  0  0  0
 55 61  1  0  0  0  0
 56 72  1  0  0  0  0
 57 58  1  0  0  0  0
 57 63  1  0  0  0  0
 58 79  1  0  0  0  0
 59 61  1  0  0  0  0
 59 71  1  0  0  0  0
 60 72  1  0  0  0  0
 62 64  1  0  0  0  0
M  CHG  1  72   1
M  ISO  4  36 100  58 101  67 100  79 101
M  END
> <Batch ID>
0185

> <Smiles>
CNC(C)C(=O)NC(C(=O)N1Cc2cc([101O:1][101CH2:1]Cn3cccc3C3C[100N:0]([100C:0](=O)N4CCCC(n5nc(-c6ccc(Oc7ccc(F)cc7F)cc6)c(C(N)=O)c5N)C4)C3)ccc2CC1C(=O)NC1CCCc2ccccc21)C(C)(C)C

> <Shape>
0.213

> <Color>
0.057

> <Negative vol penalty>
0.000

$$$$

  -OEChem-04052323123D

 85 94  0     1  0  0  0  0  0999 V2000
  -25.5743  -38.5510   18.9723 C   0  0  0  0  0  0  0  0  0  0  0  0
  -25.7472  -37.3695   18.2583 C   0  0  0  0  0  0  0  0  0  0  0  0
  -23.0621   -9.6876   21.6061 C   0  0  0  0  0  0  0  0  0  0  0  0
  -24.8087   -8.0448   21.9023 C   0  0  0  0  0  0  0  0  0  0  0  0
  -25.8802  -38.5936   20.3319 C   0  0  0  0  0  0  0  0  0  0  0  0
  -26.2270  -36.2302   18.9035 C   0  0  0  0  0  0  0  0  0  0  0  0
  -25.6518  -29.0907   18.7903 C   0  0  0  0  0  0  0  0  0  0  0  0
  -22.1631   -8.6727   21.2785 C   0  0  0  0  0  0  0  0  0  0  0  0
  -23.9097   -7.0299   21.5748 C   0  0  0  0  0  0  0  0  0  0  0  0
  -26.4466  -27.9470   18.7277 C   0  0  0  0  0  0  0  0  0  0  0  0
  -21.4252   -5.3183   23.0975 C   0  0  0  0  0  0  0  0  0  0  0  0
  -21.4222   -4.1748   23.8961 C   0  0  0  0  0  0  0  0  0  0  0  0
  -26.8667  -28.1166   21.0970 C   0  0  0  0  0  0  0  0  0  0  0  0
  -21.9816   -2.8281   21.9698 C   0  0  0  0  0  0  0  0  0  0  0  0
  -30.1903  -24.6306   18.8422 C   0  0  0  0  0  0  0  0  0  0  0  0
  -24.3850   -9.3737   21.9179 C   0  0  0  0  0  0  0  0  0  0  0  0
  -25.5834  -10.9387   23.5372 C   0  0  0  0  0  0  0  0  0  0  0  0
  -26.3549  -37.4517   20.9961 C   0  0  0  0  0  0  0  0  0  0  0  0
  -25.4670  -29.7634   20.0067 C   0  0  0  0  0  0  0  0  0  0  0  0
  -26.5408  -36.2580   20.2729 C   0  0  0  0  0  0  0  0  0  0  0  0
  -26.0670  -29.2672   21.1729 C   0  0  0  0  0  0  0  0  0  0  0  0
  -22.5868   -7.3438   21.2629 C   0  0  0  0  0  0  0  0  0  0  0  0
  -27.0566  -27.4614   19.8806 C   0  0  0  0  0  0  0  0  0  0  0  0
  -21.7064   -5.2168   21.7350 C   0  0  0  0  0  0  0  0  0  0  0  0
  -21.7004   -2.9296   23.3323 C   0  0  0  0  0  0  0  0  0  0  0  0
  -21.9846   -3.9717   21.1712 C   0  0  0  0  0  0  0  0  0  0  0  0
  -25.3143  -10.4217   22.2558 C   0  0  0  0  0  0  0  0  0  0  0  0
  -28.8261  -24.5000   18.6804 C   0  0  0  0  0  0  0  0  0  0  0  0
  -30.8937  -23.4490   18.9567 C   0  0  0  0  0  0  0  0  0  0  0  0
  -26.5326  -11.9082   23.3239 C   0  0  0  0  0  0  0  0  0  0  0  0
  -28.9834  -22.2336   18.7555 C   0  0  0  0  0  0  0  0  0  0  0  0
  -25.0254  -10.5749   24.8069 C   0  0  0  0  0  0  0  0  0  0  0  0
  -26.1462  -32.6752   21.0856 C   0  0  0  0  0  0  0  0  0  0  0  0
  -24.4813  -31.6768   23.6843 C   0  0  0  0  0  0  0  0  0  0  0  0
  -23.3558  -29.0705   25.5784 C   0  0  0  0  0  0  0  0  0  0  0  0
  -28.5514  -16.1205   20.6807 C   0  0  0  0  0  0  0  0  0  0  0  0
  -26.7168  -37.5591   22.4563 C   0  0  0  0  0  0  0  0  0  0  0  0
  -24.5850  -30.9805   20.0625 C   0  0  0  0  0  0  0  0  0  0  0  0
  -25.8837  -29.9410   22.5074 C   0  0  0  0  0  0  0  0  0  0  0  0
  -26.8653  -36.2065   23.1482 C   0  0  0  0  0  0  0  0  0  0  0  0
  -29.2688  -13.0080   19.2223 C   0  0  0  0  0  0  0  0  0  0  0  0
  -27.7057  -35.2606   22.2963 C   0  0  0  0  0  0  0  0  0  0  0  0
  -28.3187  -12.0878   19.9884 C   0  0  0  0  0  0  0  0  0  0  0  0
  -28.2209  -18.6190   18.2237 C   0  0  0  0  0  0  0  0  0  0  0  0
  -29.3915  -19.4598   20.2950 C   0  0  0  0  0  0  0  0  0  0  0  0
  -28.6137  -14.3455   18.8727 C   0  0  0  0  0  0  0  0  0  0  0  0
  -28.8717  -17.2485   18.4331 C   0  0  0  0  0  0  0  0  0  0  0  0
  -30.0390  -18.0861   20.4468 C   0  0  0  0  0  0  0  0  0  0  0  0
  -27.0815  -14.1306   20.8027 C   0  0  0  0  0  0  0  0  0  0  0  0
  -27.0357  -34.9945   20.9428 C   0  0  1  0  0  0  0  0  0  0  0  0
  -24.8830  -31.8801   21.2581 C   0  0  1  0  0  0  0  0  0  0  0  0
  -27.7308  -12.8016   21.2187 C   0  0  1  0  0  0  0  0  0  0  0  0
  -29.0688  -19.7420   18.8254 C   0  0  0  0  0  0  0  0  0  0  0  0
  -22.0529  -28.5691   27.6637 C   0  0  0  0  0  0  0  0  0  0  0  0
  -26.8907  -32.4735   25.3784 C   0  0  0  0  0  0  0  0  0  0  0  0
  -25.9398  -31.1070   27.2484 C   0  0  0  0  0  0  0  0  0  0  0  0
  -24.6742  -33.0697   26.3715 C   0  0  0  0  0  0  0  0  0  0  0  0
  -21.2911  -27.5810   24.0693 C   0  0  0  0  0  0  0  0  0  0  0  0
  -27.9809  -25.7222   18.5477 C   0  0  0  0  0  0  0  0  0  1  0  0
  -24.8314  -30.9702   24.9716 C   0  0  1  0  0  0  0  0  0  0  0  0
  -21.9863  -28.7633   26.1568 C   0  0  2  0  0  0  0  0  0  0  0  0
  -25.5893  -31.8933   25.9671 C   0  0  0  0  0  0  0  0  0  0  0  0
  -26.0342  -11.0139   21.2992 N   0  0  0  0  0  0  0  0  0  0  0  0
  -28.1872  -23.3126   18.6325 N   0  0  0  0  0  0  0  0  0  0  0  0
  -30.3203  -22.2283   18.9177 N   0  0  0  0  0  0  0  0  0  0  0  0
  -26.7650  -11.9131   21.9800 N   0  0  0  0  0  0  0  0  0  0  0  0
  -25.0173  -31.1312   22.5093 N   0  0  0  0  0  0  0  0  0  0  0  0
  -28.0327  -14.9689   20.0699 N   0  0  0  0  0  0  0  0  0  0  0  0
  -29.2059  -17.0419   19.8496 N   0  0  0  0  0  0  0  0  0  0  0  0
  -32.2973  -23.5391   19.1243 N   0  0  0  0  0  0  0  0  0  0  0  0
  -27.1828  -12.7486   24.1567 N   0  0  0  0  0  0  0  0  0  0  0  0
  -24.0615   -9.5583   24.8464 N   0  0  0  0  0  0  0  0  0  0  0  0
  -28.3616  -20.9984   18.7105 N   0  0  0  0  0  0  0  0  0  0  0  0
  -25.9549  -34.0437   21.0922 N   0  0  0  0  0  0  0  0  0  0  0  0
  -23.5812  -30.4281   25.4928 N   0  0  0  0  0  0  0  0  0  0  0  0
  -21.4332  -27.5211   25.5469 N   0  3  0  0  0  0  0  0  0  0  0  0
  -25.3593  -11.1462   25.8726 O   0  0  0  0  0  0  0  0  0  0  0  0
  -27.2154  -32.0904   20.9575 O   0  0  0  0  0  0  0  0  0  0  0  0
  -23.7530  -32.6718   23.7194 O   0  0  0  0  0  0  0  0  0  0  0  0
  -24.1479  -28.1938   25.2400 O   0  0  0  0  0  0  0  0  0  0  0  0
  -28.4365  -16.3145   21.8973 O   0  0  0  0  0  0  0  0  0  0  0  0
  -21.7098   -6.3532   20.9436 O   0  0  0  0  0  0  0  0  0  0  0  0
  -27.8388  -26.3379   19.8218 O   0  0  0  0  0  0  0  0  0  1  0  0
  -21.6990   -1.8317   24.0996 F   0  0  0  0  0  0  0  0  0  0  0  0
  -22.2566   -3.8680   19.8631 F   0  0  0  0  0  0  0  0  0  0  0  0
  1  2  1  0  0  0  0
  1  5  2  0  0  0  0
  2  6  2  0  0  0  0
  3  8  2  0  0  0  0
  3 16  1  0  0  0  0
  4  9  1  0  0  0  0
  4 16  2  0  0  0  0
  5 18  1  0  0  0  0
  6 20  1  0  0  0  0
  7 10  2  0  0  0  0
  7 19  1  0  0  0  0
  8 22  1  0  0  0  0
  9 22  2  0  0  0  0
 10 23  1  0  0  0  0
 11 12  2  0  0  0  0
 11 24  1  0  0  0  0
 12 25  1  0  0  0  0
 13 21  1  0  0  0  0
 13 23  2  0  0  0  0
 14 25  2  0  0  0  0
 14 26  1  0  0  0  0
 15 28  1  0  0  0  0
 15 29  2  0  0  0  0
 16 27  1  0  0  0  0
 17 27  1  0  0  0  0
 17 30  2  0  0  0  0
 17 32  1  0  0  0  0
 18 20  2  0  0  0  0
 18 37  1  0  0  0  0
 19 21  2  0  0  0  0
 19 38  1  0  0  0  0
 20 50  1  0  0  0  0
 21 39  1  0  0  0  0
 22 82  1  0  0  0  0
 23 83  1  0  0  0  0
 24 26  2  0  0  0  0
 24 82  1  0  0  0  0
 25 84  1  0  0  0  0
 26 85  1  0  0  0  0
 27 63  2  0  0  0  0
 28 59  1  0  0  0  0
 28 64  2  0  0  0  0
 29 65  1  0  0  0  0
 29 70  1  0  0  0  0
 30 66  1  0  0  0  0
 30 71  1  0  0  0  0
 31 64  1  0  0  0  0
 31 65  2  0  0  0  0
 31 73  1  0  0  0  0
 32 72  1  0  0  0  0
 32 77  2  0  0  0  0
 33 51  1  0  0  0  0
 33 74  1  0  0  0  0
 33 78  2  0  0  0  0
 34 60  1  0  0  0  0
 34 67  1  0  0  0  0
 34 79  2  0  0  0  0
 35 61  1  0  0  0  0
 35 75  1  0  0  0  0
 35 80  2  0  0  0  0
 36 68  1  0  0  0  0
 36 69  1  0  0  0  0
 36 81  2  0  0  0  0
 37 40  1  0  0  0  0
 38 51  1  0  0  0  0
 39 67  1  0  0  0  0
 40 42  1  0  0  0  0
 41 43  1  0  0  0  0
 41 46  1  0  0  0  0
 42 50  1  0  0  0  0
 43 52  1  0  0  0  0
 44 47  1  0  0  0  0
 44 53  1  0  0  0  0
 45 48  1  0  0  0  0
 45 53  1  0  0  0  0
 46 68  1  0  0  0  0
 47 69  1  0  0  0  0
 48 69  1  0  0  0  0
 49 52  1  0  0  0  0
 49 68  1  0  0  0  0
 50 74  1  0  0  0  0
 51 67  1  0  0  0  0
 52 66  1  0  0  0  0
 53 73  1  0  0  0  0
 54 61  1  0  0  0  0
 55 62  1  0  0  0  0
 56 62  1  0  0  0  0
 57 62  1  0  0  0  0
 58 76  1  0  0  0  0
 59 83  1  0  0  0  0
 60 62  1  0  0  0  0
 60 75  1  0  0  0  0
 61 76  1  0  0  0  0
 63 66  1  0  0  0  0
M  CHG  1  76   1
M  ISO  4  36 100  59 101  69 100  83 101
M  END
> <Batch ID>
0185

> <Smiles>
CNC(C)C(=O)NC(C(=O)N1Cc2cc([101O:1][101CH2:1]c3cc(N)nc(NC4CC[100N:0]([100C:0](=O)N5CCCC(n6nc(-c7ccc(Oc8ccc(F)cc8F)cc7)c(C(N)=O)c6N)C5)CC4)n3)ccc2CC1C(=O)NC1CCCc2ccccc21)C(C)(C)C

> <Shape>
0.302

> <Color>
0.093

> <Negative vol penalty>
0.000

$$$$

  -OEChem-04052323123D

 86 95  0     1  0  0  0  0  0999 V2000
  -26.5978  -37.4100   17.5891 C   0  0  0  0  0  0  0  0  0  0  0  0
  -27.0340  -36.0959   17.4537 C   0  0  0  0  0  0  0  0  0  0  0  0
  -22.9817  -10.0543   21.1754 C   0  0  0  0  0  0  0  0  0  0  0  0
  -23.6116   -9.3564   23.4010 C   0  0  0  0  0  0  0  0  0  0  0  0
  -26.2662  -37.9068   18.8489 C   0  0  0  0  0  0  0  0  0  0  0  0
  -27.1400  -35.2782   18.5782 C   0  0  0  0  0  0  0  0  0  0  0  0
  -26.0829  -29.2526   18.8614 C   0  0  0  0  0  0  0  0  0  0  0  0
  -22.7125   -8.7285   20.8359 C   0  0  0  0  0  0  0  0  0  0  0  0
  -23.3424   -8.0306   23.0615 C   0  0  0  0  0  0  0  0  0  0  0  0
  -26.9337  -28.1486   18.8303 C   0  0  0  0  0  0  0  0  0  0  0  0
  -20.6250   -6.0497   22.7257 C   0  0  0  0  0  0  0  0  0  0  0  0
  -19.9006   -5.2829   23.6383 C   0  0  0  0  0  0  0  0  0  0  0  0
  -26.9227  -28.0797   21.2416 C   0  0  0  0  0  0  0  0  0  0  0  0
  -21.7495   -3.7369   23.8069 C   0  0  0  0  0  0  0  0  0  0  0  0
  -23.4314  -10.3683   22.4580 C   0  0  0  0  0  0  0  0  0  0  0  0
  -22.8133  -12.6743   23.3569 C   0  0  0  0  0  0  0  0  0  0  0  0
  -26.3589  -37.0919   19.9882 C   0  0  0  0  0  0  0  0  0  0  0  0
  -25.6536  -29.7861   20.0851 C   0  0  0  0  0  0  0  0  0  0  0  0
  -26.8106  -35.7651   19.8546 C   0  0  0  0  0  0  0  0  0  0  0  0
  -26.0644  -29.1890   21.2855 C   0  0  0  0  0  0  0  0  0  0  0  0
  -22.8928   -7.7166   21.7789 C   0  0  0  0  0  0  0  0  0  0  0  0
  -27.3561  -27.5637   20.0206 C   0  0  0  0  0  0  0  0  0  0  0  0
  -21.9117   -5.6600   22.3536 C   0  0  0  0  0  0  0  0  0  0  0  0
  -20.4628   -4.1265   24.1789 C   0  0  0  0  0  0  0  0  0  0  0  0
  -22.4739   -4.5036   22.8942 C   0  0  0  0  0  0  0  0  0  0  0  0
  -31.0197  -22.6427   19.1668 C   0  0  0  0  0  0  0  0  0  0  0  0
  -23.7102  -11.7376   22.8091 C   0  0  0  0  0  0  0  0  0  0  0  0
  -31.4773  -23.9201   19.4181 C   0  0  0  0  0  0  0  0  0  0  0  0
  -29.7063  -22.5495   18.7537 C   0  0  0  0  0  0  0  0  0  0  0  0
  -23.5594  -13.8179   23.5052 C   0  0  0  0  0  0  0  0  0  0  0  0
  -29.4566  -24.8058   18.8711 C   0  0  0  0  0  0  0  0  0  0  0  0
  -21.4296  -12.5240   23.7009 C   0  0  0  0  0  0  0  0  0  0  0  0
  -25.9835  -32.5878   21.5499 C   0  0  0  0  0  0  0  0  0  0  0  0
  -23.9419  -31.2657   23.6960 C   0  0  0  0  0  0  0  0  0  0  0  0
  -22.6363  -28.4379   25.0910 C   0  0  0  0  0  0  0  0  0  0  0  0
  -27.0795  -17.4849   21.7784 C   0  0  0  0  0  0  0  0  0  0  0  0
  -26.0347  -37.6877   21.3353 C   0  0  0  0  0  0  0  0  0  0  0  0
  -24.7145  -30.9609   20.1011 C   0  0  0  0  0  0  0  0  0  0  0  0
  -25.6158  -29.7112   22.6251 C   0  0  0  0  0  0  0  0  0  0  0  0
  -25.8167  -36.6431   22.4268 C   0  0  0  0  0  0  0  0  0  0  0  0
  -28.5375  -14.5873   23.1280 C   0  0  0  0  0  0  0  0  0  0  0  0
  -26.9189  -35.5894   22.3851 C   0  0  0  0  0  0  0  0  0  0  0  0
  -27.3319  -13.6516   23.2108 C   0  0  0  0  0  0  0  0  0  0  0  0
  -28.5364  -15.4115   21.8393 C   0  0  0  0  0  0  0  0  0  0  0  0
  -29.1855  -17.9261   20.4386 C   0  0  0  0  0  0  0  0  0  0  0  0
  -28.1886  -19.6976   21.8372 C   0  0  0  0  0  0  0  0  0  0  0  0
  -26.0745  -15.2229   21.6889 C   0  0  0  0  0  0  0  0  0  0  0  0
  -29.0864  -18.8262   19.2112 C   0  0  0  0  0  0  0  0  0  0  0  0
  -28.0514  -20.6122   20.6310 C   0  0  0  0  0  0  0  0  0  0  0  0
  -26.9150  -34.8396   21.0474 C   0  0  1  0  0  0  0  0  0  0  0  0
  -24.7519  -31.7380   21.4134 C   0  0  1  0  0  0  0  0  0  0  0  0
  -26.0177  -14.4243   23.0003 C   0  0  1  0  0  0  0  0  0  0  0  0
  -32.8850  -24.1243   19.8676 C   0  0  0  0  0  0  0  0  0  0  0  0
  -21.0153  -27.6760   26.8486 C   0  0  0  0  0  0  0  0  0  0  0  0
  -25.9731  -31.9567   25.8656 C   0  0  0  0  0  0  0  0  0  0  0  0
  -24.7801  -30.3693   27.3905 C   0  0  0  0  0  0  0  0  0  0  0  0
  -23.5893  -32.3714   26.4981 C   0  0  0  0  0  0  0  0  0  0  0  0
  -20.9470  -27.0500   23.0963 C   0  0  0  0  0  0  0  0  0  0  0  0
  -29.1168  -21.2030   18.4532 C   0  0  0  0  0  0  0  0  0  0  0  0
  -28.5873  -26.0069   18.7105 C   0  0  0  0  0  0  0  0  0  1  0  0
  -24.0965  -30.4385   24.9494 C   0  0  1  0  0  0  0  0  0  0  0  0
  -21.2041  -28.0265   25.3808 C   0  0  2  0  0  0  0  0  0  0  0  0
  -24.6199  -31.2751   26.1508 C   0  0  0  0  0  0  0  0  0  0  0  0
  -24.9326  -12.2425   22.6220 N   0  0  0  0  0  0  0  0  0  0  0  0
  -30.7202  -25.0282   19.2801 N   0  0  0  0  0  0  0  0  0  0  0  0
  -28.8931  -23.6143   18.5948 N   0  0  0  0  0  0  0  0  0  0  0  0
  -24.8090  -13.5088   23.0545 N   0  0  0  0  0  0  0  0  0  0  0  0
  -24.7028  -30.8656   22.5885 N   0  0  0  0  0  0  0  0  0  0  0  0
  -27.2489  -16.0973   21.6610 N   0  0  0  0  0  0  0  0  0  0  0  0
  -28.1764  -18.2913   21.4402 N   0  0  0  0  0  0  0  0  0  0  0  0
  -23.2618  -15.0477   23.9758 N   0  0  0  0  0  0  0  0  0  0  0  0
  -20.8182  -11.2817   23.4837 N   0  0  0  0  0  0  0  0  0  0  0  0
  -25.8521  -33.8578   21.0214 N   0  0  0  0  0  0  0  0  0  0  0  0
  -22.8036  -29.8036   25.1815 N   0  0  0  0  0  0  0  0  0  0  0  0
  -29.1362  -20.2744   19.6350 N   0  3  0  0  0  0  0  0  0  0  0  0
  -20.8307  -26.8385   24.5622 N   0  3  0  0  0  0  0  0  0  0  0  0
  -20.7510  -13.4683   24.1714 O   0  0  0  0  0  0  0  0  0  0  0  0
  -26.9788  -32.1260   22.0955 O   0  0  0  0  0  0  0  0  0  0  0  0
  -23.1689  -32.2270   23.6975 O   0  0  0  0  0  0  0  0  0  0  0  0
  -23.5192  -27.6284   24.8158 O   0  0  0  0  0  0  0  0  0  0  0  0
  -26.0100  -17.9750   22.1624 O   0  0  0  0  0  0  0  0  0  0  0  0
  -22.6299   -6.4228   21.4480 O   0  0  0  0  0  0  0  0  0  0  0  0
  -28.1928  -26.4790   19.9929 O   0  0  0  0  0  0  0  0  0  1  0  0
  -19.7676   -3.3911   25.0564 F   0  0  0  0  0  0  0  0  0  0  0  0
  -23.7100   -4.1249   22.5415 F   0  0  0  0  0  0  0  0  0  0  0  0
  -31.7990  -21.5654   19.3121 F   0  0  0  0  0  0  0  0  0  0  0  0
  1  2  1  0  0  0  0
  1  5  2  0  0  0  0
  2  6  2  0  0  0  0
  3  8  2  0  0  0  0
  3 15  1  0  0  0  0
  4  9  1  0  0  0  0
  4 15  2  0  0  0  0
  5 17  1  0  0  0  0
  6 19  1  0  0  0  0
  7 10  2  0  0  0  0
  7 18  1  0  0  0  0
  8 21  1  0  0  0  0
  9 21  2  0  0  0  0
 10 22  1  0  0  0  0
 11 12  2  0  0  0  0
 11 23  1  0  0  0  0
 12 24  1  0  0  0  0
 13 20  1  0  0  0  0
 13 22  2  0  0  0  0
 14 24  2  0  0  0  0
 14 25  1  0  0  0  0
 15 27  1  0  0  0  0
 16 27  1  0  0  0  0
 16 30  2  0  0  0  0
 16 32  1  0  0  0  0
 17 19  2  0  0  0  0
 17 37  1  0  0  0  0
 18 20  2  0  0  0  0
 18 38  1  0  0  0  0
 19 50  1  0  0  0  0
 20 39  1  0  0  0  0
 21 82  1  0  0  0  0
 22 83  1  0  0  0  0
 23 25  2  0  0  0  0
 23 82  1  0  0  0  0
 24 84  1  0  0  0  0
 25 85  1  0  0  0  0
 26 28  1  0  0  0  0
 26 29  2  0  0  0  0
 26 86  1  0  0  0  0
 27 64  2  0  0  0  0
 28 53  1  0  0  0  0
 28 65  2  0  0  0  0
 29 59  1  0  0  0  0
 29 66  1  0  0  0  0
 30 67  1  0  0  0  0
 30 71  1  0  0  0  0
 31 60  1  0  0  0  0
 31 65  1  0  0  0  0
 31 66  2  0  0  0  0
 32 72  1  0  0  0  0
 32 77  2  0  0  0  0
 33 51  1  0  0  0  0
 33 73  1  0  0  0  0
 33 78  2  0  0  0  0
 34 61  1  0  0  0  0
 34 68  1  0  0  0  0
 34 79  2  0  0  0  0
 35 62  1  0  0  0  0
 35 74  1  0  0  0  0
 35 80  2  0  0  0  0
 36 69  1  0  0  0  0
 36 70  1  0  0  0  0
 36 81  2  0  0  0  0
 37 40  1  0  0  0  0
 38 51  1  0  0  0  0
 39 68  1  0  0  0  0
 40 42  1  0  0  0  0
 41 43  1  0  0  0  0
 41 44  1  0  0  0  0
 42 50  1  0  0  0  0
 43 52  1  0  0  0  0
 44 69  1  0  0  0  0
 45 48  1  0  0  0  0
 45 70  1  0  0  0  0
 46 49  1  0  0  0  0
 46 70  1  0  0  0  0
 47 52  1  0  0  0  0
 47 69  1  0  0  0  0
 48 75  1  0  0  0  0
 49 75  1  0  0  0  0
 50 73  1  0  0  0  0
 51 68  1  0  0  0  0
 52 67  1  0  0  0  0
 54 62  1  0  0  0  0
 55 63  1  0  0  0  0
 56 63  1  0  0  0  0
 57 63  1  0  0  0  0
 58 76  1  0  0  0  0
 59 75  1  0  0  0  0
 60 83  1  0  0  0  0
 61 63  1  0  0  0  0
 61 74  1  0  0  0  0
 62 76  1  0  0  0  0
 64 67  1  0  0  0  0
M  CHG  2  75   1  76   1
M  ISO  4  36 100  60 101  70 100  83 101
M  END
> <Batch ID>
0185

> <Smiles>
CNC(C)C(=O)NC(C(=O)N1Cc2cc([101O:1][101CH2:1]c3nc(C)c(F)c(CN4CC[100N:0]([100C:0](=O)N5CCCC(n6nc(-c7ccc(Oc8ccc(F)cc8F)cc7)c(C(N)=O)c6N)C5)CC4)n3)ccc2CC1C(=O)NC1CCCc2ccccc21)C(C)(C)C

> <Shape>
0.261

> <Color>
0.116

> <Negative vol penalty>
0.000

$$$$

  -OEChem-04052323123D

 82 91  0     1  0  0  0  0  0999 V2000
  -21.8125  -28.5741   27.2816 C   0  0  0  0  0  0  0  0  0  0  0  0
  -22.5680  -27.9595   26.2881 C   0  0  0  0  0  0  0  0  0  0  0  0
  -24.4430   -9.1719   22.2137 C   0  0  0  0  0  0  0  0  0  0  0  0
  -24.3360   -8.7431   19.8385 C   0  0  0  0  0  0  0  0  0  0  0  0
  -20.7445  -29.3999   26.9332 C   0  0  0  0  0  0  0  0  0  0  0  0
  -22.2551  -28.1695   24.9456 C   0  0  0  0  0  0  0  0  0  0  0  0
  -26.4174  -29.1179   22.0702 C   0  0  0  0  0  0  0  0  0  0  0  0
  -23.2947   -8.4032   22.4043 C   0  0  0  0  0  0  0  0  0  0  0  0
  -23.1877   -7.9744   20.0290 C   0  0  0  0  0  0  0  0  0  0  0  0
  -27.2210  -28.0428   21.6929 C   0  0  0  0  0  0  0  0  0  0  0  0
  -22.4934   -5.1229   22.5769 C   0  0  0  0  0  0  0  0  0  0  0  0
  -22.4935   -4.2071   23.6289 C   0  0  0  0  0  0  0  0  0  0  0  0
  -26.1251  -27.9854   19.5449 C   0  0  0  0  0  0  0  0  0  0  0  0
  -20.5990   -5.3378   24.6135 C   0  0  0  0  0  0  0  0  0  0  0  0
  -24.9636   -9.3419   20.9308 C   0  0  0  0  0  0  0  0  0  0  0  0
  -27.4845   -9.6902   20.7535 C   0  0  0  0  0  0  0  0  0  0  0  0
  -20.4244  -29.6278   25.5855 C   0  0  0  0  0  0  0  0  0  0  0  0
  -25.4527  -29.6294   21.1902 C   0  0  0  0  0  0  0  0  0  0  0  0
  -21.1810  -28.9980   24.5788 C   0  0  0  0  0  0  0  0  0  0  0  0
  -25.3140  -29.0700   19.9117 C   0  0  0  0  0  0  0  0  0  0  0  0
  -22.6671   -7.8045   21.3119 C   0  0  0  0  0  0  0  0  0  0  0  0
  -27.0733  -27.4749   20.4310 C   0  0  0  0  0  0  0  0  0  0  0  0
  -21.5461   -6.1462   22.5431 C   0  0  0  0  0  0  0  0  0  0  0  0
  -21.5464   -4.3145   24.6473 C   0  0  0  0  0  0  0  0  0  0  0  0
  -20.5989   -6.2537   23.5614 C   0  0  0  0  0  0  0  0  0  0  0  0
  -26.1494  -10.1362   20.7333 C   0  0  0  0  0  0  0  0  0  0  0  0
  -28.2276  -10.8204   20.5151 C   0  0  0  0  0  0  0  0  0  0  0  0
  -28.0062   -8.3721   20.9683 C   0  0  0  0  0  0  0  0  0  0  0  0
  -27.1210  -21.0252   20.6668 C   0  0  0  0  0  0  0  0  0  0  0  0
  -22.2716  -29.9852   21.1893 C   0  0  0  0  0  0  0  0  0  0  0  0
  -22.9712  -31.5703   18.3518 C   0  0  0  0  0  0  0  0  0  0  0  0
  -19.7993  -32.8266   18.3303 C   0  0  0  0  0  0  0  0  0  0  0  0
  -26.7098  -16.5989   21.4386 C   0  0  0  0  0  0  0  0  0  0  0  0
  -19.2315  -30.4908   25.2587 C   0  0  0  0  0  0  0  0  0  0  0  0
  -24.6166  -30.8095   21.6056 C   0  0  0  0  0  0  0  0  0  0  0  0
  -24.2964  -29.5849   18.9298 C   0  0  0  0  0  0  0  0  0  0  0  0
  -19.1987  -30.9598   23.8063 C   0  0  0  0  0  0  0  0  0  0  0  0
  -28.0042  -15.0624   18.3191 C   0  0  0  0  0  0  0  0  0  0  0  0
  -19.4886  -29.7966   22.8630 C   0  0  0  0  0  0  0  0  0  0  0  0
  -27.7447  -13.5790   18.5855 C   0  0  0  0  0  0  0  0  0  0  0  0
  -29.0166  -19.4350   21.0422 C   0  0  0  0  0  0  0  0  0  0  0  0
  -26.9633  -15.9310   19.0132 C   0  0  0  0  0  0  0  0  0  0  0  0
  -28.4240  -18.1886   20.3958 C   0  0  0  0  0  0  0  0  0  0  0  0
  -26.9006  -18.9857   22.0761 C   0  0  0  0  0  0  0  0  0  0  0  0
  -27.1866  -23.5081   19.9314 C   0  0  0  0  0  0  0  0  0  0  0  0
  -28.5105  -22.9972   21.5346 C   0  0  0  0  0  0  0  0  0  0  0  0
  -26.5996  -14.2289   20.7588 C   0  0  0  0  0  0  0  0  0  0  0  0
  -20.8882  -29.2210   23.1110 C   0  0  1  0  0  0  0  0  0  0  0  0
  -27.8083  -20.1344   21.6576 C   0  0  2  0  0  0  0  0  0  0  0  0
  -23.3357  -30.9675   20.7889 C   0  0  1  0  0  0  0  0  0  0  0  0
  -28.4582  -24.1537   20.5173 C   0  0  0  0  0  0  0  0  0  0  0  0
  -27.6280  -13.2963   20.0945 C   0  0  1  0  0  0  0  0  0  0  0  0
  -18.3455  -34.4851   17.1331 C   0  0  0  0  0  0  0  0  0  0  0  0
  -24.3638  -33.8495   19.8253 C   0  0  0  0  0  0  0  0  0  0  0  0
  -22.3552  -35.2744   19.3739 C   0  0  0  0  0  0  0  0  0  0  0  0
  -23.6999  -34.3793   17.4730 C   0  0  0  0  0  0  0  0  0  0  0  0
  -17.9145  -30.7187   17.4567 C   0  0  0  0  0  0  0  0  0  0  0  0
  -28.3015  -25.5482   21.0908 C   0  0  0  0  0  0  0  0  0  1  0  0
  -22.2345  -32.8064   18.8036 C   0  0  1  0  0  0  0  0  0  0  0  0
  -18.8069  -33.0375   17.2012 C   0  0  2  0  0  0  0  0  0  0  0  0
  -23.1607  -34.0526   18.8827 C   0  0  0  0  0  0  0  0  0  0  0  0
  -26.0472  -11.4475   20.5007 N   0  0  0  0  0  0  0  0  0  0  0  0
  -27.3276  -11.8352   20.3725 N   0  0  0  0  0  0  0  0  0  0  0  0
  -27.5494  -22.3230   20.6834 N   0  0  0  0  0  0  0  0  0  0  0  0
  -23.5660  -30.7879   19.3498 N   0  0  0  0  0  0  0  0  0  0  0  0
  -26.8909  -15.6294   20.4456 N   0  0  0  0  0  0  0  0  0  0  0  0
  -27.2585  -17.8616   21.2150 N   0  0  0  0  0  0  0  0  0  0  0  0
  -29.5567  -11.0352   20.4157 N   0  0  0  0  0  0  0  0  0  0  0  0
  -27.1031   -7.3254   21.1988 N   0  0  0  0  0  0  0  0  0  0  0  0
  -21.8970  -30.0715   22.5166 N   0  0  0  0  0  0  0  0  0  0  0  0
  -21.1016  -32.9604   17.8974 N   0  0  0  0  0  0  0  0  0  0  0  0
  -17.6097  -32.1714   17.3951 N   0  3  0  0  0  0  0  0  0  0  0  0
  -29.2375   -8.1327   20.9727 O   0  0  0  0  0  0  0  0  0  0  0  0
  -26.2467  -20.5953   19.9159 O   0  0  0  0  0  0  0  0  0  0  0  0
  -21.8226  -29.2076   20.3554 O   0  0  0  0  0  0  0  0  0  0  0  0
  -23.0258  -31.3075   17.1471 O   0  0  0  0  0  0  0  0  0  0  0  0
  -19.4537  -32.5724   19.4821 O   0  0  0  0  0  0  0  0  0  0  0  0
  -26.1275  -16.3341   22.4987 O   0  0  0  0  0  0  0  0  0  0  0  0
  -21.5468   -7.0542   21.4975 O   0  0  0  0  0  0  0  0  0  0  0  0
  -27.8626  -26.4179   20.0572 O   0  0  0  0  0  0  0  0  0  1  0  0
  -21.5457   -3.4341   25.6567 F   0  0  0  0  0  0  0  0  0  0  0  0
  -19.6856   -7.2340   23.5338 F   0  0  0  0  0  0  0  0  0  0  0  0
  1  2  1  0  0  0  0
  1  5  2  0  0  0  0
  2  6  2  0  0  0  0
  3  8  2  0  0  0  0
  3 15  1  0  0  0  0
  4  9  1  0  0  0  0
  4 15  2  0  0  0  0
  5 17  1  0  0  0  0
  6 19  1  0  0  0  0
  7 10  2  0  0  0  0
  7 18  1  0  0  0  0
  8 21  1  0  0  0  0
  9 21  2  0  0  0  0
 10 22  1  0  0  0  0
 11 12  2  0  0  0  0
 11 23  1  0  0  0  0
 12 24  1  0  0  0  0
 13 20  1  0  0  0  0
 13 22  2  0  0  0  0
 14 24  2  0  0  0  0
 14 25  1  0  0  0  0
 15 26  1  0  0  0  0
 16 26  1  0  0  0  0
 16 27  2  0  0  0  0
 16 28  1  0  0  0  0
 17 19  2  0  0  0  0
 17 34  1  0  0  0  0
 18 20  2  0  0  0  0
 18 35  1  0  0  0  0
 19 48  1  0  0  0  0
 20 36  1  0  0  0  0
 21 79  1  0  0  0  0
 22 80  1  0  0  0  0
 23 25  2  0  0  0  0
 23 79  1  0  0  0  0
 24 81  1  0  0  0  0
 25 82  1  0  0  0  0
 26 62  2  0  0  0  0
 27 63  1  0  0  0  0
 27 68  1  0  0  0  0
 28 69  1  0  0  0  0
 28 73  2  0  0  0  0
 29 49  1  0  0  0  0
 29 64  1  0  0  0  0
 29 74  2  0  0  0  0
 30 50  1  0  0  0  0
 30 70  1  0  0  0  0
 30 75  2  0  0  0  0
 31 59  1  0  0  0  0
 31 65  1  0  0  0  0
 31 76  2  0  0  0  0
 32 60  1  0  0  0  0
 32 71  1  0  0  0  0
 32 77  2  0  0  0  0
 33 66  1  0  0  0  0
 33 67  1  0  0  0  0
 33 78  2  0  0  0  0
 34 37  1  0  0  0  0
 35 50  1  0  0  0  0
 36 65  1  0  0  0  0
 37 39  1  0  0  0  0
 38 40  1  0  0  0  0
 38 42  1  0  0  0  0
 39 48  1  0  0  0  0
 40 52  1  0  0  0  0
 41 43  1  0  0  0  0
 41 49  1  0  0  0  0
 42 66  1  0  0  0  0
 43 67  1  0  0  0  0
 44 49  1  0  0  0  0
 44 67  1  0  0  0  0
 45 51  1  0  0  0  0
 45 64  1  0  0  0  0
 46 51  1  0  0  0  0
 46 64  1  0  0  0  0
 47 52  1  0  0  0  0
 47 66  1  0  0  0  0
 48 70  1  0  0  0  0
 50 65  1  0  0  0  0
 51 58  1  0  0  0  0
 52 63  1  0  0  0  0
 53 60  1  0  0  0  0
 54 61  1  0  0  0  0
 55 61  1  0  0  0  0
 56 61  1  0  0  0  0
 57 72  1  0  0  0  0
 58 80  1  0  0  0  0
 59 61  1  0  0  0  0
 59 71  1  0  0  0  0
 60 72  1  0  0  0  0
 62 63  1  0  0  0  0
M  CHG  1  72   1
M  ISO  4  33 100  58 101  67 100  80 101
M  END
> <Batch ID>
0185

> <Smiles>
CNC(C)C(=O)NC(C(=O)N1Cc2cc([101O:1][101CH2:1]C3CN(C(=O)C4CC[100N:0]([100C:0](=O)N5CCCC(n6nc(-c7ccc(Oc8ccc(F)cc8F)cc7)c(C(N)=O)c6N)C5)C4)C3)ccc2CC1C(=O)NC1CCCc2ccccc21)C(C)(C)C

> <Shape>
0.239

> <Color>
0.112

> <Negative vol penalty>
0.000

$$$$

  -OEChem-04052323123D

 79 87  0     1  0  0  0  0  0999 V2000
  -32.4503  -33.4618   21.1073 C   0  0  0  0  0  0  0  0  0  0  0  0
  -32.4026  -32.2234   21.7393 C   0  0  0  0  0  0  0  0  0  0  0  0
  -23.0749   -9.8588   19.9318 C   0  0  0  0  0  0  0  0  0  0  0  0
  -23.9832   -9.7975   22.1698 C   0  0  0  0  0  0  0  0  0  0  0  0
  -31.5926  -33.7330   20.0421 C   0  0  0  0  0  0  0  0  0  0  0  0
  -31.4964  -31.2557   21.3071 C   0  0  0  0  0  0  0  0  0  0  0  0
  -32.3458  -25.1913   21.2259 C   0  0  0  0  0  0  0  0  0  0  0  0
  -22.3862   -8.6712   20.1788 C   0  0  0  0  0  0  0  0  0  0  0  0
  -23.2945   -8.6099   22.4168 C   0  0  0  0  0  0  0  0  0  0  0  0
  -31.9546  -24.1776   22.0994 C   0  0  0  0  0  0  0  0  0  0  0  0
  -20.1400   -7.6766   23.1904 C   0  0  0  0  0  0  0  0  0  0  0  0
  -19.4633   -7.5622   24.4047 C   0  0  0  0  0  0  0  0  0  0  0  0
  -30.0237  -23.7427   20.7203 C   0  0  0  0  0  0  0  0  0  0  0  0
  -20.8116   -5.6402   24.9750 C   0  0  0  0  0  0  0  0  0  0  0  0
  -23.8735  -10.4219   20.9273 C   0  0  0  0  0  0  0  0  0  0  0  0
  -24.1260  -12.9602   20.8953 C   0  0  0  0  0  0  0  0  0  0  0  0
  -30.6821  -32.7647   19.5903 C   0  0  0  0  0  0  0  0  0  0  0  0
  -31.5719  -25.4961   20.0970 C   0  0  0  0  0  0  0  0  0  0  0  0
  -30.6248  -31.5147   20.2357 C   0  0  0  0  0  0  0  0  0  0  0  0
  -30.4087  -24.7590   19.8326 C   0  0  0  0  0  0  0  0  0  0  0  0
  -22.4960   -8.0468   21.4213 C   0  0  0  0  0  0  0  0  0  0  0  0
  -30.7918  -23.4550   21.8483 C   0  0  0  0  0  0  0  0  0  0  0  0
  -21.1525   -6.7727   22.8683 C   0  0  0  0  0  0  0  0  0  0  0  0
  -19.7991   -6.5440   25.2970 C   0  0  0  0  0  0  0  0  0  0  0  0
  -21.4883   -5.7546   23.7607 C   0  0  0  0  0  0  0  0  0  0  0  0
  -24.5856  -11.6483   20.6726 C   0  0  0  0  0  0  0  0  0  0  0  0
  -25.1675  -13.7614   20.4954 C   0  0  0  0  0  0  0  0  0  0  0  0
  -22.8700  -13.4139   21.4170 C   0  0  0  0  0  0  0  0  0  0  0  0
  -29.9858  -28.0603   19.0904 C   0  0  0  0  0  0  0  0  0  0  0  0
  -29.5567  -26.2661   16.4222 C   0  0  0  0  0  0  0  0  0  0  0  0
  -29.4142  -23.1627   15.0097 C   0  0  0  0  0  0  0  0  0  0  0  0
  -30.7824  -14.6217   20.7984 C   0  0  0  0  0  0  0  0  0  0  0  0
  -29.7423  -33.1207   18.4657 C   0  0  0  0  0  0  0  0  0  0  0  0
  -32.0218  -26.5747   19.1501 C   0  0  0  0  0  0  0  0  0  0  0  0
  -29.5536  -25.0335   18.6236 C   0  0  0  0  0  0  0  0  0  0  0  0
  -29.0702  -31.9082   17.8267 C   0  0  0  0  0  0  0  0  0  0  0  0
  -29.3972  -12.6762   17.9634 C   0  0  0  0  0  0  0  0  0  0  0  0
  -28.5359  -30.9661   18.9009 C   0  0  0  0  0  0  0  0  0  0  0  0
  -28.0130  -12.2844   18.4772 C   0  0  0  0  0  0  0  0  0  0  0  0
  -31.4707  -17.3445   22.8354 C   0  0  0  0  0  0  0  0  0  0  0  0
  -29.4013  -17.7950   21.4580 C   0  0  0  0  0  0  0  0  0  0  0  0
  -30.3911  -12.8700   19.1043 C   0  0  0  0  0  0  0  0  0  0  0  0
  -31.0578  -15.8772   22.9157 C   0  0  0  0  0  0  0  0  0  0  0  0
  -29.0423  -16.3086   21.5435 C   0  0  0  0  0  0  0  0  0  0  0  0
  -28.5507  -13.4486   20.6537 C   0  0  0  0  0  0  0  0  0  0  0  0
  -29.6726  -30.4304   19.7798 C   0  0  1  0  0  0  0  0  0  0  0  0
  -30.8838  -27.1438   18.3085 C   0  0  1  0  0  0  0  0  0  0  0  0
  -27.5153  -13.2893   19.5302 C   0  0  2  0  0  0  0  0  0  0  0  0
  -30.2381  -18.2291   22.6595 C   0  0  0  0  0  0  0  0  0  0  0  0
  -29.0086  -22.0136   12.8160 C   0  0  0  0  0  0  0  0  0  0  0  0
  -26.5630  -26.7823   16.7082 C   0  0  0  0  0  0  0  0  0  0  0  0
  -26.1558  -24.8902   15.1200 C   0  0  0  0  0  0  0  0  0  0  0  0
  -27.4228  -26.9012   14.3627 C   0  0  0  0  0  0  0  0  0  0  0  0
  -32.1190  -21.9613   15.0067 C   0  0  0  0  0  0  0  0  0  0  0  0
  -30.9776  -20.3629   23.7265 C   0  0  0  0  0  0  0  0  0  0  0  0
  -31.4385  -21.7688   23.3957 C   0  0  0  0  0  0  0  0  0  1  0  0
  -28.5188  -25.2735   15.9569 C   0  0  1  0  0  0  0  0  0  0  0  0
  -30.0535  -22.5971   13.7543 C   0  0  2  0  0  0  0  0  0  0  0  0
  -27.1800  -25.9577   15.5609 C   0  0  0  0  0  0  0  0  0  0  0  0
  -25.8227  -11.6137   20.1701 N   0  0  0  0  0  0  0  0  0  0  0  0
  -26.1492  -12.9137   20.0736 N   0  0  0  0  0  0  0  0  0  0  0  0
  -30.0321  -26.1020   17.7310 N   0  0  0  0  0  0  0  0  0  0  0  0
  -29.8762  -13.7925   20.1165 N   0  0  0  0  0  0  0  0  0  0  0  0
  -30.2466  -15.4929   21.7590 N   0  0  0  0  0  0  0  0  0  0  0  0
  -25.3300  -15.1012   20.4669 N   0  0  0  0  0  0  0  0  0  0  0  0
  -21.9119  -12.4571   21.7788 N   0  0  0  0  0  0  0  0  0  0  0  0
  -30.3925  -29.3809   19.0908 N   0  0  0  0  0  0  0  0  0  0  0  0
  -29.1396  -24.5078   14.8814 N   0  0  0  0  0  0  0  0  0  0  0  0
  -30.6743  -19.6360   22.4647 N   0  3  0  0  0  0  0  0  0  0  0  0
  -31.0224  -21.5209   14.1063 N   0  3  0  0  0  0  0  0  0  0  0  0
  -22.5989  -14.6322   21.5428 O   0  0  0  0  0  0  0  0  0  0  0  0
  -28.9963  -27.6033   19.6507 O   0  0  0  0  0  0  0  0  0  0  0  0
  -29.9369  -27.1501   15.6504 O   0  0  0  0  0  0  0  0  0  0  0  0
  -29.1785  -22.4788   16.0033 O   0  0  0  0  0  0  0  0  0  0  0  0
  -31.9962  -14.5861   20.5607 O   0  0  0  0  0  0  0  0  0  0  0  0
  -21.8239   -6.8881   21.6627 O   0  0  0  0  0  0  0  0  0  0  0  0
  -30.4045  -22.4583   22.7058 O   0  0  0  0  0  0  0  0  0  1  0  0
  -19.1502   -6.4353   26.4638 F   0  0  0  0  0  0  0  0  0  0  0  0
  -22.4608   -4.8840   23.4573 F   0  0  0  0  0  0  0  0  0  0  0  0
  1  2  1  0  0  0  0
  1  5  2  0  0  0  0
  2  6  2  0  0  0  0
  3  8  2  0  0  0  0
  3 15  1  0  0  0  0
  4  9  1  0  0  0  0
  4 15  2  0  0  0  0
  5 17  1  0  0  0  0
  6 19  1  0  0  0  0
  7 10  2  0  0  0  0
  7 18  1  0  0  0  0
  8 21  1  0  0  0  0
  9 21  2  0  0  0  0
 10 22  1  0  0  0  0
 11 12  2  0  0  0  0
 11 23  1  0  0  0  0
 12 24  1  0  0  0  0
 13 20  1  0  0  0  0
 13 22  2  0  0  0  0
 14 24  2  0  0  0  0
 14 25  1  0  0  0  0
 15 26  1  0  0  0  0
 16 26  1  0  0  0  0
 16 27  2  0  0  0  0
 16 28  1  0  0  0  0
 17 19  2  0  0  0  0
 17 33  1  0  0  0  0
 18 20  2  0  0  0  0
 18 34  1  0  0  0  0
 19 46  1  0  0  0  0
 20 35  1  0  0  0  0
 21 76  1  0  0  0  0
 22 77  1  0  0  0  0
 23 25  2  0  0  0  0
 23 76  1  0  0  0  0
 24 78  1  0  0  0  0
 25 79  1  0  0  0  0
 26 60  2  0  0  0  0
 27 61  1  0  0  0  0
 27 65  1  0  0  0  0
 28 66  1  0  0  0  0
 28 71  2  0  0  0  0
 29 47  1  0  0  0  0
 29 67  1  0  0  0  0
 29 72  2  0  0  0  0
 30 57  1  0  0  0  0
 30 62  1  0  0  0  0
 30 73  2  0  0  0  0
 31 58  1  0  0  0  0
 31 68  1  0  0  0  0
 31 74  2  0  0  0  0
 32 63  1  0  0  0  0
 32 64  1  0  0  0  0
 32 75  2  0  0  0  0
 33 36  1  0  0  0  0
 34 47  1  0  0  0  0
 35 62  1  0  0  0  0
 36 38  1  0  0  0  0
 37 39  1  0  0  0  0
 37 42  1  0  0  0  0
 38 46  1  0  0  0  0
 39 48  1  0  0  0  0
 40 43  1  0  0  0  0
 40 49  1  0  0  0  0
 41 44  1  0  0  0  0
 41 49  1  0  0  0  0
 42 63  1  0  0  0  0
 43 64  1  0  0  0  0
 44 64  1  0  0  0  0
 45 48  1  0  0  0  0
 45 63  1  0  0  0  0
 46 67  1  0  0  0  0
 47 62  1  0  0  0  0
 48 61  1  0  0  0  0
 49 69  1  0  0  0  0
 50 58  1  0  0  0  0
 51 59  1  0  0  0  0
 52 59  1  0  0  0  0
 53 59  1  0  0  0  0
 54 70  1  0  0  0  0
 55 56  1  0  0  0  0
 55 69  1  0  0  0  0
 56 77  1  0  0  0  0
 57 59  1  0  0  0  0
 57 68  1  0  0  0  0
 58 70  1  0  0  0  0
 60 61  1  0  0  0  0
M  CHG  2  69   1  70   1
M  ISO  4  32 100  56 101  64 100  77 101
M  END
> <Batch ID>
0185

> <Smiles>
CNC(C)C(=O)NC(C(=O)N1Cc2cc([101O:1][101CH2:1]CNC3CC[100N:0]([100C:0](=O)N4CCCC(n5nc(-c6ccc(Oc7ccc(F)cc7F)cc6)c(C(N)=O)c5N)C4)CC3)ccc2CC1C(=O)NC1CCCc2ccccc21)C(C)(C)C

> <Shape>
0.241

> <Color>
0.191

> <Negative vol penalty>
0.000

$$$$

  -OEChem-04052323123D

 78 86  0     1  0  0  0  0  0999 V2000
  -18.7570  -27.7116   26.2306 C   0  0  0  0  0  0  0  0  0  0  0  0
  -20.1246  -27.4788   26.1271 C   0  0  0  0  0  0  0  0  0  0  0  0
  -25.9928  -13.4467   22.0115 C   0  0  0  0  0  0  0  0  0  0  0  0
  -24.6837  -13.1658   20.0004 C   0  0  0  0  0  0  0  0  0  0  0  0
  -18.0015  -27.9429   25.0818 C   0  0  0  0  0  0  0  0  0  0  0  0
  -20.7374  -27.4760   24.8746 C   0  0  0  0  0  0  0  0  0  0  0  0
  -26.3906  -29.4150   23.5376 C   0  0  0  0  0  0  0  0  0  0  0  0
  -25.2757  -12.4178   22.6220 C   0  0  0  0  0  0  0  0  0  0  0  0
  -23.9666  -12.1368   20.6109 C   0  0  0  0  0  0  0  0  0  0  0  0
  -27.5977  -28.7391   23.3649 C   0  0  0  0  0  0  0  0  0  0  0  0
  -22.0333   -9.1938   21.5157 C   0  0  0  0  0  0  0  0  0  0  0  0
  -21.8059   -8.0332   20.7761 C   0  0  0  0  0  0  0  0  0  0  0  0
  -27.2374  -28.7174   20.9798 C   0  0  0  0  0  0  0  0  0  0  0  0
  -24.1896   -7.6982   20.5691 C   0  0  0  0  0  0  0  0  0  0  0  0
  -25.6968  -13.8207   20.7007 C   0  0  0  0  0  0  0  0  0  0  0  0
  -27.6199  -14.7652   19.3159 C   0  0  0  0  0  0  0  0  0  0  0  0
  -18.6070  -27.9525   23.8154 C   0  0  0  0  0  0  0  0  0  0  0  0
  -25.5912  -29.7381   22.4317 C   0  0  0  0  0  0  0  0  0  0  0  0
  -19.9891  -27.7063   23.7077 C   0  0  0  0  0  0  0  0  0  0  0  0
  -26.0218  -29.3996   21.1409 C   0  0  0  0  0  0  0  0  0  0  0  0
  -24.2626  -11.7628   21.9217 C   0  0  0  0  0  0  0  0  0  0  0  0
  -28.0199  -28.3876   22.0861 C   0  0  0  0  0  0  0  0  0  0  0  0
  -23.3388   -9.6066   21.7819 C   0  0  0  0  0  0  0  0  0  0  0  0
  -22.8841   -7.2854   20.3028 C   0  0  0  0  0  0  0  0  0  0  0  0
  -24.4170   -8.8588   21.3087 C   0  0  0  0  0  0  0  0  0  0  0  0
  -26.4368  -14.8839   20.0697 C   0  0  0  0  0  0  0  0  0  0  0  0
  -27.9185  -16.0522   18.9407 C   0  0  0  0  0  0  0  0  0  0  0  0
  -28.3807  -13.5960   18.9845 C   0  0  0  0  0  0  0  0  0  0  0  0
  -22.6566  -28.9678   21.4838 C   0  0  0  0  0  0  0  0  0  0  0  0
  -23.2577  -31.1453   19.1557 C   0  0  0  0  0  0  0  0  0  0  0  0
  -25.5665  -32.8331   17.2936 C   0  0  0  0  0  0  0  0  0  0  0  0
  -28.4985  -21.3003   19.9110 C   0  0  0  0  0  0  0  0  0  0  0  0
  -17.7410  -28.1602   22.5982 C   0  0  0  0  0  0  0  0  0  0  0  0
  -24.3047  -30.4910   22.6327 C   0  0  0  0  0  0  0  0  0  0  0  0
  -25.2100  -29.7414   19.9191 C   0  0  0  0  0  0  0  0  0  0  0  0
  -18.5319  -28.5121   21.3408 C   0  0  0  0  0  0  0  0  0  0  0  0
  -25.1981  -20.2976   19.2436 C   0  0  0  0  0  0  0  0  0  0  0  0
  -19.7295  -27.5803   21.1853 C   0  0  0  0  0  0  0  0  0  0  0  0
  -25.3180  -18.7770   19.3394 C   0  0  0  0  0  0  0  0  0  0  0  0
  -26.0151  -21.0065   20.3253 C   0  0  0  0  0  0  0  0  0  0  0  0
  -27.6342  -23.3253   21.1668 C   0  0  0  0  0  0  0  0  0  0  0  0
  -29.3400  -23.5722   19.4012 C   0  0  0  0  0  0  0  0  0  0  0  0
  -27.5569  -19.0770   20.4634 C   0  0  0  0  0  0  0  0  0  0  0  0
  -28.5611  -24.0036   22.1704 C   0  0  0  0  0  0  0  0  0  0  0  0
  -30.2994  -24.2291   20.3802 C   0  0  0  0  0  0  0  0  0  0  0  0
  -20.6945  -27.7199   22.3689 C   0  0  1  0  0  0  0  0  0  0  0  0
  -23.3227  -30.3147   21.4785 C   0  0  1  0  0  0  0  0  0  0  0  0
  -26.7933  -18.3391   19.3529 C   0  0  1  0  0  0  0  0  0  0  0  0
  -25.7543  -34.5181   15.4435 C   0  0  0  0  0  0  0  0  0  0  0  0
  -22.5071  -28.9954   17.1248 C   0  0  0  0  0  0  0  0  0  0  0  0
  -23.6032  -30.3845   15.3536 C   0  0  0  0  0  0  0  0  0  0  0  0
  -21.6345  -31.2790   16.5973 C   0  0  0  0  0  0  0  0  0  0  0  0
  -27.0154  -34.7458   19.0259 C   0  0  0  0  0  0  0  0  0  0  0  0
  -30.3853  -25.6899   22.4015 C   0  0  0  0  0  0  0  0  0  0  0  0
  -29.6219  -26.8691   22.9714 C   0  0  0  0  0  0  0  0  0  1  0  0
  -23.8643  -31.0936   17.7743 C   0  0  1  0  0  0  0  0  0  0  0  0
  -25.7008  -34.3052   16.9484 C   0  0  2  0  0  0  0  0  0  0  0  0
  -22.9169  -30.4298   16.7355 C   0  0  0  0  0  0  0  0  0  0  0  0
  -26.0129  -16.1466   20.1685 N   0  0  0  0  0  0  0  0  0  0  0  0
  -26.9347  -16.8332   19.4721 N   0  0  0  0  0  0  0  0  0  0  0  0
  -23.9566  -30.4724   20.1680 N   0  0  0  0  0  0  0  0  0  0  0  0
  -27.4042  -20.5271   20.3267 N   0  0  0  0  0  0  0  0  0  0  0  0
  -28.4023  -22.6882   20.0903 N   0  0  0  0  0  0  0  0  0  0  0  0
  -28.9241  -16.5807   18.2115 N   0  0  0  0  0  0  0  0  0  0  0  0
  -27.9324  -12.3527   19.4509 N   0  0  0  0  0  0  0  0  0  0  0  0
  -21.4947  -28.9177   22.2300 N   0  0  0  0  0  0  0  0  0  0  0  0
  -24.2471  -32.4623   17.4451 N   0  0  0  0  0  0  0  0  0  0  0  0
  -29.4992  -24.9397   21.4469 N   0  3  0  0  0  0  0  0  0  0  0  0
  -26.9449  -34.8663   17.5469 N   0  3  0  0  0  0  0  0  0  0  0  0
  -29.4361  -13.6541   18.3091 O   0  0  0  0  0  0  0  0  0  0  0  0
  -23.1588  -28.0430   20.8559 O   0  0  0  0  0  0  0  0  0  0  0  0
  -22.2063  -31.7660   19.3317 O   0  0  0  0  0  0  0  0  0  0  0  0
  -26.5350  -32.0859   17.4130 O   0  0  0  0  0  0  0  0  0  0  0  0
  -29.5034  -20.7806   19.4095 O   0  0  0  0  0  0  0  0  0  0  0  0
  -23.5629  -10.7586   22.5170 O   0  0  0  0  0  0  0  0  0  0  0  0
  -29.2058  -27.7226   21.9135 O   0  0  0  0  0  0  0  0  0  1  0  0
  -22.6656   -6.1701   19.5939 F   0  0  0  0  0  0  0  0  0  0  0  0
  -25.6734   -9.2498   21.5623 F   0  0  0  0  0  0  0  0  0  0  0  0
  1  2  1  0  0  0  0
  1  5  2  0  0  0  0
  2  6  2  0  0  0  0
  3  8  2  0  0  0  0
  3 15  1  0  0  0  0
  4  9  1  0  0  0  0
  4 15  2  0  0  0  0
  5 17  1  0  0  0  0
  6 19  1  0  0  0  0
  7 10  2  0  0  0  0
  7 18  1  0  0  0  0
  8 21  1  0  0  0  0
  9 21  2  0  0  0  0
 10 22  1  0  0  0  0
 11 12  2  0  0  0  0
 11 23  1  0  0  0  0
 12 24  1  0  0  0  0
 13 20  1  0  0  0  0
 13 22  2  0  0  0  0
 14 24  2  0  0  0  0
 14 25  1  0  0  0  0
 15 26  1  0  0  0  0
 16 26  1  0  0  0  0
 16 27  2  0  0  0  0
 16 28  1  0  0  0  0
 17 19  2  0  0  0  0
 17 33  1  0  0  0  0
 18 20  2  0  0  0  0
 18 34  1  0  0  0  0
 19 46  1  0  0  0  0
 20 35  1  0  0  0  0
 21 75  1  0  0  0  0
 22 76  1  0  0  0  0
 23 25  2  0  0  0  0
 23 75  1  0  0  0  0
 24 77  1  0  0  0  0
 25 78  1  0  0  0  0
 26 59  2  0  0  0  0
 27 60  1  0  0  0  0
 27 64  1  0  0  0  0
 28 65  1  0  0  0  0
 28 70  2  0  0  0  0
 29 47  1  0  0  0  0
 29 66  1  0  0  0  0
 29 71  2  0  0  0  0
 30 56  1  0  0  0  0
 30 61  1  0  0  0  0
 30 72  2  0  0  0  0
 31 57  1  0  0  0  0
 31 67  1  0  0  0  0
 31 73  2  0  0  0  0
 32 62  1  0  0  0  0
 32 63  1  0  0  0  0
 32 74  2  0  0  0  0
 33 36  1  0  0  0  0
 34 47  1  0  0  0  0
 35 61  1  0  0  0  0
 36 38  1  0  0  0  0
 37 39  1  0  0  0  0
 37 40  1  0  0  0  0
 38 46  1  0  0  0  0
 39 48  1  0  0  0  0
 40 62  1  0  0  0  0
 41 44  1  0  0  0  0
 41 63  1  0  0  0  0
 42 45  1  0  0  0  0
 42 63  1  0  0  0  0
 43 48  1  0  0  0  0
 43 62  1  0  0  0  0
 44 68  1  0  0  0  0
 45 68  1  0  0  0  0
 46 66  1  0  0  0  0
 47 61  1  0  0  0  0
 48 60  1  0  0  0  0
 49 57  1  0  0  0  0
 50 58  1  0  0  0  0
 51 58  1  0  0  0  0
 52 58  1  0  0  0  0
 53 69  1  0  0  0  0
 54 55  1  0  0  0  0
 54 68  1  0  0  0  0
 55 76  1  0  0  0  0
 56 58  1  0  0  0  0
 56 67  1  0  0  0  0
 57 69  1  0  0  0  0
 59 60  1  0  0  0  0
M  CHG  2  68   1  69   1
M  ISO  4  32 100  55 101  63 100  76 101
M  END
> <Batch ID>
0185

> <Smiles>
CNC(C)C(=O)NC(C(=O)N1Cc2cc([101O:1][101CH2:1]CN3CC[100N:0]([100C:0](=O)N4CCCC(n5nc(-c6ccc(Oc7ccc(F)cc7F)cc6)c(C(N)=O)c5N)C4)CC3)ccc2CC1C(=O)NC1CCCc2ccccc21)C(C)(C)C

> <Shape>
0.253

> <Color>
0.093

> <Negative vol penalty>
0.000

$$$$

  -OEChem-04052323123D

 80 89  0     1  0  0  0  0  0999 V2000
  -17.5008  -32.7133   22.0597 C   0  0  0  0  0  0  0  0  0  0  0  0
  -18.6710  -32.7466   21.3081 C   0  0  0  0  0  0  0  0  0  0  0  0
  -28.3871  -13.7469   21.1066 C   0  0  0  0  0  0  0  0  0  0  0  0
  -26.6843  -14.5718   19.6043 C   0  0  0  0  0  0  0  0  0  0  0  0
  -17.4587  -31.9889   23.2502 C   0  0  0  0  0  0  0  0  0  0  0  0
  -19.8003  -32.0565   21.7473 C   0  0  0  0  0  0  0  0  0  0  0  0
  -25.4875  -28.4907   19.2458 C   0  0  0  0  0  0  0  0  0  0  0  0
  -27.7022  -12.5370   21.2187 C   0  0  0  0  0  0  0  0  0  0  0  0
  -25.9994  -13.3618   19.7163 C   0  0  0  0  0  0  0  0  0  0  0  0
  -26.8761  -28.4572   19.3662 C   0  0  0  0  0  0  0  0  0  0  0  0
  -23.6159  -10.6233   19.8887 C   0  0  0  0  0  0  0  0  0  0  0  0
  -22.2347  -10.6751   20.0760 C   0  0  0  0  0  0  0  0  0  0  0  0
  -26.6629  -27.1745   21.3981 C   0  0  0  0  0  0  0  0  0  0  0  0
  -22.5592  -11.9113   22.1264 C   0  0  0  0  0  0  0  0  0  0  0  0
  -27.8781  -14.7644   20.2995 C   0  0  0  0  0  0  0  0  0  0  0  0
  -29.5767  -16.3465   19.2415 C   0  0  0  0  0  0  0  0  0  0  0  0
  -18.5851  -31.2816   23.6993 C   0  0  0  0  0  0  0  0  0  0  0  0
  -24.6746  -27.8747   20.2081 C   0  0  0  0  0  0  0  0  0  0  0  0
  -19.7736  -31.3230   22.9456 C   0  0  0  0  0  0  0  0  0  0  0  0
  -25.2644  -27.1994   21.2862 C   0  0  0  0  0  0  0  0  0  0  0  0
  -26.5084  -12.3444   20.5235 C   0  0  0  0  0  0  0  0  0  0  0  0
  -27.4639  -27.8015   20.4440 C   0  0  0  0  0  0  0  0  0  0  0  0
  -24.4688  -11.2154   20.8202 C   0  0  0  0  0  0  0  0  0  0  0  0
  -21.7063  -11.3191   21.1949 C   0  0  0  0  0  0  0  0  0  0  0  0
  -23.9405  -11.8594   21.9390 C   0  0  0  0  0  0  0  0  0  0  0  0
  -28.5849  -16.0146   20.1838 C   0  0  0  0  0  0  0  0  0  0  0  0
  -29.9271  -17.6377   19.5520 C   0  0  0  0  0  0  0  0  0  0  0  0
  -30.1317  -15.5580   18.1803 C   0  0  0  0  0  0  0  0  0  0  0  0
  -22.4632  -28.8852   22.2556 C   0  0  0  0  0  0  0  0  0  0  0  0
  -22.0902  -25.7120   22.8161 C   0  0  0  0  0  0  0  0  0  0  0  0
  -23.4385  -22.5779   22.7373 C   0  0  0  0  0  0  0  0  0  0  0  0
  -28.0769  -22.8447   20.8070 C   0  0  0  0  0  0  0  0  0  0  0  0
  -18.5061  -30.5514   25.0166 C   0  0  0  0  0  0  0  0  0  0  0  0
  -23.1790  -27.8969   20.0495 C   0  0  0  0  0  0  0  0  0  0  0  0
  -24.4366  -26.5049   22.3355 C   0  0  0  0  0  0  0  0  0  0  0  0
  -19.6318  -29.5409   25.2213 C   0  0  0  0  0  0  0  0  0  0  0  0
  -28.7979  -20.4999   23.5598 C   0  0  0  0  0  0  0  0  0  0  0  0
  -20.9772  -30.1589   24.8540 C   0  0  0  0  0  0  0  0  0  0  0  0
  -28.8269  -19.1465   22.8498 C   0  0  0  0  0  0  0  0  0  0  0  0
  -27.8721  -21.4908   22.8593 C   0  0  0  0  0  0  0  0  0  0  0  0
  -30.2986  -22.5662   19.5840 C   0  0  0  0  0  0  0  0  0  0  0  0
  -28.1813  -20.3186   20.7104 C   0  0  0  0  0  0  0  0  0  0  0  0
  -28.7075  -24.2208   18.8408 C   0  0  0  0  0  0  0  0  0  0  0  0
  -31.7103  -24.7555   20.0098 C   0  0  0  0  0  0  0  0  0  0  0  0
  -21.0118  -30.5670   23.3763 C   0  0  1  0  0  0  0  0  0  0  0  0
  -22.4355  -27.6766   21.3633 C   0  0  1  0  0  0  0  0  0  0  0  0
  -31.0945  -23.7400   19.0303 C   0  0  2  0  0  0  0  0  0  0  0  0
  -29.1488  -19.3149   21.3539 C   0  0  2  0  0  0  0  0  0  0  0  0
  -30.0826  -24.8310   18.6682 C   0  0  2  0  0  0  0  0  0  0  0  0
  -22.9058  -20.1897   23.2941 C   0  0  0  0  0  0  0  0  0  0  0  0
  -31.7596  -27.5479   20.6100 C   0  0  0  0  0  0  0  0  0  0  0  0
  -22.4944  -26.3153   25.7796 C   0  0  0  0  0  0  0  0  0  0  0  0
  -22.9002  -23.8728   26.1501 C   0  0  0  0  0  0  0  0  0  0  0  0
  -20.6921  -24.6520   25.2900 C   0  0  0  0  0  0  0  0  0  0  0  0
  -23.7750  -21.7253   19.9233 C   0  0  0  0  0  0  0  0  0  0  0  0
  -29.5793  -27.7964   19.3572 C   0  0  0  0  0  0  0  0  0  1  0  0
  -22.7081  -24.7142   23.7656 C   0  0  1  0  0  0  0  0  0  0  0  0
  -22.8951  -21.2605   22.2143 C   0  0  2  0  0  0  0  0  0  0  0  0
  -30.8670  -26.9949   19.5109 C   0  0  2  0  0  0  0  0  0  0  0  0
  -22.2145  -24.9032   25.2278 C   0  0  0  0  0  0  0  0  0  0  0  0
  -28.3222  -17.0144   21.0297 N   0  0  0  0  0  0  0  0  0  0  0  0
  -29.1542  -17.9871   20.6201 N   0  0  0  0  0  0  0  0  0  0  0  0
  -22.9785  -26.5601   22.1397 N   0  0  0  0  0  0  0  0  0  0  0  0
  -28.1880  -21.5960   21.4344 N   0  0  0  0  0  0  0  0  0  0  0  0
  -28.9588  -23.1191   19.7583 N   0  0  0  0  0  0  0  0  0  0  0  0
  -30.8179  -18.4970   19.0130 N   0  0  0  0  0  0  0  0  0  0  0  0
  -29.6580  -14.2512   18.0009 N   0  0  0  0  0  0  0  0  0  0  0  0
  -21.2144  -29.4063   22.5360 N   0  0  0  0  0  0  0  0  0  0  0  0
  -22.4321  -23.3948   23.2076 N   0  0  0  0  0  0  0  0  0  0  0  0
  -30.5134  -25.6001   19.8612 N   0  3  2  0  0  0  0  0  0  0  0  0
  -23.7170  -20.7798   21.0677 N   0  3  0  0  0  0  0  0  0  0  0  0
  -31.0329  -15.9936   17.4243 O   0  0  0  0  0  0  0  0  0  0  0  0
  -23.5378  -29.3124   22.6610 O   0  0  0  0  0  0  0  0  0  0  0  0
  -20.8650  -25.7332   22.6743 O   0  0  0  0  0  0  0  0  0  0  0  0
  -24.6363  -22.8532   22.7328 O   0  0  0  0  0  0  0  0  0  0  0  0
  -27.2545  -23.6847   21.1948 O   0  0  0  0  0  0  0  0  0  0  0  0
  -25.8399  -11.1638   20.6324 O   0  0  0  0  0  0  0  0  0  0  0  0
  -28.8282  -27.7676   20.5651 O   0  0  0  0  0  0  0  0  0  1  0  0
  -20.3799  -11.3701   21.3739 F   0  0  0  0  0  0  0  0  0  0  0  0
  -24.7548  -12.4311   22.8367 F   0  0  0  0  0  0  0  0  0  0  0  0
  1  2  1  0  0  0  0
  1  5  2  0  0  0  0
  2  6  2  0  0  0  0
  3  8  2  0  0  0  0
  3 15  1  0  0  0  0
  4  9  1  0  0  0  0
  4 15  2  0  0  0  0
  5 17  1  0  0  0  0
  6 19  1  0  0  0  0
  7 10  2  0  0  0  0
  7 18  1  0  0  0  0
  8 21  1  0  0  0  0
  9 21  2  0  0  0  0
 10 22  1  0  0  0  0
 11 12  2  0  0  0  0
 11 23  1  0  0  0  0
 12 24  1  0  0  0  0
 13 20  1  0  0  0  0
 13 22  2  0  0  0  0
 14 24  2  0  0  0  0
 14 25  1  0  0  0  0
 15 26  1  0  0  0  0
 16 26  1  0  0  0  0
 16 27  2  0  0  0  0
 16 28  1  0  0  0  0
 17 19  2  0  0  0  0
 17 33  1  0  0  0  0
 18 20  2  0  0  0  0
 18 34  1  0  0  0  0
 19 45  1  0  0  0  0
 20 35  1  0  0  0  0
 21 77  1  0  0  0  0
 22 78  1  0  0  0  0
 23 25  2  0  0  0  0
 23 77  1  0  0  0  0
 24 79  1  0  0  0  0
 25 80  1  0  0  0  0
 26 61  2  0  0  0  0
 27 62  1  0  0  0  0
 27 66  1  0  0  0  0
 28 67  1  0  0  0  0
 28 72  2  0  0  0  0
 29 46  1  0  0  0  0
 29 68  1  0  0  0  0
 29 73  2  0  0  0  0
 30 57  1  0  0  0  0
 30 63  1  0  0  0  0
 30 74  2  0  0  0  0
 31 58  1  0  0  0  0
 31 69  1  0  0  0  0
 31 75  2  0  0  0  0
 32 64  1  0  0  0  0
 32 65  1  0  0  0  0
 32 76  2  0  0  0  0
 33 36  1  0  0  0  0
 34 46  1  0  0  0  0
 35 63  1  0  0  0  0
 36 38  1  0  0  0  0
 37 39  1  0  0  0  0
 37 40  1  0  0  0  0
 38 45  1  0  0  0  0
 39 48  1  0  0  0  0
 40 64  1  0  0  0  0
 41 47  1  0  0  0  0
 41 65  1  0  0  0  0
 42 48  1  0  0  0  0
 42 64  1  0  0  0  0
 43 49  1  0  0  0  0
 43 65  1  0  0  0  0
 44 47  1  0  0  0  0
 44 70  1  0  0  0  0
 45 68  1  0  0  0  0
 46 63  1  0  0  0  0
 47 49  1  0  0  0  0
 48 62  1  0  0  0  0
 49 70  1  0  0  0  0
 50 58  1  0  0  0  0
 51 59  1  0  0  0  0
 52 60  1  0  0  0  0
 53 60  1  0  0  0  0
 54 60  1  0  0  0  0
 55 71  1  0  0  0  0
 56 59  1  0  0  0  0
 56 78  1  0  0  0  0
 57 60  1  0  0  0  0
 57 69  1  0  0  0  0
 58 71  1  0  0  0  0
 59 70  1  0  0  0  0
 61 62  1  0  0  0  0
M  CHG  2  70   1  71   1
M  ISO  4  32 100  56 101  65 100  78 101
M  END
> <Batch ID>
0185

> <Smiles>
CNC(C)C(=O)NC(C(=O)N1Cc2cc([101O:1][101CH2:1]C(C)N3CC4C[100N:0]([100C:0](=O)N5CCCC(n6nc(-c7ccc(Oc8ccc(F)cc8F)cc7)c(C(N)=O)c6N)C5)CC43)ccc2CC1C(=O)NC1CCCc2ccccc21)C(C)(C)C

> <Shape>
0.254

> <Color>
0.062

> <Negative vol penalty>
0.000

$$$$

  -OEChem-04052323123D

 83 92  0     1  0  0  0  0  0999 V2000
  -23.0193  -23.0793   16.8002 C   0  0  0  0  0  0  0  0  0  0  0  0
  -24.1430  -22.5128   17.3934 C   0  0  0  0  0  0  0  0  0  0  0  0
  -21.9997  -28.8881   20.9829 C   0  0  0  0  0  0  0  0  0  0  0  0
  -23.1507  -27.7571   22.7809 C   0  0  0  0  0  0  0  0  0  0  0  0
  -21.7455  -22.6519   17.1726 C   0  0  0  0  0  0  0  0  0  0  0  0
  -23.9935  -21.5192   18.3603 C   0  0  0  0  0  0  0  0  0  0  0  0
  -27.1701  -17.6373   17.6641 C   0  0  0  0  0  0  0  0  0  0  0  0
  -20.7776  -28.6343   21.6054 C   0  0  0  0  0  0  0  0  0  0  0  0
  -21.9285  -27.5032   23.4035 C   0  0  0  0  0  0  0  0  0  0  0  0
  -28.4933  -17.8177   18.0645 C   0  0  0  0  0  0  0  0  0  0  0  0
  -18.9733  -29.9099   24.1648 C   0  0  0  0  0  0  0  0  0  0  0  0
  -18.0544  -30.9565   24.2400 C   0  0  0  0  0  0  0  0  0  0  0  0
  -28.0381  -16.6002   20.0966 C   0  0  0  0  0  0  0  0  0  0  0  0
  -16.4616  -29.6486   22.9792 C   0  0  0  0  0  0  0  0  0  0  0  0
  -31.7836  -19.6308   22.0029 C   0  0  0  0  0  0  0  0  0  0  0  0
  -23.1863  -28.4495   21.5706 C   0  0  0  0  0  0  0  0  0  0  0  0
  -25.2767  -29.8357   21.1057 C   0  0  0  0  0  0  0  0  0  0  0  0
  -21.5806  -21.6457   18.1376 C   0  0  0  0  0  0  0  0  0  0  0  0
  -26.2666  -16.9452   18.4834 C   0  0  0  0  0  0  0  0  0  0  0  0
  -22.7163  -21.0789   18.7470 C   0  0  0  0  0  0  0  0  0  0  0  0
  -26.7046  -16.4101   19.7032 C   0  0  0  0  0  0  0  0  0  0  0  0
  -31.0753  -20.8056   21.8524 C   0  0  0  0  0  0  0  0  0  0  0  0
  -20.7420  -27.9418   22.8157 C   0  0  0  0  0  0  0  0  0  0  0  0
  -28.9268  -17.3016   19.2822 C   0  0  0  0  0  0  0  0  0  0  0  0
  -18.6365  -28.7326   23.4967 C   0  0  0  0  0  0  0  0  0  0  0  0
  -16.7985  -30.8258   23.6472 C   0  0  0  0  0  0  0  0  0  0  0  0
  -17.3806  -28.6019   22.9040 C   0  0  0  0  0  0  0  0  0  0  0  0
  -24.4490  -28.7109   20.9277 C   0  0  0  0  0  0  0  0  0  0  0  0
  -30.0624  -20.7761   20.9156 C   0  0  0  0  0  0  0  0  0  0  0  0
  -26.3484  -29.6077   20.2774 C   0  0  0  0  0  0  0  0  0  0  0  0
  -30.5189  -18.6060   20.4163 C   0  0  0  0  0  0  0  0  0  1  0  0
  -25.0933  -30.9837   21.9447 C   0  0  0  0  0  0  0  0  0  0  0  0
  -23.5562  -17.6933   19.9658 C   0  0  0  0  0  0  0  0  0  0  0  0
  -23.5176  -14.5252   20.6615 C   0  0  0  0  0  0  0  0  0  0  0  0
  -25.2737  -11.6287   21.0775 C   0  0  0  0  0  0  0  0  0  0  0  0
  -28.7488  -24.6028   18.0441 C   0  0  0  0  0  0  0  0  0  0  0  0
  -20.1826  -21.2498   18.5419 C   0  0  0  0  0  0  0  0  0  0  0  0
  -24.8494  -16.7361   18.0249 C   0  0  0  0  0  0  0  0  0  0  0  0
  -25.7794  -15.6418   20.6099 C   0  0  0  0  0  0  0  0  0  0  0  0
  -20.1199  -19.9281   19.3031 C   0  0  0  0  0  0  0  0  0  0  0  0
  -27.5701  -27.3987   16.2340 C   0  0  0  0  0  0  0  0  0  0  0  0
  -21.1906  -19.8859   20.3886 C   0  0  0  0  0  0  0  0  0  0  0  0
  -26.6852  -28.1451   17.2286 C   0  0  0  0  0  0  0  0  0  0  0  0
  -27.7826  -21.7721   20.1673 C   0  0  0  0  0  0  0  0  0  0  0  0
  -27.4253  -25.8925   16.4054 C   0  0  0  0  0  0  0  0  0  0  0  0
  -27.3756  -23.1408   19.6383 C   0  0  0  0  0  0  0  0  0  0  0  0
  -29.7627  -22.9409   19.5744 C   0  0  0  0  0  0  0  0  0  0  0  0
  -26.8918  -26.1599   18.8125 C   0  0  0  0  0  0  0  0  0  0  0  0
  -22.5956  -19.9812   19.7817 C   0  0  1  0  0  0  0  0  0  0  0  0
  -29.2186  -22.0061   20.6639 C   0  0  2  0  0  0  0  0  0  0  0  0
  -23.8844  -16.4595   19.1736 C   0  0  1  0  0  0  0  0  0  0  0  0
  -26.9852  -27.6927   18.6660 C   0  0  2  0  0  0  0  0  0  0  0  0
  -30.8809  -21.9162   24.0918 C   0  0  0  0  0  0  0  0  0  0  0  0
  -24.9724   -9.2119   21.6821 C   0  0  0  0  0  0  0  0  0  0  0  0
  -23.2026  -15.3010   23.5956 C   0  0  0  0  0  0  0  0  0  0  0  0
  -23.8563  -12.9640   24.2115 C   0  0  0  0  0  0  0  0  0  0  0  0
  -21.7919  -13.3674   22.8705 C   0  0  0  0  0  0  0  0  0  0  0  0
  -26.3087  -10.7240   18.4566 C   0  0  0  0  0  0  0  0  0  0  0  0
  -31.4028  -22.0098   22.6579 C   0  0  0  0  0  0  0  0  0  0  0  0
  -24.0546  -13.6705   21.7840 C   0  0  1  0  0  0  0  0  0  0  0  0
  -25.0405  -10.2247   20.5497 C   0  0  2  0  0  0  0  0  0  0  0  0
  -23.2435  -13.8418   23.0994 C   0  0  0  0  0  0  0  0  0  0  0  0
  -31.5314  -18.5079   21.2988 N   0  0  0  0  0  0  0  0  0  0  0  0
  -24.9516  -27.8337   20.0549 N   0  0  0  0  0  0  0  0  0  0  0  0
  -29.7557  -19.6895   20.1771 N   0  0  0  0  0  0  0  0  0  0  0  0
  -26.1067  -28.4073   19.6769 N   0  0  0  0  0  0  0  0  0  0  0  0
  -24.4017  -15.4693   20.1203 N   0  0  0  0  0  0  0  0  0  0  0  0
  -27.6855  -25.4745   17.7842 N   0  0  0  0  0  0  0  0  0  0  0  0
  -28.6125  -23.7052   19.1023 N   0  0  0  0  0  0  0  0  0  0  0  0
  -27.4645  -30.3191   20.0115 N   0  0  0  0  0  0  0  0  0  0  0  0
  -23.9358  -31.0583   22.7314 N   0  0  0  0  0  0  0  0  0  0  0  0
  -22.9900  -18.7080   19.2179 N   0  0  0  0  0  0  0  0  0  0  0  0
  -24.0877  -12.3033   21.2762 N   0  0  0  0  0  0  0  0  0  0  0  0
  -26.1434   -9.8274   19.6295 N   0  3  0  0  0  0  0  0  0  0  0  0
  -25.9231  -31.9237   21.9828 O   0  0  0  0  0  0  0  0  0  0  0  0
  -23.7973  -17.7221   21.1669 O   0  0  0  0  0  0  0  0  0  0  0  0
  -22.3587  -14.3564   20.2740 O   0  0  0  0  0  0  0  0  0  0  0  0
  -26.3957  -12.0805   21.2956 O   0  0  0  0  0  0  0  0  0  0  0  0
  -29.7634  -24.5969   17.3339 O   0  0  0  0  0  0  0  0  0  0  0  0
  -19.5496  -27.6941   23.4236 O   0  0  0  0  0  0  0  0  0  0  0  0
  -30.2340  -17.4790   19.6807 O   0  0  0  0  0  0  0  0  0  1  0  0
  -15.9155  -31.8304   23.7209 F   0  0  0  0  0  0  0  0  0  0  0  0
  -17.0508  -27.4729   22.2619 F   0  0  0  0  0  0  0  0  0  0  0  0
  1  2  1  0  0  0  0
  1  5  2  0  0  0  0
  2  6  2  0  0  0  0
  3  8  2  0  0  0  0
  3 16  1  0  0  0  0
  4  9  1  0  0  0  0
  4 16  2  0  0  0  0
  5 18  1  0  0  0  0
  6 20  1  0  0  0  0
  7 10  2  0  0  0  0
  7 19  1  0  0  0  0
  8 23  1  0  0  0  0
  9 23  2  0  0  0  0
 10 24  1  0  0  0  0
 11 12  2  0  0  0  0
 11 25  1  0  0  0  0
 12 26  1  0  0  0  0
 13 21  1  0  0  0  0
 13 24  2  0  0  0  0
 14 26  2  0  0  0  0
 14 27  1  0  0  0  0
 15 22  1  0  0  0  0
 15 63  2  0  0  0  0
 16 28  1  0  0  0  0
 17 28  1  0  0  0  0
 17 30  2  0  0  0  0
 17 32  1  0  0  0  0
 18 20  2  0  0  0  0
 18 37  1  0  0  0  0
 19 21  2  0  0  0  0
 19 38  1  0  0  0  0
 20 49  1  0  0  0  0
 21 39  1  0  0  0  0
 22 29  2  0  0  0  0
 22 59  1  0  0  0  0
 23 80  1  0  0  0  0
 24 81  1  0  0  0  0
 25 27  2  0  0  0  0
 25 80  1  0  0  0  0
 26 82  1  0  0  0  0
 27 83  1  0  0  0  0
 28 64  2  0  0  0  0
 29 50  1  0  0  0  0
 29 65  1  0  0  0  0
 30 66  1  0  0  0  0
 30 70  1  0  0  0  0
 31 63  1  0  0  0  0
 31 65  2  0  0  0  0
 31 81  1  0  0  0  0
 32 71  1  0  0  0  0
 32 75  2  0  0  0  0
 33 51  1  0  0  0  0
 33 72  1  0  0  0  0
 33 76  2  0  0  0  0
 34 60  1  0  0  0  0
 34 67  1  0  0  0  0
 34 77  2  0  0  0  0
 35 61  1  0  0  0  0
 35 73  1  0  0  0  0
 35 78  2  0  0  0  0
 36 68  1  0  0  0  0
 36 69  1  0  0  0  0
 36 79  2  0  0  0  0
 37 40  1  0  0  0  0
 38 51  1  0  0  0  0
 39 67  1  0  0  0  0
 40 42  1  0  0  0  0
 41 43  1  0  0  0  0
 41 45  1  0  0  0  0
 42 49  1  0  0  0  0
 43 52  1  0  0  0  0
 44 46  1  0  0  0  0
 44 50  1  0  0  0  0
 45 68  1  0  0  0  0
 46 69  1  0  0  0  0
 47 50  1  0  0  0  0
 47 69  1  0  0  0  0
 48 52  1  0  0  0  0
 48 68  1  0  0  0  0
 49 72  1  0  0  0  0
 51 67  1  0  0  0  0
 52 66  1  0  0  0  0
 53 59  1  0  0  0  0
 54 61  1  0  0  0  0
 55 62  1  0  0  0  0
 56 62  1  0  0  0  0
 57 62  1  0  0  0  0
 58 74  1  0  0  0  0
 60 62  1  0  0  0  0
 60 73  1  0  0  0  0
 61 74  1  0  0  0  0
 64 66  1  0  0  0  0
M  CHG  1  74   1
M  ISO  4  31 101  36 100  69 100  81 101
M  END
> <Batch ID>
0185

> <Smiles>
CCc1cn[101c:1]([101O:1]c2ccc3c(c2)CN(C(=O)C(NC(=O)C(C)NC)C(C)(C)C)C(C(=O)NC2CCCc4ccccc42)C3)nc1C1CC[100N:0]([100C:0](=O)N2CCCC(n3nc(-c4ccc(Oc5ccc(F)cc5F)cc4)c(C(N)=O)c3N)C2)C1

> <Shape>
0.258

> <Color>
0.075

> <Negative vol penalty>
0.000

$$$$

  -OEChem-04052323123D

 78 86  0     1  0  0  0  0  0999 V2000
  -18.7570  -27.7116   26.2306 C   0  0  0  0  0  0  0  0  0  0  0  0
  -20.1246  -27.4788   26.1271 C   0  0  0  0  0  0  0  0  0  0  0  0
  -25.9928  -13.4467   22.0115 C   0  0  0  0  0  0  0  0  0  0  0  0
  -24.6837  -13.1658   20.0004 C   0  0  0  0  0  0  0  0  0  0  0  0
  -18.0015  -27.9429   25.0818 C   0  0  0  0  0  0  0  0  0  0  0  0
  -20.7374  -27.4760   24.8746 C   0  0  0  0  0  0  0  0  0  0  0  0
  -26.3906  -29.4150   23.5376 C   0  0  0  0  0  0  0  0  0  0  0  0
  -25.2757  -12.4178   22.6220 C   0  0  0  0  0  0  0  0  0  0  0  0
  -23.9666  -12.1368   20.6109 C   0  0  0  0  0  0  0  0  0  0  0  0
  -27.5977  -28.7391   23.3649 C   0  0  0  0  0  0  0  0  0  0  0  0
  -22.0333   -9.1938   21.5157 C   0  0  0  0  0  0  0  0  0  0  0  0
  -21.8059   -8.0332   20.7761 C   0  0  0  0  0  0  0  0  0  0  0  0
  -27.2374  -28.7174   20.9798 C   0  0  0  0  0  0  0  0  0  0  0  0
  -24.1896   -7.6982   20.5691 C   0  0  0  0  0  0  0  0  0  0  0  0
  -25.6968  -13.8207   20.7007 C   0  0  0  0  0  0  0  0  0  0  0  0
  -27.6199  -14.7652   19.3159 C   0  0  0  0  0  0  0  0  0  0  0  0
  -18.6070  -27.9525   23.8154 C   0  0  0  0  0  0  0  0  0  0  0  0
  -25.5912  -29.7381   22.4317 C   0  0  0  0  0  0  0  0  0  0  0  0
  -19.9891  -27.7063   23.7077 C   0  0  0  0  0  0  0  0  0  0  0  0
  -26.0218  -29.3996   21.1409 C   0  0  0  0  0  0  0  0  0  0  0  0
  -24.2626  -11.7628   21.9217 C   0  0  0  0  0  0  0  0  0  0  0  0
  -28.0199  -28.3876   22.0861 C   0  0  0  0  0  0  0  0  0  0  0  0
  -23.3388   -9.6066   21.7819 C   0  0  0  0  0  0  0  0  0  0  0  0
  -22.8841   -7.2854   20.3028 C   0  0  0  0  0  0  0  0  0  0  0  0
  -24.4170   -8.8588   21.3087 C   0  0  0  0  0  0  0  0  0  0  0  0
  -26.4368  -14.8839   20.0697 C   0  0  0  0  0  0  0  0  0  0  0  0
  -27.9185  -16.0522   18.9407 C   0  0  0  0  0  0  0  0  0  0  0  0
  -28.3807  -13.5960   18.9845 C   0  0  0  0  0  0  0  0  0  0  0  0
  -22.6566  -28.9678   21.4838 C   0  0  0  0  0  0  0  0  0  0  0  0
  -23.2577  -31.1453   19.1557 C   0  0  0  0  0  0  0  0  0  0  0  0
  -25.5665  -32.8331   17.2936 C   0  0  0  0  0  0  0  0  0  0  0  0
  -28.4985  -21.3003   19.9110 C   0  0  0  0  0  0  0  0  0  0  0  0
  -17.7410  -28.1602   22.5982 C   0  0  0  0  0  0  0  0  0  0  0  0
  -24.3047  -30.4910   22.6327 C   0  0  0  0  0  0  0  0  0  0  0  0
  -25.2100  -29.7414   19.9191 C   0  0  0  0  0  0  0  0  0  0  0  0
  -18.5319  -28.5121   21.3408 C   0  0  0  0  0  0  0  0  0  0  0  0
  -25.1981  -20.2976   19.2436 C   0  0  0  0  0  0  0  0  0  0  0  0
  -19.7295  -27.5803   21.1853 C   0  0  0  0  0  0  0  0  0  0  0  0
  -25.3180  -18.7770   19.3394 C   0  0  0  0  0  0  0  0  0  0  0  0
  -26.0151  -21.0065   20.3253 C   0  0  0  0  0  0  0  0  0  0  0  0
  -27.6342  -23.3253   21.1668 C   0  0  0  0  0  0  0  0  0  0  0  0
  -29.3400  -23.5722   19.4012 C   0  0  0  0  0  0  0  0  0  0  0  0
  -27.5569  -19.0770   20.4634 C   0  0  0  0  0  0  0  0  0  0  0  0
  -28.5611  -24.0036   22.1704 C   0  0  0  0  0  0  0  0  0  0  0  0
  -30.2994  -24.2291   20.3802 C   0  0  0  0  0  0  0  0  0  0  0  0
  -20.6945  -27.7199   22.3689 C   0  0  1  0  0  0  0  0  0  0  0  0
  -23.3227  -30.3147   21.4785 C   0  0  1  0  0  0  0  0  0  0  0  0
  -26.7933  -18.3391   19.3529 C   0  0  1  0  0  0  0  0  0  0  0  0
  -25.7543  -34.5181   15.4435 C   0  0  0  0  0  0  0  0  0  0  0  0
  -22.5071  -28.9954   17.1248 C   0  0  0  0  0  0  0  0  0  0  0  0
  -23.6032  -30.3845   15.3536 C   0  0  0  0  0  0  0  0  0  0  0  0
  -21.6345  -31.2790   16.5973 C   0  0  0  0  0  0  0  0  0  0  0  0
  -27.0154  -34.7458   19.0259 C   0  0  0  0  0  0  0  0  0  0  0  0
  -30.3853  -25.6899   22.4015 C   0  0  0  0  0  0  0  0  0  0  0  0
  -29.6219  -26.8691   22.9714 C   0  0  0  0  0  0  0  0  0  1  0  0
  -23.8643  -31.0936   17.7743 C   0  0  1  0  0  0  0  0  0  0  0  0
  -25.7008  -34.3052   16.9484 C   0  0  2  0  0  0  0  0  0  0  0  0
  -22.9169  -30.4298   16.7355 C   0  0  0  0  0  0  0  0  0  0  0  0
  -26.0129  -16.1466   20.1685 N   0  0  0  0  0  0  0  0  0  0  0  0
  -26.9347  -16.8332   19.4721 N   0  0  0  0  0  0  0  0  0  0  0  0
  -23.9566  -30.4724   20.1680 N   0  0  0  0  0  0  0  0  0  0  0  0
  -27.4042  -20.5271   20.3267 N   0  0  0  0  0  0  0  0  0  0  0  0
  -28.4023  -22.6882   20.0903 N   0  0  0  0  0  0  0  0  0  0  0  0
  -28.9241  -16.5807   18.2115 N   0  0  0  0  0  0  0  0  0  0  0  0
  -27.9324  -12.3527   19.4509 N   0  0  0  0  0  0  0  0  0  0  0  0
  -21.4947  -28.9177   22.2300 N   0  0  0  0  0  0  0  0  0  0  0  0
  -24.2471  -32.4623   17.4451 N   0  0  0  0  0  0  0  0  0  0  0  0
  -29.4992  -24.9397   21.4469 N   0  3  0  0  0  0  0  0  0  0  0  0
  -26.9449  -34.8663   17.5469 N   0  3  0  0  0  0  0  0  0  0  0  0
  -29.4361  -13.6541   18.3091 O   0  0  0  0  0  0  0  0  0  0  0  0
  -23.1588  -28.0430   20.8559 O   0  0  0  0  0  0  0  0  0  0  0  0
  -22.2063  -31.7660   19.3317 O   0  0  0  0  0  0  0  0  0  0  0  0
  -26.5350  -32.0859   17.4130 O   0  0  0  0  0  0  0  0  0  0  0  0
  -29.5034  -20.7806   19.4095 O   0  0  0  0  0  0  0  0  0  0  0  0
  -23.5629  -10.7586   22.5170 O   0  0  0  0  0  0  0  0  0  0  0  0
  -29.2058  -27.7226   21.9135 O   0  0  0  0  0  0  0  0  0  1  0  0
  -22.6656   -6.1701   19.5939 F   0  0  0  0  0  0  0  0  0  0  0  0
  -25.6734   -9.2498   21.5623 F   0  0  0  0  0  0  0  0  0  0  0  0
  1  2  1  0  0  0  0
  1  5  2  0  0  0  0
  2  6  2  0  0  0  0
  3  8  2  0  0  0  0
  3 15  1  0  0  0  0
  4  9  1  0  0  0  0
  4 15  2  0  0  0  0
  5 17  1  0  0  0  0
  6 19  1  0  0  0  0
  7 10  2  0  0  0  0
  7 18  1  0  0  0  0
  8 21  1  0  0  0  0
  9 21  2  0  0  0  0
 10 22  1  0  0  0  0
 11 12  2  0  0  0  0
 11 23  1  0  0  0  0
 12 24  1  0  0  0  0
 13 20  1  0  0  0  0
 13 22  2  0  0  0  0
 14 24  2  0  0  0  0
 14 25  1  0  0  0  0
 15 26  1  0  0  0  0
 16 26  1  0  0  0  0
 16 27  2  0  0  0  0
 16 28  1  0  0  0  0
 17 19  2  0  0  0  0
 17 33  1  0  0  0  0
 18 20  2  0  0  0  0
 18 34  1  0  0  0  0
 19 46  1  0  0  0  0
 20 35  1  0  0  0  0
 21 75  1  0  0  0  0
 22 76  1  0  0  0  0
 23 25  2  0  0  0  0
 23 75  1  0  0  0  0
 24 77  1  0  0  0  0
 25 78  1  0  0  0  0
 26 59  2  0  0  0  0
 27 60  1  0  0  0  0
 27 64  1  0  0  0  0
 28 65  1  0  0  0  0
 28 70  2  0  0  0  0
 29 47  1  0  0  0  0
 29 66  1  0  0  0  0
 29 71  2  0  0  0  0
 30 56  1  0  0  0  0
 30 61  1  0  0  0  0
 30 72  2  0  0  0  0
 31 57  1  0  0  0  0
 31 67  1  0  0  0  0
 31 73  2  0  0  0  0
 32 62  1  0  0  0  0
 32 63  1  0  0  0  0
 32 74  2  0  0  0  0
 33 36  1  0  0  0  0
 34 47  1  0  0  0  0
 35 61  1  0  0  0  0
 36 38  1  0  0  0  0
 37 39  1  0  0  0  0
 37 40  1  0  0  0  0
 38 46  1  0  0  0  0
 39 48  1  0  0  0  0
 40 62  1  0  0  0  0
 41 44  1  0  0  0  0
 41 63  1  0  0  0  0
 42 45  1  0  0  0  0
 42 63  1  0  0  0  0
 43 48  1  0  0  0  0
 43 62  1  0  0  0  0
 44 68  1  0  0  0  0
 45 68  1  0  0  0  0
 46 66  1  0  0  0  0
 47 61  1  0  0  0  0
 48 60  1  0  0  0  0
 49 57  1  0  0  0  0
 50 58  1  0  0  0  0
 51 58  1  0  0  0  0
 52 58  1  0  0  0  0
 53 69  1  0  0  0  0
 54 55  1  0  0  0  0
 54 68  1  0  0  0  0
 55 76  1  0  0  0  0
 56 58  1  0  0  0  0
 56 67  1  0  0  0  0
 57 69  1  0  0  0  0
 59 60  1  0  0  0  0
M  CHG  2  68   1  69   1
M  ISO  4  32 100  55 101  63 100  76 101
M  END
> <Batch ID>
0185

> <Smiles>
CNC(C)C(=O)NC(C(=O)N1Cc2cc([101O:1][101CH2:1]CN3CC[100N:0]([100C:0](=O)N4CCCC(n5nc(-c6ccc(Oc7ccc(F)cc7F)cc6)c(C(N)=O)c5N)C4)CC3)ccc2CC1C(=O)NC1CCCc2ccccc21)C(C)(C)C

> <Shape>
0.253

> <Color>
0.093

> <Negative vol penalty>
0.000

$$$$

  -OEChem-04052323123D

 82 91  0     1  0  0  0  0  0999 V2000
  -16.6675  -26.3621   22.3077 C   0  0  0  0  0  0  0  0  0  0  0  0
  -17.7615  -26.5828   21.4770 C   0  0  0  0  0  0  0  0  0  0  0  0
  -28.0736  -15.8281   20.6173 C   0  0  0  0  0  0  0  0  0  0  0  0
  -30.2268  -14.7695   20.3342 C   0  0  0  0  0  0  0  0  0  0  0  0
  -16.2503  -27.3590   23.1886 C   0  0  0  0  0  0  0  0  0  0  0  0
  -18.4382  -27.8010   21.5261 C   0  0  0  0  0  0  0  0  0  0  0  0
  -23.4698  -27.2286   21.5533 C   0  0  0  0  0  0  0  0  0  0  0  0
  -27.4413  -14.6415   20.2461 C   0  0  0  0  0  0  0  0  0  0  0  0
  -29.5945  -13.5828   19.9631 C   0  0  0  0  0  0  0  0  0  0  0  0
  -24.0849  -26.9443   20.3348 C   0  0  0  0  0  0  0  0  0  0  0  0
  -26.6737  -11.6753   21.6762 C   0  0  0  0  0  0  0  0  0  0  0  0
  -25.5881  -11.2519   22.4429 C   0  0  0  0  0  0  0  0  0  0  0  0
  -24.7204  -29.2615   20.1217 C   0  0  0  0  0  0  0  0  0  0  0  0
  -24.1677  -11.3602   20.4915 C   0  0  0  0  0  0  0  0  0  0  0  0
  -25.4305  -26.7034   15.5074 C   0  0  0  0  0  0  0  0  0  0  0  0
  -29.4663  -15.8922   20.6612 C   0  0  0  0  0  0  0  0  0  0  0  0
  -30.4867  -17.5158   22.3436 C   0  0  0  0  0  0  0  0  0  0  0  0
  -16.9281  -28.5864   23.2553 C   0  0  0  0  0  0  0  0  0  0  0  0
  -23.4660  -28.5359   22.0607 C   0  0  0  0  0  0  0  0  0  0  0  0
  -18.0288  -28.8157   22.4078 C   0  0  0  0  0  0  0  0  0  0  0  0
  -24.1069  -29.5594   21.3481 C   0  0  0  0  0  0  0  0  0  0  0  0
  -28.2018  -13.5188   19.9191 C   0  0  0  0  0  0  0  0  0  0  0  0
  -24.7078  -27.9613   19.6175 C   0  0  0  0  0  0  0  0  0  0  0  0
  -26.5063  -11.9412   20.3171 C   0  0  0  0  0  0  0  0  0  0  0  0
  -24.3351  -11.0943   21.8506 C   0  0  0  0  0  0  0  0  0  0  0  0
  -25.2533  -11.7836   19.7248 C   0  0  0  0  0  0  0  0  0  0  0  0
  -30.1200  -17.1178   21.0440 C   0  0  0  0  0  0  0  0  0  0  0  0
  -27.8540  -25.5837   15.5010 C   0  0  0  0  0  0  0  0  0  0  0  0
  -25.9979  -26.2305   16.6701 C   0  0  0  0  0  0  0  0  0  0  0  0
  -27.2861  -26.0560   14.3383 C   0  0  0  0  0  0  0  0  0  0  0  0
  -31.0708  -18.7472   22.1736 C   0  0  0  0  0  0  0  0  0  0  0  0
  -30.3149  -16.8332   23.5927 C   0  0  0  0  0  0  0  0  0  0  0  0
  -21.2102  -30.6593   22.7721 C   0  0  0  0  0  0  0  0  0  0  0  0
  -23.7209  -32.3590   23.9252 C   0  0  0  0  0  0  0  0  0  0  0  0
  -27.0771  -32.9743   23.8608 C   0  0  0  0  0  0  0  0  0  0  0  0
  -30.3012  -22.8062   17.8804 C   0  0  0  0  0  0  0  0  0  0  0  0
  -16.4111  -29.6514   24.1898 C   0  0  0  0  0  0  0  0  0  0  0  0
  -22.8213  -28.8211   23.3894 C   0  0  0  0  0  0  0  0  0  0  0  0
  -24.1484  -30.9756   21.8591 C   0  0  0  0  0  0  0  0  0  0  0  0
  -17.4123  -30.7747   24.4467 C   0  0  0  0  0  0  0  0  0  0  0  0
  -33.4994  -21.3448   18.9980 C   0  0  0  0  0  0  0  0  0  0  0  0
  -18.0316  -31.2480   23.1356 C   0  0  0  0  0  0  0  0  0  0  0  0
  -33.0125  -20.0953   19.7259 C   0  0  0  0  0  0  0  0  0  0  0  0
  -30.4228  -25.8443   15.5783 C   0  0  0  0  0  0  0  0  0  0  0  0
  -32.6129  -21.6947   17.8035 C   0  0  0  0  0  0  0  0  0  0  0  0
  -30.6818  -20.5756   18.8818 C   0  0  0  0  0  0  0  0  0  0  0  0
  -18.8039  -30.1148   22.4494 C   0  0  1  0  0  0  0  0  0  0  0  0
  -29.2087  -24.9594   15.4920 C   0  0  1  0  0  0  0  0  0  0  0  0
  -22.4323  -30.2860   23.5626 C   0  0  1  0  0  0  0  0  0  0  0  0
  -31.5330  -20.2361   20.1150 C   0  0  1  0  0  0  0  0  0  0  0  0
  -30.0386  -24.9959   16.7542 C   0  0  1  0  0  0  0  0  0  0  0  0
  -27.9949  -25.9640   13.0301 C   0  0  0  0  0  0  0  0  0  0  0  0
  -28.8299  -34.4473   24.8882 C   0  0  0  0  0  0  0  0  0  0  0  0
  -22.7911  -34.6806   22.1772 C   0  0  0  0  0  0  0  0  0  0  0  0
  -25.0397  -35.7332   22.5002 C   0  0  0  0  0  0  0  0  0  0  0  0
  -23.5552  -35.3387   24.4658 C   0  0  0  0  0  0  0  0  0  0  0  0
  -28.5214  -30.6568   25.0018 C   0  0  0  0  0  0  0  0  0  0  0  0
  -25.2623  -26.3345   17.9737 C   0  0  0  0  0  0  0  0  0  1  0  0
  -24.6822  -33.3703   23.3489 C   0  0  1  0  0  0  0  0  0  0  0  0
  -28.0965  -33.1180   24.9765 C   0  0  2  0  0  0  0  0  0  0  0  0
  -24.0148  -34.7545   23.1122 C   0  0  0  0  0  0  0  0  0  0  0  0
  -26.0643  -26.6246   14.3206 N   0  0  0  0  0  0  0  0  0  0  0  0
  -30.4438  -18.0232   20.1169 N   0  0  0  0  0  0  0  0  0  0  0  0
  -27.2199  -25.6622   16.6878 N   0  0  0  0  0  0  0  0  0  0  0  0
  -31.0201  -19.0023   20.8348 N   0  0  0  0  0  0  0  0  0  0  0  0
  -23.4985  -31.2054   23.1600 N   0  0  0  0  0  0  0  0  0  0  0  0
  -31.1933  -21.7619   18.1844 N   0  0  0  0  0  0  0  0  0  0  0  0
  -31.6176  -19.6260   23.0403 N   0  0  0  0  0  0  0  0  0  0  0  0
  -29.6953  -15.5761   23.5875 N   0  0  0  0  0  0  0  0  0  0  0  0
  -20.0874  -29.9186   23.0886 N   0  0  0  0  0  0  0  0  0  0  0  0
  -25.8274  -33.4058   24.2521 N   0  0  0  0  0  0  0  0  0  0  0  0
  -30.8309  -23.8606   17.1452 N   0  0  0  0  0  0  0  0  0  0  0  0
  -29.1022  -32.0206   24.9037 N   0  3  0  0  0  0  0  0  0  0  0  0
  -30.6846  -17.3309   24.6832 O   0  0  0  0  0  0  0  0  0  0  0  0
  -21.2804  -31.5542   21.9379 O   0  0  0  0  0  0  0  0  0  0  0  0
  -23.1925  -32.5810   25.0175 O   0  0  0  0  0  0  0  0  0  0  0  0
  -27.3619  -32.5277   22.7517 O   0  0  0  0  0  0  0  0  0  0  0  0
  -29.1165  -22.7990   18.2327 O   0  0  0  0  0  0  0  0  0  0  0  0
  -27.5852  -12.3607   19.5571 O   0  0  0  0  0  0  0  0  0  0  0  0
  -25.3083  -27.6866   18.4276 O   0  0  0  0  0  0  0  0  0  1  0  0
  -23.2931  -10.6863   22.5866 F   0  0  0  0  0  0  0  0  0  0  0  0
  -25.0866  -12.0364   18.4194 F   0  0  0  0  0  0  0  0  0  0  0  0
  1  2  1  0  0  0  0
  1  5  2  0  0  0  0
  2  6  2  0  0  0  0
  3  8  2  0  0  0  0
  3 16  1  0  0  0  0
  4  9  1  0  0  0  0
  4 16  2  0  0  0  0
  5 18  1  0  0  0  0
  6 20  1  0  0  0  0
  7 10  2  0  0  0  0
  7 19  1  0  0  0  0
  8 22  1  0  0  0  0
  9 22  2  0  0  0  0
 10 23  1  0  0  0  0
 11 12  2  0  0  0  0
 11 24  1  0  0  0  0
 12 25  1  0  0  0  0
 13 21  1  0  0  0  0
 13 23  2  0  0  0  0
 14 25  2  0  0  0  0
 14 26  1  0  0  0  0
 15 29  1  0  0  0  0
 15 62  2  0  0  0  0
 16 27  1  0  0  0  0
 17 27  1  0  0  0  0
 17 31  2  0  0  0  0
 17 32  1  0  0  0  0
 18 20  2  0  0  0  0
 18 37  1  0  0  0  0
 19 21  2  0  0  0  0
 19 38  1  0  0  0  0
 20 47  1  0  0  0  0
 21 39  1  0  0  0  0
 22 79  1  0  0  0  0
 23 80  1  0  0  0  0
 24 26  2  0  0  0  0
 24 79  1  0  0  0  0
 25 81  1  0  0  0  0
 26 82  1  0  0  0  0
 27 63  2  0  0  0  0
 28 30  2  0  0  0  0
 28 48  1  0  0  0  0
 28 64  1  0  0  0  0
 29 58  1  0  0  0  0
 29 64  2  0  0  0  0
 30 52  1  0  0  0  0
 30 62  1  0  0  0  0
 31 65  1  0  0  0  0
 31 68  1  0  0  0  0
 32 69  1  0  0  0  0
 32 74  2  0  0  0  0
 33 49  1  0  0  0  0
 33 70  1  0  0  0  0
 33 75  2  0  0  0  0
 34 59  1  0  0  0  0
 34 66  1  0  0  0  0
 34 76  2  0  0  0  0
 35 60  1  0  0  0  0
 35 71  1  0  0  0  0
 35 77  2  0  0  0  0
 36 67  1  0  0  0  0
 36 72  1  0  0  0  0
 36 78  2  0  0  0  0
 37 40  1  0  0  0  0
 38 49  1  0  0  0  0
 39 66  1  0  0  0  0
 40 42  1  0  0  0  0
 41 43  1  0  0  0  0
 41 45  1  0  0  0  0
 42 47  1  0  0  0  0
 43 50  1  0  0  0  0
 44 48  1  0  0  0  0
 44 51  1  0  0  0  0
 45 67  1  0  0  0  0
 46 50  1  0  0  0  0
 46 67  1  0  0  0  0
 47 70  1  0  0  0  0
 48 51  1  0  0  0  0
 49 66  1  0  0  0  0
 50 65  1  0  0  0  0
 51 72  1  0  0  0  0
 53 60  1  0  0  0  0
 54 61  1  0  0  0  0
 55 61  1  0  0  0  0
 56 61  1  0  0  0  0
 57 73  1  0  0  0  0
 58 80  1  0  0  0  0
 59 61  1  0  0  0  0
 59 71  1  0  0  0  0
 60 73  1  0  0  0  0
 63 65  1  0  0  0  0
M  CHG  1  73   1
M  ISO  4  36 100  58 101  72 100  80 101
M  END
> <Batch ID>
0185

> <Smiles>
CNC(C)C(=O)NC(C(=O)N1Cc2cc([101O:1][101CH2:1]c3cnc(C)c(C4CC4[100NH:0][100C:0](=O)N4CCCC(n5nc(-c6ccc(Oc7ccc(F)cc7F)cc6)c(C(N)=O)c5N)C4)n3)ccc2CC1C(=O)NC1CCCc2ccccc21)C(C)(C)C

> <Shape>
0.282

> <Color>
0.068

> <Negative vol penalty>
0.000

$$$$

  -OEChem-04052323123D

 82 90  0     1  0  0  0  0  0999 V2000
  -31.1103  -33.4355   23.8246 C   0  0  0  0  0  0  0  0  0  0  0  0
  -30.7680  -32.3036   23.0919 C   0  0  0  0  0  0  0  0  0  0  0  0
  -25.0004  -13.5488   19.7921 C   0  0  0  0  0  0  0  0  0  0  0  0
  -24.7870  -14.5525   21.9793 C   0  0  0  0  0  0  0  0  0  0  0  0
  -30.3290  -33.8228   24.9125 C   0  0  0  0  0  0  0  0  0  0  0  0
  -29.6449  -31.5575   23.4473 C   0  0  0  0  0  0  0  0  0  0  0  0
  -26.8213  -30.2705   19.4454 C   0  0  0  0  0  0  0  0  0  0  0  0
  -24.9625  -12.2801   20.3706 C   0  0  0  0  0  0  0  0  0  0  0  0
  -24.7490  -13.2839   22.5578 C   0  0  0  0  0  0  0  0  0  0  0  0
  -27.2714  -29.2072   18.6641 C   0  0  0  0  0  0  0  0  0  0  0  0
  -22.6225  -10.1738   21.6038 C   0  0  0  0  0  0  0  0  0  0  0  0
  -21.8108   -9.2115   21.0033 C   0  0  0  0  0  0  0  0  0  0  0  0
  -25.7094  -27.7400   19.7717 C   0  0  0  0  0  0  0  0  0  0  0  0
  -23.7439   -7.8093   20.6372 C   0  0  0  0  0  0  0  0  0  0  0  0
  -28.6966  -25.0834   17.8265 C   0  0  0  0  0  0  0  0  0  0  0  0
  -24.9128  -14.6850   20.5965 C   0  0  0  0  0  0  0  0  0  0  0  0
  -23.8586  -16.7560   19.5441 C   0  0  0  0  0  0  0  0  0  0  0  0
  -29.1902  -33.0867   25.2756 C   0  0  0  0  0  0  0  0  0  0  0  0
  -25.8178  -30.0739   20.4049 C   0  0  0  0  0  0  0  0  0  0  0  0
  -28.8484  -31.9346   24.5419 C   0  0  0  0  0  0  0  0  0  0  0  0
  -25.2465  -28.8031   20.5621 C   0  0  0  0  0  0  0  0  0  0  0  0
  -24.8367  -12.1477   21.7534 C   0  0  0  0  0  0  0  0  0  0  0  0
  -26.7175  -27.9411   18.8292 C   0  0  0  0  0  0  0  0  0  0  0  0
  -23.9950   -9.9539   21.7210 C   0  0  0  0  0  0  0  0  0  0  0  0
  -22.3714   -8.0293   20.5200 C   0  0  0  0  0  0  0  0  0  0  0  0
  -24.5556   -8.7716   21.2377 C   0  0  0  0  0  0  0  0  0  0  0  0
  -24.9525  -15.9958   19.9995 C   0  0  0  0  0  0  0  0  0  0  0  0
  -30.2457  -24.6747   19.4588 C   0  0  0  0  0  0  0  0  0  0  0  0
  -29.7605  -25.7393   20.1860 C   0  0  0  0  0  0  0  0  0  0  0  0
  -28.2114  -26.1481   18.5537 C   0  0  0  0  0  0  0  0  0  1  0  0
  -24.4207  -17.9153   19.0679 C   0  0  0  0  0  0  0  0  0  0  0  0
  -22.4596  -16.4424   19.5511 C   0  0  0  0  0  0  0  0  0  0  0  0
  -25.6478  -30.3676   23.5654 C   0  0  0  0  0  0  0  0  0  0  0  0
  -22.5070  -29.7292   23.0653 C   0  0  0  0  0  0  0  0  0  0  0  0
  -20.1163  -28.3328   21.0699 C   0  0  0  0  0  0  0  0  0  0  0  0
  -29.4490  -20.6954   20.4253 C   0  0  0  0  0  0  0  0  0  0  0  0
  -28.4035  -33.5174   26.4882 C   0  0  0  0  0  0  0  0  0  0  0  0
  -25.3245  -31.2371   21.2211 C   0  0  0  0  0  0  0  0  0  0  0  0
  -24.1524  -28.5439   21.5643 C   0  0  0  0  0  0  0  0  0  0  0  0
  -27.0163  -32.8856   26.5702 C   0  0  0  0  0  0  0  0  0  0  0  0
  -28.4581  -19.5957   17.1229 C   0  0  0  0  0  0  0  0  0  0  0  0
  -27.0949  -31.3874   26.2945 C   0  0  0  0  0  0  0  0  0  0  0  0
  -27.3335  -18.6129   17.4542 C   0  0  0  0  0  0  0  0  0  0  0  0
  -29.5839  -19.5141   18.1496 C   0  0  0  0  0  0  0  0  0  0  0  0
  -28.0241  -18.7387   19.8929 C   0  0  0  0  0  0  0  0  0  0  0  0
  -27.6234  -31.1134   24.8813 C   0  0  1  0  0  0  0  0  0  0  0  0
  -24.6580  -30.8116   22.5258 C   0  0  1  0  0  0  0  0  0  0  0  0
  -26.8450  -18.7887   18.9043 C   0  0  2  0  0  0  0  0  0  0  0  0
  -29.4726  -27.1000   22.2722 C   0  0  0  0  0  0  0  0  0  0  0  0
  -17.6417  -27.9354   20.9436 C   0  0  0  0  0  0  0  0  0  0  0  0
  -32.0846  -22.1246   21.6793 C   0  0  0  0  0  0  0  0  0  0  0  0
  -22.7649  -27.4861   25.1176 C   0  0  0  0  0  0  0  0  0  0  0  0
  -20.6054  -26.5506   24.2634 C   0  0  0  0  0  0  0  0  0  0  0  0
  -20.6583  -28.8226   25.2921 C   0  0  0  0  0  0  0  0  0  0  0  0
  -19.8726  -29.9122   18.5789 C   0  0  0  0  0  0  0  0  0  0  0  0
  -31.3809  -23.8468   19.9561 C   0  0  0  0  0  0  0  0  0  0  0  0
  -30.3480  -26.1127   21.5039 C   0  0  0  0  0  0  0  0  0  0  0  0
  -21.6679  -28.4759   23.0003 C   0  0  1  0  0  0  0  0  0  0  0  0
  -18.7857  -28.8648   20.5690 C   0  0  2  0  0  0  0  0  0  0  0  0
  -30.9391  -22.6410   20.8144 C   0  0  1  0  0  0  0  0  0  0  0  0
  -21.4461  -27.8379   24.4007 C   0  0  0  0  0  0  0  0  0  0  0  0
  -29.7226  -24.3276   18.2659 N   0  0  0  0  0  0  0  0  0  0  0  0
  -26.1210  -16.6195   19.8278 N   0  0  0  0  0  0  0  0  0  0  0  0
  -28.7346  -26.4951   19.7465 N   0  0  0  0  0  0  0  0  0  0  0  0
  -25.7647  -17.7839   19.2592 N   0  0  0  0  0  0  0  0  0  0  0  0
  -23.7085  -29.7119   22.3429 N   0  0  0  0  0  0  0  0  0  0  0  0
  -29.0549  -19.7081   19.5070 N   0  0  0  0  0  0  0  0  0  0  0  0
  -23.8914  -19.0239   18.5083 N   0  0  0  0  0  0  0  0  0  0  0  0
  -22.0542  -15.2082   20.0771 N   0  0  0  0  0  0  0  0  0  0  0  0
  -26.5809  -31.3299   23.9011 N   0  0  0  0  0  0  0  0  0  0  0  0
  -20.4368  -28.8442   22.3097 N   0  0  0  0  0  0  0  0  0  0  0  0
  -30.4351  -21.5694   19.9845 N   0  0  0  0  0  0  0  0  0  0  0  0
  -18.8098  -29.0063   19.0857 N   0  3  0  0  0  0  0  0  0  0  0  0
  -21.5962  -17.2263   19.0891 O   0  0  0  0  0  0  0  0  0  0  0  0
  -25.5698  -29.2362   24.0297 O   0  0  0  0  0  0  0  0  0  0  0  0
  -22.1075  -30.6907   23.7266 O   0  0  0  0  0  0  0  0  0  0  0  0
  -20.8010  -27.5397   20.4274 O   0  0  0  0  0  0  0  0  0  0  0  0
  -28.9545  -20.7943   21.5536 O   0  0  0  0  0  0  0  0  0  0  0  0
  -24.7994  -10.9098   22.3182 O   0  0  0  0  0  0  0  0  0  0  0  0
  -27.1554  -26.9013   18.0683 O   0  0  0  0  0  0  0  0  0  1  0  0
  -21.5916   -7.1046   19.9447 F   0  0  0  0  0  0  0  0  0  0  0  0
  -25.8733   -8.5542   21.3486 F   0  0  0  0  0  0  0  0  0  0  0  0
  1  2  1  0  0  0  0
  1  5  2  0  0  0  0
  2  6  2  0  0  0  0
  3  8  2  0  0  0  0
  3 16  1  0  0  0  0
  4  9  1  0  0  0  0
  4 16  2  0  0  0  0
  5 18  1  0  0  0  0
  6 20  1  0  0  0  0
  7 10  2  0  0  0  0
  7 19  1  0  0  0  0
  8 22  1  0  0  0  0
  9 22  2  0  0  0  0
 10 23  1  0  0  0  0
 11 12  2  0  0  0  0
 11 24  1  0  0  0  0
 12 25  1  0  0  0  0
 13 21  1  0  0  0  0
 13 23  2  0  0  0  0
 14 25  2  0  0  0  0
 14 26  1  0  0  0  0
 15 30  1  0  0  0  0
 15 62  2  0  0  0  0
 16 27  1  0  0  0  0
 17 27  1  0  0  0  0
 17 31  2  0  0  0  0
 17 32  1  0  0  0  0
 18 20  2  0  0  0  0
 18 37  1  0  0  0  0
 19 21  2  0  0  0  0
 19 38  1  0  0  0  0
 20 46  1  0  0  0  0
 21 39  1  0  0  0  0
 22 79  1  0  0  0  0
 23 80  1  0  0  0  0
 24 26  2  0  0  0  0
 24 79  1  0  0  0  0
 25 81  1  0  0  0  0
 26 82  1  0  0  0  0
 27 63  2  0  0  0  0
 28 29  2  0  0  0  0
 28 56  1  0  0  0  0
 28 62  1  0  0  0  0
 29 57  1  0  0  0  0
 29 64  1  0  0  0  0
 30 64  2  0  0  0  0
 30 80  1  0  0  0  0
 31 65  1  0  0  0  0
 31 68  1  0  0  0  0
 32 69  1  0  0  0  0
 32 74  2  0  0  0  0
 33 47  1  0  0  0  0
 33 70  1  0  0  0  0
 33 75  2  0  0  0  0
 34 58  1  0  0  0  0
 34 66  1  0  0  0  0
 34 76  2  0  0  0  0
 35 59  1  0  0  0  0
 35 71  1  0  0  0  0
 35 77  2  0  0  0  0
 36 67  1  0  0  0  0
 36 72  1  0  0  0  0
 36 78  2  0  0  0  0
 37 40  1  0  0  0  0
 38 47  1  0  0  0  0
 39 66  1  0  0  0  0
 40 42  1  0  0  0  0
 41 43  1  0  0  0  0
 41 44  1  0  0  0  0
 42 46  1  0  0  0  0
 43 48  1  0  0  0  0
 44 67  1  0  0  0  0
 45 48  1  0  0  0  0
 45 67  1  0  0  0  0
 46 70  1  0  0  0  0
 47 66  1  0  0  0  0
 48 65  1  0  0  0  0
 49 57  1  0  0  0  0
 50 59  1  0  0  0  0
 51 60  1  0  0  0  0
 52 61  1  0  0  0  0
 53 61  1  0  0  0  0
 54 61  1  0  0  0  0
 55 73  1  0  0  0  0
 56 60  1  0  0  0  0
 58 61  1  0  0  0  0
 58 71  1  0  0  0  0
 59 73  1  0  0  0  0
 60 72  1  0  0  0  0
 63 65  1  0  0  0  0
M  CHG  1  73   1
M  ISO  4  30 101  36 100  72 100  80 101
M  END
> <Batch ID>
0185

> <Smiles>
CCc1n[101c:1]([101O:1]c2ccc3c(c2)CN(C(=O)C(NC(=O)C(C)NC)C(C)(C)C)C(C(=O)NC2CCCc4ccccc42)C3)cnc1CC(C)[100NH:0][100C:0](=O)N1CCCC(n2nc(-c3ccc(Oc4ccc(F)cc4F)cc3)c(C(N)=O)c2N)C1

> <Shape>
0.285

> <Color>
0.072

> <Negative vol penalty>
0.000

$$$$

  -OEChem-04052323123D

 82 91  0     1  0  0  0  0  0999 V2000
  -17.8432  -26.0385   13.7651 C   0  0  0  0  0  0  0  0  0  0  0  0
  -19.1980  -25.8257   13.9988 C   0  0  0  0  0  0  0  0  0  0  0  0
  -22.9902   -9.9009   19.9941 C   0  0  0  0  0  0  0  0  0  0  0  0
  -23.7259   -9.9586   22.2946 C   0  0  0  0  0  0  0  0  0  0  0  0
  -16.8920  -25.4302   14.5831 C   0  0  0  0  0  0  0  0  0  0  0  0
  -19.6024  -25.0053   15.0514 C   0  0  0  0  0  0  0  0  0  0  0  0
  -24.7776  -20.3972   16.8676 C   0  0  0  0  0  0  0  0  0  0  0  0
  -22.2192   -8.7715   20.2690 C   0  0  0  0  0  0  0  0  0  0  0  0
  -22.9549   -8.8292   22.5695 C   0  0  0  0  0  0  0  0  0  0  0  0
  -25.6954  -20.1561   17.8891 C   0  0  0  0  0  0  0  0  0  0  0  0
  -23.1803   -5.4870   22.1117 C   0  0  0  0  0  0  0  0  0  0  0  0
  -23.7660   -4.4702   22.8658 C   0  0  0  0  0  0  0  0  0  0  0  0
  -23.9618  -19.0945   19.1878 C   0  0  0  0  0  0  0  0  0  0  0  0
  -22.0509   -4.7294   24.5476 C   0  0  0  0  0  0  0  0  0  0  0  0
  -23.7437  -10.4944   21.0069 C   0  0  0  0  0  0  0  0  0  0  0  0
  -24.1408  -13.0072   20.8177 C   0  0  0  0  0  0  0  0  0  0  0  0
  -17.2847  -24.5943   15.6403 C   0  0  0  0  0  0  0  0  0  0  0  0
  -23.4403  -19.9978   17.0034 C   0  0  0  0  0  0  0  0  0  0  0  0
  -18.6556  -24.3864   15.8851 C   0  0  0  0  0  0  0  0  0  0  0  0
  -23.0296  -19.3294   18.1656 C   0  0  0  0  0  0  0  0  0  0  0  0
  -28.2485  -20.0301   22.2097 C   0  0  0  0  0  0  0  0  0  0  0  0
  -22.2015   -8.2357   21.5567 C   0  0  0  0  0  0  0  0  0  0  0  0
  -25.2869  -19.5073   19.0506 C   0  0  0  0  0  0  0  0  0  0  0  0
  -22.0298   -6.1250   22.5756 C   0  0  0  0  0  0  0  0  0  0  0  0
  -23.2014   -4.0914   24.0837 C   0  0  0  0  0  0  0  0  0  0  0  0
  -21.4651   -5.7462   23.7934 C   0  0  0  0  0  0  0  0  0  0  0  0
  -24.5408  -11.6607   20.7234 C   0  0  0  0  0  0  0  0  0  0  0  0
  -29.0401  -19.5973   23.2590 C   0  0  0  0  0  0  0  0  0  0  0  0
  -28.3518  -19.3402   21.0318 C   0  0  0  0  0  0  0  0  0  0  0  0
  -25.2526  -13.7225   20.4451 C   0  0  0  0  0  0  0  0  0  0  0  0
  -29.9208  -17.9688   21.9865 C   0  0  0  0  0  0  0  0  0  0  0  0
  -22.8774  -13.5618   21.2074 C   0  0  0  0  0  0  0  0  0  0  0  0
  -20.6443  -21.5081   17.0739 C   0  0  0  0  0  0  0  0  0  0  0  0
  -19.4558  -18.4899   17.0925 C   0  0  0  0  0  0  0  0  0  0  0  0
  -19.9465  -15.1873   17.7987 C   0  0  0  0  0  0  0  0  0  0  0  0
  -30.7547  -14.6304   20.6650 C   0  0  0  0  0  0  0  0  0  0  0  0
  -16.2210  -23.9966   16.5268 C   0  0  0  0  0  0  0  0  0  0  0  0
  -22.4688  -20.2414   15.8812 C   0  0  0  0  0  0  0  0  0  0  0  0
  -27.3791  -21.1704   22.6022 C   0  0  0  0  0  0  0  0  0  0  0  0
  -21.6100  -18.8623   18.3520 C   0  0  0  0  0  0  0  0  0  0  0  0
  -28.7757  -20.4122   24.4922 C   0  0  0  0  0  0  0  0  0  0  0  0
  -16.7248  -22.8422   17.3893 C   0  0  0  0  0  0  0  0  0  0  0  0
  -28.0870  -21.6445   23.8835 C   0  0  0  0  0  0  0  0  0  0  0  0
  -29.5913  -12.2020   18.3356 C   0  0  0  0  0  0  0  0  0  0  0  0
  -18.0493  -23.2090   18.0512 C   0  0  0  0  0  0  0  0  0  0  0  0
  -28.1434  -11.9515   18.7608 C   0  0  0  0  0  0  0  0  0  0  0  0
  -30.5003  -12.4383   19.5397 C   0  0  0  0  0  0  0  0  0  0  0  0
  -28.6002  -13.2495   20.8834 C   0  0  0  0  0  0  0  0  0  0  0  0
  -19.1331  -23.4835   17.0017 C   0  0  1  0  0  0  0  0  0  0  0  0
  -21.0143  -20.2495   16.3413 C   0  0  1  0  0  0  0  0  0  0  0  0
  -27.6349  -13.0613   19.7005 C   0  0  2  0  0  0  0  0  0  0  0  0
  -18.7794  -12.9664   17.7430 C   0  0  0  0  0  0  0  0  0  0  0  0
  -17.8683  -19.2644   19.5805 C   0  0  0  0  0  0  0  0  0  0  0  0
  -17.4954  -16.8273   20.0160 C   0  0  0  0  0  0  0  0  0  0  0  0
  -16.6078  -17.8700   17.9309 C   0  0  0  0  0  0  0  0  0  0  0  0
  -21.9267  -14.0635   15.9081 C   0  0  0  0  0  0  0  0  0  0  0  0
  -27.5204  -19.7156   19.8406 C   0  0  0  0  0  0  0  0  0  1  0  0
  -30.8536  -16.8142   21.8398 C   0  0  0  0  0  0  0  0  0  0  0  0
  -19.0963  -17.4891   18.1640 C   0  0  1  0  0  0  0  0  0  0  0  0
  -19.6778  -13.9329   16.9870 C   0  0  2  0  0  0  0  0  0  0  0  0
  -17.7933  -17.8731   18.9205 C   0  0  0  0  0  0  0  0  0  0  0  0
  -25.8076  -11.5260   20.3222 N   0  0  0  0  0  0  0  0  0  0  0  0
  -29.8924  -18.5651   23.1970 N   0  0  0  0  0  0  0  0  0  0  0  0
  -29.1955  -18.2950   20.8878 N   0  0  0  0  0  0  0  0  0  0  0  0
  -26.2133  -12.7971   20.1610 N   0  0  0  0  0  0  0  0  0  0  0  0
  -20.6961  -19.1294   17.2291 N   0  0  0  0  0  0  0  0  0  0  0  0
  -29.9626  -13.5036   20.3894 N   0  0  0  0  0  0  0  0  0  0  0  0
  -25.4923  -15.0465   20.3360 N   0  0  0  0  0  0  0  0  0  0  0  0
  -21.8427  -12.6844   21.5596 N   0  0  0  0  0  0  0  0  0  0  0  0
  -19.6431  -22.2401   16.4646 N   0  0  0  0  0  0  0  0  0  0  0  0
  -19.0440  -16.1879   17.5062 N   0  0  0  0  0  0  0  0  0  0  0  0
  -30.1668  -15.5958   21.4731 N   0  0  0  0  0  0  0  0  0  0  0  0
  -20.9570  -13.2365   16.6713 N   0  3  0  0  0  0  0  0  0  0  0  0
  -22.6670  -14.7982   21.2265 O   0  0  0  0  0  0  0  0  0  0  0  0
  -21.2233  -21.7932   18.1156 O   0  0  0  0  0  0  0  0  0  0  0  0
  -18.6685  -18.6915   16.1646 O   0  0  0  0  0  0  0  0  0  0  0  0
  -20.8627  -15.2698   18.6137 O   0  0  0  0  0  0  0  0  0  0  0  0
  -31.8988  -14.7685   20.2191 O   0  0  0  0  0  0  0  0  0  0  0  0
  -21.4490   -7.1338   21.8253 O   0  0  0  0  0  0  0  0  0  0  0  0
  -26.1805  -19.2713   20.0495 O   0  0  0  0  0  0  0  0  0  1  0  0
  -23.7631   -3.1140   24.8070 F   0  0  0  0  0  0  0  0  0  0  0  0
  -20.3593   -6.3547   24.2437 F   0  0  0  0  0  0  0  0  0  0  0  0
  1  2  1  0  0  0  0
  1  5  2  0  0  0  0
  2  6  2  0  0  0  0
  3  8  2  0  0  0  0
  3 15  1  0  0  0  0
  4  9  1  0  0  0  0
  4 15  2  0  0  0  0
  5 17  1  0  0  0  0
  6 19  1  0  0  0  0
  7 10  2  0  0  0  0
  7 18  1  0  0  0  0
  8 22  1  0  0  0  0
  9 22  2  0  0  0  0
 10 23  1  0  0  0  0
 11 12  2  0  0  0  0
 11 24  1  0  0  0  0
 12 25  1  0  0  0  0
 13 20  1  0  0  0  0
 13 23  2  0  0  0  0
 14 25  2  0  0  0  0
 14 26  1  0  0  0  0
 15 27  1  0  0  0  0
 16 27  1  0  0  0  0
 16 30  2  0  0  0  0
 16 32  1  0  0  0  0
 17 19  2  0  0  0  0
 17 37  1  0  0  0  0
 18 20  2  0  0  0  0
 18 38  1  0  0  0  0
 19 49  1  0  0  0  0
 20 40  1  0  0  0  0
 21 28  1  0  0  0  0
 21 29  2  0  0  0  0
 21 39  1  0  0  0  0
 22 79  1  0  0  0  0
 23 80  1  0  0  0  0
 24 26  2  0  0  0  0
 24 79  1  0  0  0  0
 25 81  1  0  0  0  0
 26 82  1  0  0  0  0
 27 62  2  0  0  0  0
 28 41  1  0  0  0  0
 28 63  2  0  0  0  0
 29 57  1  0  0  0  0
 29 64  1  0  0  0  0
 30 65  1  0  0  0  0
 30 68  1  0  0  0  0
 31 58  1  0  0  0  0
 31 63  1  0  0  0  0
 31 64  2  0  0  0  0
 32 69  1  0  0  0  0
 32 74  2  0  0  0  0
 33 50  1  0  0  0  0
 33 70  1  0  0  0  0
 33 75  2  0  0  0  0
 34 59  1  0  0  0  0
 34 66  1  0  0  0  0
 34 76  2  0  0  0  0
 35 60  1  0  0  0  0
 35 71  1  0  0  0  0
 35 77  2  0  0  0  0
 36 67  1  0  0  0  0
 36 72  1  0  0  0  0
 36 78  2  0  0  0  0
 37 42  1  0  0  0  0
 38 50  1  0  0  0  0
 39 43  1  0  0  0  0
 40 66  1  0  0  0  0
 41 43  1  0  0  0  0
 42 45  1  0  0  0  0
 44 46  1  0  0  0  0
 44 47  1  0  0  0  0
 45 49  1  0  0  0  0
 46 51  1  0  0  0  0
 47 67  1  0  0  0  0
 48 51  1  0  0  0  0
 48 67  1  0  0  0  0
 49 70  1  0  0  0  0
 50 66  1  0  0  0  0
 51 65  1  0  0  0  0
 52 60  1  0  0  0  0
 53 61  1  0  0  0  0
 54 61  1  0  0  0  0
 55 61  1  0  0  0  0
 56 73  1  0  0  0  0
 57 80  1  0  0  0  0
 58 72  1  0  0  0  0
 59 61  1  0  0  0  0
 59 71  1  0  0  0  0
 60 73  1  0  0  0  0
 62 65  1  0  0  0  0
M  CHG  1  73   1
M  ISO  4  36 100  57 101  72 100  80 101
M  END
> <Batch ID>
0185

> <Smiles>
CNC(C)C(=O)NC(C(=O)N1Cc2cc([101O:1][101CH2:1]c3nc(C[100NH:0][100C:0](=O)N4CCCC(n5nc(-c6ccc(Oc7ccc(F)cc7F)cc6)c(C(N)=O)c5N)C4)nc4c3CCC4)ccc2CC1C(=O)NC1CCCc2ccccc21)C(C)(C)C

> <Shape>
0.196

> <Color>
0.195

> <Negative vol penalty>
0.000

$$$$

  -OEChem-04052323123D

 85 94  0     1  0  0  0  0  0999 V2000
  -20.3679  -25.7102   25.5153 C   0  0  0  0  0  0  0  0  0  0  0  0
  -21.4411  -25.5703   24.6412 C   0  0  0  0  0  0  0  0  0  0  0  0
  -23.5207   -9.1792   20.0553 C   0  0  0  0  0  0  0  0  0  0  0  0
  -23.5350  -10.2892   22.2012 C   0  0  0  0  0  0  0  0  0  0  0  0
  -19.3289  -26.5873   25.2070 C   0  0  0  0  0  0  0  0  0  0  0  0
  -21.4753  -26.3068   23.4576 C   0  0  0  0  0  0  0  0  0  0  0  0
  -26.0190  -28.3635   22.5802 C   0  0  0  0  0  0  0  0  0  0  0  0
  -22.8873   -8.0771   20.6296 C   0  0  0  0  0  0  0  0  0  0  0  0
  -22.9014   -9.1872   22.7754 C   0  0  0  0  0  0  0  0  0  0  0  0
  -27.0119  -27.5235   22.0778 C   0  0  0  0  0  0  0  0  0  0  0  0
  -19.7710   -7.9256   22.9470 C   0  0  0  0  0  0  0  0  0  0  0  0
  -18.7034   -8.1709   23.8104 C   0  0  0  0  0  0  0  0  0  0  0  0
  -26.6062  -28.3807   19.8597 C   0  0  0  0  0  0  0  0  0  0  0  0
  -19.8930   -7.0615   25.5968 C   0  0  0  0  0  0  0  0  0  0  0  0
  -30.2928  -18.8020   20.0138 C   0  0  0  0  0  0  0  0  0  0  0  0
  -28.1351  -19.0262   20.3733 C   0  0  0  0  0  0  0  0  0  0  0  0
  -23.8446  -10.2852   20.8411 C   0  0  0  0  0  0  0  0  0  0  0  0
  -23.8864  -12.5510   19.6697 C   0  0  0  0  0  0  0  0  0  0  0  0
  -19.3552  -27.3421   24.0237 C   0  0  0  0  0  0  0  0  0  0  0  0
  -25.3036  -29.2120   21.7230 C   0  0  0  0  0  0  0  0  0  0  0  0
  -20.4351  -27.1939   23.1326 C   0  0  0  0  0  0  0  0  0  0  0  0
  -25.6065  -29.2323   20.3541 C   0  0  0  0  0  0  0  0  0  0  0  0
  -29.1095  -18.0695   20.2265 C   0  0  0  0  0  0  0  0  0  0  0  0
  -22.5776   -8.0811   21.9896 C   0  0  0  0  0  0  0  0  0  0  0  0
  -27.3036  -27.5299   20.7169 C   0  0  0  0  0  0  0  0  0  0  0  0
  -20.8997   -7.2481   23.4085 C   0  0  0  0  0  0  0  0  0  0  0  0
  -18.7644   -7.7389   25.1353 C   0  0  0  0  0  0  0  0  0  0  0  0
  -20.9607   -6.8162   24.7334 C   0  0  0  0  0  0  0  0  0  0  0  0
  -24.4996  -11.4237   20.2486 C   0  0  0  0  0  0  0  0  0  0  0  0
  -24.9340  -13.3375   19.2569 C   0  0  0  0  0  0  0  0  0  0  0  0
  -22.4945  -12.8596   19.5188 C   0  0  0  0  0  0  0  0  0  0  0  0
  -22.2498  -29.5030   20.8903 C   0  0  0  0  0  0  0  0  0  0  0  0
  -23.3316  -32.1288   19.3228 C   0  0  0  0  0  0  0  0  0  0  0  0
  -25.9514  -33.7565   17.8619 C   0  0  0  0  0  0  0  0  0  0  0  0
  -29.9073  -15.6816   20.1369 C   0  0  0  0  0  0  0  0  0  0  0  0
  -18.1862  -28.2422   23.7107 C   0  0  0  0  0  0  0  0  0  0  0  0
  -24.2540  -30.1314   22.2847 C   0  0  0  0  0  0  0  0  0  0  0  0
  -24.8814  -30.1392   19.3948 C   0  0  0  0  0  0  0  0  0  0  0  0
  -18.4807  -29.2648   22.6163 C   0  0  0  0  0  0  0  0  0  0  0  0
  -29.8841  -12.3291   18.9380 C   0  0  0  0  0  0  0  0  0  0  0  0
  -19.1733  -28.5960   21.4332 C   0  0  0  0  0  0  0  0  0  0  0  0
  -28.4308  -11.8874   19.1244 C   0  0  0  0  0  0  0  0  0  0  0  0
  -27.0252  -21.8433   19.2714 C   0  0  0  0  0  0  0  0  0  0  0  0
  -30.3511  -13.2374   20.0741 C   0  0  0  0  0  0  0  0  0  0  0  0
  -28.0377  -13.9573   20.5202 C   0  0  0  0  0  0  0  0  0  0  0  0
  -26.8719  -23.3525   19.1553 C   0  0  0  0  0  0  0  0  0  0  0  0
  -29.0866  -22.7528   19.9779 C   0  0  0  0  0  0  0  0  0  0  0  0
  -20.5204  -27.9939   21.8508 C   0  0  1  0  0  0  0  0  0  0  0  0
  -23.2346  -30.5817   21.2428 C   0  0  1  0  0  0  0  0  0  0  0  0
  -27.5020  -13.0933   19.3668 C   0  0  2  0  0  0  0  0  0  0  0  0
  -28.1213  -21.6080   20.3304 C   0  0  1  0  0  0  0  0  0  0  0  0
  -28.5992  -21.5581   22.7948 C   0  0  0  0  0  0  0  0  0  0  0  0
  -26.5193  -35.8688   16.6319 C   0  0  0  0  0  0  0  0  0  0  0  0
  -22.0178  -31.0131   16.8050 C   0  0  0  0  0  0  0  0  0  0  0  0
  -23.3910  -32.6184   15.4613 C   0  0  0  0  0  0  0  0  0  0  0  0
  -21.7400  -33.4782   17.1218 C   0  0  0  0  0  0  0  0  0  0  0  0
  -27.8742  -34.5930   19.9504 C   0  0  0  0  0  0  0  0  0  0  0  0
  -27.5529  -21.7820   21.7539 C   0  0  0  0  0  0  0  0  0  0  0  0
  -28.8077  -24.9159   18.7156 C   0  0  0  0  0  0  0  0  0  0  0  0
  -28.1142  -26.2537   18.8811 C   0  0  0  0  0  0  0  0  0  1  0  0
  -23.8754  -32.4006   17.9410 C   0  0  1  0  0  0  0  0  0  0  0  0
  -26.4462  -35.1860   17.9888 C   0  0  2  0  0  0  0  0  0  0  0  0
  -22.7686  -32.3590   16.8498 C   0  0  0  0  0  0  0  0  0  0  0  0
  -30.0907  -20.1222   20.0237 N   0  0  0  0  0  0  0  0  0  0  0  0
  -25.8332  -11.4847   20.2087 N   0  0  0  0  0  0  0  0  0  0  0  0
  -28.7691  -20.2269   20.2443 N   0  0  0  0  0  0  0  0  0  0  0  0
  -26.0668  -12.6597   19.5998 N   0  0  0  0  0  0  0  0  0  0  0  0
  -23.8593  -31.0151   19.9913 N   0  0  0  0  0  0  0  0  0  0  0  0
  -29.4254  -14.3597   20.2426 N   0  0  0  0  0  0  0  0  0  0  0  0
  -24.9875  -14.5358   18.6374 N   0  0  0  0  0  0  0  0  0  0  0  0
  -21.5506  -11.9416   19.9991 N   0  0  0  0  0  0  0  0  0  0  0  0
  -28.9296  -16.6651   20.2830 N   0  0  0  0  0  0  0  0  0  0  0  0
  -21.5232  -29.0309   21.9667 N   0  0  0  0  0  0  0  0  0  0  0  0
  -24.5847  -33.6727   18.0244 N   0  0  0  0  0  0  0  0  0  0  0  0
  -28.1855  -23.9197   19.6408 N   0  3  1  0  0  0  0  0  0  0  0  0
  -27.8045  -35.2115   18.6015 N   0  3  0  0  0  0  0  0  0  0  0  0
  -22.0992  -13.9106   18.9594 O   0  0  0  0  0  0  0  0  0  0  0  0
  -22.1550  -29.1279   19.7275 O   0  0  0  0  0  0  0  0  0  0  0  0
  -22.4755  -32.8813   19.7946 O   0  0  0  0  0  0  0  0  0  0  0  0
  -26.7017  -32.8094   17.6371 O   0  0  0  0  0  0  0  0  0  0  0  0
  -31.0947  -15.9229   19.9048 O   0  0  0  0  0  0  0  0  0  0  0  0
  -21.9592   -7.0060   22.5503 O   0  0  0  0  0  0  0  0  0  0  0  0
  -28.2718  -26.7106   20.2238 O   0  0  0  0  0  0  0  0  0  1  0  0
  -17.7397   -7.9759   25.9647 F   0  0  0  0  0  0  0  0  0  0  0  0
  -22.0429   -6.1659   25.1827 F   0  0  0  0  0  0  0  0  0  0  0  0
  1  2  1  0  0  0  0
  1  5  2  0  0  0  0
  2  6  2  0  0  0  0
  3  8  2  0  0  0  0
  3 17  1  0  0  0  0
  4  9  1  0  0  0  0
  4 17  2  0  0  0  0
  5 19  1  0  0  0  0
  6 21  1  0  0  0  0
  7 10  2  0  0  0  0
  7 20  1  0  0  0  0
  8 24  1  0  0  0  0
  9 24  2  0  0  0  0
 10 25  1  0  0  0  0
 11 12  2  0  0  0  0
 11 26  1  0  0  0  0
 12 27  1  0  0  0  0
 13 22  1  0  0  0  0
 13 25  2  0  0  0  0
 14 27  2  0  0  0  0
 14 28  1  0  0  0  0
 15 23  1  0  0  0  0
 15 64  2  0  0  0  0
 16 23  2  0  0  0  0
 16 66  1  0  0  0  0
 17 29  1  0  0  0  0
 18 29  1  0  0  0  0
 18 30  2  0  0  0  0
 18 31  1  0  0  0  0
 19 21  2  0  0  0  0
 19 36  1  0  0  0  0
 20 22  2  0  0  0  0
 20 37  1  0  0  0  0
 21 48  1  0  0  0  0
 22 38  1  0  0  0  0
 23 72  1  0  0  0  0
 24 82  1  0  0  0  0
 25 83  1  0  0  0  0
 26 28  2  0  0  0  0
 26 82  1  0  0  0  0
 27 84  1  0  0  0  0
 28 85  1  0  0  0  0
 29 65  2  0  0  0  0
 30 67  1  0  0  0  0
 30 70  1  0  0  0  0
 31 71  1  0  0  0  0
 31 77  2  0  0  0  0
 32 49  1  0  0  0  0
 32 73  1  0  0  0  0
 32 78  2  0  0  0  0
 33 61  1  0  0  0  0
 33 68  1  0  0  0  0
 33 79  2  0  0  0  0
 34 62  1  0  0  0  0
 34 74  1  0  0  0  0
 34 80  2  0  0  0  0
 35 69  1  0  0  0  0
 35 72  1  0  0  0  0
 35 81  2  0  0  0  0
 36 39  1  0  0  0  0
 37 49  1  0  0  0  0
 38 68  1  0  0  0  0
 39 41  1  0  0  0  0
 40 42  1  0  0  0  0
 40 44  1  0  0  0  0
 41 48  1  0  0  0  0
 42 50  1  0  0  0  0
 43 46  1  0  0  0  0
 43 51  1  0  0  0  0
 44 69  1  0  0  0  0
 45 50  1  0  0  0  0
 45 69  1  0  0  0  0
 46 75  1  0  0  0  0
 47 51  1  0  0  0  0
 47 75  1  0  0  0  0
 48 73  1  0  0  0  0
 49 68  1  0  0  0  0
 50 67  1  0  0  0  0
 51 58  1  0  0  0  0
 51 66  1  0  0  0  0
 52 58  1  0  0  0  0
 53 62  1  0  0  0  0
 54 63  1  0  0  0  0
 55 63  1  0  0  0  0
 56 63  1  0  0  0  0
 57 76  1  0  0  0  0
 59 60  1  0  0  0  0
 59 75  1  0  0  0  0
 60 83  1  0  0  0  0
 61 63  1  0  0  0  0
 61 74  1  0  0  0  0
 62 76  1  0  0  0  0
 64 66  1  0  0  0  0
 65 67  1  0  0  0  0
M  CHG  2  75   1  76   1
M  ISO  4  35 100  60 101  72 100  83 101
M  END
> <Batch ID>
0185

> <Smiles>
CCC1(n2cc([100NH:0][100C:0](=O)N3CCCC(n4nc(-c5ccc(Oc6ccc(F)cc6F)cc5)c(C(N)=O)c4N)C3)cn2)CCN(C[101CH2:1][101O:1]c2ccc3c(c2)CN(C(=O)C(NC(=O)C(C)NC)C(C)(C)C)C(C(=O)NC2CCCc4ccccc42)C3)C1

> <Shape>
0.295

> <Color>
0.151

> <Negative vol penalty>
0.000

$$$$

  -OEChem-04052323123D

 85 94  0     1  0  0  0  0  0999 V2000
  -17.5614  -31.0571   17.6238 C   0  0  0  0  0  0  0  0  0  0  0  0
  -18.5863  -30.1261   17.4894 C   0  0  0  0  0  0  0  0  0  0  0  0
  -24.2522  -10.7201   22.9069 C   0  0  0  0  0  0  0  0  0  0  0  0
  -24.5900   -9.0096   21.2345 C   0  0  0  0  0  0  0  0  0  0  0  0
  -17.8376  -32.3286   18.1247 C   0  0  0  0  0  0  0  0  0  0  0  0
  -19.8883  -30.4663   17.8548 C   0  0  0  0  0  0  0  0  0  0  0  0
  -24.0995  -26.7761   20.3355 C   0  0  0  0  0  0  0  0  0  0  0  0
  -23.0437  -10.1261   23.2704 C   0  0  0  0  0  0  0  0  0  0  0  0
  -23.3815   -8.4154   21.5980 C   0  0  0  0  0  0  0  0  0  0  0  0
  -25.1725  -26.0751   19.7868 C   0  0  0  0  0  0  0  0  0  0  0  0
  -20.5600   -6.2428   22.3306 C   0  0  0  0  0  0  0  0  0  0  0  0
  -20.5377   -4.8564   22.4819 C   0  0  0  0  0  0  0  0  0  0  0  0
  -26.6548  -27.8773   20.3985 C   0  0  0  0  0  0  0  0  0  0  0  0
  -22.2131   -5.0186   24.2151 C   0  0  0  0  0  0  0  0  0  0  0  0
  -30.7562  -22.9399   17.3116 C   0  0  0  0  0  0  0  0  0  0  0  0
  -25.0253  -10.1619   21.8889 C   0  0  0  0  0  0  0  0  0  0  0  0
  -27.5482  -10.5058   22.0457 C   0  0  0  0  0  0  0  0  0  0  0  0
  -19.1419  -32.6815   18.5056 C   0  0  0  0  0  0  0  0  0  0  0  0
  -24.2946  -28.0399   20.9110 C   0  0  0  0  0  0  0  0  0  0  0  0
  -20.1824  -31.7442   18.3601 C   0  0  0  0  0  0  0  0  0  0  0  0
  -25.5831  -28.5911   20.9561 C   0  0  0  0  0  0  0  0  0  0  0  0
  -22.6083   -8.9737   22.6160 C   0  0  0  0  0  0  0  0  0  0  0  0
  -26.4499  -26.6269   19.8157 C   0  0  0  0  0  0  0  0  0  0  0  0
  -21.4089   -7.0172   23.1215 C   0  0  0  0  0  0  0  0  0  0  0  0
  -21.3642   -4.2443   23.4241 C   0  0  0  0  0  0  0  0  0  0  0  0
  -22.2354   -6.4051   24.0637 C   0  0  0  0  0  0  0  0  0  0  0  0
  -26.2735  -10.7755   21.5125 C   0  0  0  0  0  0  0  0  0  0  0  0
  -30.1314  -23.9738   16.6446 C   0  0  0  0  0  0  0  0  0  0  0  0
  -30.1370  -22.5161   18.4697 C   0  0  0  0  0  0  0  0  0  0  0  0
  -28.3922  -11.3434   21.3583 C   0  0  0  0  0  0  0  0  0  0  0  0
  -28.4837  -24.0540   18.2084 C   0  0  0  0  0  0  0  0  0  0  0  0
  -27.9348   -9.5807   23.0706 C   0  0  0  0  0  0  0  0  0  0  0  0
  -23.2328  -30.9723   20.2971 C   0  0  0  0  0  0  0  0  0  0  0  0
  -24.7899  -31.6917   23.0503 C   0  0  0  0  0  0  0  0  0  0  0  0
  -27.2458  -30.8964   25.2826 C   0  0  0  0  0  0  0  0  0  0  0  0
  -29.7480  -16.0995   19.2699 C   0  0  0  0  0  0  0  0  0  0  0  0
  -19.4002  -34.0836   18.9975 C   0  0  0  0  0  0  0  0  0  0  0  0
  -23.1313  -28.7714   21.5225 C   0  0  0  0  0  0  0  0  0  0  0  0
  -25.8490  -29.9356   21.5806 C   0  0  0  0  0  0  0  0  0  0  0  0
  -20.7394  -34.2409   19.7132 C   0  0  0  0  0  0  0  0  0  0  0  0
  -27.6107  -14.1769   17.2502 C   0  0  0  0  0  0  0  0  0  0  0  0
  -21.8537  -33.5735   18.9135 C   0  0  0  0  0  0  0  0  0  0  0  0
  -27.1679  -13.0885   18.2275 C   0  0  0  0  0  0  0  0  0  0  0  0
  -27.6764  -15.5529   17.9155 C   0  0  0  0  0  0  0  0  0  0  0  0
  -28.9417  -18.2104   18.1216 C   0  0  0  0  0  0  0  0  0  0  0  0
  -31.3537  -17.7404   18.3432 C   0  0  0  0  0  0  0  0  0  0  0  0
  -28.0601  -14.4986   20.1201 C   0  0  0  0  0  0  0  0  0  0  0  0
  -29.1251  -19.5414   18.8437 C   0  0  0  0  0  0  0  0  0  0  0  0
  -31.5691  -19.0477   19.0882 C   0  0  0  0  0  0  0  0  0  0  0  0
  -21.6031  -32.0676   18.7689 C   0  0  1  0  0  0  0  0  0  0  0  0
  -23.3581  -30.2767   21.6230 C   0  0  1  0  0  0  0  0  0  0  0  0
  -28.0415  -13.0953   19.4945 C   0  0  1  0  0  0  0  0  0  0  0  0
  -30.7264  -24.4998   15.3814 C   0  0  0  0  0  0  0  0  0  0  0  0
  -28.3039  -31.6933   27.4140 C   0  0  0  0  0  0  0  0  0  0  0  0
  -26.2597  -33.8721   21.5026 C   0  0  0  0  0  0  0  0  0  0  0  0
  -27.9254  -33.9768   23.3687 C   0  0  0  0  0  0  0  0  0  0  0  0
  -25.5329  -34.5344   23.8021 C   0  0  0  0  0  0  0  0  0  0  0  0
  -26.5036  -28.4152   26.7149 C   0  0  0  0  0  0  0  0  0  0  0  0
  -30.7413  -21.3952   19.2632 C   0  0  0  0  0  0  0  0  0  0  0  0
  -27.2196  -24.6698   18.7051 C   0  0  0  0  0  0  0  0  0  1  0  0
  -26.1918  -32.1263   23.4035 C   0  0  1  0  0  0  0  0  0  0  0  0
  -27.2376  -30.8012   26.7976 C   0  0  2  0  0  0  0  0  0  0  0  0
  -26.4725  -33.6029   23.0056 C   0  0  0  0  0  0  0  0  0  0  0  0
  -26.3006  -11.7114   20.5600 N   0  0  0  0  0  0  0  0  0  0  0  0
  -28.9898  -24.5564   17.0661 N   0  0  0  0  0  0  0  0  0  0  0  0
  -28.9957  -23.0527   18.9492 N   0  0  0  0  0  0  0  0  0  0  0  0
  -27.6025  -12.0371   20.4893 N   0  0  0  0  0  0  0  0  0  0  0  0
  -24.6780  -30.6148   22.1595 N   0  0  0  0  0  0  0  0  0  0  0  0
  -28.4859  -15.5007   19.1408 N   0  0  0  0  0  0  0  0  0  0  0  0
  -29.9857  -17.2545   18.5101 N   0  0  0  0  0  0  0  0  0  0  0  0
  -29.7254  -11.5468   21.4185 N   0  0  0  0  0  0  0  0  0  0  0  0
  -26.9410   -8.7969   23.6726 N   0  0  0  0  0  0  0  0  0  0  0  0
  -21.9471  -31.3780   19.9939 N   0  0  0  0  0  0  0  0  0  0  0  0
  -26.3592  -31.8486   24.8259 N   0  0  0  0  0  0  0  0  0  0  0  0
  -30.5319  -20.0472   18.6321 N   0  3  0  0  0  0  0  0  0  0  0  0
  -27.4917  -29.3978   27.2298 N   0  3  0  0  0  0  0  0  0  0  0  0
  -29.1238   -9.4647   23.4531 O   0  0  0  0  0  0  0  0  0  0  0  0
  -24.2291  -31.1307   19.6013 O   0  0  0  0  0  0  0  0  0  0  0  0
  -23.8296  -32.2812   23.5521 O   0  0  0  0  0  0  0  0  0  0  0  0
  -27.9693  -30.1988   24.5752 O   0  0  0  0  0  0  0  0  0  0  0  0
  -30.6121  -15.6299   20.0210 O   0  0  0  0  0  0  0  0  0  0  0  0
  -21.4293   -8.3936   22.9706 O   0  0  0  0  0  0  0  0  0  0  0  0
  -27.5061  -25.9405   19.2766 O   0  0  0  0  0  0  0  0  0  1  0  0
  -21.3416   -2.9130   23.5704 F   0  0  0  0  0  0  0  0  0  0  0  0
  -23.0521   -7.1438   24.8273 F   0  0  0  0  0  0  0  0  0  0  0  0
  1  2  1  0  0  0  0
  1  5  2  0  0  0  0
  2  6  2  0  0  0  0
  3  8  2  0  0  0  0
  3 16  1  0  0  0  0
  4  9  1  0  0  0  0
  4 16  2  0  0  0  0
  5 18  1  0  0  0  0
  6 20  1  0  0  0  0
  7 10  2  0  0  0  0
  7 19  1  0  0  0  0
  8 22  1  0  0  0  0
  9 22  2  0  0  0  0
 10 23  1  0  0  0  0
 11 12  2  0  0  0  0
 11 24  1  0  0  0  0
 12 25  1  0  0  0  0
 13 21  1  0  0  0  0
 13 23  2  0  0  0  0
 14 25  2  0  0  0  0
 14 26  1  0  0  0  0
 15 28  1  0  0  0  0
 15 29  2  0  0  0  0
 16 27  1  0  0  0  0
 17 27  1  0  0  0  0
 17 30  2  0  0  0  0
 17 32  1  0  0  0  0
 18 20  2  0  0  0  0
 18 37  1  0  0  0  0
 19 21  2  0  0  0  0
 19 38  1  0  0  0  0
 20 50  1  0  0  0  0
 21 39  1  0  0  0  0
 22 82  1  0  0  0  0
 23 83  1  0  0  0  0
 24 26  2  0  0  0  0
 24 82  1  0  0  0  0
 25 84  1  0  0  0  0
 26 85  1  0  0  0  0
 27 64  2  0  0  0  0
 28 53  1  0  0  0  0
 28 65  2  0  0  0  0
 29 59  1  0  0  0  0
 29 66  1  0  0  0  0
 30 67  1  0  0  0  0
 30 71  1  0  0  0  0
 31 60  1  0  0  0  0
 31 65  1  0  0  0  0
 31 66  2  0  0  0  0
 32 72  1  0  0  0  0
 32 77  2  0  0  0  0
 33 51  1  0  0  0  0
 33 73  1  0  0  0  0
 33 78  2  0  0  0  0
 34 61  1  0  0  0  0
 34 68  1  0  0  0  0
 34 79  2  0  0  0  0
 35 62  1  0  0  0  0
 35 74  1  0  0  0  0
 35 80  2  0  0  0  0
 36 69  1  0  0  0  0
 36 70  1  0  0  0  0
 36 81  2  0  0  0  0
 37 40  1  0  0  0  0
 38 51  1  0  0  0  0
 39 68  1  0  0  0  0
 40 42  1  0  0  0  0
 41 43  1  0  0  0  0
 41 44  1  0  0  0  0
 42 50  1  0  0  0  0
 43 52  1  0  0  0  0
 44 69  1  0  0  0  0
 45 48  1  0  0  0  0
 45 70  1  0  0  0  0
 46 49  1  0  0  0  0
 46 70  1  0  0  0  0
 47 52  1  0  0  0  0
 47 69  1  0  0  0  0
 48 75  1  0  0  0  0
 49 75  1  0  0  0  0
 50 73  1  0  0  0  0
 51 68  1  0  0  0  0
 52 67  1  0  0  0  0
 54 62  1  0  0  0  0
 55 63  1  0  0  0  0
 56 63  1  0  0  0  0
 57 63  1  0  0  0  0
 58 76  1  0  0  0  0
 59 75  1  0  0  0  0
 60 83  1  0  0  0  0
 61 63  1  0  0  0  0
 61 74  1  0  0  0  0
 62 76  1  0  0  0  0
 64 67  1  0  0  0  0
M  CHG  2  75   1  76   1
M  ISO  4  36 100  60 101  70 100  83 101
M  END
> <Batch ID>
0185

> <Smiles>
CNC(C)C(=O)NC(C(=O)N1Cc2cc([101O:1][101CH2:1]c3nc(C)cc(CN4CC[100N:0]([100C:0](=O)N5CCCC(n6nc(-c7ccc(Oc8ccc(F)cc8F)cc7)c(C(N)=O)c6N)C5)CC4)n3)ccc2CC1C(=O)NC1CCCc2ccccc21)C(C)(C)C

> <Shape>
0.283

> <Color>
0.085

> <Negative vol penalty>
0.000

$$$$

  -OEChem-04052323123D

 91100  0     1  0  0  0  0  0999 V2000
  -17.1967  -24.8948   17.7332 C   0  0  0  0  0  0  0  0  0  0  0  0
  -16.8582  -23.5733   18.0062 C   0  0  0  0  0  0  0  0  0  0  0  0
  -27.4514  -23.2362   20.7897 C   0  0  0  0  0  0  0  0  0  0  0  0
  -28.5357  -23.1010   18.6349 C   0  0  0  0  0  0  0  0  0  0  0  0
  -18.4584  -25.3760   18.0804 C   0  0  0  0  0  0  0  0  0  0  0  0
  -17.7816  -22.7319   18.6256 C   0  0  0  0  0  0  0  0  0  0  0  0
  -18.1287  -17.2153   23.1823 C   0  0  0  0  0  0  0  0  0  0  0  0
  -27.5741  -24.6254   20.7643 C   0  0  0  0  0  0  0  0  0  0  0  0
  -28.6584  -24.4902   18.6095 C   0  0  0  0  0  0  0  0  0  0  0  0
  -18.6745  -15.9366   23.2858 C   0  0  0  0  0  0  0  0  0  0  0  0
  -26.0003  -27.2387   19.3060 C   0  0  0  0  0  0  0  0  0  0  0  0
  -24.8880  -27.9946   19.6764 C   0  0  0  0  0  0  0  0  0  0  0  0
  -20.7959  -16.8992   23.9120 C   0  0  0  0  0  0  0  0  0  0  0  0
  -25.3814  -13.5596   19.0416 C   0  0  0  0  0  0  0  0  0  0  0  0
  -26.1624  -28.9902   21.4714 C   0  0  0  0  0  0  0  0  0  0  0  0
  -27.9323  -22.4740   19.7250 C   0  0  0  0  0  0  0  0  0  0  0  0
  -26.7341  -20.2705   19.2594 C   0  0  0  0  0  0  0  0  0  0  0  0
  -19.3943  -24.5427   18.7131 C   0  0  0  0  0  0  0  0  0  0  0  0
  -18.9167  -18.3479   23.4326 C   0  0  0  0  0  0  0  0  0  0  0  0
  -19.0575  -23.2020   18.9804 C   0  0  0  0  0  0  0  0  0  0  0  0
  -20.2571  -18.1911   23.8134 C   0  0  0  0  0  0  0  0  0  0  0  0
  -24.3497  -13.3947   19.9626 C   0  0  0  0  0  0  0  0  0  0  0  0
  -28.1775  -25.2524   19.6742 C   0  0  0  0  0  0  0  0  0  0  0  0
  -20.0090  -15.7785   23.6479 C   0  0  0  0  0  0  0  0  0  0  0  0
  -27.1936  -27.3585   20.0184 C   0  0  0  0  0  0  0  0  0  0  0  0
  -24.9691  -28.8703   20.7591 C   0  0  0  0  0  0  0  0  0  0  0  0
  -27.2746  -28.2343   21.1010 C   0  0  0  0  0  0  0  0  0  0  0  0
  -27.8064  -21.0389   19.7510 C   0  0  0  0  0  0  0  0  0  0  0  0
  -24.5943  -12.6035   21.0805 C   0  0  0  0  0  0  0  0  0  0  0  0
  -26.5791  -12.9181   19.2739 C   0  0  0  0  0  0  0  0  0  0  0  0
  -27.0943  -18.9712   19.5212 C   0  0  0  0  0  0  0  0  0  0  0  0
  -25.5210  -20.6935   18.6229 C   0  0  0  0  0  0  0  0  0  0  0  0
  -19.8627  -20.8474   21.7117 C   0  0  0  0  0  0  0  0  0  0  0  0
  -21.0590  -21.8570   24.5528 C   0  0  0  0  0  0  0  0  0  0  0  0
  -22.1877  -21.0524   27.6714 C   0  0  0  0  0  0  0  0  0  0  0  0
  -30.8980  -14.8876   19.5538 C   0  0  0  0  0  0  0  0  0  0  0  0
  -20.7624  -25.0946   19.0268 C   0  0  0  0  0  0  0  0  0  0  0  0
  -18.3059  -19.7195   23.3426 C   0  0  0  0  0  0  0  0  0  0  0  0
  -21.1400  -19.3741   24.1126 C   0  0  0  0  0  0  0  0  0  0  0  0
  -21.5500  -24.2429   20.0190 C   0  0  0  0  0  0  0  0  0  0  0  0
  -30.8539  -17.1016   22.3419 C   0  0  0  0  0  0  0  0  0  0  0  0
  -21.4713  -22.7682   19.6369 C   0  0  0  0  0  0  0  0  0  0  0  0
  -29.9742  -18.2621   21.8735 C   0  0  0  0  0  0  0  0  0  0  0  0
  -31.7090  -16.5469   21.2047 C   0  0  0  0  0  0  0  0  0  0  0  0
  -30.0775  -17.3213   19.5277 C   0  0  0  0  0  0  0  0  0  0  0  0
  -21.8998  -13.2704   20.4295 C   0  0  0  0  0  0  0  0  0  0  0  0
  -23.0165  -14.0636   19.7476 C   0  0  1  0  0  0  0  0  0  0  0  0
  -20.0231  -22.2654   19.6735 C   0  0  1  0  0  0  0  0  0  0  0  0
  -23.5326  -12.3533   22.1309 C   0  0  1  0  0  0  0  0  0  0  0  0
  -19.3385  -20.8200   23.1196 C   0  0  1  0  0  0  0  0  0  0  0  0
  -29.1557  -17.8774   20.6264 C   0  0  2  0  0  0  0  0  0  0  0  0
  -23.0629  -15.5258   20.2017 C   0  0  0  0  0  0  0  0  0  0  0  0
  -23.1344  -22.0884   29.7517 C   0  0  0  0  0  0  0  0  0  0  0  0
  -20.4933  -11.3484   21.7082 C   0  0  0  0  0  0  0  0  0  0  0  0
  -23.7520  -22.1913   23.1579 C   0  0  0  0  0  0  0  0  0  0  0  0
  -24.8298  -22.2945   25.4153 C   0  0  0  0  0  0  0  0  0  0  0  0
  -23.1660  -24.0296   24.7491 C   0  0  0  0  0  0  0  0  0  0  0  0
  -19.9222  -20.0961   29.3181 C   0  0  0  0  0  0  0  0  0  0  0  0
  -24.8996  -14.5680   24.7420 C   0  0  0  0  0  0  0  0  0  0  0  0
  -24.0582  -12.7480   23.5163 C   0  0  0  0  0  0  0  0  0  0  0  0
  -28.8998  -12.4752   18.4716 C   0  0  0  0  0  0  0  0  0  0  0  0
  -29.9828  -13.3393   17.8438 C   0  0  0  0  0  0  0  0  0  0  0  0
  -20.0004  -13.5202   22.9021 C   0  0  0  0  0  0  0  0  0  1  0  0
  -22.3708  -21.6893   25.2807 C   0  0  1  0  0  0  0  0  0  0  0  0
  -21.8712  -21.6327   29.0380 C   0  0  2  0  0  0  0  0  0  0  0  0
  -21.0412  -12.4466   22.6051 C   0  0  2  0  0  0  0  0  0  0  0  0
  -23.5138  -22.5287   24.6433 C   0  0  0  0  0  0  0  0  0  0  0  0
  -28.7751  -20.2901   20.2849 N   0  0  0  0  0  0  0  0  0  0  0  0
  -25.7846  -11.9787   21.2580 N   0  0  0  0  0  0  0  0  0  0  0  0
  -26.7889  -12.1403   20.3509 N   0  0  0  0  0  0  0  0  0  0  0  0
  -28.3128  -19.0377   20.1303 N   0  0  0  0  0  0  0  0  0  0  0  0
  -20.4983  -20.6947   24.0047 N   0  0  0  0  0  0  0  0  0  0  0  0
  -30.8724  -16.2002   20.0533 N   0  0  0  0  0  0  0  0  0  0  0  0
  -26.4843  -17.7898   19.2876 N   0  0  0  0  0  0  0  0  0  0  0  0
  -25.3102  -22.0658   18.4316 N   0  0  0  0  0  0  0  0  0  0  0  0
  -27.6190  -13.0918   18.3320 N   0  0  0  0  0  0  0  0  0  0  0  0
  -19.6055  -22.0263   21.0383 N   0  0  0  0  0  0  0  0  0  0  0  0
  -22.1050  -22.0068   26.6796 N   0  0  0  0  0  0  0  0  0  0  0  0
  -30.0705  -14.6421   18.4649 N   0  0  0  0  0  0  0  0  0  0  0  0
  -22.2083  -13.0932   21.8983 N   0  3  2  0  0  0  0  0  0  0  0  0
  -21.1921  -20.6147   29.8884 N   0  3  0  0  0  0  0  0  0  0  0  0
  -24.6423  -19.8796   18.2501 O   0  0  0  0  0  0  0  0  0  0  0  0
  -20.4580  -19.8717   21.2696 O   0  0  0  0  0  0  0  0  0  0  0  0
  -20.5469  -22.9769   24.4797 O   0  0  0  0  0  0  0  0  0  0  0  0
  -22.4827  -19.8715   27.5012 O   0  0  0  0  0  0  0  0  0  0  0  0
  -31.6019  -13.9989   20.0455 O   0  0  0  0  0  0  0  0  0  0  0  0
  -28.2972  -26.6080   19.6489 O   0  0  0  0  0  0  0  0  0  0  0  0
  -20.5480  -14.5230   23.7498 O   0  0  0  0  0  0  0  0  0  1  0  0
  -24.3998  -14.1192   23.4863 O   0  0  0  0  0  0  0  0  0  0  0  0
  -23.9014  -29.5973   21.1137 F   0  0  0  0  0  0  0  0  0  0  0  0
  -28.4187  -28.3546   21.7885 F   0  0  0  0  0  0  0  0  0  0  0  0
  1  2  1  0  0  0  0
  1  5  2  0  0  0  0
  2  6  2  0  0  0  0
  3  8  2  0  0  0  0
  3 16  1  0  0  0  0
  4  9  1  0  0  0  0
  4 16  2  0  0  0  0
  5 18  1  0  0  0  0
  6 20  1  0  0  0  0
  7 10  2  0  0  0  0
  7 19  1  0  0  0  0
  8 23  1  0  0  0  0
  9 23  2  0  0  0  0
 10 24  1  0  0  0  0
 11 12  2  0  0  0  0
 11 25  1  0  0  0  0
 12 26  1  0  0  0  0
 13 21  1  0  0  0  0
 13 24  2  0  0  0  0
 14 22  1  0  0  0  0
 14 30  2  0  0  0  0
 15 26  2  0  0  0  0
 15 27  1  0  0  0  0
 16 28  1  0  0  0  0
 17 28  1  0  0  0  0
 17 31  2  0  0  0  0
 17 32  1  0  0  0  0
 18 20  2  0  0  0  0
 18 37  1  0  0  0  0
 19 21  2  0  0  0  0
 19 38  1  0  0  0  0
 20 48  1  0  0  0  0
 21 39  1  0  0  0  0
 22 29  2  0  0  0  0
 22 47  1  0  0  0  0
 23 87  1  0  0  0  0
 24 88  1  0  0  0  0
 25 27  2  0  0  0  0
 25 87  1  0  0  0  0
 26 90  1  0  0  0  0
 27 91  1  0  0  0  0
 28 68  2  0  0  0  0
 29 49  1  0  0  0  0
 29 69  1  0  0  0  0
 30 70  1  0  0  0  0
 30 76  1  0  0  0  0
 31 71  1  0  0  0  0
 31 74  1  0  0  0  0
 32 75  1  0  0  0  0
 32 82  2  0  0  0  0
 33 50  1  0  0  0  0
 33 77  1  0  0  0  0
 33 83  2  0  0  0  0
 34 64  1  0  0  0  0
 34 72  1  0  0  0  0
 34 84  2  0  0  0  0
 35 65  1  0  0  0  0
 35 78  1  0  0  0  0
 35 85  2  0  0  0  0
 36 73  1  0  0  0  0
 36 79  1  0  0  0  0
 36 86  2  0  0  0  0
 37 40  1  0  0  0  0
 38 50  1  0  0  0  0
 39 72  1  0  0  0  0
 40 42  1  0  0  0  0
 41 43  1  0  0  0  0
 41 44  1  0  0  0  0
 42 48  1  0  0  0  0
 43 51  1  0  0  0  0
 44 73  1  0  0  0  0
 45 51  1  0  0  0  0
 45 73  1  0  0  0  0
 46 47  1  0  0  0  0
 46 80  1  0  0  0  0
 47 52  1  0  0  0  0
 48 77  1  0  0  0  0
 49 60  1  0  0  0  0
 49 80  1  0  0  0  0
 50 72  1  0  0  0  0
 51 71  1  0  0  0  0
 53 65  1  0  0  0  0
 54 66  1  0  0  0  0
 55 67  1  0  0  0  0
 56 67  1  0  0  0  0
 57 67  1  0  0  0  0
 58 81  1  0  0  0  0
 59 89  1  0  0  0  0
 60 89  1  0  0  0  0
 61 62  1  0  0  0  0
 61 76  1  0  0  0  0
 62 79  1  0  0  0  0
 63 66  1  0  0  0  0
 63 88  1  0  0  0  0
 64 67  1  0  0  0  0
 64 78  1  0  0  0  0
 65 81  1  0  0  0  0
 66 80  1  0  0  0  0
 68 71  1  0  0  0  0
 69 70  2  0  0  0  0
M  CHG  2  80   1  81   1
M  ISO  4  36 100  63 101  79 100  88 101
M  END
> <Batch ID>
0185

> <Smiles>
CNC(C)C(=O)NC(C(=O)N1Cc2cc([101O:1][101CH2:1]C(C)N3CC(C)c4cc(NCC[100NH:0][100C:0](=O)N5CCCC(n6nc(-c7ccc(Oc8ccc(F)cc8F)cc7)c(C(N)=O)c6N)C5)nnc4C3COC)ccc2CC1C(=O)NC1CCCc2ccccc21)C(C)(C)C

> <Shape>
0.192

> <Color>
0.099

> <Negative vol penalty>
0.000

$$$$

  -OEChem-04052323123D

 86 95  0     1  0  0  0  0  0999 V2000
  -18.4783  -29.0643   26.4920 C   0  0  0  0  0  0  0  0  0  0  0  0
  -19.8311  -28.7399   26.5024 C   0  0  0  0  0  0  0  0  0  0  0  0
  -24.1282  -17.3798   21.1054 C   0  0  0  0  0  0  0  0  0  0  0  0
  -25.5472  -17.1630   23.0487 C   0  0  0  0  0  0  0  0  0  0  0  0
  -17.7579  -29.0063   25.2997 C   0  0  0  0  0  0  0  0  0  0  0  0
  -20.4641  -28.3563   25.3206 C   0  0  0  0  0  0  0  0  0  0  0  0
  -26.8023  -28.7371   22.0043 C   0  0  0  0  0  0  0  0  0  0  0  0
  -23.7167  -18.6375   21.5461 C   0  0  0  0  0  0  0  0  0  0  0  0
  -25.1357  -18.4208   23.4895 C   0  0  0  0  0  0  0  0  0  0  0  0
  -27.7441  -27.9176   21.3835 C   0  0  0  0  0  0  0  0  0  0  0  0
  -21.5552  -19.8954   23.8199 C   0  0  0  0  0  0  0  0  0  0  0  0
  -20.1926  -20.1877   23.7622 C   0  0  0  0  0  0  0  0  0  0  0  0
  -26.4176  -27.9298   19.3687 C   0  0  0  0  0  0  0  0  0  0  0  0
  -20.6532  -22.0440   22.2861 C   0  0  0  0  0  0  0  0  0  0  0  0
  -25.0434  -16.6424   21.8567 C   0  0  0  0  0  0  0  0  0  0  0  0
  -24.6573  -14.2156   21.1720 C   0  0  0  0  0  0  0  0  0  0  0  0
  -18.3845  -28.6311   24.1009 C   0  0  0  0  0  0  0  0  0  0  0  0
  -25.6538  -29.1508   21.3143 C   0  0  0  0  0  0  0  0  0  0  0  0
  -19.7510  -28.2919   24.1114 C   0  0  0  0  0  0  0  0  0  0  0  0
  -25.4641  -28.7566   19.9821 C   0  0  0  0  0  0  0  0  0  0  0  0
  -24.2205  -19.1581   22.7382 C   0  0  0  0  0  0  0  0  0  0  0  0
  -27.5504  -27.5114   20.0664 C   0  0  0  0  0  0  0  0  0  0  0  0
  -22.4669  -20.6774   23.1108 C   0  0  0  0  0  0  0  0  0  0  0  0
  -19.7415  -21.2619   22.9953 C   0  0  0  0  0  0  0  0  0  0  0  0
  -22.0159  -21.7517   22.3438 C   0  0  0  0  0  0  0  0  0  0  0  0
  -25.4684  -15.3429   21.4023 C   0  0  0  0  0  0  0  0  0  0  0  0
  -27.0924  -23.5812   20.3502 C   0  0  0  0  0  0  0  0  0  0  0  0
  -27.9771  -22.7056   19.7599 C   0  0  0  0  0  0  0  0  0  0  0  0
  -29.1951  -24.4714   18.9665 C   0  0  0  0  0  0  0  0  0  0  0  0
  -28.3105  -25.3469   19.5570 C   0  0  0  0  0  0  0  0  0  1  0  0
  -25.5321  -13.2426   20.7543 C   0  0  0  0  0  0  0  0  0  0  0  0
  -23.2397  -14.0617   21.3222 C   0  0  0  0  0  0  0  0  0  0  0  0
  -22.5271  -28.7419   21.7148 C   0  0  0  0  0  0  0  0  0  0  0  0
  -22.3320  -30.8192   19.2310 C   0  0  0  0  0  0  0  0  0  0  0  0
  -23.8178  -32.2032   16.4880 C   0  0  0  0  0  0  0  0  0  0  0  0
  -30.1508  -16.2616   20.6384 C   0  0  0  0  0  0  0  0  0  0  0  0
  -17.5535  -28.5373   22.8458 C   0  0  0  0  0  0  0  0  0  0  0  0
  -24.6607  -30.0566   21.9894 C   0  0  0  0  0  0  0  0  0  0  0  0
  -24.2580  -29.1899   19.1909 C   0  0  0  0  0  0  0  0  0  0  0  0
  -18.3855  -28.4831   21.5670 C   0  0  0  0  0  0  0  0  0  0  0  0
  -29.4709  -13.2984   22.5157 C   0  0  0  0  0  0  0  0  0  0  0  0
  -31.4046  -17.3758   17.4234 C   0  0  0  0  0  0  0  0  0  0  0  0
  -19.5276  -27.4829   21.7153 C   0  0  0  0  0  0  0  0  0  0  0  0
  -28.6967  -12.3986   21.5587 C   0  0  0  0  0  0  0  0  0  0  0  0
  -30.6095  -18.6146   17.8111 C   0  0  0  0  0  0  0  0  0  0  0  0
  -30.5252  -14.0973   21.7653 C   0  0  0  0  0  0  0  0  0  0  0  0
  -30.6590  -16.2634   18.1442 C   0  0  0  0  0  0  0  0  0  0  0  0
  -29.1179  -14.1231   19.7147 C   0  0  0  0  0  0  0  0  0  0  0  0
  -20.4788  -27.8951   22.8453 C   0  0  1  0  0  0  0  0  0  0  0  0
  -23.2728  -29.9970   21.3590 C   0  0  1  0  0  0  0  0  0  0  0  0
  -28.0920  -13.1757   20.3784 C   0  0  2  0  0  0  0  0  0  0  0  0
  -30.2298  -18.3462   19.2700 C   0  0  1  0  0  0  0  0  0  0  0  0
  -25.9144  -23.0925   21.1216 C   0  0  0  0  0  0  0  0  0  0  0  0
  -30.3677  -24.9643   18.1901 C   0  0  0  0  0  0  0  0  0  0  0  0
  -23.3965  -33.8444   14.6370 C   0  0  0  0  0  0  0  0  0  0  0  0
  -20.5693  -28.7687   17.8174 C   0  0  0  0  0  0  0  0  0  0  0  0
  -20.9673  -30.0053   15.6772 C   0  0  0  0  0  0  0  0  0  0  0  0
  -19.8117  -31.1397   17.5746 C   0  0  0  0  0  0  0  0  0  0  0  0
  -26.0590  -33.9314   17.3535 C   0  0  0  0  0  0  0  0  0  0  0  0
  -27.7976  -21.2199   19.8668 C   0  0  0  0  0  0  0  0  0  0  0  0
  -28.8995  -18.9899   19.6394 C   0  0  0  0  0  0  0  0  0  0  0  0
  -22.2945  -30.6875   17.7276 C   0  0  1  0  0  0  0  0  0  0  0  0
  -23.9554  -33.6463   16.0374 C   0  0  2  0  0  0  0  0  0  0  0  0
  -20.9325  -30.1404   17.2145 C   0  0  0  0  0  0  0  0  0  0  0  0
  -26.7594  -15.1090   21.1518 N   0  0  0  0  0  0  0  0  0  0  0  0
  -29.0443  -23.1349   19.0573 N   0  0  0  0  0  0  0  0  0  0  0  0
  -27.2433  -24.9176   20.2594 N   0  0  0  0  0  0  0  0  0  0  0  0
  -26.7661  -13.8235   20.7598 N   0  0  0  0  0  0  0  0  0  0  0  0
  -23.3124  -30.0702   19.8970 N   0  0  0  0  0  0  0  0  0  0  0  0
  -29.9458  -14.8742   20.6693 N   0  0  0  0  0  0  0  0  0  0  0  0
  -30.2011  -16.8834   19.3887 N   0  0  0  0  0  0  0  0  0  0  0  0
  -25.3585  -11.9554   20.3865 N   0  0  0  0  0  0  0  0  0  0  0  0
  -22.7415  -13.6345   22.5606 N   0  0  0  0  0  0  0  0  0  0  0  0
  -21.3517  -28.9629   22.4069 N   0  0  0  0  0  0  0  0  0  0  0  0
  -22.6514  -31.9976   17.1940 N   0  0  0  0  0  0  0  0  0  0  0  0
  -25.3890  -34.0532   16.0332 N   0  3  0  0  0  0  0  0  0  0  0  0
  -29.0176  -20.4550   19.4818 N   0  3  0  0  0  0  0  0  0  0  0  0
  -22.4398  -14.2804   20.3811 O   0  0  0  0  0  0  0  0  0  0  0  0
  -22.9836  -27.6537   21.3845 O   0  0  0  0  0  0  0  0  0  0  0  0
  -21.5260  -31.5649   19.7930 O   0  0  0  0  0  0  0  0  0  0  0  0
  -24.6590  -31.3434   16.2355 O   0  0  0  0  0  0  0  0  0  0  0  0
  -30.2926  -16.9150   21.6805 O   0  0  0  0  0  0  0  0  0  0  0  0
  -23.8193  -20.3855   23.1684 O   0  0  0  0  0  0  0  0  0  0  0  0
  -28.4821  -26.6985   19.4488 O   0  0  0  0  0  0  0  0  0  1  0  0
  -18.4328  -21.5415   22.9388 F   0  0  0  0  0  0  0  0  0  0  0  0
  -22.8869  -22.5059   21.6594 F   0  0  0  0  0  0  0  0  0  0  0  0
  1  2  1  0  0  0  0
  1  5  2  0  0  0  0
  2  6  2  0  0  0  0
  3  8  2  0  0  0  0
  3 15  1  0  0  0  0
  4  9  1  0  0  0  0
  4 15  2  0  0  0  0
  5 17  1  0  0  0  0
  6 19  1  0  0  0  0
  7 10  2  0  0  0  0
  7 18  1  0  0  0  0
  8 21  1  0  0  0  0
  9 21  2  0  0  0  0
 10 22  1  0  0  0  0
 11 12  2  0  0  0  0
 11 23  1  0  0  0  0
 12 24  1  0  0  0  0
 13 20  1  0  0  0  0
 13 22  2  0  0  0  0
 14 24  2  0  0  0  0
 14 25  1  0  0  0  0
 15 26  1  0  0  0  0
 16 26  1  0  0  0  0
 16 31  2  0  0  0  0
 16 32  1  0  0  0  0
 17 19  2  0  0  0  0
 17 37  1  0  0  0  0
 18 20  2  0  0  0  0
 18 38  1  0  0  0  0
 19 49  1  0  0  0  0
 20 39  1  0  0  0  0
 21 83  1  0  0  0  0
 22 84  1  0  0  0  0
 23 25  2  0  0  0  0
 23 83  1  0  0  0  0
 24 85  1  0  0  0  0
 25 86  1  0  0  0  0
 26 65  2  0  0  0  0
 27 28  1  0  0  0  0
 27 53  1  0  0  0  0
 27 67  2  0  0  0  0
 28 60  1  0  0  0  0
 28 66  2  0  0  0  0
 29 30  2  0  0  0  0
 29 54  1  0  0  0  0
 29 66  1  0  0  0  0
 30 67  1  0  0  0  0
 30 84  1  0  0  0  0
 31 68  1  0  0  0  0
 31 72  1  0  0  0  0
 32 73  1  0  0  0  0
 32 78  2  0  0  0  0
 33 50  1  0  0  0  0
 33 74  1  0  0  0  0
 33 79  2  0  0  0  0
 34 62  1  0  0  0  0
 34 69  1  0  0  0  0
 34 80  2  0  0  0  0
 35 63  1  0  0  0  0
 35 75  1  0  0  0  0
 35 81  2  0  0  0  0
 36 70  1  0  0  0  0
 36 71  1  0  0  0  0
 36 82  2  0  0  0  0
 37 40  1  0  0  0  0
 38 50  1  0  0  0  0
 39 69  1  0  0  0  0
 40 43  1  0  0  0  0
 41 44  1  0  0  0  0
 41 46  1  0  0  0  0
 42 45  1  0  0  0  0
 42 47  1  0  0  0  0
 43 49  1  0  0  0  0
 44 51  1  0  0  0  0
 45 52  1  0  0  0  0
 46 70  1  0  0  0  0
 47 71  1  0  0  0  0
 48 51  1  0  0  0  0
 48 70  1  0  0  0  0
 49 74  1  0  0  0  0
 50 69  1  0  0  0  0
 51 68  1  0  0  0  0
 52 61  1  0  0  0  0
 52 71  1  0  0  0  0
 55 63  1  0  0  0  0
 56 64  1  0  0  0  0
 57 64  1  0  0  0  0
 58 64  1  0  0  0  0
 59 76  1  0  0  0  0
 60 77  1  0  0  0  0
 61 77  1  0  0  0  0
 62 64  1  0  0  0  0
 62 75  1  0  0  0  0
 63 76  1  0  0  0  0
 65 68  1  0  0  0  0
M  CHG  2  76   1  77   1
M  ISO  4  30 101  36 100  71 100  84 101
M  END
> <Batch ID>
0185

> <Smiles>
CNC(C)C(=O)NC(C(=O)N1Cc2cc([101O:1][101c:1]3nc(C)c(CNCC4CCC[100N:0]4[100C:0](=O)N4CCCC(n5nc(-c6ccc(Oc7ccc(F)cc7F)cc6)c(C(N)=O)c5N)C4)nc3C)ccc2CC1C(=O)NC1CCCc2ccccc21)C(C)(C)C

> <Shape>
0.255

> <Color>
0.120

> <Negative vol penalty>
0.000

$$$$

  -OEChem-04052323123D

 81 90  0     1  0  0  0  0  0999 V2000
  -30.4717  -10.9364   16.6849 C   0  0  0  0  0  0  0  0  0  0  0  0
  -29.4918  -11.6829   16.0384 C   0  0  0  0  0  0  0  0  0  0  0  0
  -26.2159  -31.3782   20.1119 C   0  0  0  0  0  0  0  0  0  0  0  0
  -26.1762  -30.5617   22.3854 C   0  0  0  0  0  0  0  0  0  0  0  0
  -30.6609  -11.0778   18.0590 C   0  0  0  0  0  0  0  0  0  0  0  0
  -28.6997  -12.5704   16.7659 C   0  0  0  0  0  0  0  0  0  0  0  0
  -25.3227  -18.8552   16.1225 C   0  0  0  0  0  0  0  0  0  0  0  0
  -26.4950  -32.6628   20.5781 C   0  0  0  0  0  0  0  0  0  0  0  0
  -26.4555  -31.8464   22.8516 C   0  0  0  0  0  0  0  0  0  0  0  0
  -24.0662  -19.4275   16.3161 C   0  0  0  0  0  0  0  0  0  0  0  0
  -24.7656  -34.7264   23.3812 C   0  0  0  0  0  0  0  0  0  0  0  0
  -24.0242  -35.1981   24.4645 C   0  0  0  0  0  0  0  0  0  0  0  0
  -24.5360  -19.6473   18.6720 C   0  0  0  0  0  0  0  0  0  0  0  0
  -26.0572  -35.4531   25.7448 C   0  0  0  0  0  0  0  0  0  0  0  0
  -26.0564  -30.3276   21.0156 C   0  0  0  0  0  0  0  0  0  0  0  0
  -26.6961  -27.9996   20.1917 C   0  0  0  0  0  0  0  0  0  0  0  0
  -29.8772  -11.9746   18.8021 C   0  0  0  0  0  0  0  0  0  0  0  0
  -26.1924  -18.6643   17.2058 C   0  0  0  0  0  0  0  0  0  0  0  0
  -28.8777  -12.7229   18.1515 C   0  0  0  0  0  0  0  0  0  0  0  0
  -25.8040  -19.0746   18.4891 C   0  0  0  0  0  0  0  0  0  0  0  0
  -26.6149  -32.8969   21.9479 C   0  0  0  0  0  0  0  0  0  0  0  0
  -23.6716  -19.8210   17.5915 C   0  0  0  0  0  0  0  0  0  0  0  0
  -26.1528  -34.6180   23.4798 C   0  0  0  0  0  0  0  0  0  0  0  0
  -24.6700  -35.5615   25.6463 C   0  0  0  0  0  0  0  0  0  0  0  0
  -26.7986  -34.9814   24.6615 C   0  0  0  0  0  0  0  0  0  0  0  0
  -25.7675  -29.0004   20.5347 C   0  0  0  0  0  0  0  0  0  0  0  0
  -25.9234  -26.9350   19.7968 C   0  0  0  0  0  0  0  0  0  0  0  0
  -28.1292  -28.0296   20.2269 C   0  0  0  0  0  0  0  0  0  0  0  0
  -27.5282  -16.1344   18.5913 C   0  0  0  0  0  0  0  0  0  0  0  0
  -29.0960  -18.3928   20.3128 C   0  0  0  0  0  0  0  0  0  0  0  0
  -29.1696  -21.5853   21.5169 C   0  0  0  0  0  0  0  0  0  0  0  0
  -21.6879  -23.5776   20.7509 C   0  0  0  0  0  0  0  0  0  0  0  0
  -30.0868  -12.0584   20.2933 C   0  0  0  0  0  0  0  0  0  0  0  0
  -27.5549  -18.0700   16.9760 C   0  0  0  0  0  0  0  0  0  0  0  0
  -26.7086  -18.9102   19.6821 C   0  0  0  0  0  0  0  0  0  0  0  0
  -29.4576  -13.2958   20.9282 C   0  0  0  0  0  0  0  0  0  0  0  0
  -20.9989  -26.6068   18.8012 C   0  0  0  0  0  0  0  0  0  0  0  0
  -28.0330  -13.4913   20.4191 C   0  0  0  0  0  0  0  0  0  0  0  0
  -22.2354  -27.4431   19.1120 C   0  0  0  0  0  0  0  0  0  0  0  0
  -20.5741  -25.7334   19.9822 C   0  0  0  0  0  0  0  0  0  0  0  0
  -19.3119  -23.5088   21.7862 C   0  0  0  0  0  0  0  0  0  0  0  0
  -22.9117  -25.7230   20.8222 C   0  0  0  0  0  0  0  0  0  0  0  0
  -17.8431  -21.3648   21.6670 C   0  0  0  0  0  0  0  0  0  0  0  0
  -28.0151  -13.7143   18.9020 C   0  0  1  0  0  0  0  0  0  0  0  0
  -28.1569  -17.4515   18.2340 C   0  0  1  0  0  0  0  0  0  0  0  0
  -19.0386  -22.0787   22.2753 C   0  0  1  0  0  0  0  0  0  0  0  0
  -23.3771  -26.5468   19.6137 C   0  0  2  0  0  0  0  0  0  0  0  0
  -20.2659  -21.5987   21.4950 C   0  0  1  0  0  0  0  0  0  0  0  0
  -19.7561  -20.6754   20.3908 C   0  0  2  0  0  0  0  0  0  0  0  0
  -16.0014  -20.3929   19.6016 C   0  0  0  0  0  0  0  0  0  0  0  0
  -30.5610  -23.1282   22.9243 C   0  0  0  0  0  0  0  0  0  0  0  0
  -28.1217  -16.9710   22.8305 C   0  0  0  0  0  0  0  0  0  0  0  0
  -28.7094  -19.0259   24.1344 C   0  0  0  0  0  0  0  0  0  0  0  0
  -30.4919  -17.7625   22.9305 C   0  0  0  0  0  0  0  0  0  0  0  0
  -29.5580  -23.4723   19.2702 C   0  0  0  0  0  0  0  0  0  0  0  0
  -20.4646  -20.8495   19.0597 C   0  0  0  0  0  0  0  0  0  0  0  0
  -17.4422  -19.9328   19.6427 C   0  0  0  0  0  0  0  0  0  0  0  0
  -21.8251  -20.1692   19.0494 C   0  0  0  0  0  0  0  0  0  1  0  0
  -28.8298  -19.1294   21.6034 C   0  0  1  0  0  0  0  0  0  0  0  0
  -30.2641  -22.6372   21.5159 C   0  0  2  0  0  0  0  0  0  0  0  0
  -29.0202  -18.2236   22.8528 C   0  0  0  0  0  0  0  0  0  0  0  0
  -24.5015  -28.6069   20.3718 N   0  0  0  0  0  0  0  0  0  0  0  0
  -24.6293  -27.3469   19.9220 N   0  0  0  0  0  0  0  0  0  0  0  0
  -28.0283  -18.3183   19.4072 N   0  0  0  0  0  0  0  0  0  0  0  0
  -21.6954  -24.9587   20.5254 N   0  0  0  0  0  0  0  0  0  0  0  0
  -20.4842  -22.9906   21.0944 N   0  0  0  0  0  0  0  0  0  0  0  0
  -26.2315  -25.6960   19.3580 N   0  0  0  0  0  0  0  0  0  0  0  0
  -28.7625  -29.2030   20.6585 N   0  0  0  0  0  0  0  0  0  0  0  0
  -28.4097  -15.0703   18.5858 N   0  0  0  0  0  0  0  0  0  0  0  0
  -29.6877  -20.3093   21.5845 N   0  0  0  0  0  0  0  0  0  0  0  0
  -18.2826  -21.0002   20.2689 N   0  3  1  0  0  0  0  0  0  0  0  0
  -29.8577  -23.8067   20.6863 N   0  3  0  0  0  0  0  0  0  0  0  0
  -28.8276  -27.0506   19.8702 O   0  0  0  0  0  0  0  0  0  0  0  0
  -26.3321  -16.0874   18.8539 O   0  0  0  0  0  0  0  0  0  0  0  0
  -30.2124  -17.9079   20.1124 O   0  0  0  0  0  0  0  0  0  0  0  0
  -27.9744  -21.8675   21.4667 O   0  0  0  0  0  0  0  0  0  0  0  0
  -22.7181  -22.8957   20.6788 O   0  0  0  0  0  0  0  0  0  0  0  0
  -26.8875  -34.1503   22.4031 O   0  0  0  0  0  0  0  0  0  0  0  0
  -22.4364  -20.3835   17.7847 O   0  0  0  0  0  0  0  0  0  1  0  0
  -23.9581  -36.0159   26.6859 F   0  0  0  0  0  0  0  0  0  0  0  0
  -28.1311  -34.8806   24.7617 F   0  0  0  0  0  0  0  0  0  0  0  0
  1  2  1  0  0  0  0
  1  5  2  0  0  0  0
  2  6  2  0  0  0  0
  3  8  2  0  0  0  0
  3 15  1  0  0  0  0
  4  9  1  0  0  0  0
  4 15  2  0  0  0  0
  5 17  1  0  0  0  0
  6 19  1  0  0  0  0
  7 10  2  0  0  0  0
  7 18  1  0  0  0  0
  8 21  1  0  0  0  0
  9 21  2  0  0  0  0
 10 22  1  0  0  0  0
 11 12  2  0  0  0  0
 11 23  1  0  0  0  0
 12 24  1  0  0  0  0
 13 20  1  0  0  0  0
 13 22  2  0  0  0  0
 14 24  2  0  0  0  0
 14 25  1  0  0  0  0
 15 26  1  0  0  0  0
 16 26  1  0  0  0  0
 16 27  2  0  0  0  0
 16 28  1  0  0  0  0
 17 19  2  0  0  0  0
 17 33  1  0  0  0  0
 18 20  2  0  0  0  0
 18 34  1  0  0  0  0
 19 44  1  0  0  0  0
 20 35  1  0  0  0  0
 21 78  1  0  0  0  0
 22 79  1  0  0  0  0
 23 25  2  0  0  0  0
 23 78  1  0  0  0  0
 24 80  1  0  0  0  0
 25 81  1  0  0  0  0
 26 62  2  0  0  0  0
 27 63  1  0  0  0  0
 27 67  1  0  0  0  0
 28 68  1  0  0  0  0
 28 73  2  0  0  0  0
 29 45  1  0  0  0  0
 29 69  1  0  0  0  0
 29 74  2  0  0  0  0
 30 59  1  0  0  0  0
 30 64  1  0  0  0  0
 30 75  2  0  0  0  0
 31 60  1  0  0  0  0
 31 70  1  0  0  0  0
 31 76  2  0  0  0  0
 32 65  1  0  0  0  0
 32 66  1  0  0  0  0
 32 77  2  0  0  0  0
 33 36  1  0  0  0  0
 34 45  1  0  0  0  0
 35 64  1  0  0  0  0
 36 38  1  0  0  0  0
 37 39  1  0  0  0  0
 37 40  1  0  0  0  0
 38 44  1  0  0  0  0
 39 47  1  0  0  0  0
 40 65  1  0  0  0  0
 41 46  1  0  0  0  0
 41 66  1  0  0  0  0
 42 47  1  0  0  0  0
 42 65  1  0  0  0  0
 43 46  1  0  0  0  0
 43 71  1  0  0  0  0
 44 69  1  0  0  0  0
 45 64  1  0  0  0  0
 46 48  1  0  0  0  0
 47 63  1  0  0  0  0
 48 49  1  0  0  0  0
 48 66  1  0  0  0  0
 49 56  1  0  0  0  0
 49 71  1  0  0  0  0
 50 57  1  0  0  0  0
 51 60  1  0  0  0  0
 52 61  1  0  0  0  0
 53 61  1  0  0  0  0
 54 61  1  0  0  0  0
 55 72  1  0  0  0  0
 56 58  1  0  0  0  0
 57 71  1  0  0  0  0
 58 79  1  0  0  0  0
 59 61  1  0  0  0  0
 59 70  1  0  0  0  0
 60 72  1  0  0  0  0
 62 63  1  0  0  0  0
M  CHG  2  71   1  72   1
M  ISO  4  32 100  58 101  66 100  79 101
M  END
> <Batch ID>
0185

> <Smiles>
CCN1CC2C[100N:0]([100C:0](=O)N3CCCC(n4nc(-c5ccc(Oc6ccc(F)cc6F)cc5)c(C(N)=O)c4N)C3)C2C1C[101CH2:1][101O:1]c1ccc2c(c1)CN(C(=O)C(NC(=O)C(C)NC)C(C)(C)C)C(C(=O)NC1CCCc3ccccc31)C2

> <Shape>
0.225

> <Color>
0.070

> <Negative vol penalty>
0.000

$$$$

  -OEChem-04052323123D

 86 95  0     1  0  0  0  0  0999 V2000
  -19.6541  -33.1402   15.8272 C   0  0  0  0  0  0  0  0  0  0  0  0
  -20.6247  -32.1437   15.8422 C   0  0  0  0  0  0  0  0  0  0  0  0
  -23.6103  -10.1396   20.2434 C   0  0  0  0  0  0  0  0  0  0  0  0
  -23.5846   -9.5818   22.5940 C   0  0  0  0  0  0  0  0  0  0  0  0
  -19.7930  -34.2594   16.6469 C   0  0  0  0  0  0  0  0  0  0  0  0
  -21.7355  -32.2664   16.6762 C   0  0  0  0  0  0  0  0  0  0  0  0
  -24.6910  -27.7441   19.5605 C   0  0  0  0  0  0  0  0  0  0  0  0
  -22.7412   -9.0803   19.9825 C   0  0  0  0  0  0  0  0  0  0  0  0
  -22.7154   -8.5225   22.3331 C   0  0  0  0  0  0  0  0  0  0  0  0
  -25.8579  -27.0436   19.2581 C   0  0  0  0  0  0  0  0  0  0  0  0
  -22.9207   -5.3704   21.1278 C   0  0  0  0  0  0  0  0  0  0  0  0
  -23.1916   -4.1449   21.7363 C   0  0  0  0  0  0  0  0  0  0  0  0
  -27.1124  -28.5289   20.6861 C   0  0  0  0  0  0  0  0  0  0  0  0
  -21.0472   -4.2224   22.8467 C   0  0  0  0  0  0  0  0  0  0  0  0
  -31.0358  -22.7316   20.1717 C   0  0  0  0  0  0  0  0  0  0  0  0
  -24.0321  -10.3903   21.5492 C   0  0  0  0  0  0  0  0  0  0  0  0
  -24.5830  -12.8123   22.1308 C   0  0  0  0  0  0  0  0  0  0  0  0
  -20.9011  -34.3913   17.4985 C   0  0  0  0  0  0  0  0  0  0  0  0
  -24.7279  -28.8508   20.4209 C   0  0  0  0  0  0  0  0  0  0  0  0
  -21.8900  -33.3891   17.5071 C   0  0  0  0  0  0  0  0  0  0  0  0
  -25.9442  -29.2402   20.9998 C   0  0  0  0  0  0  0  0  0  0  0  0
  -29.7042  -22.9874   20.4281 C   0  0  0  0  0  0  0  0  0  0  0  0
  -22.2937   -8.2718   21.0273 C   0  0  0  0  0  0  0  0  0  0  0  0
  -27.0693  -27.4377   19.8186 C   0  0  0  0  0  0  0  0  0  0  0  0
  -21.7131   -6.0220   21.3787 C   0  0  0  0  0  0  0  0  0  0  0  0
  -22.2548   -3.5709   22.5958 C   0  0  0  0  0  0  0  0  0  0  0  0
  -20.7764   -5.4479   22.2381 C   0  0  0  0  0  0  0  0  0  0  0  0
  -24.9304  -11.4841   21.8192 C   0  0  0  0  0  0  0  0  0  0  0  0
  -28.9002  -21.8755   20.5750 C   0  0  0  0  0  0  0  0  0  0  0  0
  -25.7870  -13.4521   22.2967 C   0  0  0  0  0  0  0  0  0  0  0  0
  -30.6679  -20.4891   20.2284 C   0  0  0  0  0  0  0  0  0  0  0  0
  -23.2879  -13.4139   22.2589 C   0  0  0  0  0  0  0  0  0  0  0  0
  -24.0593  -31.9443   20.1262 C   0  0  0  0  0  0  0  0  0  0  0  0
  -24.6074  -31.9683   23.3233 C   0  0  0  0  0  0  0  0  0  0  0  0
  -26.1166  -30.5111   26.0151 C   0  0  0  0  0  0  0  0  0  0  0  0
  -30.9760  -14.3691   20.2692 C   0  0  0  0  0  0  0  0  0  0  0  0
  -21.0317  -35.6417   18.3317 C   0  0  0  0  0  0  0  0  0  0  0  0
  -23.4560  -29.5794   20.7581 C   0  0  0  0  0  0  0  0  0  0  0  0
  -26.0341  -30.4090   21.9454 C   0  0  0  0  0  0  0  0  0  0  0  0
  -22.0501  -35.5169   19.4620 C   0  0  0  0  0  0  0  0  0  0  0  0
  -30.4858  -11.6180   22.6491 C   0  0  0  0  0  0  0  0  0  0  0  0
  -23.3430  -34.8910   18.9489 C   0  0  0  0  0  0  0  0  0  0  0  0
  -28.9695  -11.4197   22.6300 C   0  0  0  0  0  0  0  0  0  0  0  0
  -30.1613  -17.6393   21.7384 C   0  0  0  0  0  0  0  0  0  0  0  0
  -31.0119  -12.1322   21.3110 C   0  0  0  0  0  0  0  0  0  0  0  0
  -29.7740  -16.1671   21.6451 C   0  0  0  0  0  0  0  0  0  0  0  0
  -28.8244  -13.1425   20.7941 C   0  0  0  0  0  0  0  0  0  0  0  0
  -31.0517  -16.7815   19.7073 C   0  0  0  0  0  0  0  0  0  0  0  0
  -23.0967  -33.4742   18.4164 C   0  0  1  0  0  0  0  0  0  0  0  0
  -23.6951  -31.0063   21.2421 C   0  0  1  0  0  0  0  0  0  0  0  0
  -28.2493  -12.6913   22.1438 C   0  0  1  0  0  0  0  0  0  0  0  0
  -30.3617  -18.0133   20.2739 C   0  0  2  0  0  0  0  0  0  0  0  0
  -27.4407  -22.0268   20.8551 C   0  0  0  0  0  0  0  0  0  0  0  0
  -26.4124  -30.7803   28.4925 C   0  0  0  0  0  0  0  0  0  0  0  0
  -26.6047  -34.2233   22.8375 C   0  0  0  0  0  0  0  0  0  0  0  0
  -27.5337  -33.7990   25.1233 C   0  0  0  0  0  0  0  0  0  0  0  0
  -25.1619  -34.5249   24.8579 C   0  0  0  0  0  0  0  0  0  0  0  0
  -24.8298  -27.9042   26.5690 C   0  0  0  0  0  0  0  0  0  0  0  0
  -30.0522  -25.4576   20.3783 C   0  0  0  0  0  0  0  0  0  0  0  0
  -29.2243  -26.7232   20.5267 C   0  0  0  0  0  0  0  0  0  1  0  0
  -25.8200  -32.1745   24.1986 C   0  0  1  0  0  0  0  0  0  0  0  0
  -25.5865  -30.1392   27.3881 C   0  0  2  0  0  0  0  0  0  0  0  0
  -26.2791  -33.6596   24.2350 C   0  0  0  0  0  0  0  0  0  0  0  0
  -31.5536  -21.4903   20.0650 N   0  0  0  0  0  0  0  0  0  0  0  0
  -26.2515  -11.2903   21.7883 N   0  0  0  0  0  0  0  0  0  0  0  0
  -29.3504  -20.6071   20.4809 N   0  0  0  0  0  0  0  0  0  0  0  0
  -26.7450  -12.5052   22.0824 N   0  0  0  0  0  0  0  0  0  0  0  0
  -24.7640  -31.0933   22.2391 N   0  0  0  0  0  0  0  0  0  0  0  0
  -30.2776  -13.3223   20.8809 N   0  0  0  0  0  0  0  0  0  0  0  0
  -30.5133  -15.6668   20.4832 N   0  0  0  0  0  0  0  0  0  0  0  0
  -26.1091  -14.7267   22.6034 N   0  0  0  0  0  0  0  0  0  0  0  0
  -22.1560  -12.6127   22.0556 N   0  0  0  0  0  0  0  0  0  0  0  0
  -29.2203  -24.2970   20.5295 N   0  0  0  0  0  0  0  0  0  0  0  0
  -31.1661  -19.1974   20.1254 N   0  0  0  0  0  0  0  0  0  0  0  0
  -22.9726  -32.5369   19.5121 N   0  0  0  0  0  0  0  0  0  0  0  0
  -25.4790  -31.6223   25.5052 N   0  0  0  0  0  0  0  0  0  0  0  0
  -25.6206  -28.6609   27.5735 N   0  3  0  0  0  0  0  0  0  0  0  0
  -23.1390  -14.6297   22.5290 O   0  0  0  0  0  0  0  0  0  0  0  0
  -25.2391  -32.1187   19.8443 O   0  0  0  0  0  0  0  0  0  0  0  0
  -23.5579  -32.5564   23.5958 O   0  0  0  0  0  0  0  0  0  0  0  0
  -27.0099  -29.8814   25.4529 O   0  0  0  0  0  0  0  0  0  0  0  0
  -31.9960  -14.1583   19.5997 O   0  0  0  0  0  0  0  0  0  0  0  0
  -21.4454   -7.2382   20.7731 O   0  0  0  0  0  0  0  0  0  0  0  0
  -28.2178  -26.7513   19.5226 O   0  0  0  0  0  0  0  0  0  1  0  0
  -22.5144   -2.3933   23.1789 F   0  0  0  0  0  0  0  0  0  0  0  0
  -19.6140   -6.0685   22.4821 F   0  0  0  0  0  0  0  0  0  0  0  0
  1  2  1  0  0  0  0
  1  5  2  0  0  0  0
  2  6  2  0  0  0  0
  3  8  2  0  0  0  0
  3 16  1  0  0  0  0
  4  9  1  0  0  0  0
  4 16  2  0  0  0  0
  5 18  1  0  0  0  0
  6 20  1  0  0  0  0
  7 10  2  0  0  0  0
  7 19  1  0  0  0  0
  8 23  1  0  0  0  0
  9 23  2  0  0  0  0
 10 24  1  0  0  0  0
 11 12  2  0  0  0  0
 11 25  1  0  0  0  0
 12 26  1  0  0  0  0
 13 21  1  0  0  0  0
 13 24  2  0  0  0  0
 14 26  2  0  0  0  0
 14 27  1  0  0  0  0
 15 22  1  0  0  0  0
 15 64  2  0  0  0  0
 16 28  1  0  0  0  0
 17 28  1  0  0  0  0
 17 30  2  0  0  0  0
 17 32  1  0  0  0  0
 18 20  2  0  0  0  0
 18 37  1  0  0  0  0
 19 21  2  0  0  0  0
 19 38  1  0  0  0  0
 20 49  1  0  0  0  0
 21 39  1  0  0  0  0
 22 29  2  0  0  0  0
 22 73  1  0  0  0  0
 23 83  1  0  0  0  0
 24 84  1  0  0  0  0
 25 27  2  0  0  0  0
 25 83  1  0  0  0  0
 26 85  1  0  0  0  0
 27 86  1  0  0  0  0
 28 65  2  0  0  0  0
 29 53  1  0  0  0  0
 29 66  1  0  0  0  0
 30 67  1  0  0  0  0
 30 71  1  0  0  0  0
 31 64  1  0  0  0  0
 31 66  2  0  0  0  0
 31 74  1  0  0  0  0
 32 72  1  0  0  0  0
 32 78  2  0  0  0  0
 33 50  1  0  0  0  0
 33 75  1  0  0  0  0
 33 79  2  0  0  0  0
 34 61  1  0  0  0  0
 34 68  1  0  0  0  0
 34 80  2  0  0  0  0
 35 62  1  0  0  0  0
 35 76  1  0  0  0  0
 35 81  2  0  0  0  0
 36 69  1  0  0  0  0
 36 70  1  0  0  0  0
 36 82  2  0  0  0  0
 37 40  1  0  0  0  0
 38 50  1  0  0  0  0
 39 68  1  0  0  0  0
 40 42  1  0  0  0  0
 41 43  1  0  0  0  0
 41 45  1  0  0  0  0
 42 49  1  0  0  0  0
 43 51  1  0  0  0  0
 44 46  1  0  0  0  0
 44 52  1  0  0  0  0
 45 69  1  0  0  0  0
 46 70  1  0  0  0  0
 47 51  1  0  0  0  0
 47 69  1  0  0  0  0
 48 52  1  0  0  0  0
 48 70  1  0  0  0  0
 49 75  1  0  0  0  0
 50 68  1  0  0  0  0
 51 67  1  0  0  0  0
 52 74  1  0  0  0  0
 54 62  1  0  0  0  0
 55 63  1  0  0  0  0
 56 63  1  0  0  0  0
 57 63  1  0  0  0  0
 58 77  1  0  0  0  0
 59 60  1  0  0  0  0
 59 73  1  0  0  0  0
 60 84  1  0  0  0  0
 61 63  1  0  0  0  0
 61 76  1  0  0  0  0
 62 77  1  0  0  0  0
 65 67  1  0  0  0  0
M  CHG  1  77   1
M  ISO  4  36 100  60 101  70 100  84 101
M  END
> <Batch ID>
0185

> <Smiles>
CNC(C)C(=O)NC(C(=O)N1Cc2cc([101O:1][101CH2:1]CNc3cnc(NC4CC[100N:0]([100C:0](=O)N5CCCC(n6nc(-c7ccc(Oc8ccc(F)cc8F)cc7)c(C(N)=O)c6N)C5)C4)nc3C)ccc2CC1C(=O)NC1CCCc2ccccc21)C(C)(C)C

> <Shape>
0.336

> <Color>
0.152

> <Negative vol penalty>
0.000

$$$$

  -OEChem-04052323123D

 83 92  0     1  0  0  0  0  0999 V2000
  -30.2019  -24.1277   14.2684 C   0  0  0  0  0  0  0  0  0  0  0  0
  -28.9758  -23.8972   14.8819 C   0  0  0  0  0  0  0  0  0  0  0  0
  -24.4632  -13.7844   20.6764 C   0  0  0  0  0  0  0  0  0  0  0  0
  -26.8379  -13.3479   20.5914 C   0  0  0  0  0  0  0  0  0  0  0  0
  -31.1665  -24.8977   14.9149 C   0  0  0  0  0  0  0  0  0  0  0  0
  -28.7093  -24.4463   16.1366 C   0  0  0  0  0  0  0  0  0  0  0  0
  -23.8830  -23.8002   19.7995 C   0  0  0  0  0  0  0  0  0  0  0  0
  -24.2066  -12.4502   20.3608 C   0  0  0  0  0  0  0  0  0  0  0  0
  -26.5814  -12.0137   20.2758 C   0  0  0  0  0  0  0  0  0  0  0  0
  -23.4898  -22.9677   20.8464 C   0  0  0  0  0  0  0  0  0  0  0  0
  -24.1727   -9.4734   21.9641 C   0  0  0  0  0  0  0  0  0  0  0  0
  -23.1903   -8.8107   22.6998 C   0  0  0  0  0  0  0  0  0  0  0  0
  -24.2474  -24.6177   22.4349 C   0  0  0  0  0  0  0  0  0  0  0  0
  -21.9406   -8.4112   20.6710 C   0  0  0  0  0  0  0  0  0  0  0  0
  -23.7128  -22.4688   25.5445 C   0  0  0  0  0  0  0  0  0  0  0  0
  -25.7789  -14.2333   20.7916 C   0  0  0  0  0  0  0  0  0  0  0  0
  -26.1931  -16.1684   22.4014 C   0  0  0  0  0  0  0  0  0  0  0  0
  -30.9156  -25.4459   16.1836 C   0  0  0  0  0  0  0  0  0  0  0  0
  -24.4723  -25.0451   20.0628 C   0  0  0  0  0  0  0  0  0  0  0  0
  -29.6610  -25.2461   16.7947 C   0  0  0  0  0  0  0  0  0  0  0  0
  -24.6448  -25.4652   21.3895 C   0  0  0  0  0  0  0  0  0  0  0  0
  -25.2657  -11.5648   20.1606 C   0  0  0  0  0  0  0  0  0  0  0  0
  -23.6746  -23.3751   22.1644 C   0  0  0  0  0  0  0  0  0  0  0  0
  -24.0391   -9.6052   20.5819 C   0  0  0  0  0  0  0  0  0  0  0  0
  -22.0743   -8.2795   22.0532 C   0  0  0  0  0  0  0  0  0  0  0  0
  -22.9231   -9.0740   19.9353 C   0  0  0  0  0  0  0  0  0  0  0  0
  -26.0445  -15.6116   21.1170 C   0  0  0  0  0  0  0  0  0  0  0  0
  -25.8365  -22.1055   26.3118 C   0  0  0  0  0  0  0  0  0  0  0  0
  -26.2947  -22.0429   25.0142 C   0  0  0  0  0  0  0  0  0  0  0  0
  -24.1710  -22.4060   24.2469 C   0  0  0  0  0  0  0  0  0  1  0  0
  -26.4308  -17.5017   22.1723 C   0  0  0  0  0  0  0  0  0  0  0  0
  -26.1226  -15.5370   23.6867 C   0  0  0  0  0  0  0  0  0  0  0  0
  -27.2965  -26.3660   19.4438 C   0  0  0  0  0  0  0  0  0  0  0  0
  -25.8959  -29.0117   20.6931 C   0  0  0  0  0  0  0  0  0  0  0  0
  -23.4878  -30.3327   22.7186 C   0  0  0  0  0  0  0  0  0  0  0  0
  -29.0964  -21.5138   19.3495 C   0  0  0  0  0  0  0  0  0  0  0  0
  -31.9922  -26.2779   16.8345 C   0  0  0  0  0  0  0  0  0  0  0  0
  -24.8665  -25.9429   18.9222 C   0  0  0  0  0  0  0  0  0  0  0  0
  -25.2541  -26.8010   21.7255 C   0  0  0  0  0  0  0  0  0  0  0  0
  -31.7889  -26.4433   18.3370 C   0  0  0  0  0  0  0  0  0  0  0  0
  -26.0399  -20.2505   17.9512 C   0  0  0  0  0  0  0  0  0  0  0  0
  -30.3601  -26.8804   18.6232 C   0  0  0  0  0  0  0  0  0  0  0  0
  -25.7973  -18.9609   18.7356 C   0  0  0  0  0  0  0  0  0  0  0  0
  -27.5279  -20.4891   17.7129 C   0  0  0  0  0  0  0  0  0  0  0  0
  -28.1082  -19.1982   19.7467 C   0  0  0  0  0  0  0  0  0  0  0  0
  -31.0195  -21.9017   20.8708 C   0  0  0  0  0  0  0  0  0  0  0  0
  -29.3603  -25.8079   18.1726 C   0  0  1  0  0  0  0  0  0  0  0  0
  -25.9270  -26.9692   19.3086 C   0  0  1  0  0  0  0  0  0  0  0  0
  -26.6195  -18.9408   20.0368 C   0  0  2  0  0  0  0  0  0  0  0  0
  -29.7936  -22.3356   21.5790 C   0  0  2  0  0  0  0  0  0  0  0  0
  -26.7589  -21.9388   27.4707 C   0  0  0  0  0  0  0  0  0  0  0  0
  -22.6146  -32.5263   23.5689 C   0  0  0  0  0  0  0  0  0  0  0  0
  -28.2679  -29.2134   22.6017 C   0  0  0  0  0  0  0  0  0  0  0  0
  -26.9164  -30.7865   24.0042 C   0  0  0  0  0  0  0  0  0  0  0  0
  -27.5001  -31.3981   21.6573 C   0  0  0  0  0  0  0  0  0  0  0  0
  -20.8270  -29.8757   21.5060 C   0  0  0  0  0  0  0  0  0  0  0  0
  -27.7341  -21.8056   24.7088 C   0  0  0  0  0  0  0  0  0  0  0  0
  -29.5425  -21.9422   22.9913 C   0  0  0  0  0  0  0  0  0  0  0  0
  -25.7702  -29.6027   22.0765 C   0  0  1  0  0  0  0  0  0  0  0  0
  -22.4894  -31.4546   22.4972 C   0  0  2  0  0  0  0  0  0  0  0  0
  -27.1039  -30.2241   22.5789 C   0  0  0  0  0  0  0  0  0  0  0  0
  -24.5373  -22.3195   26.6004 N   0  0  0  0  0  0  0  0  0  0  0  0
  -26.1766  -16.5171   20.1440 N   0  0  0  0  0  0  0  0  0  0  0  0
  -25.4703  -22.1920   23.9584 N   0  0  0  0  0  0  0  0  0  0  0  0
  -26.4106  -17.6564   20.8173 N   0  0  0  0  0  0  0  0  0  0  0  0
  -25.6290  -27.6403   20.5755 N   0  0  0  0  0  0  0  0  0  0  0  0
  -28.2751  -20.4348   18.9693 N   0  0  0  0  0  0  0  0  0  0  0  0
  -29.7411  -21.3213   20.5704 N   0  0  0  0  0  0  0  0  0  0  0  0
  -26.6529  -18.5450   22.9996 N   0  0  0  0  0  0  0  0  0  0  0  0
  -25.8706  -14.1594   23.7414 N   0  0  0  0  0  0  0  0  0  0  0  0
  -28.0198  -26.3428   18.2667 N   0  0  0  0  0  0  0  0  0  0  0  0
  -24.6569  -30.5438   22.0187 N   0  0  0  0  0  0  0  0  0  0  0  0
  -21.0977  -30.9224   22.5250 N   0  3  0  0  0  0  0  0  0  0  0  0
  -28.0995  -22.1186   23.2992 N   0  3  0  0  0  0  0  0  0  0  0  0
  -26.2622  -16.1785   24.7556 O   0  0  0  0  0  0  0  0  0  0  0  0
  -27.6698  -25.9535   20.5357 O   0  0  0  0  0  0  0  0  0  0  0  0
  -26.2120  -29.7415   19.7501 O   0  0  0  0  0  0  0  0  0  0  0  0
  -23.2553  -29.3675   23.4432 O   0  0  0  0  0  0  0  0  0  0  0  0
  -29.2313  -22.5351   18.6701 O   0  0  0  0  0  0  0  0  0  0  0  0
  -25.0157  -10.2628   19.8529 O   0  0  0  0  0  0  0  0  0  0  0  0
  -23.2924  -22.5642   23.1882 O   0  0  0  0  0  0  0  0  0  1  0  0
  -21.1317   -7.6418   22.7596 F   0  0  0  0  0  0  0  0  0  0  0  0
  -22.7898   -9.1964   18.6075 F   0  0  0  0  0  0  0  0  0  0  0  0
  1  2  1  0  0  0  0
  1  5  2  0  0  0  0
  2  6  2  0  0  0  0
  3  8  2  0  0  0  0
  3 16  1  0  0  0  0
  4  9  1  0  0  0  0
  4 16  2  0  0  0  0
  5 18  1  0  0  0  0
  6 20  1  0  0  0  0
  7 10  2  0  0  0  0
  7 19  1  0  0  0  0
  8 22  1  0  0  0  0
  9 22  2  0  0  0  0
 10 23  1  0  0  0  0
 11 12  2  0  0  0  0
 11 24  1  0  0  0  0
 12 25  1  0  0  0  0
 13 21  1  0  0  0  0
 13 23  2  0  0  0  0
 14 25  2  0  0  0  0
 14 26  1  0  0  0  0
 15 30  1  0  0  0  0
 15 62  2  0  0  0  0
 16 27  1  0  0  0  0
 17 27  1  0  0  0  0
 17 31  2  0  0  0  0
 17 32  1  0  0  0  0
 18 20  2  0  0  0  0
 18 37  1  0  0  0  0
 19 21  2  0  0  0  0
 19 38  1  0  0  0  0
 20 47  1  0  0  0  0
 21 39  1  0  0  0  0
 22 80  1  0  0  0  0
 23 81  1  0  0  0  0
 24 26  2  0  0  0  0
 24 80  1  0  0  0  0
 25 82  1  0  0  0  0
 26 83  1  0  0  0  0
 27 63  2  0  0  0  0
 28 29  2  0  0  0  0
 28 51  1  0  0  0  0
 28 62  1  0  0  0  0
 29 57  1  0  0  0  0
 29 64  1  0  0  0  0
 30 64  2  0  0  0  0
 30 81  1  0  0  0  0
 31 65  1  0  0  0  0
 31 69  1  0  0  0  0
 32 70  1  0  0  0  0
 32 75  2  0  0  0  0
 33 48  1  0  0  0  0
 33 71  1  0  0  0  0
 33 76  2  0  0  0  0
 34 59  1  0  0  0  0
 34 66  1  0  0  0  0
 34 77  2  0  0  0  0
 35 60  1  0  0  0  0
 35 72  1  0  0  0  0
 35 78  2  0  0  0  0
 36 67  1  0  0  0  0
 36 68  1  0  0  0  0
 36 79  2  0  0  0  0
 37 40  1  0  0  0  0
 38 48  1  0  0  0  0
 39 66  1  0  0  0  0
 40 42  1  0  0  0  0
 41 43  1  0  0  0  0
 41 44  1  0  0  0  0
 42 47  1  0  0  0  0
 43 49  1  0  0  0  0
 44 67  1  0  0  0  0
 45 49  1  0  0  0  0
 45 67  1  0  0  0  0
 46 50  1  0  0  0  0
 46 68  1  0  0  0  0
 47 71  1  0  0  0  0
 48 66  1  0  0  0  0
 49 65  1  0  0  0  0
 50 58  1  0  0  0  0
 50 68  1  0  0  0  0
 52 60  1  0  0  0  0
 53 61  1  0  0  0  0
 54 61  1  0  0  0  0
 55 61  1  0  0  0  0
 56 73  1  0  0  0  0
 57 74  1  0  0  0  0
 58 74  1  0  0  0  0
 59 61  1  0  0  0  0
 59 72  1  0  0  0  0
 60 73  1  0  0  0  0
 63 65  1  0  0  0  0
M  CHG  2  73   1  74   1
M  ISO  4  30 101  36 100  68 100  81 101
M  END
> <Batch ID>
0185

> <Smiles>
CNC(C)C(=O)NC(C(=O)N1Cc2cc([101O:1][101c:1]3cnc(C)c(CNCC4C[100N:0]4[100C:0](=O)N4CCCC(n5nc(-c6ccc(Oc7ccc(F)cc7F)cc6)c(C(N)=O)c5N)C4)n3)ccc2CC1C(=O)NC1CCCc2ccccc21)C(C)(C)C

> <Shape>
0.221

> <Color>
0.068

> <Negative vol penalty>
0.000

$$$$

  -OEChem-04052323123D

 84 92  0     1  0  0  0  0  0999 V2000
  -29.0924  -11.6736   20.7422 C   0  0  0  0  0  0  0  0  0  0  0  0
  -29.2082  -12.8777   20.0551 C   0  0  0  0  0  0  0  0  0  0  0  0
  -20.3989  -27.4960   21.6320 C   0  0  0  0  0  0  0  0  0  0  0  0
  -20.3232  -29.0158   23.5086 C   0  0  0  0  0  0  0  0  0  0  0  0
  -27.8327  -11.1944   21.0992 C   0  0  0  0  0  0  0  0  0  0  0  0
  -28.0642  -13.6029   19.7238 C   0  0  0  0  0  0  0  0  0  0  0  0
  -28.5547  -18.5509   20.6836 C   0  0  0  0  0  0  0  0  0  0  0  0
  -19.0471  -27.2040   21.8139 C   0  0  0  0  0  0  0  0  0  0  0  0
  -18.9714  -28.7239   23.6905 C   0  0  0  0  0  0  0  0  0  0  0  0
  -29.2894  -19.3068   19.7711 C   0  0  0  0  0  0  0  0  0  0  0  0
  -15.4114  -28.6517   24.4250 C   0  0  0  0  0  0  0  0  0  0  0  0
  -14.5416  -29.7184   24.6510 C   0  0  0  0  0  0  0  0  0  0  0  0
  -27.2363  -20.0817   18.7693 C   0  0  0  0  0  0  0  0  0  0  0  0
  -15.1519  -30.6687   22.5152 C   0  0  0  0  0  0  0  0  0  0  0  0
  -21.0370  -28.4019   22.4793 C   0  0  0  0  0  0  0  0  0  0  0  0
  -22.9833  -29.7214   21.4903 C   0  0  0  0  0  0  0  0  0  0  0  0
  -26.6733  -11.9188   20.7806 C   0  0  0  0  0  0  0  0  0  0  0  0
  -27.1531  -18.5462   20.6388 C   0  0  0  0  0  0  0  0  0  0  0  0
  -26.7877  -13.1323   20.0757 C   0  0  0  0  0  0  0  0  0  0  0  0
  -26.4861  -19.3270   19.6840 C   0  0  0  0  0  0  0  0  0  0  0  0
  -18.3334  -27.8180   22.8431 C   0  0  0  0  0  0  0  0  0  0  0  0
  -28.6303  -20.0700   18.8119 C   0  0  0  0  0  0  0  0  0  0  0  0
  -16.1516  -28.5935   23.2441 C   0  0  0  0  0  0  0  0  0  0  0  0
  -14.4117  -30.7268   23.6961 C   0  0  0  0  0  0  0  0  0  0  0  0
  -16.0218  -29.6020   22.2892 C   0  0  0  0  0  0  0  0  0  0  0  0
  -22.4334  -28.7034   22.2923 C   0  0  0  0  0  0  0  0  0  0  0  0
  -24.3409  -29.5905   21.6521 C   0  0  0  0  0  0  0  0  0  0  0  0
  -31.1104  -27.3355   17.8632 C   0  0  0  0  0  0  0  0  0  0  0  0
  -31.1723  -25.1926   18.5272 C   0  0  0  0  0  0  0  0  0  0  0  0
  -30.0040  -26.7005   19.7097 C   0  0  0  0  0  0  0  0  0  0  0  0
  -22.3256  -30.6981   20.6722 C   0  0  0  0  0  0  0  0  0  0  0  0
  -24.9321  -16.3268   20.1443 C   0  0  0  0  0  0  0  0  0  0  0  0
  -22.9041  -18.7456   20.8922 C   0  0  0  0  0  0  0  0  0  0  0  0
  -22.3458  -22.1076   21.0709 C   0  0  0  0  0  0  0  0  0  0  0  0
  -28.7636  -26.0377   21.7633 C   0  0  0  0  0  0  0  0  0  0  0  0
  -25.3305  -11.3372   21.1459 C   0  0  0  0  0  0  0  0  0  0  0  0
  -26.3747  -17.7465   21.6473 C   0  0  0  0  0  0  0  0  0  0  0  0
  -24.9827  -19.3722   19.6067 C   0  0  0  0  0  0  0  0  0  0  0  0
  -24.1910  -12.3513   21.0867 C   0  0  0  0  0  0  0  0  0  0  0  0
  -27.0344  -26.8423   24.9212 C   0  0  0  0  0  0  0  0  0  0  0  0
  -24.2644  -13.1620   19.7967 C   0  0  0  0  0  0  0  0  0  0  0  0
  -25.7033  -27.4198   24.4429 C   0  0  0  0  0  0  0  0  0  0  0  0
  -27.5952  -25.8203   23.9368 C   0  0  0  0  0  0  0  0  0  0  0  0
  -26.3994  -26.9167   22.0665 C   0  0  0  0  0  0  0  0  0  0  0  0
  -25.5717  -13.9599   19.7202 C   0  0  1  0  0  0  0  0  0  0  0  0
  -24.9606  -17.4128   21.1823 C   0  0  1  0  0  0  0  0  0  0  0  0
  -25.8298  -27.9813   23.0162 C   0  0  1  0  0  0  0  0  0  0  0  0
  -31.5095  -28.4005   16.8992 C   0  0  0  0  0  0  0  0  0  0  0  0
  -20.5795  -23.7812   21.6846 C   0  0  0  0  0  0  0  0  0  0  0  0
  -31.0569  -21.3067   15.5596 C   0  0  0  0  0  0  0  0  0  0  0  0
  -21.4549  -18.1745   18.2686 C   0  0  0  0  0  0  0  0  0  0  0  0
  -20.3482  -20.4109   18.4738 C   0  0  0  0  0  0  0  0  0  0  0  0
  -19.9510  -18.6610   20.2066 C   0  0  0  0  0  0  0  0  0  0  0  0
  -28.9149  -28.4379   21.1421 C   0  0  0  0  0  0  0  0  0  0  0  0
  -24.0258  -23.2685   23.2130 C   0  0  0  0  0  0  0  0  0  0  0  0
  -31.6479  -23.7834   18.3299 C   0  0  0  0  0  0  0  0  0  0  0  0
  -30.7985  -20.7627   18.0137 C   0  0  0  0  0  0  0  0  0  1  0  0
  -22.1935  -19.8248   20.1117 C   0  0  1  0  0  0  0  0  0  0  0  0
  -21.7724  -22.9761   22.1761 C   0  0  2  0  0  0  0  0  0  0  0  0
  -31.4288  -21.6918   16.9823 C   0  0  2  0  0  0  0  0  0  0  0  0
  -21.0153  -19.2656   19.2651 C   0  0  0  0  0  0  0  0  0  0  0  0
  -23.3656  -27.9791   22.9171 N   0  0  0  0  0  0  0  0  0  0  0  0
  -31.5730  -26.0983   17.6205 N   0  0  0  0  0  0  0  0  0  0  0  0
  -30.3237  -27.7106   18.8848 N   0  0  0  0  0  0  0  0  0  0  0  0
  -30.3901  -25.4196   19.5947 N   0  0  0  0  0  0  0  0  0  0  0  0
  -24.5149  -28.5426   22.5076 N   0  0  0  0  0  0  0  0  0  0  0  0
  -24.2662  -18.5682   20.6106 N   0  0  0  0  0  0  0  0  0  0  0  0
  -27.6624  -26.3643   22.5799 N   0  0  0  0  0  0  0  0  0  0  0  0
  -25.3908  -30.2705   21.1446 N   0  0  0  0  0  0  0  0  0  0  0  0
  -20.9251  -30.6919   20.6198 N   0  0  0  0  0  0  0  0  0  0  0  0
  -25.4960  -15.1358   20.5604 N   0  0  0  0  0  0  0  0  0  0  0  0
  -21.8020  -20.8405   21.0831 N   0  0  0  0  0  0  0  0  0  0  0  0
  -29.1594  -27.0248   20.8349 N   0  0  0  0  0  0  0  0  0  0  0  0
  -22.8058  -23.9256   22.6776 N   0  3  0  0  0  0  0  0  0  0  0  0
  -30.9387  -23.0783   17.2320 N   0  3  0  0  0  0  0  0  0  0  0  0
  -22.9616  -31.5406   19.9945 O   0  0  0  0  0  0  0  0  0  0  0  0
  -24.4339  -16.5521   19.0476 O   0  0  0  0  0  0  0  0  0  0  0  0
  -22.2757  -18.0890   21.7263 O   0  0  0  0  0  0  0  0  0  0  0  0
  -23.1887  -22.5138   20.2741 O   0  0  0  0  0  0  0  0  0  0  0  0
  -29.3632  -24.9618   21.8761 O   0  0  0  0  0  0  0  0  0  0  0  0
  -17.0143  -27.5335   23.0208 O   0  0  0  0  0  0  0  0  0  0  0  0
  -29.3449  -20.8082   17.9196 O   0  0  0  0  0  0  0  0  0  1  0  0
  -13.5752  -31.7503   23.9126 F   0  0  0  0  0  0  0  0  0  0  0  0
  -16.7294  -29.5509   21.1523 F   0  0  0  0  0  0  0  0  0  0  0  0
  1  2  1  0  0  0  0
  1  5  2  0  0  0  0
  2  6  2  0  0  0  0
  3  8  2  0  0  0  0
  3 15  1  0  0  0  0
  4  9  1  0  0  0  0
  4 15  2  0  0  0  0
  5 17  1  0  0  0  0
  6 19  1  0  0  0  0
  7 10  2  0  0  0  0
  7 18  1  0  0  0  0
  8 21  1  0  0  0  0
  9 21  2  0  0  0  0
 10 22  1  0  0  0  0
 11 12  2  0  0  0  0
 11 23  1  0  0  0  0
 12 24  1  0  0  0  0
 13 20  1  0  0  0  0
 13 22  2  0  0  0  0
 14 24  2  0  0  0  0
 14 25  1  0  0  0  0
 15 26  1  0  0  0  0
 16 26  1  0  0  0  0
 16 27  2  0  0  0  0
 16 31  1  0  0  0  0
 17 19  2  0  0  0  0
 17 36  1  0  0  0  0
 18 20  2  0  0  0  0
 18 37  1  0  0  0  0
 19 45  1  0  0  0  0
 20 38  1  0  0  0  0
 21 81  1  0  0  0  0
 22 82  1  0  0  0  0
 23 25  2  0  0  0  0
 23 81  1  0  0  0  0
 24 83  1  0  0  0  0
 25 84  1  0  0  0  0
 26 62  2  0  0  0  0
 27 66  1  0  0  0  0
 27 69  1  0  0  0  0
 28 48  1  0  0  0  0
 28 63  2  0  0  0  0
 28 64  1  0  0  0  0
 29 56  1  0  0  0  0
 29 63  1  0  0  0  0
 29 65  2  0  0  0  0
 30 64  2  0  0  0  0
 30 65  1  0  0  0  0
 30 73  1  0  0  0  0
 31 70  1  0  0  0  0
 31 76  2  0  0  0  0
 32 46  1  0  0  0  0
 32 71  1  0  0  0  0
 32 77  2  0  0  0  0
 33 58  1  0  0  0  0
 33 67  1  0  0  0  0
 33 78  2  0  0  0  0
 34 59  1  0  0  0  0
 34 72  1  0  0  0  0
 34 79  2  0  0  0  0
 35 68  1  0  0  0  0
 35 73  1  0  0  0  0
 35 80  2  0  0  0  0
 36 39  1  0  0  0  0
 37 46  1  0  0  0  0
 38 67  1  0  0  0  0
 39 41  1  0  0  0  0
 40 42  1  0  0  0  0
 40 43  1  0  0  0  0
 41 45  1  0  0  0  0
 42 47  1  0  0  0  0
 43 68  1  0  0  0  0
 44 47  1  0  0  0  0
 44 68  1  0  0  0  0
 45 71  1  0  0  0  0
 46 67  1  0  0  0  0
 47 66  1  0  0  0  0
 49 59  1  0  0  0  0
 50 60  1  0  0  0  0
 51 61  1  0  0  0  0
 52 61  1  0  0  0  0
 53 61  1  0  0  0  0
 54 73  1  0  0  0  0
 55 74  1  0  0  0  0
 56 75  1  0  0  0  0
 57 60  1  0  0  0  0
 57 82  1  0  0  0  0
 58 61  1  0  0  0  0
 58 72  1  0  0  0  0
 59 74  1  0  0  0  0
 60 75  1  0  0  0  0
 62 66  1  0  0  0  0
M  CHG  2  74   1  75   1
M  ISO  4  35 100  57 101  73 100  82 101
M  END
> <Batch ID>
0185

> <Smiles>
CNC(C)C(=O)NC(C(=O)N1Cc2cc([101O:1][101CH2:1]C(C)NCc3nc(C)nc([100N:0](C)[100C:0](=O)N4CCCC(n5nc(-c6ccc(Oc7ccc(F)cc7F)cc6)c(C(N)=O)c5N)C4)n3)ccc2CC1C(=O)NC1CCCc2ccccc21)C(C)(C)C

> <Shape>
0.243

> <Color>
0.075

> <Negative vol penalty>
0.000

$$$$

  -OEChem-04052323123D

 79 88  0     1  0  0  0  0  0999 V2000
  -22.6339  -29.6209   21.2986 C   0  0  0  0  0  0  0  0  0  0  0  0
  -22.4740  -28.3507   20.7542 C   0  0  0  0  0  0  0  0  0  0  0  0
  -24.1283  -15.1720   23.0539 C   0  0  0  0  0  0  0  0  0  0  0  0
  -23.2648  -15.6725   20.8537 C   0  0  0  0  0  0  0  0  0  0  0  0
  -23.8888  -30.2285   21.2910 C   0  0  0  0  0  0  0  0  0  0  0  0
  -23.5689  -27.6877   20.2008 C   0  0  0  0  0  0  0  0  0  0  0  0
  -26.2465  -21.1020   19.3206 C   0  0  0  0  0  0  0  0  0  0  0  0
  -23.4576  -16.2810   23.5695 C   0  0  0  0  0  0  0  0  0  0  0  0
  -22.5940  -16.7815   21.3692 C   0  0  0  0  0  0  0  0  0  0  0  0
  -26.7340  -20.2624   18.3200 C   0  0  0  0  0  0  0  0  0  0  0  0
  -19.7614  -17.3903   23.1088 C   0  0  0  0  0  0  0  0  0  0  0  0
  -18.4381  -17.5868   22.7139 C   0  0  0  0  0  0  0  0  0  0  0  0
  -29.3019  -16.8444   13.5404 C   0  0  0  0  0  0  0  0  0  0  0  0
  -28.6721  -18.0161   14.0681 C   0  0  0  0  0  0  0  0  0  0  0  0
  -28.8703  -21.3771   18.4338 C   0  0  0  0  0  0  0  0  0  0  0  0
  -19.0362  -19.7319   21.7769 C   0  0  0  0  0  0  0  0  0  0  0  0
  -24.0319  -14.8677   21.6960 C   0  0  0  0  0  0  0  0  0  0  0  0
  -24.2358  -12.4069   21.0552 C   0  0  0  0  0  0  0  0  0  0  0  0
  -25.0015  -29.5687   20.7459 C   0  0  0  0  0  0  0  0  0  0  0  0
  -27.0653  -22.0943   19.8786 C   0  0  0  0  0  0  0  0  0  0  0  0
  -24.8395  -28.2876   20.1846 C   0  0  0  0  0  0  0  0  0  0  0  0
  -28.3916  -22.2263   19.4431 C   0  0  0  0  0  0  0  0  0  0  0  0
  -22.6904  -17.0857   22.7272 C   0  0  0  0  0  0  0  0  0  0  0  0
  -28.0452  -20.4017   17.8745 C   0  0  0  0  0  0  0  0  0  0  0  0
  -20.7221  -18.3647   22.8379 C   0  0  0  0  0  0  0  0  0  0  0  0
  -18.0755  -18.7575   22.0479 C   0  0  0  0  0  0  0  0  0  0  0  0
  -20.3595  -19.5354   22.1719 C   0  0  0  0  0  0  0  0  0  0  0  0
  -24.7250  -13.7226   21.1627 C   0  0  0  0  0  0  0  0  0  0  0  0
  -29.2891  -15.9205   14.5515 C   0  0  0  0  0  0  0  0  0  0  0  0
  -28.2986  -17.7599   15.3790 C   0  0  0  0  0  0  0  0  0  0  0  0
  -25.2691  -11.7017   20.4883 C   0  0  0  0  0  0  0  0  0  0  0  0
  -22.9613  -11.8704   21.4338 C   0  0  0  0  0  0  0  0  0  0  0  0
  -26.9629  -25.2681   20.0219 C   0  0  0  0  0  0  0  0  0  0  0  0
  -29.5408  -24.8752   21.9513 C   0  0  0  0  0  0  0  0  0  0  0  0
  -32.1780  -22.9292   22.9025 C   0  0  0  0  0  0  0  0  0  0  0  0
  -29.8899  -13.3858   17.0550 C   0  0  0  0  0  0  0  0  0  0  0  0
  -26.3284  -30.2851   20.7178 C   0  0  0  0  0  0  0  0  0  0  0  0
  -26.5327  -22.9745   20.9759 C   0  0  0  0  0  0  0  0  0  0  0  0
  -29.3176  -23.2625   20.0239 C   0  0  0  0  0  0  0  0  0  0  0  0
  -29.7138  -14.5389   14.8473 C   0  0  0  0  0  0  0  0  0  0  0  0
  -27.5138  -29.3614   20.4497 C   0  0  0  0  0  0  0  0  0  0  0  0
  -30.0203  -11.6264   20.1310 C   0  0  0  0  0  0  0  0  0  0  0  0
  -27.2090  -28.4266   19.2834 C   0  0  0  0  0  0  0  0  0  0  0  0
  -28.6527  -11.8714   20.7615 C   0  0  0  0  0  0  0  0  0  0  0  0
  -30.5032  -12.8654   19.3897 C   0  0  0  0  0  0  0  0  0  0  0  0
  -28.1666  -13.5560   18.9116 C   0  0  0  0  0  0  0  0  0  0  0  0
  -28.6060  -15.5943   16.7461 C   0  0  0  0  0  0  0  0  0  0  0  0
  -26.0081  -27.5262   19.5974 C   0  0  1  0  0  0  0  0  0  0  0  0
  -27.2958  -24.2884   21.1114 C   0  0  1  0  0  0  0  0  0  0  0  0
  -27.6448  -12.3371   19.6998 C   0  0  2  0  0  0  0  0  0  0  0  0
  -34.1307  -22.8910   24.4781 C   0  0  0  0  0  0  0  0  0  0  0  0
  -31.0345  -26.8274   20.1435 C   0  0  0  0  0  0  0  0  0  0  0  0
  -33.1752  -26.0287   21.1670 C   0  0  0  0  0  0  0  0  0  0  0  0
  -31.4536  -27.1408   22.5890 C   0  0  0  0  0  0  0  0  0  0  0  0
  -31.1673  -20.5130   24.2807 C   0  0  0  0  0  0  0  0  0  0  0  0
  -27.6188  -18.6044   16.3765 C   0  0  0  0  0  0  0  0  0  1  0  0
  -31.0333  -24.7972   21.7387 C   0  0  1  0  0  0  0  0  0  0  0  0
  -32.6741  -22.5050   24.2730 C   0  0  2  0  0  0  0  0  0  0  0  0
  -31.6564  -26.1802   21.3971 C   0  0  0  0  0  0  0  0  0  0  0  0
  -25.9722  -13.8483   20.7013 N   0  0  0  0  0  0  0  0  0  0  0  0
  -28.6873  -16.4965   15.6300 N   0  0  0  0  0  0  0  0  0  0  0  0
  -26.2754  -12.6026   20.2985 N   0  0  0  0  0  0  0  0  0  0  0  0
  -28.7482  -24.1033   21.0900 N   0  0  0  0  0  0  0  0  0  0  0  0
  -29.3237  -14.3919   16.2708 N   0  0  0  0  0  0  0  0  0  0  0  0
  -29.5254  -13.3300   18.4045 N   0  0  0  0  0  0  0  0  0  0  0  0
  -25.4061  -10.4049   20.1388 N   0  0  0  0  0  0  0  0  0  0  0  0
  -22.0151  -12.7339   22.0024 N   0  0  0  0  0  0  0  0  0  0  0  0
  -26.4023  -26.4463   20.4767 N   0  0  0  0  0  0  0  0  0  0  0  0
  -31.5843  -24.1732   22.9367 N   0  0  0  0  0  0  0  0  0  0  0  0
  -32.5521  -21.0284   24.4339 N   0  3  0  0  0  0  0  0  0  0  0  0
  -22.6761  -10.6576   21.2878 O   0  0  0  0  0  0  0  0  0  0  0  0
  -27.1987  -24.9771   18.8550 O   0  0  0  0  0  0  0  0  0  0  0  0
  -29.0949  -25.5891   22.8531 O   0  0  0  0  0  0  0  0  0  0  0  0
  -32.3077  -22.2287   21.9009 O   0  0  0  0  0  0  0  0  0  0  0  0
  -30.7229  -12.6015   16.5819 O   0  0  0  0  0  0  0  0  0  0  0  0
  -22.0356  -18.1678   23.2299 O   0  0  0  0  0  0  0  0  0  0  0  0
  -28.5256  -19.5799   16.8927 O   0  0  0  0  0  0  0  0  0  1  0  0
  -16.8051  -18.9453   21.6674 F   0  0  0  0  0  0  0  0  0  0  0  0
  -21.2782  -20.4746   21.9078 F   0  0  0  0  0  0  0  0  0  0  0  0
  1  2  1  0  0  0  0
  1  5  2  0  0  0  0
  2  6  2  0  0  0  0
  3  8  2  0  0  0  0
  3 17  1  0  0  0  0
  4  9  1  0  0  0  0
  4 17  2  0  0  0  0
  5 19  1  0  0  0  0
  6 21  1  0  0  0  0
  7 10  2  0  0  0  0
  7 20  1  0  0  0  0
  8 23  1  0  0  0  0
  9 23  2  0  0  0  0
 10 24  1  0  0  0  0
 11 12  2  0  0  0  0
 11 25  1  0  0  0  0
 12 26  1  0  0  0  0
 13 14  1  0  0  0  0
 13 29  2  0  0  0  0
 14 30  2  0  0  0  0
 15 22  1  0  0  0  0
 15 24  2  0  0  0  0
 16 26  2  0  0  0  0
 16 27  1  0  0  0  0
 17 28  1  0  0  0  0
 18 28  1  0  0  0  0
 18 31  2  0  0  0  0
 18 32  1  0  0  0  0
 19 21  2  0  0  0  0
 19 37  1  0  0  0  0
 20 22  2  0  0  0  0
 20 38  1  0  0  0  0
 21 48  1  0  0  0  0
 22 39  1  0  0  0  0
 23 76  1  0  0  0  0
 24 77  1  0  0  0  0
 25 27  2  0  0  0  0
 25 76  1  0  0  0  0
 26 78  1  0  0  0  0
 27 79  1  0  0  0  0
 28 60  2  0  0  0  0
 29 40  1  0  0  0  0
 29 61  1  0  0  0  0
 30 56  1  0  0  0  0
 30 61  1  0  0  0  0
 31 62  1  0  0  0  0
 31 66  1  0  0  0  0
 32 67  1  0  0  0  0
 32 71  2  0  0  0  0
 33 49  1  0  0  0  0
 33 68  1  0  0  0  0
 33 72  2  0  0  0  0
 34 57  1  0  0  0  0
 34 63  1  0  0  0  0
 34 73  2  0  0  0  0
 35 58  1  0  0  0  0
 35 69  1  0  0  0  0
 35 74  2  0  0  0  0
 36 64  1  0  0  0  0
 36 65  1  0  0  0  0
 36 75  2  0  0  0  0
 37 41  1  0  0  0  0
 38 49  1  0  0  0  0
 39 63  1  0  0  0  0
 40 64  1  0  0  0  0
 41 43  1  0  0  0  0
 42 44  1  0  0  0  0
 42 45  1  0  0  0  0
 43 48  1  0  0  0  0
 44 50  1  0  0  0  0
 45 65  1  0  0  0  0
 46 50  1  0  0  0  0
 46 65  1  0  0  0  0
 47 61  1  0  0  0  0
 47 64  1  0  0  0  0
 48 68  1  0  0  0  0
 49 63  1  0  0  0  0
 50 62  1  0  0  0  0
 51 58  1  0  0  0  0
 52 59  1  0  0  0  0
 53 59  1  0  0  0  0
 54 59  1  0  0  0  0
 55 70  1  0  0  0  0
 56 77  1  0  0  0  0
 57 59  1  0  0  0  0
 57 69  1  0  0  0  0
 58 70  1  0  0  0  0
 60 62  1  0  0  0  0
M  CHG  1  70   1
M  ISO  4  36 100  56 101  64 100  77 101
M  END
> <Batch ID>
0185

> <Smiles>
CNC(C)C(=O)NC(C(=O)N1Cc2cc([101O:1][101CH2:1]c3ccc4n3C[100N:0]([100C:0](=O)N3CCCC(n5nc(-c6ccc(Oc7ccc(F)cc7F)cc6)c(C(N)=O)c5N)C3)C4)ccc2CC1C(=O)NC1CCCc2ccccc21)C(C)(C)C

> <Shape>
0.190

> <Color>
0.078

> <Negative vol penalty>
0.000

$$$$

  -OEChem-04052323123D

 84 93  0     1  0  0  0  0  0999 V2000
  -36.8259  -15.6774   24.3902 C   0  0  0  0  0  0  0  0  0  0  0  0
  -36.0458  -16.3419   23.4494 C   0  0  0  0  0  0  0  0  0  0  0  0
  -19.9229  -27.0610   21.7756 C   0  0  0  0  0  0  0  0  0  0  0  0
  -19.5283  -28.6613   23.5420 C   0  0  0  0  0  0  0  0  0  0  0  0
  -36.5805  -14.3346   24.6743 C   0  0  0  0  0  0  0  0  0  0  0  0
  -35.0203  -15.6638   22.7913 C   0  0  0  0  0  0  0  0  0  0  0  0
  -30.7440  -18.3659   22.5537 C   0  0  0  0  0  0  0  0  0  0  0  0
  -18.8677  -26.2802   22.2472 C   0  0  0  0  0  0  0  0  0  0  0  0
  -18.4730  -27.8806   24.0136 C   0  0  0  0  0  0  0  0  0  0  0  0
  -30.6815  -19.3760   21.5948 C   0  0  0  0  0  0  0  0  0  0  0  0
  -15.4902  -26.2991   22.0884 C   0  0  0  0  0  0  0  0  0  0  0  0
  -14.5882  -25.7943   21.1518 C   0  0  0  0  0  0  0  0  0  0  0  0
  -29.4060  -17.9212   20.1541 C   0  0  0  0  0  0  0  0  0  0  0  0
  -15.1421  -23.5431   21.8316 C   0  0  0  0  0  0  0  0  0  0  0  0
  -31.1100  -22.1918   17.4824 C   0  0  0  0  0  0  0  0  0  0  0  0
  -20.2533  -28.2516   22.4230 C   0  0  0  0  0  0  0  0  0  0  0  0
  -21.2767  -30.0930   20.9845 C   0  0  0  0  0  0  0  0  0  0  0  0
  -35.5453  -13.6423   24.0265 C   0  0  0  0  0  0  0  0  0  0  0  0
  -30.1462  -17.1200   22.3151 C   0  0  0  0  0  0  0  0  0  0  0  0
  -34.7617  -14.3102   23.0661 C   0  0  0  0  0  0  0  0  0  0  0  0
  -29.4601  -16.8978   21.1127 C   0  0  0  0  0  0  0  0  0  0  0  0
  -18.1427  -26.6900   23.3662 C   0  0  0  0  0  0  0  0  0  0  0  0
  -30.0150  -19.1528   20.3936 C   0  0  0  0  0  0  0  0  0  0  0  0
  -16.2182  -25.4258   22.8966 C   0  0  0  0  0  0  0  0  0  0  0  0
  -14.4141  -24.4164   21.0234 C   0  0  0  0  0  0  0  0  0  0  0  0
  -16.0442  -24.0478   22.7682 C   0  0  0  0  0  0  0  0  0  0  0  0
  -21.3436  -29.0582   21.9366 C   0  0  0  0  0  0  0  0  0  0  0  0
  -30.8591  -23.1304   16.5023 C   0  0  0  0  0  0  0  0  0  0  0  0
  -30.3893  -22.3404   18.6498 C   0  0  0  0  0  0  0  0  0  0  0  0
  -22.5708  -30.5390   20.8706 C   0  0  0  0  0  0  0  0  0  0  0  0
  -29.3350  -24.1773   17.8246 C   0  0  0  0  0  0  0  0  0  0  0  0
  -20.1459  -30.6053   20.2672 C   0  0  0  0  0  0  0  0  0  0  0  0
  -31.2053  -14.1323   22.0794 C   0  0  0  0  0  0  0  0  0  0  0  0
  -28.0413  -13.4370   21.9119 C   0  0  0  0  0  0  0  0  0  0  0  0
  -24.8796  -14.4867   21.1714 C   0  0  0  0  0  0  0  0  0  0  0  0
  -27.7814  -27.6577   22.1176 C   0  0  0  0  0  0  0  0  0  0  0  0
  -35.3484  -12.1786   24.3323 C   0  0  0  0  0  0  0  0  0  0  0  0
  -30.1996  -16.0499   23.3707 C   0  0  0  0  0  0  0  0  0  0  0  0
  -28.7843  -15.5848   20.8162 C   0  0  0  0  0  0  0  0  0  0  0  0
  -34.0012  -11.6344   23.8641 C   0  0  0  0  0  0  0  0  0  0  0  0
  -26.6419  -30.9187   23.3588 C   0  0  0  0  0  0  0  0  0  0  0  0
  -33.7095  -12.0869   22.4369 C   0  0  0  0  0  0  0  0  0  0  0  0
  -25.1368  -30.8758   23.0912 C   0  0  0  0  0  0  0  0  0  0  0  0
  -26.4453  -26.3038   18.9714 C   0  0  0  0  0  0  0  0  0  0  0  0
  -27.2151  -29.5285   23.6242 C   0  0  0  0  0  0  0  0  0  0  0  0
  -26.1145  -26.7646   20.3872 C   0  0  0  0  0  0  0  0  0  0  0  0
  -25.3987  -28.4880   22.3239 C   0  0  0  0  0  0  0  0  0  0  0  0
  -28.4290  -26.1363   20.2717 C   0  0  0  0  0  0  0  0  0  0  0  0
  -33.6242  -13.6155   22.3494 C   0  0  1  0  0  0  0  0  0  0  0  0
  -29.9965  -14.6460   22.8092 C   0  0  1  0  0  0  0  0  0  0  0  0
  -24.7982  -29.8593   21.9848 C   0  0  1  0  0  0  0  0  0  0  0  0
  -27.6453  -25.3917   19.2014 C   0  0  2  0  0  0  0  0  0  0  0  0
  -31.5907  -23.0518   15.2046 C   0  0  0  0  0  0  0  0  0  0  0  0
  -22.5037  -13.6822   21.0967 C   0  0  0  0  0  0  0  0  0  0  0  0
  -28.6397  -11.9166   19.3350 C   0  0  0  0  0  0  0  0  0  0  0  0
  -26.1896  -11.9612   18.8220 C   0  0  0  0  0  0  0  0  0  0  0  0
  -27.0138  -10.7841   20.8610 C   0  0  0  0  0  0  0  0  0  0  0  0
  -24.0167  -16.4888   23.1729 C   0  0  0  0  0  0  0  0  0  0  0  0
  -30.5926  -21.3732   19.7674 C   0  0  0  0  0  0  0  0  0  1  0  0
  -27.0319  -13.3114   20.7964 C   0  0  1  0  0  0  0  0  0  0  0  0
  -23.5732  -14.3652   21.9349 C   0  0  2  0  0  0  0  0  0  0  0  0
  -27.2330  -12.0175   19.9581 C   0  0  0  0  0  0  0  0  0  0  0  0
  -22.5822  -28.8585   22.3949 N   0  0  0  0  0  0  0  0  0  0  0  0
  -29.9749  -24.1401   16.6403 N   0  0  0  0  0  0  0  0  0  0  0  0
  -29.4905  -23.3252   18.8557 N   0  0  0  0  0  0  0  0  0  0  0  0
  -23.3056  -29.7739   21.7278 N   0  0  0  0  0  0  0  0  0  0  0  0
  -28.8698  -14.5676   21.8772 N   0  0  0  0  0  0  0  0  0  0  0  0
  -26.8423  -28.5954   22.5608 N   0  0  0  0  0  0  0  0  0  0  0  0
  -27.4113  -26.8191   21.0670 N   0  0  0  0  0  0  0  0  0  0  0  0
  -23.1404  -31.5071   20.1218 N   0  0  0  0  0  0  0  0  0  0  0  0
  -18.8889  -30.0325   20.5043 N   0  0  0  0  0  0  0  0  0  0  0  0
  -28.4171  -25.2038   18.0014 N   0  0  0  0  0  0  0  0  0  0  0  0
  -32.3494  -14.0802   22.8527 N   0  0  0  0  0  0  0  0  0  0  0  0
  -25.7179  -13.4207   21.4207 N   0  0  0  0  0  0  0  0  0  0  0  0
  -23.0741  -15.7141   22.3254 N   0  3  0  0  0  0  0  0  0  0  0  0
  -20.2499  -31.5321   19.4283 O   0  0  0  0  0  0  0  0  0  0  0  0
  -31.1070  -13.8059   20.9023 O   0  0  0  0  0  0  0  0  0  0  0  0
  -28.0880  -12.5678   22.7859 O   0  0  0  0  0  0  0  0  0  0  0  0
  -25.1297  -15.4307   20.4253 O   0  0  0  0  0  0  0  0  0  0  0  0
  -28.9175  -27.6033   22.6069 O   0  0  0  0  0  0  0  0  0  0  0  0
  -17.1128  -25.9285   23.8265 O   0  0  0  0  0  0  0  0  0  0  0  0
  -29.9526  -20.1436   19.4491 O   0  0  0  0  0  0  0  0  0  1  0  0
  -13.5468  -23.9318   20.1250 F   0  0  0  0  0  0  0  0  0  0  0  0
  -16.7399  -23.2040   23.5426 F   0  0  0  0  0  0  0  0  0  0  0  0
  1  2  1  0  0  0  0
  1  5  2  0  0  0  0
  2  6  2  0  0  0  0
  3  8  2  0  0  0  0
  3 16  1  0  0  0  0
  4  9  1  0  0  0  0
  4 16  2  0  0  0  0
  5 18  1  0  0  0  0
  6 20  1  0  0  0  0
  7 10  2  0  0  0  0
  7 19  1  0  0  0  0
  8 22  1  0  0  0  0
  9 22  2  0  0  0  0
 10 23  1  0  0  0  0
 11 12  2  0  0  0  0
 11 24  1  0  0  0  0
 12 25  1  0  0  0  0
 13 21  1  0  0  0  0
 13 23  2  0  0  0  0
 14 25  2  0  0  0  0
 14 26  1  0  0  0  0
 15 28  2  0  0  0  0
 15 29  1  0  0  0  0
 16 27  1  0  0  0  0
 17 27  1  0  0  0  0
 17 30  2  0  0  0  0
 17 32  1  0  0  0  0
 18 20  2  0  0  0  0
 18 37  1  0  0  0  0
 19 21  2  0  0  0  0
 19 38  1  0  0  0  0
 20 49  1  0  0  0  0
 21 39  1  0  0  0  0
 22 81  1  0  0  0  0
 23 82  1  0  0  0  0
 24 26  2  0  0  0  0
 24 81  1  0  0  0  0
 25 83  1  0  0  0  0
 26 84  1  0  0  0  0
 27 63  2  0  0  0  0
 28 53  1  0  0  0  0
 28 64  1  0  0  0  0
 29 59  1  0  0  0  0
 29 65  2  0  0  0  0
 30 66  1  0  0  0  0
 30 70  1  0  0  0  0
 31 64  2  0  0  0  0
 31 65  1  0  0  0  0
 31 72  1  0  0  0  0
 32 71  1  0  0  0  0
 32 76  2  0  0  0  0
 33 50  1  0  0  0  0
 33 73  1  0  0  0  0
 33 77  2  0  0  0  0
 34 60  1  0  0  0  0
 34 67  1  0  0  0  0
 34 78  2  0  0  0  0
 35 61  1  0  0  0  0
 35 74  1  0  0  0  0
 35 79  2  0  0  0  0
 36 68  1  0  0  0  0
 36 69  1  0  0  0  0
 36 80  2  0  0  0  0
 37 40  1  0  0  0  0
 38 50  1  0  0  0  0
 39 67  1  0  0  0  0
 40 42  1  0  0  0  0
 41 43  1  0  0  0  0
 41 45  1  0  0  0  0
 42 49  1  0  0  0  0
 43 51  1  0  0  0  0
 44 46  1  0  0  0  0
 44 52  1  0  0  0  0
 45 68  1  0  0  0  0
 46 69  1  0  0  0  0
 47 51  1  0  0  0  0
 47 68  1  0  0  0  0
 48 52  1  0  0  0  0
 48 69  1  0  0  0  0
 49 73  1  0  0  0  0
 50 67  1  0  0  0  0
 51 66  1  0  0  0  0
 52 72  1  0  0  0  0
 54 61  1  0  0  0  0
 55 62  1  0  0  0  0
 56 62  1  0  0  0  0
 57 62  1  0  0  0  0
 58 75  1  0  0  0  0
 59 82  1  0  0  0  0
 60 62  1  0  0  0  0
 60 74  1  0  0  0  0
 61 75  1  0  0  0  0
 63 66  1  0  0  0  0
M  CHG  1  75   1
M  ISO  4  36 100  59 101  69 100  82 101
M  END
> <Batch ID>
0185

> <Smiles>
CNC(C)C(=O)NC(C(=O)N1Cc2cc([101O:1][101CH2:1]c3cc(C)nc(NC4CC[100N:0]([100C:0](=O)N5CCCC(n6nc(-c7ccc(Oc8ccc(F)cc8F)cc7)c(C(N)=O)c6N)C5)C4)n3)ccc2CC1C(=O)NC1CCCc2ccccc21)C(C)(C)C

> <Shape>
0.261

> <Color>
0.062

> <Negative vol penalty>
0.000

$$$$

  -OEChem-04052323123D

 81 90  0     1  0  0  0  0  0999 V2000
  -27.6358  -34.1586   26.8856 C   0  0  0  0  0  0  0  0  0  0  0  0
  -28.0120  -33.0686   26.1074 C   0  0  0  0  0  0  0  0  0  0  0  0
  -24.4983   -9.4275   21.6451 C   0  0  0  0  0  0  0  0  0  0  0  0
  -24.3546  -10.8827   23.5683 C   0  0  0  0  0  0  0  0  0  0  0  0
  -26.2944  -34.3489   27.2148 C   0  0  0  0  0  0  0  0  0  0  0  0
  -27.0470  -32.1675   25.6588 C   0  0  0  0  0  0  0  0  0  0  0  0
  -27.0160  -29.1596   20.3242 C   0  0  0  0  0  0  0  0  0  0  0  0
  -27.3235  -21.8161   17.5132 C   0  0  0  0  0  0  0  0  0  0  0  0
  -24.1370   -8.3403   22.4407 C   0  0  0  0  0  0  0  0  0  0  0  0
  -23.9933   -9.7954   24.3640 C   0  0  0  0  0  0  0  0  0  0  0  0
  -27.3951  -27.8640   19.9757 C   0  0  0  0  0  0  0  0  0  0  0  0
  -21.3036   -7.0548   23.7644 C   0  0  0  0  0  0  0  0  0  0  0  0
  -20.3441   -6.1752   23.2631 C   0  0  0  0  0  0  0  0  0  0  0  0
  -26.7653  -23.0493   17.8414 C   0  0  0  0  0  0  0  0  0  0  0  0
  -25.1030  -27.1427   20.1878 C   0  0  0  0  0  0  0  0  0  0  0  0
  -21.9383   -4.3642   23.3898 C   0  0  0  0  0  0  0  0  0  0  0  0
  -24.6072  -10.6987   22.2089 C   0  0  0  0  0  0  0  0  0  0  0  0
  -24.1199  -12.6785   20.6757 C   0  0  0  0  0  0  0  0  0  0  0  0
  -25.3113  -33.4551   26.7619 C   0  0  0  0  0  0  0  0  0  0  0  0
  -25.6770  -29.4546   20.6183 C   0  0  0  0  0  0  0  0  0  0  0  0
  -25.6913  -32.3452   25.9833 C   0  0  0  0  0  0  0  0  0  0  0  0
  -27.4758  -20.8865   18.5218 C   0  0  0  0  0  0  0  0  0  0  0  0
  -24.7090  -28.4434   20.5373 C   0  0  0  0  0  0  0  0  0  0  0  0
  -23.8845   -8.5242   23.8001 C   0  0  0  0  0  0  0  0  0  0  0  0
  -26.4390  -26.8547   19.9103 C   0  0  0  0  0  0  0  0  0  0  0  0
  -22.5804   -6.5892   24.0783 C   0  0  0  0  0  0  0  0  0  0  0  0
  -20.6615   -4.8299   23.0758 C   0  0  0  0  0  0  0  0  0  0  0  0
  -22.8978   -5.2439   23.8910 C   0  0  0  0  0  0  0  0  0  0  0  0
  -24.9810  -11.8221   21.3877 C   0  0  0  0  0  0  0  0  0  0  0  0
  -27.0573  -21.2096   19.8085 C   0  0  0  0  0  0  0  0  0  0  0  0
  -26.3799  -23.2792   19.1624 C   0  0  0  0  0  0  0  0  0  0  0  0
  -24.9589  -13.5754   20.0609 C   0  0  0  0  0  0  0  0  0  0  0  0
  -22.6894  -12.6645   20.5789 C   0  0  0  0  0  0  0  0  0  0  0  0
  -24.1246  -30.5171   23.1805 C   0  0  0  0  0  0  0  0  0  0  0  0
  -21.6042  -30.5941   21.1398 C   0  0  0  0  0  0  0  0  0  0  0  0
  -20.1514  -29.4182   18.2844 C   0  0  0  0  0  0  0  0  0  0  0  0
  -29.3643  -16.9988   20.1948 C   0  0  0  0  0  0  0  0  0  0  0  0
  -23.8799  -33.6760   27.1828 C   0  0  0  0  0  0  0  0  0  0  0  0
  -25.2800  -30.8630   20.9666 C   0  0  0  0  0  0  0  0  0  0  0  0
  -28.0051  -19.4918   18.4531 C   0  0  0  0  0  0  0  0  0  0  0  0
  -23.2551  -28.7126   20.8237 C   0  0  0  0  0  0  0  0  0  0  0  0
  -27.2586  -20.0481   20.7419 C   0  0  0  0  0  0  0  0  0  0  0  0
  -22.8722  -32.8830   26.3547 C   0  0  0  0  0  0  0  0  0  0  0  0
  -29.9906  -13.5550   19.5430 C   0  0  0  0  0  0  0  0  0  0  0  0
  -23.3304  -31.4365   26.1981 C   0  0  0  0  0  0  0  0  0  0  0  0
  -28.6747  -12.8677   19.9119 C   0  0  0  0  0  0  0  0  0  0  0  0
  -30.2991  -14.7223   20.4780 C   0  0  0  0  0  0  0  0  0  0  0  0
  -27.9040  -15.0328   20.9688 C   0  0  0  0  0  0  0  0  0  0  0  0
  -24.6707  -31.3596   25.4570 C   0  0  1  0  0  0  0  0  0  0  0  0
  -23.9711  -30.9392   21.7466 C   0  0  1  0  0  0  0  0  0  0  0  0
  -27.5221  -13.8842   20.0195 C   0  0  2  0  0  0  0  0  0  0  0  0
  -28.2804  -19.2172   19.9441 C   0  0  1  0  0  0  0  0  0  0  0  0
  -18.0731  -29.6410   16.8957 C   0  0  0  0  0  0  0  0  0  0  0  0
  -20.0711  -28.9069   23.1678 C   0  0  0  0  0  0  0  0  0  0  0  0
  -18.4147  -28.3738   21.3677 C   0  0  0  0  0  0  0  0  0  0  0  0
  -18.7333  -30.7347   22.1076 C   0  0  0  0  0  0  0  0  0  0  0  0
  -21.6817  -30.3757   15.9391 C   0  0  0  0  0  0  0  0  0  0  0  0
  -25.7751  -24.6041   19.5232 C   0  0  0  0  0  0  0  0  0  1  0  0
  -20.5318  -29.6147   20.7280 C   0  0  1  0  0  0  0  0  0  0  0  0
  -19.4936  -30.1359   17.1196 C   0  0  2  0  0  0  0  0  0  0  0  0
  -19.4653  -29.4017   21.8392 C   0  0  0  0  0  0  0  0  0  0  0  0
  -26.2683  -12.1458   21.2396 N   0  0  0  0  0  0  0  0  0  0  0  0
  -26.5065  -22.3805   20.1684 N   0  0  0  0  0  0  0  0  0  0  0  0
  -26.2223  -13.2155   20.4274 N   0  0  0  0  0  0  0  0  0  0  0  0
  -22.9177  -30.1041   21.1661 N   0  0  0  0  0  0  0  0  0  0  0  0
  -29.1669  -15.6501   20.5341 N   0  0  0  0  0  0  0  0  0  0  0  0
  -24.7318  -14.6288   19.2478 N   0  0  0  0  0  0  0  0  0  0  0  0
  -21.9823  -11.6742   21.2744 N   0  0  0  0  0  0  0  0  0  0  0  0
  -24.4736  -31.5451   24.0354 N   0  0  0  0  0  0  0  0  0  0  0  0
  -19.9901  -30.1090   19.4668 N   0  0  0  0  0  0  0  0  0  0  0  0
  -28.2377  -17.8087   20.2685 N   0  0  0  0  0  0  0  0  0  0  0  0
  -20.2716  -29.9135   15.8681 N   0  3  0  0  0  0  0  0  0  0  0  0
  -22.0581  -13.4953   19.8827 O   0  0  0  0  0  0  0  0  0  0  0  0
  -23.9386  -29.3457   23.4886 O   0  0  0  0  0  0  0  0  0  0  0  0
  -21.2891  -31.7531   21.4207 O   0  0  0  0  0  0  0  0  0  0  0  0
  -20.7455  -28.3497   18.1586 O   0  0  0  0  0  0  0  0  0  0  0  0
  -30.4621  -17.4467   19.8465 O   0  0  0  0  0  0  0  0  0  0  0  0
  -23.5316   -7.4636   24.5767 O   0  0  0  0  0  0  0  0  0  0  0  0
  -26.8065  -25.5891   19.5710 O   0  0  0  0  0  0  0  0  0  1  0  0
  -19.7395   -3.9850   22.5958 F   0  0  0  0  0  0  0  0  0  0  0  0
  -24.1224   -4.7904   24.1920 F   0  0  0  0  0  0  0  0  0  0  0  0
  1  2  1  0  0  0  0
  1  5  2  0  0  0  0
  2  6  2  0  0  0  0
  3  9  2  0  0  0  0
  3 17  1  0  0  0  0
  4 10  1  0  0  0  0
  4 17  2  0  0  0  0
  5 19  1  0  0  0  0
  6 21  1  0  0  0  0
  7 11  2  0  0  0  0
  7 20  1  0  0  0  0
  8 14  2  0  0  0  0
  8 22  1  0  0  0  0
  9 24  1  0  0  0  0
 10 24  2  0  0  0  0
 11 25  1  0  0  0  0
 12 13  2  0  0  0  0
 12 26  1  0  0  0  0
 13 27  1  0  0  0  0
 14 31  1  0  0  0  0
 15 23  1  0  0  0  0
 15 25  2  0  0  0  0
 16 27  2  0  0  0  0
 16 28  1  0  0  0  0
 17 29  1  0  0  0  0
 18 29  1  0  0  0  0
 18 32  2  0  0  0  0
 18 33  1  0  0  0  0
 19 21  2  0  0  0  0
 19 38  1  0  0  0  0
 20 23  2  0  0  0  0
 20 39  1  0  0  0  0
 21 49  1  0  0  0  0
 22 30  2  0  0  0  0
 22 40  1  0  0  0  0
 23 41  1  0  0  0  0
 24 78  1  0  0  0  0
 25 79  1  0  0  0  0
 26 28  2  0  0  0  0
 26 78  1  0  0  0  0
 27 80  1  0  0  0  0
 28 81  1  0  0  0  0
 29 62  2  0  0  0  0
 30 42  1  0  0  0  0
 30 63  1  0  0  0  0
 31 58  1  0  0  0  0
 31 63  2  0  0  0  0
 32 64  1  0  0  0  0
 32 67  1  0  0  0  0
 33 68  1  0  0  0  0
 33 73  2  0  0  0  0
 34 50  1  0  0  0  0
 34 69  1  0  0  0  0
 34 74  2  0  0  0  0
 35 59  1  0  0  0  0
 35 65  1  0  0  0  0
 35 75  2  0  0  0  0
 36 60  1  0  0  0  0
 36 70  1  0  0  0  0
 36 76  2  0  0  0  0
 37 66  1  0  0  0  0
 37 71  1  0  0  0  0
 37 77  2  0  0  0  0
 38 43  1  0  0  0  0
 39 50  1  0  0  0  0
 40 52  1  0  0  0  0
 41 65  1  0  0  0  0
 42 52  1  0  0  0  0
 43 45  1  0  0  0  0
 44 46  1  0  0  0  0
 44 47  1  0  0  0  0
 45 49  1  0  0  0  0
 46 51  1  0  0  0  0
 47 66  1  0  0  0  0
 48 51  1  0  0  0  0
 48 66  1  0  0  0  0
 49 69  1  0  0  0  0
 50 65  1  0  0  0  0
 51 64  1  0  0  0  0
 52 71  1  0  0  0  0
 53 60  1  0  0  0  0
 54 61  1  0  0  0  0
 55 61  1  0  0  0  0
 56 61  1  0  0  0  0
 57 72  1  0  0  0  0
 58 79  1  0  0  0  0
 59 61  1  0  0  0  0
 59 70  1  0  0  0  0
 60 72  1  0  0  0  0
 62 64  1  0  0  0  0
M  CHG  1  72   1
M  ISO  4  37 100  58 101  71 100  79 101
M  END
> <Batch ID>
0185

> <Smiles>
CNC(C)C(=O)NC(C(=O)N1Cc2cc([101O:1][101CH2:1]c3ccc4c(n3)CC([100NH:0][100C:0](=O)N3CCCC(n5nc(-c6ccc(Oc7ccc(F)cc7F)cc6)c(C(N)=O)c5N)C3)C4)ccc2CC1C(=O)NC1CCCc2ccccc21)C(C)(C)C

> <Shape>
0.300

> <Color>
0.121

> <Negative vol penalty>
0.000

$$$$

  -OEChem-04052323123D

 86 95  0     1  0  0  0  0  0999 V2000
  -29.3726  -23.5540   16.6037 C   0  0  0  0  0  0  0  0  0  0  0  0
  -28.8488  -23.2643   17.8595 C   0  0  0  0  0  0  0  0  0  0  0  0
  -28.2749  -16.8203   21.2746 C   0  0  0  0  0  0  0  0  0  0  0  0
  -27.5256  -17.0828   18.9928 C   0  0  0  0  0  0  0  0  0  0  0  0
  -29.4049  -24.8721   16.1503 C   0  0  0  0  0  0  0  0  0  0  0  0
  -28.3579  -24.2927   18.6632 C   0  0  0  0  0  0  0  0  0  0  0  0
  -23.9201  -23.1318   20.8087 C   0  0  0  0  0  0  0  0  0  0  0  0
  -29.0322  -17.9860   21.1600 C   0  0  0  0  0  0  0  0  0  0  0  0
  -28.2829  -18.2486   18.8782 C   0  0  0  0  0  0  0  0  0  0  0  0
  -23.9507  -22.2888   21.9188 C   0  0  0  0  0  0  0  0  0  0  0  0
  -30.8783  -21.0888   21.5844 C   0  0  0  0  0  0  0  0  0  0  0  0
  -30.8210  -22.0052   22.6344 C   0  0  0  0  0  0  0  0  0  0  0  0
  -23.7316  -24.2027   23.3707 C   0  0  0  0  0  0  0  0  0  0  0  0
  -28.4400  -22.2408   22.2987 C   0  0  0  0  0  0  0  0  0  0  0  0
  -25.1070  -19.8887   26.1700 C   0  0  0  0  0  0  0  0  0  0  0  0
  -27.5216  -16.3687   20.1909 C   0  0  0  0  0  0  0  0  0  0  0  0
  -27.2105  -13.8697   20.5983 C   0  0  0  0  0  0  0  0  0  0  0  0
  -28.9053  -25.9160   16.9448 C   0  0  0  0  0  0  0  0  0  0  0  0
  -23.8058  -24.5199   20.9721 C   0  0  0  0  0  0  0  0  0  0  0  0
  -28.3847  -25.6261   18.2205 C   0  0  0  0  0  0  0  0  0  0  0  0
  -23.6972  -25.0609   22.2611 C   0  0  0  0  0  0  0  0  0  0  0  0
  -29.0362  -18.7002   19.9619 C   0  0  0  0  0  0  0  0  0  0  0  0
  -23.8594  -22.8244   23.2001 C   0  0  0  0  0  0  0  0  0  0  0  0
  -29.7165  -20.7484   20.8915 C   0  0  0  0  0  0  0  0  0  0  0  0
  -29.6018  -22.5812   22.9916 C   0  0  0  0  0  0  0  0  0  0  0  0
  -28.4973  -21.3244   21.2487 C   0  0  0  0  0  0  0  0  0  0  0  0
  -26.7395  -15.1642   20.3085 C   0  0  0  0  0  0  0  0  0  0  0  0
  -24.0020  -19.8724   25.3477 C   0  0  0  0  0  0  0  0  0  0  0  0
  -24.0012  -18.5770   27.6820 C   0  0  0  0  0  0  0  0  0  0  0  0
  -22.8959  -18.5613   26.8601 C   0  0  0  0  0  0  0  0  0  0  0  0
  -26.0827  -13.0858   20.5978 C   0  0  0  0  0  0  0  0  0  0  0  0
  -28.5480  -13.4163   20.8459 C   0  0  0  0  0  0  0  0  0  0  0  0
  -25.6279  -27.0214   20.2468 C   0  0  0  0  0  0  0  0  0  0  0  0
  -23.0554  -28.7028   21.2848 C   0  0  0  0  0  0  0  0  0  0  0  0
  -20.2340  -28.7915   23.2027 C   0  0  0  0  0  0  0  0  0  0  0  0
  -20.2925  -14.2718   21.5558 C   0  0  0  0  0  0  0  0  0  0  0  0
  -29.0049  -27.3306   16.4313 C   0  0  0  0  0  0  0  0  0  0  0  0
  -23.7473  -25.4134   19.7635 C   0  0  0  0  0  0  0  0  0  0  0  0
  -23.5526  -26.5426   22.4896 C   0  0  0  0  0  0  0  0  0  0  0  0
  -28.1217  -28.3177   17.1903 C   0  0  0  0  0  0  0  0  0  0  0  0
  -21.7233  -12.7984   18.6475 C   0  0  0  0  0  0  0  0  0  0  0  0
  -28.2687  -28.1175   18.6953 C   0  0  0  0  0  0  0  0  0  0  0  0
  -23.2136  -13.1209   18.7695 C   0  0  0  0  0  0  0  0  0  0  0  0
  -18.8999  -16.0594   25.8319 C   0  0  0  0  0  0  0  0  0  0  0  0
  -20.8541  -13.9421   19.1658 C   0  0  0  0  0  0  0  0  0  0  0  0
  -22.6589  -14.7092   20.6585 C   0  0  0  0  0  0  0  0  0  0  0  0
  -19.2759  -17.3667   26.5087 C   0  0  0  0  0  0  0  0  0  0  0  0
  -21.1232  -16.5043   25.1577 C   0  0  0  0  0  0  0  0  0  0  0  0
  -27.8200  -26.7113   19.1113 C   0  0  1  0  0  0  0  0  0  0  0  0
  -24.1456  -26.8546   20.0661 C   0  0  1  0  0  0  0  0  0  0  0  0
  -19.7962  -16.0142   24.6030 C   0  0  1  0  0  0  0  0  0  0  0  0
  -23.5764  -13.5628   20.2001 C   0  0  2  0  0  0  0  0  0  0  0  0
  -24.0097  -17.8568   28.9871 C   0  0  0  0  0  0  0  0  0  0  0  0
  -18.3582  -30.3156   23.8780 C   0  0  0  0  0  0  0  0  0  0  0  0
  -24.9423  -30.1866   23.1684 C   0  0  0  0  0  0  0  0  0  0  0  0
  -22.9372  -30.9746   24.4438 C   0  0  0  0  0  0  0  0  0  0  0  0
  -23.2309  -31.6309   22.0552 C   0  0  0  0  0  0  0  0  0  0  0  0
  -18.1961  -26.9917   22.0336 C   0  0  0  0  0  0  0  0  0  0  0  0
  -21.6570  -17.8234   27.2378 C   0  0  0  0  0  0  0  0  0  0  0  0
  -24.0168  -20.6043   24.0380 C   0  0  0  0  0  0  0  0  0  1  0  0
  -19.8879  -14.6336   23.9775 C   0  0  0  0  0  0  0  0  0  0  0  0
  -22.6011  -29.2478   22.6173 C   0  0  1  0  0  0  0  0  0  0  0  0
  -18.8206  -29.2517   22.8946 C   0  0  2  0  0  0  0  0  0  0  0  0
  -23.4325  -30.4822   23.0673 C   0  0  0  0  0  0  0  0  0  0  0  0
  -25.1265  -19.2412   27.3519 N   0  0  0  0  0  0  0  0  0  0  0  0
  -25.4156  -15.2047   20.1362 N   0  0  0  0  0  0  0  0  0  0  0  0
  -22.8765  -19.2084   25.6781 N   0  0  0  0  0  0  0  0  0  0  0  0
  -25.0451  -13.9257   20.3183 N   0  0  0  0  0  0  0  0  0  0  0  0
  -23.5066  -27.3754   21.2764 N   0  0  0  0  0  0  0  0  0  0  0  0
  -21.2483  -14.3120   20.5273 N   0  0  0  0  0  0  0  0  0  0  0  0
  -25.8872  -11.7669   20.8092 N   0  0  0  0  0  0  0  0  0  0  0  0
  -29.3213  -12.9900   19.7575 N   0  0  0  0  0  0  0  0  0  0  0  0
  -26.3754  -26.6330   19.1515 N   0  0  0  0  0  0  0  0  0  0  0  0
  -21.1712  -29.5058   22.4868 N   0  0  0  0  0  0  0  0  0  0  0  0
  -20.7508  -14.6315   22.8173 N   0  0  0  0  0  0  0  0  0  0  0  0
  -20.7144  -17.6212   26.0953 N   0  3  2  0  0  0  0  0  0  0  0  0
  -17.8744  -28.1025   22.9662 N   0  3  0  0  0  0  0  0  0  0  0  0
  -29.0371  -13.3744   22.0003 O   0  0  0  0  0  0  0  0  0  0  0  0
  -26.0612  -27.4707   21.3014 O   0  0  0  0  0  0  0  0  0  0  0  0
  -23.0047  -29.4259   20.2867 O   0  0  0  0  0  0  0  0  0  0  0  0
  -20.4820  -27.8911   24.0016 O   0  0  0  0  0  0  0  0  0  0  0  0
  -19.1190  -13.9350   21.3651 O   0  0  0  0  0  0  0  0  0  0  0  0
  -29.7749  -19.8379   19.8498 O   0  0  0  0  0  0  0  0  0  0  0  0
  -23.8897  -22.0039   24.2853 O   0  0  0  0  0  0  0  0  0  1  0  0
  -29.5467  -23.4600   24.0009 F   0  0  0  0  0  0  0  0  0  0  0  0
  -27.3777  -21.0005   20.5875 F   0  0  0  0  0  0  0  0  0  0  0  0
  1  2  1  0  0  0  0
  1  5  2  0  0  0  0
  2  6  2  0  0  0  0
  3  8  2  0  0  0  0
  3 16  1  0  0  0  0
  4  9  1  0  0  0  0
  4 16  2  0  0  0  0
  5 18  1  0  0  0  0
  6 20  1  0  0  0  0
  7 10  2  0  0  0  0
  7 19  1  0  0  0  0
  8 22  1  0  0  0  0
  9 22  2  0  0  0  0
 10 23  1  0  0  0  0
 11 12  2  0  0  0  0
 11 24  1  0  0  0  0
 12 25  1  0  0  0  0
 13 21  1  0  0  0  0
 13 23  2  0  0  0  0
 14 25  2  0  0  0  0
 14 26  1  0  0  0  0
 15 28  1  0  0  0  0
 15 65  2  0  0  0  0
 16 27  1  0  0  0  0
 17 27  1  0  0  0  0
 17 31  2  0  0  0  0
 17 32  1  0  0  0  0
 18 20  2  0  0  0  0
 18 37  1  0  0  0  0
 19 21  2  0  0  0  0
 19 38  1  0  0  0  0
 20 49  1  0  0  0  0
 21 39  1  0  0  0  0
 22 83  1  0  0  0  0
 23 84  1  0  0  0  0
 24 26  2  0  0  0  0
 24 83  1  0  0  0  0
 25 85  1  0  0  0  0
 26 86  1  0  0  0  0
 27 66  2  0  0  0  0
 28 60  1  0  0  0  0
 28 67  2  0  0  0  0
 29 30  2  0  0  0  0
 29 53  1  0  0  0  0
 29 65  1  0  0  0  0
 30 59  1  0  0  0  0
 30 67  1  0  0  0  0
 31 68  1  0  0  0  0
 31 71  1  0  0  0  0
 32 72  1  0  0  0  0
 32 78  2  0  0  0  0
 33 50  1  0  0  0  0
 33 73  1  0  0  0  0
 33 79  2  0  0  0  0
 34 62  1  0  0  0  0
 34 69  1  0  0  0  0
 34 80  2  0  0  0  0
 35 63  1  0  0  0  0
 35 74  1  0  0  0  0
 35 81  2  0  0  0  0
 36 70  1  0  0  0  0
 36 75  1  0  0  0  0
 36 82  2  0  0  0  0
 37 40  1  0  0  0  0
 38 50  1  0  0  0  0
 39 69  1  0  0  0  0
 40 42  1  0  0  0  0
 41 43  1  0  0  0  0
 41 45  1  0  0  0  0
 42 49  1  0  0  0  0
 43 52  1  0  0  0  0
 44 47  1  0  0  0  0
 44 51  1  0  0  0  0
 45 70  1  0  0  0  0
 46 52  1  0  0  0  0
 46 70  1  0  0  0  0
 47 76  1  0  0  0  0
 48 51  1  0  0  0  0
 48 76  1  0  0  0  0
 49 73  1  0  0  0  0
 50 69  1  0  0  0  0
 51 61  1  0  0  0  0
 52 68  1  0  0  0  0
 54 63  1  0  0  0  0
 55 64  1  0  0  0  0
 56 64  1  0  0  0  0
 57 64  1  0  0  0  0
 58 77  1  0  0  0  0
 59 76  1  0  0  0  0
 60 84  1  0  0  0  0
 61 75  1  0  0  0  0
 62 64  1  0  0  0  0
 62 74  1  0  0  0  0
 63 77  1  0  0  0  0
 66 68  1  0  0  0  0
M  CHG  2  76   1  77   1
M  ISO  4  36 100  60 101  75 100  84 101
M  END
> <Batch ID>
0185

> <Smiles>
CNC(C)C(=O)NC(C(=O)N1Cc2cc([101O:1][101CH2:1]c3cnc(C)c(CN4CCC(C[100NH:0][100C:0](=O)N5CCCC(n6nc(-c7ccc(Oc8ccc(F)cc8F)cc7)c(C(N)=O)c6N)C5)C4)n3)ccc2CC1C(=O)NC1CCCc2ccccc21)C(C)(C)C

> <Shape>
0.228

> <Color>
0.061

> <Negative vol penalty>
0.000

$$$$

  -OEChem-04052323123D

 83 92  0     1  0  0  0  0  0999 V2000
  -29.4350  -33.3353   27.0360 C   0  0  0  0  0  0  0  0  0  0  0  0
  -28.8768  -32.1583   26.5476 C   0  0  0  0  0  0  0  0  0  0  0  0
  -24.5841   -9.1445   22.0253 C   0  0  0  0  0  0  0  0  0  0  0  0
  -23.3335   -9.6645   20.0246 C   0  0  0  0  0  0  0  0  0  0  0  0
  -28.6983  -34.5187   27.0084 C   0  0  0  0  0  0  0  0  0  0  0  0
  -27.5812  -32.1638   26.0322 C   0  0  0  0  0  0  0  0  0  0  0  0
  -27.2090  -29.5945   21.6842 C   0  0  0  0  0  0  0  0  0  0  0  0
  -23.4721   -8.4850   22.5490 C   0  0  0  0  0  0  0  0  0  0  0  0
  -22.2215   -9.0050   20.5483 C   0  0  0  0  0  0  0  0  0  0  0  0
  -27.1618  -28.2037   21.7685 C   0  0  0  0  0  0  0  0  0  0  0  0
  -21.0762   -6.3533   24.2608 C   0  0  0  0  0  0  0  0  0  0  0  0
  -21.2827   -5.1133   24.8652 C   0  0  0  0  0  0  0  0  0  0  0  0
  -24.7652  -28.2749   21.5024 C   0  0  0  0  0  0  0  0  0  0  0  0
  -22.1582   -4.2462   22.7871 C   0  0  0  0  0  0  0  0  0  0  0  0
  -24.4783  -22.2511   23.1180 C   0  0  0  0  0  0  0  0  0  0  0  0
  -24.5148   -9.7342   20.7631 C   0  0  0  0  0  0  0  0  0  0  0  0
  -26.6894   -9.8597   19.4354 C   0  0  0  0  0  0  0  0  0  0  0  0
  -27.3965  -34.5407   26.4836 C   0  0  0  0  0  0  0  0  0  0  0  0
  -26.0315  -30.3379   21.5190 C   0  0  0  0  0  0  0  0  0  0  0  0
  -26.8259  -33.3483   25.9988 C   0  0  0  0  0  0  0  0  0  0  0  0
  -24.8005  -29.6749   21.4137 C   0  0  0  0  0  0  0  0  0  0  0  0
  -25.2425  -23.3302   20.7810 C   0  0  0  0  0  0  0  0  0  0  0  0
  -22.2908   -8.4153   21.8105 C   0  0  0  0  0  0  0  0  0  0  0  0
  -25.9395  -27.5438   21.6805 C   0  0  0  0  0  0  0  0  0  0  0  0
  -21.4106   -6.5398   22.9195 C   0  0  0  0  0  0  0  0  0  0  0  0
  -21.8237   -4.0598   24.1284 C   0  0  0  0  0  0  0  0  0  0  0  0
  -21.9516   -5.4862   22.1827 C   0  0  0  0  0  0  0  0  0  0  0  0
  -25.6629  -10.4161   20.2219 C   0  0  0  0  0  0  0  0  0  0  0  0
  -24.7419  -24.0949   21.8149 C   0  0  0  0  0  0  0  0  0  0  0  0
  -25.3249  -21.9748   21.0266 C   0  0  0  0  0  0  0  0  0  0  0  0
  -27.5345  -10.9117   19.1796 C   0  0  0  0  0  0  0  0  0  0  0  0
  -26.8634   -8.5124   18.9770 C   0  0  0  0  0  0  0  0  0  0  0  0
  -24.5156  -32.5479   23.2284 C   0  0  0  0  0  0  0  0  0  0  0  0
  -22.6038  -32.7016   20.6123 C   0  0  0  0  0  0  0  0  0  0  0  0
  -21.3765  -31.1595   17.8262 C   0  0  0  0  0  0  0  0  0  0  0  0
  -26.4888  -16.7398   18.9680 C   0  0  0  0  0  0  0  0  0  0  0  0
  -26.6215  -35.8341   26.5183 C   0  0  0  0  0  0  0  0  0  0  0  0
  -26.1022  -31.8359   21.4030 C   0  0  0  0  0  0  0  0  0  0  0  0
  -23.5098  -30.4255   21.2158 C   0  0  0  0  0  0  0  0  0  0  0  0
  -25.3933  -35.8328   25.6118 C   0  0  0  0  0  0  0  0  0  0  0  0
  -29.0341  -15.0532   20.9954 C   0  0  0  0  0  0  0  0  0  0  0  0
  -24.5962  -34.5452   25.7948 C   0  0  0  0  0  0  0  0  0  0  0  0
  -28.5063  -13.6224   20.9965 C   0  0  0  0  0  0  0  0  0  0  0  0
  -27.9085  -16.0884   20.9859 C   0  0  0  0  0  0  0  0  0  0  0  0
  -26.3998  -14.4517   19.8923 C   0  0  0  0  0  0  0  0  0  0  0  0
  -25.9832  -19.2026   18.5154 C   0  0  0  0  0  0  0  0  0  0  0  0
  -26.3501  -18.8052   20.5732 C   0  0  0  0  0  0  0  0  0  0  0  0
  -25.4325  -33.3191   25.4091 C   0  0  1  0  0  0  0  0  0  0  0  0
  -24.7862  -32.5249   21.7505 C   0  0  1  0  0  0  0  0  0  0  0  0
  -27.5256  -13.4097   19.8336 C   0  0  2  0  0  0  0  0  0  0  0  0
  -25.4447  -19.7921   19.8238 C   0  0  0  0  0  0  0  0  0  0  0  0
  -25.6636  -23.9378   19.4887 C   0  0  0  0  0  0  0  0  0  0  0  0
  -19.8027  -31.5225   15.9056 C   0  0  0  0  0  0  0  0  0  0  0  0
  -20.2299  -32.2496   22.4752 C   0  0  0  0  0  0  0  0  0  0  0  0
  -18.8507  -31.6783   20.4653 C   0  0  0  0  0  0  0  0  0  0  0  0
  -19.8435  -33.9559   20.6881 C   0  0  0  0  0  0  0  0  0  0  0  0
  -23.5474  -30.8524   15.8383 C   0  0  0  0  0  0  0  0  0  0  0  0
  -24.6061  -25.5746   21.6655 C   0  0  0  0  0  0  0  0  0  1  0  0
  -21.3486  -31.9937   20.1624 C   0  0  1  0  0  0  0  0  0  0  0  0
  -21.2399  -31.6330   16.3904 C   0  0  2  0  0  0  0  0  0  0  0  0
  -20.0921  -32.4551   20.9534 C   0  0  0  0  0  0  0  0  0  0  0  0
  -24.3488  -23.5864   23.0012 N   0  0  0  0  0  0  0  0  0  0  0  0
  -24.9505  -21.3992   22.1879 N   0  0  0  0  0  0  0  0  0  0  0  0
  -25.8381  -11.7203   20.4508 N   0  0  0  0  0  0  0  0  0  0  0  0
  -26.9845  -11.9922   19.8043 N   0  0  0  0  0  0  0  0  0  0  0  0
  -23.6303  -31.8894   21.1147 N   0  0  0  0  0  0  0  0  0  0  0  0
  -26.9273  -15.8209   19.9275 N   0  0  0  0  0  0  0  0  0  0  0  0
  -26.4328  -18.0686   19.3195 N   0  0  0  0  0  0  0  0  0  0  0  0
  -28.6871  -11.0088   18.4835 N   0  0  0  0  0  0  0  0  0  0  0  0
  -25.9012   -7.5567   19.3309 N   0  0  0  0  0  0  0  0  0  0  0  0
  -25.8249  -21.1467   20.0159 N   0  0  0  0  0  0  0  0  0  0  0  0
  -25.4943  -33.1820   23.9697 N   0  0  0  0  0  0  0  0  0  0  0  0
  -21.2571  -32.2015   18.7213 N   0  0  0  0  0  0  0  0  0  0  0  0
  -22.1033  -30.8164   15.4913 N   0  3  0  0  0  0  0  0  0  0  0  0
  -27.8516   -8.1626   18.2881 O   0  0  0  0  0  0  0  0  0  0  0  0
  -23.4938  -32.0301   23.6637 O   0  0  0  0  0  0  0  0  0  0  0  0
  -22.6737  -33.9293   20.5148 O   0  0  0  0  0  0  0  0  0  0  0  0
  -21.5661  -29.9823   18.1242 O   0  0  0  0  0  0  0  0  0  0  0  0
  -26.1272  -16.3831   17.8388 O   0  0  0  0  0  0  0  0  0  0  0  0
  -21.2056   -7.7716   22.3211 O   0  0  0  0  0  0  0  0  0  0  0  0
  -25.8902  -26.1767   21.7638 O   0  0  0  0  0  0  0  0  0  1  0  0
  -22.0235   -2.8695   24.7094 F   0  0  0  0  0  0  0  0  0  0  0  0
  -22.2760   -5.6596   20.8941 F   0  0  0  0  0  0  0  0  0  0  0  0
  1  2  1  0  0  0  0
  1  5  2  0  0  0  0
  2  6  2  0  0  0  0
  3  8  2  0  0  0  0
  3 16  1  0  0  0  0
  4  9  1  0  0  0  0
  4 16  2  0  0  0  0
  5 18  1  0  0  0  0
  6 20  1  0  0  0  0
  7 10  2  0  0  0  0
  7 19  1  0  0  0  0
  8 23  1  0  0  0  0
  9 23  2  0  0  0  0
 10 24  1  0  0  0  0
 11 12  2  0  0  0  0
 11 25  1  0  0  0  0
 12 26  1  0  0  0  0
 13 21  1  0  0  0  0
 13 24  2  0  0  0  0
 14 26  2  0  0  0  0
 14 27  1  0  0  0  0
 15 62  2  0  0  0  0
 15 63  1  0  0  0  0
 16 28  1  0  0  0  0
 17 28  1  0  0  0  0
 17 31  2  0  0  0  0
 17 32  1  0  0  0  0
 18 20  2  0  0  0  0
 18 37  1  0  0  0  0
 19 21  2  0  0  0  0
 19 38  1  0  0  0  0
 20 48  1  0  0  0  0
 21 39  1  0  0  0  0
 22 29  2  0  0  0  0
 22 30  1  0  0  0  0
 22 52  1  0  0  0  0
 23 80  1  0  0  0  0
 24 81  1  0  0  0  0
 25 27  2  0  0  0  0
 25 80  1  0  0  0  0
 26 82  1  0  0  0  0
 27 83  1  0  0  0  0
 28 64  2  0  0  0  0
 29 58  1  0  0  0  0
 29 62  1  0  0  0  0
 30 63  2  0  0  0  0
 30 71  1  0  0  0  0
 31 65  1  0  0  0  0
 31 69  1  0  0  0  0
 32 70  1  0  0  0  0
 32 75  2  0  0  0  0
 33 49  1  0  0  0  0
 33 72  1  0  0  0  0
 33 76  2  0  0  0  0
 34 59  1  0  0  0  0
 34 66  1  0  0  0  0
 34 77  2  0  0  0  0
 35 60  1  0  0  0  0
 35 73  1  0  0  0  0
 35 78  2  0  0  0  0
 36 67  1  0  0  0  0
 36 68  1  0  0  0  0
 36 79  2  0  0  0  0
 37 40  1  0  0  0  0
 38 49  1  0  0  0  0
 39 66  1  0  0  0  0
 40 42  1  0  0  0  0
 41 43  1  0  0  0  0
 41 44  1  0  0  0  0
 42 48  1  0  0  0  0
 43 50  1  0  0  0  0
 44 67  1  0  0  0  0
 45 50  1  0  0  0  0
 45 67  1  0  0  0  0
 46 51  1  0  0  0  0
 46 68  1  0  0  0  0
 47 51  1  0  0  0  0
 47 68  1  0  0  0  0
 48 72  1  0  0  0  0
 49 66  1  0  0  0  0
 50 65  1  0  0  0  0
 51 71  1  0  0  0  0
 53 60  1  0  0  0  0
 54 61  1  0  0  0  0
 55 61  1  0  0  0  0
 56 61  1  0  0  0  0
 57 74  1  0  0  0  0
 58 81  1  0  0  0  0
 59 61  1  0  0  0  0
 59 73  1  0  0  0  0
 60 74  1  0  0  0  0
 64 65  1  0  0  0  0
M  CHG  1  74   1
M  ISO  4  36 100  58 101  68 100  81 101
M  END
> <Batch ID>
0185

> <Smiles>
CNC(C)C(=O)NC(C(=O)N1Cc2cc([101O:1][101CH2:1]c3ncnc(NC4C[100N:0]([100C:0](=O)N5CCCC(n6nc(-c7ccc(Oc8ccc(F)cc8F)cc7)c(C(N)=O)c6N)C5)C4)c3C)ccc2CC1C(=O)NC1CCCc2ccccc21)C(C)(C)C

> <Shape>
0.221

> <Color>
0.097

> <Negative vol penalty>
0.000

$$$$

  -OEChem-04052323123D

 84 92  0     1  0  0  0  0  0999 V2000
  -26.9630  -37.4101   22.9331 C   0  0  0  0  0  0  0  0  0  0  0  0
  -27.5557  -36.2777   22.3835 C   0  0  0  0  0  0  0  0  0  0  0  0
  -22.4872  -10.5100   22.0267 C   0  0  0  0  0  0  0  0  0  0  0  0
  -24.5104   -9.1908   21.9671 C   0  0  0  0  0  0  0  0  0  0  0  0
  -25.9588  -37.2747   23.8908 C   0  0  0  0  0  0  0  0  0  0  0  0
  -27.1452  -35.0093   22.7921 C   0  0  0  0  0  0  0  0  0  0  0  0
  -26.8155  -29.9583   19.3448 C   0  0  0  0  0  0  0  0  0  0  0  0
  -21.7413   -9.3815   21.6869 C   0  0  0  0  0  0  0  0  0  0  0  0
  -23.7644   -8.0622   21.6273 C   0  0  0  0  0  0  0  0  0  0  0  0
  -27.6765  -28.8733   19.1859 C   0  0  0  0  0  0  0  0  0  0  0  0
  -22.3520   -4.7543   21.0973 C   0  0  0  0  0  0  0  0  0  0  0  0
  -22.6379   -3.5624   21.7631 C   0  0  0  0  0  0  0  0  0  0  0  0
  -26.3980  -27.6289   20.8096 C   0  0  0  0  0  0  0  0  0  0  0  0
  -22.0926   -4.6093   23.8712 C   0  0  0  0  0  0  0  0  0  0  0  0
  -23.8718  -10.4148   22.1667 C   0  0  0  0  0  0  0  0  0  0  0  0
  -24.9711  -12.0248   23.8120 C   0  0  0  0  0  0  0  0  0  0  0  0
  -25.5290  -36.0039   24.3043 C   0  0  0  0  0  0  0  0  0  0  0  0
  -25.7440  -29.8906   20.2468 C   0  0  0  0  0  0  0  0  0  0  0  0
  -26.1352  -34.8568   23.7572 C   0  0  0  0  0  0  0  0  0  0  0  0
  -25.5234  -28.7135   20.9762 C   0  0  0  0  0  0  0  0  0  0  0  0
  -22.3799   -8.1575   21.4872 C   0  0  0  0  0  0  0  0  0  0  0  0
  -27.4695  -27.7094   19.9205 C   0  0  0  0  0  0  0  0  0  0  0  0
  -21.9365   -5.8737   21.8184 C   0  0  0  0  0  0  0  0  0  0  0  0
  -22.5082   -3.4899   23.1501 C   0  0  0  0  0  0  0  0  0  0  0  0
  -21.8068   -5.8012   23.2053 C   0  0  0  0  0  0  0  0  0  0  0  0
  -24.6429  -11.5803   22.5172 C   0  0  0  0  0  0  0  0  0  0  0  0
  -25.7094  -13.1647   23.6069 C   0  0  0  0  0  0  0  0  0  0  0  0
  -24.6385  -11.4578   25.0862 C   0  0  0  0  0  0  0  0  0  0  0  0
  -24.9159  -31.4836   22.8699 C   0  0  0  0  0  0  0  0  0  0  0  0
  -22.2196  -29.6958   22.6339 C   0  0  0  0  0  0  0  0  0  0  0  0
  -20.7164  -26.8589   21.4766 C   0  0  0  0  0  0  0  0  0  0  0  0
  -25.7046  -16.7613   18.7046 C   0  0  0  0  0  0  0  0  0  0  0  0
  -24.4731  -35.9081   25.3769 C   0  0  0  0  0  0  0  0  0  0  0  0
  -24.8086  -31.0601   20.3869 C   0  0  0  0  0  0  0  0  0  0  0  0
  -24.3756  -28.5828   21.9426 C   0  0  0  0  0  0  0  0  0  0  0  0
  -23.8346  -34.5254   25.4813 C   0  0  0  0  0  0  0  0  0  0  0  0
  -28.6382  -15.2250   20.4476 C   0  0  0  0  0  0  0  0  0  0  0  0
  -24.9065  -33.4402   25.4687 C   0  0  0  0  0  0  0  0  0  0  0  0
  -27.9566  -14.1044   21.2316 C   0  0  0  0  0  0  0  0  0  0  0  0
  -27.8686  -15.5545   19.1744 C   0  0  0  0  0  0  0  0  0  0  0  0
  -27.6065  -18.4412   18.7526 C   0  0  0  0  0  0  0  0  0  0  0  0
  -27.4150  -19.9309   19.0482 C   0  0  0  0  0  0  0  0  0  0  0  0
  -25.7476  -14.7904   20.1908 C   0  0  0  0  0  0  0  0  0  0  0  0
  -25.6711  -20.0912   17.3916 C   0  0  0  0  0  0  0  0  0  0  0  0
  -25.6999  -33.4636   24.1566 C   0  0  1  0  0  0  0  0  0  0  0  0
  -24.0535  -31.0659   21.7125 C   0  0  1  0  0  0  0  0  0  0  0  0
  -26.4787  -14.4387   21.4969 C   0  0  1  0  0  0  0  0  0  0  0  0
  -25.8098  -18.6029   17.0333 C   0  0  1  0  0  0  0  0  0  0  0  0
  -27.5687  -16.6875   14.1667 C   0  0  0  0  0  0  0  0  0  0  0  0
  -18.5133  -25.6573   21.4745 C   0  0  0  0  0  0  0  0  0  0  0  0
  -22.6954  -28.8235   25.5188 C   0  0  0  0  0  0  0  0  0  0  0  0
  -21.0721  -26.9538   25.1478 C   0  0  0  0  0  0  0  0  0  0  0  0
  -20.3092  -29.3214   24.9595 C   0  0  0  0  0  0  0  0  0  0  0  0
  -20.5170  -26.9879   18.5265 C   0  0  0  0  0  0  0  0  0  0  0  0
  -26.6268  -18.3861   15.7556 C   0  0  0  0  0  0  0  0  0  0  0  0
  -26.7791  -16.9022   15.4481 C   0  0  0  0  0  0  0  0  0  0  0  0
  -26.7960  -22.0814   18.1559 C   0  0  0  0  0  0  0  0  0  0  0  0
  -28.1364  -22.7822   18.0405 C   0  0  0  0  0  0  0  0  0  0  0  0
  -29.2311  -25.0169   18.2560 C   0  0  0  0  0  0  0  0  0  0  0  0
  -28.9205  -26.4820   18.4908 C   0  0  0  0  0  0  0  0  0  1  0  0
  -21.7828  -28.3465   23.1512 C   0  0  1  0  0  0  0  0  0  0  0  0
  -19.4082  -26.6417   20.7377 C   0  0  2  0  0  0  0  0  0  0  0  0
  -21.4877  -28.3641   24.6776 C   0  0  0  0  0  0  0  0  0  0  0  0
  -25.1324  -12.3733   21.5603 N   0  0  0  0  0  0  0  0  0  0  0  0
  -25.7756  -13.3276   22.2544 N   0  0  0  0  0  0  0  0  0  0  0  0
  -23.4924  -29.7558   22.0491 N   0  0  0  0  0  0  0  0  0  0  0  0
  -26.4549  -15.8392   19.4532 N   0  0  0  0  0  0  0  0  0  0  0  0
  -26.4002  -17.8508   18.1547 N   0  0  0  0  0  0  0  0  0  0  0  0
  -26.9426  -20.6563   17.8625 N   0  0  1  0  0  0  0  0  0  0  0  0
  -26.3018  -14.0336   24.4533 N   0  0  0  0  0  0  0  0  0  0  0  0
  -23.8731  -10.2841   25.1160 N   0  0  0  0  0  0  0  0  0  0  0  0
  -24.9362  -32.8471   23.0931 N   0  0  0  0  0  0  0  0  0  0  0  0
  -20.6485  -27.9414   22.3280 N   0  0  0  0  0  0  0  0  0  0  0  0
  -19.6678  -26.1085   19.3705 N   0  3  0  0  0  0  0  0  0  0  0  0
  -27.9651  -24.2351   18.2881 N   0  3  0  0  0  0  0  0  0  0  0  0
  -24.9951  -11.9858   26.1668 O   0  0  0  0  0  0  0  0  0  0  0  0
  -25.5172  -30.6317   23.5136 O   0  0  0  0  0  0  0  0  0  0  0  0
  -21.4565  -30.6594   22.7382 O   0  0  0  0  0  0  0  0  0  0  0  0
  -21.6989  -26.1380   21.3173 O   0  0  0  0  0  0  0  0  0  0  0  0
  -24.4849  -16.6219   18.5503 O   0  0  0  0  0  0  0  0  0  0  0  0
  -21.6523   -7.0560   21.1559 O   0  0  0  0  0  0  0  0  0  0  0  0
  -28.3148  -26.6414   19.7668 O   0  0  0  0  0  0  0  0  0  1  0  0
  -22.7813   -2.3449   23.7892 F   0  0  0  0  0  0  0  0  0  0  0  0
  -21.4068   -6.8729   23.9034 F   0  0  0  0  0  0  0  0  0  0  0  0
  1  2  1  0  0  0  0
  1  5  2  0  0  0  0
  2  6  2  0  0  0  0
  3  8  2  0  0  0  0
  3 15  1  0  0  0  0
  4  9  1  0  0  0  0
  4 15  2  0  0  0  0
  5 17  1  0  0  0  0
  6 19  1  0  0  0  0
  7 10  2  0  0  0  0
  7 18  1  0  0  0  0
  8 21  1  0  0  0  0
  9 21  2  0  0  0  0
 10 22  1  0  0  0  0
 11 12  2  0  0  0  0
 11 23  1  0  0  0  0
 12 24  1  0  0  0  0
 13 20  1  0  0  0  0
 13 22  2  0  0  0  0
 14 24  2  0  0  0  0
 14 25  1  0  0  0  0
 15 26  1  0  0  0  0
 16 26  1  0  0  0  0
 16 27  2  0  0  0  0
 16 28  1  0  0  0  0
 17 19  2  0  0  0  0
 17 33  1  0  0  0  0
 18 20  2  0  0  0  0
 18 34  1  0  0  0  0
 19 45  1  0  0  0  0
 20 35  1  0  0  0  0
 21 81  1  0  0  0  0
 22 82  1  0  0  0  0
 23 25  2  0  0  0  0
 23 81  1  0  0  0  0
 24 83  1  0  0  0  0
 25 84  1  0  0  0  0
 26 64  2  0  0  0  0
 27 65  1  0  0  0  0
 27 70  1  0  0  0  0
 28 71  1  0  0  0  0
 28 76  2  0  0  0  0
 29 46  1  0  0  0  0
 29 72  1  0  0  0  0
 29 77  2  0  0  0  0
 30 61  1  0  0  0  0
 30 66  1  0  0  0  0
 30 78  2  0  0  0  0
 31 62  1  0  0  0  0
 31 73  1  0  0  0  0
 31 79  2  0  0  0  0
 32 67  1  0  0  0  0
 32 68  1  0  0  0  0
 32 80  2  0  0  0  0
 33 36  1  0  0  0  0
 34 46  1  0  0  0  0
 35 66  1  0  0  0  0
 36 38  1  0  0  0  0
 37 39  1  0  0  0  0
 37 40  1  0  0  0  0
 38 45  1  0  0  0  0
 39 47  1  0  0  0  0
 40 67  1  0  0  0  0
 41 42  1  0  0  0  0
 41 68  1  0  0  0  0
 42 69  1  0  0  0  0
 43 47  1  0  0  0  0
 43 67  1  0  0  0  0
 44 48  1  0  0  0  0
 44 69  1  0  0  0  0
 45 72  1  0  0  0  0
 46 66  1  0  0  0  0
 47 65  1  0  0  0  0
 48 55  1  0  0  0  0
 48 68  1  0  0  0  0
 49 56  1  0  0  0  0
 50 62  1  0  0  0  0
 51 63  1  0  0  0  0
 52 63  1  0  0  0  0
 53 63  1  0  0  0  0
 54 74  1  0  0  0  0
 55 56  1  0  0  0  0
 57 58  1  0  0  0  0
 57 69  1  0  0  0  0
 58 75  1  0  0  0  0
 59 60  1  0  0  0  0
 59 75  1  0  0  0  0
 60 82  1  0  0  0  0
 61 63  1  0  0  0  0
 61 73  1  0  0  0  0
 62 74  1  0  0  0  0
 64 65  1  0  0  0  0
M  CHG  2  74   1  75   1
M  ISO  4  32 100  60 101  68 100  82 101
M  END
> <Batch ID>
0185

> <Smiles>
CCCC1CN(CCNC[101CH2:1][101O:1]c2ccc3c(c2)CN(C(=O)C(NC(=O)C(C)NC)C(C)(C)C)C(C(=O)NC2CCCc4ccccc42)C3)CC[100N:0]1[100C:0](=O)N1CCCC(n2nc(-c3ccc(Oc4ccc(F)cc4F)cc3)c(C(N)=O)c2N)C1

> <Shape>
0.299

> <Color>
0.083

> <Negative vol penalty>
0.000

$$$$

  -OEChem-04052323123D

 85 94  0     1  0  0  0  0  0999 V2000
  -25.0894  -29.0843   20.5564 C   0  0  0  0  0  0  0  0  0  0  0  0
  -25.1206  -27.8133   21.1212 C   0  0  0  0  0  0  0  0  0  0  0  0
  -22.2873  -22.7422   22.7635 C   0  0  0  0  0  0  0  0  0  0  0  0
  -21.5855  -22.1605   25.0010 C   0  0  0  0  0  0  0  0  0  0  0  0
  -25.7779  -29.3360   19.3704 C   0  0  0  0  0  0  0  0  0  0  0  0
  -25.8395  -26.7929   20.4997 C   0  0  0  0  0  0  0  0  0  0  0  0
  -29.6826  -20.9429   22.0243 C   0  0  0  0  0  0  0  0  0  0  0  0
  -21.2353  -23.6533   22.6704 C   0  0  0  0  0  0  0  0  0  0  0  0
  -20.5335  -23.0717   24.9078 C   0  0  0  0  0  0  0  0  0  0  0  0
  -29.7642  -19.5912   21.6927 C   0  0  0  0  0  0  0  0  0  0  0  0
  -20.5468  -26.7822   23.7516 C   0  0  0  0  0  0  0  0  0  0  0  0
  -20.8264  -28.0435   23.2258 C   0  0  0  0  0  0  0  0  0  0  0  0
  -30.9803  -20.1621   19.6892 C   0  0  0  0  0  0  0  0  0  0  0  0
  -19.2300  -27.6586   21.4536 C   0  0  0  0  0  0  0  0  0  0  0  0
  -31.3887  -15.0750   20.4461 C   0  0  0  0  0  0  0  0  0  0  0  0
  -22.4624  -21.9957   23.9288 C   0  0  0  0  0  0  0  0  0  0  0  0
  -24.8506  -21.3036   24.4990 C   0  0  0  0  0  0  0  0  0  0  0  0
  -26.5135  -28.3206   18.7391 C   0  0  0  0  0  0  0  0  0  0  0  0
  -30.2408  -21.9168   21.1838 C   0  0  0  0  0  0  0  0  0  0  0  0
  -26.5374  -27.0308   19.3034 C   0  0  0  0  0  0  0  0  0  0  0  0
  -30.9068  -21.5254   20.0136 C   0  0  0  0  0  0  0  0  0  0  0  0
  -20.3584  -23.8181   23.7425 C   0  0  0  0  0  0  0  0  0  0  0  0
  -30.4106  -19.2008   20.5236 C   0  0  0  0  0  0  0  0  0  0  0  0
  -19.6089  -25.9590   23.1283 C   0  0  0  0  0  0  0  0  0  0  0  0
  -20.1679  -28.4818   22.0768 C   0  0  0  0  0  0  0  0  0  0  0  0
  -18.9505  -26.3972   21.9794 C   0  0  0  0  0  0  0  0  0  0  0  0
  -23.5486  -21.0539   24.0255 C   0  0  0  0  0  0  0  0  0  0  0  0
  -30.1113  -15.5632   20.6118 C   0  0  0  0  0  0  0  0  0  0  0  0
  -30.5330  -13.0760   19.7381 C   0  0  0  0  0  0  0  0  0  0  0  0
  -29.2555  -13.5639   19.9045 C   0  0  0  0  0  0  0  0  0  0  0  0
  -25.4940  -20.0952   24.3876 C   0  0  0  0  0  0  0  0  0  0  0  0
  -25.4268  -22.5190   24.9953 C   0  0  0  0  0  0  0  0  0  0  0  0
  -29.0917  -24.3698   19.5206 C   0  0  0  0  0  0  0  0  0  0  0  0
  -32.2318  -24.9529   18.9532 C   0  0  0  0  0  0  0  0  0  0  0  0
  -35.4147  -23.7376   18.7557 C   0  0  0  0  0  0  0  0  0  0  0  0
  -24.5009  -15.5141   20.7607 C   0  0  0  0  0  0  0  0  0  0  0  0
  -27.2028  -28.6281   17.4334 C   0  0  0  0  0  0  0  0  0  0  0  0
  -30.1676  -23.3689   21.5692 C   0  0  0  0  0  0  0  0  0  0  0  0
  -31.5402  -22.5303   19.0877 C   0  0  0  0  0  0  0  0  0  0  0  0
  -28.2481  -27.5887   17.0369 C   0  0  0  0  0  0  0  0  0  0  0  0
  -24.6984  -15.3984   24.4196 C   0  0  0  0  0  0  0  0  0  0  0  0
  -27.6910  -26.1790   17.2083 C   0  0  0  0  0  0  0  0  0  0  0  0
  -24.4825  -16.8666   24.7708 C   0  0  0  0  0  0  0  0  0  0  0  0
  -23.0051  -13.0276   19.0697 C   0  0  0  0  0  0  0  0  0  0  0  0
  -23.9064  -14.9739   23.1822 C   0  0  0  0  0  0  0  0  0  0  0  0
  -22.9315  -13.4337   20.5449 C   0  0  0  0  0  0  0  0  0  0  0  0
  -23.9300  -17.3121   22.3542 C   0  0  0  0  0  0  0  0  0  0  0  0
  -27.3263  -25.9042   18.6722 C   0  0  1  0  0  0  0  0  0  0  0  0
  -30.3231  -24.3113   20.3796 C   0  0  1  0  0  0  0  0  0  0  0  0
  -24.7751  -17.7589   23.5555 C   0  0  1  0  0  0  0  0  0  0  0  0
  -24.4068  -13.6539   19.0111 C   0  0  2  0  0  0  0  0  0  0  0  0
  -30.7779  -11.6887   19.2511 C   0  0  0  0  0  0  0  0  0  0  0  0
  -37.7649  -24.4458   18.2337 C   0  0  0  0  0  0  0  0  0  0  0  0
  -31.5605  -24.9782   15.9768 C   0  0  0  0  0  0  0  0  0  0  0  0
  -34.0050  -24.7335   15.4946 C   0  0  0  0  0  0  0  0  0  0  0  0
  -33.1691  -26.7519   16.6986 C   0  0  0  0  0  0  0  0  0  0  0  0
  -36.3582  -23.0137   21.4658 C   0  0  0  0  0  0  0  0  0  0  0  0
  -28.0511  -12.7215   19.6031 C   0  0  0  0  0  0  0  0  0  0  0  0
  -29.8909  -16.9525   21.0989 C   0  0  0  0  0  0  0  0  0  1  0  0
  -25.5966  -12.7233   19.1403 C   0  0  0  0  0  0  0  0  0  0  0  0
  -33.2247  -24.5274   17.8986 C   0  0  1  0  0  0  0  0  0  0  0  0
  -36.7253  -24.2488   19.3260 C   0  0  2  0  0  0  0  0  0  0  0  0
  -32.9763  -25.2287   16.5334 C   0  0  0  0  0  0  0  0  0  0  0  0
  -31.6224  -13.8227   20.0063 N   0  0  0  0  0  0  0  0  0  0  0  0
  -23.3736  -19.7866   23.6417 N   0  0  0  0  0  0  0  0  0  0  0  0
  -29.0217  -14.8164   20.3440 N   0  0  0  0  0  0  0  0  0  0  0  0
  -24.5742  -19.2291   23.8738 N   0  0  0  0  0  0  0  0  0  0  0  0
  -31.4366  -23.9384   19.5049 N   0  0  0  0  0  0  0  0  0  0  0  0
  -24.1206  -15.8882   22.0542 N   0  0  0  0  0  0  0  0  0  0  0  0
  -24.0801  -14.2906   20.2889 N   0  0  0  0  0  0  0  0  0  0  0  0
  -26.7512  -19.6997   24.6800 N   0  0  0  0  0  0  0  0  0  0  0  0
  -24.6256  -23.6680   25.0418 N   0  0  0  0  0  0  0  0  0  0  0  0
  -28.5170  -25.6242   19.4457 N   0  0  0  0  0  0  0  0  0  0  0  0
  -34.5482  -24.7694   18.4627 N   0  0  0  0  0  0  0  0  0  0  0  0
  -37.2682  -23.2831   20.3228 N   0  3  0  0  0  0  0  0  0  0  0  0
  -26.7946  -13.5151   19.5008 N   0  3  0  0  0  0  0  0  0  0  0  0
  -26.6218  -22.5882   25.3705 O   0  0  0  0  0  0  0  0  0  0  0  0
  -28.6933  -23.3524   18.9656 O   0  0  0  0  0  0  0  0  0  0  0  0
  -32.1692  -26.1405   19.2807 O   0  0  0  0  0  0  0  0  0  0  0  0
  -35.1842  -22.5427   18.5835 O   0  0  0  0  0  0  0  0  0  0  0  0
  -25.1702  -16.2607   20.0344 O   0  0  0  0  0  0  0  0  0  0  0  0
  -19.3319  -24.7073   23.6520 O   0  0  0  0  0  0  0  0  0  0  0  0
  -30.4916  -17.8734   20.1952 O   0  0  0  0  0  0  0  0  0  1  0  0
  -20.4353  -29.6937   21.5729 F   0  0  0  0  0  0  0  0  0  0  0  0
  -18.0475  -25.6113   21.3770 F   0  0  0  0  0  0  0  0  0  0  0  0
  1  2  1  0  0  0  0
  1  5  2  0  0  0  0
  2  6  2  0  0  0  0
  3  8  2  0  0  0  0
  3 16  1  0  0  0  0
  4  9  1  0  0  0  0
  4 16  2  0  0  0  0
  5 18  1  0  0  0  0
  6 20  1  0  0  0  0
  7 10  2  0  0  0  0
  7 19  1  0  0  0  0
  8 22  1  0  0  0  0
  9 22  2  0  0  0  0
 10 23  1  0  0  0  0
 11 12  2  0  0  0  0
 11 24  1  0  0  0  0
 12 25  1  0  0  0  0
 13 21  1  0  0  0  0
 13 23  2  0  0  0  0
 14 25  2  0  0  0  0
 14 26  1  0  0  0  0
 15 28  1  0  0  0  0
 15 64  2  0  0  0  0
 16 27  1  0  0  0  0
 17 27  1  0  0  0  0
 17 31  2  0  0  0  0
 17 32  1  0  0  0  0
 18 20  2  0  0  0  0
 18 37  1  0  0  0  0
 19 21  2  0  0  0  0
 19 38  1  0  0  0  0
 20 48  1  0  0  0  0
 21 39  1  0  0  0  0
 22 82  1  0  0  0  0
 23 83  1  0  0  0  0
 24 26  2  0  0  0  0
 24 82  1  0  0  0  0
 25 84  1  0  0  0  0
 26 85  1  0  0  0  0
 27 65  2  0  0  0  0
 28 59  1  0  0  0  0
 28 66  2  0  0  0  0
 29 30  2  0  0  0  0
 29 52  1  0  0  0  0
 29 64  1  0  0  0  0
 30 58  1  0  0  0  0
 30 66  1  0  0  0  0
 31 67  1  0  0  0  0
 31 71  1  0  0  0  0
 32 72  1  0  0  0  0
 32 77  2  0  0  0  0
 33 49  1  0  0  0  0
 33 73  1  0  0  0  0
 33 78  2  0  0  0  0
 34 61  1  0  0  0  0
 34 68  1  0  0  0  0
 34 79  2  0  0  0  0
 35 62  1  0  0  0  0
 35 74  1  0  0  0  0
 35 80  2  0  0  0  0
 36 69  1  0  0  0  0
 36 70  1  0  0  0  0
 36 81  2  0  0  0  0
 37 40  1  0  0  0  0
 38 49  1  0  0  0  0
 39 68  1  0  0  0  0
 40 42  1  0  0  0  0
 41 43  1  0  0  0  0
 41 45  1  0  0  0  0
 42 48  1  0  0  0  0
 43 50  1  0  0  0  0
 44 46  1  0  0  0  0
 44 51  1  0  0  0  0
 45 69  1  0  0  0  0
 46 70  1  0  0  0  0
 47 50  1  0  0  0  0
 47 69  1  0  0  0  0
 48 73  1  0  0  0  0
 49 68  1  0  0  0  0
 50 67  1  0  0  0  0
 51 60  1  0  0  0  0
 51 70  1  0  0  0  0
 53 62  1  0  0  0  0
 54 63  1  0  0  0  0
 55 63  1  0  0  0  0
 56 63  1  0  0  0  0
 57 75  1  0  0  0  0
 58 76  1  0  0  0  0
 59 83  1  0  0  0  0
 60 76  1  0  0  0  0
 61 63  1  0  0  0  0
 61 74  1  0  0  0  0
 62 75  1  0  0  0  0
 65 67  1  0  0  0  0
M  CHG  2  75   1  76   1
M  ISO  4  36 100  59 101  70 100  83 101
M  END
> <Batch ID>
0185

> <Smiles>
CNC(C)C(=O)NC(C(=O)N1Cc2cc([101O:1][101CH2:1]c3cnc(C)c(CNCC4CC[100N:0]4[100C:0](=O)N4CCCC(n5nc(-c6ccc(Oc7ccc(F)cc7F)cc6)c(C(N)=O)c5N)C4)n3)ccc2CC1C(=O)NC1CCCc2ccccc21)C(C)(C)C

> <Shape>
0.200

> <Color>
0.075

> <Negative vol penalty>
0.000

$$$$
