
  -OEChem-04052323143D

 84 93  0     1  0  0  0  0  0999 V2000
  -30.2937  -11.2764   19.0272 C   0  0  0  0  0  0  0  0  0  0  0  0
  -30.1651  -12.6502   18.8497 C   0  0  0  0  0  0  0  0  0  0  0  0
  -21.5713  -28.3546   20.6482 C   0  0  0  0  0  0  0  0  0  0  0  0
  -22.9657  -27.1419   22.2045 C   0  0  0  0  0  0  0  0  0  0  0  0
  -29.2038  -10.5265   19.4672 C   0  0  0  0  0  0  0  0  0  0  0  0
  -28.9461  -13.2748   19.1112 C   0  0  0  0  0  0  0  0  0  0  0  0
  -29.4872  -17.5643   21.7480 C   0  0  0  0  0  0  0  0  0  0  0  0
  -20.5644  -27.4029   20.8087 C   0  0  0  0  0  0  0  0  0  0  0  0
  -21.9587  -26.1901   22.3651 C   0  0  0  0  0  0  0  0  0  0  0  0
  -29.9073  -18.6938   21.0471 C   0  0  0  0  0  0  0  0  0  0  0  0
  -19.6163  -23.6344   23.4604 C   0  0  0  0  0  0  0  0  0  0  0  0
  -19.3189  -23.2163   24.7574 C   0  0  0  0  0  0  0  0  0  0  0  0
  -27.6271  -19.4752   20.9515 C   0  0  0  0  0  0  0  0  0  0  0  0
  -18.7500  -25.4861   25.3587 C   0  0  0  0  0  0  0  0  0  0  0  0
  -22.7720  -28.2241   21.3461 C   0  0  0  0  0  0  0  0  0  0  0  0
  -23.9986  -30.3831   21.9308 C   0  0  0  0  0  0  0  0  0  0  0  0
  -27.9735  -11.1436   19.7435 C   0  0  0  0  0  0  0  0  0  0  0  0
  -28.1301  -17.3760   22.0470 C   0  0  0  0  0  0  0  0  0  0  0  0
  -27.8383  -12.5322   19.5541 C   0  0  0  0  0  0  0  0  0  0  0  0
  -27.1926  -18.3437   21.6586 C   0  0  0  0  0  0  0  0  0  0  0  0
  -20.7580  -26.3206   21.6671 C   0  0  0  0  0  0  0  0  0  0  0  0
  -28.9769  -19.6481   20.6462 C   0  0  0  0  0  0  0  0  0  0  0  0
  -19.4806  -24.9784   23.1125 C   0  0  0  0  0  0  0  0  0  0  0  0
  -18.8857  -24.1421   25.7066 C   0  0  0  0  0  0  0  0  0  0  0  0
  -19.0475  -25.9042   24.0616 C   0  0  0  0  0  0  0  0  0  0  0  0
  -23.8128  -29.2067   21.1803 C   0  0  0  0  0  0  0  0  0  0  0  0
  -25.1162  -30.9657   21.3848 C   0  0  0  0  0  0  0  0  0  0  0  0
  -29.9972  -22.8942   22.6762 C   0  0  0  0  0  0  0  0  0  0  0  0
  -30.4575  -23.9951   20.7755 C   0  0  0  0  0  0  0  0  0  0  0  0
  -29.7349  -21.8719   20.6955 C   0  0  0  0  0  0  0  0  0  1  0  0
  -23.2298  -30.9028   23.0238 C   0  0  0  0  0  0  0  0  0  0  0  0
  -25.9496  -15.1893   21.2935 C   0  0  0  0  0  0  0  0  0  0  0  0
  -24.1161  -16.8625   23.3818 C   0  0  0  0  0  0  0  0  0  0  0  0
  -23.4961  -19.8197   24.9684 C   0  0  0  0  0  0  0  0  0  0  0  0
  -29.7925  -28.7710   18.3572 C   0  0  0  0  0  0  0  0  0  0  0  0
  -26.8103  -10.2844   20.1718 C   0  0  0  0  0  0  0  0  0  0  0  0
  -27.6965  -16.1653   22.8271 C   0  0  0  0  0  0  0  0  0  0  0  0
  -25.7267  -18.1986   21.9725 C   0  0  0  0  0  0  0  0  0  0  0  0
  -25.6601  -11.0784   20.7856 C   0  0  0  0  0  0  0  0  0  0  0  0
  -27.5338  -31.2993   17.2697 C   0  0  0  0  0  0  0  0  0  0  0  0
  -25.3383  -12.2997   19.9303 C   0  0  0  0  0  0  0  0  0  0  0  0
  -26.3408  -31.1558   18.2163 C   0  0  0  0  0  0  0  0  0  0  0  0
  -28.1467  -29.9438   16.9247 C   0  0  0  0  0  0  0  0  0  0  0  0
  -27.3235  -28.9736   19.0353 C   0  0  0  0  0  0  0  0  0  0  0  0
  -32.6909  -26.2798   21.3286 C   0  0  0  0  0  0  0  0  0  0  0  0
  -32.1141  -28.5783   20.7247 C   0  0  0  0  0  0  0  0  0  0  0  0
  -26.5394  -13.2497   19.8510 C   0  0  1  0  0  0  0  0  0  0  0  0
  -26.2233  -15.8225   22.6284 C   0  0  1  0  0  0  0  0  0  0  0  0
  -26.7066  -30.3183   19.4565 C   0  0  2  0  0  0  0  0  0  0  0  0
  -31.2646  -26.3658   20.8162 C   0  0  1  0  0  0  0  0  0  0  0  0
  -31.3135  -27.5824   19.9016 C   0  0  1  0  0  0  0  0  0  0  0  0
  -29.9213  -22.8639   24.1648 C   0  0  0  0  0  0  0  0  0  0  0  0
  -21.9059  -20.8911   26.5873 C   0  0  0  0  0  0  0  0  0  0  0  0
  -22.0163  -17.0707   21.1778 C   0  0  0  0  0  0  0  0  0  0  0  0
  -20.9226  -18.9019   22.4888 C   0  0  0  0  0  0  0  0  0  0  0  0
  -21.0947  -16.6091   23.4564 C   0  0  0  0  0  0  0  0  0  0  0  0
  -25.6594  -20.3614   26.9141 C   0  0  0  0  0  0  0  0  0  0  0  0
  -23.1734  -18.0367   23.2740 C   0  0  1  0  0  0  0  0  0  0  0  0
  -23.2197  -20.1423   26.4258 C   0  0  2  0  0  0  0  0  0  0  0  0
  -21.8291  -17.6567   22.5915 C   0  0  0  0  0  0  0  0  0  0  0  0
  -24.7380  -29.0498   20.2299 N   0  0  0  0  0  0  0  0  0  0  0  0
  -30.4141  -24.0414   22.1168 N   0  0  0  0  0  0  0  0  0  0  0  0
  -29.6416  -21.7713   22.0313 N   0  0  0  0  0  0  0  0  0  0  0  0
  -30.1339  -22.9485   19.9992 N   0  0  0  0  0  0  0  0  0  0  0  0
  -25.5160  -30.1354   20.3795 N   0  0  0  0  0  0  0  0  0  0  0  0
  -25.3514  -16.9944   22.7318 N   0  0  0  0  0  0  0  0  0  0  0  0
  -28.4722  -29.2006   18.1443 N   0  0  0  0  0  0  0  0  0  0  0  0
  -25.7860  -32.1022   21.6715 N   0  0  0  0  0  0  0  0  0  0  0  0
  -22.1122  -30.1776   23.4589 N   0  0  0  0  0  0  0  0  0  0  0  0
  -30.8872  -25.1661   20.1143 N   0  0  0  0  0  0  0  0  0  0  0  0
  -26.6543  -14.0220   21.0695 N   0  0  0  0  0  0  0  0  0  0  0  0
  -23.0283  -18.5691   24.6245 N   0  0  0  0  0  0  0  0  0  0  0  0
  -30.0163  -28.0789   19.5411 N   0  0  0  0  0  0  0  0  0  0  0  0
  -33.1109  -27.7199   21.4570 N   0  3  0  0  0  0  0  0  0  0  0  0
  -24.3132  -20.9856   26.9861 N   0  3  0  0  0  0  0  0  0  0  0  0
  -23.5156  -31.9866   23.5869 O   0  0  0  0  0  0  0  0  0  0  0  0
  -25.1567  -15.7197   20.5244 O   0  0  0  0  0  0  0  0  0  0  0  0
  -23.7720  -15.8679   24.0252 O   0  0  0  0  0  0  0  0  0  0  0  0
  -24.0664  -20.6007   24.2099 O   0  0  0  0  0  0  0  0  0  0  0  0
  -30.7053  -28.9927   17.5544 O   0  0  0  0  0  0  0  0  0  0  0  0
  -19.7755  -25.3918   21.8242 O   0  0  0  0  0  0  0  0  0  0  0  0
  -29.3842  -20.7513   19.9613 O   0  0  0  0  0  0  0  0  0  1  0  0
  -18.5987  -23.7402   26.9516 F   0  0  0  0  0  0  0  0  0  0  0  0
  -18.9141  -27.1965   23.7330 F   0  0  0  0  0  0  0  0  0  0  0  0
  1  2  1  0  0  0  0
  1  5  2  0  0  0  0
  2  6  2  0  0  0  0
  3  8  2  0  0  0  0
  3 15  1  0  0  0  0
  4  9  1  0  0  0  0
  4 15  2  0  0  0  0
  5 17  1  0  0  0  0
  6 19  1  0  0  0  0
  7 10  2  0  0  0  0
  7 18  1  0  0  0  0
  8 21  1  0  0  0  0
  9 21  2  0  0  0  0
 10 22  1  0  0  0  0
 11 12  2  0  0  0  0
 11 23  1  0  0  0  0
 12 24  1  0  0  0  0
 13 20  1  0  0  0  0
 13 22  2  0  0  0  0
 14 24  2  0  0  0  0
 14 25  1  0  0  0  0
 15 26  1  0  0  0  0
 16 26  1  0  0  0  0
 16 27  2  0  0  0  0
 16 31  1  0  0  0  0
 17 19  2  0  0  0  0
 17 36  1  0  0  0  0
 18 20  2  0  0  0  0
 18 37  1  0  0  0  0
 19 47  1  0  0  0  0
 20 38  1  0  0  0  0
 21 81  1  0  0  0  0
 22 82  1  0  0  0  0
 23 25  2  0  0  0  0
 23 81  1  0  0  0  0
 24 83  1  0  0  0  0
 25 84  1  0  0  0  0
 26 61  2  0  0  0  0
 27 65  1  0  0  0  0
 27 68  1  0  0  0  0
 28 52  1  0  0  0  0
 28 62  1  0  0  0  0
 28 63  2  0  0  0  0
 29 62  2  0  0  0  0
 29 64  1  0  0  0  0
 29 70  1  0  0  0  0
 30 63  1  0  0  0  0
 30 64  2  0  0  0  0
 30 82  1  0  0  0  0
 31 69  1  0  0  0  0
 31 76  2  0  0  0  0
 32 48  1  0  0  0  0
 32 71  1  0  0  0  0
 32 77  2  0  0  0  0
 33 58  1  0  0  0  0
 33 66  1  0  0  0  0
 33 78  2  0  0  0  0
 34 59  1  0  0  0  0
 34 72  1  0  0  0  0
 34 79  2  0  0  0  0
 35 67  1  0  0  0  0
 35 73  1  0  0  0  0
 35 80  2  0  0  0  0
 36 39  1  0  0  0  0
 37 48  1  0  0  0  0
 38 66  1  0  0  0  0
 39 41  1  0  0  0  0
 40 42  1  0  0  0  0
 40 43  1  0  0  0  0
 41 47  1  0  0  0  0
 42 49  1  0  0  0  0
 43 67  1  0  0  0  0
 44 49  1  0  0  0  0
 44 67  1  0  0  0  0
 45 50  1  0  0  0  0
 45 74  1  0  0  0  0
 46 51  1  0  0  0  0
 46 74  1  0  0  0  0
 47 71  1  0  0  0  0
 48 66  1  0  0  0  0
 49 65  1  0  0  0  0
 50 51  1  0  0  0  0
 50 70  1  0  0  0  0
 51 73  1  0  0  0  0
 53 59  1  0  0  0  0
 54 60  1  0  0  0  0
 55 60  1  0  0  0  0
 56 60  1  0  0  0  0
 57 75  1  0  0  0  0
 58 60  1  0  0  0  0
 58 72  1  0  0  0  0
 59 75  1  0  0  0  0
 61 65  1  0  0  0  0
M  CHG  2  74   1  75   1
M  ISO  4  30 101  35 100  73 100  82 101
M  END
> <Batch ID>
0186

> <Smiles>
CNC(C)C(=O)NC(C(=O)N1Cc2cc([101O:1][101c:1]3nc(C)nc(NC4CNCC4[100NH:0][100C:0](=O)N4CCCC(n5nc(-c6ccc(Oc7ccc(F)cc7F)cc6)c(C(N)=O)c5N)C4)n3)ccc2CC1C(=O)NC1CCCc2ccccc21)C(C)(C)C

> <Shape>
0.220

> <Color>
0.074

> <Negative vol penalty>
0.000

$$$$

  -OEChem-04052323143D

 84 93  0     1  0  0  0  0  0999 V2000
  -27.6833  -37.5739   18.7110 C   0  0  0  0  0  0  0  0  0  0  0  0
  -28.1563  -36.2686   18.6227 C   0  0  0  0  0  0  0  0  0  0  0  0
  -24.8389  -10.0794   23.3484 C   0  0  0  0  0  0  0  0  0  0  0  0
  -24.0479   -9.1096   21.2818 C   0  0  0  0  0  0  0  0  0  0  0  0
  -26.8163  -37.9317   19.7426 C   0  0  0  0  0  0  0  0  0  0  0  0
  -27.7633  -35.3205   19.5667 C   0  0  0  0  0  0  0  0  0  0  0  0
  -26.7927  -29.3506   18.6051 C   0  0  0  0  0  0  0  0  0  0  0  0
  -23.8950   -9.3371   24.0580 C   0  0  0  0  0  0  0  0  0  0  0  0
  -23.1040   -8.3672   21.9914 C   0  0  0  0  0  0  0  0  0  0  0  0
  -27.5866  -28.2248   18.8196 C   0  0  0  0  0  0  0  0  0  0  0  0
  -23.0439   -5.5503   23.8573 C   0  0  0  0  0  0  0  0  0  0  0  0
  -22.8972   -4.2037   23.5244 C   0  0  0  0  0  0  0  0  0  0  0  0
  -26.5023  -27.8728   20.9456 C   0  0  0  0  0  0  0  0  0  0  0  0
  -20.5809   -4.5956   22.9599 C   0  0  0  0  0  0  0  0  0  0  0  0
  -24.9154   -9.9657   21.9602 C   0  0  0  0  0  0  0  0  0  0  0  0
  -27.2051  -10.3490   20.9030 C   0  0  0  0  0  0  0  0  0  0  0  0
  -26.4049  -36.9852   20.6941 C   0  0  0  0  0  0  0  0  0  0  0  0
  -25.8537  -29.7530   19.5657 C   0  0  0  0  0  0  0  0  0  0  0  0
  -26.8911  -35.6663   20.6128 C   0  0  0  0  0  0  0  0  0  0  0  0
  -25.6960  -29.0026   20.7397 C   0  0  0  0  0  0  0  0  0  0  0  0
  -23.0276   -8.4810   23.3796 C   0  0  0  0  0  0  0  0  0  0  0  0
  -27.4435  -27.4873   19.9913 C   0  0  0  0  0  0  0  0  0  0  0  0
  -21.9591   -6.4195   23.7416 C   0  0  0  0  0  0  0  0  0  0  0  0
  -21.6657   -3.7264   23.0757 C   0  0  0  0  0  0  0  0  0  0  0  0
  -20.7277   -5.9422   23.2928 C   0  0  0  0  0  0  0  0  0  0  0  0
  -25.8898  -10.7327   21.2266 C   0  0  0  0  0  0  0  0  0  0  0  0
  -27.7129  -11.4181   20.2060 C   0  0  0  0  0  0  0  0  0  0  0  0
  -28.9587  -24.5700   21.5538 C   0  0  0  0  0  0  0  0  0  0  0  0
  -29.8501  -22.7087   21.2403 C   0  0  0  0  0  0  0  0  0  0  0  0
  -27.9052   -9.1349   21.2053 C   0  0  0  0  0  0  0  0  0  0  0  0
  -25.4484  -32.3471   21.3574 C   0  0  0  0  0  0  0  0  0  0  0  0
  -22.6864  -30.8641   22.1909 C   0  0  0  0  0  0  0  0  0  0  0  0
  -20.9436  -27.9462   22.4995 C   0  0  0  0  0  0  0  0  0  0  0  0
  -28.5494  -16.6646   19.4448 C   0  0  0  0  0  0  0  0  0  0  0  0
  -25.5039  -37.4306   21.8186 C   0  0  0  0  0  0  0  0  0  0  0  0
  -24.9864  -30.9544   19.3073 C   0  0  0  0  0  0  0  0  0  0  0  0
  -24.6882  -29.3808   21.7932 C   0  0  0  0  0  0  0  0  0  0  0  0
  -24.8396  -36.2741   22.5613 C   0  0  0  0  0  0  0  0  0  0  0  0
  -25.4350  -15.5082   18.3082 C   0  0  0  0  0  0  0  0  0  0  0  0
  -25.8623  -35.1895   22.8844 C   0  0  0  0  0  0  0  0  0  0  0  0
  -25.3766  -14.1194   18.9439 C   0  0  0  0  0  0  0  0  0  0  0  0
  -28.3206  -19.9842   20.5923 C   0  0  0  0  0  0  0  0  0  0  0  0
  -30.4760  -19.5431   19.3563 C   0  0  0  0  0  0  0  0  0  0  0  0
  -26.0243  -16.5502   19.2606 C   0  0  0  0  0  0  0  0  0  0  0  0
  -27.6037  -19.0072   19.6556 C   0  0  0  0  0  0  0  0  0  0  0  0
  -29.7135  -18.6001   18.4298 C   0  0  0  0  0  0  0  0  0  0  0  0
  -27.2858  -14.7876   20.4524 C   0  0  0  0  0  0  0  0  0  0  0  0
  -26.4681  -34.6033   21.6034 C   0  0  1  0  0  0  0  0  0  0  0  0
  -24.4214  -31.5693   20.5840 C   0  0  1  0  0  0  0  0  0  0  0  0
  -26.7520  -13.7076   19.4986 C   0  0  1  0  0  0  0  0  0  0  0  0
  -29.5405  -20.6167   19.9183 C   0  0  0  0  0  0  0  0  0  0  0  0
  -18.7219  -27.0479   23.2442 C   0  0  0  0  0  0  0  0  0  0  0  0
  -23.5247  -31.2127   25.1039 C   0  0  0  0  0  0  0  0  0  0  0  0
  -21.8038  -29.5058   25.7308 C   0  0  0  0  0  0  0  0  0  0  0  0
  -21.1025  -31.6452   24.6565 C   0  0  0  0  0  0  0  0  0  0  0  0
  -31.7714  -23.0429   22.8484 C   0  0  0  0  0  0  0  0  0  0  0  0
  -20.3450  -26.8718   19.8076 C   0  0  0  0  0  0  0  0  0  0  0  0
  -28.0100  -25.6832   21.4336 C   0  0  0  0  0  0  0  0  0  1  0  0
  -22.2797  -29.8894   23.2696 C   0  0  1  0  0  0  0  0  0  0  0  0
  -19.5397  -27.5611   22.0692 C   0  0  2  0  0  0  0  0  0  0  0  0
  -22.1981  -30.5570   24.6714 C   0  0  0  0  0  0  0  0  0  0  0  0
  -25.5814  -11.9504   20.7726 N   0  0  0  0  0  0  0  0  0  0  0  0
  -28.8177  -23.4142   20.8405 N   0  0  0  0  0  0  0  0  0  0  0  0
  -30.0134  -24.6240   22.3699 N   0  0  0  0  0  0  0  0  0  0  0  0
  -26.7101  -12.3412   20.1567 N   0  0  0  0  0  0  0  0  0  0  0  0
  -30.5666  -23.4216   22.1504 N   0  0  0  0  0  0  0  0  0  0  0  0
  -23.8681  -30.5671   21.4972 N   0  0  0  0  0  0  0  0  0  0  0  0
  -27.3157  -16.0956   19.7946 N   0  0  0  0  0  0  0  0  0  0  0  0
  -28.5491  -18.0256   19.1047 N   0  0  0  0  0  0  0  0  0  0  0  0
  -28.9149  -11.6491   19.6366 N   0  0  0  0  0  0  0  0  0  0  0  0
  -27.2349   -8.1397   21.9296 N   0  0  0  0  0  0  0  0  0  0  0  0
  -30.2520  -21.4364   20.8743 N   0  0  0  0  0  0  0  0  0  0  0  0
  -25.5450  -33.6748   20.9867 N   0  0  0  0  0  0  0  0  0  0  0  0
  -21.0300  -29.2839   22.8225 N   0  0  0  0  0  0  0  0  0  0  0  0
  -19.5907  -26.4938   21.0303 N   0  3  0  0  0  0  0  0  0  0  0  0
  -29.0955   -8.9449   20.8579 O   0  0  0  0  0  0  0  0  0  0  0  0
  -26.1034  -31.7847   22.2271 O   0  0  0  0  0  0  0  0  0  0  0  0
  -21.9779  -31.8487   21.9671 O   0  0  0  0  0  0  0  0  0  0  0  0
  -21.8701  -27.1400   22.5480 O   0  0  0  0  0  0  0  0  0  0  0  0
  -29.5906  -15.9960   19.4370 O   0  0  0  0  0  0  0  0  0  0  0  0
  -22.1065   -7.7563   24.0717 O   0  0  0  0  0  0  0  0  0  0  0  0
  -28.2208  -26.3837   20.2043 O   0  0  0  0  0  0  0  0  0  1  0  0
  -21.5254   -2.4336   22.7546 F   0  0  0  0  0  0  0  0  0  0  0  0
  -19.6822   -6.7728   23.1784 F   0  0  0  0  0  0  0  0  0  0  0  0
  1  2  1  0  0  0  0
  1  5  2  0  0  0  0
  2  6  2  0  0  0  0
  3  8  2  0  0  0  0
  3 15  1  0  0  0  0
  4  9  1  0  0  0  0
  4 15  2  0  0  0  0
  5 17  1  0  0  0  0
  6 19  1  0  0  0  0
  7 10  2  0  0  0  0
  7 18  1  0  0  0  0
  8 21  1  0  0  0  0
  9 21  2  0  0  0  0
 10 22  1  0  0  0  0
 11 12  2  0  0  0  0
 11 23  1  0  0  0  0
 12 24  1  0  0  0  0
 13 20  1  0  0  0  0
 13 22  2  0  0  0  0
 14 24  2  0  0  0  0
 14 25  1  0  0  0  0
 15 26  1  0  0  0  0
 16 26  1  0  0  0  0
 16 27  2  0  0  0  0
 16 30  1  0  0  0  0
 17 19  2  0  0  0  0
 17 35  1  0  0  0  0
 18 20  2  0  0  0  0
 18 36  1  0  0  0  0
 19 48  1  0  0  0  0
 20 37  1  0  0  0  0
 21 81  1  0  0  0  0
 22 82  1  0  0  0  0
 23 25  2  0  0  0  0
 23 81  1  0  0  0  0
 24 83  1  0  0  0  0
 25 84  1  0  0  0  0
 26 62  2  0  0  0  0
 27 65  1  0  0  0  0
 27 70  1  0  0  0  0
 28 58  1  0  0  0  0
 28 63  1  0  0  0  0
 28 64  2  0  0  0  0
 29 63  2  0  0  0  0
 29 66  1  0  0  0  0
 29 72  1  0  0  0  0
 30 71  1  0  0  0  0
 30 76  2  0  0  0  0
 31 49  1  0  0  0  0
 31 73  1  0  0  0  0
 31 77  2  0  0  0  0
 32 59  1  0  0  0  0
 32 67  1  0  0  0  0
 32 78  2  0  0  0  0
 33 60  1  0  0  0  0
 33 74  1  0  0  0  0
 33 79  2  0  0  0  0
 34 68  1  0  0  0  0
 34 69  1  0  0  0  0
 34 80  2  0  0  0  0
 35 38  1  0  0  0  0
 36 49  1  0  0  0  0
 37 67  1  0  0  0  0
 38 40  1  0  0  0  0
 39 41  1  0  0  0  0
 39 44  1  0  0  0  0
 40 48  1  0  0  0  0
 41 50  1  0  0  0  0
 42 45  1  0  0  0  0
 42 51  1  0  0  0  0
 43 46  1  0  0  0  0
 43 51  1  0  0  0  0
 44 68  1  0  0  0  0
 45 69  1  0  0  0  0
 46 69  1  0  0  0  0
 47 50  1  0  0  0  0
 47 68  1  0  0  0  0
 48 73  1  0  0  0  0
 49 67  1  0  0  0  0
 50 65  1  0  0  0  0
 51 72  1  0  0  0  0
 52 60  1  0  0  0  0
 53 61  1  0  0  0  0
 54 61  1  0  0  0  0
 55 61  1  0  0  0  0
 56 66  1  0  0  0  0
 57 75  1  0  0  0  0
 58 82  1  0  0  0  0
 59 61  1  0  0  0  0
 59 74  1  0  0  0  0
 60 75  1  0  0  0  0
 62 65  1  0  0  0  0
 64 66  1  0  0  0  0
M  CHG  1  75   1
M  ISO  4  34 100  58 101  69 100  82 101
M  END
> <Batch ID>
0186

> <Smiles>
CNC(C)C(=O)NC(C(=O)N1Cc2cc([101O:1][101CH2:1]c3nc(NC4CC[100N:0]([100C:0](=O)N5CCCC(n6nc(-c7ccc(Oc8ccc(F)cc8F)cc7)c(C(N)=O)c6N)C5)CC4)n(C)n3)ccc2CC1C(=O)NC1CCCc2ccccc21)C(C)(C)C

> <Shape>
0.292

> <Color>
0.090

> <Negative vol penalty>
0.000

$$$$

  -OEChem-04052323143D

 81 89  0     1  0  0  0  0  0999 V2000
  -42.9410  -24.6549   17.9518 C   0  0  0  0  0  0  0  0  0  0  0  0
  -41.9983  -23.7790   18.4806 C   0  0  0  0  0  0  0  0  0  0  0  0
  -23.0383   -9.8975   19.9889 C   0  0  0  0  0  0  0  0  0  0  0  0
  -23.8751   -9.9283   22.2551 C   0  0  0  0  0  0  0  0  0  0  0  0
  -42.8753  -26.0141   18.2553 C   0  0  0  0  0  0  0  0  0  0  0  0
  -40.9901  -24.2617   19.3141 C   0  0  0  0  0  0  0  0  0  0  0  0
  -35.2292  -22.2177   19.6881 C   0  0  0  0  0  0  0  0  0  0  0  0
  -22.3157   -8.7384   20.2714 C   0  0  0  0  0  0  0  0  0  0  0  0
  -23.1525   -8.7691   22.5377 C   0  0  0  0  0  0  0  0  0  0  0  0
  -34.5980  -21.3488   20.5771 C   0  0  0  0  0  0  0  0  0  0  0  0
  -21.8135   -5.6170   23.7548 C   0  0  0  0  0  0  0  0  0  0  0  0
  -22.4624   -4.6045   24.4614 C   0  0  0  0  0  0  0  0  0  0  0  0
  -33.8188  -23.2371   21.8601 C   0  0  0  0  0  0  0  0  0  0  0  0
  -24.1097   -4.4328   22.7023 C   0  0  0  0  0  0  0  0  0  0  0  0
  -23.8181  -10.4924   20.9807 C   0  0  0  0  0  0  0  0  0  0  0  0
  -24.1286  -13.0202   20.8327 C   0  0  0  0  0  0  0  0  0  0  0  0
  -41.8600  -26.5152   19.0852 C   0  0  0  0  0  0  0  0  0  0  0  0
  -35.1689  -23.6048   19.8848 C   0  0  0  0  0  0  0  0  0  0  0  0
  -40.9116  -25.6287   19.6301 C   0  0  0  0  0  0  0  0  0  0  0  0
  -34.4478  -24.1216   20.9707 C   0  0  0  0  0  0  0  0  0  0  0  0
  -22.3728   -8.1742   21.5458 C   0  0  0  0  0  0  0  0  0  0  0  0
  -33.8951  -21.8583   21.6650 C   0  0  0  0  0  0  0  0  0  0  0  0
  -22.3126   -6.0374   22.5219 C   0  0  0  0  0  0  0  0  0  0  0  0
  -23.6105   -4.0124   23.9352 C   0  0  0  0  0  0  0  0  0  0  0  0
  -23.4607   -5.4453   21.9957 C   0  0  0  0  0  0  0  0  0  0  0  0
  -24.5652  -11.6895   20.6893 C   0  0  0  0  0  0  0  0  0  0  0  0
  -25.1997  -13.7785   20.4277 C   0  0  0  0  0  0  0  0  0  0  0  0
  -22.8675  -13.5255   21.2910 C   0  0  0  0  0  0  0  0  0  0  0  0
  -37.3124  -25.8891   20.4244 C   0  0  0  0  0  0  0  0  0  0  0  0
  -34.7378  -27.8379   20.1144 C   0  0  0  0  0  0  0  0  0  0  0  0
  -31.3503  -28.2129   20.2896 C   0  0  0  0  0  0  0  0  0  0  0  0
  -30.8206  -14.5349   20.8685 C   0  0  0  0  0  0  0  0  0  0  0  0
  -41.8579  -27.9851   19.4230 C   0  0  0  0  0  0  0  0  0  0  0  0
  -35.8326  -24.5297   18.9018 C   0  0  0  0  0  0  0  0  0  0  0  0
  -34.3359  -25.6036   21.2151 C   0  0  0  0  0  0  0  0  0  0  0  0
  -40.5368  -28.4727   20.0123 C   0  0  0  0  0  0  0  0  0  0  0  0
  -29.4805  -12.4806   18.0890 C   0  0  0  0  0  0  0  0  0  0  0  0
  -40.0492  -27.5148   21.0946 C   0  0  0  0  0  0  0  0  0  0  0  0
  -28.0725  -12.1439   18.5766 C   0  0  0  0  0  0  0  0  0  0  0  0
  -31.5064  -17.3404   22.7908 C   0  0  0  0  0  0  0  0  0  0  0  0
  -29.4915  -17.7653   21.3273 C   0  0  0  0  0  0  0  0  0  0  0  0
  -30.4426  -12.7099   19.2504 C   0  0  0  0  0  0  0  0  0  0  0  0
  -31.0583  -15.8878   22.9296 C   0  0  0  0  0  0  0  0  0  0  0  0
  -29.0966  -16.2928   21.4738 C   0  0  0  0  0  0  0  0  0  0  0  0
  -28.5685  -13.4031   20.7097 C   0  0  0  0  0  0  0  0  0  0  0  0
  -39.7882  -26.1179   20.5182 C   0  0  1  0  0  0  0  0  0  0  0  0
  -36.1378  -25.9049   19.4875 C   0  0  1  0  0  0  0  0  0  0  0  0
  -27.5651  -13.2100   19.5627 C   0  0  2  0  0  0  0  0  0  0  0  0
  -30.3001  -18.2408   22.5324 C   0  0  0  0  0  0  0  0  0  0  0  0
  -29.5420  -29.9319   20.0194 C   0  0  0  0  0  0  0  0  0  0  0  0
  -29.9153  -20.8122   24.2512 C   0  0  0  0  0  0  0  0  0  0  0  0
  -35.4768  -29.0372   22.8210 C   0  0  0  0  0  0  0  0  0  0  0  0
  -33.1792  -30.0256   22.9321 C   0  0  0  0  0  0  0  0  0  0  0  0
  -34.7397  -30.7035   21.1079 C   0  0  0  0  0  0  0  0  0  0  0  0
  -30.0806  -26.6996   18.0858 C   0  0  0  0  0  0  0  0  0  0  0  0
  -29.7830  -20.4427   21.4909 C   0  0  0  0  0  0  0  0  0  0  0  0
  -32.1026  -21.4923   23.1845 C   0  0  0  0  0  0  0  0  0  1  0  0
  -33.7016  -28.3987   21.0583 C   0  0  1  0  0  0  0  0  0  0  0  0
  -30.3561  -28.8461   19.3329 C   0  0  2  0  0  0  0  0  0  0  0  0
  -31.1780  -20.3369   23.5509 C   0  0  2  0  0  0  0  0  0  0  0  0
  -34.2779  -29.5132   21.9766 C   0  0  0  0  0  0  0  0  0  0  0  0
  -25.8162  -11.6041   20.2291 N   0  0  0  0  0  0  0  0  0  0  0  0
  -26.1747  -12.8906   20.0797 N   0  0  0  0  0  0  0  0  0  0  0  0
  -35.0073  -26.4668   20.2294 N   0  0  0  0  0  0  0  0  0  0  0  0
  -29.9175  -13.6920   20.1991 N   0  0  0  0  0  0  0  0  0  0  0  0
  -30.2750  -15.4637   21.7675 N   0  0  0  0  0  0  0  0  0  0  0  0
  -25.3933  -15.1116   20.3389 N   0  0  0  0  0  0  0  0  0  0  0  0
  -21.8774  -12.6081   21.6683 N   0  0  0  0  0  0  0  0  0  0  0  0
  -38.5300  -26.0930   19.8036 N   0  0  0  0  0  0  0  0  0  0  0  0
  -32.5824  -28.8286   20.2271 N   0  0  0  0  0  0  0  0  0  0  0  0
  -29.4164  -27.8165   18.8060 N   0  3  0  0  0  0  0  0  0  0  0  0
  -30.7738  -19.6268   22.2831 N   0  3  1  0  0  0  0  0  0  0  0  0
  -22.6202  -14.7539   21.3482 O   0  0  0  0  0  0  0  0  0  0  0  0
  -37.1275  -25.7069   21.6220 O   0  0  0  0  0  0  0  0  0  0  0  0
  -35.2827  -28.5874   19.3001 O   0  0  0  0  0  0  0  0  0  0  0  0
  -31.0615  -27.2691   21.0219 O   0  0  0  0  0  0  0  0  0  0  0  0
  -32.0401  -14.4621   20.6718 O   0  0  0  0  0  0  0  0  0  0  0  0
  -21.6676   -7.0433   21.8220 O   0  0  0  0  0  0  0  0  0  0  0  0
  -33.2746  -21.0066   22.5405 O   0  0  0  0  0  0  0  0  0  1  0  0
  -24.2345   -3.0412   24.6145 F   0  0  0  0  0  0  0  0  0  0  0  0
  -23.9456   -5.8457   20.8123 F   0  0  0  0  0  0  0  0  0  0  0  0
  1  2  1  0  0  0  0
  1  5  2  0  0  0  0
  2  6  2  0  0  0  0
  3  8  2  0  0  0  0
  3 15  1  0  0  0  0
  4  9  1  0  0  0  0
  4 15  2  0  0  0  0
  5 17  1  0  0  0  0
  6 19  1  0  0  0  0
  7 10  2  0  0  0  0
  7 18  1  0  0  0  0
  8 21  1  0  0  0  0
  9 21  2  0  0  0  0
 10 22  1  0  0  0  0
 11 12  2  0  0  0  0
 11 23  1  0  0  0  0
 12 24  1  0  0  0  0
 13 20  1  0  0  0  0
 13 22  2  0  0  0  0
 14 24  2  0  0  0  0
 14 25  1  0  0  0  0
 15 26  1  0  0  0  0
 16 26  1  0  0  0  0
 16 27  2  0  0  0  0
 16 28  1  0  0  0  0
 17 19  2  0  0  0  0
 17 33  1  0  0  0  0
 18 20  2  0  0  0  0
 18 34  1  0  0  0  0
 19 46  1  0  0  0  0
 20 35  1  0  0  0  0
 21 78  1  0  0  0  0
 22 79  1  0  0  0  0
 23 25  2  0  0  0  0
 23 78  1  0  0  0  0
 24 80  1  0  0  0  0
 25 81  1  0  0  0  0
 26 62  2  0  0  0  0
 27 63  1  0  0  0  0
 27 67  1  0  0  0  0
 28 68  1  0  0  0  0
 28 73  2  0  0  0  0
 29 47  1  0  0  0  0
 29 69  1  0  0  0  0
 29 74  2  0  0  0  0
 30 58  1  0  0  0  0
 30 64  1  0  0  0  0
 30 75  2  0  0  0  0
 31 59  1  0  0  0  0
 31 70  1  0  0  0  0
 31 76  2  0  0  0  0
 32 65  1  0  0  0  0
 32 66  1  0  0  0  0
 32 77  2  0  0  0  0
 33 36  1  0  0  0  0
 34 47  1  0  0  0  0
 35 64  1  0  0  0  0
 36 38  1  0  0  0  0
 37 39  1  0  0  0  0
 37 42  1  0  0  0  0
 38 46  1  0  0  0  0
 39 48  1  0  0  0  0
 40 43  1  0  0  0  0
 40 49  1  0  0  0  0
 41 44  1  0  0  0  0
 41 49  1  0  0  0  0
 42 65  1  0  0  0  0
 43 66  1  0  0  0  0
 44 66  1  0  0  0  0
 45 48  1  0  0  0  0
 45 65  1  0  0  0  0
 46 69  1  0  0  0  0
 47 64  1  0  0  0  0
 48 63  1  0  0  0  0
 49 72  1  0  0  0  0
 50 59  1  0  0  0  0
 51 60  1  0  0  0  0
 52 61  1  0  0  0  0
 53 61  1  0  0  0  0
 54 61  1  0  0  0  0
 55 71  1  0  0  0  0
 56 72  1  0  0  0  0
 57 60  1  0  0  0  0
 57 79  1  0  0  0  0
 58 61  1  0  0  0  0
 58 70  1  0  0  0  0
 59 71  1  0  0  0  0
 60 72  1  0  0  0  0
 62 63  1  0  0  0  0
M  CHG  2  71   1  72   1
M  ISO  4  32 100  57 101  66 100  79 101
M  END
> <Batch ID>
0186

> <Smiles>
CNC(C)C(=O)NC(C(=O)N1Cc2cc([101O:1][101CH2:1]C(C)N(C)C3CC[100N:0]([100C:0](=O)N4CCCC(n5nc(-c6ccc(Oc7ccc(F)cc7F)cc6)c(C(N)=O)c5N)C4)CC3)ccc2CC1C(=O)NC1CCCc2ccccc21)C(C)(C)C

> <Shape>
0.201

> <Color>
0.188

> <Negative vol penalty>
0.000

$$$$

  -OEChem-04052323143D

 83 92  0     1  0  0  0  0  0999 V2000
  -28.3596  -36.9810   21.7083 C   0  0  0  0  0  0  0  0  0  0  0  0
  -28.5708  -35.6195   21.9008 C   0  0  0  0  0  0  0  0  0  0  0  0
  -24.5233   -9.1124   21.5495 C   0  0  0  0  0  0  0  0  0  0  0  0
  -24.2091  -10.5862   23.4380 C   0  0  0  0  0  0  0  0  0  0  0  0
  -27.1238  -37.5448   22.0225 C   0  0  0  0  0  0  0  0  0  0  0  0
  -27.5466  -34.8212   22.4088 C   0  0  0  0  0  0  0  0  0  0  0  0
  -27.0556  -30.4553   19.8902 C   0  0  0  0  0  0  0  0  0  0  0  0
  -24.1981   -8.0174   22.3499 C   0  0  0  0  0  0  0  0  0  0  0  0
  -23.8839   -9.4911   24.2385 C   0  0  0  0  0  0  0  0  0  0  0  0
  -27.9745  -29.4472   20.1784 C   0  0  0  0  0  0  0  0  0  0  0  0
  -21.3983   -6.5764   23.5817 C   0  0  0  0  0  0  0  0  0  0  0  0
  -20.5174   -5.6299   23.0585 C   0  0  0  0  0  0  0  0  0  0  0  0
  -26.3475  -28.3801   21.6044 C   0  0  0  0  0  0  0  0  0  0  0  0
  -22.2152   -3.9257   23.2832 C   0  0  0  0  0  0  0  0  0  0  0  0
  -28.4298  -19.9854   19.3955 C   0  0  0  0  0  0  0  0  0  0  0  0
  -24.5289  -10.3968   22.0936 C   0  0  0  0  0  0  0  0  0  0  0  0
  -23.9825  -12.3170   20.5054 C   0  0  0  0  0  0  0  0  0  0  0  0
  -26.0808  -36.7513   22.5254 C   0  0  0  0  0  0  0  0  0  0  0  0
  -25.7773  -30.4392   20.4665 C   0  0  0  0  0  0  0  0  0  0  0  0
  -26.2961  -35.3752   22.7313 C   0  0  0  0  0  0  0  0  0  0  0  0
  -25.4134  -29.3879   21.3199 C   0  0  0  0  0  0  0  0  0  0  0  0
  -23.8784   -8.2067   23.6944 C   0  0  0  0  0  0  0  0  0  0  0  0
  -27.6216  -28.4109   21.0379 C   0  0  0  0  0  0  0  0  0  0  0  0
  -22.6876   -6.1976   23.9556 C   0  0  0  0  0  0  0  0  0  0  0  0
  -20.9259   -4.3045   22.9093 C   0  0  0  0  0  0  0  0  0  0  0  0
  -23.0961   -4.8723   23.8064 C   0  0  0  0  0  0  0  0  0  0  0  0
  -24.8653  -11.5284   21.2674 C   0  0  0  0  0  0  0  0  0  0  0  0
  -27.6409  -21.1356   19.2042 C   0  0  0  0  0  0  0  0  0  0  0  0
  -27.5365  -19.0172   19.7844 C   0  0  0  0  0  0  0  0  0  0  0  0
  -24.7885  -13.2553   19.9084 C   0  0  0  0  0  0  0  0  0  0  0  0
  -22.5611  -12.2109   20.3511 C   0  0  0  0  0  0  0  0  0  0  0  0
  -24.1717  -32.3683   22.4170 C   0  0  0  0  0  0  0  0  0  0  0  0
  -21.7351  -30.3150   21.8092 C   0  0  0  0  0  0  0  0  0  0  0  0
  -20.7494  -27.1910   20.8523 C   0  0  0  0  0  0  0  0  0  0  0  0
  -28.9433  -16.9557   20.1275 C   0  0  0  0  0  0  0  0  0  0  0  0
  -24.7775  -37.4143   22.8950 C   0  0  0  0  0  0  0  0  0  0  0  0
  -24.7885  -31.5198   20.1245 C   0  0  0  0  0  0  0  0  0  0  0  0
  -24.0467  -29.3136   21.9485 C   0  0  0  0  0  0  0  0  0  0  0  0
  -23.6239  -36.4312   23.0764 C   0  0  0  0  0  0  0  0  0  0  0  0
  -29.8325  -13.5485   19.6007 C   0  0  0  0  0  0  0  0  0  0  0  0
  -24.0621  -35.2457   23.9305 C   0  0  0  0  0  0  0  0  0  0  0  0
  -28.5468  -12.7841   19.9247 C   0  0  0  0  0  0  0  0  0  0  0  0
  -29.8609  -25.3817   20.6774 C   0  0  0  0  0  0  0  0  0  0  0  0
  -28.0375  -25.6328   19.5962 C   0  0  0  0  0  0  0  0  0  0  0  0
  -30.0235  -14.7527   20.5211 C   0  0  0  0  0  0  0  0  0  0  0  0
  -27.5955  -14.9089   20.9082 C   0  0  0  0  0  0  0  0  0  0  0  0
  -25.2017  -34.4717   23.2569 C   0  0  1  0  0  0  0  0  0  0  0  0
  -23.6907  -31.6784   21.1718 C   0  0  1  0  0  0  0  0  0  0  0  0
  -27.3267  -13.7249   19.9649 C   0  0  2  0  0  0  0  0  0  0  0  0
  -29.1957  -24.6177   19.5143 C   0  0  0  0  0  0  0  0  0  0  0  0
  -29.0349  -26.6186   20.2512 C   0  0  0  0  0  0  0  0  0  1  0  0
  -18.6930  -25.7999   20.4866 C   0  0  0  0  0  0  0  0  0  0  0  0
  -21.4165  -29.9967   24.8270 C   0  0  0  0  0  0  0  0  0  0  0  0
  -20.0501  -27.9436   24.3961 C   0  0  0  0  0  0  0  0  0  0  0  0
  -19.2652  -30.1597   23.5624 C   0  0  0  0  0  0  0  0  0  0  0  0
  -25.0484  -19.0189   20.1487 C   0  0  0  0  0  0  0  0  0  0  0  0
  -21.3849  -26.7959   17.9890 C   0  0  0  0  0  0  0  0  0  0  0  0
  -28.1008  -22.4978   18.7753 C   0  0  0  0  0  0  0  0  0  0  0  0
  -21.2316  -29.0378   22.4370 C   0  0  1  0  0  0  0  0  0  0  0  0
  -19.7140  -26.7261   19.8442 C   0  0  2  0  0  0  0  0  0  0  0  0
  -20.5174  -29.2866   23.7955 C   0  0  0  0  0  0  0  0  0  0  0  0
  -26.1349  -11.9306   21.1654 N   0  0  0  0  0  0  0  0  0  0  0  0
  -26.3461  -20.9197   19.4510 N   0  0  0  0  0  0  0  0  0  0  0  0
  -26.0558  -12.9821   20.3323 N   0  0  0  0  0  0  0  0  0  0  0  0
  -26.3145  -19.6227   19.8014 N   0  0  0  0  0  0  0  0  0  0  0  0
  -23.1172  -30.3970   21.5881 N   0  0  0  0  0  0  0  0  0  0  0  0
  -28.8297  -15.6010   20.5050 N   0  0  0  0  0  0  0  0  0  0  0  0
  -24.5298  -14.2790   19.0673 N   0  0  0  0  0  0  0  0  0  0  0  0
  -21.8891  -11.1891   21.0358 N   0  0  0  0  0  0  0  0  0  0  0  0
  -27.7367  -17.6548   20.1181 N   0  0  0  0  0  0  0  0  0  0  0  0
  -24.6853  -33.6322   22.1972 N   0  0  0  0  0  0  0  0  0  0  0  0
  -20.3952  -28.3910   21.4318 N   0  0  0  0  0  0  0  0  0  0  0  0
  -28.8007  -23.2494   19.8626 N   0  3  0  0  0  0  0  0  0  0  0  0
  -20.3726  -25.9953   18.7248 N   0  3  0  0  0  0  0  0  0  0  0  0
  -21.9083  -12.9887   19.6146 O   0  0  0  0  0  0  0  0  0  0  0  0
  -24.0821  -31.7968   23.4973 O   0  0  0  0  0  0  0  0  0  0  0  0
  -20.9309  -31.2041   21.5190 O   0  0  0  0  0  0  0  0  0  0  0  0
  -21.7685  -26.5516   21.1036 O   0  0  0  0  0  0  0  0  0  0  0  0
  -30.0267  -17.4517   19.8077 O   0  0  0  0  0  0  0  0  0  0  0  0
  -23.5607   -7.1384   24.4756 O   0  0  0  0  0  0  0  0  0  0  0  0
  -28.5168  -27.4260   21.3214 O   0  0  0  0  0  0  0  0  0  1  0  0
  -20.0794   -3.3954   22.4082 F   0  0  0  0  0  0  0  0  0  0  0  0
  -24.3332   -4.5022   24.1649 F   0  0  0  0  0  0  0  0  0  0  0  0
  1  2  1  0  0  0  0
  1  5  2  0  0  0  0
  2  6  2  0  0  0  0
  3  8  2  0  0  0  0
  3 16  1  0  0  0  0
  4  9  1  0  0  0  0
  4 16  2  0  0  0  0
  5 18  1  0  0  0  0
  6 20  1  0  0  0  0
  7 10  2  0  0  0  0
  7 19  1  0  0  0  0
  8 22  1  0  0  0  0
  9 22  2  0  0  0  0
 10 23  1  0  0  0  0
 11 12  2  0  0  0  0
 11 24  1  0  0  0  0
 12 25  1  0  0  0  0
 13 21  1  0  0  0  0
 13 23  2  0  0  0  0
 14 25  2  0  0  0  0
 14 26  1  0  0  0  0
 15 28  1  0  0  0  0
 15 29  2  0  0  0  0
 16 27  1  0  0  0  0
 17 27  1  0  0  0  0
 17 30  2  0  0  0  0
 17 31  1  0  0  0  0
 18 20  2  0  0  0  0
 18 36  1  0  0  0  0
 19 21  2  0  0  0  0
 19 37  1  0  0  0  0
 20 47  1  0  0  0  0
 21 38  1  0  0  0  0
 22 80  1  0  0  0  0
 23 81  1  0  0  0  0
 24 26  2  0  0  0  0
 24 80  1  0  0  0  0
 25 82  1  0  0  0  0
 26 83  1  0  0  0  0
 27 62  2  0  0  0  0
 28 58  1  0  0  0  0
 28 63  2  0  0  0  0
 29 65  1  0  0  0  0
 29 70  1  0  0  0  0
 30 64  1  0  0  0  0
 30 68  1  0  0  0  0
 31 69  1  0  0  0  0
 31 75  2  0  0  0  0
 32 48  1  0  0  0  0
 32 71  1  0  0  0  0
 32 76  2  0  0  0  0
 33 59  1  0  0  0  0
 33 66  1  0  0  0  0
 33 77  2  0  0  0  0
 34 60  1  0  0  0  0
 34 72  1  0  0  0  0
 34 78  2  0  0  0  0
 35 67  1  0  0  0  0
 35 70  1  0  0  0  0
 35 79  2  0  0  0  0
 36 39  1  0  0  0  0
 37 48  1  0  0  0  0
 38 66  1  0  0  0  0
 39 41  1  0  0  0  0
 40 42  1  0  0  0  0
 40 45  1  0  0  0  0
 41 47  1  0  0  0  0
 42 49  1  0  0  0  0
 43 50  1  0  0  0  0
 43 51  1  0  0  0  0
 44 50  1  0  0  0  0
 44 51  1  0  0  0  0
 45 67  1  0  0  0  0
 46 49  1  0  0  0  0
 46 67  1  0  0  0  0
 47 71  1  0  0  0  0
 48 66  1  0  0  0  0
 49 64  1  0  0  0  0
 50 73  1  0  0  0  0
 51 81  1  0  0  0  0
 52 60  1  0  0  0  0
 53 61  1  0  0  0  0
 54 61  1  0  0  0  0
 55 61  1  0  0  0  0
 56 65  1  0  0  0  0
 57 74  1  0  0  0  0
 58 73  1  0  0  0  0
 59 61  1  0  0  0  0
 59 72  1  0  0  0  0
 60 74  1  0  0  0  0
 62 64  1  0  0  0  0
 63 65  1  0  0  0  0
M  CHG  2  73   1  74   1
M  ISO  4  35 100  51 101  70 100  81 101
M  END
> <Batch ID>
0186

> <Smiles>
CNC(C)C(=O)NC(C(=O)N1Cc2cc([101O:1][101CH:1]3CC(NCc4cc([100NH:0][100C:0](=O)N5CCCC(n6nc(-c7ccc(Oc8ccc(F)cc8F)cc7)c(C(N)=O)c6N)C5)n(C)n4)C3)ccc2CC1C(=O)NC1CCCc2ccccc21)C(C)(C)C

> <Shape>
0.346

> <Color>
0.100

> <Negative vol penalty>
0.000

$$$$

  -OEChem-04052323143D

 86 94  0     1  0  0  0  0  0999 V2000
  -32.5770  -27.2143   18.3129 C   0  0  0  0  0  0  0  0  0  0  0  0
  -31.7592  -26.3420   19.0241 C   0  0  0  0  0  0  0  0  0  0  0  0
  -24.2262   -9.4669   21.5315 C   0  0  0  0  0  0  0  0  0  0  0  0
  -24.6799  -10.6255   23.6025 C   0  0  0  0  0  0  0  0  0  0  0  0
  -32.4486  -28.5909   18.4924 C   0  0  0  0  0  0  0  0  0  0  0  0
  -30.8133  -26.8459   19.9160 C   0  0  0  0  0  0  0  0  0  0  0  0
  -26.3152  -24.5620   19.4730 C   0  0  0  0  0  0  0  0  0  0  0  0
  -23.8380   -8.3357   22.2494 C   0  0  0  0  0  0  0  0  0  0  0  0
  -24.2917   -9.4942   24.3204 C   0  0  0  0  0  0  0  0  0  0  0  0
  -26.1811  -23.3017   20.0540 C   0  0  0  0  0  0  0  0  0  0  0  0
  -22.3843   -5.2652   23.5433 C   0  0  0  0  0  0  0  0  0  0  0  0
  -21.2182   -4.6124   23.1440 C   0  0  0  0  0  0  0  0  0  0  0  0
  -25.0726  -24.3002   21.9496 C   0  0  0  0  0  0  0  0  0  0  0  0
  -19.9494   -6.6266   23.5563 C   0  0  0  0  0  0  0  0  0  0  0  0
  -24.6472  -10.6118   22.2081 C   0  0  0  0  0  0  0  0  0  0  0  0
  -24.2289  -12.8463   21.0507 C   0  0  0  0  0  0  0  0  0  0  0  0
  -31.4940  -29.1123   19.3798 C   0  0  0  0  0  0  0  0  0  0  0  0
  -25.8380  -25.7040   20.1321 C   0  0  0  0  0  0  0  0  0  0  0  0
  -30.6729  -28.2308   20.1086 C   0  0  0  0  0  0  0  0  0  0  0  0
  -25.1996  -25.5735   21.3737 C   0  0  0  0  0  0  0  0  0  0  0  0
  -27.8983  -18.9979   23.3998 C   0  0  0  0  0  0  0  0  0  0  0  0
  -23.8707   -8.3494   23.6438 C   0  0  0  0  0  0  0  0  0  0  0  0
  -25.5623  -23.1710   21.2938 C   0  0  0  0  0  0  0  0  0  0  0  0
  -22.3330   -6.5988   23.9492 C   0  0  0  0  0  0  0  0  0  0  0  0
  -20.0007   -5.2931   23.1505 C   0  0  0  0  0  0  0  0  0  0  0  0
  -21.1155   -7.2795   23.9556 C   0  0  0  0  0  0  0  0  0  0  0  0
  -25.0488  -11.7804   21.4671 C   0  0  0  0  0  0  0  0  0  0  0  0
  -27.3557  -20.2630   23.3020 C   0  0  0  0  0  0  0  0  0  0  0  0
  -29.2002  -18.8711   22.9602 C   0  0  0  0  0  0  0  0  0  0  0  0
  -25.0808  -13.6967   20.3893 C   0  0  0  0  0  0  0  0  0  0  0  0
  -29.2853  -21.0771   22.4184 C   0  0  0  0  0  0  0  0  0  0  0  0
  -22.8229  -13.0495   21.2445 C   0  0  0  0  0  0  0  0  0  0  0  0
  -27.1683  -28.3560   21.2727 C   0  0  0  0  0  0  0  0  0  0  0  0
  -24.0845  -29.2057   21.8117 C   0  0  0  0  0  0  0  0  0  0  0  0
  -20.8565  -28.2247   22.3255 C   0  0  0  0  0  0  0  0  0  0  0  0
  -30.9849  -14.6329   20.7306 C   0  0  0  0  0  0  0  0  0  0  0  0
  -31.4245  -30.6061   19.5757 C   0  0  0  0  0  0  0  0  0  0  0  0
  -25.9666  -27.0532   19.4798 C   0  0  0  0  0  0  0  0  0  0  0  0
  -24.6520  -26.7659   22.1131 C   0  0  0  0  0  0  0  0  0  0  0  0
  -30.1421  -31.0716   20.2606 C   0  0  0  0  0  0  0  0  0  0  0  0
  -29.1281  -13.7054   17.8377 C   0  0  0  0  0  0  0  0  0  0  0  0
  -29.8398  -30.2010   21.4761 C   0  0  0  0  0  0  0  0  0  0  0  0
  -27.7981  -13.2030   18.4023 C   0  0  0  0  0  0  0  0  0  0  0  0
  -30.3020  -13.3282   18.7386 C   0  0  0  0  0  0  0  0  0  0  0  0
  -28.8287  -13.2376   20.7121 C   0  0  0  0  0  0  0  0  0  0  0  0
  -29.6180  -28.7399   21.0668 C   0  0  1  0  0  0  0  0  0  0  0  0
  -25.9032  -28.2070   20.4759 C   0  0  1  0  0  0  0  0  0  0  0  0
  -27.6089  -13.6422   19.8667 C   0  0  2  0  0  0  0  0  0  0  0  0
  -30.0556  -22.2317   21.8735 C   0  0  0  0  0  0  0  0  0  0  0  0
  -25.8498  -15.7255   23.3988 C   0  0  0  0  0  0  0  0  0  0  0  0
  -18.5654  -29.1454   22.7737 C   0  0  0  0  0  0  0  0  0  0  0  0
  -24.8711  -29.7456   24.7100 C   0  0  0  0  0  0  0  0  0  0  0  0
  -22.4380  -29.7291   25.3003 C   0  0  0  0  0  0  0  0  0  0  0  0
  -23.3237  -31.4403   23.7159 C   0  0  0  0  0  0  0  0  0  0  0  0
  -19.7747  -27.0637   19.8274 C   0  0  0  0  0  0  0  0  0  0  0  0
  -27.1213  -17.8512   23.9455 C   0  0  0  0  0  0  0  0  0  0  0  0
  -25.9388  -20.5249   23.7516 C   0  0  0  0  0  0  0  0  0  0  0  0
  -26.6132  -16.9146   22.8375 C   0  0  0  0  0  0  0  0  0  0  0  0
  -31.1537  -17.3597   22.6068 C   0  0  0  0  0  0  0  0  0  0  0  0
  -31.5275  -15.8974   22.7959 C   0  0  0  0  0  0  0  0  0  0  0  0
  -25.4257  -21.8843   23.2892 C   0  0  0  0  0  0  0  0  0  1  0  0
  -23.1138  -29.0383   22.9557 C   0  0  1  0  0  0  0  0  0  0  0  0
  -19.5511  -28.6925   21.7078 C   0  0  2  0  0  0  0  0  0  0  0  0
  -23.4486  -29.9659   24.1577 C   0  0  0  0  0  0  0  0  0  0  0  0
  -26.3237  -11.9370   21.1008 N   0  0  0  0  0  0  0  0  0  0  0  0
  -28.0232  -21.3293   22.8145 N   0  0  0  0  0  0  0  0  0  0  0  0
  -29.9261  -19.8934   22.4617 N   0  0  0  0  0  0  0  0  0  0  0  0
  -26.3113  -13.1112   20.4472 N   0  0  0  0  0  0  0  0  0  0  0  0
  -24.8076  -28.0644   21.4369 N   0  0  0  0  0  0  0  0  0  0  0  0
  -30.0605  -13.7744   20.1128 N   0  0  0  0  0  0  0  0  0  0  0  0
  -24.8900  -14.8808   19.7696 N   0  0  0  0  0  0  0  0  0  0  0  0
  -22.0978  -12.0771   21.9465 N   0  0  0  0  0  0  0  0  0  0  0  0
  -29.8134  -17.5961   23.0348 N   0  0  0  0  0  0  0  0  0  0  0  0
  -28.2963  -28.5680   20.5031 N   0  0  0  0  0  0  0  0  0  0  0  0
  -21.7827  -29.2438   22.3949 N   0  0  0  0  0  0  0  0  0  0  0  0
  -30.6770  -15.0128   22.0311 N   0  0  0  0  0  0  0  0  0  0  0  0
  -18.9238  -27.5899   20.9256 N   0  3  0  0  0  0  0  0  0  0  0  0
  -22.2242  -14.0555   20.7939 O   0  0  0  0  0  0  0  0  0  0  0  0
  -27.1242  -28.2854   22.4953 O   0  0  0  0  0  0  0  0  0  0  0  0
  -24.1920  -30.3068   21.2660 O   0  0  0  0  0  0  0  0  0  0  0  0
  -21.0352  -27.0717   22.7116 O   0  0  0  0  0  0  0  0  0  0  0  0
  -32.0061  -15.0354   20.1631 O   0  0  0  0  0  0  0  0  0  0  0  0
  -23.4918   -7.2458   24.3446 O   0  0  0  0  0  0  0  0  0  0  0  0
  -25.4306  -21.9421   21.8634 O   0  0  0  0  0  0  0  0  0  1  0  0
  -18.8812   -4.6664   22.7655 F   0  0  0  0  0  0  0  0  0  0  0  0
  -21.0601   -8.5610   24.3434 F   0  0  0  0  0  0  0  0  0  0  0  0
  1  2  1  0  0  0  0
  1  5  2  0  0  0  0
  2  6  2  0  0  0  0
  3  8  2  0  0  0  0
  3 15  1  0  0  0  0
  4  9  1  0  0  0  0
  4 15  2  0  0  0  0
  5 17  1  0  0  0  0
  6 19  1  0  0  0  0
  7 10  2  0  0  0  0
  7 18  1  0  0  0  0
  8 22  1  0  0  0  0
  9 22  2  0  0  0  0
 10 23  1  0  0  0  0
 11 12  2  0  0  0  0
 11 24  1  0  0  0  0
 12 25  1  0  0  0  0
 13 20  1  0  0  0  0
 13 23  2  0  0  0  0
 14 25  2  0  0  0  0
 14 26  1  0  0  0  0
 15 27  1  0  0  0  0
 16 27  1  0  0  0  0
 16 30  2  0  0  0  0
 16 32  1  0  0  0  0
 17 19  2  0  0  0  0
 17 37  1  0  0  0  0
 18 20  2  0  0  0  0
 18 38  1  0  0  0  0
 19 46  1  0  0  0  0
 20 39  1  0  0  0  0
 21 28  1  0  0  0  0
 21 29  2  0  0  0  0
 21 56  1  0  0  0  0
 22 83  1  0  0  0  0
 23 84  1  0  0  0  0
 24 26  2  0  0  0  0
 24 83  1  0  0  0  0
 25 85  1  0  0  0  0
 26 86  1  0  0  0  0
 27 65  2  0  0  0  0
 28 57  1  0  0  0  0
 28 66  2  0  0  0  0
 29 67  1  0  0  0  0
 29 73  1  0  0  0  0
 30 68  1  0  0  0  0
 30 71  1  0  0  0  0
 31 49  1  0  0  0  0
 31 66  1  0  0  0  0
 31 67  2  0  0  0  0
 32 72  1  0  0  0  0
 32 78  2  0  0  0  0
 33 47  1  0  0  0  0
 33 74  1  0  0  0  0
 33 79  2  0  0  0  0
 34 62  1  0  0  0  0
 34 69  1  0  0  0  0
 34 80  2  0  0  0  0
 35 63  1  0  0  0  0
 35 75  1  0  0  0  0
 35 81  2  0  0  0  0
 36 70  1  0  0  0  0
 36 76  1  0  0  0  0
 36 82  2  0  0  0  0
 37 40  1  0  0  0  0
 38 47  1  0  0  0  0
 39 69  1  0  0  0  0
 40 42  1  0  0  0  0
 41 43  1  0  0  0  0
 41 44  1  0  0  0  0
 42 46  1  0  0  0  0
 43 48  1  0  0  0  0
 44 70  1  0  0  0  0
 45 48  1  0  0  0  0
 45 70  1  0  0  0  0
 46 74  1  0  0  0  0
 47 69  1  0  0  0  0
 48 68  1  0  0  0  0
 50 58  1  0  0  0  0
 51 63  1  0  0  0  0
 52 64  1  0  0  0  0
 53 64  1  0  0  0  0
 54 64  1  0  0  0  0
 55 77  1  0  0  0  0
 56 58  1  0  0  0  0
 57 61  1  0  0  0  0
 59 60  1  0  0  0  0
 59 73  1  0  0  0  0
 60 76  1  0  0  0  0
 61 84  1  0  0  0  0
 62 64  1  0  0  0  0
 62 75  1  0  0  0  0
 63 77  1  0  0  0  0
 65 68  1  0  0  0  0
M  CHG  1  77   1
M  ISO  4  36 100  61 101  76 100  84 101
M  END
> <Batch ID>
0186

> <Smiles>
CCCc1c(C[101CH2:1][101O:1]c2ccc3c(c2)CN(C(=O)C(NC(=O)C(C)NC)C(C)(C)C)C(C(=O)NC2CCCc4ccccc42)C3)nc(C)nc1NCC[100NH:0][100C:0](=O)N1CCCC(n2nc(-c3ccc(Oc4ccc(F)cc4F)cc3)c(C(N)=O)c2N)C1

> <Shape>
0.290

> <Color>
0.127

> <Negative vol penalty>
0.000

$$$$

  -OEChem-04052323143D

 84 93  0     1  0  0  0  0  0999 V2000
  -24.1157  -35.5884   20.8062 C   0  0  0  0  0  0  0  0  0  0  0  0
  -24.9770  -34.4988   20.8863 C   0  0  0  0  0  0  0  0  0  0  0  0
  -25.2509  -11.9433   22.2616 C   0  0  0  0  0  0  0  0  0  0  0  0
  -25.4804  -11.2928   19.9462 C   0  0  0  0  0  0  0  0  0  0  0  0
  -22.8814  -35.5490   21.4534 C   0  0  0  0  0  0  0  0  0  0  0  0
  -24.6048  -33.3694   21.6146 C   0  0  0  0  0  0  0  0  0  0  0  0
  -25.5955  -29.0565   19.1525 C   0  0  0  0  0  0  0  0  0  0  0  0
  -24.7199  -10.6889   22.5615 C   0  0  0  0  0  0  0  0  0  0  0  0
  -24.9495  -10.0382   20.2461 C   0  0  0  0  0  0  0  0  0  0  0  0
  -26.9171  -28.6123   19.1528 C   0  0  0  0  0  0  0  0  0  0  0  0
  -21.8969   -8.6899   20.7889 C   0  0  0  0  0  0  0  0  0  0  0  0
  -20.9286   -8.1734   19.9280 C   0  0  0  0  0  0  0  0  0  0  0  0
  -26.3859  -27.0521   20.9144 C   0  0  0  0  0  0  0  0  0  0  0  0
  -28.1649  -22.2219   16.7106 C   0  0  0  0  0  0  0  0  0  0  0  0
  -22.3491   -6.2734   19.4703 C   0  0  0  0  0  0  0  0  0  0  0  0
  -25.6311  -12.2453   20.9540 C   0  0  0  0  0  0  0  0  0  0  0  0
  -27.5347  -13.9198   20.6713 C   0  0  0  0  0  0  0  0  0  0  0  0
  -22.4899  -34.4147   22.1820 C   0  0  0  0  0  0  0  0  0  0  0  0
  -24.6603  -28.5085   20.0422 C   0  0  0  0  0  0  0  0  0  0  0  0
  -23.3646  -33.3153   22.2733 C   0  0  0  0  0  0  0  0  0  0  0  0
  -25.0526  -27.4893   20.9216 C   0  0  0  0  0  0  0  0  0  0  0  0
  -28.9239  -23.0511   17.5098 C   0  0  0  0  0  0  0  0  0  0  0  0
  -30.0597  -22.5728   18.1594 C   0  0  0  0  0  0  0  0  0  0  0  0
  -24.5692   -9.7363   21.5538 C   0  0  0  0  0  0  0  0  0  0  0  0
  -27.3132  -27.6120   20.0358 C   0  0  0  0  0  0  0  0  0  0  0  0
  -23.0914   -7.9982   20.9905 C   0  0  0  0  0  0  0  0  0  0  0  0
  -21.1546   -6.9651   19.2687 C   0  0  0  0  0  0  0  0  0  0  0  0
  -23.3174   -6.7900   20.3312 C   0  0  0  0  0  0  0  0  0  0  0  0
  -26.1791  -13.5412   20.6434 C   0  0  0  0  0  0  0  0  0  0  0  0
  -28.5984  -20.9079   16.6074 C   0  0  0  0  0  0  0  0  0  0  0  0
  -30.4181  -21.2565   17.9941 C   0  0  0  0  0  0  0  0  0  0  0  0
  -27.5297  -15.2417   20.2984 C   0  0  0  0  0  0  0  0  0  0  0  0
  -28.6947  -13.1458   21.0042 C   0  0  0  0  0  0  0  0  0  0  0  0
  -22.8823  -29.6547   22.4147 C   0  0  0  0  0  0  0  0  0  0  0  0
  -21.6179  -26.6675   22.3900 C   0  0  0  0  0  0  0  0  0  0  0  0
  -21.9978  -23.3670   21.6095 C   0  0  0  0  0  0  0  0  0  0  0  0
  -25.7430  -19.3547   16.9763 C   0  0  0  0  0  0  0  0  0  0  0  0
  -21.1659  -34.4371   22.9039 C   0  0  0  0  0  0  0  0  0  0  0  0
  -23.2322  -28.9799   20.0109 C   0  0  0  0  0  0  0  0  0  0  0  0
  -24.0823  -26.8541   21.8826 C   0  0  0  0  0  0  0  0  0  0  0  0
  -28.7291  -24.5014   17.7981 C   0  0  0  0  0  0  0  0  0  0  0  0
  -30.7263  -23.6510   18.9369 C   0  0  0  0  0  0  0  0  0  0  0  0
  -20.6888  -33.0555   23.3443 C   0  0  0  0  0  0  0  0  0  0  0  0
  -23.6949  -18.4959   19.7591 C   0  0  0  0  0  0  0  0  0  0  0  0
  -21.8250  -32.2854   24.0095 C   0  0  0  0  0  0  0  0  0  0  0  0
  -24.2664  -17.1592   20.2352 C   0  0  0  0  0  0  0  0  0  0  0  0
  -23.7417  -18.6200   18.2378 C   0  0  0  0  0  0  0  0  0  0  0  0
  -25.6413  -17.0546   18.1145 C   0  0  0  0  0  0  0  0  0  0  0  0
  -22.9862  -32.0625   23.0331 C   0  0  1  0  0  0  0  0  0  0  0  0
  -22.4859  -28.7117   21.3141 C   0  0  1  0  0  0  0  0  0  0  0  0
  -25.6668  -16.9062   19.6454 C   0  0  2  0  0  0  0  0  0  0  0  0
  -31.6309  -20.7055   18.6612 C   0  0  0  0  0  0  0  0  0  0  0  0
  -20.8080  -21.1616   21.7432 C   0  0  0  0  0  0  0  0  0  0  0  0
  -22.2447  -26.5130   25.3722 C   0  0  0  0  0  0  0  0  0  0  0  0
  -21.9331  -24.0324   25.2381 C   0  0  0  0  0  0  0  0  0  0  0  0
  -20.0274  -25.5568   24.7213 C   0  0  0  0  0  0  0  0  0  0  0  0
  -22.0107  -23.0501   18.6670 C   0  0  0  0  0  0  0  0  0  0  0  0
  -27.8223  -19.9535   15.7609 C   0  0  0  0  0  0  0  0  0  0  0  0
  -30.3846  -26.1683   18.7779 C   0  0  0  0  0  0  0  0  0  0  0  0
  -29.3116  -27.2389   18.8018 C   0  0  0  0  0  0  0  0  0  1  0  0
  -21.9408  -25.3642   23.0800 C   0  0  1  0  0  0  0  0  0  0  0  0
  -21.0845  -22.3903   20.8909 C   0  0  2  0  0  0  0  0  0  0  0  0
  -21.5555  -25.3797   24.5863 C   0  0  0  0  0  0  0  0  0  0  0  0
  -25.3716  -14.5418   20.2817 N   0  0  0  0  0  0  0  0  0  0  0  0
  -29.7011  -20.4042   17.2261 N   0  0  0  0  0  0  0  0  0  0  0  0
  -26.2223  -15.5622   20.0789 N   0  0  0  0  0  0  0  0  0  0  0  0
  -22.6988  -27.3534   21.8182 N   0  0  0  0  0  0  0  0  0  0  0  0
  -25.0975  -18.3701   17.7424 N   0  0  0  0  0  0  0  0  0  0  0  0
  -28.5162  -16.1497   20.1404 N   0  0  0  0  0  0  0  0  0  0  0  0
  -28.5207  -11.8027   21.3651 N   0  0  0  0  0  0  0  0  0  0  0  0
  -22.6755  -30.9877   22.1152 N   0  0  0  0  0  0  0  0  0  0  0  0
  -21.2820  -24.3181   22.3055 N   0  0  0  0  0  0  0  0  0  0  0  0
  -27.0282  -19.0400   16.5519 N   0  0  0  0  0  0  0  0  0  0  0  0
  -29.7472  -24.8329   18.8990 N   0  3  1  0  0  0  0  0  0  0  0  0
  -21.7064  -21.9448   19.6119 N   0  3  0  0  0  0  0  0  0  0  0  0
  -29.8497  -13.6352   20.9982 O   0  0  0  0  0  0  0  0  0  0  0  0
  -23.3405  -29.2060   23.4589 O   0  0  0  0  0  0  0  0  0  0  0  0
  -20.4487  -27.0589   22.3534 O   0  0  0  0  0  0  0  0  0  0  0  0
  -23.2236  -23.2914   21.5616 O   0  0  0  0  0  0  0  0  0  0  0  0
  -25.2153  -20.4363   16.6960 O   0  0  0  0  0  0  0  0  0  0  0  0
  -24.0514   -8.5120   21.8461 O   0  0  0  0  0  0  0  0  0  0  0  0
  -28.6026  -27.1770   20.0386 O   0  0  0  0  0  0  0  0  0  1  0  0
  -20.2240   -6.4684   18.4433 F   0  0  0  0  0  0  0  0  0  0  0  0
  -24.4625   -6.1204   20.5217 F   0  0  0  0  0  0  0  0  0  0  0  0
  1  2  1  0  0  0  0
  1  5  2  0  0  0  0
  2  6  2  0  0  0  0
  3  8  2  0  0  0  0
  3 16  1  0  0  0  0
  4  9  1  0  0  0  0
  4 16  2  0  0  0  0
  5 18  1  0  0  0  0
  6 20  1  0  0  0  0
  7 10  2  0  0  0  0
  7 19  1  0  0  0  0
  8 24  1  0  0  0  0
  9 24  2  0  0  0  0
 10 25  1  0  0  0  0
 11 12  2  0  0  0  0
 11 26  1  0  0  0  0
 12 27  1  0  0  0  0
 13 21  1  0  0  0  0
 13 25  2  0  0  0  0
 14 22  1  0  0  0  0
 14 30  2  0  0  0  0
 15 27  2  0  0  0  0
 15 28  1  0  0  0  0
 16 29  1  0  0  0  0
 17 29  1  0  0  0  0
 17 32  2  0  0  0  0
 17 33  1  0  0  0  0
 18 20  2  0  0  0  0
 18 38  1  0  0  0  0
 19 21  2  0  0  0  0
 19 39  1  0  0  0  0
 20 49  1  0  0  0  0
 21 40  1  0  0  0  0
 22 23  2  0  0  0  0
 22 41  1  0  0  0  0
 23 31  1  0  0  0  0
 23 42  1  0  0  0  0
 24 81  1  0  0  0  0
 25 82  1  0  0  0  0
 26 28  2  0  0  0  0
 26 81  1  0  0  0  0
 27 83  1  0  0  0  0
 28 84  1  0  0  0  0
 29 64  2  0  0  0  0
 30 58  1  0  0  0  0
 30 65  1  0  0  0  0
 31 52  1  0  0  0  0
 31 65  2  0  0  0  0
 32 66  1  0  0  0  0
 32 69  1  0  0  0  0
 33 70  1  0  0  0  0
 33 76  2  0  0  0  0
 34 50  1  0  0  0  0
 34 71  1  0  0  0  0
 34 77  2  0  0  0  0
 35 61  1  0  0  0  0
 35 67  1  0  0  0  0
 35 78  2  0  0  0  0
 36 62  1  0  0  0  0
 36 72  1  0  0  0  0
 36 79  2  0  0  0  0
 37 68  1  0  0  0  0
 37 73  1  0  0  0  0
 37 80  2  0  0  0  0
 38 43  1  0  0  0  0
 39 50  1  0  0  0  0
 40 67  1  0  0  0  0
 41 74  1  0  0  0  0
 42 74  1  0  0  0  0
 43 45  1  0  0  0  0
 44 46  1  0  0  0  0
 44 47  1  0  0  0  0
 45 49  1  0  0  0  0
 46 51  1  0  0  0  0
 47 68  1  0  0  0  0
 48 51  1  0  0  0  0
 48 68  1  0  0  0  0
 49 71  1  0  0  0  0
 50 67  1  0  0  0  0
 51 66  1  0  0  0  0
 53 62  1  0  0  0  0
 54 63  1  0  0  0  0
 55 63  1  0  0  0  0
 56 63  1  0  0  0  0
 57 75  1  0  0  0  0
 58 73  1  0  0  0  0
 59 60  1  0  0  0  0
 59 74  1  0  0  0  0
 60 82  1  0  0  0  0
 61 63  1  0  0  0  0
 61 72  1  0  0  0  0
 62 75  1  0  0  0  0
 64 66  1  0  0  0  0
M  CHG  2  74   1  75   1
M  ISO  4  37 100  60 101  73 100  82 101
M  END
> <Batch ID>
0186

> <Smiles>
CNC(C)C(=O)NC(C(=O)N1Cc2cc([101O:1][101CH2:1]CN3Cc4cc(C[100NH:0][100C:0](=O)N5CCCC(n6nc(-c7ccc(Oc8ccc(F)cc8F)cc7)c(C(N)=O)c6N)C5)nc(C)c4C3)ccc2CC1C(=O)NC1CCCc2ccccc21)C(C)(C)C

> <Shape>
0.214

> <Color>
0.061

> <Negative vol penalty>
0.000

$$$$

  -OEChem-04052323143D

 82 91  0     1  0  0  0  0  0999 V2000
  -24.0689  -32.5701   19.1454 C   0  0  0  0  0  0  0  0  0  0  0  0
  -23.8252  -31.2347   18.8412 C   0  0  0  0  0  0  0  0  0  0  0  0
  -22.9116  -10.1128   20.0867 C   0  0  0  0  0  0  0  0  0  0  0  0
  -23.5339  -10.0686   22.4207 C   0  0  0  0  0  0  0  0  0  0  0  0
  -25.3257  -32.9611   19.6053 C   0  0  0  0  0  0  0  0  0  0  0  0
  -24.8387  -30.2895   18.9956 C   0  0  0  0  0  0  0  0  0  0  0  0
  -25.8409  -23.4104   20.7248 C   0  0  0  0  0  0  0  0  0  0  0  0
  -21.9857   -9.0946   20.3142 C   0  0  0  0  0  0  0  0  0  0  0  0
  -22.6080   -9.0505   22.6483 C   0  0  0  0  0  0  0  0  0  0  0  0
  -26.4620  -22.2584   20.2442 C   0  0  0  0  0  0  0  0  0  0  0  0
  -20.6647   -6.1922   23.7724 C   0  0  0  0  0  0  0  0  0  0  0  0
  -21.0718   -5.1072   24.5487 C   0  0  0  0  0  0  0  0  0  0  0  0
  -28.5702  -23.0363   21.1215 C   0  0  0  0  0  0  0  0  0  0  0  0
  -22.8205   -4.6223   22.9536 C   0  0  0  0  0  0  0  0  0  0  0  0
  -23.6857  -10.5997   21.1399 C   0  0  0  0  0  0  0  0  0  0  0  0
  -24.4196  -13.0384   20.9913 C   0  0  0  0  0  0  0  0  0  0  0  0
  -26.3522  -32.0186   19.7746 C   0  0  0  0  0  0  0  0  0  0  0  0
  -26.5831  -24.3907   21.3990 C   0  0  0  0  0  0  0  0  0  0  0  0
  -26.1109  -30.6684   19.4568 C   0  0  0  0  0  0  0  0  0  0  0  0
  -27.9557  -24.1986   21.6120 C   0  0  0  0  0  0  0  0  0  0  0  0
  -21.8339   -8.5635   21.5950 C   0  0  0  0  0  0  0  0  0  0  0  0
  -27.8273  -22.0726   20.4399 C   0  0  0  0  0  0  0  0  0  0  0  0
  -21.3354   -6.4922   22.5867 C   0  0  0  0  0  0  0  0  0  0  0  0
  -22.1498   -4.3223   24.1393 C   0  0  0  0  0  0  0  0  0  0  0  0
  -22.4133   -5.7072   22.1773 C   0  0  0  0  0  0  0  0  0  0  0  0
  -24.6427  -11.6511   20.9053 C   0  0  0  0  0  0  0  0  0  0  0  0
  -25.6330  -13.6012   20.6793 C   0  0  0  0  0  0  0  0  0  0  0  0
  -28.5363  -18.5777   19.9701 C   0  0  0  0  0  0  0  0  0  0  0  0
  -28.6790  -18.1250   18.5754 C   0  0  0  0  0  0  0  0  0  0  0  0
  -30.1352  -17.1660   16.7531 C   0  0  0  0  0  0  0  0  0  0  0  0
  -29.0666  -17.9964   21.0467 C   0  0  0  0  0  0  0  0  0  0  0  0
  -23.2226  -13.7542   21.3235 C   0  0  0  0  0  0  0  0  0  0  0  0
  -27.2542  -27.4529   20.8733 C   0  0  0  0  0  0  0  0  0  0  0  0
  -28.6118  -27.2570   23.8128 C   0  0  0  0  0  0  0  0  0  0  0  0
  -30.0229  -25.3018   26.2280 C   0  0  0  0  0  0  0  0  0  0  0  0
  -30.0401  -13.5979   17.1184 C   0  0  0  0  0  0  0  0  0  0  0  0
  -27.7085  -32.4964   20.2295 C   0  0  0  0  0  0  0  0  0  0  0  0
  -25.8932  -25.6152   21.9348 C   0  0  0  0  0  0  0  0  0  0  0  0
  -28.7935  -25.2114   22.3473 C   0  0  0  0  0  0  0  0  0  0  0  0
  -30.2171  -15.8297   16.0676 C   0  0  0  0  0  0  0  0  0  0  0  0
  -28.6165  -31.3725   20.7222 C   0  0  0  0  0  0  0  0  0  0  0  0
  -30.2101  -11.5223   20.1629 C   0  0  0  0  0  0  0  0  0  0  0  0
  -28.5887  -30.1982   19.7489 C   0  0  0  0  0  0  0  0  0  0  0  0
  -28.7461  -11.4406   20.5950 C   0  0  0  0  0  0  0  0  0  0  0  0
  -27.0349  -19.6253   18.5057 C   0  0  0  0  0  0  0  0  0  0  0  0
  -30.3499  -11.6920   18.6524 C   0  0  0  0  0  0  0  0  0  0  0  0
  -29.0024  -15.6942   18.1570 C   0  0  0  0  0  0  0  0  0  0  0  0
  -28.1221  -12.7422   18.5256 C   0  0  0  0  0  0  0  0  0  0  0  0
  -27.1773  -29.6095   19.6349 C   0  0  1  0  0  0  0  0  0  0  0  0
  -27.6478  -19.7636   19.8992 C   0  0  2  0  0  0  0  0  0  1  0  0
  -29.6481  -17.0682   18.1715 C   0  0  2  0  0  0  0  0  0  0  0  0
  -26.8438  -26.7877   22.1566 C   0  0  1  0  0  0  0  0  0  0  0  0
  -27.9409  -12.6324   20.0463 C   0  0  1  0  0  0  0  0  0  0  0  0
  -31.0713  -25.4317   28.5042 C   0  0  0  0  0  0  0  0  0  0  0  0
  -31.1654  -28.3729   22.5703 C   0  0  0  0  0  0  0  0  0  0  0  0
  -32.4091  -27.5974   24.6001 C   0  0  0  0  0  0  0  0  0  0  0  0
  -30.6062  -29.3071   24.8217 C   0  0  0  0  0  0  0  0  0  0  0  0
  -27.9484  -23.5535   27.4107 C   0  0  0  0  0  0  0  0  0  0  0  0
  -29.9837  -26.9054   24.3355 C   0  0  1  0  0  0  0  0  0  0  0  0
  -29.7830  -25.2192   27.7246 C   0  0  2  0  0  0  0  0  0  0  0  0
  -31.0260  -28.0273   24.0663 C   0  0  0  0  0  0  0  0  0  0  0  0
  -25.8990  -11.3509   20.5652 N   0  0  0  0  0  0  0  0  0  0  0  0
  -27.8982  -18.7097   17.7136 N   0  0  0  0  0  0  0  0  0  0  0  0
  -26.4762  -12.5575   20.4346 N   0  0  0  0  0  0  0  0  0  0  0  0
  -28.0742  -26.3950   22.8465 N   0  0  0  0  0  0  0  0  0  0  0  0
  -29.6963  -14.9520   17.1059 N   0  0  0  0  0  0  0  0  0  0  0  0
  -29.5442  -12.8131   18.1679 N   0  0  0  0  0  0  0  0  0  0  0  0
  -26.0503  -14.8822   20.5930 N   0  0  0  0  0  0  0  0  0  0  0  0
  -22.0651  -13.0206   21.6175 N   0  0  0  0  0  0  0  0  0  0  0  0
  -26.8812  -28.7804   20.7835 N   0  0  0  0  0  0  0  0  0  0  0  0
  -29.8111  -26.5763   25.7463 N   0  0  0  0  0  0  0  0  0  0  0  0
  -29.2288  -23.8842   28.0875 N   0  3  0  0  0  0  0  0  0  0  0  0
  -30.4623  -18.2165   16.2128 O   0  0  0  0  0  0  0  0  0  0  0  0
  -23.1764  -15.0077   21.3427 O   0  0  0  0  0  0  0  0  0  0  0  0
  -27.8653  -26.8098   20.0280 O   0  0  0  0  0  0  0  0  0  0  0  0
  -28.0353  -28.2556   24.2512 O   0  0  0  0  0  0  0  0  0  0  0  0
  -30.3676  -24.3334   25.5542 O   0  0  0  0  0  0  0  0  0  0  0  0
  -30.7875  -13.1171   16.2564 O   0  0  0  0  0  0  0  0  0  0  0  0
  -20.9304   -7.5702   21.8175 O   0  0  0  0  0  0  0  0  0  0  0  0
  -28.4406  -20.9413   19.9678 O   0  0  0  0  0  0  0  0  0  1  0  0
  -22.5416   -3.2813   24.8857 F   0  0  0  0  0  0  0  0  0  0  0  0
  -23.0623   -5.9912   21.0398 F   0  0  0  0  0  0  0  0  0  0  0  0
  1  2  1  0  0  0  0
  1  5  2  0  0  0  0
  2  6  2  0  0  0  0
  3  8  2  0  0  0  0
  3 15  1  0  0  0  0
  4  9  1  0  0  0  0
  4 15  2  0  0  0  0
  5 17  1  0  0  0  0
  6 19  1  0  0  0  0
  7 10  2  0  0  0  0
  7 18  1  0  0  0  0
  8 21  1  0  0  0  0
  9 21  2  0  0  0  0
 10 22  1  0  0  0  0
 11 12  2  0  0  0  0
 11 23  1  0  0  0  0
 12 24  1  0  0  0  0
 13 20  1  0  0  0  0
 13 22  2  0  0  0  0
 14 24  2  0  0  0  0
 14 25  1  0  0  0  0
 15 26  1  0  0  0  0
 16 26  1  0  0  0  0
 16 27  2  0  0  0  0
 16 32  1  0  0  0  0
 17 19  2  0  0  0  0
 17 37  1  0  0  0  0
 18 20  2  0  0  0  0
 18 38  1  0  0  0  0
 19 49  1  0  0  0  0
 20 39  1  0  0  0  0
 21 79  1  0  0  0  0
 22 80  1  0  0  0  0
 23 25  2  0  0  0  0
 23 79  1  0  0  0  0
 24 81  1  0  0  0  0
 25 82  1  0  0  0  0
 26 62  2  0  0  0  0
 27 64  1  0  0  0  0
 27 68  1  0  0  0  0
 28 29  1  0  0  0  0
 28 31  2  0  0  0  0
 28 50  1  0  0  0  0
 29 51  1  0  0  0  0
 29 63  2  0  0  0  0
 30 40  1  0  0  0  0
 30 51  1  0  0  0  0
 30 73  2  0  0  0  0
 32 69  1  0  0  0  0
 32 74  2  0  0  0  0
 33 52  1  0  0  0  0
 33 70  1  0  0  0  0
 33 75  2  0  0  0  0
 34 59  1  0  0  0  0
 34 65  1  0  0  0  0
 34 76  2  0  0  0  0
 35 60  1  0  0  0  0
 35 71  1  0  0  0  0
 35 77  2  0  0  0  0
 36 66  1  0  0  0  0
 36 67  1  0  0  0  0
 36 78  2  0  0  0  0
 37 41  1  0  0  0  0
 38 52  1  0  0  0  0
 39 65  1  0  0  0  0
 40 66  1  0  0  0  0
 41 43  1  0  0  0  0
 42 44  1  0  0  0  0
 42 46  1  0  0  0  0
 43 49  1  0  0  0  0
 44 53  1  0  0  0  0
 45 50  1  0  0  0  0
 45 63  1  0  0  0  0
 46 67  1  0  0  0  0
 47 51  1  0  0  0  0
 47 66  1  0  0  0  0
 48 53  1  0  0  0  0
 48 67  1  0  0  0  0
 49 70  1  0  0  0  0
 50 80  1  0  0  0  0
 52 65  1  0  0  0  0
 53 64  1  0  0  0  0
 54 60  1  0  0  0  0
 55 61  1  0  0  0  0
 56 61  1  0  0  0  0
 57 61  1  0  0  0  0
 58 72  1  0  0  0  0
 59 61  1  0  0  0  0
 59 71  1  0  0  0  0
 60 72  1  0  0  0  0
 62 64  1  0  0  0  0
M  CHG  1  72   1
M  ISO  4  36 100  50 101  66 100  80 101
M  END
> <Batch ID>
0186

> <Smiles>
C=C1C(=C2C[100N:0]([100C:0](=O)N3CCCC(n4nc(-c5ccc(Oc6ccc(F)cc6F)cc5)c(C(N)=O)c4N)C3)CC2=O)NC[101CH:1]1[101O:1]c1ccc2c(c1)CN(C(=O)C(NC(=O)C(C)NC)C(C)(C)C)C(C(=O)NC1CCCc3ccccc31)C2

> <Shape>
0.249

> <Color>
0.161

> <Negative vol penalty>
0.000

$$$$

  -OEChem-04052323143D

 84 92  0     1  0  0  0  0  0999 V2000
  -30.9602  -11.9705   23.3416 C   0  0  0  0  0  0  0  0  0  0  0  0
  -30.8083  -13.2614   22.8459 C   0  0  0  0  0  0  0  0  0  0  0  0
  -19.9956  -27.4655   23.5313 C   0  0  0  0  0  0  0  0  0  0  0  0
  -21.7132  -26.0471   24.4670 C   0  0  0  0  0  0  0  0  0  0  0  0
  -30.0344  -10.9831   23.0070 C   0  0  0  0  0  0  0  0  0  0  0  0
  -29.7311  -13.5655   22.0143 C   0  0  0  0  0  0  0  0  0  0  0  0
  -27.4845  -17.9289   23.2626 C   0  0  0  0  0  0  0  0  0  0  0  0
  -19.1366  -26.3697   23.4471 C   0  0  0  0  0  0  0  0  0  0  0  0
  -20.8542  -24.9514   24.3828 C   0  0  0  0  0  0  0  0  0  0  0  0
  -28.1152  -19.1067   22.8640 C   0  0  0  0  0  0  0  0  0  0  0  0
  -16.6149  -23.8733   22.6519 C   0  0  0  0  0  0  0  0  0  0  0  0
  -15.8898  -23.7050   21.4723 C   0  0  0  0  0  0  0  0  0  0  0  0
  -26.5936  -19.2839   21.0006 C   0  0  0  0  0  0  0  0  0  0  0  0
  -17.9537  -23.5434   20.2267 C   0  0  0  0  0  0  0  0  0  0  0  0
  -21.2839  -27.3041   24.0412 C   0  0  0  0  0  0  0  0  0  0  0  0
  -22.3148  -29.3229   25.2114 C   0  0  0  0  0  0  0  0  0  0  0  0
  -28.9400  -11.2776   22.1787 C   0  0  0  0  0  0  0  0  0  0  0  0
  -26.4087  -17.4131   22.5257 C   0  0  0  0  0  0  0  0  0  0  0  0
  -28.7905  -12.5808   21.6673 C   0  0  0  0  0  0  0  0  0  0  0  0
  -25.9493  -18.1008   21.3933 C   0  0  0  0  0  0  0  0  0  0  0  0
  -28.4452  -23.9353   20.6521 C   0  0  0  0  0  0  0  0  0  0  0  0
  -19.5659  -25.1127   23.8728 C   0  0  0  0  0  0  0  0  0  0  0  0
  -27.6717  -19.7828   21.7313 C   0  0  0  0  0  0  0  0  0  0  0  0
  -18.0094  -23.8768   22.6189 C   0  0  0  0  0  0  0  0  0  0  0  0
  -16.5592  -23.5399   20.2597 C   0  0  0  0  0  0  0  0  0  0  0  0
  -18.6788  -23.7118   21.4064 C   0  0  0  0  0  0  0  0  0  0  0  0
  -22.1719  -28.4355   24.1280 C   0  0  0  0  0  0  0  0  0  0  0  0
  -28.6007  -22.7970   19.8877 C   0  0  0  0  0  0  0  0  0  0  0  0
  -29.2504  -25.0013   20.3063 C   0  0  0  0  0  0  0  0  0  0  0  0
  -23.2758  -30.2143   24.8008 C   0  0  0  0  0  0  0  0  0  0  0  0
  -30.1999  -23.8033   18.6239 C   0  0  0  0  0  0  0  0  0  0  0  0
  -21.6394  -29.3400   26.4760 C   0  0  0  0  0  0  0  0  0  0  0  0
  -25.8775  -14.7255   20.9139 C   0  0  0  0  0  0  0  0  0  0  0  0
  -22.8836  -15.9428   20.6362 C   0  0  0  0  0  0  0  0  0  0  0  0
  -20.8636  -18.6935   20.6301 C   0  0  0  0  0  0  0  0  0  0  0  0
  -27.7425  -29.8523   20.8298 C   0  0  0  0  0  0  0  0  0  0  0  0
  -27.9915  -10.1656   21.8064 C   0  0  0  0  0  0  0  0  0  0  0  0
  -25.7219  -16.1559   22.9840 C   0  0  0  0  0  0  0  0  0  0  0  0
  -24.7854  -17.5998   20.5792 C   0  0  0  0  0  0  0  0  0  0  0  0
  -26.6708  -10.6614   21.2230 C   0  0  0  0  0  0  0  0  0  0  0  0
  -25.0810  -32.2172   20.8485 C   0  0  0  0  0  0  0  0  0  0  0  0
  -26.9223  -11.7360   20.1700 C   0  0  0  0  0  0  0  0  0  0  0  0
  -24.0465  -31.5962   21.7889 C   0  0  0  0  0  0  0  0  0  0  0  0
  -25.7982  -31.1551   20.0181 C   0  0  0  0  0  0  0  0  0  0  0  0
  -25.3763  -29.4449   21.7418 C   0  0  0  0  0  0  0  0  0  0  0  0
  -27.6214  -12.9556   20.7825 C   0  0  1  0  0  0  0  0  0  0  0  0
  -24.9651  -15.4466   21.8653 C   0  0  1  0  0  0  0  0  0  0  0  0
  -24.6663  -30.4719   22.6404 C   0  0  2  0  0  0  0  0  0  0  0  0
  -31.1741  -23.7300   17.4975 C   0  0  0  0  0  0  0  0  0  0  0  0
  -28.1425  -23.8740   23.1403 C   0  0  0  0  0  0  0  0  0  0  0  0
  -18.4662  -19.3763   20.3406 C   0  0  0  0  0  0  0  0  0  0  0  0
  -23.1380  -15.5487   17.6213 C   0  0  0  0  0  0  0  0  0  0  0  0
  -21.1814  -17.0826   17.3259 C   0  0  0  0  0  0  0  0  0  0  0  0
  -20.9057  -14.9373   18.5687 C   0  0  0  0  0  0  0  0  0  0  0  0
  -20.7337  -19.8213   23.3633 C   0  0  0  0  0  0  0  0  0  0  0  0
  -27.4695  -23.9990   21.7748 C   0  0  0  0  0  0  0  0  0  0  0  0
  -27.7797  -21.5732   20.1695 C   0  0  0  0  0  0  0  0  0  1  0  0
  -29.9234  -27.3572   20.7777 C   0  0  0  0  0  0  0  0  0  0  0  0
  -29.5910  -28.4769   21.7521 C   0  0  0  0  0  0  0  0  0  0  0  0
  -22.1810  -16.8373   19.6436 C   0  0  1  0  0  0  0  0  0  0  0  0
  -19.5484  -18.9790   21.3324 C   0  0  2  0  0  0  0  0  0  0  0  0
  -21.8747  -16.1101   18.3039 C   0  0  0  0  0  0  0  0  0  0  0  0
  -22.9775  -28.7359   23.1058 N   0  0  0  0  0  0  0  0  0  0  0  0
  -29.4718  -22.6958   18.8623 N   0  0  0  0  0  0  0  0  0  0  0  0
  -30.1421  -24.9699   19.2943 N   0  0  0  0  0  0  0  0  0  0  0  0
  -23.6358  -29.8220   23.5451 N   0  0  0  0  0  0  0  0  0  0  0  0
  -24.1509  -16.3630   21.0643 N   0  0  0  0  0  0  0  0  0  0  0  0
  -26.3646  -30.1192   20.8854 N   0  0  0  0  0  0  0  0  0  0  0  0
  -23.8394  -31.2875   25.3948 N   0  0  0  0  0  0  0  0  0  0  0  0
  -20.6807  -28.3510   26.7348 N   0  0  0  0  0  0  0  0  0  0  0  0
  -29.1373  -26.1991   21.0543 N   0  0  0  0  0  0  0  0  0  0  0  0
  -26.6726  -13.7677   21.5138 N   0  0  0  0  0  0  0  0  0  0  0  0
  -21.0002  -17.3556   20.3257 N   0  0  0  0  0  0  0  0  0  0  0  0
  -28.1982  -28.8601   21.6893 N   0  0  0  0  0  0  0  0  0  0  0  0
  -19.7156  -20.0873   22.3146 N   0  3  0  0  0  0  0  0  0  0  0  0
  -21.8672  -30.2163   27.3442 O   0  0  0  0  0  0  0  0  0  0  0  0
  -25.8602  -15.0155   19.7234 O   0  0  0  0  0  0  0  0  0  0  0  0
  -22.3254  -14.9131   21.0232 O   0  0  0  0  0  0  0  0  0  0  0  0
  -21.6858  -19.5703   20.3736 O   0  0  0  0  0  0  0  0  0  0  0  0
  -28.5107  -30.4573   20.0743 O   0  0  0  0  0  0  0  0  0  0  0  0
  -18.7278  -24.0433   23.7910 O   0  0  0  0  0  0  0  0  0  0  0  0
  -28.2860  -20.9322   21.3397 O   0  0  0  0  0  0  0  0  0  1  0  0
  -15.8627  -23.3767   19.1272 F   0  0  0  0  0  0  0  0  0  0  0  0
  -20.0183  -23.7131   21.3686 F   0  0  0  0  0  0  0  0  0  0  0  0
  1  2  1  0  0  0  0
  1  5  2  0  0  0  0
  2  6  2  0  0  0  0
  3  8  2  0  0  0  0
  3 15  1  0  0  0  0
  4  9  1  0  0  0  0
  4 15  2  0  0  0  0
  5 17  1  0  0  0  0
  6 19  1  0  0  0  0
  7 10  2  0  0  0  0
  7 18  1  0  0  0  0
  8 22  1  0  0  0  0
  9 22  2  0  0  0  0
 10 23  1  0  0  0  0
 11 12  2  0  0  0  0
 11 24  1  0  0  0  0
 12 25  1  0  0  0  0
 13 20  1  0  0  0  0
 13 23  2  0  0  0  0
 14 25  2  0  0  0  0
 14 26  1  0  0  0  0
 15 27  1  0  0  0  0
 16 27  1  0  0  0  0
 16 30  2  0  0  0  0
 16 32  1  0  0  0  0
 17 19  2  0  0  0  0
 17 37  1  0  0  0  0
 18 20  2  0  0  0  0
 18 38  1  0  0  0  0
 19 46  1  0  0  0  0
 20 39  1  0  0  0  0
 21 28  2  0  0  0  0
 21 29  1  0  0  0  0
 21 56  1  0  0  0  0
 22 81  1  0  0  0  0
 23 82  1  0  0  0  0
 24 26  2  0  0  0  0
 24 81  1  0  0  0  0
 25 83  1  0  0  0  0
 26 84  1  0  0  0  0
 27 63  2  0  0  0  0
 28 57  1  0  0  0  0
 28 64  1  0  0  0  0
 29 65  2  0  0  0  0
 29 71  1  0  0  0  0
 30 66  1  0  0  0  0
 30 69  1  0  0  0  0
 31 49  1  0  0  0  0
 31 64  2  0  0  0  0
 31 65  1  0  0  0  0
 32 70  1  0  0  0  0
 32 76  2  0  0  0  0
 33 47  1  0  0  0  0
 33 72  1  0  0  0  0
 33 77  2  0  0  0  0
 34 60  1  0  0  0  0
 34 67  1  0  0  0  0
 34 78  2  0  0  0  0
 35 61  1  0  0  0  0
 35 73  1  0  0  0  0
 35 79  2  0  0  0  0
 36 68  1  0  0  0  0
 36 74  1  0  0  0  0
 36 80  2  0  0  0  0
 37 40  1  0  0  0  0
 38 47  1  0  0  0  0
 39 67  1  0  0  0  0
 40 42  1  0  0  0  0
 41 43  1  0  0  0  0
 41 44  1  0  0  0  0
 42 46  1  0  0  0  0
 43 48  1  0  0  0  0
 44 68  1  0  0  0  0
 45 48  1  0  0  0  0
 45 68  1  0  0  0  0
 46 72  1  0  0  0  0
 47 67  1  0  0  0  0
 48 66  1  0  0  0  0
 50 56  1  0  0  0  0
 51 61  1  0  0  0  0
 52 62  1  0  0  0  0
 53 62  1  0  0  0  0
 54 62  1  0  0  0  0
 55 75  1  0  0  0  0
 57 82  1  0  0  0  0
 58 59  1  0  0  0  0
 58 71  1  0  0  0  0
 59 74  1  0  0  0  0
 60 62  1  0  0  0  0
 60 73  1  0  0  0  0
 61 75  1  0  0  0  0
 63 66  1  0  0  0  0
M  CHG  1  75   1
M  ISO  4  36 100  57 101  74 100  82 101
M  END
> <Batch ID>
0186

> <Smiles>
CCc1c(NCC[100NH:0][100C:0](=O)N2CCCC(n3nc(-c4ccc(Oc5ccc(F)cc5F)cc4)c(C(N)=O)c3N)C2)nc(C)nc1[101CH2:1][101O:1]c1ccc2c(c1)CN(C(=O)C(NC(=O)C(C)NC)C(C)(C)C)C(C(=O)NC1CCCc3ccccc31)C2

> <Shape>
0.186

> <Color>
0.071

> <Negative vol penalty>
0.000

$$$$

  -OEChem-04052323143D

 79 87  0     1  0  0  0  0  0999 V2000
  -15.7692  -27.4374   21.2422 C   0  0  0  0  0  0  0  0  0  0  0  0
  -16.9715  -27.2536   20.5667 C   0  0  0  0  0  0  0  0  0  0  0  0
  -26.5068  -12.6014   20.5452 C   0  0  0  0  0  0  0  0  0  0  0  0
  -24.9869  -14.1369   19.4638 C   0  0  0  0  0  0  0  0  0  0  0  0
  -15.7445  -28.1586   22.4352 C   0  0  0  0  0  0  0  0  0  0  0  0
  -18.1495  -27.7918   21.0833 C   0  0  0  0  0  0  0  0  0  0  0  0
  -22.0135  -24.5225   20.9217 C   0  0  0  0  0  0  0  0  0  0  0  0
  -25.4274  -11.9628   21.1556 C   0  0  0  0  0  0  0  0  0  0  0  0
  -23.9075  -13.4982   20.0742 C   0  0  0  0  0  0  0  0  0  0  0  0
  -22.6440  -24.3422   19.6913 C   0  0  0  0  0  0  0  0  0  0  0  0
  -23.0537   -9.7132   20.2966 C   0  0  0  0  0  0  0  0  0  0  0  0
  -23.0365   -8.3185   20.2882 C   0  0  0  0  0  0  0  0  0  0  0  0
  -27.5331  -24.3102   17.6552 C   0  0  0  0  0  0  0  0  0  0  0  0
  -24.4128  -25.8277   20.3867 C   0  0  0  0  0  0  0  0  0  0  0  0
  -27.1756  -21.9524   17.9675 C   0  0  0  0  0  0  0  0  0  0  0  0
  -23.0273   -8.3041   22.7042 C   0  0  0  0  0  0  0  0  0  0  0  0
  -28.7088  -24.1725   18.3753 C   0  0  0  0  0  0  0  0  0  0  0  0
  -26.2866  -13.6885   19.6994 C   0  0  0  0  0  0  0  0  0  0  0  0
  -27.9773  -14.0411   17.8219 C   0  0  0  0  0  0  0  0  0  0  0  0
  -16.9244  -28.6977   22.9717 C   0  0  0  0  0  0  0  0  0  0  0  0
  -22.5734  -25.3668   21.8913 C   0  0  0  0  0  0  0  0  0  0  0  0
  -18.1403  -28.5220   22.2839 C   0  0  0  0  0  0  0  0  0  0  0  0
  -23.7888  -26.0150   21.6295 C   0  0  0  0  0  0  0  0  0  0  0  0
  -26.7576  -23.1741   17.4518 C   0  0  0  0  0  0  0  0  0  0  0  0
  -24.1277  -12.4112   20.9201 C   0  0  0  0  0  0  0  0  0  0  0  0
  -23.8423  -24.9970   19.4225 C   0  0  0  0  0  0  0  0  0  0  0  0
  -23.0578  -10.4034   21.5087 C   0  0  0  0  0  0  0  0  0  0  0  0
  -23.0233   -7.6139   21.4920 C   0  0  0  0  0  0  0  0  0  0  0  0
  -23.0446   -9.6989   22.7125 C   0  0  0  0  0  0  0  0  0  0  0  0
  -27.4013  -14.3490   19.0690 C   0  0  0  0  0  0  0  0  0  0  0  0
  -28.3674  -21.9202   18.6734 C   0  0  0  0  0  0  0  0  0  0  0  0
  -28.9962  -14.9512   17.6802 C   0  0  0  0  0  0  0  0  0  0  0  0
  -27.6229  -13.0236   16.8760 C   0  0  0  0  0  0  0  0  0  0  0  0
  -21.6453  -28.0354   23.3475 C   0  0  0  0  0  0  0  0  0  0  0  0
  -24.3473  -27.5671   25.0803 C   0  0  0  0  0  0  0  0  0  0  0  0
  -27.4574  -26.1761   25.2783 C   0  0  0  0  0  0  0  0  0  0  0  0
  -29.9398  -20.4057   19.9305 C   0  0  0  0  0  0  0  0  0  0  0  0
  -16.8404  -29.5101   24.2396 C   0  0  0  0  0  0  0  0  0  0  0  0
  -21.8946  -25.5297   23.2237 C   0  0  0  0  0  0  0  0  0  0  0  0
  -24.4416  -26.9162   22.6446 C   0  0  0  0  0  0  0  0  0  0  0  0
  -18.1924  -29.7284   24.9139 C   0  0  0  0  0  0  0  0  0  0  0  0
  -32.0653  -17.5685   20.2619 C   0  0  0  0  0  0  0  0  0  0  0  0
  -19.2378  -30.1552   23.8883 C   0  0  0  0  0  0  0  0  0  0  0  0
  -31.1646  -16.3935   19.8742 C   0  0  0  0  0  0  0  0  0  0  0  0
  -31.2980  -18.6409   21.0332 C   0  0  0  0  0  0  0  0  0  0  0  0
  -29.1768  -17.9500   19.9879 C   0  0  0  0  0  0  0  0  0  0  0  0
  -19.4432  -29.0693   22.8252 C   0  0  1  0  0  0  0  0  0  0  0  0
  -22.2904  -26.8158   23.9425 C   0  0  1  0  0  0  0  0  0  0  0  0
  -29.8903  -16.8743   19.1527 C   0  0  2  0  0  0  0  0  0  0  0  0
  -29.4425  -25.9988   26.8031 C   0  0  0  0  0  0  0  0  0  0  0  0
  -25.1600  -30.4158   24.3495 C   0  0  0  0  0  0  0  0  0  0  0  0
  -27.4936  -29.8595   25.0658 C   0  0  0  0  0  0  0  0  0  0  0  0
  -25.6288  -29.7730   26.7204 C   0  0  0  0  0  0  0  0  0  0  0  0
  -27.2061  -23.2325   25.4534 C   0  0  0  0  0  0  0  0  0  0  0  0
  -25.4672  -23.2674   16.6744 C   0  0  0  0  0  0  0  0  0  0  0  0
  -24.2707  -23.5678   17.5706 C   0  0  0  0  0  0  0  0  0  1  0  0
  -25.7917  -27.9835   24.9418 C   0  0  1  0  0  0  0  0  0  0  0  0
  -28.1300  -25.3642   26.3705 C   0  0  2  0  0  0  0  0  0  0  0  0
  -26.0055  -29.4926   25.2493 C   0  0  0  0  0  0  0  0  0  0  0  0
  -29.1475  -23.0026   18.8915 N   0  0  0  0  0  0  0  0  0  0  0  0
  -28.0042  -15.3744   19.6764 N   0  0  0  0  0  0  0  0  0  0  0  0
  -28.9698  -15.7188   18.8074 N   0  0  0  0  0  0  0  0  0  0  0  0
  -23.7361  -27.0484   23.9300 N   0  0  0  0  0  0  0  0  0  0  0  0
  -30.1062  -19.0507   20.2872 N   0  0  0  0  0  0  0  0  0  0  0  0
  -29.9032  -15.1618   16.7028 N   0  0  0  0  0  0  0  0  0  0  0  0
  -26.5502  -12.1740   17.1791 N   0  0  0  0  0  0  0  0  0  0  0  0
  -28.7852  -20.6706   19.1949 N   0  0  0  0  0  0  0  0  0  0  0  0
  -20.2640  -27.9984   23.3487 N   0  0  0  0  0  0  0  0  0  0  0  0
  -26.5594  -27.0849   25.7971 N   0  0  0  0  0  0  0  0  0  0  0  0
  -28.4123  -23.9823   25.8892 N   0  3  0  0  0  0  0  0  0  0  0  0
  -28.2498  -12.8616   15.8016 O   0  0  0  0  0  0  0  0  0  0  0  0
  -22.3487  -28.9435   22.9205 O   0  0  0  0  0  0  0  0  0  0  0  0
  -23.7841  -27.6907   26.1708 O   0  0  0  0  0  0  0  0  0  0  0  0
  -27.7066  -26.0224   24.0847 O   0  0  0  0  0  0  0  0  0  0  0  0
  -30.7748  -21.2629   20.2304 O   0  0  0  0  0  0  0  0  0  0  0  0
  -23.0742  -11.7881   21.5154 O   0  0  0  0  0  0  0  0  0  0  0  0
  -24.4594  -24.8233   18.2222 O   0  0  0  0  0  0  0  0  0  1  0  0
  -23.0052   -6.2746   21.4838 F   0  0  0  0  0  0  0  0  0  0  0  0
  -23.0472  -10.3564   23.8802 F   0  0  0  0  0  0  0  0  0  0  0  0
  1  2  1  0  0  0  0
  1  5  2  0  0  0  0
  2  6  2  0  0  0  0
  3  8  2  0  0  0  0
  3 18  1  0  0  0  0
  4  9  1  0  0  0  0
  4 18  2  0  0  0  0
  5 20  1  0  0  0  0
  6 22  1  0  0  0  0
  7 10  2  0  0  0  0
  7 21  1  0  0  0  0
  8 25  1  0  0  0  0
  9 25  2  0  0  0  0
 10 26  1  0  0  0  0
 11 12  2  0  0  0  0
 11 27  1  0  0  0  0
 12 28  1  0  0  0  0
 13 17  2  0  0  0  0
 13 24  1  0  0  0  0
 14 23  1  0  0  0  0
 14 26  2  0  0  0  0
 15 24  2  0  0  0  0
 15 31  1  0  0  0  0
 16 28  2  0  0  0  0
 16 29  1  0  0  0  0
 17 60  1  0  0  0  0
 18 30  1  0  0  0  0
 19 30  1  0  0  0  0
 19 32  2  0  0  0  0
 19 33  1  0  0  0  0
 20 22  2  0  0  0  0
 20 38  1  0  0  0  0
 21 23  2  0  0  0  0
 21 39  1  0  0  0  0
 22 47  1  0  0  0  0
 23 40  1  0  0  0  0
 24 55  1  0  0  0  0
 25 76  1  0  0  0  0
 26 77  1  0  0  0  0
 27 29  2  0  0  0  0
 27 76  1  0  0  0  0
 28 78  1  0  0  0  0
 29 79  1  0  0  0  0
 30 61  2  0  0  0  0
 31 60  2  0  0  0  0
 31 67  1  0  0  0  0
 32 62  1  0  0  0  0
 32 65  1  0  0  0  0
 33 66  1  0  0  0  0
 33 71  2  0  0  0  0
 34 48  1  0  0  0  0
 34 68  1  0  0  0  0
 34 72  2  0  0  0  0
 35 57  1  0  0  0  0
 35 63  1  0  0  0  0
 35 73  2  0  0  0  0
 36 58  1  0  0  0  0
 36 69  1  0  0  0  0
 36 74  2  0  0  0  0
 37 64  1  0  0  0  0
 37 67  1  0  0  0  0
 37 75  2  0  0  0  0
 38 41  1  0  0  0  0
 39 48  1  0  0  0  0
 40 63  1  0  0  0  0
 41 43  1  0  0  0  0
 42 44  1  0  0  0  0
 42 45  1  0  0  0  0
 43 47  1  0  0  0  0
 44 49  1  0  0  0  0
 45 64  1  0  0  0  0
 46 49  1  0  0  0  0
 46 64  1  0  0  0  0
 47 68  1  0  0  0  0
 48 63  1  0  0  0  0
 49 62  1  0  0  0  0
 50 58  1  0  0  0  0
 51 59  1  0  0  0  0
 52 59  1  0  0  0  0
 53 59  1  0  0  0  0
 54 70  1  0  0  0  0
 55 56  1  0  0  0  0
 56 77  1  0  0  0  0
 57 59  1  0  0  0  0
 57 69  1  0  0  0  0
 58 70  1  0  0  0  0
 61 62  1  0  0  0  0
M  CHG  1  70   1
M  ISO  4  37 100  56 101  67 100  77 101
M  END
> <Batch ID>
0186

> <Smiles>
CNC(C)C(=O)NC(C(=O)N1Cc2cc([101O:1][101CH2:1]Cc3ccnc([100NH:0][100C:0](=O)N4CCCC(n5nc(-c6ccc(Oc7ccc(F)cc7F)cc6)c(C(N)=O)c5N)C4)c3)ccc2CC1C(=O)NC1CCCc2ccccc21)C(C)(C)C

> <Shape>
0.221

> <Color>
0.076

> <Negative vol penalty>
0.000

$$$$

  -OEChem-04052323143D

 84 93  0     1  0  0  0  0  0999 V2000
  -24.1938   -8.3654   21.7207 C   0  0  0  0  0  0  0  0  0  0  0  0
  -24.8800   -9.5399   21.4291 C   0  0  0  0  0  0  0  0  0  0  0  0
  -23.2935  -26.3101   21.6133 C   0  0  0  0  0  0  0  0  0  0  0  0
  -23.1538  -28.6748   22.0884 C   0  0  0  0  0  0  0  0  0  0  0  0
  -22.7999   -8.3495   21.6965 C   0  0  0  0  0  0  0  0  0  0  0  0
  -24.1727  -10.6990   21.1120 C   0  0  0  0  0  0  0  0  0  0  0  0
  -25.9831  -14.7902   23.4846 C   0  0  0  0  0  0  0  0  0  0  0  0
  -22.1203  -26.0954   22.3365 C   0  0  0  0  0  0  0  0  0  0  0  0
  -21.9805  -28.4601   22.8117 C   0  0  0  0  0  0  0  0  0  0  0  0
  -27.1430  -15.3652   22.9671 C   0  0  0  0  0  0  0  0  0  0  0  0
  -18.7527  -28.5845   24.4801 C   0  0  0  0  0  0  0  0  0  0  0  0
  -17.6870  -29.4578   24.2628 C   0  0  0  0  0  0  0  0  0  0  0  0
  -25.8106  -17.0487   21.8672 C   0  0  0  0  0  0  0  0  0  0  0  0
  -17.6386  -28.8193   21.9332 C   0  0  0  0  0  0  0  0  0  0  0  0
  -23.8103  -27.5998   21.4893 C   0  0  0  0  0  0  0  0  0  0  0  0
  -25.1346  -28.1051   19.3683 C   0  0  0  0  0  0  0  0  0  0  0  0
  -22.0749   -9.5114   21.3884 C   0  0  0  0  0  0  0  0  0  0  0  0
  -24.7253  -15.3347   23.1879 C   0  0  0  0  0  0  0  0  0  0  0  0
  -22.7677  -10.6983   21.0823 C   0  0  0  0  0  0  0  0  0  0  0  0
  -24.6364  -16.4803   22.3843 C   0  0  0  0  0  0  0  0  0  0  0  0
  -21.4638  -27.1704   22.9357 C   0  0  0  0  0  0  0  0  0  0  0  0
  -27.0567  -16.4929   22.1559 C   0  0  0  0  0  0  0  0  0  0  0  0
  -19.2614  -27.8285   23.4239 C   0  0  0  0  0  0  0  0  0  0  0  0
  -17.1300  -29.5753   22.9894 C   0  0  0  0  0  0  0  0  0  0  0  0
  -18.7043  -27.9460   22.1505 C   0  0  0  0  0  0  0  0  0  0  0  0
  -25.0225  -27.8221   20.7428 C   0  0  0  0  0  0  0  0  0  0  0  0
  -26.4853  -28.2292   19.1524 C   0  0  0  0  0  0  0  0  0  0  0  0
  -31.2403  -18.2623   19.1773 C   0  0  0  0  0  0  0  0  0  0  0  0
  -29.3555  -18.6631   20.3277 C   0  0  0  0  0  0  0  0  0  0  0  0
  -30.9384  -20.2473   20.1801 C   0  0  0  0  0  0  0  0  0  0  0  0
  -24.1095  -28.2435   18.3755 C   0  0  0  0  0  0  0  0  0  0  0  0
  -22.1197  -14.2829   21.7019 C   0  0  0  0  0  0  0  0  0  0  0  0
  -20.8772  -17.1028   22.7150 C   0  0  0  0  0  0  0  0  0  0  0  0
  -21.4284  -20.3175   23.7194 C   0  0  0  0  0  0  0  0  0  0  0  0
  -31.1400  -25.9730   22.3542 C   0  0  0  0  0  0  0  0  0  0  0  0
  -20.5699   -9.4335   21.3284 C   0  0  0  0  0  0  0  0  0  0  0  0
  -23.4855  -14.7185   23.7757 C   0  0  0  0  0  0  0  0  0  0  0  0
  -23.3116  -17.1153   22.0524 C   0  0  0  0  0  0  0  0  0  0  0  0
  -19.8879  -10.7991   21.3493 C   0  0  0  0  0  0  0  0  0  0  0  0
  -30.5432  -29.4592   21.3726 C   0  0  0  0  0  0  0  0  0  0  0  0
  -20.5695  -11.7512   20.3717 C   0  0  0  0  0  0  0  0  0  0  0  0
  -29.0538  -29.4631   21.0256 C   0  0  0  0  0  0  0  0  0  0  0  0
  -29.6245  -23.2246   20.4395 C   0  0  0  0  0  0  0  0  0  0  0  0
  -30.8775  -28.4252   22.4454 C   0  0  0  0  0  0  0  0  0  0  0  0
  -29.3627  -24.4627   21.2908 C   0  0  0  0  0  0  0  0  0  0  0  0
  -28.9250  -27.0669   21.8006 C   0  0  0  0  0  0  0  0  0  0  0  0
  -31.5429  -23.5926   21.7952 C   0  0  0  0  0  0  0  0  0  0  0  0
  -22.0354  -11.9823   20.7579 C   0  0  1  0  0  0  0  0  0  0  0  0
  -22.2218  -15.0518   22.9887 C   0  0  1  0  0  0  0  0  0  0  0  0
  -28.5613  -28.0463   20.6761 C   0  0  1  0  0  0  0  0  0  0  0  0
  -30.6559  -22.4723   21.2732 C   0  0  2  0  0  0  0  0  0  0  0  0
  -32.0790  -17.3474   18.3517 C   0  0  0  0  0  0  0  0  0  0  0  0
  -20.2141  -22.3901   24.4456 C   0  0  0  0  0  0  0  0  0  0  0  0
  -20.0873  -17.6517   19.8193 C   0  0  0  0  0  0  0  0  0  0  0  0
  -19.7653  -20.0567   20.4362 C   0  0  0  0  0  0  0  0  0  0  0  0
  -18.3623  -18.2965   21.5114 C   0  0  0  0  0  0  0  0  0  0  0  0
  -22.7512  -20.3048   26.3669 C   0  0  0  0  0  0  0  0  0  0  0  0
  -28.0256  -18.2095   20.8254 C   0  0  0  0  0  0  0  0  0  1  0  0
  -20.7997  -18.5010   22.1511 C   0  0  1  0  0  0  0  0  0  0  0  0
  -20.8962  -21.1091   24.9003 C   0  0  2  0  0  0  0  0  0  0  0  0
  -19.7786  -18.6136   20.9840 C   0  0  0  0  0  0  0  0  0  0  0  0
  -26.2075  -27.7693   21.3567 N   0  0  0  0  0  0  0  0  0  0  0  0
  -30.0548  -17.7856   19.5903 N   0  0  0  0  0  0  0  0  0  0  0  0
  -31.7472  -19.4793   19.4324 N   0  0  0  0  0  0  0  0  0  0  0  0
  -29.7321  -19.9077   20.6625 N   0  0  0  0  0  0  0  0  0  0  0  0
  -27.0771  -28.0207   20.3634 N   0  0  0  0  0  0  0  0  0  0  0  0
  -22.1276  -16.4723   22.6459 N   0  0  0  0  0  0  0  0  0  0  0  0
  -30.3646  -27.1048   22.0793 N   0  0  0  0  0  0  0  0  0  0  0  0
  -30.6452  -24.7355   21.9446 N   0  0  0  0  0  0  0  0  0  0  0  0
  -27.2127  -28.4950   18.0466 N   0  0  0  0  0  0  0  0  0  0  0  0
  -22.7734  -28.0849   18.7681 N   0  0  0  0  0  0  0  0  0  0  0  0
  -31.3958  -21.5220   20.4856 N   0  0  0  0  0  0  0  0  0  0  0  0
  -22.1262  -12.9106   21.8644 N   0  0  0  0  0  0  0  0  0  0  0  0
  -20.5167  -19.3812   23.2796 N   0  0  0  0  0  0  0  0  0  0  0  0
  -22.0078  -21.4711   25.8245 N   0  3  0  0  0  0  0  0  0  0  0  0
  -24.3714  -28.4840   17.1726 O   0  0  0  0  0  0  0  0  0  0  0  0
  -22.0394  -14.8896   20.6402 O   0  0  0  0  0  0  0  0  0  0  0  0
  -19.8673  -16.5917   23.2053 O   0  0  0  0  0  0  0  0  0  0  0  0
  -22.5401  -20.5129   23.2332 O   0  0  0  0  0  0  0  0  0  0  0  0
  -32.2476  -26.0680   22.8994 O   0  0  0  0  0  0  0  0  0  0  0  0
  -20.3188  -26.9613   23.6413 O   0  0  0  0  0  0  0  0  0  0  0  0
  -28.1949  -17.0595   21.6455 O   0  0  0  0  0  0  0  0  0  1  0  0
  -16.1057  -30.4129   22.7813 F   0  0  0  0  0  0  0  0  0  0  0  0
  -19.1880  -27.2215   21.1321 F   0  0  0  0  0  0  0  0  0  0  0  0
  1  2  1  0  0  0  0
  1  5  2  0  0  0  0
  2  6  2  0  0  0  0
  3  8  2  0  0  0  0
  3 15  1  0  0  0  0
  4  9  1  0  0  0  0
  4 15  2  0  0  0  0
  5 17  1  0  0  0  0
  6 19  1  0  0  0  0
  7 10  2  0  0  0  0
  7 18  1  0  0  0  0
  8 21  1  0  0  0  0
  9 21  2  0  0  0  0
 10 22  1  0  0  0  0
 11 12  2  0  0  0  0
 11 23  1  0  0  0  0
 12 24  1  0  0  0  0
 13 20  1  0  0  0  0
 13 22  2  0  0  0  0
 14 24  2  0  0  0  0
 14 25  1  0  0  0  0
 15 26  1  0  0  0  0
 16 26  1  0  0  0  0
 16 27  2  0  0  0  0
 16 31  1  0  0  0  0
 17 19  2  0  0  0  0
 17 36  1  0  0  0  0
 18 20  2  0  0  0  0
 18 37  1  0  0  0  0
 19 48  1  0  0  0  0
 20 38  1  0  0  0  0
 21 81  1  0  0  0  0
 22 82  1  0  0  0  0
 23 25  2  0  0  0  0
 23 81  1  0  0  0  0
 24 83  1  0  0  0  0
 25 84  1  0  0  0  0
 26 62  2  0  0  0  0
 27 66  1  0  0  0  0
 27 70  1  0  0  0  0
 28 52  1  0  0  0  0
 28 63  2  0  0  0  0
 28 64  1  0  0  0  0
 29 58  1  0  0  0  0
 29 63  1  0  0  0  0
 29 65  2  0  0  0  0
 30 64  2  0  0  0  0
 30 65  1  0  0  0  0
 30 72  1  0  0  0  0
 31 71  1  0  0  0  0
 31 76  2  0  0  0  0
 32 49  1  0  0  0  0
 32 73  1  0  0  0  0
 32 77  2  0  0  0  0
 33 59  1  0  0  0  0
 33 67  1  0  0  0  0
 33 78  2  0  0  0  0
 34 60  1  0  0  0  0
 34 74  1  0  0  0  0
 34 79  2  0  0  0  0
 35 68  1  0  0  0  0
 35 69  1  0  0  0  0
 35 80  2  0  0  0  0
 36 39  1  0  0  0  0
 37 49  1  0  0  0  0
 38 67  1  0  0  0  0
 39 41  1  0  0  0  0
 40 42  1  0  0  0  0
 40 44  1  0  0  0  0
 41 48  1  0  0  0  0
 42 50  1  0  0  0  0
 43 45  1  0  0  0  0
 43 51  1  0  0  0  0
 44 68  1  0  0  0  0
 45 69  1  0  0  0  0
 46 50  1  0  0  0  0
 46 68  1  0  0  0  0
 47 51  1  0  0  0  0
 47 69  1  0  0  0  0
 48 73  1  0  0  0  0
 49 67  1  0  0  0  0
 50 66  1  0  0  0  0
 51 72  1  0  0  0  0
 53 60  1  0  0  0  0
 54 61  1  0  0  0  0
 55 61  1  0  0  0  0
 56 61  1  0  0  0  0
 57 75  1  0  0  0  0
 58 82  1  0  0  0  0
 59 61  1  0  0  0  0
 59 74  1  0  0  0  0
 60 75  1  0  0  0  0
 62 66  1  0  0  0  0
M  CHG  1  75   1
M  ISO  4  35 100  58 101  69 100  82 101
M  END
> <Batch ID>
0186

> <Smiles>
CNC(C)C(=O)NC(C(=O)N1Cc2cc([101O:1][101CH2:1]c3nc(C)nc(NC4CC[100N:0]([100C:0](=O)N5CCCC(n6nc(-c7ccc(Oc8ccc(F)cc8F)cc7)c(C(N)=O)c6N)C5)C4)n3)ccc2CC1C(=O)NC1CCCc2ccccc21)C(C)(C)C

> <Shape>
0.205

> <Color>
0.100

> <Negative vol penalty>
0.000

$$$$

  -OEChem-04052323143D

 83 92  0     1  0  0  0  0  0999 V2000
  -27.8424  -29.9340   28.7136 C   0  0  0  0  0  0  0  0  0  0  0  0
  -28.1680  -28.8141   27.9551 C   0  0  0  0  0  0  0  0  0  0  0  0
  -23.0051   -9.8832   19.9831 C   0  0  0  0  0  0  0  0  0  0  0  0
  -23.7244   -9.9472   22.2886 C   0  0  0  0  0  0  0  0  0  0  0  0
  -27.4871  -31.1242   28.0804 C   0  0  0  0  0  0  0  0  0  0  0  0
  -28.1374  -28.8836   26.5627 C   0  0  0  0  0  0  0  0  0  0  0  0
  -32.1894  -26.7303   24.4205 C   0  0  0  0  0  0  0  0  0  0  0  0
  -22.2409   -8.7481   20.2530 C   0  0  0  0  0  0  0  0  0  0  0  0
  -22.9601   -8.8120   22.5586 C   0  0  0  0  0  0  0  0  0  0  0  0
  -32.2047  -25.3383   24.3434 C   0  0  0  0  0  0  0  0  0  0  0  0
  -23.2142   -5.4715   22.1033 C   0  0  0  0  0  0  0  0  0  0  0  0
  -23.8025   -4.4594   22.8618 C   0  0  0  0  0  0  0  0  0  0  0  0
  -31.5123  -25.4644   22.0361 C   0  0  0  0  0  0  0  0  0  0  0  0
  -22.0738   -4.7059   24.5315 C   0  0  0  0  0  0  0  0  0  0  0  0
  -29.7640  -17.7266   22.6506 C   0  0  0  0  0  0  0  0  0  0  0  0
  -23.7469  -10.4828   21.0009 C   0  0  0  0  0  0  0  0  0  0  0  0
  -24.1262  -12.9985   20.8137 C   0  0  0  0  0  0  0  0  0  0  0  0
  -27.4615  -31.2111   26.6795 C   0  0  0  0  0  0  0  0  0  0  0  0
  -31.8242  -27.5008   23.3071 C   0  0  0  0  0  0  0  0  0  0  0  0
  -27.7801  -30.0758   25.9102 C   0  0  0  0  0  0  0  0  0  0  0  0
  -31.4956  -26.8660   22.1008 C   0  0  0  0  0  0  0  0  0  0  0  0
  -22.2183   -8.2124   21.5407 C   0  0  0  0  0  0  0  0  0  0  0  0
  -31.8633  -24.7050   23.1520 C   0  0  0  0  0  0  0  0  0  0  0  0
  -22.0557   -6.1008   22.5590 C   0  0  0  0  0  0  0  0  0  0  0  0
  -23.2323   -4.0766   24.0758 C   0  0  0  0  0  0  0  0  0  0  0  0
  -21.4855   -5.7180   23.7730 C   0  0  0  0  0  0  0  0  0  0  0  0
  -24.5371  -11.6551   20.7226 C   0  0  0  0  0  0  0  0  0  0  0  0
  -32.2118  -18.5038   21.9217 C   0  0  0  0  0  0  0  0  0  0  0  0
  -30.5653  -16.9173   21.8758 C   0  0  0  0  0  0  0  0  0  0  0  0
  -31.4100  -19.3134   22.6958 C   0  0  0  0  0  0  0  0  0  0  0  0
  -25.2350  -13.7222   20.4486 C   0  0  0  0  0  0  0  0  0  0  0  0
  -22.8559  -13.5435   21.1945 C   0  0  0  0  0  0  0  0  0  0  0  0
  -29.4898  -29.5633   22.6748 C   0  0  0  0  0  0  0  0  0  0  0  0
  -31.1364  -29.9815   19.9115 C   0  0  0  0  0  0  0  0  0  0  0  0
  -33.3404  -28.7181   17.6327 C   0  0  0  0  0  0  0  0  0  0  0  0
  -30.7114  -14.6986   20.6916 C   0  0  0  0  0  0  0  0  0  0  0  0
  -27.0253  -32.5056   26.0404 C   0  0  0  0  0  0  0  0  0  0  0  0
  -31.8386  -29.0020   23.3987 C   0  0  0  0  0  0  0  0  0  0  0  0
  -31.1160  -27.6482   20.8709 C   0  0  0  0  0  0  0  0  0  0  0  0
  -27.3804  -32.6035   24.5590 C   0  0  0  0  0  0  0  0  0  0  0  0
  -29.6053  -12.2317   18.3747 C   0  0  0  0  0  0  0  0  0  0  0  0
  -27.0056  -31.3148   23.8339 C   0  0  0  0  0  0  0  0  0  0  0  0
  -33.7379  -20.2588   20.7969 C   0  0  0  0  0  0  0  0  0  0  0  0
  -33.9395  -18.9729   20.0580 C   0  0  0  0  0  0  0  0  0  0  0  0
  -28.1543  -11.9722   18.7865 C   0  0  0  0  0  0  0  0  0  0  0  0
  -30.5021  -12.4832   19.5856 C   0  0  0  0  0  0  0  0  0  0  0  0
  -28.5814  -13.2735   20.9105 C   0  0  0  0  0  0  0  0  0  0  0  0
  -27.7825  -30.1188   24.3974 C   0  0  1  0  0  0  0  0  0  0  0  0
  -33.5778  -18.9472   21.5200 C   0  0  0  0  0  0  0  0  0  0  0  0
  -30.9533  -29.6729   22.3530 C   0  0  1  0  0  0  0  0  0  0  0  0
  -27.6272  -13.0790   19.7208 C   0  0  2  0  0  0  0  0  0  0  0  0
  -34.4632  -29.2765   15.4590 C   0  0  0  0  0  0  0  0  0  0  0  0
  -28.5402  -29.3904   18.4214 C   0  0  0  0  0  0  0  0  0  0  0  0
  -29.8951  -29.0243   16.3481 C   0  0  0  0  0  0  0  0  0  0  0  0
  -29.8944  -31.2588   17.4570 C   0  0  0  0  0  0  0  0  0  0  0  0
  -36.0331  -28.5675   18.8514 C   0  0  0  0  0  0  0  0  0  0  0  0
  -31.5931  -22.6246   24.2721 C   0  0  0  0  0  0  0  0  0  1  0  0
  -30.9424  -21.3031   23.9116 C   0  0  0  0  0  0  0  0  0  0  0  0
  -31.1183  -29.3342   18.5478 C   0  0  1  0  0  0  0  0  0  0  0  0
  -34.5676  -29.3235   16.9754 C   0  0  2  0  0  0  0  0  0  0  0  0
  -29.8672  -29.7368   17.7171 C   0  0  0  0  0  0  0  0  0  0  0  0
  -30.1719  -18.9392   23.0745 N   0  0  0  0  0  0  0  0  0  0  0  0
  -25.8077  -11.5300   20.3302 N   0  0  0  0  0  0  0  0  0  0  0  0
  -31.8037  -17.2914   21.4975 N   0  0  0  0  0  0  0  0  0  0  0  0
  -26.2047  -12.8040   20.1715 N   0  0  0  0  0  0  0  0  0  0  0  0
  -31.1388  -29.1134   21.0125 N   0  0  0  0  0  0  0  0  0  0  0  0
  -29.9422  -13.5468   20.4224 N   0  0  0  0  0  0  0  0  0  0  0  0
  -25.4653  -15.0480   20.3408 N   0  0  0  0  0  0  0  0  0  0  0  0
  -21.8255  -12.6583   21.5397 N   0  0  0  0  0  0  0  0  0  0  0  0
  -30.0627  -15.6559   21.4710 N   0  0  0  0  0  0  0  0  0  0  0  0
  -29.1388  -30.1139   23.8927 N   0  0  0  0  0  0  0  0  0  0  0  0
  -32.3891  -29.6748   17.9174 N   0  0  0  0  0  0  0  0  0  0  0  0
  -35.7936  -28.5820   17.3854 N   0  3  0  0  0  0  0  0  0  0  0  0
  -22.6359  -14.7783   21.2117 O   0  0  0  0  0  0  0  0  0  0  0  0
  -28.7346  -29.0208   21.8767 O   0  0  0  0  0  0  0  0  0  0  0  0
  -31.1551  -31.2120   19.9966 O   0  0  0  0  0  0  0  0  0  0  0  0
  -33.2345  -27.5162   17.8664 O   0  0  0  0  0  0  0  0  0  0  0  0
  -31.8508  -14.8383   20.2398 O   0  0  0  0  0  0  0  0  0  0  0  0
  -21.4725   -7.1049   21.8045 O   0  0  0  0  0  0  0  0  0  0  0  0
  -31.8768  -23.3465   23.0743 O   0  0  0  0  0  0  0  0  0  1  0  0
  -31.8442  -20.5429   23.1165 O   0  0  0  0  0  0  0  0  0  0  0  0
  -23.7965   -3.1037   24.8033 F   0  0  0  0  0  0  0  0  0  0  0  0
  -20.3720   -6.3181   24.2154 F   0  0  0  0  0  0  0  0  0  0  0  0
  1  2  1  0  0  0  0
  1  5  2  0  0  0  0
  2  6  2  0  0  0  0
  3  8  2  0  0  0  0
  3 16  1  0  0  0  0
  4  9  1  0  0  0  0
  4 16  2  0  0  0  0
  5 18  1  0  0  0  0
  6 20  1  0  0  0  0
  7 10  2  0  0  0  0
  7 19  1  0  0  0  0
  8 22  1  0  0  0  0
  9 22  2  0  0  0  0
 10 23  1  0  0  0  0
 11 12  2  0  0  0  0
 11 24  1  0  0  0  0
 12 25  1  0  0  0  0
 13 21  1  0  0  0  0
 13 23  2  0  0  0  0
 14 25  2  0  0  0  0
 14 26  1  0  0  0  0
 15 29  1  0  0  0  0
 15 62  2  0  0  0  0
 16 27  1  0  0  0  0
 17 27  1  0  0  0  0
 17 31  2  0  0  0  0
 17 32  1  0  0  0  0
 18 20  2  0  0  0  0
 18 37  1  0  0  0  0
 19 21  2  0  0  0  0
 19 38  1  0  0  0  0
 20 48  1  0  0  0  0
 21 39  1  0  0  0  0
 22 79  1  0  0  0  0
 23 80  1  0  0  0  0
 24 26  2  0  0  0  0
 24 79  1  0  0  0  0
 25 82  1  0  0  0  0
 26 83  1  0  0  0  0
 27 63  2  0  0  0  0
 28 30  2  0  0  0  0
 28 49  1  0  0  0  0
 28 64  1  0  0  0  0
 29 64  2  0  0  0  0
 29 70  1  0  0  0  0
 30 62  1  0  0  0  0
 30 81  1  0  0  0  0
 31 65  1  0  0  0  0
 31 68  1  0  0  0  0
 32 69  1  0  0  0  0
 32 74  2  0  0  0  0
 33 50  1  0  0  0  0
 33 71  1  0  0  0  0
 33 75  2  0  0  0  0
 34 59  1  0  0  0  0
 34 66  1  0  0  0  0
 34 76  2  0  0  0  0
 35 60  1  0  0  0  0
 35 72  1  0  0  0  0
 35 77  2  0  0  0  0
 36 67  1  0  0  0  0
 36 70  1  0  0  0  0
 36 78  2  0  0  0  0
 37 40  1  0  0  0  0
 38 50  1  0  0  0  0
 39 66  1  0  0  0  0
 40 42  1  0  0  0  0
 41 45  1  0  0  0  0
 41 46  1  0  0  0  0
 42 48  1  0  0  0  0
 43 44  1  0  0  0  0
 43 49  1  0  0  0  0
 44 49  1  0  0  0  0
 45 51  1  0  0  0  0
 46 67  1  0  0  0  0
 47 51  1  0  0  0  0
 47 67  1  0  0  0  0
 48 71  1  0  0  0  0
 50 66  1  0  0  0  0
 51 65  1  0  0  0  0
 52 60  1  0  0  0  0
 53 61  1  0  0  0  0
 54 61  1  0  0  0  0
 55 61  1  0  0  0  0
 56 73  1  0  0  0  0
 57 58  1  0  0  0  0
 57 80  1  0  0  0  0
 58 81  1  0  0  0  0
 59 61  1  0  0  0  0
 59 72  1  0  0  0  0
 60 73  1  0  0  0  0
 63 65  1  0  0  0  0
M  CHG  1  73   1
M  ISO  4  36 100  57 101  70 100  80 101
M  END
> <Batch ID>
0186

> <Smiles>
CNC(C)C(=O)NC(C(=O)N1Cc2cc([101O:1][101CH2:1]COc3ncc([100NH:0][100C:0](=O)N4CCCC(n5nc(-c6ccc(Oc7ccc(F)cc7F)cc6)c(C(N)=O)c5N)C4)nc3C3CC3)ccc2CC1C(=O)NC1CCCc2ccccc21)C(C)(C)C

> <Shape>
0.236

> <Color>
0.194

> <Negative vol penalty>
0.000

$$$$

  -OEChem-04052323143D

 83 92  0     1  0  0  0  0  0999 V2000
  -29.3503  -11.9696   19.9647 C   0  0  0  0  0  0  0  0  0  0  0  0
  -29.3125  -13.3465   19.7700 C   0  0  0  0  0  0  0  0  0  0  0  0
  -19.7608  -28.3395   23.7403 C   0  0  0  0  0  0  0  0  0  0  0  0
  -20.3685  -26.7595   22.0165 C   0  0  0  0  0  0  0  0  0  0  0  0
  -28.1623  -11.2547   20.1119 C   0  0  0  0  0  0  0  0  0  0  0  0
  -28.0867  -14.0093   19.7213 C   0  0  0  0  0  0  0  0  0  0  0  0
  -28.0792  -18.2827   22.4385 C   0  0  0  0  0  0  0  0  0  0  0  0
  -18.4117  -28.0650   23.5163 C   0  0  0  0  0  0  0  0  0  0  0  0
  -19.0194  -26.4849   21.7926 C   0  0  0  0  0  0  0  0  0  0  0  0
  -28.6964  -19.3977   21.8733 C   0  0  0  0  0  0  0  0  0  0  0  0
  -16.5791  -24.6489   23.2399 C   0  0  0  0  0  0  0  0  0  0  0  0
  -16.2044  -23.3117   23.1095 C   0  0  0  0  0  0  0  0  0  0  0  0
  -26.5384  -20.2502   21.2134 C   0  0  0  0  0  0  0  0  0  0  0  0
  -30.0389  -25.5033   18.4063 C   0  0  0  0  0  0  0  0  0  0  0  0
  -28.3220  -24.8333   19.9516 C   0  0  0  0  0  0  0  0  0  0  0  0
  -15.3741  -23.7612   20.8856 C   0  0  0  0  0  0  0  0  0  0  0  0
  -20.7392  -27.6868   22.9903 C   0  0  0  0  0  0  0  0  0  0  0  0
  -22.9954  -27.3182   24.1224 C   0  0  0  0  0  0  0  0  0  0  0  0
  -26.9216  -11.9104   20.0746 C   0  0  0  0  0  0  0  0  0  0  0  0
  -26.6855  -18.1374   22.3858 C   0  0  0  0  0  0  0  0  0  0  0  0
  -26.8809  -13.3024   19.8667 C   0  0  0  0  0  0  0  0  0  0  0  0
  -25.9057  -19.1336   21.7810 C   0  0  0  0  0  0  0  0  0  0  0  0
  -29.1075  -25.8311   19.3853 C   0  0  0  0  0  0  0  0  0  0  0  0
  -18.0410  -27.1377   22.5425 C   0  0  0  0  0  0  0  0  0  0  0  0
  -27.9262  -20.3803   21.2580 C   0  0  0  0  0  0  0  0  0  0  0  0
  -16.3513  -25.5423   22.1931 C   0  0  0  0  0  0  0  0  0  0  0  0
  -15.6019  -22.8678   21.9324 C   0  0  0  0  0  0  0  0  0  0  0  0
  -15.7489  -25.0984   21.0160 C   0  0  0  0  0  0  0  0  0  0  0  0
  -22.1330  -27.9703   23.2208 C   0  0  0  0  0  0  0  0  0  0  0  0
  -30.1451  -24.1736   18.0315 C   0  0  0  0  0  0  0  0  0  0  0  0
  -28.5050  -23.5336   19.5075 C   0  0  0  0  0  0  0  0  0  0  0  0
  -24.2024  -27.9541   23.9639 C   0  0  0  0  0  0  0  0  0  0  0  0
  -22.7292  -26.2345   25.0226 C   0  0  0  0  0  0  0  0  0  0  0  0
  -24.6982  -16.0194   21.0941 C   0  0  0  0  0  0  0  0  0  0  0  0
  -22.4511  -17.7516   22.6664 C   0  0  0  0  0  0  0  0  0  0  0  0
  -21.5434  -20.7286   24.0665 C   0  0  0  0  0  0  0  0  0  0  0  0
  -27.3894  -30.3336   19.7237 C   0  0  0  0  0  0  0  0  0  0  0  0
  -25.6624  -11.0886   20.1912 C   0  0  0  0  0  0  0  0  0  0  0  0
  -26.0329  -16.9418   23.0238 C   0  0  0  0  0  0  0  0  0  0  0  0
  -24.4043  -19.0349   21.7158 C   0  0  0  0  0  0  0  0  0  0  0  0
  -24.4197  -11.9190   20.5019 C   0  0  0  0  0  0  0  0  0  0  0  0
  -25.6409  -32.3315   22.1648 C   0  0  0  0  0  0  0  0  0  0  0  0
  -24.3607  -13.1488   19.6014 C   0  0  0  0  0  0  0  0  0  0  0  0
  -24.6218  -31.3571   22.7586 C   0  0  0  0  0  0  0  0  0  0  0  0
  -25.9001  -32.0546   20.6846 C   0  0  0  0  0  0  0  0  0  0  0  0
  -25.2486  -29.6990   20.9643 C   0  0  0  0  0  0  0  0  0  0  0  0
  -27.5318  -27.7961   20.3496 C   0  0  0  0  0  0  0  0  0  0  0  0
  -28.7808  -28.4309   18.7495 C   0  0  0  0  0  0  0  0  0  0  0  0
  -25.5717  -14.0606   19.8328 C   0  0  1  0  0  0  0  0  0  0  0  0
  -24.6471  -16.6452   22.4592 C   0  0  1  0  0  0  0  0  0  0  0  0
  -25.0146  -29.8959   22.4694 C   0  0  2  0  0  0  0  0  0  0  0  0
  -28.9409  -27.3512   19.8576 C   0  0  0  0  0  0  0  0  0  0  0  0
  -31.1365  -23.7855   16.9858 C   0  0  0  0  0  0  0  0  0  0  0  0
  -30.0547  -27.6908   20.8607 C   0  0  0  0  0  0  0  0  0  0  0  0
  -19.6311  -21.8512   25.2414 C   0  0  0  0  0  0  0  0  0  0  0  0
  -20.9797  -18.0231   20.0072 C   0  0  0  0  0  0  0  0  0  0  0  0
  -19.6484  -19.8892   21.0139 C   0  0  0  0  0  0  0  0  0  0  0  0
  -19.5016  -17.5933   21.9781 C   0  0  0  0  0  0  0  0  0  0  0  0
  -23.1641  -21.2044   26.4967 C   0  0  0  0  0  0  0  0  0  0  0  0
  -27.6775  -22.4374   20.0908 C   0  0  0  0  0  0  0  0  0  1  0  0
  -21.6022  -18.9547   22.3333 C   0  0  1  0  0  0  0  0  0  0  0  0
  -20.9197  -21.0614   25.4099 C   0  0  2  0  0  0  0  0  0  0  0  0
  -20.4614  -18.6163   21.3325 C   0  0  0  0  0  0  0  0  0  0  0  0
  -22.7405  -28.9458   22.5402 N   0  0  0  0  0  0  0  0  0  0  0  0
  -29.3995  -23.1767   18.5588 N   0  0  0  0  0  0  0  0  0  0  0  0
  -23.9975  -28.9114   23.0143 N   0  0  0  0  0  0  0  0  0  0  0  0
  -23.8135  -17.8440   22.3484 N   0  0  0  0  0  0  0  0  0  0  0  0
  -26.2544  -30.6486   20.4747 N   0  0  0  0  0  0  0  0  0  0  0  0
  -27.7221  -29.0082   19.5703 N   0  0  0  0  0  0  0  0  0  0  0  0
  -25.4084  -27.7822   24.5456 N   0  0  0  0  0  0  0  0  0  0  0  0
  -21.4347  -25.6984   25.0586 N   0  0  0  0  0  0  0  0  0  0  0  0
  -25.4004  -14.8302   21.0464 N   0  0  0  0  0  0  0  0  0  0  0  0
  -21.1389  -19.4929   23.6077 N   0  0  0  0  0  0  0  0  0  0  0  0
  -21.8628  -21.8706   26.2326 N   0  3  0  0  0  0  0  0  0  0  0  0
  -23.6089  -25.7665   25.7846 O   0  0  0  0  0  0  0  0  0  0  0  0
  -24.1406  -16.5735   20.1541 O   0  0  0  0  0  0  0  0  0  0  0  0
  -21.9261  -16.7690   23.1960 O   0  0  0  0  0  0  0  0  0  0  0  0
  -22.3096  -21.4905   23.4808 O   0  0  0  0  0  0  0  0  0  0  0  0
  -28.1076  -31.2124   19.2283 O   0  0  0  0  0  0  0  0  0  0  0  0
  -16.7246  -26.8695   22.3238 O   0  0  0  0  0  0  0  0  0  0  0  0
  -28.5303  -21.4769   20.7010 O   0  0  0  0  0  0  0  0  0  1  0  0
  -15.2435  -21.5833   21.8068 F   0  0  0  0  0  0  0  0  0  0  0  0
  -15.5285  -25.9518   20.0065 F   0  0  0  0  0  0  0  0  0  0  0  0
  1  2  1  0  0  0  0
  1  5  2  0  0  0  0
  2  6  2  0  0  0  0
  3  8  2  0  0  0  0
  3 17  1  0  0  0  0
  4  9  1  0  0  0  0
  4 17  2  0  0  0  0
  5 19  1  0  0  0  0
  6 21  1  0  0  0  0
  7 10  2  0  0  0  0
  7 20  1  0  0  0  0
  8 24  1  0  0  0  0
  9 24  2  0  0  0  0
 10 25  1  0  0  0  0
 11 12  2  0  0  0  0
 11 26  1  0  0  0  0
 12 27  1  0  0  0  0
 13 22  1  0  0  0  0
 13 25  2  0  0  0  0
 14 23  1  0  0  0  0
 14 30  2  0  0  0  0
 15 23  2  0  0  0  0
 15 31  1  0  0  0  0
 16 27  2  0  0  0  0
 16 28  1  0  0  0  0
 17 29  1  0  0  0  0
 18 29  1  0  0  0  0
 18 32  2  0  0  0  0
 18 33  1  0  0  0  0
 19 21  2  0  0  0  0
 19 38  1  0  0  0  0
 20 22  2  0  0  0  0
 20 39  1  0  0  0  0
 21 49  1  0  0  0  0
 22 40  1  0  0  0  0
 23 52  1  0  0  0  0
 24 80  1  0  0  0  0
 25 81  1  0  0  0  0
 26 28  2  0  0  0  0
 26 80  1  0  0  0  0
 27 82  1  0  0  0  0
 28 83  1  0  0  0  0
 29 64  2  0  0  0  0
 30 53  1  0  0  0  0
 30 65  1  0  0  0  0
 31 60  1  0  0  0  0
 31 65  2  0  0  0  0
 32 66  1  0  0  0  0
 32 70  1  0  0  0  0
 33 71  1  0  0  0  0
 33 75  2  0  0  0  0
 34 50  1  0  0  0  0
 34 72  1  0  0  0  0
 34 76  2  0  0  0  0
 35 61  1  0  0  0  0
 35 67  1  0  0  0  0
 35 77  2  0  0  0  0
 36 62  1  0  0  0  0
 36 73  1  0  0  0  0
 36 78  2  0  0  0  0
 37 68  1  0  0  0  0
 37 69  1  0  0  0  0
 37 79  2  0  0  0  0
 38 41  1  0  0  0  0
 39 50  1  0  0  0  0
 40 67  1  0  0  0  0
 41 43  1  0  0  0  0
 42 44  1  0  0  0  0
 42 45  1  0  0  0  0
 43 49  1  0  0  0  0
 44 51  1  0  0  0  0
 45 68  1  0  0  0  0
 46 51  1  0  0  0  0
 46 68  1  0  0  0  0
 47 52  1  0  0  0  0
 47 69  1  0  0  0  0
 48 52  1  0  0  0  0
 48 69  1  0  0  0  0
 49 72  1  0  0  0  0
 50 67  1  0  0  0  0
 51 66  1  0  0  0  0
 52 54  1  0  0  0  0
 55 62  1  0  0  0  0
 56 63  1  0  0  0  0
 57 63  1  0  0  0  0
 58 63  1  0  0  0  0
 59 74  1  0  0  0  0
 60 81  1  0  0  0  0
 61 63  1  0  0  0  0
 61 73  1  0  0  0  0
 62 74  1  0  0  0  0
 64 66  1  0  0  0  0
M  CHG  1  74   1
M  ISO  4  37 100  60 101  69 100  81 101
M  END
> <Batch ID>
0186

> <Smiles>
CNC(C)C(=O)NC(C(=O)N1Cc2cc([101O:1][101CH2:1]c3cc(C4(C)C[100N:0]([100C:0](=O)N5CCCC(n6nc(-c7ccc(Oc8ccc(F)cc8F)cc7)c(C(N)=O)c6N)C5)C4)cc(C)n3)ccc2CC1C(=O)NC1CCCc2ccccc21)C(C)(C)C

> <Shape>
0.237

> <Color>
0.076

> <Negative vol penalty>
0.000

$$$$

  -OEChem-04052323143D

 84 93  0     1  0  0  0  0  0999 V2000
  -16.7526  -29.7019   23.6594 C   0  0  0  0  0  0  0  0  0  0  0  0
  -17.7024  -29.7549   22.6442 C   0  0  0  0  0  0  0  0  0  0  0  0
  -26.0750  -13.7659   21.7061 C   0  0  0  0  0  0  0  0  0  0  0  0
  -26.1998  -12.5556   19.6188 C   0  0  0  0  0  0  0  0  0  0  0  0
  -17.0268  -30.2768   24.8996 C   0  0  0  0  0  0  0  0  0  0  0  0
  -18.9265  -30.3839   22.8684 C   0  0  0  0  0  0  0  0  0  0  0  0
  -22.8427  -27.6935   21.1161 C   0  0  0  0  0  0  0  0  0  0  0  0
  -24.8799  -13.1150   22.0121 C   0  0  0  0  0  0  0  0  0  0  0  0
  -25.0048  -11.9046   19.9249 C   0  0  0  0  0  0  0  0  0  0  0  0
  -23.0806  -27.7357   19.7430 C   0  0  0  0  0  0  0  0  0  0  0  0
  -23.9996   -9.3321   21.8724 C   0  0  0  0  0  0  0  0  0  0  0  0
  -23.9395   -7.9555   21.6563 C   0  0  0  0  0  0  0  0  0  0  0  0
  -24.8311  -29.3562   20.1023 C   0  0  0  0  0  0  0  0  0  0  0  0
  -22.1155   -8.2785   20.1052 C   0  0  0  0  0  0  0  0  0  0  0  0
  -26.7349  -13.4863   20.5094 C   0  0  0  0  0  0  0  0  0  0  0  0
  -29.2734  -13.7382   20.5141 C   0  0  0  0  0  0  0  0  0  0  0  0
  -18.2587  -30.9047   25.1422 C   0  0  0  0  0  0  0  0  0  0  0  0
  -23.5911  -28.4918   21.9930 C   0  0  0  0  0  0  0  0  0  0  0  0
  -19.2170  -30.9689   24.1126 C   0  0  0  0  0  0  0  0  0  0  0  0
  -24.6024  -29.3203   21.4863 C   0  0  0  0  0  0  0  0  0  0  0  0
  -24.3448  -12.1843   21.1216 C   0  0  0  0  0  0  0  0  0  0  0  0
  -24.0730  -28.5693   19.2356 C   0  0  0  0  0  0  0  0  0  0  0  0
  -23.1175  -10.1820   21.2050 C   0  0  0  0  0  0  0  0  0  0  0  0
  -22.9976   -7.4286   20.7727 C   0  0  0  0  0  0  0  0  0  0  0  0
  -22.1755   -9.6552   20.3214 C   0  0  0  0  0  0  0  0  0  0  0  0
  -27.9691  -14.1589   20.1924 C   0  0  0  0  0  0  0  0  0  0  0  0
  -30.0872  -14.7154   19.9952 C   0  0  0  0  0  0  0  0  0  0  0  0
  -26.3714  -26.8918   15.6290 C   0  0  0  0  0  0  0  0  0  0  0  0
  -26.7127  -26.0709   17.6896 C   0  0  0  0  0  0  0  0  0  0  0  0
  -25.2348  -27.7298   17.3733 C   0  0  0  0  0  0  0  0  0  1  0  0
  -29.7104  -12.5686   21.2190 C   0  0  0  0  0  0  0  0  0  0  0  0
  -22.9086  -30.8361   24.0283 C   0  0  0  0  0  0  0  0  0  0  0  0
  -26.0422  -30.5407   24.8129 C   0  0  0  0  0  0  0  0  0  0  0  0
  -29.1792  -29.5607   23.8932 C   0  0  0  0  0  0  0  0  0  0  0  0
  -29.3994  -20.3496   18.9125 C   0  0  0  0  0  0  0  0  0  0  0  0
  -18.4912  -31.5533   26.4838 C   0  0  0  0  0  0  0  0  0  0  0  0
  -23.3401  -28.4148   23.4741 C   0  0  0  0  0  0  0  0  0  0  0  0
  -25.4475  -30.1820   22.3874 C   0  0  0  0  0  0  0  0  0  0  0  0
  -19.9582  -31.8726   26.7600 C   0  0  0  0  0  0  0  0  0  0  0  0
  -30.2881  -17.9637   16.4946 C   0  0  0  0  0  0  0  0  0  0  0  0
  -20.5954  -32.5452   25.5482 C   0  0  0  0  0  0  0  0  0  0  0  0
  -29.9189  -16.6610   17.2038 C   0  0  0  0  0  0  0  0  0  0  0  0
  -27.6362  -23.0253   17.4565 C   0  0  0  0  0  0  0  0  0  0  0  0
  -29.2190  -23.7916   19.2663 C   0  0  0  0  0  0  0  0  0  0  0  0
  -29.2501  -19.0613   16.7351 C   0  0  0  0  0  0  0  0  0  0  0  0
  -28.6292  -21.9220   17.0792 C   0  0  0  0  0  0  0  0  0  0  0  0
  -30.1895  -22.6951   18.8363 C   0  0  0  0  0  0  0  0  0  0  0  0
  -28.5920  -18.0083   18.8744 C   0  0  0  0  0  0  0  0  0  0  0  0
  -20.5661  -31.6206   24.3252 C   0  0  1  0  0  0  0  0  0  0  0  0
  -23.8153  -29.6543   24.2258 C   0  0  1  0  0  0  0  0  0  0  0  0
  -29.6461  -16.9042   18.6988 C   0  0  1  0  0  0  0  0  0  0  0  0
  -28.3436  -24.2266   18.0881 C   0  0  0  0  0  0  0  0  0  0  0  0
  -26.6764  -26.8853   14.1698 C   0  0  0  0  0  0  0  0  0  0  0  0
  -31.5429  -29.4801   24.7320 C   0  0  0  0  0  0  0  0  0  0  0  0
  -26.3238  -33.5353   24.2999 C   0  0  0  0  0  0  0  0  0  0  0  0
  -28.8058  -33.2171   24.2176 C   0  0  0  0  0  0  0  0  0  0  0  0
  -27.5528  -32.7015   26.3121 C   0  0  0  0  0  0  0  0  0  0  0  0
  -29.2685  -26.6086   23.7036 C   0  0  0  0  0  0  0  0  0  0  0  0
  -27.3298  -31.1576   24.3224 C   0  0  1  0  0  0  0  0  0  0  0  0
  -30.2260  -28.7290   24.6122 C   0  0  2  0  0  0  0  0  0  0  0  0
  -27.4860  -32.6382   24.7706 C   0  0  0  0  0  0  0  0  0  0  0  0
  -27.9506  -15.3135   19.5212 N   0  0  0  0  0  0  0  0  0  0  0  0
  -27.0380  -26.0075   16.3884 N   0  0  0  0  0  0  0  0  0  0  0  0
  -25.4579  -27.7813   16.0502 N   0  0  0  0  0  0  0  0  0  0  0  0
  -25.8230  -26.9037   18.2534 N   0  0  0  0  0  0  0  0  0  0  0  0
  -29.2533  -15.6267   19.4170 N   0  0  0  0  0  0  0  0  0  0  0  0
  -25.1597  -30.0763   23.8273 N   0  0  0  0  0  0  0  0  0  0  0  0
  -28.9937  -19.2291   18.1724 N   0  0  0  0  0  0  0  0  0  0  0  0
  -29.4781  -21.5710   18.2268 N   0  0  0  0  0  0  0  0  0  0  0  0
  -31.4276  -14.8755   19.9817 N   0  0  0  0  0  0  0  0  0  0  0  0
  -28.7422  -11.6682   21.6841 N   0  0  0  0  0  0  0  0  0  0  0  0
  -27.3603  -25.1882   18.5357 N   0  0  0  0  0  0  0  0  0  0  0  0
  -21.6035  -30.6165   24.4257 N   0  0  0  0  0  0  0  0  0  0  0  0
  -28.4023  -30.2793   24.7771 N   0  0  0  0  0  0  0  0  0  0  0  0
  -30.4749  -27.4586   23.8740 N   0  3  0  0  0  0  0  0  0  0  0  0
  -30.9225  -12.3374   21.4445 O   0  0  0  0  0  0  0  0  0  0  0  0
  -23.3600  -31.8710   23.5520 O   0  0  0  0  0  0  0  0  0  0  0  0
  -25.8305  -30.4670   26.0259 O   0  0  0  0  0  0  0  0  0  0  0  0
  -29.0647  -29.5746   22.6696 O   0  0  0  0  0  0  0  0  0  0  0  0
  -29.6752  -20.2642   20.1157 O   0  0  0  0  0  0  0  0  0  0  0  0
  -23.1789  -11.5486   21.4200 O   0  0  0  0  0  0  0  0  0  0  0  0
  -24.3099  -28.6134   17.8786 O   0  0  0  0  0  0  0  0  0  1  0  0
  -22.9411   -6.1067   20.5641 F   0  0  0  0  0  0  0  0  0  0  0  0
  -21.3263  -10.4667   19.6764 F   0  0  0  0  0  0  0  0  0  0  0  0
  1  2  1  0  0  0  0
  1  5  2  0  0  0  0
  2  6  2  0  0  0  0
  3  8  2  0  0  0  0
  3 15  1  0  0  0  0
  4  9  1  0  0  0  0
  4 15  2  0  0  0  0
  5 17  1  0  0  0  0
  6 19  1  0  0  0  0
  7 10  2  0  0  0  0
  7 18  1  0  0  0  0
  8 21  1  0  0  0  0
  9 21  2  0  0  0  0
 10 22  1  0  0  0  0
 11 12  2  0  0  0  0
 11 23  1  0  0  0  0
 12 24  1  0  0  0  0
 13 20  1  0  0  0  0
 13 22  2  0  0  0  0
 14 24  2  0  0  0  0
 14 25  1  0  0  0  0
 15 26  1  0  0  0  0
 16 26  1  0  0  0  0
 16 27  2  0  0  0  0
 16 31  1  0  0  0  0
 17 19  2  0  0  0  0
 17 36  1  0  0  0  0
 18 20  2  0  0  0  0
 18 37  1  0  0  0  0
 19 49  1  0  0  0  0
 20 38  1  0  0  0  0
 21 81  1  0  0  0  0
 22 82  1  0  0  0  0
 23 25  2  0  0  0  0
 23 81  1  0  0  0  0
 24 83  1  0  0  0  0
 25 84  1  0  0  0  0
 26 62  2  0  0  0  0
 27 66  1  0  0  0  0
 27 70  1  0  0  0  0
 28 53  1  0  0  0  0
 28 63  1  0  0  0  0
 28 64  2  0  0  0  0
 29 63  2  0  0  0  0
 29 65  1  0  0  0  0
 29 72  1  0  0  0  0
 30 64  1  0  0  0  0
 30 65  2  0  0  0  0
 30 82  1  0  0  0  0
 31 71  1  0  0  0  0
 31 76  2  0  0  0  0
 32 50  1  0  0  0  0
 32 73  1  0  0  0  0
 32 77  2  0  0  0  0
 33 59  1  0  0  0  0
 33 67  1  0  0  0  0
 33 78  2  0  0  0  0
 34 60  1  0  0  0  0
 34 74  1  0  0  0  0
 34 79  2  0  0  0  0
 35 68  1  0  0  0  0
 35 69  1  0  0  0  0
 35 80  2  0  0  0  0
 36 39  1  0  0  0  0
 37 50  1  0  0  0  0
 38 67  1  0  0  0  0
 39 41  1  0  0  0  0
 40 42  1  0  0  0  0
 40 45  1  0  0  0  0
 41 49  1  0  0  0  0
 42 51  1  0  0  0  0
 43 46  1  0  0  0  0
 43 52  1  0  0  0  0
 44 47  1  0  0  0  0
 44 52  1  0  0  0  0
 45 68  1  0  0  0  0
 46 69  1  0  0  0  0
 47 69  1  0  0  0  0
 48 51  1  0  0  0  0
 48 68  1  0  0  0  0
 49 73  1  0  0  0  0
 50 67  1  0  0  0  0
 51 66  1  0  0  0  0
 52 72  1  0  0  0  0
 54 60  1  0  0  0  0
 55 61  1  0  0  0  0
 56 61  1  0  0  0  0
 57 61  1  0  0  0  0
 58 75  1  0  0  0  0
 59 61  1  0  0  0  0
 59 74  1  0  0  0  0
 60 75  1  0  0  0  0
 62 66  1  0  0  0  0
M  CHG  1  75   1
M  ISO  4  30 101  35 100  69 100  82 101
M  END
> <Batch ID>
0186

> <Smiles>
CNC(C)C(=O)NC(C(=O)N1Cc2cc([101O:1][101c:1]3nc(C)nc(NC4CC[100N:0]([100C:0](=O)N5CCCC(n6nc(-c7ccc(Oc8ccc(F)cc8F)cc7)c(C(N)=O)c6N)C5)CC4)n3)ccc2CC1C(=O)NC1CCCc2ccccc21)C(C)(C)C

> <Shape>
0.291

> <Color>
0.087

> <Negative vol penalty>
0.000

$$$$

  -OEChem-04052323143D

 81 89  0     1  0  0  0  0  0999 V2000
  -29.4789  -31.7980   25.5496 C   0  0  0  0  0  0  0  0  0  0  0  0
  -29.2291  -30.6055   24.8782 C   0  0  0  0  0  0  0  0  0  0  0  0
  -24.1013  -11.4423   24.3380 C   0  0  0  0  0  0  0  0  0  0  0  0
  -23.2599  -13.4710   25.3446 C   0  0  0  0  0  0  0  0  0  0  0  0
  -28.4167  -32.5556   26.0412 C   0  0  0  0  0  0  0  0  0  0  0  0
  -27.9169  -30.1692   24.6990 C   0  0  0  0  0  0  0  0  0  0  0  0
  -27.0470  -28.5093   19.9944 C   0  0  0  0  0  0  0  0  0  0  0  0
  -23.4442  -10.6876   25.3098 C   0  0  0  0  0  0  0  0  0  0  0  0
  -22.6028  -12.7163   26.3164 C   0  0  0  0  0  0  0  0  0  0  0  0
  -27.5074  -27.2329   19.6742 C   0  0  0  0  0  0  0  0  0  0  0  0
  -21.6930   -8.2100   27.3123 C   0  0  0  0  0  0  0  0  0  0  0  0
  -20.9852   -7.0846   26.8905 C   0  0  0  0  0  0  0  0  0  0  0  0
  -25.2836  -26.3561   19.9982 C   0  0  0  0  0  0  0  0  0  0  0  0
  -19.5899   -8.4833   25.4998 C   0  0  0  0  0  0  0  0  0  0  0  0
  -27.0503  -20.6277   19.7281 C   0  0  0  0  0  0  0  0  0  0  0  0
  -24.0092  -12.8340   24.3555 C   0  0  0  0  0  0  0  0  0  0  0  0
  -24.1797  -14.0226   22.1047 C   0  0  0  0  0  0  0  0  0  0  0  0
  -27.0904  -32.1333   25.8594 C   0  0  0  0  0  0  0  0  0  0  0  0
  -25.7015  -28.7172   20.3300 C   0  0  0  0  0  0  0  0  0  0  0  0
  -26.8360  -30.9212   25.1897 C   0  0  0  0  0  0  0  0  0  0  0  0
  -24.8081  -27.6365   20.3197 C   0  0  0  0  0  0  0  0  0  0  0  0
  -22.6949  -11.3246   26.2989 C   0  0  0  0  0  0  0  0  0  0  0  0
  -26.6263  -26.1555   19.6789 C   0  0  0  0  0  0  0  0  0  0  0  0
  -21.3492   -9.4722   26.8280 C   0  0  0  0  0  0  0  0  0  0  0  0
  -19.9337   -7.2212   25.9842 C   0  0  0  0  0  0  0  0  0  0  0  0
  -20.2977   -9.6088   25.9217 C   0  0  0  0  0  0  0  0  0  0  0  0
  -24.6882  -13.6142   23.3523 C   0  0  0  0  0  0  0  0  0  0  0  0
  -28.1681  -22.3064   18.6502 C   0  0  0  0  0  0  0  0  0  0  0  0
  -28.2307  -20.2103   20.3024 C   0  0  0  0  0  0  0  0  0  0  0  0
  -29.3485  -21.8896   19.2250 C   0  0  0  0  0  0  0  0  0  0  0  0
  -25.2058  -14.7334   21.5318 C   0  0  0  0  0  0  0  0  0  0  0  0
  -22.8948  -13.7810   21.5164 C   0  0  0  0  0  0  0  0  0  0  0  0
  -24.1687  -29.7554   22.9139 C   0  0  0  0  0  0  0  0  0  0  0  0
  -21.5775  -29.5777   20.9706 C   0  0  0  0  0  0  0  0  0  0  0  0
  -20.1128  -28.1992   18.2136 C   0  0  0  0  0  0  0  0  0  0  0  0
  -29.2795  -18.5164   21.8442 C   0  0  0  0  0  0  0  0  0  0  0  0
  -25.9772  -32.9621   26.4500 C   0  0  0  0  0  0  0  0  0  0  0  0
  -25.2149  -30.1048   20.6469 C   0  0  0  0  0  0  0  0  0  0  0  0
  -23.3496  -27.8101   20.6531 C   0  0  0  0  0  0  0  0  0  0  0  0
  -24.5992  -32.6185   25.8904 C   0  0  0  0  0  0  0  0  0  0  0  0
  -30.0542  -15.2076   22.9067 C   0  0  0  0  0  0  0  0  0  0  0  0
  -24.3954  -31.1070   25.8642 C   0  0  0  0  0  0  0  0  0  0  0  0
  -28.6854  -14.5317   23.0147 C   0  0  0  0  0  0  0  0  0  0  0  0
  -30.0004  -16.6705   23.3435 C   0  0  0  0  0  0  0  0  0  0  0  0
  -27.6051  -16.8047   22.7833 C   0  0  0  0  0  0  0  0  0  0  0  0
  -25.4252  -30.4272   24.9537 C   0  0  1  0  0  0  0  0  0  0  0  0
  -23.9330  -30.1141   21.4740 C   0  0  1  0  0  0  0  0  0  0  0  0
  -27.5954  -15.3477   22.2926 C   0  0  2  0  0  0  0  0  0  0  0  0
  -17.9751  -28.2220   16.8995 C   0  0  0  0  0  0  0  0  0  0  0  0
  -20.2466  -27.8576   23.1106 C   0  0  0  0  0  0  0  0  0  0  0  0
  -18.5699  -27.1426   21.3942 C   0  0  0  0  0  0  0  0  0  0  0  0
  -18.7409  -29.5452   22.0433 C   0  0  0  0  0  0  0  0  0  0  0  0
  -31.8076  -22.2197   19.4885 C   0  0  0  0  0  0  0  0  0  0  0  0
  -21.4830  -29.1806   15.7808 C   0  0  0  0  0  0  0  0  0  0  0  0
  -28.1137  -23.4890   17.7138 C   0  0  0  0  0  0  0  0  0  0  0  0
  -28.1680  -24.8196   18.4565 C   0  0  0  0  0  0  0  0  0  1  0  0
  -20.5657  -28.5095   20.6329 C   0  0  1  0  0  0  0  0  0  0  0  0
  -19.3625  -28.8257   17.0521 C   0  0  2  0  0  0  0  0  0  0  0  0
  -19.5586  -28.2598   21.7908 C   0  0  0  0  0  0  0  0  0  0  0  0
  -26.9978  -21.6832   18.8916 N   0  0  0  0  0  0  0  0  0  0  0  0
  -25.9401  -14.0308   23.5603 N   0  0  0  0  0  0  0  0  0  0  0  0
  -29.4011  -20.8338   20.0612 N   0  0  0  0  0  0  0  0  0  0  0  0
  -26.2269  -14.7083   22.4356 N   0  0  0  0  0  0  0  0  0  0  0  0
  -22.9234  -29.1850   20.9622 N   0  0  0  0  0  0  0  0  0  0  0  0
  -28.9480  -17.3817   22.6145 N   0  0  0  0  0  0  0  0  0  0  0  0
  -25.3253  -15.3712   20.3480 N   0  0  0  0  0  0  0  0  0  0  0  0
  -21.9581  -13.0319   22.2415 N   0  0  0  0  0  0  0  0  0  0  0  0
  -28.2022  -19.0902   21.1697 N   0  0  0  0  0  0  0  0  0  0  0  0
  -30.5429  -22.5856   18.9334 N   0  0  0  0  0  0  0  0  0  0  0  0
  -25.0570  -30.5909   23.5637 N   0  0  0  0  0  0  0  0  0  0  0  0
  -19.9440  -28.9182   19.3780 N   0  0  0  0  0  0  0  0  0  0  0  0
  -20.1090  -28.6156   15.7795 N   0  3  0  0  0  0  0  0  0  0  0  0
  -22.5921  -14.2026   20.3744 O   0  0  0  0  0  0  0  0  0  0  0  0
  -23.5865  -28.7928   23.3999 O   0  0  0  0  0  0  0  0  0  0  0  0
  -21.1885  -30.7203   21.2253 O   0  0  0  0  0  0  0  0  0  0  0  0
  -20.7788  -27.1725   18.1001 O   0  0  0  0  0  0  0  0  0  0  0  0
  -30.4387  -18.9312   21.7653 O   0  0  0  0  0  0  0  0  0  0  0  0
  -22.0534  -10.5885   27.2471 O   0  0  0  0  0  0  0  0  0  0  0  0
  -27.0732  -24.9085   19.3675 O   0  0  0  0  0  0  0  0  0  1  0  0
  -19.2551   -6.1401   25.5780 F   0  0  0  0  0  0  0  0  0  0  0  0
  -19.9636  -10.8185   25.4520 F   0  0  0  0  0  0  0  0  0  0  0  0
  1  2  1  0  0  0  0
  1  5  2  0  0  0  0
  2  6  2  0  0  0  0
  3  8  2  0  0  0  0
  3 16  1  0  0  0  0
  4  9  1  0  0  0  0
  4 16  2  0  0  0  0
  5 18  1  0  0  0  0
  6 20  1  0  0  0  0
  7 10  2  0  0  0  0
  7 19  1  0  0  0  0
  8 22  1  0  0  0  0
  9 22  2  0  0  0  0
 10 23  1  0  0  0  0
 11 12  2  0  0  0  0
 11 24  1  0  0  0  0
 12 25  1  0  0  0  0
 13 21  1  0  0  0  0
 13 23  2  0  0  0  0
 14 25  2  0  0  0  0
 14 26  1  0  0  0  0
 15 29  1  0  0  0  0
 15 60  2  0  0  0  0
 16 27  1  0  0  0  0
 17 27  1  0  0  0  0
 17 31  2  0  0  0  0
 17 32  1  0  0  0  0
 18 20  2  0  0  0  0
 18 37  1  0  0  0  0
 19 21  2  0  0  0  0
 19 38  1  0  0  0  0
 20 46  1  0  0  0  0
 21 39  1  0  0  0  0
 22 78  1  0  0  0  0
 23 79  1  0  0  0  0
 24 26  2  0  0  0  0
 24 78  1  0  0  0  0
 25 80  1  0  0  0  0
 26 81  1  0  0  0  0
 27 61  2  0  0  0  0
 28 30  2  0  0  0  0
 28 55  1  0  0  0  0
 28 60  1  0  0  0  0
 29 62  2  0  0  0  0
 29 68  1  0  0  0  0
 30 62  1  0  0  0  0
 30 69  1  0  0  0  0
 31 63  1  0  0  0  0
 31 66  1  0  0  0  0
 32 67  1  0  0  0  0
 32 73  2  0  0  0  0
 33 47  1  0  0  0  0
 33 70  1  0  0  0  0
 33 74  2  0  0  0  0
 34 57  1  0  0  0  0
 34 64  1  0  0  0  0
 34 75  2  0  0  0  0
 35 58  1  0  0  0  0
 35 71  1  0  0  0  0
 35 76  2  0  0  0  0
 36 65  1  0  0  0  0
 36 68  1  0  0  0  0
 36 77  2  0  0  0  0
 37 40  1  0  0  0  0
 38 47  1  0  0  0  0
 39 64  1  0  0  0  0
 40 42  1  0  0  0  0
 41 43  1  0  0  0  0
 41 44  1  0  0  0  0
 42 46  1  0  0  0  0
 43 48  1  0  0  0  0
 44 65  1  0  0  0  0
 45 48  1  0  0  0  0
 45 65  1  0  0  0  0
 46 70  1  0  0  0  0
 47 64  1  0  0  0  0
 48 63  1  0  0  0  0
 49 58  1  0  0  0  0
 50 59  1  0  0  0  0
 51 59  1  0  0  0  0
 52 59  1  0  0  0  0
 53 69  1  0  0  0  0
 54 72  1  0  0  0  0
 55 56  1  0  0  0  0
 56 79  1  0  0  0  0
 57 59  1  0  0  0  0
 57 71  1  0  0  0  0
 58 72  1  0  0  0  0
 61 63  1  0  0  0  0
M  CHG  1  72   1
M  ISO  4  36 100  56 101  68 100  79 101
M  END
> <Batch ID>
0186

> <Smiles>
CNc1nc([100NH:0][100C:0](=O)N2CCCC(n3nc(-c4ccc(Oc5ccc(F)cc5F)cc4)c(C(N)=O)c3N)C2)cnc1C[101CH2:1][101O:1]c1ccc2c(c1)CN(C(=O)C(NC(=O)C(C)NC)C(C)(C)C)C(C(=O)NC1CCCc3ccccc31)C2

> <Shape>
0.240

> <Color>
0.120

> <Negative vol penalty>
0.000

$$$$

  -OEChem-04052323143D

 81 89  0     1  0  0  0  0  0999 V2000
  -28.7156  -12.3832   19.5078 C   0  0  0  0  0  0  0  0  0  0  0  0
  -28.6365  -13.6691   18.9829 C   0  0  0  0  0  0  0  0  0  0  0  0
  -28.7813  -26.0653   19.7233 C   0  0  0  0  0  0  0  0  0  0  0  0
  -26.8922  -24.7785   18.9405 C   0  0  0  0  0  0  0  0  0  0  0  0
  -27.6155  -11.8293   20.1612 C   0  0  0  0  0  0  0  0  0  0  0  0
  -27.4568  -14.4016   19.1101 C   0  0  0  0  0  0  0  0  0  0  0  0
  -25.1183  -21.1262   19.9022 C   0  0  0  0  0  0  0  0  0  0  0  0
  -29.6377  -25.0223   19.3711 C   0  0  0  0  0  0  0  0  0  0  0  0
  -27.7487  -23.7355   18.5882 C   0  0  0  0  0  0  0  0  0  0  0  0
  -24.2242  -22.0300   19.3300 C   0  0  0  0  0  0  0  0  0  0  0  0
  -29.3865  -21.2221   20.1475 C   0  0  0  0  0  0  0  0  0  0  0  0
  -29.0082  -19.9262   20.4986 C   0  0  0  0  0  0  0  0  0  0  0  0
  -22.4140  -21.0011   20.5481 C   0  0  0  0  0  0  0  0  0  0  0  0
  -29.0186  -19.2916   18.1675 C   0  0  0  0  0  0  0  0  0  0  0  0
  -27.4085  -25.9434   19.5081 C   0  0  0  0  0  0  0  0  0  0  0  0
  -26.1216  -28.1009   19.0643 C   0  0  0  0  0  0  0  0  0  0  0  0
  -26.4248  -12.5590   20.3049 C   0  0  0  0  0  0  0  0  0  0  0  0
  -24.6645  -20.1444   20.7947 C   0  0  0  0  0  0  0  0  0  0  0  0
  -26.3392  -13.8564   19.7648 C   0  0  0  0  0  0  0  0  0  0  0  0
  -23.3047  -20.0876   21.1322 C   0  0  0  0  0  0  0  0  0  0  0  0
  -29.1215  -23.8574   18.8035 C   0  0  0  0  0  0  0  0  0  0  0  0
  -22.8714  -21.9658   19.6507 C   0  0  0  0  0  0  0  0  0  0  0  0
  -29.5807  -21.5527   18.8064 C   0  0  0  0  0  0  0  0  0  0  0  0
  -28.8243  -18.9610   19.5087 C   0  0  0  0  0  0  0  0  0  0  0  0
  -29.3968  -20.5875   17.8164 C   0  0  0  0  0  0  0  0  0  0  0  0
  -26.5231  -27.0203   19.8723 C   0  0  0  0  0  0  0  0  0  0  0  0
  -25.2858  -28.8380   19.8672 C   0  0  0  0  0  0  0  0  0  0  0  0
  -20.3709  -26.3131   22.8042 C   0  0  0  0  0  0  0  0  0  0  0  0
  -21.1294  -25.3555   23.3577 C   0  0  0  0  0  0  0  0  0  0  0  0
  -26.4728  -28.4107   17.7092 C   0  0  0  0  0  0  0  0  0  0  0  0
  -24.6385  -16.9659   20.8095 C   0  0  0  0  0  0  0  0  0  0  0  0
  -23.5108  -17.3774   23.8230 C   0  0  0  0  0  0  0  0  0  0  0  0
  -21.9050  -19.3862   26.0664 C   0  0  0  0  0  0  0  0  0  0  0  0
  -21.3438  -28.3735   23.8905 C   0  0  0  0  0  0  0  0  0  0  0  0
  -25.2465  -11.9004   20.9775 C   0  0  0  0  0  0  0  0  0  0  0  0
  -25.6458  -19.1939   21.4240 C   0  0  0  0  0  0  0  0  0  0  0  0
  -22.7700  -19.0655   22.1005 C   0  0  0  0  0  0  0  0  0  0  0  0
  -24.1575  -12.8838   21.3985 C   0  0  0  0  0  0  0  0  0  0  0  0
  -24.5699  -29.2346   24.7387 C   0  0  0  0  0  0  0  0  0  0  0  0
  -23.8501  -13.8572   20.2650 C   0  0  0  0  0  0  0  0  0  0  0  0
  -25.3796  -28.8700   23.4940 C   0  0  0  0  0  0  0  0  0  0  0  0
  -18.2840  -27.2310   22.1808 C   0  0  0  0  0  0  0  0  0  0  0  0
  -23.5245  -28.1673   25.0437 C   0  0  0  0  0  0  0  0  0  0  0  0
  -19.2138  -28.3468   22.6241 C   0  0  0  0  0  0  0  0  0  0  0  0
  -23.3924  -27.5206   22.6620 C   0  0  0  0  0  0  0  0  0  0  0  0
  -25.0851  -14.6917   19.9043 C   0  0  1  0  0  0  0  0  0  0  0  0
  -24.9952  -17.9080   21.9244 C   0  0  1  0  0  0  0  0  0  0  0  0
  -24.4556  -28.5766   22.2981 C   0  0  2  0  0  0  0  0  0  0  0  0
  -19.2237  -26.0629   21.8290 C   0  0  2  0  0  0  0  0  0  0  0  0
  -18.4861  -24.7287   22.0046 C   0  0  0  0  0  0  0  0  0  0  0  0
  -21.0960  -19.4338   28.4414 C   0  0  0  0  0  0  0  0  0  0  0  0
  -21.1714  -15.5734   23.0598 C   0  0  0  0  0  0  0  0  0  0  0  0
  -19.9552  -16.4130   25.0806 C   0  0  0  0  0  0  0  0  0  0  0  0
  -22.0997  -15.1667   25.3461 C   0  0  0  0  0  0  0  0  0  0  0  0
  -23.6355  -21.6931   26.7318 C   0  0  0  0  0  0  0  0  0  0  0  0
  -19.7302  -26.1804   20.3814 C   0  0  0  0  0  0  0  0  0  0  0  0
  -21.3767  -25.1560   18.8072 C   0  0  0  0  0  0  0  0  0  0  0  0
  -22.4986  -24.1377   18.7564 C   0  0  0  0  0  0  0  0  0  1  0  0
  -22.1416  -17.5271   24.4410 C   0  0  1  0  0  0  0  0  0  0  0  0
  -22.2401  -19.7679   27.4969 C   0  0  2  0  0  0  0  0  0  0  0  0
  -21.3514  -16.1882   24.4621 C   0  0  0  0  0  0  0  0  0  0  0  0
  -25.9866  -27.0633   21.0947 N   0  0  0  0  0  0  0  0  0  0  0  0
  -25.2395  -28.1798   21.0609 N   0  0  0  0  0  0  0  0  0  0  0  0
  -20.4171  -27.6716   23.1163 N   0  0  0  0  0  0  0  0  0  0  0  0
  -23.7680  -18.1541   22.6844 N   0  0  0  0  0  0  0  0  0  0  0  0
  -22.6715  -27.9217   23.8808 N   0  0  0  0  0  0  0  0  0  0  0  0
  -24.5933  -29.9784   19.6615 N   0  0  0  0  0  0  0  0  0  0  0  0
  -27.3433  -27.5471   17.0304 N   0  0  0  0  0  0  0  0  0  0  0  0
  -25.2840  -15.7459   20.8757 N   0  0  0  0  0  0  0  0  0  0  0  0
  -22.3507  -18.1183   25.7582 N   0  0  0  0  0  0  0  0  0  0  0  0
  -22.5166  -21.2292   27.5920 N   0  3  0  0  0  0  0  0  0  0  0  0
  -20.8160  -25.2026   20.1895 N   0  3  0  0  0  0  0  0  0  0  0  0
  -26.0407  -29.4321   17.1231 O   0  0  0  0  0  0  0  0  0  0  0  0
  -23.8360  -17.3192   19.9535 O   0  0  0  0  0  0  0  0  0  0  0  0
  -24.3247  -16.6054   24.3360 O   0  0  0  0  0  0  0  0  0  0  0  0
  -21.3042  -20.1363   25.3002 O   0  0  0  0  0  0  0  0  0  0  0  0
  -21.0098  -29.3837   24.5233 O   0  0  0  0  0  0  0  0  0  0  0  0
  -29.9570  -22.8395   18.4594 O   0  0  0  0  0  0  0  0  0  0  0  0
  -21.9901  -22.8527   19.0891 O   0  0  0  0  0  0  0  0  0  1  0  0
  -28.4626  -17.7162   19.8461 F   0  0  0  0  0  0  0  0  0  0  0  0
  -29.5831  -20.8988   16.5264 F   0  0  0  0  0  0  0  0  0  0  0  0
  1  2  1  0  0  0  0
  1  5  2  0  0  0  0
  2  6  2  0  0  0  0
  3  8  2  0  0  0  0
  3 15  1  0  0  0  0
  4  9  1  0  0  0  0
  4 15  2  0  0  0  0
  5 17  1  0  0  0  0
  6 19  1  0  0  0  0
  7 10  2  0  0  0  0
  7 18  1  0  0  0  0
  8 21  1  0  0  0  0
  9 21  2  0  0  0  0
 10 22  1  0  0  0  0
 11 12  2  0  0  0  0
 11 23  1  0  0  0  0
 12 24  1  0  0  0  0
 13 20  1  0  0  0  0
 13 22  2  0  0  0  0
 14 24  2  0  0  0  0
 14 25  1  0  0  0  0
 15 26  1  0  0  0  0
 16 26  1  0  0  0  0
 16 27  2  0  0  0  0
 16 30  1  0  0  0  0
 17 19  2  0  0  0  0
 17 35  1  0  0  0  0
 18 20  2  0  0  0  0
 18 36  1  0  0  0  0
 19 46  1  0  0  0  0
 20 37  1  0  0  0  0
 21 78  1  0  0  0  0
 22 79  1  0  0  0  0
 23 25  2  0  0  0  0
 23 78  1  0  0  0  0
 24 80  1  0  0  0  0
 25 81  1  0  0  0  0
 26 62  2  0  0  0  0
 27 63  1  0  0  0  0
 27 67  1  0  0  0  0
 28 29  2  0  0  0  0
 28 49  1  0  0  0  0
 28 64  1  0  0  0  0
 30 68  1  0  0  0  0
 30 73  2  0  0  0  0
 31 47  1  0  0  0  0
 31 69  1  0  0  0  0
 31 74  2  0  0  0  0
 32 59  1  0  0  0  0
 32 65  1  0  0  0  0
 32 75  2  0  0  0  0
 33 60  1  0  0  0  0
 33 70  1  0  0  0  0
 33 76  2  0  0  0  0
 34 64  1  0  0  0  0
 34 66  1  0  0  0  0
 34 77  2  0  0  0  0
 35 38  1  0  0  0  0
 36 47  1  0  0  0  0
 37 65  1  0  0  0  0
 38 40  1  0  0  0  0
 39 41  1  0  0  0  0
 39 43  1  0  0  0  0
 40 46  1  0  0  0  0
 41 48  1  0  0  0  0
 42 44  1  0  0  0  0
 42 49  1  0  0  0  0
 43 66  1  0  0  0  0
 44 64  1  0  0  0  0
 45 48  1  0  0  0  0
 45 66  1  0  0  0  0
 46 69  1  0  0  0  0
 47 65  1  0  0  0  0
 48 63  1  0  0  0  0
 49 50  1  0  0  0  0
 49 56  1  0  0  0  0
 51 60  1  0  0  0  0
 52 61  1  0  0  0  0
 53 61  1  0  0  0  0
 54 61  1  0  0  0  0
 55 71  1  0  0  0  0
 56 72  1  0  0  0  0
 57 58  1  0  0  0  0
 57 72  1  0  0  0  0
 58 79  1  0  0  0  0
 59 61  1  0  0  0  0
 59 70  1  0  0  0  0
 60 71  1  0  0  0  0
 62 63  1  0  0  0  0
M  CHG  2  71   1  72   1
M  ISO  4  34 100  58 101  64 100  79 101
M  END
> <Batch ID>
0186

> <Smiles>
C=C1[100N:0]([100C:0](=O)N2CCCC(n3nc(-c4ccc(Oc5ccc(F)cc5F)cc4)c(C(N)=O)c3N)C2)CCC1(C)CNC[101CH2:1][101O:1]c1ccc2c(c1)CN(C(=O)C(NC(=O)C(C)NC)C(C)(C)C)C(C(=O)NC1CCCc3ccccc31)C2

> <Shape>
0.213

> <Color>
0.061

> <Negative vol penalty>
0.000

$$$$

  -OEChem-04052323143D

 81 89  0     1  0  0  0  0  0999 V2000
  -26.4214  -35.1430   23.6644 C   0  0  0  0  0  0  0  0  0  0  0  0
  -26.8982  -33.8682   23.3767 C   0  0  0  0  0  0  0  0  0  0  0  0
  -24.1275  -14.2677   21.5032 C   0  0  0  0  0  0  0  0  0  0  0  0
  -25.1057  -14.4889   19.3053 C   0  0  0  0  0  0  0  0  0  0  0  0
  -25.1140  -35.3109   24.1190 C   0  0  0  0  0  0  0  0  0  0  0  0
  -26.0682  -32.7603   23.5444 C   0  0  0  0  0  0  0  0  0  0  0  0
  -26.3236  -29.5341   19.6494 C   0  0  0  0  0  0  0  0  0  0  0  0
  -23.5310  -13.0675   21.1170 C   0  0  0  0  0  0  0  0  0  0  0  0
  -24.5093  -13.2886   18.9190 C   0  0  0  0  0  0  0  0  0  0  0  0
  -27.4302  -28.6878   19.5951 C   0  0  0  0  0  0  0  0  0  0  0  0
  -24.4594   -9.8413   20.7131 C   0  0  0  0  0  0  0  0  0  0  0  0
  -24.5362   -8.7653   21.5973 C   0  0  0  0  0  0  0  0  0  0  0  0
  -26.0984  -26.8974   20.5117 C   0  0  0  0  0  0  0  0  0  0  0  0
  -22.1241   -8.6839   21.7078 C   0  0  0  0  0  0  0  0  0  0  0  0
  -24.9148  -14.9785   20.5974 C   0  0  0  0  0  0  0  0  0  0  0  0
  -26.8012  -16.3884   21.5779 C   0  0  0  0  0  0  0  0  0  0  0  0
  -24.2645  -34.2055   24.2832 C   0  0  0  0  0  0  0  0  0  0  0  0
  -25.0969  -29.0707   20.1462 C   0  0  0  0  0  0  0  0  0  0  0  0
  -24.7487  -32.9134   24.0029 C   0  0  0  0  0  0  0  0  0  0  0  0
  -24.9771  -27.7391   20.5688 C   0  0  0  0  0  0  0  0  0  0  0  0
  -23.7219  -12.5779   19.8249 C   0  0  0  0  0  0  0  0  0  0  0  0
  -27.3185  -27.3700   20.0290 C   0  0  0  0  0  0  0  0  0  0  0  0
  -23.2149  -10.3387   20.3263 C   0  0  0  0  0  0  0  0  0  0  0  0
  -23.3686   -8.1865   22.0946 C   0  0  0  0  0  0  0  0  0  0  0  0
  -22.0473   -9.7600   20.8236 C   0  0  0  0  0  0  0  0  0  0  0  0
  -25.5307  -16.2187   20.9956 C   0  0  0  0  0  0  0  0  0  0  0  0
  -26.9151  -17.7445   21.7641 C   0  0  0  0  0  0  0  0  0  0  0  0
  -27.7899  -15.4080   21.9197 C   0  0  0  0  0  0  0  0  0  0  0  0
  -23.2312  -29.8510   22.5986 C   0  0  0  0  0  0  0  0  0  0  0  0
  -21.2123  -27.7046   21.2425 C   0  0  0  0  0  0  0  0  0  0  0  0
  -20.4773  -24.5969   19.5635 C   0  0  0  0  0  0  0  0  0  0  0  0
  -24.3990  -22.4623   19.0858 C   0  0  0  0  0  0  0  0  0  0  0  0
  -22.8743  -34.4320   24.8223 C   0  0  0  0  0  0  0  0  0  0  0  0
  -23.9056  -29.9886   20.1733 C   0  0  0  0  0  0  0  0  0  0  0  0
  -23.6770  -27.1870   21.0918 C   0  0  0  0  0  0  0  0  0  0  0  0
  -21.9397  -33.2428   24.6159 C   0  0  0  0  0  0  0  0  0  0  0  0
  -24.2647  -21.6530   22.5411 C   0  0  0  0  0  0  0  0  0  0  0  0
  -22.6322  -31.9439   25.0159 C   0  0  0  0  0  0  0  0  0  0  0  0
  -24.6928  -20.1854   22.5919 C   0  0  0  0  0  0  0  0  0  0  0  0
  -24.5022  -22.7510   15.6133 C   0  0  0  0  0  0  0  0  0  0  0  0
  -25.7587  -22.8360   14.7256 C   0  0  0  0  0  0  0  0  0  0  0  0
  -23.4229  -21.9526   21.3025 C   0  0  0  0  0  0  0  0  0  0  0  0
  -24.4661  -20.0903   20.0739 C   0  0  0  0  0  0  0  0  0  0  0  0
  -23.8709  -31.6893   24.1486 C   0  0  1  0  0  0  0  0  0  0  0  0
  -22.8414  -29.5570   21.1776 C   0  0  1  0  0  0  0  0  0  0  0  0
  -25.3650  -19.7508   21.2754 C   0  0  2  0  0  0  0  0  0  0  0  0
  -25.4417  -22.8528   16.8345 C   0  0  2  0  0  0  0  0  0  0  0  0
  -26.5650  -22.2871   15.9265 C   0  0  2  0  0  0  0  0  0  0  0  0
  -18.7462  -23.1448   18.4715 C   0  0  0  0  0  0  0  0  0  0  0  0
  -21.0844  -26.3028   23.9496 C   0  0  0  0  0  0  0  0  0  0  0  0
  -20.1220  -24.3032   22.7906 C   0  0  0  0  0  0  0  0  0  0  0  0
  -18.8920  -26.4733   22.7585 C   0  0  0  0  0  0  0  0  0  0  0  0
  -21.2629  -25.4968   16.8558 C   0  0  0  0  0  0  0  0  0  0  0  0
  -30.0563  -25.4885   18.5919 C   0  0  0  0  0  0  0  0  0  0  0  0
  -29.6330  -23.1983   17.6895 C   0  0  0  0  0  0  0  0  0  0  0  0
  -29.3533  -26.7840   18.9463 C   0  0  0  0  0  0  0  0  0  1  0  0
  -28.5154  -22.2792   17.2374 C   0  0  0  0  0  0  0  0  0  0  0  0
  -20.9899  -26.2170   21.3709 C   0  0  1  0  0  0  0  0  0  0  0  0
  -19.5839  -24.4083   18.3507 C   0  0  2  0  0  0  0  0  0  0  0  0
  -20.2972  -25.8347   22.7094 C   0  0  0  0  0  0  0  0  0  0  0  0
  -24.8839  -17.3745   20.8234 N   0  0  0  0  0  0  0  0  0  0  0  0
  -25.7512  -18.2835   21.3004 N   0  0  0  0  0  0  0  0  0  0  0  0
  -22.5426  -28.1253   21.1044 N   0  0  0  0  0  0  0  0  0  0  0  0
  -24.1218  -21.5208   20.0894 N   0  0  0  0  0  0  0  0  0  0  0  0
  -27.8963  -18.5164   22.2777 N   0  0  0  0  0  0  0  0  0  0  0  0
  -27.5108  -14.0592   21.6606 N   0  0  0  0  0  0  0  0  0  0  0  0
  -23.4828  -31.1867   22.8481 N   0  0  0  0  0  0  0  0  0  0  0  0
  -20.2531  -25.8100   20.1793 N   0  0  0  0  0  0  0  0  0  0  0  0
  -25.0726  -21.9805   17.9682 N   0  0  0  0  0  0  0  0  0  0  0  0
  -20.4063  -24.3103   17.1118 N   0  3  0  0  0  0  0  0  0  0  0  0
  -29.0568  -24.5076   18.0988 N   0  3  0  0  0  0  0  0  0  0  0  0
  -28.8815  -15.7173   22.4547 O   0  0  0  0  0  0  0  0  0  0  0  0
  -23.2974  -28.9342   23.4090 O   0  0  0  0  0  0  0  0  0  0  0  0
  -20.2409  -28.4648   21.2568 O   0  0  0  0  0  0  0  0  0  0  0  0
  -21.2899  -23.7508   19.9302 O   0  0  0  0  0  0  0  0  0  0  0  0
  -24.0787  -23.6526   19.1759 O   0  0  0  0  0  0  0  0  0  0  0  0
  -23.1402  -11.4066   19.4478 O   0  0  0  0  0  0  0  0  0  0  0  0
  -28.3973  -26.5421   19.9777 O   0  0  0  0  0  0  0  0  0  1  0  0
  -27.8577  -22.8472   16.1125 O   0  0  0  0  0  0  0  0  0  0  0  0
  -23.4425   -7.1522   22.9425 F   0  0  0  0  0  0  0  0  0  0  0  0
  -20.8488  -10.2327   20.4547 F   0  0  0  0  0  0  0  0  0  0  0  0
  1  2  1  0  0  0  0
  1  5  2  0  0  0  0
  2  6  2  0  0  0  0
  3  8  2  0  0  0  0
  3 15  1  0  0  0  0
  4  9  1  0  0  0  0
  4 15  2  0  0  0  0
  5 17  1  0  0  0  0
  6 19  1  0  0  0  0
  7 10  2  0  0  0  0
  7 18  1  0  0  0  0
  8 21  1  0  0  0  0
  9 21  2  0  0  0  0
 10 22  1  0  0  0  0
 11 12  2  0  0  0  0
 11 23  1  0  0  0  0
 12 24  1  0  0  0  0
 13 20  1  0  0  0  0
 13 22  2  0  0  0  0
 14 24  2  0  0  0  0
 14 25  1  0  0  0  0
 15 26  1  0  0  0  0
 16 26  1  0  0  0  0
 16 27  2  0  0  0  0
 16 28  1  0  0  0  0
 17 19  2  0  0  0  0
 17 33  1  0  0  0  0
 18 20  2  0  0  0  0
 18 34  1  0  0  0  0
 19 44  1  0  0  0  0
 20 35  1  0  0  0  0
 21 77  1  0  0  0  0
 22 78  1  0  0  0  0
 23 25  2  0  0  0  0
 23 77  1  0  0  0  0
 24 80  1  0  0  0  0
 25 81  1  0  0  0  0
 26 61  2  0  0  0  0
 27 62  1  0  0  0  0
 27 65  1  0  0  0  0
 28 66  1  0  0  0  0
 28 72  2  0  0  0  0
 29 45  1  0  0  0  0
 29 67  1  0  0  0  0
 29 73  2  0  0  0  0
 30 58  1  0  0  0  0
 30 63  1  0  0  0  0
 30 74  2  0  0  0  0
 31 59  1  0  0  0  0
 31 68  1  0  0  0  0
 31 75  2  0  0  0  0
 32 64  1  0  0  0  0
 32 69  1  0  0  0  0
 32 76  2  0  0  0  0
 33 36  1  0  0  0  0
 34 45  1  0  0  0  0
 35 63  1  0  0  0  0
 36 38  1  0  0  0  0
 37 39  1  0  0  0  0
 37 42  1  0  0  0  0
 38 44  1  0  0  0  0
 39 46  1  0  0  0  0
 40 41  1  0  0  0  0
 40 47  1  0  0  0  0
 41 48  1  0  0  0  0
 42 64  1  0  0  0  0
 43 46  1  0  0  0  0
 43 64  1  0  0  0  0
 44 67  1  0  0  0  0
 45 63  1  0  0  0  0
 46 62  1  0  0  0  0
 47 48  1  0  0  0  0
 47 69  1  0  0  0  0
 48 79  1  0  0  0  0
 49 59  1  0  0  0  0
 50 60  1  0  0  0  0
 51 60  1  0  0  0  0
 52 60  1  0  0  0  0
 53 70  1  0  0  0  0
 54 56  1  0  0  0  0
 54 71  1  0  0  0  0
 55 57  1  0  0  0  0
 55 71  1  0  0  0  0
 56 78  1  0  0  0  0
 57 79  1  0  0  0  0
 58 60  1  0  0  0  0
 58 68  1  0  0  0  0
 59 70  1  0  0  0  0
 61 62  1  0  0  0  0
M  CHG  2  70   1  71   1
M  ISO  4  32 100  56 101  69 100  78 101
M  END
> <Batch ID>
0186

> <Smiles>
CNC(C)C(=O)NC(C(=O)N1Cc2cc([101O:1][101CH2:1]CNCCOC3CCC3[100NH:0][100C:0](=O)N3CCCC(n4nc(-c5ccc(Oc6ccc(F)cc6F)cc5)c(C(N)=O)c4N)C3)ccc2CC1C(=O)NC1CCCc2ccccc21)C(C)(C)C

> <Shape>
0.246

> <Color>
0.076

> <Negative vol penalty>
0.000

$$$$

  -OEChem-04052323143D

 85 94  0     1  0  0  0  0  0999 V2000
  -28.2329  -36.3544   21.9409 C   0  0  0  0  0  0  0  0  0  0  0  0
  -28.6015  -35.0272   21.7454 C   0  0  0  0  0  0  0  0  0  0  0  0
  -23.5558  -10.5897   21.5366 C   0  0  0  0  0  0  0  0  0  0  0  0
  -24.9562   -8.6521   21.8854 C   0  0  0  0  0  0  0  0  0  0  0  0
  -27.0365  -36.6560   22.5902 C   0  0  0  0  0  0  0  0  0  0  0  0
  -27.7743  -34.0008   22.2000 C   0  0  0  0  0  0  0  0  0  0  0  0
  -26.8758  -28.5514   19.5540 C   0  0  0  0  0  0  0  0  0  0  0  0
  -22.4346   -9.7642   21.4524 C   0  0  0  0  0  0  0  0  0  0  0  0
  -23.8350   -7.8266   21.8013 C   0  0  0  0  0  0  0  0  0  0  0  0
  -27.4170  -27.2898   19.7975 C   0  0  0  0  0  0  0  0  0  0  0  0
  -21.2759   -6.8927   23.8011 C   0  0  0  0  0  0  0  0  0  0  0  0
  -21.1453   -5.8807   24.7521 C   0  0  0  0  0  0  0  0  0  0  0  0
  -25.5047  -26.7394   21.1611 C   0  0  0  0  0  0  0  0  0  0  0  0
  -21.1630   -4.2251   22.9925 C   0  0  0  0  0  0  0  0  0  0  0  0
  -30.4313  -22.0393   21.5321 C   0  0  0  0  0  0  0  0  0  0  0  0
  -24.8166  -10.0336   21.7530 C   0  0  0  0  0  0  0  0  0  0  0  0
  -26.5089  -11.4800   22.9987 C   0  0  0  0  0  0  0  0  0  0  0  0
  -26.1896  -35.6328   23.0444 C   0  0  0  0  0  0  0  0  0  0  0  0
  -25.6482  -28.9210   20.1220 C   0  0  0  0  0  0  0  0  0  0  0  0
  -26.5661  -34.2891   22.8571 C   0  0  0  0  0  0  0  0  0  0  0  0
  -24.9489  -28.0053   20.9211 C   0  0  0  0  0  0  0  0  0  0  0  0
  -22.5742   -8.3827   21.5848 C   0  0  0  0  0  0  0  0  0  0  0  0
  -26.7328  -26.3846   20.6035 C   0  0  0  0  0  0  0  0  0  0  0  0
  -21.3499   -6.5710   22.4459 C   0  0  0  0  0  0  0  0  0  0  0  0
  -21.0889   -4.5469   24.3478 C   0  0  0  0  0  0  0  0  0  0  0  0
  -21.2935   -5.2372   22.0416 C   0  0  0  0  0  0  0  0  0  0  0  0
  -25.9753  -10.8858   21.8394 C   0  0  0  0  0  0  0  0  0  0  0  0
  -28.1341  -22.3813   20.2155 C   0  0  0  0  0  0  0  0  0  0  0  0
  -28.9166  -23.4578   20.5713 C   0  0  0  0  0  0  0  0  0  0  0  0
  -29.6486  -20.9629   21.1769 C   0  0  0  0  0  0  0  0  0  0  0  0
  -27.5989  -12.1863   22.5519 C   0  0  0  0  0  0  0  0  0  0  0  0
  -26.0597  -11.4005   24.3579 C   0  0  0  0  0  0  0  0  0  0  0  0
  -24.7055  -31.1747   22.1557 C   0  0  0  0  0  0  0  0  0  0  0  0
  -21.7525  -30.0418   21.4356 C   0  0  0  0  0  0  0  0  0  0  0  0
  -19.8375  -27.4456   20.3222 C   0  0  0  0  0  0  0  0  0  0  0  0
  -29.6598  -15.7775   18.7135 C   0  0  0  0  0  0  0  0  0  0  0  0
  -24.9291  -36.0079   23.7828 C   0  0  0  0  0  0  0  0  0  0  0  0
  -25.0651  -30.2760   19.8278 C   0  0  0  0  0  0  0  0  0  0  0  0
  -23.6178  -28.3460   21.5381 C   0  0  0  0  0  0  0  0  0  0  0  0
  -23.9284  -34.8613   23.9013 C   0  0  0  0  0  0  0  0  0  0  0  0
  -29.9354  -12.1747   18.0678 C   0  0  0  0  0  0  0  0  0  0  0  0
  -24.6323  -33.5819   24.3425 C   0  0  0  0  0  0  0  0  0  0  0  0
  -28.9350  -11.5757   19.0573 C   0  0  0  0  0  0  0  0  0  0  0  0
  -29.8328  -17.3043   22.0535 C   0  0  0  0  0  0  0  0  0  0  0  0
  -29.5225  -13.5727   17.6132 C   0  0  0  0  0  0  0  0  0  0  0  0
  -29.3489  -16.1111   21.2360 C   0  0  0  0  0  0  0  0  0  0  0  0
  -28.2510  -13.9175   19.6958 C   0  0  0  0  0  0  0  0  0  0  0  0
  -29.6289  -18.0086   19.7916 C   0  0  0  0  0  0  0  0  0  0  0  0
  -25.6835  -33.1478   23.3139 C   0  0  1  0  0  0  0  0  0  0  0  0
  -24.0546  -30.7320   20.8759 C   0  0  1  0  0  0  0  0  0  0  0  0
  -28.6675  -12.5395   20.2285 C   0  0  1  0  0  0  0  0  0  0  0  0
  -29.3611  -18.4847   21.2114 C   0  0  2  0  0  0  0  0  0  0  0  0
  -26.5485  -21.3971   18.5411 C   0  0  0  0  0  0  0  0  0  0  0  0
  -17.4519  -26.8063   19.8781 C   0  0  0  0  0  0  0  0  0  0  0  0
  -21.2864  -29.7087   24.4326 C   0  0  0  0  0  0  0  0  0  0  0  0
  -19.3432  -28.2244   23.8947 C   0  0  0  0  0  0  0  0  0  0  0  0
  -19.3274  -30.6100   23.1659 C   0  0  0  0  0  0  0  0  0  0  0  0
  -20.3720  -26.9952   17.4464 C   0  0  0  0  0  0  0  0  0  0  0  0
  -26.8507  -22.5628   19.4798 C   0  0  0  0  0  0  0  0  0  0  0  0
  -28.5158  -24.8540   20.2375 C   0  0  0  0  0  0  0  0  0  1  0  0
  -20.8533  -28.9673   21.9977 C   0  0  1  0  0  0  0  0  0  0  0  0
  -18.7289  -27.3832   19.2871 C   0  0  2  0  0  0  0  0  0  0  0  0
  -20.2286  -29.3716   23.3628 C   0  0  0  0  0  0  0  0  0  0  0  0
  -30.0793  -23.3061   21.2357 N   0  0  0  0  0  0  0  0  0  0  0  0
  -26.6689  -11.1884   20.7388 N   0  0  0  0  0  0  0  0  0  0  0  0
  -28.4860  -21.1146   20.5122 N   0  0  0  0  0  0  0  0  0  0  0  0
  -27.6496  -11.9805   21.2046 N   0  0  0  0  0  0  0  0  0  0  0  0
  -23.0922  -29.6854   21.2260 N   0  0  0  0  0  0  0  0  0  0  0  0
  -29.2534  -14.4395   18.7608 N   0  0  0  0  0  0  0  0  0  0  0  0
  -29.4352  -16.5615   19.8444 N   0  0  0  0  0  0  0  0  0  0  0  0
  -28.5092  -12.9571   23.1839 N   0  0  0  0  0  0  0  0  0  0  0  0
  -24.9231  -10.6312   24.6421 N   0  0  0  0  0  0  0  0  0  0  0  0
  -30.0837  -19.6901   21.5208 N   0  0  0  0  0  0  0  0  0  0  0  0
  -25.0481  -32.5132   22.1790 N   0  0  0  0  0  0  0  0  0  0  0  0
  -19.8747  -28.6687   20.9577 N   0  0  0  0  0  0  0  0  0  0  0  0
  -19.1415  -26.5302   18.1369 N   0  3  0  0  0  0  0  0  0  0  0  0
  -26.6390  -12.0075   25.2904 O   0  0  0  0  0  0  0  0  0  0  0  0
  -24.8824  -30.3624   23.0561 O   0  0  0  0  0  0  0  0  0  0  0  0
  -21.2819  -31.1541   21.1848 O   0  0  0  0  0  0  0  0  0  0  0  0
  -20.5925  -26.5023   20.5473 O   0  0  0  0  0  0  0  0  0  0  0  0
  -30.2406  -16.2396   17.7225 O   0  0  0  0  0  0  0  0  0  0  0  0
  -21.4803   -7.5769   21.5030 O   0  0  0  0  0  0  0  0  0  0  0  0
  -27.2626  -25.1444   20.8450 O   0  0  0  0  0  0  0  0  0  1  0  0
  -20.9651   -3.5750   25.2612 F   0  0  0  0  0  0  0  0  0  0  0  0
  -21.3654   -4.9219   20.7411 F   0  0  0  0  0  0  0  0  0  0  0  0
  1  2  1  0  0  0  0
  1  5  2  0  0  0  0
  2  6  2  0  0  0  0
  3  8  2  0  0  0  0
  3 16  1  0  0  0  0
  4  9  1  0  0  0  0
  4 16  2  0  0  0  0
  5 18  1  0  0  0  0
  6 20  1  0  0  0  0
  7 10  2  0  0  0  0
  7 19  1  0  0  0  0
  8 22  1  0  0  0  0
  9 22  2  0  0  0  0
 10 23  1  0  0  0  0
 11 12  2  0  0  0  0
 11 24  1  0  0  0  0
 12 25  1  0  0  0  0
 13 21  1  0  0  0  0
 13 23  2  0  0  0  0
 14 25  2  0  0  0  0
 14 26  1  0  0  0  0
 15 30  1  0  0  0  0
 15 64  2  0  0  0  0
 16 27  1  0  0  0  0
 17 27  1  0  0  0  0
 17 31  2  0  0  0  0
 17 32  1  0  0  0  0
 18 20  2  0  0  0  0
 18 37  1  0  0  0  0
 19 21  2  0  0  0  0
 19 38  1  0  0  0  0
 20 49  1  0  0  0  0
 21 39  1  0  0  0  0
 22 82  1  0  0  0  0
 23 83  1  0  0  0  0
 24 26  2  0  0  0  0
 24 82  1  0  0  0  0
 25 84  1  0  0  0  0
 26 85  1  0  0  0  0
 27 65  2  0  0  0  0
 28 29  2  0  0  0  0
 28 59  1  0  0  0  0
 28 66  1  0  0  0  0
 29 60  1  0  0  0  0
 29 64  1  0  0  0  0
 30 66  2  0  0  0  0
 30 73  1  0  0  0  0
 31 67  1  0  0  0  0
 31 71  1  0  0  0  0
 32 72  1  0  0  0  0
 32 77  2  0  0  0  0
 33 50  1  0  0  0  0
 33 74  1  0  0  0  0
 33 78  2  0  0  0  0
 34 61  1  0  0  0  0
 34 68  1  0  0  0  0
 34 79  2  0  0  0  0
 35 62  1  0  0  0  0
 35 75  1  0  0  0  0
 35 80  2  0  0  0  0
 36 69  1  0  0  0  0
 36 70  1  0  0  0  0
 36 81  2  0  0  0  0
 37 40  1  0  0  0  0
 38 50  1  0  0  0  0
 39 68  1  0  0  0  0
 40 42  1  0  0  0  0
 41 43  1  0  0  0  0
 41 45  1  0  0  0  0
 42 49  1  0  0  0  0
 43 51  1  0  0  0  0
 44 46  1  0  0  0  0
 44 52  1  0  0  0  0
 45 69  1  0  0  0  0
 46 70  1  0  0  0  0
 47 51  1  0  0  0  0
 47 69  1  0  0  0  0
 48 52  1  0  0  0  0
 48 70  1  0  0  0  0
 49 74  1  0  0  0  0
 50 68  1  0  0  0  0
 51 67  1  0  0  0  0
 52 73  1  0  0  0  0
 53 59  1  0  0  0  0
 54 62  1  0  0  0  0
 55 63  1  0  0  0  0
 56 63  1  0  0  0  0
 57 63  1  0  0  0  0
 58 76  1  0  0  0  0
 60 83  1  0  0  0  0
 61 63  1  0  0  0  0
 61 75  1  0  0  0  0
 62 76  1  0  0  0  0
 65 67  1  0  0  0  0
M  CHG  1  76   1
M  ISO  4  36 100  60 101  70 100  83 101
M  END
> <Batch ID>
0186

> <Smiles>
CCc1nc(NC2CC[100N:0]([100C:0](=O)N3CCCC(n4nc(-c5ccc(Oc6ccc(F)cc6F)cc5)c(C(N)=O)c4N)C3)C2)cnc1[101CH2:1][101O:1]c1ccc2c(c1)CN(C(=O)C(NC(=O)C(C)NC)C(C)(C)C)C(C(=O)NC1CCCc3ccccc31)C2

> <Shape>
0.357

> <Color>
0.080

> <Negative vol penalty>
0.000

$$$$

  -OEChem-04052323143D

 79 88  0     1  0  0  0  0  0999 V2000
  -22.7016  -23.3618   18.3306 C   0  0  0  0  0  0  0  0  0  0  0  0
  -23.8567  -22.7126   18.7544 C   0  0  0  0  0  0  0  0  0  0  0  0
  -24.9332  -30.1352   23.1634 C   0  0  0  0  0  0  0  0  0  0  0  0
  -26.0639  -31.8551   21.8983 C   0  0  0  0  0  0  0  0  0  0  0  0
  -21.4513  -22.8797   18.7157 C   0  0  0  0  0  0  0  0  0  0  0  0
  -23.7623  -21.5816   19.5645 C   0  0  0  0  0  0  0  0  0  0  0  0
  -26.8543  -17.8592   18.0717 C   0  0  0  0  0  0  0  0  0  0  0  0
  -24.6553  -31.0590   24.1709 C   0  0  0  0  0  0  0  0  0  0  0  0
  -25.7859  -32.7789   22.9057 C   0  0  0  0  0  0  0  0  0  0  0  0
  -28.2022  -17.9781   18.4073 C   0  0  0  0  0  0  0  0  0  0  0  0
  -23.1511  -34.6340   23.9240 C   0  0  0  0  0  0  0  0  0  0  0  0
  -22.6779  -35.8882   23.5385 C   0  0  0  0  0  0  0  0  0  0  0  0
  -27.8703  -16.4609   20.2532 C   0  0  0  0  0  0  0  0  0  0  0  0
  -24.5855  -36.9316   24.5918 C   0  0  0  0  0  0  0  0  0  0  0  0
  -25.6376  -30.5332   22.0271 C   0  0  0  0  0  0  0  0  0  0  0  0
  -25.1294  -29.2782   19.8651 C   0  0  0  0  0  0  0  0  0  0  0  0
  -21.3412  -21.7365   19.5229 C   0  0  0  0  0  0  0  0  0  0  0  0
  -26.0004  -17.0474   18.8322 C   0  0  0  0  0  0  0  0  0  0  0  0
  -22.5093  -21.0845   19.9618 C   0  0  0  0  0  0  0  0  0  0  0  0
  -26.5124  -16.3314   19.9236 C   0  0  0  0  0  0  0  0  0  0  0  0
  -25.0816  -32.3808   24.0420 C   0  0  0  0  0  0  0  0  0  0  0  0
  -28.7098  -17.2812   19.4999 C   0  0  0  0  0  0  0  0  0  0  0  0
  -24.3414  -34.5285   24.6435 C   0  0  0  0  0  0  0  0  0  0  0  0
  -23.3951  -37.0370   23.8724 C   0  0  0  0  0  0  0  0  0  0  0  0
  -25.0587  -35.6773   24.9774 C   0  0  0  0  0  0  0  0  0  0  0  0
  -25.9256  -29.5793   20.9864 C   0  0  0  0  0  0  0  0  0  0  0  0
  -25.8385  -28.3158   19.1889 C   0  0  0  0  0  0  0  0  0  0  0  0
  -23.8621  -29.8202   19.4701 C   0  0  0  0  0  0  0  0  0  0  0  0
  -23.3986  -17.5531   20.5869 C   0  0  0  0  0  0  0  0  0  0  0  0
  -23.3790  -14.3155   20.7875 C   0  0  0  0  0  0  0  0  0  0  0  0
  -25.1343  -11.3927   20.6363 C   0  0  0  0  0  0  0  0  0  0  0  0
  -29.8110  -24.3700   21.1323 C   0  0  0  0  0  0  0  0  0  0  0  0
  -19.9692  -21.2805   19.9524 C   0  0  0  0  0  0  0  0  0  0  0  0
  -24.5546  -16.9089   18.4410 C   0  0  0  0  0  0  0  0  0  0  0  0
  -25.6419  -15.4308   20.7600 C   0  0  0  0  0  0  0  0  0  0  0  0
  -19.9452  -19.8571   20.5034 C   0  0  0  0  0  0  0  0  0  0  0  0
  -30.2781  -26.7758   18.4059 C   0  0  0  0  0  0  0  0  0  0  0  0
  -21.0841  -19.6500   21.4968 C   0  0  0  0  0  0  0  0  0  0  0  0
  -29.1650  -27.7749   18.7034 C   0  0  0  0  0  0  0  0  0  0  0  0
  -32.5184  -22.3883   21.2825 C   0  0  0  0  0  0  0  0  0  0  0  0
  -31.9021  -18.9691   20.3801 C   0  0  0  0  0  0  0  0  0  0  0  0
  -30.8765  -26.1757   19.6788 C   0  0  0  0  0  0  0  0  0  0  0  0
  -32.2598  -23.6897   20.5172 C   0  0  0  0  0  0  0  0  0  0  0  0
  -28.7467  -26.5843   20.8831 C   0  0  0  0  0  0  0  0  0  0  0  0
  -22.4473  -19.8402   20.8208 C   0  0  1  0  0  0  0  0  0  0  0  0
  -23.6643  -16.4567   19.5944 C   0  0  1  0  0  0  0  0  0  0  0  0
  -30.6096  -19.7104   20.5819 C   0  0  2  0  0  0  0  0  0  0  0  0
  -28.0984  -27.1384   19.6067 C   0  0  1  0  0  0  0  0  0  0  0  0
  -30.7050  -18.6364   19.5315 C   0  0  2  0  0  0  0  0  0  1  0  0
  -31.0072  -22.1144   21.2430 C   0  0  2  0  0  0  0  0  0  0  0  0
  -24.8529   -8.9110   20.8799 C   0  0  0  0  0  0  0  0  0  0  0  0
  -23.2624  -14.6290   23.8203 C   0  0  0  0  0  0  0  0  0  0  0  0
  -23.9353  -12.2262   24.0247 C   0  0  0  0  0  0  0  0  0  0  0  0
  -21.7914  -12.8278   22.9003 C   0  0  0  0  0  0  0  0  0  0  0  0
  -25.9887  -10.9049   17.8450 C   0  0  0  0  0  0  0  0  0  0  0  0
  -23.9809  -13.2989   21.7273 C   0  0  1  0  0  0  0  0  0  0  0  0
  -24.8554  -10.0864   19.9150 C   0  0  2  0  0  0  0  0  0  0  0  0
  -30.4932  -21.1717   20.1728 C   0  0  2  0  0  0  0  0  0  0  0  0
  -23.2587  -13.2639   23.1038 C   0  0  0  0  0  0  0  0  0  0  0  0
  -27.0541  -28.8658   21.0240 N   0  0  0  0  0  0  0  0  0  0  0  0
  -26.9720  -28.1068   19.9180 N   0  0  0  0  0  0  0  0  0  0  0  0
  -24.2338  -15.3334   20.3413 N   0  0  0  0  0  0  0  0  0  0  0  0
  -29.8406  -25.6544   20.5785 N   0  0  0  0  0  0  0  0  0  0  0  0
  -30.8524  -23.5156   20.8457 N   0  0  0  0  0  0  0  0  0  0  0  0
  -25.5967  -27.6363   18.0477 N   0  0  0  0  0  0  0  0  0  0  0  0
  -23.2735  -30.8014   20.2795 N   0  0  0  0  0  0  0  0  0  0  0  0
  -22.7934  -18.6699   20.0430 N   0  0  0  0  0  0  0  0  0  0  0  0
  -23.9694  -12.0264   21.0139 N   0  0  0  0  0  0  0  0  0  0  0  0
  -29.0563  -21.4747   19.9214 N   0  3  0  0  0  0  0  0  0  0  0  0
  -25.8926   -9.8377   18.8741 N   0  3  0  0  0  0  0  0  0  0  0  0
  -23.2615  -29.4336   18.4390 O   0  0  0  0  0  0  0  0  0  0  0  0
  -23.7177  -17.3967   21.7597 O   0  0  0  0  0  0  0  0  0  0  0  0
  -22.1960  -14.2063   20.4556 O   0  0  0  0  0  0  0  0  0  0  0  0
  -26.2718  -11.8075   20.8472 O   0  0  0  0  0  0  0  0  0  0  0  0
  -28.8993  -24.0037   21.8857 O   0  0  0  0  0  0  0  0  0  0  0  0
  -24.8103  -33.2826   25.0248 O   0  0  0  0  0  0  0  0  0  0  0  0
  -30.0442  -17.3976   19.8349 O   0  0  0  0  0  0  0  0  0  1  0  0
  -22.9415  -38.2413   23.5008 F   0  0  0  0  0  0  0  0  0  0  0  0
  -26.2035  -35.5823   25.6674 F   0  0  0  0  0  0  0  0  0  0  0  0
  1  2  1  0  0  0  0
  1  5  2  0  0  0  0
  2  6  2  0  0  0  0
  3  8  2  0  0  0  0
  3 15  1  0  0  0  0
  4  9  1  0  0  0  0
  4 15  2  0  0  0  0
  5 17  1  0  0  0  0
  6 19  1  0  0  0  0
  7 10  2  0  0  0  0
  7 18  1  0  0  0  0
  8 21  1  0  0  0  0
  9 21  2  0  0  0  0
 10 22  1  0  0  0  0
 11 12  2  0  0  0  0
 11 23  1  0  0  0  0
 12 24  1  0  0  0  0
 13 20  1  0  0  0  0
 13 22  2  0  0  0  0
 14 24  2  0  0  0  0
 14 25  1  0  0  0  0
 15 26  1  0  0  0  0
 16 26  1  0  0  0  0
 16 27  2  0  0  0  0
 16 28  1  0  0  0  0
 17 19  2  0  0  0  0
 17 33  1  0  0  0  0
 18 20  2  0  0  0  0
 18 34  1  0  0  0  0
 19 45  1  0  0  0  0
 20 35  1  0  0  0  0
 21 76  1  0  0  0  0
 22 77  1  0  0  0  0
 23 25  2  0  0  0  0
 23 76  1  0  0  0  0
 24 78  1  0  0  0  0
 25 79  1  0  0  0  0
 26 60  2  0  0  0  0
 27 61  1  0  0  0  0
 27 65  1  0  0  0  0
 28 66  1  0  0  0  0
 28 71  2  0  0  0  0
 29 46  1  0  0  0  0
 29 67  1  0  0  0  0
 29 72  2  0  0  0  0
 30 56  1  0  0  0  0
 30 62  1  0  0  0  0
 30 73  2  0  0  0  0
 31 57  1  0  0  0  0
 31 68  1  0  0  0  0
 31 74  2  0  0  0  0
 32 63  1  0  0  0  0
 32 64  1  0  0  0  0
 32 75  2  0  0  0  0
 33 36  1  0  0  0  0
 34 46  1  0  0  0  0
 35 62  1  0  0  0  0
 36 38  1  0  0  0  0
 37 39  1  0  0  0  0
 37 42  1  0  0  0  0
 38 45  1  0  0  0  0
 39 48  1  0  0  0  0
 40 43  1  0  0  0  0
 40 50  1  0  0  0  0
 41 47  1  0  0  0  0
 41 49  1  0  0  0  0
 42 63  1  0  0  0  0
 43 64  1  0  0  0  0
 44 48  1  0  0  0  0
 44 63  1  0  0  0  0
 45 67  1  0  0  0  0
 46 62  1  0  0  0  0
 47 49  1  0  0  0  0
 47 58  1  0  0  0  0
 48 61  1  0  0  0  0
 49 77  1  0  0  0  0
 50 58  1  0  0  0  0
 50 64  1  0  0  0  0
 51 57  1  0  0  0  0
 52 59  1  0  0  0  0
 53 59  1  0  0  0  0
 54 59  1  0  0  0  0
 55 70  1  0  0  0  0
 56 59  1  0  0  0  0
 56 68  1  0  0  0  0
 57 70  1  0  0  0  0
 58 69  1  0  0  0  0
 60 61  1  0  0  0  0
M  CHG  2  69   1  70   1
M  ISO  4  32 100  49 101  64 100  77 101
M  END
> <Batch ID>
0186

> <Smiles>
CNC(C)C(=O)NC(C(=O)N1Cc2cc([101O:1][101CH:1]3CC3C(N)C3CC[100N:0]3[100C:0](=O)N3CCCC(n4nc(-c5ccc(Oc6ccc(F)cc6F)cc5)c(C(N)=O)c4N)C3)ccc2CC1C(=O)NC1CCCc2ccccc21)C(C)(C)C

> <Shape>
0.246

> <Color>
0.061

> <Negative vol penalty>
0.000

$$$$

  -OEChem-04052323143D

 86 95  0     1  0  0  0  0  0999 V2000
  -31.5159  -30.4666   13.9316 C   0  0  0  0  0  0  0  0  0  0  0  0
  -31.1222  -29.2559   14.4926 C   0  0  0  0  0  0  0  0  0  0  0  0
  -24.3816  -14.9688   22.9184 C   0  0  0  0  0  0  0  0  0  0  0  0
  -24.3587  -15.3002   20.5254 C   0  0  0  0  0  0  0  0  0  0  0  0
  -31.5425  -31.6203   14.7140 C   0  0  0  0  0  0  0  0  0  0  0  0
  -30.7558  -29.1981   15.8368 C   0  0  0  0  0  0  0  0  0  0  0  0
  -26.4512  -25.6252   18.3289 C   0  0  0  0  0  0  0  0  0  0  0  0
  -23.9806  -16.2916   23.1055 C   0  0  0  0  0  0  0  0  0  0  0  0
  -23.9576  -16.6230   20.7124 C   0  0  0  0  0  0  0  0  0  0  0  0
  -26.5189  -24.4093   19.0077 C   0  0  0  0  0  0  0  0  0  0  0  0
  -21.1129  -18.0741   22.9275 C   0  0  0  0  0  0  0  0  0  0  0  0
  -20.0969  -18.3190   23.8513 C   0  0  0  0  0  0  0  0  0  0  0  0
  -26.4994  -25.5897   21.1114 C   0  0  0  0  0  0  0  0  0  0  0  0
  -21.5946  -19.7220   25.1264 C   0  0  0  0  0  0  0  0  0  0  0  0
  -24.5707  -14.4731   21.6284 C   0  0  0  0  0  0  0  0  0  0  0  0
  -24.1556  -11.9795   21.2861 C   0  0  0  0  0  0  0  0  0  0  0  0
  -31.1670  -31.5784   16.0660 C   0  0  0  0  0  0  0  0  0  0  0  0
  -26.4180  -26.8350   19.0372 C   0  0  0  0  0  0  0  0  0  0  0  0
  -30.7786  -30.3521   16.6384 C   0  0  0  0  0  0  0  0  0  0  0  0
  -26.4286  -26.8194   20.4393 C   0  0  0  0  0  0  0  0  0  0  0  0
  -27.1238  -20.9402   20.4854 C   0  0  0  0  0  0  0  0  0  0  0  0
  -23.7686  -17.1187   22.0025 C   0  0  0  0  0  0  0  0  0  0  0  0
  -26.5459  -24.3915   20.3991 C   0  0  0  0  0  0  0  0  0  0  0  0
  -22.3697  -18.6530   23.1031 C   0  0  0  0  0  0  0  0  0  0  0  0
  -20.3378  -19.1429   24.9508 C   0  0  0  0  0  0  0  0  0  0  0  0
  -22.6106  -19.4770   24.2026 C   0  0  0  0  0  0  0  0  0  0  0  0
  -24.9855  -13.1069   21.4345 C   0  0  0  0  0  0  0  0  0  0  0  0
  -28.0935  -20.0783   20.0149 C   0  0  0  0  0  0  0  0  0  0  0  0
  -27.5091  -22.2589   20.6149 C   0  0  0  0  0  0  0  0  0  1  0  0
  -25.0274  -10.9294   21.1315 C   0  0  0  0  0  0  0  0  0  0  0  0
  -29.5986  -21.7749   19.8621 C   0  0  0  0  0  0  0  0  0  0  0  0
  -22.7247  -11.8894   21.2878 C   0  0  0  0  0  0  0  0  0  0  0  0
  -28.3059  -29.3865   19.2086 C   0  0  0  0  0  0  0  0  0  0  0  0
  -25.9008  -30.5592   21.0423 C   0  0  0  0  0  0  0  0  0  0  0  0
  -23.2312  -29.9251   23.0716 C   0  0  0  0  0  0  0  0  0  0  0  0
  -29.7610  -13.7670   21.1029 C   0  0  0  0  0  0  0  0  0  0  0  0
  -31.2571  -32.8424   16.8838 C   0  0  0  0  0  0  0  0  0  0  0  0
  -26.3180  -28.1369   18.2906 C   0  0  0  0  0  0  0  0  0  0  0  0
  -26.3745  -28.0896   21.2468 C   0  0  0  0  0  0  0  0  0  0  0  0
  -30.4947  -32.7691   18.2044 C   0  0  0  0  0  0  0  0  0  0  0  0
  -28.7386  -11.1591   23.3211 C   0  0  0  0  0  0  0  0  0  0  0  0
  -31.4217  -14.3221   17.9274 C   0  0  0  0  0  0  0  0  0  0  0  0
  -30.7975  -31.4584   18.9235 C   0  0  0  0  0  0  0  0  0  0  0  0
  -28.0385  -10.1397   22.4293 C   0  0  0  0  0  0  0  0  0  0  0  0
  -30.6446  -15.6277   18.0210 C   0  0  0  0  0  0  0  0  0  0  0  0
  -29.9065  -11.8001   22.5876 C   0  0  0  0  0  0  0  0  0  0  0  0
  -30.5494  -13.3588   18.7173 C   0  0  0  0  0  0  0  0  0  0  0  0
  -28.7444  -11.5372   20.4044 C   0  0  0  0  0  0  0  0  0  0  0  0
  -30.3502  -30.2538   18.0865 C   0  0  1  0  0  0  0  0  0  0  0  0
  -26.8080  -29.3311   19.1037 C   0  0  1  0  0  0  0  0  0  0  0  0
  -27.6078  -10.7351   21.0792 C   0  0  2  0  0  0  0  0  0  0  0  0
  -30.0895  -15.6047   19.4479 C   0  0  1  0  0  0  0  0  0  0  0  0
  -25.7516  -20.4829   20.8315 C   0  0  0  0  0  0  0  0  0  0  0  0
  -30.9728  -22.2384   19.5155 C   0  0  0  0  0  0  0  0  0  0  0  0
  -21.4865  -31.0860   24.4520 C   0  0  0  0  0  0  0  0  0  0  0  0
  -27.9887  -31.1368   23.1910 C   0  0  0  0  0  0  0  0  0  0  0  0
  -26.1213  -31.3859   24.8400 C   0  0  0  0  0  0  0  0  0  0  0  0
  -26.2762  -32.9344   22.8905 C   0  0  0  0  0  0  0  0  0  0  0  0
  -21.0282  -28.7757   21.4640 C   0  0  0  0  0  0  0  0  0  0  0  0
  -27.7900  -18.6203   19.8329 C   0  0  0  0  0  0  0  0  0  0  0  0
  -28.7563  -16.3343   19.5516 C   0  0  0  0  0  0  0  0  0  0  0  0
  -25.5704  -30.5359   22.5151 C   0  0  1  0  0  0  0  0  0  0  0  0
  -21.8241  -30.4943   23.0924 C   0  0  2  0  0  0  0  0  0  0  0  0
  -26.4921  -31.4742   23.3442 C   0  0  0  0  0  0  0  0  0  0  0  0
  -26.2847  -12.8018   21.3793 N   0  0  0  0  0  0  0  0  0  0  0  0
  -29.3458  -20.4631   19.6923 N   0  0  0  0  0  0  0  0  0  0  0  0
  -28.7428  -22.7127   20.3113 N   0  0  0  0  0  0  0  0  0  0  0  0
  -26.2777  -11.4706   21.1946 N   0  0  0  0  0  0  0  0  0  0  0  0
  -26.2837  -29.3375   20.4709 N   0  0  0  0  0  0  0  0  0  0  0  0
  -29.4914  -12.4081   21.3233 N   0  0  0  0  0  0  0  0  0  0  0  0
  -29.9814  -14.1807   19.7871 N   0  0  0  0  0  0  0  0  0  0  0  0
  -24.8388   -9.6052   20.9492 N   0  0  0  0  0  0  0  0  0  0  0  0
  -21.9814  -13.0653   21.4586 N   0  0  0  0  0  0  0  0  0  0  0  0
  -28.9168  -30.0778   18.1799 N   0  0  0  0  0  0  0  0  0  0  0  0
  -24.1494  -30.8492   22.6197 N   0  0  0  0  0  0  0  0  0  0  0  0
  -20.8295  -29.4283   22.7837 N   0  3  0  0  0  0  0  0  0  0  0  0
  -29.0135  -17.7855   19.6659 N   0  3  0  0  0  0  0  0  0  0  0  0
  -22.1232  -10.7963   21.1587 O   0  0  0  0  0  0  0  0  0  0  0  0
  -28.8658  -28.8435   20.1538 O   0  0  0  0  0  0  0  0  0  0  0  0
  -25.8151  -31.6209   20.4201 O   0  0  0  0  0  0  0  0  0  0  0  0
  -23.4905  -28.7768   23.4247 O   0  0  0  0  0  0  0  0  0  0  0  0
  -29.8127  -14.5737   22.0408 O   0  0  0  0  0  0  0  0  0  0  0  0
  -23.3771  -18.4095   22.1847 O   0  0  0  0  0  0  0  0  0  0  0  0
  -26.6136  -23.1890   21.0738 O   0  0  0  0  0  0  0  0  0  1  0  0
  -19.3616  -19.3793   25.8370 F   0  0  0  0  0  0  0  0  0  0  0  0
  -23.8157  -20.0369   24.3760 F   0  0  0  0  0  0  0  0  0  0  0  0
  1  2  1  0  0  0  0
  1  5  2  0  0  0  0
  2  6  2  0  0  0  0
  3  8  2  0  0  0  0
  3 15  1  0  0  0  0
  4  9  1  0  0  0  0
  4 15  2  0  0  0  0
  5 17  1  0  0  0  0
  6 19  1  0  0  0  0
  7 10  2  0  0  0  0
  7 18  1  0  0  0  0
  8 22  1  0  0  0  0
  9 22  2  0  0  0  0
 10 23  1  0  0  0  0
 11 12  2  0  0  0  0
 11 24  1  0  0  0  0
 12 25  1  0  0  0  0
 13 20  1  0  0  0  0
 13 23  2  0  0  0  0
 14 25  2  0  0  0  0
 14 26  1  0  0  0  0
 15 27  1  0  0  0  0
 16 27  1  0  0  0  0
 16 30  2  0  0  0  0
 16 32  1  0  0  0  0
 17 19  2  0  0  0  0
 17 37  1  0  0  0  0
 18 20  2  0  0  0  0
 18 38  1  0  0  0  0
 19 49  1  0  0  0  0
 20 39  1  0  0  0  0
 21 28  1  0  0  0  0
 21 29  2  0  0  0  0
 21 53  1  0  0  0  0
 22 83  1  0  0  0  0
 23 84  1  0  0  0  0
 24 26  2  0  0  0  0
 24 83  1  0  0  0  0
 25 85  1  0  0  0  0
 26 86  1  0  0  0  0
 27 65  2  0  0  0  0
 28 60  1  0  0  0  0
 28 66  2  0  0  0  0
 29 67  1  0  0  0  0
 29 84  1  0  0  0  0
 30 68  1  0  0  0  0
 30 72  1  0  0  0  0
 31 54  1  0  0  0  0
 31 66  1  0  0  0  0
 31 67  2  0  0  0  0
 32 73  1  0  0  0  0
 32 78  2  0  0  0  0
 33 50  1  0  0  0  0
 33 74  1  0  0  0  0
 33 79  2  0  0  0  0
 34 62  1  0  0  0  0
 34 69  1  0  0  0  0
 34 80  2  0  0  0  0
 35 63  1  0  0  0  0
 35 75  1  0  0  0  0
 35 81  2  0  0  0  0
 36 70  1  0  0  0  0
 36 71  1  0  0  0  0
 36 82  2  0  0  0  0
 37 40  1  0  0  0  0
 38 50  1  0  0  0  0
 39 69  1  0  0  0  0
 40 43  1  0  0  0  0
 41 44  1  0  0  0  0
 41 46  1  0  0  0  0
 42 45  1  0  0  0  0
 42 47  1  0  0  0  0
 43 49  1  0  0  0  0
 44 51  1  0  0  0  0
 45 52  1  0  0  0  0
 46 70  1  0  0  0  0
 47 71  1  0  0  0  0
 48 51  1  0  0  0  0
 48 70  1  0  0  0  0
 49 74  1  0  0  0  0
 50 69  1  0  0  0  0
 51 68  1  0  0  0  0
 52 61  1  0  0  0  0
 52 71  1  0  0  0  0
 55 63  1  0  0  0  0
 56 64  1  0  0  0  0
 57 64  1  0  0  0  0
 58 64  1  0  0  0  0
 59 76  1  0  0  0  0
 60 77  1  0  0  0  0
 61 77  1  0  0  0  0
 62 64  1  0  0  0  0
 62 75  1  0  0  0  0
 63 76  1  0  0  0  0
 65 68  1  0  0  0  0
M  CHG  2  76   1  77   1
M  ISO  4  29 101  36 100  71 100  84 101
M  END
> <Batch ID>
0186

> <Smiles>
CNC(C)C(=O)NC(C(=O)N1Cc2cc([101O:1][101c:1]3nc(C)nc(CNCC4CCC[100N:0]4[100C:0](=O)N4CCCC(n5nc(-c6ccc(Oc7ccc(F)cc7F)cc6)c(C(N)=O)c5N)C4)c3C)ccc2CC1C(=O)NC1CCCc2ccccc21)C(C)(C)C

> <Shape>
0.243

> <Color>
0.088

> <Negative vol penalty>
0.000

$$$$

  -OEChem-04052323143D

 83 92  0     1  0  0  0  0  0999 V2000
  -21.1942  -27.2599   25.8542 C   0  0  0  0  0  0  0  0  0  0  0  0
  -22.3183  -26.8969   25.1193 C   0  0  0  0  0  0  0  0  0  0  0  0
  -24.5484   -9.7489   20.6280 C   0  0  0  0  0  0  0  0  0  0  0  0
  -25.1058  -10.4773   22.8632 C   0  0  0  0  0  0  0  0  0  0  0  0
  -19.9545  -27.3625   25.2245 C   0  0  0  0  0  0  0  0  0  0  0  0
  -22.2031  -26.6351   23.7546 C   0  0  0  0  0  0  0  0  0  0  0  0
  -25.8934  -28.7975   21.0434 C   0  0  0  0  0  0  0  0  0  0  0  0
  -24.3548   -8.4505   21.0994 C   0  0  0  0  0  0  0  0  0  0  0  0
  -24.9121   -9.1788   23.3346 C   0  0  0  0  0  0  0  0  0  0  0  0
  -27.1393  -28.1718   21.0509 C   0  0  0  0  0  0  0  0  0  0  0  0
  -22.3046   -7.1901   24.1511 C   0  0  0  0  0  0  0  0  0  0  0  0
  -21.5741   -7.0321   25.3287 C   0  0  0  0  0  0  0  0  0  0  0  0
  -26.6487  -27.1828   18.9060 C   0  0  0  0  0  0  0  0  0  0  0  0
  -23.4806   -5.9743   26.3696 C   0  0  0  0  0  0  0  0  0  0  0  0
  -24.9240  -10.7623   21.5099 C   0  0  0  0  0  0  0  0  0  0  0  0
  -24.1625  -13.1270   20.9302 C   0  0  0  0  0  0  0  0  0  0  0  0
  -19.8258  -27.1113   23.8494 C   0  0  0  0  0  0  0  0  0  0  0  0
  -25.0099  -28.6115   19.9704 C   0  0  0  0  0  0  0  0  0  0  0  0
  -20.9602  -26.7331   23.1062 C   0  0  0  0  0  0  0  0  0  0  0  0
  -25.3933  -27.8093   18.8862 C   0  0  0  0  0  0  0  0  0  0  0  0
  -27.9411  -22.2093   21.4698 C   0  0  0  0  0  0  0  0  0  0  0  0
  -24.5366   -8.1654   22.4527 C   0  0  0  0  0  0  0  0  0  0  0  0
  -27.5160  -27.3620   19.9835 C   0  0  0  0  0  0  0  0  0  0  0  0
  -23.6232   -6.7402   24.0826 C   0  0  0  0  0  0  0  0  0  0  0  0
  -22.1620   -6.4242   26.4380 C   0  0  0  0  0  0  0  0  0  0  0  0
  -24.2112   -6.1324   25.1919 C   0  0  0  0  0  0  0  0  0  0  0  0
  -25.1247  -12.1037   21.0235 C   0  0  0  0  0  0  0  0  0  0  0  0
  -29.0128  -21.6512   20.7974 C   0  0  0  0  0  0  0  0  0  0  0  0
  -26.9961  -21.3456   21.9528 C   0  0  0  0  0  0  0  0  0  0  0  0
  -24.8489  -14.1974   20.4111 C   0  0  0  0  0  0  0  0  0  0  0  0
  -28.1906  -19.5839   21.1014 C   0  0  0  0  0  0  0  0  0  0  0  0
  -22.7725  -13.1114   21.2815 C   0  0  0  0  0  0  0  0  0  0  0  0
  -22.0981  -27.3775   19.6504 C   0  0  0  0  0  0  0  0  0  0  0  0
  -22.3911  -28.4744   16.6117 C   0  0  0  0  0  0  0  0  0  0  0  0
  -24.4490  -29.3964   14.0501 C   0  0  0  0  0  0  0  0  0  0  0  0
  -29.3288  -17.5005   20.2585 C   0  0  0  0  0  0  0  0  0  0  0  0
  -18.4563  -27.1889   23.2223 C   0  0  0  0  0  0  0  0  0  0  0  0
  -23.6804  -29.3149   19.9650 C   0  0  0  0  0  0  0  0  0  0  0  0
  -24.4895  -27.5935   17.7008 C   0  0  0  0  0  0  0  0  0  0  0  0
  -28.0549  -23.6852   21.5523 C   0  0  0  0  0  0  0  0  0  0  0  0
  -29.9667  -22.7192   20.3589 C   0  0  0  0  0  0  0  0  0  0  0  0
  -18.4876  -27.2596   21.6978 C   0  0  0  0  0  0  0  0  0  0  0  0
  -29.4816  -14.4733   18.3905 C   0  0  0  0  0  0  0  0  0  0  0  0
  -19.4468  -26.2158   21.1345 C   0  0  0  0  0  0  0  0  0  0  0  0
  -28.2826  -13.6711   18.9013 C   0  0  0  0  0  0  0  0  0  0  0  0
  -30.1444  -15.2764   19.5083 C   0  0  0  0  0  0  0  0  0  0  0  0
  -28.0381  -15.3388   20.7844 C   0  0  0  0  0  0  0  0  0  0  0  0
  -20.8801  -26.4653   21.6189 C   0  0  1  0  0  0  0  0  0  0  0  0
  -22.6526  -28.6430   19.0597 C   0  0  1  0  0  0  0  0  0  0  0  0
  -27.2982  -14.5643   19.6815 C   0  0  2  0  0  0  0  0  0  0  0  0
  -25.8097  -21.8470   22.7003 C   0  0  0  0  0  0  0  0  0  0  0  0
  -24.3970  -30.2116   11.6774 C   0  0  0  0  0  0  0  0  0  0  0  0
  -21.7029  -25.6578   15.6617 C   0  0  0  0  0  0  0  0  0  0  0  0
  -22.5829  -26.2801   13.4019 C   0  0  0  0  0  0  0  0  0  0  0  0
  -20.6216  -27.4937   14.3522 C   0  0  0  0  0  0  0  0  0  0  0  0
  -25.8345  -31.9128   14.7621 C   0  0  0  0  0  0  0  0  0  0  0  0
  -30.1029  -25.1399   21.1331 C   0  0  0  0  0  0  0  0  0  0  0  0
  -29.2806  -26.4071   21.2602 C   0  0  0  0  0  0  0  0  0  1  0  0
  -22.9216  -27.9076   15.3170 C   0  0  1  0  0  0  0  0  0  0  0  0
  -24.4451  -30.6137   13.1432 C   0  0  2  0  0  0  0  0  0  0  0  0
  -21.9737  -26.8371   14.7063 C   0  0  0  0  0  0  0  0  0  0  0  0
  -26.3305  -12.4893   20.5977 N   0  0  0  0  0  0  0  0  0  0  0  0
  -29.1847  -20.3392   20.5883 N   0  0  0  0  0  0  0  0  0  0  0  0
  -27.0948  -20.0096   21.7781 N   0  0  0  0  0  0  0  0  0  0  0  0
  -26.1305  -13.7669   20.2317 N   0  0  0  0  0  0  0  0  0  0  0  0
  -23.1974  -28.2977   17.7451 N   0  0  0  0  0  0  0  0  0  0  0  0
  -29.1521  -16.1019   20.2001 N   0  0  0  0  0  0  0  0  0  0  0  0
  -24.4751  -15.4556   20.0952 N   0  0  0  0  0  0  0  0  0  0  0  0
  -22.2280  -11.9293   21.8016 N   0  0  0  0  0  0  0  0  0  0  0  0
  -28.3050  -18.1841   20.9136 N   0  0  0  0  0  0  0  0  0  0  0  0
  -21.4831  -27.5508   20.8756 N   0  0  0  0  0  0  0  0  0  0  0  0
  -23.1742  -29.0494   14.4447 N   0  0  0  0  0  0  0  0  0  0  0  0
  -29.2366  -24.0414   20.6360 N   0  3  2  0  0  0  0  0  0  0  0  0
  -25.6719  -31.4300   13.3666 N   0  3  0  0  0  0  0  0  0  0  0  0
  -22.0313  -14.1109   21.1230 O   0  0  0  0  0  0  0  0  0  0  0  0
  -22.2181  -26.3222   19.0390 O   0  0  0  0  0  0  0  0  0  0  0  0
  -21.3048  -29.0589   16.6159 O   0  0  0  0  0  0  0  0  0  0  0  0
  -25.4795  -28.8096   14.3730 O   0  0  0  0  0  0  0  0  0  0  0  0
  -30.3019  -18.0539   19.7401 O   0  0  0  0  0  0  0  0  0  0  0  0
  -24.3475   -6.8986   22.9130 O   0  0  0  0  0  0  0  0  0  0  0  0
  -28.7312  -26.7496   19.9885 O   0  0  0  0  0  0  0  0  0  1  0  0
  -21.4608   -6.2739   27.5693 F   0  0  0  0  0  0  0  0  0  0  0  0
  -25.4780   -5.6992   25.1325 F   0  0  0  0  0  0  0  0  0  0  0  0
  1  2  1  0  0  0  0
  1  5  2  0  0  0  0
  2  6  2  0  0  0  0
  3  8  2  0  0  0  0
  3 15  1  0  0  0  0
  4  9  1  0  0  0  0
  4 15  2  0  0  0  0
  5 17  1  0  0  0  0
  6 19  1  0  0  0  0
  7 10  2  0  0  0  0
  7 18  1  0  0  0  0
  8 22  1  0  0  0  0
  9 22  2  0  0  0  0
 10 23  1  0  0  0  0
 11 12  2  0  0  0  0
 11 24  1  0  0  0  0
 12 25  1  0  0  0  0
 13 20  1  0  0  0  0
 13 23  2  0  0  0  0
 14 25  2  0  0  0  0
 14 26  1  0  0  0  0
 15 27  1  0  0  0  0
 16 27  1  0  0  0  0
 16 30  2  0  0  0  0
 16 32  1  0  0  0  0
 17 19  2  0  0  0  0
 17 37  1  0  0  0  0
 18 20  2  0  0  0  0
 18 38  1  0  0  0  0
 19 48  1  0  0  0  0
 20 39  1  0  0  0  0
 21 28  2  0  0  0  0
 21 29  1  0  0  0  0
 21 40  1  0  0  0  0
 22 80  1  0  0  0  0
 23 81  1  0  0  0  0
 24 26  2  0  0  0  0
 24 80  1  0  0  0  0
 25 82  1  0  0  0  0
 26 83  1  0  0  0  0
 27 62  2  0  0  0  0
 28 41  1  0  0  0  0
 28 63  1  0  0  0  0
 29 51  1  0  0  0  0
 29 64  2  0  0  0  0
 30 65  1  0  0  0  0
 30 68  1  0  0  0  0
 31 63  2  0  0  0  0
 31 64  1  0  0  0  0
 31 70  1  0  0  0  0
 32 69  1  0  0  0  0
 32 75  2  0  0  0  0
 33 49  1  0  0  0  0
 33 71  1  0  0  0  0
 33 76  2  0  0  0  0
 34 59  1  0  0  0  0
 34 66  1  0  0  0  0
 34 77  2  0  0  0  0
 35 60  1  0  0  0  0
 35 72  1  0  0  0  0
 35 78  2  0  0  0  0
 36 67  1  0  0  0  0
 36 70  1  0  0  0  0
 36 79  2  0  0  0  0
 37 42  1  0  0  0  0
 38 49  1  0  0  0  0
 39 66  1  0  0  0  0
 40 73  1  0  0  0  0
 41 73  1  0  0  0  0
 42 44  1  0  0  0  0
 43 45  1  0  0  0  0
 43 46  1  0  0  0  0
 44 48  1  0  0  0  0
 45 50  1  0  0  0  0
 46 67  1  0  0  0  0
 47 50  1  0  0  0  0
 47 67  1  0  0  0  0
 48 71  1  0  0  0  0
 49 66  1  0  0  0  0
 50 65  1  0  0  0  0
 52 60  1  0  0  0  0
 53 61  1  0  0  0  0
 54 61  1  0  0  0  0
 55 61  1  0  0  0  0
 56 74  1  0  0  0  0
 57 58  1  0  0  0  0
 57 73  1  0  0  0  0
 58 81  1  0  0  0  0
 59 61  1  0  0  0  0
 59 72  1  0  0  0  0
 60 74  1  0  0  0  0
 62 65  1  0  0  0  0
M  CHG  2  73   1  74   1
M  ISO  4  36 100  58 101  70 100  81 101
M  END
> <Batch ID>
0186

> <Smiles>
CNC(C)C(=O)NC(C(=O)N1Cc2cc([101O:1][101CH2:1]CN3Cc4nc([100NH:0][100C:0](=O)N5CCCC(n6nc(-c7ccc(Oc8ccc(F)cc8F)cc7)c(C(N)=O)c6N)C5)nc(C)c4C3)ccc2CC1C(=O)NC1CCCc2ccccc21)C(C)(C)C

> <Shape>
0.263

> <Color>
0.128

> <Negative vol penalty>
0.000

$$$$

  -OEChem-04052323143D

 81 90  0     1  0  0  0  0  0999 V2000
  -16.6188  -29.2321   23.8034 C   0  0  0  0  0  0  0  0  0  0  0  0
  -17.4331  -28.1198   23.9911 C   0  0  0  0  0  0  0  0  0  0  0  0
  -23.5305   -9.7207   19.9788 C   0  0  0  0  0  0  0  0  0  0  0  0
  -23.6254  -10.1271   22.3585 C   0  0  0  0  0  0  0  0  0  0  0  0
  -17.1608  -30.4145   23.3013 C   0  0  0  0  0  0  0  0  0  0  0  0
  -18.7896  -28.1889   23.6756 C   0  0  0  0  0  0  0  0  0  0  0  0
  -23.3920  -25.3781   26.5778 C   0  0  0  0  0  0  0  0  0  0  0  0
  -22.8512   -8.5247   20.2101 C   0  0  0  0  0  0  0  0  0  0  0  0
  -22.9461   -8.9310   22.5898 C   0  0  0  0  0  0  0  0  0  0  0  0
  -24.0949  -24.2050   26.3064 C   0  0  0  0  0  0  0  0  0  0  0  0
  -19.7602   -7.8118   22.4556 C   0  0  0  0  0  0  0  0  0  0  0  0
  -18.7165   -7.8295   23.3808 C   0  0  0  0  0  0  0  0  0  0  0  0
  -25.8142  -25.4955   25.2119 C   0  0  0  0  0  0  0  0  0  0  0  0
  -19.8727   -6.1814   24.7165 C   0  0  0  0  0  0  0  0  0  0  0  0
  -27.8700  -19.1937   26.0785 C   0  0  0  0  0  0  0  0  0  0  0  0
  -26.4103  -20.3139   24.1441 C   0  0  0  0  0  0  0  0  0  0  0  0
  -23.9177  -10.5219   21.0530 C   0  0  0  0  0  0  0  0  0  0  0  0
  -24.0555  -13.0321   20.6197 C   0  0  0  0  0  0  0  0  0  0  0  0
  -18.5266  -30.5011   22.9886 C   0  0  0  0  0  0  0  0  0  0  0  0
  -23.8904  -26.6198   26.1581 C   0  0  0  0  0  0  0  0  0  0  0  0
  -19.3500  -29.3732   23.1676 C   0  0  0  0  0  0  0  0  0  0  0  0
  -25.1170  -26.6831   25.4815 C   0  0  0  0  0  0  0  0  0  0  0  0
  -22.5589   -8.1298   21.5156 C   0  0  0  0  0  0  0  0  0  0  0  0
  -25.3047  -24.2633   25.6208 C   0  0  0  0  0  0  0  0  0  0  0  0
  -20.8601   -6.9788   22.6608 C   0  0  0  0  0  0  0  0  0  0  0  0
  -18.7728   -7.0144   24.5113 C   0  0  0  0  0  0  0  0  0  0  0  0
  -20.9163   -6.1637   23.7913 C   0  0  0  0  0  0  0  0  0  0  0  0
  -24.6200  -11.7573   20.8147 C   0  0  0  0  0  0  0  0  0  0  0  0
  -27.9493  -18.7457   24.7782 C   0  0  0  0  0  0  0  0  0  0  0  0
  -26.3304  -20.7614   25.4444 C   0  0  0  0  0  0  0  0  0  0  0  0
  -25.1350  -13.8612   20.4359 C   0  0  0  0  0  0  0  0  0  0  0  0
  -22.6785  -13.4312   20.6061 C   0  0  0  0  0  0  0  0  0  0  0  0
  -22.8683  -28.8987   24.1919 C   0  0  0  0  0  0  0  0  0  0  0  0
  -25.4645  -30.4882   25.3124 C   0  0  0  0  0  0  0  0  0  0  0  0
  -28.5623  -30.3373   26.7364 C   0  0  0  0  0  0  0  0  0  0  0  0
  -30.2845  -15.4876   22.0777 C   0  0  0  0  0  0  0  0  0  0  0  0
  -19.0574  -31.7861   22.4039 C   0  0  0  0  0  0  0  0  0  0  0  0
  -23.1334  -27.8784   26.4821 C   0  0  0  0  0  0  0  0  0  0  0  0
  -25.7053  -27.9930   25.0272 C   0  0  0  0  0  0  0  0  0  0  0  0
  -20.5796  -31.8919   22.4473 C   0  0  0  0  0  0  0  0  0  0  0  0
  -30.0052  -12.8341   19.6666 C   0  0  0  0  0  0  0  0  0  0  0  0
  -21.2190  -30.5956   21.9599 C   0  0  0  0  0  0  0  0  0  0  0  0
  -28.5523  -12.3821   19.7696 C   0  0  0  0  0  0  0  0  0  0  0  0
  -30.5369  -13.2702   21.0253 C   0  0  0  0  0  0  0  0  0  0  0  0
  -28.2677  -16.3997   23.4779 C   0  0  0  0  0  0  0  0  0  0  0  0
  -29.8301  -17.7818   23.1011 C   0  0  0  0  0  0  0  0  0  0  0  0
  -28.2658  -13.9580   21.7485 C   0  0  0  0  0  0  0  0  0  0  0  0
  -20.8312  -29.4166   22.8605 C   0  0  1  0  0  0  0  0  0  0  0  0
  -28.8830  -17.5564   24.3022 C   0  0  0  0  0  0  0  0  0  0  0  0
  -23.4814  -29.0401   25.5564 C   0  0  1  0  0  0  0  0  0  0  0  0
  -27.6899  -13.4858   20.3987 C   0  0  2  0  0  0  0  0  0  0  0  0
  -30.4542  -31.8001   27.4968 C   0  0  0  0  0  0  0  0  0  0  0  0
  -26.3091  -30.9006   22.4096 C   0  0  0  0  0  0  0  0  0  0  0  0
  -28.5981  -31.4933   23.2327 C   0  0  0  0  0  0  0  0  0  0  0  0
  -26.6388  -32.8928   23.8850 C   0  0  0  0  0  0  0  0  0  0  0  0
  -28.3114  -29.4057   29.5343 C   0  0  0  0  0  0  0  0  0  0  0  0
  -25.4162  -21.8949   25.8056 C   0  0  0  0  0  0  0  0  0  1  0  0
  -26.9131  -30.5940   24.9010 C   0  0  1  0  0  0  0  0  0  0  0  0
  -29.1718  -31.0915   27.9044 C   0  0  2  0  0  0  0  0  0  0  0  0
  -27.1030  -31.4452   23.6138 C   0  0  0  0  0  0  0  0  0  0  0  0
  -27.2212  -19.2980   23.7876 N   0  0  0  0  0  0  0  0  0  0  0  0
  -27.0589  -20.2093   26.4349 N   0  0  0  0  0  0  0  0  0  0  0  0
  -25.9545  -11.7704   20.7597 N   0  0  0  0  0  0  0  0  0  0  0  0
  -26.2375  -13.0635   20.5280 N   0  0  0  0  0  0  0  0  0  0  0  0
  -24.9244  -29.1953   25.3622 N   0  0  0  0  0  0  0  0  0  0  0  0
  -29.6923  -14.2958   21.6452 N   0  0  0  0  0  0  0  0  0  0  0  0
  -29.4867  -16.4267   22.6876 N   0  0  0  0  0  0  0  0  0  0  0  0
  -25.2392  -15.1873   20.2060 N   0  0  0  0  0  0  0  0  0  0  0  0
  -21.6970  -12.4520   20.8117 N   0  0  0  0  0  0  0  0  0  0  0  0
  -21.6020  -29.4412   24.0851 N   0  0  0  0  0  0  0  0  0  0  0  0
  -27.6319  -31.1017   26.0646 N   0  0  0  0  0  0  0  0  0  0  0  0
  -29.4870  -30.1535   29.0188 N   0  3  0  0  0  0  0  0  0  0  0  0
  -22.3281  -14.6180   20.4008 O   0  0  0  0  0  0  0  0  0  0  0  0
  -23.4982  -28.3401   23.3015 O   0  0  0  0  0  0  0  0  0  0  0  0
  -24.8373  -31.5144   25.5867 O   0  0  0  0  0  0  0  0  0  0  0  0
  -28.8823  -29.1866   26.4467 O   0  0  0  0  0  0  0  0  0  0  0  0
  -31.4982  -15.6974   21.9509 O   0  0  0  0  0  0  0  0  0  0  0  0
  -21.8958   -6.9629   21.7417 O   0  0  0  0  0  0  0  0  0  0  0  0
  -25.9925  -23.1198   25.3540 O   0  0  0  0  0  0  0  0  0  1  0  0
  -17.7712   -7.0327   25.4005 F   0  0  0  0  0  0  0  0  0  0  0  0
  -21.9709   -5.3622   23.9944 F   0  0  0  0  0  0  0  0  0  0  0  0
  1  2  1  0  0  0  0
  1  5  2  0  0  0  0
  2  6  2  0  0  0  0
  3  8  2  0  0  0  0
  3 17  1  0  0  0  0
  4  9  1  0  0  0  0
  4 17  2  0  0  0  0
  5 19  1  0  0  0  0
  6 21  1  0  0  0  0
  7 10  2  0  0  0  0
  7 20  1  0  0  0  0
  8 23  1  0  0  0  0
  9 23  2  0  0  0  0
 10 24  1  0  0  0  0
 11 12  2  0  0  0  0
 11 25  1  0  0  0  0
 12 26  1  0  0  0  0
 13 22  1  0  0  0  0
 13 24  2  0  0  0  0
 14 26  2  0  0  0  0
 14 27  1  0  0  0  0
 15 29  2  0  0  0  0
 15 62  1  0  0  0  0
 16 30  1  0  0  0  0
 16 61  2  0  0  0  0
 17 28  1  0  0  0  0
 18 28  1  0  0  0  0
 18 31  2  0  0  0  0
 18 32  1  0  0  0  0
 19 21  2  0  0  0  0
 19 37  1  0  0  0  0
 20 22  2  0  0  0  0
 20 38  1  0  0  0  0
 21 48  1  0  0  0  0
 22 39  1  0  0  0  0
 23 78  1  0  0  0  0
 24 79  1  0  0  0  0
 25 27  2  0  0  0  0
 25 78  1  0  0  0  0
 26 80  1  0  0  0  0
 27 81  1  0  0  0  0
 28 63  2  0  0  0  0
 29 49  1  0  0  0  0
 29 61  1  0  0  0  0
 30 57  1  0  0  0  0
 30 62  2  0  0  0  0
 31 64  1  0  0  0  0
 31 68  1  0  0  0  0
 32 69  1  0  0  0  0
 32 73  2  0  0  0  0
 33 50  1  0  0  0  0
 33 70  1  0  0  0  0
 33 74  2  0  0  0  0
 34 58  1  0  0  0  0
 34 65  1  0  0  0  0
 34 75  2  0  0  0  0
 35 59  1  0  0  0  0
 35 71  1  0  0  0  0
 35 76  2  0  0  0  0
 36 66  1  0  0  0  0
 36 67  1  0  0  0  0
 36 77  2  0  0  0  0
 37 40  1  0  0  0  0
 38 50  1  0  0  0  0
 39 65  1  0  0  0  0
 40 42  1  0  0  0  0
 41 43  1  0  0  0  0
 41 44  1  0  0  0  0
 42 48  1  0  0  0  0
 43 51  1  0  0  0  0
 44 66  1  0  0  0  0
 45 49  1  0  0  0  0
 45 67  1  0  0  0  0
 46 49  1  0  0  0  0
 46 67  1  0  0  0  0
 47 51  1  0  0  0  0
 47 66  1  0  0  0  0
 48 70  1  0  0  0  0
 50 65  1  0  0  0  0
 51 64  1  0  0  0  0
 52 59  1  0  0  0  0
 53 60  1  0  0  0  0
 54 60  1  0  0  0  0
 55 60  1  0  0  0  0
 56 72  1  0  0  0  0
 57 79  1  0  0  0  0
 58 60  1  0  0  0  0
 58 71  1  0  0  0  0
 59 72  1  0  0  0  0
 63 64  1  0  0  0  0
M  CHG  1  72   1
M  ISO  4  36 100  57 101  67 100  79 101
M  END
> <Batch ID>
0186

> <Smiles>
CNC(C)C(=O)NC(C(=O)N1Cc2cc([101O:1][101CH2:1]c3cnc(C4C[100N:0]([100C:0](=O)N5CCCC(n6nc(-c7ccc(Oc8ccc(F)cc8F)cc7)c(C(N)=O)c6N)C5)C4)cn3)ccc2CC1C(=O)NC1CCCc2ccccc21)C(C)(C)C

> <Shape>
0.259

> <Color>
0.187

> <Negative vol penalty>
0.000

$$$$

  -OEChem-04052323143D

 79 88  0     1  0  0  0  0  0999 V2000
  -19.1974  -33.8363   21.4066 C   0  0  0  0  0  0  0  0  0  0  0  0
  -20.5474  -33.5675   21.2050 C   0  0  0  0  0  0  0  0  0  0  0  0
  -23.8183  -15.0183   20.4378 C   0  0  0  0  0  0  0  0  0  0  0  0
  -25.5871  -13.4858   19.8378 C   0  0  0  0  0  0  0  0  0  0  0  0
  -18.4371  -33.0044   22.2274 C   0  0  0  0  0  0  0  0  0  0  0  0
  -21.1381  -32.4671   21.8251 C   0  0  0  0  0  0  0  0  0  0  0  0
  -25.5895  -28.9189   19.5665 C   0  0  0  0  0  0  0  0  0  0  0  0
  -22.9001  -13.9686   20.4122 C   0  0  0  0  0  0  0  0  0  0  0  0
  -24.6688  -12.4360   19.8122 C   0  0  0  0  0  0  0  0  0  0  0  0
  -26.9690  -28.9024   19.7678 C   0  0  0  0  0  0  0  0  0  0  0  0
  -22.8546   -9.2880   19.9415 C   0  0  0  0  0  0  0  0  0  0  0  0
  -23.2197   -8.0909   20.5572 C   0  0  0  0  0  0  0  0  0  0  0  0
  -26.6983  -27.1854   21.4404 C   0  0  0  0  0  0  0  0  0  0  0  0
  -23.4617   -9.2482   22.6641 C   0  0  0  0  0  0  0  0  0  0  0  0
  -31.0054  -26.9178   20.1232 C   0  0  0  0  0  0  0  0  0  0  0  0
  -25.1618  -14.7769   20.1506 C   0  0  0  0  0  0  0  0  0  0  0  0
  -26.8673  -16.3023   21.2783 C   0  0  0  0  0  0  0  0  0  0  0  0
  -19.0166  -31.8877   22.8502 C   0  0  0  0  0  0  0  0  0  0  0  0
  -24.7516  -28.0751   20.3096 C   0  0  0  0  0  0  0  0  0  0  0  0
  -20.3852  -31.6202   22.6561 C   0  0  0  0  0  0  0  0  0  0  0  0
  -25.3088  -27.1913   21.2448 C   0  0  0  0  0  0  0  0  0  0  0  0
  -23.3254  -12.6775   20.0994 C   0  0  0  0  0  0  0  0  0  0  0  0
  -27.5233  -28.0377   20.7069 C   0  0  0  0  0  0  0  0  0  0  0  0
  -22.7931  -10.4653   20.6871 C   0  0  0  0  0  0  0  0  0  0  0  0
  -23.5233   -8.0710   21.9185 C   0  0  0  0  0  0  0  0  0  0  0  0
  -23.0966  -10.4454   22.0484 C   0  0  0  0  0  0  0  0  0  0  0  0
  -26.1107  -15.8609   20.1763 C   0  0  0  0  0  0  0  0  0  0  0  0
  -29.6227  -27.1487   20.1368 C   0  0  0  0  0  0  0  0  0  1  0  0
  -27.6092  -17.3492   20.7882 C   0  0  0  0  0  0  0  0  0  0  0  0
  -26.8969  -15.8101   22.6246 C   0  0  0  0  0  0  0  0  0  0  0  0
  -22.3828  -28.5240   22.3811 C   0  0  0  0  0  0  0  0  0  0  0  0
  -22.1230  -25.2964   22.1877 C   0  0  0  0  0  0  0  0  0  0  0  0
  -23.6148  -22.3060   21.4954 C   0  0  0  0  0  0  0  0  0  0  0  0
  -27.7940  -22.0544   17.9284 C   0  0  0  0  0  0  0  0  0  0  0  0
  -18.1656  -31.0445   23.7664 C   0  0  0  0  0  0  0  0  0  0  0  0
  -23.2681  -28.0859   20.0616 C   0  0  0  0  0  0  0  0  0  0  0  0
  -24.4547  -26.2509   22.0539 C   0  0  0  0  0  0  0  0  0  0  0  0
  -18.7795  -29.6842   24.0874 C   0  0  0  0  0  0  0  0  0  0  0  0
  -28.3828  -18.9258   16.0634 C   0  0  0  0  0  0  0  0  0  0  0  0
  -20.2512  -29.8369   24.4583 C   0  0  0  0  0  0  0  0  0  0  0  0
  -27.8508  -17.8912   17.0507 C   0  0  0  0  0  0  0  0  0  0  0  0
  -29.4218  -25.0984   16.3094 C   0  0  0  0  0  0  0  0  0  0  0  0
  -27.5992  -20.2362   16.1280 C   0  0  0  0  0  0  0  0  0  0  0  0
  -26.9919  -19.7813   18.4878 C   0  0  0  0  0  0  0  0  0  0  0  0
  -21.0563  -30.4219   23.2916 C   0  0  1  0  0  0  0  0  0  0  0  0
  -22.4613  -27.5496   21.2400 C   0  0  1  0  0  0  0  0  0  0  0  0
  -27.7986  -18.4738   18.4714 C   0  0  1  0  0  0  0  0  0  0  0  0
  -29.9016  -24.7072   17.6861 C   0  0  2  0  0  0  0  0  0  0  0  0
  -28.5176  -24.3115   17.2116 C   0  0  2  0  0  0  0  0  0  0  0  0
  -23.8098  -19.8318   21.1242 C   0  0  0  0  0  0  0  0  0  0  0  0
  -22.3288  -25.2227   25.2310 C   0  0  0  0  0  0  0  0  0  0  0  0
  -22.8235  -22.7738   25.0687 C   0  0  0  0  0  0  0  0  0  0  0  0
  -20.6352  -23.6585   24.2618 C   0  0  0  0  0  0  0  0  0  0  0  0
  -22.9356  -22.5656   18.6266 C   0  0  0  0  0  0  0  0  0  0  0  0
  -22.7303  -24.1287   22.9271 C   0  0  1  0  0  0  0  0  0  0  0  0
  -23.1628  -21.1256   20.6547 C   0  0  2  0  0  0  0  0  0  0  0  0
  -22.1456  -23.9649   24.3585 C   0  0  0  0  0  0  0  0  0  0  0  0
  -31.2996  -25.9830   19.2154 N   0  0  0  0  0  0  0  0  0  0  0  0
  -26.3498  -16.5694   19.0696 N   0  0  0  0  0  0  0  0  0  0  0  0
  -29.0234  -26.3633   19.2375 N   0  0  0  0  0  0  0  0  0  0  0  0
  -27.2650  -17.4667   19.4737 N   0  0  0  0  0  0  0  0  0  0  0  0
  -30.0782  -25.7034   18.7329 N   0  0  0  0  0  0  0  0  0  0  0  0
  -23.0091  -26.3034   21.7796 N   0  0  0  0  0  0  0  0  0  0  0  0
  -27.5065  -20.7439   17.5060 N   0  0  0  0  0  0  0  0  0  0  0  0
  -28.5158  -18.1714   21.3578 N   0  0  0  0  0  0  0  0  0  0  0  0
  -26.0715  -14.7278   22.9586 N   0  0  0  0  0  0  0  0  0  0  0  0
  -21.3199  -29.4030   22.2982 N   0  0  0  0  0  0  0  0  0  0  0  0
  -22.5470  -22.9627   22.0697 N   0  0  0  0  0  0  0  0  0  0  0  0
  -28.1961  -22.9374   16.9326 N   0  0  0  0  0  0  0  0  0  0  0  0
  -23.5239  -21.3396   19.2247 N   0  3  0  0  0  0  0  0  0  0  0  0
  -27.6214  -16.3256   23.5094 O   0  0  0  0  0  0  0  0  0  0  0  0
  -23.2235  -28.4805   23.2716 O   0  0  0  0  0  0  0  0  0  0  0  0
  -20.9083  -25.3109   21.9736 O   0  0  0  0  0  0  0  0  0  0  0  0
  -24.7972  -22.6125   21.6321 O   0  0  0  0  0  0  0  0  0  0  0  0
  -27.6947  -22.4155   19.1063 O   0  0  0  0  0  0  0  0  0  0  0  0
  -22.4297  -11.6529   20.0746 O   0  0  0  0  0  0  0  0  0  0  0  0
  -28.8694  -28.0200   20.9059 O   0  0  0  0  0  0  0  0  0  1  0  0
  -23.8724   -6.9210   22.5100 F   0  0  0  0  0  0  0  0  0  0  0  0
  -23.0381  -11.5730   22.7701 F   0  0  0  0  0  0  0  0  0  0  0  0
  1  2  1  0  0  0  0
  1  5  2  0  0  0  0
  2  6  2  0  0  0  0
  3  8  2  0  0  0  0
  3 16  1  0  0  0  0
  4  9  1  0  0  0  0
  4 16  2  0  0  0  0
  5 18  1  0  0  0  0
  6 20  1  0  0  0  0
  7 10  2  0  0  0  0
  7 19  1  0  0  0  0
  8 22  1  0  0  0  0
  9 22  2  0  0  0  0
 10 23  1  0  0  0  0
 11 12  2  0  0  0  0
 11 24  1  0  0  0  0
 12 25  1  0  0  0  0
 13 21  1  0  0  0  0
 13 23  2  0  0  0  0
 14 25  2  0  0  0  0
 14 26  1  0  0  0  0
 15 28  1  0  0  0  0
 15 58  2  0  0  0  0
 16 27  1  0  0  0  0
 17 27  1  0  0  0  0
 17 29  2  0  0  0  0
 17 30  1  0  0  0  0
 18 20  2  0  0  0  0
 18 35  1  0  0  0  0
 19 21  2  0  0  0  0
 19 36  1  0  0  0  0
 20 45  1  0  0  0  0
 21 37  1  0  0  0  0
 22 76  1  0  0  0  0
 23 77  1  0  0  0  0
 24 26  2  0  0  0  0
 24 76  1  0  0  0  0
 25 78  1  0  0  0  0
 26 79  1  0  0  0  0
 27 59  2  0  0  0  0
 28 60  2  0  0  0  0
 28 77  1  0  0  0  0
 29 61  1  0  0  0  0
 29 65  1  0  0  0  0
 30 66  1  0  0  0  0
 30 71  2  0  0  0  0
 31 46  1  0  0  0  0
 31 67  1  0  0  0  0
 31 72  2  0  0  0  0
 32 55  1  0  0  0  0
 32 63  1  0  0  0  0
 32 73  2  0  0  0  0
 33 56  1  0  0  0  0
 33 68  1  0  0  0  0
 33 74  2  0  0  0  0
 34 64  1  0  0  0  0
 34 69  1  0  0  0  0
 34 75  2  0  0  0  0
 35 38  1  0  0  0  0
 36 46  1  0  0  0  0
 37 63  1  0  0  0  0
 38 40  1  0  0  0  0
 39 41  1  0  0  0  0
 39 43  1  0  0  0  0
 40 45  1  0  0  0  0
 41 47  1  0  0  0  0
 42 48  1  0  0  0  0
 42 49  1  0  0  0  0
 43 64  1  0  0  0  0
 44 47  1  0  0  0  0
 44 64  1  0  0  0  0
 45 67  1  0  0  0  0
 46 63  1  0  0  0  0
 47 61  1  0  0  0  0
 48 49  1  0  0  0  0
 48 62  1  0  0  0  0
 49 69  1  0  0  0  0
 50 56  1  0  0  0  0
 51 57  1  0  0  0  0
 52 57  1  0  0  0  0
 53 57  1  0  0  0  0
 54 70  1  0  0  0  0
 55 57  1  0  0  0  0
 55 68  1  0  0  0  0
 56 70  1  0  0  0  0
 58 62  1  0  0  0  0
 59 61  1  0  0  0  0
 60 62  1  0  0  0  0
M  CHG  1  70   1
M  ISO  4  28 101  34 100  69 100  77 101
M  END
> <Batch ID>
0186

> <Smiles>
CNC(C)C(=O)NC(C(=O)N1Cc2cc([101O:1][101c:1]3cnn(C4CC4[100NH:0][100C:0](=O)N4CCCC(n5nc(-c6ccc(Oc7ccc(F)cc7F)cc6)c(C(N)=O)c5N)C4)n3)ccc2CC1C(=O)NC1CCCc2ccccc21)C(C)(C)C

> <Shape>
0.217

> <Color>
0.093

> <Negative vol penalty>
0.000

$$$$

  -OEChem-04052323143D

 83 92  0     1  0  0  0  0  0999 V2000
  -23.5055  -24.0095   19.7461 C   0  0  0  0  0  0  0  0  0  0  0  0
  -24.3460  -22.9648   19.3784 C   0  0  0  0  0  0  0  0  0  0  0  0
  -22.4752  -28.1490   21.1683 C   0  0  0  0  0  0  0  0  0  0  0  0
  -23.6478  -28.1169   23.2804 C   0  0  0  0  0  0  0  0  0  0  0  0
  -22.5811  -23.8271   20.7725 C   0  0  0  0  0  0  0  0  0  0  0  0
  -24.2542  -21.7338   20.0289 C   0  0  0  0  0  0  0  0  0  0  0  0
  -26.9519  -18.0412   18.2149 C   0  0  0  0  0  0  0  0  0  0  0  0
  -32.4040  -19.4880   19.5505 C   0  0  0  0  0  0  0  0  0  0  0  0
  -21.2654  -27.9630   21.8371 C   0  0  0  0  0  0  0  0  0  0  0  0
  -22.4379  -27.9309   23.9492 C   0  0  0  0  0  0  0  0  0  0  0  0
  -28.3386  -17.9849   18.3476 C   0  0  0  0  0  0  0  0  0  0  0  0
  -19.0753  -29.8469   23.5941 C   0  0  0  0  0  0  0  0  0  0  0  0
  -17.9935  -30.6391   23.2095 C   0  0  0  0  0  0  0  0  0  0  0  0
  -32.4092  -20.8747   19.4488 C   0  0  0  0  0  0  0  0  0  0  0  0
  -28.0988  -16.3334   20.0895 C   0  0  0  0  0  0  0  0  0  0  0  0
  -16.7447  -28.6531   22.6318 C   0  0  0  0  0  0  0  0  0  0  0  0
  -23.6664  -28.2258   21.8899 C   0  0  0  0  0  0  0  0  0  0  0  0
  -25.5308  -29.6424   20.8774 C   0  0  0  0  0  0  0  0  0  0  0  0
  -22.4872  -22.5968   21.4437 C   0  0  0  0  0  0  0  0  0  0  0  0
  -26.1264  -17.2507   19.0274 C   0  0  0  0  0  0  0  0  0  0  0  0
  -23.3113  -21.5226   21.0511 C   0  0  0  0  0  0  0  0  0  0  0  0
  -32.1195  -18.8871   20.7718 C   0  0  0  0  0  0  0  0  0  0  0  0
  -26.7020  -16.3796   19.9634 C   0  0  0  0  0  0  0  0  0  0  0  0
  -21.2467  -27.8540   23.2276 C   0  0  0  0  0  0  0  0  0  0  0  0
  -28.9122  -17.1330   19.2870 C   0  0  0  0  0  0  0  0  0  0  0  0
  -18.9918  -28.4579   23.4975 C   0  0  0  0  0  0  0  0  0  0  0  0
  -16.8282  -30.0422   22.7284 C   0  0  0  0  0  0  0  0  0  0  0  0
  -17.8265  -27.8610   23.0164 C   0  0  0  0  0  0  0  0  0  0  0  0
  -24.9166  -28.4173   21.1996 C   0  0  0  0  0  0  0  0  0  0  0  0
  -32.1257  -21.6097   20.5886 C   0  0  0  0  0  0  0  0  0  0  0  0
  -31.8491  -19.7111   21.8524 C   0  0  0  0  0  0  0  0  0  0  0  0
  -26.6887  -29.2862   20.2301 C   0  0  0  0  0  0  0  0  0  0  0  0
  -25.0938  -30.9825   21.1399 C   0  0  0  0  0  0  0  0  0  0  0  0
  -23.8819  -17.8462   21.1979 C   0  0  0  0  0  0  0  0  0  0  0  0
  -23.5097  -14.6245   21.1283 C   0  0  0  0  0  0  0  0  0  0  0  0
  -24.8680  -11.5648   20.4653 C   0  0  0  0  0  0  0  0  0  0  0  0
  -30.0227  -24.4228   20.5241 C   0  0  0  0  0  0  0  0  0  0  0  0
  -21.4635  -22.4518   22.5420 C   0  0  0  0  0  0  0  0  0  0  0  0
  -24.6333  -17.3033   18.8534 C   0  0  0  0  0  0  0  0  0  0  0  0
  -25.8607  -15.4953   20.8458 C   0  0  0  0  0  0  0  0  0  0  0  0
  -21.7427  -21.2681   23.4624 C   0  0  0  0  0  0  0  0  0  0  0  0
  -28.5459  -25.8038   17.5226 C   0  0  0  0  0  0  0  0  0  0  0  0
  -21.9992  -20.0165   22.6363 C   0  0  0  0  0  0  0  0  0  0  0  0
  -27.4992  -26.7536   18.1078 C   0  0  0  0  0  0  0  0  0  0  0  0
  -33.0827  -16.7614   21.8654 C   0  0  0  0  0  0  0  0  0  0  0  0
  -33.3330  -16.6451   20.3944 C   0  0  0  0  0  0  0  0  0  0  0  0
  -28.6590  -24.5275   18.3511 C   0  0  0  0  0  0  0  0  0  0  0  0
  -27.9053  -25.7029   20.3819 C   0  0  0  0  0  0  0  0  0  0  0  0
  -23.2505  -20.1843   21.7649 C   0  0  1  0  0  0  0  0  0  0  0  0
  -23.8710  -16.8330   20.0884 C   0  0  1  0  0  0  0  0  0  0  0  0
  -27.7595  -27.0222   19.6019 C   0  0  2  0  0  0  0  0  0  0  0  0
  -32.1130  -17.4017   20.8884 C   0  0  0  0  0  0  0  0  0  0  0  0
  -31.5384  -19.1233   23.1902 C   0  0  0  0  0  0  0  0  0  0  0  0
  -24.3339   -9.1140   20.5415 C   0  0  0  0  0  0  0  0  0  0  0  0
  -23.8679  -14.6432   24.1584 C   0  0  0  0  0  0  0  0  0  0  0  0
  -24.2752  -12.1750   24.0555 C   0  0  0  0  0  0  0  0  0  0  0  0
  -22.0780  -13.1061   23.3290 C   0  0  0  0  0  0  0  0  0  0  0  0
  -25.2488  -11.2726   17.5449 C   0  0  0  0  0  0  0  0  0  0  0  0
  -32.1221  -23.1001   20.5155 C   0  0  0  0  0  0  0  0  0  0  0  0
  -30.7792  -16.7613   20.7124 C   0  0  0  0  0  0  0  0  0  1  0  0
  -24.1163  -13.4619   21.8761 C   0  0  1  0  0  0  0  0  0  0  0  0
  -24.3363  -10.3734   19.6891 C   0  0  2  0  0  0  0  0  0  0  0  0
  -23.6004  -13.3645   23.3396 C   0  0  0  0  0  0  0  0  0  0  0  0
  -25.6255  -27.3618   20.7905 N   0  0  0  0  0  0  0  0  0  0  0  0
  -31.8448  -21.0617   21.7921 N   0  0  0  0  0  0  0  0  0  0  0  0
  -26.6971  -27.9226   20.2046 N   0  0  0  0  0  0  0  0  0  0  0  0
  -24.4055  -15.5874   20.6423 N   0  0  0  0  0  0  0  0  0  0  0  0
  -28.9254  -24.8524   19.7595 N   0  0  0  0  0  0  0  0  0  0  0  0
  -27.6902  -30.0095   19.6859 N   0  0  0  0  0  0  0  0  0  0  0  0
  -23.8802  -31.1693   21.8156 N   0  0  0  0  0  0  0  0  0  0  0  0
  -23.3407  -19.0688   20.8488 N   0  0  0  0  0  0  0  0  0  0  0  0
  -23.8523  -12.2753   21.0693 N   0  0  0  0  0  0  0  0  0  0  0  0
  -30.9393  -23.6150   19.8622 N   0  0  0  0  0  0  0  0  0  0  0  0
  -25.1765  -10.1236   18.4839 N   0  3  0  0  0  0  0  0  0  0  0  0
  -25.7518  -31.9848   20.7711 O   0  0  0  0  0  0  0  0  0  0  0  0
  -24.3455  -17.5408   22.2904 O   0  0  0  0  0  0  0  0  0  0  0  0
  -22.2867  -14.6729   20.9747 O   0  0  0  0  0  0  0  0  0  0  0  0
  -26.0649  -11.8357   20.5323 O   0  0  0  0  0  0  0  0  0  0  0  0
  -30.1773  -24.7401   21.7084 O   0  0  0  0  0  0  0  0  0  0  0  0
  -20.0663  -27.6728   23.8805 O   0  0  0  0  0  0  0  0  0  0  0  0
  -30.2654  -17.0766   19.4190 O   0  0  0  0  0  0  0  0  0  1  0  0
  -15.7889  -30.8029   22.3605 F   0  0  0  0  0  0  0  0  0  0  0  0
  -17.7400  -26.5270   22.9225 F   0  0  0  0  0  0  0  0  0  0  0  0
  1  2  1  0  0  0  0
  1  5  2  0  0  0  0
  2  6  2  0  0  0  0
  3  9  2  0  0  0  0
  3 17  1  0  0  0  0
  4 10  1  0  0  0  0
  4 17  2  0  0  0  0
  5 19  1  0  0  0  0
  6 21  1  0  0  0  0
  7 11  2  0  0  0  0
  7 20  1  0  0  0  0
  8 14  2  0  0  0  0
  8 22  1  0  0  0  0
  9 24  1  0  0  0  0
 10 24  2  0  0  0  0
 11 25  1  0  0  0  0
 12 13  2  0  0  0  0
 12 26  1  0  0  0  0
 13 27  1  0  0  0  0
 14 30  1  0  0  0  0
 15 23  1  0  0  0  0
 15 25  2  0  0  0  0
 16 27  2  0  0  0  0
 16 28  1  0  0  0  0
 17 29  1  0  0  0  0
 18 29  1  0  0  0  0
 18 32  2  0  0  0  0
 18 33  1  0  0  0  0
 19 21  2  0  0  0  0
 19 38  1  0  0  0  0
 20 23  2  0  0  0  0
 20 39  1  0  0  0  0
 21 49  1  0  0  0  0
 22 31  2  0  0  0  0
 22 52  1  0  0  0  0
 23 40  1  0  0  0  0
 24 80  1  0  0  0  0
 25 81  1  0  0  0  0
 26 28  2  0  0  0  0
 26 80  1  0  0  0  0
 27 82  1  0  0  0  0
 28 83  1  0  0  0  0
 29 64  2  0  0  0  0
 30 59  1  0  0  0  0
 30 65  2  0  0  0  0
 31 53  1  0  0  0  0
 31 65  1  0  0  0  0
 32 66  1  0  0  0  0
 32 69  1  0  0  0  0
 33 70  1  0  0  0  0
 33 75  2  0  0  0  0
 34 50  1  0  0  0  0
 34 71  1  0  0  0  0
 34 76  2  0  0  0  0
 35 61  1  0  0  0  0
 35 67  1  0  0  0  0
 35 77  2  0  0  0  0
 36 62  1  0  0  0  0
 36 72  1  0  0  0  0
 36 78  2  0  0  0  0
 37 68  1  0  0  0  0
 37 73  1  0  0  0  0
 37 79  2  0  0  0  0
 38 41  1  0  0  0  0
 39 50  1  0  0  0  0
 40 67  1  0  0  0  0
 41 43  1  0  0  0  0
 42 44  1  0  0  0  0
 42 47  1  0  0  0  0
 43 49  1  0  0  0  0
 44 51  1  0  0  0  0
 45 46  1  0  0  0  0
 45 52  1  0  0  0  0
 46 52  1  0  0  0  0
 47 68  1  0  0  0  0
 48 51  1  0  0  0  0
 48 68  1  0  0  0  0
 49 71  1  0  0  0  0
 50 67  1  0  0  0  0
 51 66  1  0  0  0  0
 52 60  1  0  0  0  0
 54 62  1  0  0  0  0
 55 63  1  0  0  0  0
 56 63  1  0  0  0  0
 57 63  1  0  0  0  0
 58 74  1  0  0  0  0
 59 73  1  0  0  0  0
 60 81  1  0  0  0  0
 61 63  1  0  0  0  0
 61 72  1  0  0  0  0
 62 74  1  0  0  0  0
 64 66  1  0  0  0  0
M  CHG  1  74   1
M  ISO  4  37 100  60 101  73 100  81 101
M  END
> <Batch ID>
0186

> <Smiles>
CNC(C)C(=O)NC(C(=O)N1Cc2cc([101O:1][101CH2:1]C3(c4ccc(C[100NH:0][100C:0](=O)N5CCCC(n6nc(-c7ccc(Oc8ccc(F)cc8F)cc7)c(C(N)=O)c6N)C5)nc4C)CC3)ccc2CC1C(=O)NC1CCCc2ccccc21)C(C)(C)C

> <Shape>
0.221

> <Color>
0.077

> <Negative vol penalty>
0.000

$$$$

  -OEChem-04052323143D

 83 92  0     1  0  0  0  0  0999 V2000
  -25.3637  -18.2203   17.2443 C   0  0  0  0  0  0  0  0  0  0  0  0
  -24.9903  -19.5354   17.4976 C   0  0  0  0  0  0  0  0  0  0  0  0
  -23.7904  -14.5755   20.1233 C   0  0  0  0  0  0  0  0  0  0  0  0
  -25.0246  -13.8495   22.0693 C   0  0  0  0  0  0  0  0  0  0  0  0
  -26.5683  -17.7328   17.7467 C   0  0  0  0  0  0  0  0  0  0  0  0
  -25.8268  -20.3667   18.2433 C   0  0  0  0  0  0  0  0  0  0  0  0
  -24.5550  -25.1082   18.5657 C   0  0  0  0  0  0  0  0  0  0  0  0
  -24.6213  -13.8058   19.3092 C   0  0  0  0  0  0  0  0  0  0  0  0
  -25.8554  -13.0797   21.2551 C   0  0  0  0  0  0  0  0  0  0  0  0
  -23.4730  -25.5483   19.3269 C   0  0  0  0  0  0  0  0  0  0  0  0
  -28.5004  -13.5830   19.2102 C   0  0  0  0  0  0  0  0  0  0  0  0
  -29.8741  -13.6437   19.4444 C   0  0  0  0  0  0  0  0  0  0  0  0
  -24.9948  -26.3240   21.0304 C   0  0  0  0  0  0  0  0  0  0  0  0
  -29.9035  -11.2687   19.8871 C   0  0  0  0  0  0  0  0  0  0  0  0
  -23.9921  -14.5974   21.5034 C   0  0  0  0  0  0  0  0  0  0  0  0
  -21.9327  -14.9894   22.9569 C   0  0  0  0  0  0  0  0  0  0  0  0
  -27.4136  -18.5556   18.5094 C   0  0  0  0  0  0  0  0  0  0  0  0
  -25.8666  -25.2632   19.0368 C   0  0  0  0  0  0  0  0  0  0  0  0
  -27.0579  -19.9002   18.7388 C   0  0  0  0  0  0  0  0  0  0  0  0
  -26.0918  -25.8874   20.2720 C   0  0  0  0  0  0  0  0  0  0  0  0
  -25.6538  -13.0579   19.8751 C   0  0  0  0  0  0  0  0  0  0  0  0
  -23.6926  -26.1537   20.5608 C   0  0  0  0  0  0  0  0  0  0  0  0
  -27.8282  -12.3652   19.3145 C   0  0  0  0  0  0  0  0  0  0  0  0
  -30.5757  -12.4865   19.7828 C   0  0  0  0  0  0  0  0  0  0  0  0
  -28.5298  -11.2081   19.6529 C   0  0  0  0  0  0  0  0  0  0  0  0
  -23.1346  -15.3927   22.3449 C   0  0  0  0  0  0  0  0  0  0  0  0
  -21.5068  -16.1006   23.6427 C   0  0  0  0  0  0  0  0  0  0  0  0
  -18.8492  -28.5521   22.2591 C   0  0  0  0  0  0  0  0  0  0  0  0
  -20.3168  -26.9448   21.7117 C   0  0  0  0  0  0  0  0  0  0  0  0
  -19.1487  -26.7945   23.6222 C   0  0  0  0  0  0  0  0  0  0  0  0
  -21.2613  -13.7234   22.9098 C   0  0  0  0  0  0  0  0  0  0  0  0
  -28.2292  -23.2745   19.7899 C   0  0  0  0  0  0  0  0  0  0  0  0
  -29.9116  -26.0259   20.1387 C   0  0  0  0  0  0  0  0  0  0  0  0
  -29.8790  -29.3860   20.7350 C   0  0  0  0  0  0  0  0  0  0  0  0
  -20.4766  -21.5127   23.6595 C   0  0  0  0  0  0  0  0  0  0  0  0
  -28.7095  -17.9787   19.0222 C   0  0  0  0  0  0  0  0  0  0  0  0
  -27.0243  -24.8073   18.1916 C   0  0  0  0  0  0  0  0  0  0  0  0
  -27.4816  -26.0958   20.8136 C   0  0  0  0  0  0  0  0  0  0  0  0
  -29.3111  -18.7910   20.1643 C   0  0  0  0  0  0  0  0  0  0  0  0
  -23.8516  -20.4375   24.6919 C   0  0  0  0  0  0  0  0  0  0  0  0
  -29.3532  -20.2645   19.7882 C   0  0  0  0  0  0  0  0  0  0  0  0
  -23.8758  -19.0044   24.1687 C   0  0  0  0  0  0  0  0  0  0  0  0
  -18.6198  -23.6519   25.5126 C   0  0  0  0  0  0  0  0  0  0  0  0
  -23.0350  -21.3632   23.7912 C   0  0  0  0  0  0  0  0  0  0  0  0
  -21.6715  -19.4429   23.0181 C   0  0  0  0  0  0  0  0  0  0  0  0
  -27.9373  -20.8139   19.5731 C   0  0  1  0  0  0  0  0  0  0  0  0
  -28.2916  -24.5522   19.0016 C   0  0  1  0  0  0  0  0  0  0  0  0
  -22.4477  -18.4873   23.9372 C   0  0  1  0  0  0  0  0  0  0  0  0
  -19.4441  -24.8601   25.1702 C   0  0  1  0  0  0  0  0  0  0  0  0
  -19.4184  -23.6753   24.2387 C   0  0  1  0  0  0  0  0  0  0  0  0
  -18.1717  -29.8425   21.9463 C   0  0  0  0  0  0  0  0  0  0  0  0
  -31.4124  -31.3551   20.9977 C   0  0  0  0  0  0  0  0  0  0  0  0
  -30.6603  -25.0666   22.9367 C   0  0  0  0  0  0  0  0  0  0  0  0
  -31.3564  -27.4097   23.4782 C   0  0  0  0  0  0  0  0  0  0  0  0
  -32.5260  -26.1491   21.6711 C   0  0  0  0  0  0  0  0  0  0  0  0
  -28.6729  -30.7814   18.4204 C   0  0  0  0  0  0  0  0  0  0  0  0
  -21.3341  -26.3823   20.7631 C   0  0  0  0  0  0  0  0  0  1  0  0
  -30.1720  -26.9829   21.2768 C   0  0  1  0  0  0  0  0  0  0  0  0
  -30.5675  -30.5409   20.0302 C   0  0  2  0  0  0  0  0  0  0  0  0
  -31.1522  -26.3965   22.3317 C   0  0  0  0  0  0  0  0  0  0  0  0
  -23.4517  -16.6612   22.6176 N   0  0  0  0  0  0  0  0  0  0  0  0
  -19.7479  -28.1103   21.3643 N   0  0  0  0  0  0  0  0  0  0  0  0
  -18.4989  -27.9496   23.4069 N   0  0  0  0  0  0  0  0  0  0  0  0
  -20.0681  -26.2314   22.8217 N   0  0  0  0  0  0  0  0  0  0  0  0
  -22.4428  -17.0646   23.4086 N   0  0  0  0  0  0  0  0  0  0  0  0
  -28.5803  -25.6272   19.9529 N   0  0  0  0  0  0  0  0  0  0  0  0
  -21.6932  -20.8187   23.5300 N   0  0  0  0  0  0  0  0  0  0  0  0
  -20.4266  -16.3374   24.4170 N   0  0  0  0  0  0  0  0  0  0  0  0
  -21.8366  -12.6896   22.1583 N   0  0  0  0  0  0  0  0  0  0  0  0
  -18.8333  -26.1016   24.8109 N   0  0  0  0  0  0  0  0  0  0  0  0
  -28.0273  -22.1464   19.0179 N   0  0  0  0  0  0  0  0  0  0  0  0
  -30.6252  -28.2285   20.6673 N   0  0  0  0  0  0  0  0  0  0  0  0
  -20.5756  -22.8378   24.0683 N   0  0  0  0  0  0  0  0  0  0  0  0
  -29.5581  -31.4459   19.4113 N   0  3  0  0  0  0  0  0  0  0  0  0
  -20.1748  -13.5201   23.5028 O   0  0  0  0  0  0  0  0  0  0  0  0
  -28.3565  -23.3095   21.0082 O   0  0  0  0  0  0  0  0  0  0  0  0
  -30.8537  -25.6517   19.4357 O   0  0  0  0  0  0  0  0  0  0  0  0
  -28.7900  -29.5004   21.2932 O   0  0  0  0  0  0  0  0  0  0  0  0
  -19.3804  -20.9928   23.4230 O   0  0  0  0  0  0  0  0  0  0  0  0
  -26.4645  -12.3065   19.0809 O   0  0  0  0  0  0  0  0  0  0  0  0
  -22.6383  -26.5835   21.3061 O   0  0  0  0  0  0  0  0  0  1  0  0
  -31.8951  -12.5447   20.0062 F   0  0  0  0  0  0  0  0  0  0  0  0
  -27.8896  -10.0351   19.7535 F   0  0  0  0  0  0  0  0  0  0  0  0
  1  2  1  0  0  0  0
  1  5  2  0  0  0  0
  2  6  2  0  0  0  0
  3  8  2  0  0  0  0
  3 15  1  0  0  0  0
  4  9  1  0  0  0  0
  4 15  2  0  0  0  0
  5 17  1  0  0  0  0
  6 19  1  0  0  0  0
  7 10  2  0  0  0  0
  7 18  1  0  0  0  0
  8 21  1  0  0  0  0
  9 21  2  0  0  0  0
 10 22  1  0  0  0  0
 11 12  2  0  0  0  0
 11 23  1  0  0  0  0
 12 24  1  0  0  0  0
 13 20  1  0  0  0  0
 13 22  2  0  0  0  0
 14 24  2  0  0  0  0
 14 25  1  0  0  0  0
 15 26  1  0  0  0  0
 16 26  1  0  0  0  0
 16 27  2  0  0  0  0
 16 31  1  0  0  0  0
 17 19  2  0  0  0  0
 17 36  1  0  0  0  0
 18 20  2  0  0  0  0
 18 37  1  0  0  0  0
 19 46  1  0  0  0  0
 20 38  1  0  0  0  0
 21 80  1  0  0  0  0
 22 81  1  0  0  0  0
 23 25  2  0  0  0  0
 23 80  1  0  0  0  0
 24 82  1  0  0  0  0
 25 83  1  0  0  0  0
 26 61  2  0  0  0  0
 27 65  1  0  0  0  0
 27 68  1  0  0  0  0
 28 51  1  0  0  0  0
 28 62  2  0  0  0  0
 28 63  1  0  0  0  0
 29 57  1  0  0  0  0
 29 62  1  0  0  0  0
 29 64  2  0  0  0  0
 30 63  2  0  0  0  0
 30 64  1  0  0  0  0
 30 70  1  0  0  0  0
 31 69  1  0  0  0  0
 31 75  2  0  0  0  0
 32 47  1  0  0  0  0
 32 71  1  0  0  0  0
 32 76  2  0  0  0  0
 33 58  1  0  0  0  0
 33 66  1  0  0  0  0
 33 77  2  0  0  0  0
 34 59  1  0  0  0  0
 34 72  1  0  0  0  0
 34 78  2  0  0  0  0
 35 67  1  0  0  0  0
 35 73  1  0  0  0  0
 35 79  2  0  0  0  0
 36 39  1  0  0  0  0
 37 47  1  0  0  0  0
 38 66  1  0  0  0  0
 39 41  1  0  0  0  0
 40 42  1  0  0  0  0
 40 44  1  0  0  0  0
 41 46  1  0  0  0  0
 42 48  1  0  0  0  0
 43 49  1  0  0  0  0
 43 50  1  0  0  0  0
 44 67  1  0  0  0  0
 45 48  1  0  0  0  0
 45 67  1  0  0  0  0
 46 71  1  0  0  0  0
 47 66  1  0  0  0  0
 48 65  1  0  0  0  0
 49 50  1  0  0  0  0
 49 70  1  0  0  0  0
 50 73  1  0  0  0  0
 52 59  1  0  0  0  0
 53 60  1  0  0  0  0
 54 60  1  0  0  0  0
 55 60  1  0  0  0  0
 56 74  1  0  0  0  0
 57 81  1  0  0  0  0
 58 60  1  0  0  0  0
 58 72  1  0  0  0  0
 59 74  1  0  0  0  0
 61 65  1  0  0  0  0
M  CHG  1  74   1
M  ISO  4  35 100  57 101  73 100  81 101
M  END
> <Batch ID>
0186

> <Smiles>
CNC(C)C(=O)NC(C(=O)N1Cc2cc([101O:1][101CH2:1]c3nc(C)nc(NC4CC4[100NH:0][100C:0](=O)N4CCCC(n5nc(-c6ccc(Oc7ccc(F)cc7F)cc6)c(C(N)=O)c5N)C4)n3)ccc2CC1C(=O)NC1CCCc2ccccc21)C(C)(C)C

> <Shape>
0.202

> <Color>
0.072

> <Negative vol penalty>
0.000

$$$$

  -OEChem-04052323143D

 84 93  0     1  0  0  0  0  0999 V2000
  -19.8012   -9.9696   21.5355 C   0  0  0  0  0  0  0  0  0  0  0  0
  -20.1547  -11.1028   22.2609 C   0  0  0  0  0  0  0  0  0  0  0  0
  -25.9457  -27.1878   19.0665 C   0  0  0  0  0  0  0  0  0  0  0  0
  -26.6434  -28.2884   21.1010 C   0  0  0  0  0  0  0  0  0  0  0  0
  -20.7908   -9.1817   20.9492 C   0  0  0  0  0  0  0  0  0  0  0  0
  -21.4984  -11.4482   22.4014 C   0  0  0  0  0  0  0  0  0  0  0  0
  -23.8392  -17.1016   22.6556 C   0  0  0  0  0  0  0  0  0  0  0  0
  -24.7898  -27.9681   19.0408 C   0  0  0  0  0  0  0  0  0  0  0  0
  -25.4874  -29.0687   21.0753 C   0  0  0  0  0  0  0  0  0  0  0  0
  -24.2336  -17.9064   23.7236 C   0  0  0  0  0  0  0  0  0  0  0  0
  -24.3709  -31.8106   19.4456 C   0  0  0  0  0  0  0  0  0  0  0  0
  -24.5067  -33.1757   19.6976 C   0  0  0  0  0  0  0  0  0  0  0  0
  -26.5124  -17.1724   23.4272 C   0  0  0  0  0  0  0  0  0  0  0  0
  -23.0328  -32.9709   21.6010 C   0  0  0  0  0  0  0  0  0  0  0  0
  -26.8725  -27.3479   20.0967 C   0  0  0  0  0  0  0  0  0  0  0  0
  -29.3092  -26.8430   19.5353 C   0  0  0  0  0  0  0  0  0  0  0  0
  -22.1467   -9.5230   21.0744 C   0  0  0  0  0  0  0  0  0  0  0  0
  -24.7782  -16.3166   21.9712 C   0  0  0  0  0  0  0  0  0  0  0  0
  -22.5072  -10.6634   21.8173 C   0  0  0  0  0  0  0  0  0  0  0  0
  -26.1277  -16.3605   22.3492 C   0  0  0  0  0  0  0  0  0  0  0  0
  -26.6884  -21.7575   28.8572 C   0  0  0  0  0  0  0  0  0  0  0  0
  -24.5607  -28.9085   20.0451 C   0  0  0  0  0  0  0  0  0  0  0  0
  -25.5699  -17.9397   24.1114 C   0  0  0  0  0  0  0  0  0  0  0  0
  -23.5661  -31.0256   20.2713 C   0  0  0  0  0  0  0  0  0  0  0  0
  -23.8376  -33.7559   20.7753 C   0  0  0  0  0  0  0  0  0  0  0  0
  -22.8971  -31.6057   21.3490 C   0  0  0  0  0  0  0  0  0  0  0  0
  -28.0664  -26.5418   20.1241 C   0  0  0  0  0  0  0  0  0  0  0  0
  -27.0588  -21.8948   27.5349 C   0  0  0  0  0  0  0  0  0  0  0  0
  -25.7047  -20.8227   29.1076 C   0  0  0  0  0  0  0  0  0  0  0  0
  -30.1054  -25.7675   19.8450 C   0  0  0  0  0  0  0  0  0  0  0  0
  -25.5683  -20.3006   26.8994 C   0  0  0  0  0  0  0  0  0  0  0  0
  -29.7081  -27.9921   18.7763 C   0  0  0  0  0  0  0  0  0  0  0  0
  -25.1760  -13.1987   21.4975 C   0  0  0  0  0  0  0  0  0  0  0  0
  -27.5638  -14.1964   19.5416 C   0  0  0  0  0  0  0  0  0  0  0  0
  -29.8091  -16.6316   18.7200 C   0  0  0  0  0  0  0  0  0  0  0  0
  -29.7658  -21.6994   24.3206 C   0  0  0  0  0  0  0  0  0  0  0  0
  -23.1835   -8.6143   20.4627 C   0  0  0  0  0  0  0  0  0  0  0  0
  -24.3411  -15.4743   20.8042 C   0  0  0  0  0  0  0  0  0  0  0  0
  -27.1783  -15.5522   21.6342 C   0  0  0  0  0  0  0  0  0  0  0  0
  -24.5627   -9.2575   20.3432 C   0  0  0  0  0  0  0  0  0  0  0  0
  -29.9220  -21.1019   20.7826 C   0  0  0  0  0  0  0  0  0  0  0  0
  -24.9399   -9.9576   21.6449 C   0  0  0  0  0  0  0  0  0  0  0  0
  -29.5238  -22.4348   20.1572 C   0  0  0  0  0  0  0  0  0  0  0  0
  -29.1616  -20.8610   22.0796 C   0  0  0  0  0  0  0  0  0  0  0  0
  -29.6090  -22.3950   26.7679 C   0  0  0  0  0  0  0  0  0  0  0  0
  -28.1641  -23.3636   25.5433 C   0  0  0  0  0  0  0  0  0  0  0  0
  -28.9892  -23.3013   22.4904 C   0  0  0  0  0  0  0  0  0  0  0  0
  -23.9525  -11.0846   21.9713 C   0  0  1  0  0  0  0  0  0  0  0  0
  -28.1759  -22.9175   27.0268 C   0  0  0  0  0  0  0  0  0  0  0  0
  -25.2965  -14.3226   20.5075 C   0  0  1  0  0  0  0  0  0  0  0  0
  -29.7198  -23.5795   21.1616 C   0  0  2  0  0  0  0  0  0  0  0  0
  -27.3148  -22.5690   29.9335 C   0  0  0  0  0  0  0  0  0  0  0  0
  -23.7500  -20.1928   30.5460 C   0  0  0  0  0  0  0  0  0  0  0  0
  -31.6538  -17.1440   17.0976 C   0  0  0  0  0  0  0  0  0  0  0  0
  -29.4335  -12.3452   21.0867 C   0  0  0  0  0  0  0  0  0  0  0  0
  -31.3687  -13.5802   20.0875 C   0  0  0  0  0  0  0  0  0  0  0  0
  -29.7807  -12.3482   18.6100 C   0  0  0  0  0  0  0  0  0  0  0  0
  -28.3622  -18.9747   17.6359 C   0  0  0  0  0  0  0  0  0  0  0  0
  -25.2232  -20.5876   30.5014 C   0  0  0  0  0  0  0  0  0  0  0  0
  -24.9425  -19.4864   25.8055 C   0  0  0  0  0  0  0  0  0  1  0  0
  -29.0333  -14.4958   19.7152 C   0  0  1  0  0  0  0  0  0  0  0  0
  -30.1658  -17.2647   17.3871 C   0  0  2  0  0  0  0  0  0  0  0  0
  -29.8842  -13.2062   19.8898 C   0  0  0  0  0  0  0  0  0  0  0  0
  -28.0681  -25.3670   20.7596 N   0  0  0  0  0  0  0  0  0  0  0  0
  -26.5177  -21.1800   26.5268 N   0  0  0  0  0  0  0  0  0  0  0  0
  -25.1205  -20.0741   28.1491 N   0  0  0  0  0  0  0  0  0  0  0  0
  -29.3217  -24.9205   20.5719 N   0  0  0  0  0  0  0  0  0  0  0  0
  -26.7002  -14.7394   20.5035 N   0  0  0  0  0  0  0  0  0  0  0  0
  -29.3169  -21.9717   23.0236 N   0  0  0  0  0  0  0  0  0  0  0  0
  -29.3138  -22.4990   25.3457 N   0  0  0  0  0  0  0  0  0  0  0  0
  -31.3926  -25.4733   19.5636 N   0  0  0  0  0  0  0  0  0  0  0  0
  -28.7653  -29.0043   18.5512 N   0  0  0  0  0  0  0  0  0  0  0  0
  -24.2297  -12.2502   21.1595 N   0  0  0  0  0  0  0  0  0  0  0  0
  -29.4202  -15.3169   18.5731 N   0  0  0  0  0  0  0  0  0  0  0  0
  -29.8026  -18.7101   17.3866 N   0  3  0  0  0  0  0  0  0  0  0  0
  -30.8616  -28.1100   18.2976 O   0  0  0  0  0  0  0  0  0  0  0  0
  -25.8899  -13.1918   22.4935 O   0  0  0  0  0  0  0  0  0  0  0  0
  -27.1951  -13.5122   18.5838 O   0  0  0  0  0  0  0  0  0  0  0  0
  -29.8730  -17.2412   19.7853 O   0  0  0  0  0  0  0  0  0  0  0  0
  -30.5237  -20.7510   24.5637 O   0  0  0  0  0  0  0  0  0  0  0  0
  -23.4330  -29.6702   20.0202 O   0  0  0  0  0  0  0  0  0  0  0  0
  -25.9575  -18.7238   25.1539 O   0  0  0  0  0  0  0  0  0  1  0  0
  -23.9693  -35.0666   21.0182 F   0  0  0  0  0  0  0  0  0  0  0  0
  -22.1234  -30.8564   22.1464 F   0  0  0  0  0  0  0  0  0  0  0  0
  1  2  1  0  0  0  0
  1  5  2  0  0  0  0
  2  6  2  0  0  0  0
  3  8  2  0  0  0  0
  3 15  1  0  0  0  0
  4  9  1  0  0  0  0
  4 15  2  0  0  0  0
  5 17  1  0  0  0  0
  6 19  1  0  0  0  0
  7 10  2  0  0  0  0
  7 18  1  0  0  0  0
  8 22  1  0  0  0  0
  9 22  2  0  0  0  0
 10 23  1  0  0  0  0
 11 12  2  0  0  0  0
 11 24  1  0  0  0  0
 12 25  1  0  0  0  0
 13 20  1  0  0  0  0
 13 23  2  0  0  0  0
 14 25  2  0  0  0  0
 14 26  1  0  0  0  0
 15 27  1  0  0  0  0
 16 27  1  0  0  0  0
 16 30  2  0  0  0  0
 16 32  1  0  0  0  0
 17 19  2  0  0  0  0
 17 37  1  0  0  0  0
 18 20  2  0  0  0  0
 18 38  1  0  0  0  0
 19 48  1  0  0  0  0
 20 39  1  0  0  0  0
 21 28  1  0  0  0  0
 21 29  2  0  0  0  0
 21 52  1  0  0  0  0
 22 81  1  0  0  0  0
 23 82  1  0  0  0  0
 24 26  2  0  0  0  0
 24 81  1  0  0  0  0
 25 83  1  0  0  0  0
 26 84  1  0  0  0  0
 27 64  2  0  0  0  0
 28 49  1  0  0  0  0
 28 65  2  0  0  0  0
 29 59  1  0  0  0  0
 29 66  1  0  0  0  0
 30 67  1  0  0  0  0
 30 71  1  0  0  0  0
 31 60  1  0  0  0  0
 31 65  1  0  0  0  0
 31 66  2  0  0  0  0
 32 72  1  0  0  0  0
 32 76  2  0  0  0  0
 33 50  1  0  0  0  0
 33 73  1  0  0  0  0
 33 77  2  0  0  0  0
 34 61  1  0  0  0  0
 34 68  1  0  0  0  0
 34 78  2  0  0  0  0
 35 62  1  0  0  0  0
 35 74  1  0  0  0  0
 35 79  2  0  0  0  0
 36 69  1  0  0  0  0
 36 70  1  0  0  0  0
 36 80  2  0  0  0  0
 37 40  1  0  0  0  0
 38 50  1  0  0  0  0
 39 68  1  0  0  0  0
 40 42  1  0  0  0  0
 41 43  1  0  0  0  0
 41 44  1  0  0  0  0
 42 48  1  0  0  0  0
 43 51  1  0  0  0  0
 44 69  1  0  0  0  0
 45 49  1  0  0  0  0
 45 70  1  0  0  0  0
 46 49  1  0  0  0  0
 46 70  1  0  0  0  0
 47 51  1  0  0  0  0
 47 69  1  0  0  0  0
 48 73  1  0  0  0  0
 50 68  1  0  0  0  0
 51 67  1  0  0  0  0
 53 59  1  0  0  0  0
 54 62  1  0  0  0  0
 55 63  1  0  0  0  0
 56 63  1  0  0  0  0
 57 63  1  0  0  0  0
 58 75  1  0  0  0  0
 60 82  1  0  0  0  0
 61 63  1  0  0  0  0
 61 74  1  0  0  0  0
 62 75  1  0  0  0  0
 64 67  1  0  0  0  0
M  CHG  1  75   1
M  ISO  4  36 100  60 101  70 100  82 101
M  END
> <Batch ID>
0186

> <Smiles>
CCc1nc([101CH2:1][101O:1]c2ccc3c(c2)CN(C(=O)C(NC(=O)C(C)NC)C(C)(C)C)C(C(=O)NC2CCCc4ccccc42)C3)nc(C2C[100N:0]([100C:0](=O)N3CCCC(n4nc(-c5ccc(Oc6ccc(F)cc6F)cc5)c(C(N)=O)c4N)C3)C2)c1C

> <Shape>
0.227

> <Color>
0.053

> <Negative vol penalty>
0.000

$$$$

  -OEChem-04052323143D

 86 96  0     1  0  0  0  0  0999 V2000
  -28.8482  -32.9985   28.0377 C   0  0  0  0  0  0  0  0  0  0  0  0
  -28.5029  -31.9671   27.1702 C   0  0  0  0  0  0  0  0  0  0  0  0
  -26.6214  -12.9677   21.4415 C   0  0  0  0  0  0  0  0  0  0  0  0
  -26.3490  -13.6247   19.1325 C   0  0  0  0  0  0  0  0  0  0  0  0
  -27.9930  -34.0877   28.1992 C   0  0  0  0  0  0  0  0  0  0  0  0
  -27.3016  -32.0238   26.4646 C   0  0  0  0  0  0  0  0  0  0  0  0
  -27.8464  -30.7441   21.5952 C   0  0  0  0  0  0  0  0  0  0  0  0
  -25.3338  -12.4315   21.4409 C   0  0  0  0  0  0  0  0  0  0  0  0
  -25.0613  -13.0883   19.1319 C   0  0  0  0  0  0  0  0  0  0  0  0
  -27.9464  -29.3849   21.3015 C   0  0  0  0  0  0  0  0  0  0  0  0
  -23.8079   -9.6176   20.3516 C   0  0  0  0  0  0  0  0  0  0  0  0
  -23.6294   -8.3595   20.9269 C   0  0  0  0  0  0  0  0  0  0  0  0
  -25.6197  -29.3574   20.6652 C   0  0  0  0  0  0  0  0  0  0  0  0
  -22.0741   -9.3065   22.5149 C   0  0  0  0  0  0  0  0  0  0  0  0
  -27.4449  -23.0907   20.7125 C   0  0  0  0  0  0  0  0  0  0  0  0
  -27.1290  -13.5644   20.2873 C   0  0  0  0  0  0  0  0  0  0  0  0
  -29.6563  -13.4565   19.9574 C   0  0  0  0  0  0  0  0  0  0  0  0
  -26.7851  -34.1624   27.4878 C   0  0  0  0  0  0  0  0  0  0  0  0
  -26.6274  -31.4189   21.4363 C   0  0  0  0  0  0  0  0  0  0  0  0
  -26.4288  -33.1144   26.6177 C   0  0  0  0  0  0  0  0  0  0  0  0
  -25.5075  -30.7258   20.9552 C   0  0  0  0  0  0  0  0  0  0  0  0
  -27.4703  -24.3919   21.1715 C   0  0  0  0  0  0  0  0  0  0  0  0
  -24.5537  -12.4917   20.2861 C   0  0  0  0  0  0  0  0  0  0  0  0
  -26.8322  -28.6907   20.8391 C   0  0  0  0  0  0  0  0  0  0  0  0
  -23.1196  -10.7201   20.8579 C   0  0  0  0  0  0  0  0  0  0  0  0
  -22.7625   -8.2040   22.0086 C   0  0  0  0  0  0  0  0  0  0  0  0
  -22.2527  -10.5646   21.9395 C   0  0  0  0  0  0  0  0  0  0  0  0
  -28.4588  -14.1191   20.2874 C   0  0  0  0  0  0  0  0  0  0  0  0
  -28.1068  -25.3017   20.3522 C   0  0  0  0  0  0  0  0  0  0  0  0
  -30.6312  -14.4114   20.1132 C   0  0  0  0  0  0  0  0  0  0  0  0
  -28.5865  -23.6772   18.8363 C   0  0  0  0  0  0  0  0  0  0  0  0
  -29.8684  -12.0993   19.5467 C   0  0  0  0  0  0  0  0  0  0  0  0
  -24.6422  -32.9538   23.3874 C   0  0  0  0  0  0  0  0  0  0  0  0
  -23.1168  -33.6926   20.6215 C   0  0  0  0  0  0  0  0  0  0  0  0
  -22.4818  -32.9024   17.3628 C   0  0  0  0  0  0  0  0  0  0  0  0
  -30.5714  -20.3869   19.8848 C   0  0  0  0  0  0  0  0  0  0  0  0
  -25.8709  -35.3371   27.7311 C   0  0  0  0  0  0  0  0  0  0  0  0
  -26.5428  -32.8912   21.7322 C   0  0  0  0  0  0  0  0  0  0  0  0
  -24.1810  -31.4085   20.7481 C   0  0  0  0  0  0  0  0  0  0  0  0
  -24.7922  -35.5007   26.6634 C   0  0  0  0  0  0  0  0  0  0  0  0
  -31.6298  -18.3705   22.6099 C   0  0  0  0  0  0  0  0  0  0  0  0
  -25.7193  -23.9206   23.0116 C   0  0  0  0  0  0  0  0  0  0  0  0
  -25.4310  -25.2899   22.4805 C   0  0  0  0  0  0  0  0  0  0  0  0
  -24.1291  -34.1599   26.3646 C   0  0  0  0  0  0  0  0  0  0  0  0
  -31.0500  -16.9908   22.2933 C   0  0  0  0  0  0  0  0  0  0  0  0
  -29.6396  -21.8632   15.6595 C   0  0  0  0  0  0  0  0  0  0  0  0
  -30.3934  -20.5840   16.0824 C   0  0  0  0  0  0  0  0  0  0  0  0
  -30.6811  -19.4911   22.1895 C   0  0  0  0  0  0  0  0  0  0  0  0
  -29.6582  -18.0561   20.4688 C   0  0  0  0  0  0  0  0  0  0  0  0
  -26.8453  -24.7645   22.4673 C   0  0  0  0  0  0  0  0  0  0  0  0
  -25.1459  -33.1517   25.8159 C   0  0  1  0  0  0  0  0  0  0  0  0
  -25.1210  -33.3616   22.0227 C   0  0  1  0  0  0  0  0  0  0  0  0
  -30.6024  -16.8941   20.8222 C   0  0  2  0  0  0  0  0  0  0  0  0
  -29.1547  -21.9678   17.1218 C   0  0  1  0  0  0  0  0  0  0  0  0
  -30.4136  -21.1579   17.5199 C   0  0  1  0  0  0  0  0  0  0  0  0
  -21.1660  -33.6725   15.3695 C   0  0  0  0  0  0  0  0  0  0  0  0
  -20.5693  -32.5739   21.8740 C   0  0  0  0  0  0  0  0  0  0  0  0
  -19.5639  -32.4875   19.5827 C   0  0  0  0  0  0  0  0  0  0  0  0
  -20.2491  -34.6778   20.5603 C   0  0  0  0  0  0  0  0  0  0  0  0
  -24.9339  -33.3142   15.7578 C   0  0  0  0  0  0  0  0  0  0  0  0
  -28.1983  -26.7461   20.7480 C   0  0  0  0  0  0  0  0  0  1  0  0
  -22.0272  -33.0506   19.7971 C   0  0  1  0  0  0  0  0  0  0  0  0
  -22.4977  -33.7454   16.1004 C   0  0  2  0  0  0  0  0  0  0  0  0
  -20.6267  -33.1838   20.4592 C   0  0  0  0  0  0  0  0  0  0  0  0
  -27.9951  -22.6968   19.5453 N   0  0  0  0  0  0  0  0  0  0  0  0
  -28.6529  -15.3961   20.6273 N   0  0  0  0  0  0  0  0  0  0  0  0
  -28.6781  -24.9777   19.1737 N   0  0  0  0  0  0  0  0  0  0  0  0
  -29.9837  -15.5436   20.5118 N   0  0  0  0  0  0  0  0  0  0  0  0
  -24.1472  -32.8475   21.0574 N   0  0  0  0  0  0  0  0  0  0  0  0
  -30.3011  -19.3420   20.7824 N   0  0  0  0  0  0  0  0  0  0  0  0
  -31.9706  -14.3846   19.9467 N   0  0  0  0  0  0  0  0  0  0  0  0
  -28.7568  -11.2527   19.4378 N   0  0  0  0  0  0  0  0  0  0  0  0
  -29.1721  -23.3020   17.6078 N   0  0  0  0  0  0  0  0  0  0  0  0
  -25.4269  -33.4246   24.4228 N   0  0  0  0  0  0  0  0  0  0  0  0
  -22.1184  -33.6436   18.4673 N   0  0  0  0  0  0  0  0  0  0  0  0
  -30.1903  -20.1695   18.5648 N   0  0  0  0  0  0  0  0  0  0  0  0
  -23.5675  -33.2739   15.1762 N   0  3  0  0  0  0  0  0  0  0  0  0
  -31.0117  -11.6461   19.3000 O   0  0  0  0  0  0  0  0  0  0  0  0
  -23.6346  -32.2645   23.4932 O   0  0  0  0  0  0  0  0  0  0  0  0
  -23.0596  -34.9008   20.8636 O   0  0  0  0  0  0  0  0  0  0  0  0
  -22.7599  -31.7053   17.3680 O   0  0  0  0  0  0  0  0  0  0  0  0
  -31.1209  -21.4397   20.2269 O   0  0  0  0  0  0  0  0  0  0  0  0
  -23.2973  -11.9683   20.2850 O   0  0  0  0  0  0  0  0  0  0  0  0
  -26.9269  -27.3638   20.5522 O   0  0  0  0  0  0  0  0  0  1  0  0
  -22.5900   -6.9956   22.5600 F   0  0  0  0  0  0  0  0  0  0  0  0
  -21.5878  -11.6199   22.4295 F   0  0  0  0  0  0  0  0  0  0  0  0
  1  2  1  0  0  0  0
  1  5  2  0  0  0  0
  2  6  2  0  0  0  0
  3  8  2  0  0  0  0
  3 16  1  0  0  0  0
  4  9  1  0  0  0  0
  4 16  2  0  0  0  0
  5 18  1  0  0  0  0
  6 20  1  0  0  0  0
  7 10  2  0  0  0  0
  7 19  1  0  0  0  0
  8 23  1  0  0  0  0
  9 23  2  0  0  0  0
 10 24  1  0  0  0  0
 11 12  2  0  0  0  0
 11 25  1  0  0  0  0
 12 26  1  0  0  0  0
 13 21  1  0  0  0  0
 13 24  2  0  0  0  0
 14 26  2  0  0  0  0
 14 27  1  0  0  0  0
 15 22  1  0  0  0  0
 15 65  2  0  0  0  0
 16 28  1  0  0  0  0
 17 28  1  0  0  0  0
 17 30  2  0  0  0  0
 17 32  1  0  0  0  0
 18 20  2  0  0  0  0
 18 37  1  0  0  0  0
 19 21  2  0  0  0  0
 19 38  1  0  0  0  0
 20 51  1  0  0  0  0
 21 39  1  0  0  0  0
 22 29  2  0  0  0  0
 22 50  1  0  0  0  0
 23 83  1  0  0  0  0
 24 84  1  0  0  0  0
 25 27  2  0  0  0  0
 25 83  1  0  0  0  0
 26 85  1  0  0  0  0
 27 86  1  0  0  0  0
 28 66  2  0  0  0  0
 29 61  1  0  0  0  0
 29 67  1  0  0  0  0
 30 68  1  0  0  0  0
 30 71  1  0  0  0  0
 31 65  1  0  0  0  0
 31 67  2  0  0  0  0
 31 73  1  0  0  0  0
 32 72  1  0  0  0  0
 32 78  2  0  0  0  0
 33 52  1  0  0  0  0
 33 74  1  0  0  0  0
 33 79  2  0  0  0  0
 34 62  1  0  0  0  0
 34 69  1  0  0  0  0
 34 80  2  0  0  0  0
 35 63  1  0  0  0  0
 35 75  1  0  0  0  0
 35 81  2  0  0  0  0
 36 70  1  0  0  0  0
 36 76  1  0  0  0  0
 36 82  2  0  0  0  0
 37 40  1  0  0  0  0
 38 52  1  0  0  0  0
 39 69  1  0  0  0  0
 40 44  1  0  0  0  0
 41 45  1  0  0  0  0
 41 48  1  0  0  0  0
 42 43  1  0  0  0  0
 42 50  1  0  0  0  0
 43 50  1  0  0  0  0
 44 51  1  0  0  0  0
 45 53  1  0  0  0  0
 46 47  1  0  0  0  0
 46 54  1  0  0  0  0
 47 55  1  0  0  0  0
 48 70  1  0  0  0  0
 49 53  1  0  0  0  0
 49 70  1  0  0  0  0
 51 74  1  0  0  0  0
 52 69  1  0  0  0  0
 53 68  1  0  0  0  0
 54 55  1  0  0  0  0
 54 73  1  0  0  0  0
 55 76  1  0  0  0  0
 56 63  1  0  0  0  0
 57 64  1  0  0  0  0
 58 64  1  0  0  0  0
 59 64  1  0  0  0  0
 60 77  1  0  0  0  0
 61 84  1  0  0  0  0
 62 64  1  0  0  0  0
 62 75  1  0  0  0  0
 63 77  1  0  0  0  0
 66 68  1  0  0  0  0
M  CHG  1  77   1
M  ISO  4  36 100  61 101  76 100  84 101
M  END
> <Batch ID>
0186

> <Smiles>
CNC(C)C(=O)NC(C(=O)N1Cc2cc([101O:1][101CH2:1]c3nc(NC4CCC4[100NH:0][100C:0](=O)N4CCCC(n5nc(-c6ccc(Oc7ccc(F)cc7F)cc6)c(C(N)=O)c5N)C4)ncc3C3CC3)ccc2CC1C(=O)NC1CCCc2ccccc21)C(C)(C)C

> <Shape>
0.265

> <Color>
0.080

> <Negative vol penalty>
0.000

$$$$

  -OEChem-04052323143D

 81 90  0     1  0  0  0  0  0999 V2000
  -18.0494  -25.2519   21.2217 C   0  0  0  0  0  0  0  0  0  0  0  0
  -19.4067  -25.0823   20.9681 C   0  0  0  0  0  0  0  0  0  0  0  0
  -26.2931  -12.1092   18.8814 C   0  0  0  0  0  0  0  0  0  0  0  0
  -25.6753  -14.0931   20.1142 C   0  0  0  0  0  0  0  0  0  0  0  0
  -17.6026  -26.3949   21.8834 C   0  0  0  0  0  0  0  0  0  0  0  0
  -20.3179  -26.0562   21.3751 C   0  0  0  0  0  0  0  0  0  0  0  0
  -24.4269  -24.0745   23.5738 C   0  0  0  0  0  0  0  0  0  0  0  0
  -25.7944  -11.3132   19.9126 C   0  0  0  0  0  0  0  0  0  0  0  0
  -25.1766  -13.2971   21.1453 C   0  0  0  0  0  0  0  0  0  0  0  0
  -25.3969  -23.5278   22.7348 C   0  0  0  0  0  0  0  0  0  0  0  0
  -22.7754  -10.2447   20.9972 C   0  0  0  0  0  0  0  0  0  0  0  0
  -21.9807   -9.1531   20.6471 C   0  0  0  0  0  0  0  0  0  0  0  0
  -26.7079  -25.5415   22.9484 C   0  0  0  0  0  0  0  0  0  0  0  0
  -23.5589   -7.6637   21.7091 C   0  0  0  0  0  0  0  0  0  0  0  0
  -29.4407  -21.0806   20.5907 C   0  0  0  0  0  0  0  0  0  0  0  0
  -26.2336  -13.4992   18.9822 C   0  0  0  0  0  0  0  0  0  0  0  0
  -26.0455  -14.8002   16.7960 C   0  0  0  0  0  0  0  0  0  0  0  0
  -18.5098  -27.3787   22.3073 C   0  0  0  0  0  0  0  0  0  0  0  0
  -24.5852  -25.3652   24.0986 C   0  0  0  0  0  0  0  0  0  0  0  0
  -19.8827  -27.2141   22.0419 C   0  0  0  0  0  0  0  0  0  0  0  0
  -25.7396  -26.1013   23.7959 C   0  0  0  0  0  0  0  0  0  0  0  0
  -25.2362  -11.9071   21.0445 C   0  0  0  0  0  0  0  0  0  0  0  0
  -26.5362  -24.2625   22.4196 C   0  0  0  0  0  0  0  0  0  0  0  0
  -23.9618  -10.0458   21.7032 C   0  0  0  0  0  0  0  0  0  0  0  0
  -22.3725   -7.8626   21.0031 C   0  0  0  0  0  0  0  0  0  0  0  0
  -24.3536   -8.7553   22.0592 C   0  0  0  0  0  0  0  0  0  0  0  0
  -26.7491  -14.3221   17.9177 C   0  0  0  0  0  0  0  0  0  0  0  0
  -30.2331  -21.0596   19.4766 C   0  0  0  0  0  0  0  0  0  0  0  0
  -28.4096  -22.0007   20.2466 C   0  0  0  0  0  0  0  0  0  0  0  0
  -26.9743  -15.5275   16.0925 C   0  0  0  0  0  0  0  0  0  0  0  0
  -24.6750  -14.6044   16.4233 C   0  0  0  0  0  0  0  0  0  0  0  0
  -22.9742  -28.0953   23.8637 C   0  0  0  0  0  0  0  0  0  0  0  0
  -25.1097  -29.0950   26.0913 C   0  0  0  0  0  0  0  0  0  0  0  0
  -28.1775  -28.7185   27.5382 C   0  0  0  0  0  0  0  0  0  0  0  0
  -32.0050  -18.3521   17.6940 C   0  0  0  0  0  0  0  0  0  0  0  0
  -17.9745  -28.6195   22.9770 C   0  0  0  0  0  0  0  0  0  0  0  0
  -23.5423  -25.9302   25.0236 C   0  0  0  0  0  0  0  0  0  0  0  0
  -25.9668  -27.4834   24.3497 C   0  0  0  0  0  0  0  0  0  0  0  0
  -19.0443  -29.4270   23.7076 C   0  0  0  0  0  0  0  0  0  0  0  0
  -31.6778  -15.7807   15.2533 C   0  0  0  0  0  0  0  0  0  0  0  0
  -20.2795  -29.5951   22.8285 C   0  0  0  0  0  0  0  0  0  0  0  0
  -30.3140  -15.1584   15.5581 C   0  0  0  0  0  0  0  0  0  0  0  0
  -31.7048  -21.3938   17.6660 C   0  0  0  0  0  0  0  0  0  0  0  0
  -30.3441  -22.0417   17.3316 C   0  0  0  0  0  0  0  0  0  0  0  0
  -32.4034  -16.2026   16.5289 C   0  0  0  0  0  0  0  0  0  0  0  0
  -30.2640  -16.4641   17.7241 C   0  0  0  0  0  0  0  0  0  0  0  0
  -20.9046  -28.2364   22.4897 C   0  0  1  0  0  0  0  0  0  0  0  0
  -23.5634  -27.4542   25.0882 C   0  0  1  0  0  0  0  0  0  0  0  0
  -29.4703  -16.0737   16.4656 C   0  0  2  0  0  0  0  0  0  0  0  0
  -31.4552  -20.4526   18.8960 C   0  0  1  0  0  0  0  0  0  0  0  0
  -32.6379  -20.4432   19.8551 C   0  0  0  0  0  0  0  0  0  0  0  0
  -29.6554  -29.7081   29.3085 C   0  0  0  0  0  0  0  0  0  0  0  0
  -25.7542  -31.4348   24.2420 C   0  0  0  0  0  0  0  0  0  0  0  0
  -27.8376  -31.8238   25.5747 C   0  0  0  0  0  0  0  0  0  0  0  0
  -25.6040  -32.0317   26.6659 C   0  0  0  0  0  0  0  0  0  0  0  0
  -28.2361  -26.1861   29.0687 C   0  0  0  0  0  0  0  0  0  0  0  0
  -27.2472  -22.4166   21.0993 C   0  0  0  0  0  0  0  0  0  1  0  0
  -26.4744  -29.7391   26.0508 C   0  0  1  0  0  0  0  0  0  0  0  0
  -28.6038  -28.6555   28.9938 C   0  0  2  0  0  0  0  0  0  0  0  0
  -26.4127  -31.2321   25.6212 C   0  0  0  0  0  0  0  0  0  0  0  0
  -28.0263  -14.7126   17.9302 N   0  0  0  0  0  0  0  0  0  0  0  0
  -28.5450  -22.5160   19.0123 N   0  0  0  0  0  0  0  0  0  0  0  0
  -29.6567  -21.9183   18.5993 N   0  0  0  0  0  0  0  0  0  0  0  0
  -28.1327  -15.4438   16.8076 N   0  0  0  0  0  0  0  0  0  0  0  0
  -24.9154  -27.9946   25.2445 N   0  0  0  0  0  0  0  0  0  0  0  0
  -31.5497  -17.0703   17.3439 N   0  0  0  0  0  0  0  0  0  0  0  0
  -26.9050  -16.2241   14.9382 N   0  0  0  0  0  0  0  0  0  0  0  0
  -23.8593  -13.8300   17.2594 N   0  0  0  0  0  0  0  0  0  0  0  0
  -21.6636  -27.7346   23.6151 N   0  0  0  0  0  0  0  0  0  0  0  0
  -27.0686  -29.5195   27.3650 N   0  0  0  0  0  0  0  0  0  0  0  0
  -31.1314  -19.1117   18.4625 N   0  0  0  0  0  0  0  0  0  0  0  0
  -29.1720  -27.3145   29.3095 N   0  3  0  0  0  0  0  0  0  0  0  0
  -24.1923  -15.0880   15.3713 O   0  0  0  0  0  0  0  0  0  0  0  0
  -23.6575  -28.8617   23.1947 O   0  0  0  0  0  0  0  0  0  0  0  0
  -24.2500  -29.5471   26.8518 O   0  0  0  0  0  0  0  0  0  0  0  0
  -28.7712  -28.1202   26.6437 O   0  0  0  0  0  0  0  0  0  0  0  0
  -33.1062  -18.7893   17.3430 O   0  0  0  0  0  0  0  0  0  0  0  0
  -24.7492  -11.1306   22.0508 O   0  0  0  0  0  0  0  0  0  0  0  0
  -27.4843  -23.7315   21.6004 O   0  0  0  0  0  0  0  0  0  1  0  0
  -21.6085   -6.8146   20.6681 F   0  0  0  0  0  0  0  0  0  0  0  0
  -25.4917   -8.5580   22.7385 F   0  0  0  0  0  0  0  0  0  0  0  0
  1  2  1  0  0  0  0
  1  5  2  0  0  0  0
  2  6  2  0  0  0  0
  3  8  2  0  0  0  0
  3 16  1  0  0  0  0
  4  9  1  0  0  0  0
  4 16  2  0  0  0  0
  5 18  1  0  0  0  0
  6 20  1  0  0  0  0
  7 10  2  0  0  0  0
  7 19  1  0  0  0  0
  8 22  1  0  0  0  0
  9 22  2  0  0  0  0
 10 23  1  0  0  0  0
 11 12  2  0  0  0  0
 11 24  1  0  0  0  0
 12 25  1  0  0  0  0
 13 21  1  0  0  0  0
 13 23  2  0  0  0  0
 14 25  2  0  0  0  0
 14 26  1  0  0  0  0
 15 28  2  0  0  0  0
 15 29  1  0  0  0  0
 16 27  1  0  0  0  0
 17 27  1  0  0  0  0
 17 30  2  0  0  0  0
 17 31  1  0  0  0  0
 18 20  2  0  0  0  0
 18 36  1  0  0  0  0
 19 21  2  0  0  0  0
 19 37  1  0  0  0  0
 20 47  1  0  0  0  0
 21 38  1  0  0  0  0
 22 78  1  0  0  0  0
 23 79  1  0  0  0  0
 24 26  2  0  0  0  0
 24 78  1  0  0  0  0
 25 80  1  0  0  0  0
 26 81  1  0  0  0  0
 27 61  2  0  0  0  0
 28 50  1  0  0  0  0
 28 63  1  0  0  0  0
 29 57  1  0  0  0  0
 29 62  2  0  0  0  0
 30 64  1  0  0  0  0
 30 67  1  0  0  0  0
 31 68  1  0  0  0  0
 31 73  2  0  0  0  0
 32 48  1  0  0  0  0
 32 69  1  0  0  0  0
 32 74  2  0  0  0  0
 33 58  1  0  0  0  0
 33 65  1  0  0  0  0
 33 75  2  0  0  0  0
 34 59  1  0  0  0  0
 34 70  1  0  0  0  0
 34 76  2  0  0  0  0
 35 66  1  0  0  0  0
 35 71  1  0  0  0  0
 35 77  2  0  0  0  0
 36 39  1  0  0  0  0
 37 48  1  0  0  0  0
 38 65  1  0  0  0  0
 39 41  1  0  0  0  0
 40 42  1  0  0  0  0
 40 45  1  0  0  0  0
 41 47  1  0  0  0  0
 42 49  1  0  0  0  0
 43 44  1  0  0  0  0
 43 50  1  0  0  0  0
 44 63  1  0  0  0  0
 45 66  1  0  0  0  0
 46 49  1  0  0  0  0
 46 66  1  0  0  0  0
 47 69  1  0  0  0  0
 48 65  1  0  0  0  0
 49 64  1  0  0  0  0
 50 51  1  0  0  0  0
 50 71  1  0  0  0  0
 52 59  1  0  0  0  0
 53 60  1  0  0  0  0
 54 60  1  0  0  0  0
 55 60  1  0  0  0  0
 56 72  1  0  0  0  0
 57 79  1  0  0  0  0
 58 60  1  0  0  0  0
 58 70  1  0  0  0  0
 59 72  1  0  0  0  0
 61 64  1  0  0  0  0
 62 63  1  0  0  0  0
M  CHG  1  72   1
M  ISO  4  35 100  57 101  71 100  79 101
M  END
> <Batch ID>
0186

> <Smiles>
CNC(C)C(=O)NC(C(=O)N1Cc2cc([101O:1][101CH2:1]c3cc4n(n3)CCC4(C)[100NH:0][100C:0](=O)N3CCCC(n4nc(-c5ccc(Oc6ccc(F)cc6F)cc5)c(C(N)=O)c4N)C3)ccc2CC1C(=O)NC1CCCc2ccccc21)C(C)(C)C

> <Shape>
0.208

> <Color>
0.088

> <Negative vol penalty>
0.000

$$$$

  -OEChem-04052323143D

 83 92  0     1  0  0  0  0  0999 V2000
  -24.3891  -32.8092   28.7120 C   0  0  0  0  0  0  0  0  0  0  0  0
  -25.2762  -32.0704   27.9358 C   0  0  0  0  0  0  0  0  0  0  0  0
  -29.7700  -10.1410   17.6511 C   0  0  0  0  0  0  0  0  0  0  0  0
  -30.2359   -9.3188   19.8746 C   0  0  0  0  0  0  0  0  0  0  0  0
  -23.0157  -32.6892   28.5040 C   0  0  0  0  0  0  0  0  0  0  0  0
  -24.7903  -31.2102   26.9517 C   0  0  0  0  0  0  0  0  0  0  0  0
  -27.3831  -29.9626   21.5455 C   0  0  0  0  0  0  0  0  0  0  0  0
  -30.1674   -8.9162   17.1149 C   0  0  0  0  0  0  0  0  0  0  0  0
  -30.6333   -8.0939   19.3384 C   0  0  0  0  0  0  0  0  0  0  0  0
  -28.1754  -28.9023   21.1076 C   0  0  0  0  0  0  0  0  0  0  0  0
  -29.1515   -5.3059   18.1336 C   0  0  0  0  0  0  0  0  0  0  0  0
  -28.6829   -4.1468   18.7521 C   0  0  0  0  0  0  0  0  0  0  0  0
  -26.2162  -27.8153   20.2137 C   0  0  0  0  0  0  0  0  0  0  0  0
  -30.3116  -24.4405   20.3608 C   0  0  0  0  0  0  0  0  0  0  0  0
  -30.9573   -3.4673   19.2020 C   0  0  0  0  0  0  0  0  0  0  0  0
  -29.8043  -10.3423   19.0310 C   0  0  0  0  0  0  0  0  0  0  0  0
  -28.0988  -11.9770   19.9938 C   0  0  0  0  0  0  0  0  0  0  0  0
  -22.5131  -31.8344   27.5104 C   0  0  0  0  0  0  0  0  0  0  0  0
  -25.9975  -29.9521   21.3300 C   0  0  0  0  0  0  0  0  0  0  0  0
  -23.4088  -31.0776   26.7311 C   0  0  0  0  0  0  0  0  0  0  0  0
  -25.4089  -28.8779   20.6475 C   0  0  0  0  0  0  0  0  0  0  0  0
  -30.9495  -23.3367   19.8057 C   0  0  0  0  0  0  0  0  0  0  0  0
  -31.6841  -23.4817   18.6341 C   0  0  0  0  0  0  0  0  0  0  0  0
  -30.5990   -7.8927   17.9586 C   0  0  0  0  0  0  0  0  0  0  0  0
  -27.5916  -27.8270   20.4442 C   0  0  0  0  0  0  0  0  0  0  0  0
  -30.5230   -5.5457   18.0493 C   0  0  0  0  0  0  0  0  0  0  0  0
  -29.5858   -3.2275   19.2863 C   0  0  0  0  0  0  0  0  0  0  0  0
  -31.4259   -4.6264   18.5835 C   0  0  0  0  0  0  0  0  0  0  0  0
  -29.3944  -11.6075   19.5855 C   0  0  0  0  0  0  0  0  0  0  0  0
  -30.4380  -25.6575   19.7107 C   0  0  0  0  0  0  0  0  0  0  0  0
  -31.7489  -24.7416   18.0612 C   0  0  0  0  0  0  0  0  0  0  0  0
  -28.2355  -13.2676   20.4433 C   0  0  0  0  0  0  0  0  0  0  0  0
  -26.8807  -11.2211   19.9690 C   0  0  0  0  0  0  0  0  0  0  0  0
  -23.4348  -29.9560   23.2105 C   0  0  0  0  0  0  0  0  0  0  0  0
  -21.8514  -30.2596   20.3958 C   0  0  0  0  0  0  0  0  0  0  0  0
  -21.8329  -29.7856   17.0162 C   0  0  0  0  0  0  0  0  0  0  0  0
  -30.1464  -18.3663   19.6040 C   0  0  0  0  0  0  0  0  0  0  0  0
  -21.0188  -31.7023   27.3543 C   0  0  0  0  0  0  0  0  0  0  0  0
  -25.1605  -31.1160   21.7849 C   0  0  0  0  0  0  0  0  0  0  0  0
  -23.9288  -28.8281   20.3732 C   0  0  0  0  0  0  0  0  0  0  0  0
  -20.5990  -31.0508   26.0391 C   0  0  0  0  0  0  0  0  0  0  0  0
  -32.3509  -16.0160   21.4010 C   0  0  0  0  0  0  0  0  0  0  0  0
  -21.4342  -29.8029   25.7710 C   0  0  0  0  0  0  0  0  0  0  0  0
  -31.6894  -14.6816   21.0696 C   0  0  0  0  0  0  0  0  0  0  0  0
  -29.4646  -21.4601   20.7783 C   0  0  0  0  0  0  0  0  0  0  0  0
  -32.2305  -17.0167   20.2524 C   0  0  0  0  0  0  0  0  0  0  0  0
  -30.1649  -15.8957   19.4643 C   0  0  0  0  0  0  0  0  0  0  0  0
  -30.8326  -22.0116   20.4829 C   0  0  1  0  0  0  0  0  0  0  0  0
  -22.9212  -30.1526   25.6371 C   0  0  1  0  0  0  0  0  0  0  0  0
  -23.6884  -30.7588   21.9660 C   0  0  1  0  0  0  0  0  0  0  0  0
  -30.2336  -14.8931   20.6264 C   0  0  1  0  0  0  0  0  0  0  0  0
  -30.2987  -20.8361   19.6988 C   0  0  1  0  0  0  0  0  0  0  0  0
  -32.3798  -22.3162   18.0139 C   0  0  0  0  0  0  0  0  0  0  0  0
  -32.5233  -24.9591   16.8023 C   0  0  0  0  0  0  0  0  0  0  0  0
  -20.3844  -30.0984   14.9910 C   0  0  0  0  0  0  0  0  0  0  0  0
  -20.1900  -27.8341   21.2124 C   0  0  0  0  0  0  0  0  0  0  0  0
  -19.4573  -27.6205   18.8279 C   0  0  0  0  0  0  0  0  0  0  0  0
  -18.8880  -29.6728   20.1267 C   0  0  0  0  0  0  0  0  0  0  0  0
  -23.7874  -31.6175   15.7580 C   0  0  0  0  0  0  0  0  0  0  0  0
  -29.7626  -26.8700   20.2808 C   0  0  0  0  0  0  0  0  0  1  0  0
  -21.2756  -29.2985   19.3840 C   0  0  1  0  0  0  0  0  0  0  0  0
  -21.4627  -30.7110   15.8712 C   0  0  2  0  0  0  0  0  0  0  0  0
  -19.9804  -28.6062   19.8945 C   0  0  0  0  0  0  0  0  0  0  0  0
  -30.2883  -12.5845   19.7600 N   0  0  0  0  0  0  0  0  0  0  0  0
  -31.1428  -25.8371   18.5711 N   0  0  0  0  0  0  0  0  0  0  0  0
  -29.5532  -13.5806   20.2829 N   0  0  0  0  0  0  0  0  0  0  0  0
  -23.1518  -29.9869   20.8433 N   0  0  0  0  0  0  0  0  0  0  0  0
  -30.8372  -17.1568   19.8006 N   0  0  0  0  0  0  0  0  0  0  0  0
  -27.3558  -14.1539   20.9562 N   0  0  0  0  0  0  0  0  0  0  0  0
  -26.9180   -9.9099   19.4755 N   0  0  0  0  0  0  0  0  0  0  0  0
  -23.1912  -30.7222   24.3344 N   0  0  0  0  0  0  0  0  0  0  0  0
  -21.1003  -30.0596   18.1517 N   0  0  0  0  0  0  0  0  0  0  0  0
  -30.8694  -19.5256   19.8612 N   0  0  0  0  0  0  0  0  0  0  0  0
  -22.6569  -30.9916   15.0250 N   0  3  0  0  0  0  0  0  0  0  0  0
  -25.7883  -11.7001   20.3573 O   0  0  0  0  0  0  0  0  0  0  0  0
  -23.4570  -28.7320   23.1549 O   0  0  0  0  0  0  0  0  0  0  0  0
  -21.1750  -31.2210   20.7698 O   0  0  0  0  0  0  0  0  0  0  0  0
  -22.6841  -28.9050   16.9124 O   0  0  0  0  0  0  0  0  0  0  0  0
  -28.9720  -18.4123   19.2215 O   0  0  0  0  0  0  0  0  0  0  0  0
  -30.9866   -6.6973   17.4357 O   0  0  0  0  0  0  0  0  0  0  0  0
  -28.3626  -26.7905   20.0163 O   0  0  0  0  0  0  0  0  0  1  0  0
  -29.1356   -2.1152   19.8815 F   0  0  0  0  0  0  0  0  0  0  0  0
  -32.7446   -4.8520   18.5066 F   0  0  0  0  0  0  0  0  0  0  0  0
  1  2  1  0  0  0  0
  1  5  2  0  0  0  0
  2  6  2  0  0  0  0
  3  8  2  0  0  0  0
  3 16  1  0  0  0  0
  4  9  1  0  0  0  0
  4 16  2  0  0  0  0
  5 18  1  0  0  0  0
  6 20  1  0  0  0  0
  7 10  2  0  0  0  0
  7 19  1  0  0  0  0
  8 24  1  0  0  0  0
  9 24  2  0  0  0  0
 10 25  1  0  0  0  0
 11 12  2  0  0  0  0
 11 26  1  0  0  0  0
 12 27  1  0  0  0  0
 13 21  1  0  0  0  0
 13 25  2  0  0  0  0
 14 22  2  0  0  0  0
 14 30  1  0  0  0  0
 15 27  2  0  0  0  0
 15 28  1  0  0  0  0
 16 29  1  0  0  0  0
 17 29  1  0  0  0  0
 17 32  2  0  0  0  0
 17 33  1  0  0  0  0
 18 20  2  0  0  0  0
 18 38  1  0  0  0  0
 19 21  2  0  0  0  0
 19 39  1  0  0  0  0
 20 49  1  0  0  0  0
 21 40  1  0  0  0  0
 22 23  1  0  0  0  0
 22 48  1  0  0  0  0
 23 31  2  0  0  0  0
 23 53  1  0  0  0  0
 24 80  1  0  0  0  0
 25 81  1  0  0  0  0
 26 28  2  0  0  0  0
 26 80  1  0  0  0  0
 27 82  1  0  0  0  0
 28 83  1  0  0  0  0
 29 64  2  0  0  0  0
 30 60  1  0  0  0  0
 30 65  2  0  0  0  0
 31 54  1  0  0  0  0
 31 65  1  0  0  0  0
 32 66  1  0  0  0  0
 32 69  1  0  0  0  0
 33 70  1  0  0  0  0
 33 75  2  0  0  0  0
 34 50  1  0  0  0  0
 34 71  1  0  0  0  0
 34 76  2  0  0  0  0
 35 61  1  0  0  0  0
 35 67  1  0  0  0  0
 35 77  2  0  0  0  0
 36 62  1  0  0  0  0
 36 72  1  0  0  0  0
 36 78  2  0  0  0  0
 37 68  1  0  0  0  0
 37 73  1  0  0  0  0
 37 79  2  0  0  0  0
 38 41  1  0  0  0  0
 39 50  1  0  0  0  0
 40 67  1  0  0  0  0
 41 43  1  0  0  0  0
 42 44  1  0  0  0  0
 42 46  1  0  0  0  0
 43 49  1  0  0  0  0
 44 51  1  0  0  0  0
 45 48  1  0  0  0  0
 45 52  1  0  0  0  0
 46 68  1  0  0  0  0
 47 51  1  0  0  0  0
 47 68  1  0  0  0  0
 48 52  1  0  0  0  0
 49 71  1  0  0  0  0
 50 67  1  0  0  0  0
 51 66  1  0  0  0  0
 52 73  1  0  0  0  0
 55 62  1  0  0  0  0
 56 63  1  0  0  0  0
 57 63  1  0  0  0  0
 58 63  1  0  0  0  0
 59 74  1  0  0  0  0
 60 81  1  0  0  0  0
 61 63  1  0  0  0  0
 61 72  1  0  0  0  0
 62 74  1  0  0  0  0
 64 66  1  0  0  0  0
M  CHG  1  74   1
M  ISO  4  37 100  60 101  73 100  81 101
M  END
> <Batch ID>
0186

> <Smiles>
CNC(C)C(=O)NC(C(=O)N1Cc2cc([101O:1][101CH2:1]c3cc(C4CC4[100NH:0][100C:0](=O)N4CCCC(n5nc(-c6ccc(Oc7ccc(F)cc7F)cc6)c(C(N)=O)c5N)C4)c(C)c(C)n3)ccc2CC1C(=O)NC1CCCc2ccccc21)C(C)(C)C

> <Shape>
0.230

> <Color>
0.105

> <Negative vol penalty>
0.000

$$$$

  -OEChem-04052323143D

 79 88  0     1  0  0  0  0  0999 V2000
  -18.6957  -28.9265   26.1369 C   0  0  0  0  0  0  0  0  0  0  0  0
  -20.0851  -28.8767   26.1860 C   0  0  0  0  0  0  0  0  0  0  0  0
  -26.6065  -15.4895   20.8176 C   0  0  0  0  0  0  0  0  0  0  0  0
  -28.4763  -14.3174   19.8344 C   0  0  0  0  0  0  0  0  0  0  0  0
  -18.0263  -28.5449   24.9749 C   0  0  0  0  0  0  0  0  0  0  0  0
  -20.8059  -28.4443   25.0734 C   0  0  0  0  0  0  0  0  0  0  0  0
  -26.2829  -30.4647   23.2224 C   0  0  0  0  0  0  0  0  0  0  0  0
  -25.9070  -14.2872   20.9209 C   0  0  0  0  0  0  0  0  0  0  0  0
  -27.7769  -13.1150   19.9377 C   0  0  0  0  0  0  0  0  0  0  0  0
  -27.5734  -29.9648   23.3917 C   0  0  0  0  0  0  0  0  0  0  0  0
  -24.1372  -12.2527   18.8830 C   0  0  0  0  0  0  0  0  0  0  0  0
  -22.7988  -12.2465   18.4902 C   0  0  0  0  0  0  0  0  0  0  0  0
  -27.4382  -28.9009   21.2309 C   0  0  0  0  0  0  0  0  0  0  0  0
  -22.1481  -11.5732   20.7174 C   0  0  0  0  0  0  0  0  0  0  0  0
  -27.8911  -15.5047   20.2743 C   0  0  0  0  0  0  0  0  0  0  0  0
  -29.4744  -17.3150   21.1251 C   0  0  0  0  0  0  0  0  0  0  0  0
  -18.7397  -28.1168   23.8442 C   0  0  0  0  0  0  0  0  0  0  0  0
  -25.5551  -30.1769   22.0589 C   0  0  0  0  0  0  0  0  0  0  0  0
  -20.1454  -28.0554   23.8956 C   0  0  0  0  0  0  0  0  0  0  0  0
  -26.1397  -29.4004   21.0482 C   0  0  0  0  0  0  0  0  0  0  0  0
  -26.4923  -13.0999   20.4809 C   0  0  0  0  0  0  0  0  0  0  0  0
  -28.1501  -29.1804   22.3972 C   0  0  0  0  0  0  0  0  0  0  0  0
  -24.4810  -11.9190   20.1931 C   0  0  0  0  0  0  0  0  0  0  0  0
  -21.8043  -11.9068   19.4073 C   0  0  0  0  0  0  0  0  0  0  0  0
  -23.4865  -11.5793   21.1102 C   0  0  0  0  0  0  0  0  0  0  0  0
  -28.6139  -16.7465   20.1668 C   0  0  0  0  0  0  0  0  0  0  0  0
  -29.9055  -18.4847   20.5485 C   0  0  0  0  0  0  0  0  0  0  0  0
  -29.8504  -16.8291   22.4205 C   0  0  0  0  0  0  0  0  0  0  0  0
  -22.8339  -28.6578   21.4335 C   0  0  0  0  0  0  0  0  0  0  0  0
  -23.3790  -29.7334   18.4222 C   0  0  0  0  0  0  0  0  0  0  0  0
  -25.6284  -30.8157   16.0951 C   0  0  0  0  0  0  0  0  0  0  0  0
  -28.6794  -23.1584   17.9017 C   0  0  0  0  0  0  0  0  0  0  0  0
  -17.9701  -27.6693   22.6268 C   0  0  0  0  0  0  0  0  0  0  0  0
  -24.1743  -30.7459   21.8799 C   0  0  0  0  0  0  0  0  0  0  0  0
  -25.4080  -29.0794   19.7715 C   0  0  0  0  0  0  0  0  0  0  0  0
  -18.8246  -27.5796   21.3650 C   0  0  0  0  0  0  0  0  0  0  0  0
  -29.4595  -20.2055   15.8318 C   0  0  0  0  0  0  0  0  0  0  0  0
  -20.1349  -26.8557   21.6581 C   0  0  0  0  0  0  0  0  0  0  0  0
  -29.3238  -19.0841   16.8575 C   0  0  0  0  0  0  0  0  0  0  0  0
  -29.3819  -26.4648   16.1252 C   0  0  0  0  0  0  0  0  0  0  0  0
  -31.0919  -26.8588   22.2203 C   0  0  0  0  0  0  0  0  0  0  0  0
  -28.4776  -21.3462   16.0960 C   0  0  0  0  0  0  0  0  0  0  0  0
  -28.4268  -20.7723   18.5069 C   0  0  0  0  0  0  0  0  0  0  0  0
  -20.9636  -27.6155   22.7010 C   0  0  1  0  0  0  0  0  0  0  0  0
  -23.3305  -29.9629   20.8787 C   0  0  1  0  0  0  0  0  0  0  0  0
  -30.1753  -26.1610   17.3645 C   0  0  2  0  0  0  0  0  0  0  0  0
  -29.4396  -19.6384   18.2857 C   0  0  1  0  0  0  0  0  0  0  0  0
  -28.8292  -25.5150   17.1561 C   0  0  2  0  0  0  0  0  0  0  0  0
  -30.8122  -27.4654   20.8748 C   0  0  2  0  0  0  0  0  0  0  0  0
  -29.7306  -27.4221   21.9188 C   0  0  2  0  0  0  0  0  0  1  0  0
  -25.7805  -31.5869   13.7119 C   0  0  0  0  0  0  0  0  0  0  0  0
  -23.0820  -26.8490   17.4724 C   0  0  0  0  0  0  0  0  0  0  0  0
  -24.1603  -27.5217   15.3153 C   0  0  0  0  0  0  0  0  0  0  0  0
  -21.9926  -28.5502   15.9980 C   0  0  0  0  0  0  0  0  0  0  0  0
  -26.6716  -33.4664   16.8977 C   0  0  0  0  0  0  0  0  0  0  0  0
  -30.3549  -27.2184   18.4318 C   0  0  0  0  0  0  0  0  0  0  0  0
  -24.1114  -29.2026   17.2135 C   0  0  1  0  0  0  0  0  0  0  0  0
  -25.6155  -32.0133   15.1623 C   0  0  2  0  0  0  0  0  0  0  0  0
  -23.3499  -28.0352   16.5246 C   0  0  0  0  0  0  0  0  0  0  0  0
  -28.5036  -17.4937   19.0652 N   0  0  0  0  0  0  0  0  0  0  0  0
  -29.3003  -18.5436   19.3277 N   0  0  0  0  0  0  0  0  0  0  0  0
  -24.0581  -29.6536   19.6462 N   0  0  0  0  0  0  0  0  0  0  0  0
  -28.5597  -21.8197   17.4867 N   0  0  0  0  0  0  0  0  0  0  0  0
  -30.7393  -19.4583   20.9719 N   0  0  0  0  0  0  0  0  0  0  0  0
  -29.3153  -15.6098   22.8581 N   0  0  0  0  0  0  0  0  0  0  0  0
  -21.6230  -28.7511   22.0928 N   0  0  0  0  0  0  0  0  0  0  0  0
  -24.3550  -30.3508   16.3471 N   0  0  0  0  0  0  0  0  0  0  0  0
  -28.7157  -24.1066   16.8857 N   0  0  0  0  0  0  0  0  0  0  0  0
  -30.6894  -26.5560   19.7297 N   0  3  0  0  0  0  0  0  0  0  0  0
  -26.7229  -32.9495   15.5059 N   0  3  0  0  0  0  0  0  0  0  0  0
  -30.6248  -17.4655   23.1747 O   0  0  0  0  0  0  0  0  0  0  0  0
  -23.4992  -27.6411   21.2739 O   0  0  0  0  0  0  0  0  0  0  0  0
  -22.2488  -30.2082   18.2842 O   0  0  0  0  0  0  0  0  0  0  0  0
  -26.6648  -30.3379   16.5513 O   0  0  0  0  0  0  0  0  0  0  0  0
  -28.7436  -23.4877   19.0913 O   0  0  0  0  0  0  0  0  0  0  0  0
  -25.8102  -11.9264   20.5818 O   0  0  0  0  0  0  0  0  0  0  0  0
  -29.4093  -28.6907   22.5601 O   0  0  0  0  0  0  0  0  0  1  0  0
  -20.5190  -11.9024   19.0303 F   0  0  0  0  0  0  0  0  0  0  0  0
  -23.8107  -11.2590   22.3704 F   0  0  0  0  0  0  0  0  0  0  0  0
  1  2  1  0  0  0  0
  1  5  2  0  0  0  0
  2  6  2  0  0  0  0
  3  8  2  0  0  0  0
  3 15  1  0  0  0  0
  4  9  1  0  0  0  0
  4 15  2  0  0  0  0
  5 17  1  0  0  0  0
  6 19  1  0  0  0  0
  7 10  2  0  0  0  0
  7 18  1  0  0  0  0
  8 21  1  0  0  0  0
  9 21  2  0  0  0  0
 10 22  1  0  0  0  0
 11 12  2  0  0  0  0
 11 23  1  0  0  0  0
 12 24  1  0  0  0  0
 13 20  1  0  0  0  0
 13 22  2  0  0  0  0
 14 24  2  0  0  0  0
 14 25  1  0  0  0  0
 15 26  1  0  0  0  0
 16 26  1  0  0  0  0
 16 27  2  0  0  0  0
 16 28  1  0  0  0  0
 17 19  2  0  0  0  0
 17 33  1  0  0  0  0
 18 20  2  0  0  0  0
 18 34  1  0  0  0  0
 19 44  1  0  0  0  0
 20 35  1  0  0  0  0
 21 76  1  0  0  0  0
 22 77  1  0  0  0  0
 23 25  2  0  0  0  0
 23 76  1  0  0  0  0
 24 78  1  0  0  0  0
 25 79  1  0  0  0  0
 26 60  2  0  0  0  0
 27 61  1  0  0  0  0
 27 64  1  0  0  0  0
 28 65  1  0  0  0  0
 28 71  2  0  0  0  0
 29 45  1  0  0  0  0
 29 66  1  0  0  0  0
 29 72  2  0  0  0  0
 30 57  1  0  0  0  0
 30 62  1  0  0  0  0
 30 73  2  0  0  0  0
 31 58  1  0  0  0  0
 31 67  1  0  0  0  0
 31 74  2  0  0  0  0
 32 63  1  0  0  0  0
 32 68  1  0  0  0  0
 32 75  2  0  0  0  0
 33 36  1  0  0  0  0
 34 45  1  0  0  0  0
 35 62  1  0  0  0  0
 36 38  1  0  0  0  0
 37 39  1  0  0  0  0
 37 42  1  0  0  0  0
 38 44  1  0  0  0  0
 39 47  1  0  0  0  0
 40 46  1  0  0  0  0
 40 48  1  0  0  0  0
 41 49  1  0  0  0  0
 41 50  1  0  0  0  0
 42 63  1  0  0  0  0
 43 47  1  0  0  0  0
 43 63  1  0  0  0  0
 44 66  1  0  0  0  0
 45 62  1  0  0  0  0
 46 48  1  0  0  0  0
 46 56  1  0  0  0  0
 47 61  1  0  0  0  0
 48 68  1  0  0  0  0
 49 50  1  0  0  0  0
 49 69  1  0  0  0  0
 50 77  1  0  0  0  0
 51 58  1  0  0  0  0
 52 59  1  0  0  0  0
 53 59  1  0  0  0  0
 54 59  1  0  0  0  0
 55 70  1  0  0  0  0
 56 69  1  0  0  0  0
 57 59  1  0  0  0  0
 57 67  1  0  0  0  0
 58 70  1  0  0  0  0
 60 61  1  0  0  0  0
M  CHG  2  69   1  70   1
M  ISO  4  32 100  50 101  68 100  77 101
M  END
> <Batch ID>
0186

> <Smiles>
CNC(C)C(=O)NC(C(=O)N1Cc2cc([101O:1][101CH:1]3CC3NCC3CC3[100NH:0][100C:0](=O)N3CCCC(n4nc(-c5ccc(Oc6ccc(F)cc6F)cc5)c(C(N)=O)c4N)C3)ccc2CC1C(=O)NC1CCCc2ccccc21)C(C)(C)C

> <Shape>
0.275

> <Color>
0.083

> <Negative vol penalty>
0.000

$$$$

  -OEChem-04052323143D

 84 93  0     1  0  0  0  0  0999 V2000
  -26.9768  -37.5661   22.5915 C   0  0  0  0  0  0  0  0  0  0  0  0
  -27.6278  -36.5733   21.8663 C   0  0  0  0  0  0  0  0  0  0  0  0
  -23.4523  -12.2353   16.2271 C   0  0  0  0  0  0  0  0  0  0  0  0
  -22.6659  -11.0475   18.1784 C   0  0  0  0  0  0  0  0  0  0  0  0
  -26.1448  -37.2188   23.6551 C   0  0  0  0  0  0  0  0  0  0  0  0
  -27.4480  -35.2326   22.2049 C   0  0  0  0  0  0  0  0  0  0  0  0
  -27.1397  -28.7185   19.2404 C   0  0  0  0  0  0  0  0  0  0  0  0
  -22.6366  -11.4451   15.4173 C   0  0  0  0  0  0  0  0  0  0  0  0
  -21.8501  -10.2573   17.3686 C   0  0  0  0  0  0  0  0  0  0  0  0
  -27.7020  -27.4492   19.3685 C   0  0  0  0  0  0  0  0  0  0  0  0
  -19.3681  -11.2963   14.5642 C   0  0  0  0  0  0  0  0  0  0  0  0
  -18.6228  -11.9362   13.5740 C   0  0  0  0  0  0  0  0  0  0  0  0
  -26.1788  -26.9634   21.1749 C   0  0  0  0  0  0  0  0  0  0  0  0
  -19.7423  -10.6232   11.8829 C   0  0  0  0  0  0  0  0  0  0  0  0
  -23.4670  -12.0365   17.6077 C   0  0  0  0  0  0  0  0  0  0  0  0
  -23.9737  -14.0757   19.0542 C   0  0  0  0  0  0  0  0  0  0  0  0
  -25.9471  -35.8727   24.0008 C   0  0  0  0  0  0  0  0  0  0  0  0
  -26.0984  -29.1245   20.0873 C   0  0  0  0  0  0  0  0  0  0  0  0
  -26.6136  -34.8671   23.2750 C   0  0  0  0  0  0  0  0  0  0  0  0
  -25.6033  -28.2374   21.0539 C   0  0  0  0  0  0  0  0  0  0  0  0
  -21.8355  -10.4561   15.9880 C   0  0  0  0  0  0  0  0  0  0  0  0
  -27.2235  -26.5724   20.3378 C   0  0  0  0  0  0  0  0  0  0  0  0
  -20.3006  -10.3199   14.2138 C   0  0  0  0  0  0  0  0  0  0  0  0
  -18.8099  -11.5996   12.2333 C   0  0  0  0  0  0  0  0  0  0  0  0
  -20.4877   -9.9833   12.8732 C   0  0  0  0  0  0  0  0  0  0  0  0
  -24.3098  -12.8521   18.4446 C   0  0  0  0  0  0  0  0  0  0  0  0
  -30.3965  -22.1074   21.1006 C   0  0  0  0  0  0  0  0  0  0  0  0
  -30.0387  -21.1167   20.2227 C   0  0  0  0  0  0  0  0  0  0  0  0
  -25.1081  -14.4428   19.7359 C   0  0  0  0  0  0  0  0  0  0  0  0
  -29.2786  -23.5980   19.8247 C   0  0  0  0  0  0  0  0  0  0  0  0
  -22.7457  -14.8144   19.0084 C   0  0  0  0  0  0  0  0  0  0  0  0
  -25.7304  -31.4306   22.2436 C   0  0  0  0  0  0  0  0  0  0  0  0
  -22.6715  -30.3527   22.3022 C   0  0  0  0  0  0  0  0  0  0  0  0
  -20.4943  -27.7826   21.7530 C   0  0  0  0  0  0  0  0  0  0  0  0
  -30.7188  -15.0587   19.5989 C   0  0  0  0  0  0  0  0  0  0  0  0
  -25.0756  -35.5487   25.1883 C   0  0  0  0  0  0  0  0  0  0  0  0
  -25.4846  -30.4873   19.9186 C   0  0  0  0  0  0  0  0  0  0  0  0
  -24.4734  -28.6175   21.9744 C   0  0  0  0  0  0  0  0  0  0  0  0
  -24.6438  -34.0856   25.2457 C   0  0  0  0  0  0  0  0  0  0  0  0
  -29.3349  -11.8615   20.7547 C   0  0  0  0  0  0  0  0  0  0  0  0
  -25.8351  -33.1671   24.9924 C   0  0  0  0  0  0  0  0  0  0  0  0
  -27.8886  -11.9203   20.2613 C   0  0  0  0  0  0  0  0  0  0  0  0
  -28.7369  -18.1428   19.8763 C   0  0  0  0  0  0  0  0  0  0  0  0
  -30.2812  -12.6425   19.8457 C   0  0  0  0  0  0  0  0  0  0  0  0
  -28.8202  -16.7482   19.2646 C   0  0  0  0  0  0  0  0  0  0  0  0
  -28.4327  -14.0919   19.1005 C   0  0  0  0  0  0  0  0  0  0  0  0
  -31.0276  -17.5069   19.8276 C   0  0  0  0  0  0  0  0  0  0  0  0
  -26.4245  -33.4004   23.5961 C   0  0  1  0  0  0  0  0  0  0  0  0
  -24.7743  -30.9823   21.1747 C   0  0  1  0  0  0  0  0  0  0  0  0
  -27.4406  -13.3750   20.0267 C   0  0  1  0  0  0  0  0  0  0  0  0
  -30.1236  -18.7061   19.5848 C   0  0  2  0  0  0  0  0  0  0  0  0
  -31.2244  -21.8261   22.3088 C   0  0  0  0  0  0  0  0  0  0  0  0
  -18.0622  -27.1898   21.9279 C   0  0  0  0  0  0  0  0  0  0  0  0
  -22.9585  -30.0777   25.3274 C   0  0  0  0  0  0  0  0  0  0  0  0
  -20.9167  -28.6289   25.3194 C   0  0  0  0  0  0  0  0  0  0  0  0
  -20.7625  -31.0024   24.5676 C   0  0  0  0  0  0  0  0  0  0  0  0
  -20.2897  -27.2748   18.8446 C   0  0  0  0  0  0  0  0  0  0  0  0
  -28.8325  -24.9970   19.5729 C   0  0  0  0  0  0  0  0  0  1  0  0
  -21.9212  -29.3076   23.0920 C   0  0  1  0  0  0  0  0  0  0  0  0
  -19.1624  -27.7285   21.0268 C   0  0  2  0  0  0  0  0  0  0  0  0
  -21.6623  -29.7474   24.5607 C   0  0  0  0  0  0  0  0  0  0  0  0
  -25.5600  -12.4676   18.7150 N   0  0  0  0  0  0  0  0  0  0  0  0
  -30.0214  -23.3829   20.9207 N   0  0  0  0  0  0  0  0  0  0  0  0
  -29.2913  -21.3931   19.1387 N   0  0  0  0  0  0  0  0  0  0  0  0
  -28.8977  -22.6664   18.9287 N   0  0  0  0  0  0  0  0  0  0  0  0
  -26.0195  -13.4554   19.5020 N   0  0  0  0  0  0  0  0  0  0  0  0
  -23.9107  -29.9632   21.7745 N   0  0  0  0  0  0  0  0  0  0  0  0
  -29.7970  -14.0066   19.6323 N   0  0  0  0  0  0  0  0  0  0  0  0
  -30.2188  -16.3513   19.4467 N   0  0  0  0  0  0  0  0  0  0  0  0
  -25.4051  -15.5107   20.5065 N   0  0  0  0  0  0  0  0  0  0  0  0
  -21.6803  -14.2938   18.2613 N   0  0  0  0  0  0  0  0  0  0  0  0
  -30.4493  -19.8099   20.4487 N   0  0  0  0  0  0  0  0  0  0  0  0
  -25.6044  -32.7628   22.5884 N   0  0  0  0  0  0  0  0  0  0  0  0
  -20.7098  -29.0145   22.3337 N   0  0  0  0  0  0  0  0  0  0  0  0
  -19.2613  -26.8484   19.8282 N   0  3  0  0  0  0  0  0  0  0  0  0
  -22.6030  -15.9120   19.5988 O   0  0  0  0  0  0  0  0  0  0  0  0
  -26.5226  -30.6270   22.7214 O   0  0  0  0  0  0  0  0  0  0  0  0
  -22.1731  -31.4711   22.1527 O   0  0  0  0  0  0  0  0  0  0  0  0
  -21.2648  -26.8264   21.8036 O   0  0  0  0  0  0  0  0  0  0  0  0
  -31.9316  -14.8574   19.7459 O   0  0  0  0  0  0  0  0  0  0  0  0
  -21.0392   -9.6850   15.1982 O   0  0  0  0  0  0  0  0  0  0  0  0
  -27.7746  -25.3248   20.4662 O   0  0  0  0  0  0  0  0  0  1  0  0
  -18.0930  -12.2131   11.2826 F   0  0  0  0  0  0  0  0  0  0  0  0
  -21.3812   -9.0452   12.5305 F   0  0  0  0  0  0  0  0  0  0  0  0
  1  2  1  0  0  0  0
  1  5  2  0  0  0  0
  2  6  2  0  0  0  0
  3  8  2  0  0  0  0
  3 15  1  0  0  0  0
  4  9  1  0  0  0  0
  4 15  2  0  0  0  0
  5 17  1  0  0  0  0
  6 19  1  0  0  0  0
  7 10  2  0  0  0  0
  7 18  1  0  0  0  0
  8 21  1  0  0  0  0
  9 21  2  0  0  0  0
 10 22  1  0  0  0  0
 11 12  2  0  0  0  0
 11 23  1  0  0  0  0
 12 24  1  0  0  0  0
 13 20  1  0  0  0  0
 13 22  2  0  0  0  0
 14 24  2  0  0  0  0
 14 25  1  0  0  0  0
 15 26  1  0  0  0  0
 16 26  1  0  0  0  0
 16 29  2  0  0  0  0
 16 31  1  0  0  0  0
 17 19  2  0  0  0  0
 17 36  1  0  0  0  0
 18 20  2  0  0  0  0
 18 37  1  0  0  0  0
 19 48  1  0  0  0  0
 20 38  1  0  0  0  0
 21 81  1  0  0  0  0
 22 82  1  0  0  0  0
 23 25  2  0  0  0  0
 23 81  1  0  0  0  0
 24 83  1  0  0  0  0
 25 84  1  0  0  0  0
 26 62  2  0  0  0  0
 27 28  2  0  0  0  0
 27 52  1  0  0  0  0
 27 63  1  0  0  0  0
 28 64  1  0  0  0  0
 28 72  1  0  0  0  0
 29 66  1  0  0  0  0
 29 70  1  0  0  0  0
 30 58  1  0  0  0  0
 30 63  2  0  0  0  0
 30 65  1  0  0  0  0
 31 71  1  0  0  0  0
 31 76  2  0  0  0  0
 32 49  1  0  0  0  0
 32 73  1  0  0  0  0
 32 77  2  0  0  0  0
 33 59  1  0  0  0  0
 33 67  1  0  0  0  0
 33 78  2  0  0  0  0
 34 60  1  0  0  0  0
 34 74  1  0  0  0  0
 34 79  2  0  0  0  0
 35 68  1  0  0  0  0
 35 69  1  0  0  0  0
 35 80  2  0  0  0  0
 36 39  1  0  0  0  0
 37 49  1  0  0  0  0
 38 67  1  0  0  0  0
 39 41  1  0  0  0  0
 40 42  1  0  0  0  0
 40 44  1  0  0  0  0
 41 48  1  0  0  0  0
 42 50  1  0  0  0  0
 43 45  1  0  0  0  0
 43 51  1  0  0  0  0
 44 68  1  0  0  0  0
 45 69  1  0  0  0  0
 46 50  1  0  0  0  0
 46 68  1  0  0  0  0
 47 51  1  0  0  0  0
 47 69  1  0  0  0  0
 48 73  1  0  0  0  0
 49 67  1  0  0  0  0
 50 66  1  0  0  0  0
 51 72  1  0  0  0  0
 53 60  1  0  0  0  0
 54 61  1  0  0  0  0
 55 61  1  0  0  0  0
 56 61  1  0  0  0  0
 57 75  1  0  0  0  0
 58 82  1  0  0  0  0
 59 61  1  0  0  0  0
 59 74  1  0  0  0  0
 60 75  1  0  0  0  0
 62 66  1  0  0  0  0
 64 65  2  0  0  0  0
M  CHG  1  75   1
M  ISO  4  35 100  58 101  69 100  82 101
M  END
> <Batch ID>
0186

> <Smiles>
CNC(C)C(=O)NC(C(=O)N1Cc2cc([101O:1][101CH2:1]c3nnc(NC4CC[100N:0]([100C:0](=O)N5CCCC(n6nc(-c7ccc(Oc8ccc(F)cc8F)cc7)c(C(N)=O)c6N)C5)C4)c(C)n3)ccc2CC1C(=O)NC1CCCc2ccccc21)C(C)(C)C

> <Shape>
0.295

> <Color>
0.129

> <Negative vol penalty>
0.000

$$$$

  -OEChem-04052323143D

 79 87  0     1  0  0  0  0  0999 V2000
  -25.6177  -29.0770   20.7498 C   0  0  0  0  0  0  0  0  0  0  0  0
  -25.2173  -27.8216   20.3038 C   0  0  0  0  0  0  0  0  0  0  0  0
  -22.9452  -23.5990   21.2402 C   0  0  0  0  0  0  0  0  0  0  0  0
  -21.8435  -23.5554   23.3899 C   0  0  0  0  0  0  0  0  0  0  0  0
  -26.9593  -29.4481   20.6717 C   0  0  0  0  0  0  0  0  0  0  0  0
  -26.1584  -26.9368   19.7783 C   0  0  0  0  0  0  0  0  0  0  0  0
  -26.1726  -20.8355   20.3069 C   0  0  0  0  0  0  0  0  0  0  0  0
  -22.6063  -24.9441   21.0937 C   0  0  0  0  0  0  0  0  0  0  0  0
  -21.5046  -24.9005   23.2435 C   0  0  0  0  0  0  0  0  0  0  0  0
  -25.7556  -19.8187   19.4490 C   0  0  0  0  0  0  0  0  0  0  0  0
  -19.1841  -26.7192   21.5887 C   0  0  0  0  0  0  0  0  0  0  0  0
  -17.8802  -27.0975   21.9083 C   0  0  0  0  0  0  0  0  0  0  0  0
  -28.0184  -19.5730   18.6500 C   0  0  0  0  0  0  0  0  0  0  0  0
  -18.7307  -28.6045   23.5944 C   0  0  0  0  0  0  0  0  0  0  0  0
  -22.5637  -22.9046   22.3882 C   0  0  0  0  0  0  0  0  0  0  0  0
  -24.0800  -20.9909   23.1274 C   0  0  0  0  0  0  0  0  0  0  0  0
  -27.9188  -28.5639   20.1539 C   0  0  0  0  0  0  0  0  0  0  0  0
  -27.5160  -21.2368   20.3349 C   0  0  0  0  0  0  0  0  0  0  0  0
  -27.5139  -27.2970   19.6919 C   0  0  0  0  0  0  0  0  0  0  0  0
  -28.4504  -20.5933   19.5110 C   0  0  0  0  0  0  0  0  0  0  0  0
  -21.8861  -25.5949   22.0954 C   0  0  0  0  0  0  0  0  0  0  0  0
  -26.6780  -19.1892   18.6183 C   0  0  0  0  0  0  0  0  0  0  0  0
  -20.2614  -27.2835   22.2720 C   0  0  0  0  0  0  0  0  0  0  0  0
  -17.6534  -28.0402   22.9111 C   0  0  0  0  0  0  0  0  0  0  0  0
  -20.0346  -28.2262   23.2748 C   0  0  0  0  0  0  0  0  0  0  0  0
  -22.9130  -21.5149   22.5398 C   0  0  0  0  0  0  0  0  0  0  0  0
  -23.9338  -19.6290   23.0258 C   0  0  0  0  0  0  0  0  0  0  0  0
  -24.3793  -15.7876   18.5719 C   0  0  0  0  0  0  0  0  0  0  0  0
  -25.1963  -21.6741   23.7128 C   0  0  0  0  0  0  0  0  0  0  0  0
  -29.0624  -23.9422   19.7081 C   0  0  0  0  0  0  0  0  0  0  0  0
  -31.6160  -22.2863   20.8304 C   0  0  0  0  0  0  0  0  0  0  0  0
  -32.9274  -18.9395   20.5198 C   0  0  0  0  0  0  0  0  0  0  0  0
  -22.5703  -15.0893   20.3231 C   0  0  0  0  0  0  0  0  0  0  0  0
  -29.3499  -29.0276   20.0458 C   0  0  0  0  0  0  0  0  0  0  0  0
  -27.9547  -22.3169   21.2853 C   0  0  0  0  0  0  0  0  0  0  0  0
  -29.9079  -20.9731   19.5178 C   0  0  0  0  0  0  0  0  0  0  0  0
  -30.3434  -27.8904   19.8220 C   0  0  0  0  0  0  0  0  0  0  0  0
  -19.9352  -16.8192   21.7403 C   0  0  0  0  0  0  0  0  0  0  0  0
  -29.8391  -26.9473   18.7343 C   0  0  0  0  0  0  0  0  0  0  0  0
  -20.5597  -18.1592   22.1309 C   0  0  0  0  0  0  0  0  0  0  0  0
  -20.4422  -16.3542   20.3794 C   0  0  0  0  0  0  0  0  0  0  0  0
  -22.5640  -17.5887   20.6755 C   0  0  0  0  0  0  0  0  0  0  0  0
  -24.8316  -13.9965   19.9765 C   0  0  0  0  0  0  0  0  0  0  0  0
  -28.5089  -26.3001   19.1384 C   0  0  1  0  0  0  0  0  0  0  0  0
  -29.2528  -22.9961   20.8598 C   0  0  1  0  0  0  0  0  0  0  0  0
  -22.0961  -18.0976   22.0537 C   0  0  1  0  0  0  0  0  0  0  0  0
  -26.1292  -14.4030   19.2466 C   0  0  2  0  0  0  0  0  0  0  0  0
  -27.1731  -14.9484   20.2110 C   0  0  0  0  0  0  0  0  0  0  0  0
  -34.3626  -17.5981   22.0813 C   0  0  0  0  0  0  0  0  0  0  0  0
  -33.9340  -23.3768   19.1728 C   0  0  0  0  0  0  0  0  0  0  0  0
  -35.0442  -21.1426   19.3832 C   0  0  0  0  0  0  0  0  0  0  0  0
  -34.5825  -22.5011   21.4238 C   0  0  0  0  0  0  0  0  0  0  0  0
  -30.9837  -16.7083   20.5755 C   0  0  0  0  0  0  0  0  0  0  0  0
  -26.4991  -15.8854   17.1616 C   0  0  0  0  0  0  0  0  0  0  0  0
  -27.2248  -17.1824   17.4652 C   0  0  0  0  0  0  0  0  0  1  0  0
  -32.6613  -21.3872   20.2156 C   0  0  1  0  0  0  0  0  0  0  0  0
  -32.9472  -17.8678   21.5948 C   0  0  2  0  0  0  0  0  0  0  0  0
  -34.0294  -22.1041   20.0378 C   0  0  0  0  0  0  0  0  0  0  0  0
  -22.0865  -20.5635   22.0975 N   0  0  0  0  0  0  0  0  0  0  0  0
  -22.7350  -19.4279   22.4073 N   0  0  0  0  0  0  0  0  0  0  0  0
  -23.8485  -15.0523   19.6585 N   0  0  0  0  0  0  0  0  0  0  0  0
  -25.7036  -15.4419   18.2977 N   0  0  0  0  0  0  0  0  0  0  0  0
  -30.2866  -22.0392   20.4599 N   0  0  0  0  0  0  0  0  0  0  0  0
  -21.9033  -16.3193   20.3490 N   0  0  0  0  0  0  0  0  0  0  0  0
  -24.7151  -18.5958   23.4060 N   0  0  0  0  0  0  0  0  0  0  0  0
  -25.1853  -23.0754   23.7348 N   0  0  0  0  0  0  0  0  0  0  0  0
  -28.7348  -25.2302   20.0864 N   0  0  0  0  0  0  0  0  0  0  0  0
  -32.7165  -20.1936   21.0527 N   0  0  0  0  0  0  0  0  0  0  0  0
  -23.6603  -16.7053   17.8360 N   0  3  0  0  0  0  0  0  0  0  0  0
  -32.3810  -16.5943   21.0671 N   0  3  0  0  0  0  0  0  0  0  0  0
  -26.1822  -21.0604   24.1872 O   0  0  0  0  0  0  0  0  0  0  0  0
  -29.2039  -23.5342   18.5613 O   0  0  0  0  0  0  0  0  0  0  0  0
  -31.9656  -23.1706   21.6162 O   0  0  0  0  0  0  0  0  0  0  0  0
  -33.0870  -18.6896   19.3271 O   0  0  0  0  0  0  0  0  0  0  0  0
  -22.1158  -14.0684   20.8381 O   0  0  0  0  0  0  0  0  0  0  0  0
  -21.5554  -26.9075   21.9530 O   0  0  0  0  0  0  0  0  0  0  0  0
  -26.2706  -18.1898   17.7735 O   0  0  0  0  0  0  0  0  0  1  0  0
  -16.4012  -28.4045   23.2169 F   0  0  0  0  0  0  0  0  0  0  0  0
  -21.0656  -28.7726   23.9339 F   0  0  0  0  0  0  0  0  0  0  0  0
  1  2  1  0  0  0  0
  1  5  2  0  0  0  0
  2  6  2  0  0  0  0
  3  8  2  0  0  0  0
  3 15  1  0  0  0  0
  4  9  1  0  0  0  0
  4 15  2  0  0  0  0
  5 17  1  0  0  0  0
  6 19  1  0  0  0  0
  7 10  2  0  0  0  0
  7 18  1  0  0  0  0
  8 21  1  0  0  0  0
  9 21  2  0  0  0  0
 10 22  1  0  0  0  0
 11 12  2  0  0  0  0
 11 23  1  0  0  0  0
 12 24  1  0  0  0  0
 13 20  1  0  0  0  0
 13 22  2  0  0  0  0
 14 24  2  0  0  0  0
 14 25  1  0  0  0  0
 15 26  1  0  0  0  0
 16 26  1  0  0  0  0
 16 27  2  0  0  0  0
 16 29  1  0  0  0  0
 17 19  2  0  0  0  0
 17 34  1  0  0  0  0
 18 20  2  0  0  0  0
 18 35  1  0  0  0  0
 19 44  1  0  0  0  0
 20 36  1  0  0  0  0
 21 76  1  0  0  0  0
 22 77  1  0  0  0  0
 23 25  2  0  0  0  0
 23 76  1  0  0  0  0
 24 78  1  0  0  0  0
 25 79  1  0  0  0  0
 26 59  2  0  0  0  0
 27 60  1  0  0  0  0
 27 65  1  0  0  0  0
 28 61  1  0  0  0  0
 28 62  1  0  0  0  0
 28 69  2  0  0  0  0
 29 66  1  0  0  0  0
 29 71  2  0  0  0  0
 30 45  1  0  0  0  0
 30 67  1  0  0  0  0
 30 72  2  0  0  0  0
 31 56  1  0  0  0  0
 31 63  1  0  0  0  0
 31 73  2  0  0  0  0
 32 57  1  0  0  0  0
 32 68  1  0  0  0  0
 32 74  2  0  0  0  0
 33 61  1  0  0  0  0
 33 64  1  0  0  0  0
 33 75  2  0  0  0  0
 34 37  1  0  0  0  0
 35 45  1  0  0  0  0
 36 63  1  0  0  0  0
 37 39  1  0  0  0  0
 38 40  1  0  0  0  0
 38 41  1  0  0  0  0
 39 44  1  0  0  0  0
 40 46  1  0  0  0  0
 41 64  1  0  0  0  0
 42 46  1  0  0  0  0
 42 64  1  0  0  0  0
 43 47  1  0  0  0  0
 43 61  1  0  0  0  0
 44 67  1  0  0  0  0
 45 63  1  0  0  0  0
 46 60  1  0  0  0  0
 47 48  1  0  0  0  0
 47 62  1  0  0  0  0
 49 57  1  0  0  0  0
 50 58  1  0  0  0  0
 51 58  1  0  0  0  0
 52 58  1  0  0  0  0
 53 70  1  0  0  0  0
 54 55  1  0  0  0  0
 54 62  1  0  0  0  0
 55 77  1  0  0  0  0
 56 58  1  0  0  0  0
 56 68  1  0  0  0  0
 57 70  1  0  0  0  0
 59 60  1  0  0  0  0
M  CHG  2  69   1  70   1
M  ISO  4  33 100  55 101  61 100  77 101
M  END
> <Batch ID>
0186

> <Smiles>
CNC(C)C(=O)NC(C(=O)N1Cc2cc([101O:1][101CH2:1]CN3C(=N)[100N:0]([100C:0](=O)N4CCCC(n5nc(-c6ccc(Oc7ccc(F)cc7F)cc6)c(C(N)=O)c5N)C4)CC3C)ccc2CC1C(=O)NC1CCCc2ccccc21)C(C)(C)C

> <Shape>
0.191

> <Color>
0.058

> <Negative vol penalty>
0.000

$$$$

  -OEChem-04052323143D

 83 92  0     1  0  0  0  0  0999 V2000
  -26.9803  -17.9817   26.8537 C   0  0  0  0  0  0  0  0  0  0  0  0
  -27.2308  -19.2087   26.2478 C   0  0  0  0  0  0  0  0  0  0  0  0
  -24.1011  -13.0431   21.1818 C   0  0  0  0  0  0  0  0  0  0  0  0
  -26.2527  -12.4933   20.2303 C   0  0  0  0  0  0  0  0  0  0  0  0
  -25.8487  -17.2485   26.4992 C   0  0  0  0  0  0  0  0  0  0  0  0
  -26.3502  -19.7027   25.2860 C   0  0  0  0  0  0  0  0  0  0  0  0
  -25.2991  -24.6114   25.9530 C   0  0  0  0  0  0  0  0  0  0  0  0
  -23.6323  -11.7701   20.8573 C   0  0  0  0  0  0  0  0  0  0  0  0
  -25.7839  -11.2202   19.9058 C   0  0  0  0  0  0  0  0  0  0  0  0
  -26.2602  -25.5308   25.5349 C   0  0  0  0  0  0  0  0  0  0  0  0
  -21.9807   -8.5417   20.6037 C   0  0  0  0  0  0  0  0  0  0  0  0
  -21.2514   -7.8527   21.5727 C   0  0  0  0  0  0  0  0  0  0  0  0
  -25.0027  -25.9165   23.5127 C   0  0  0  0  0  0  0  0  0  0  0  0
  -28.0820  -25.8500   22.1166 C   0  0  0  0  0  0  0  0  0  0  0  0
  -23.1488   -7.9438   23.0656 C   0  0  0  0  0  0  0  0  0  0  0  0
  -25.4113  -13.4047   20.8683 C   0  0  0  0  0  0  0  0  0  0  0  0
  -26.5259  -15.1150   22.3980 C   0  0  0  0  0  0  0  0  0  0  0  0
  -24.9487  -17.7382   25.5396 C   0  0  0  0  0  0  0  0  0  0  0  0
  -24.1864  -24.3290   25.1477 C   0  0  0  0  0  0  0  0  0  0  0  0
  -25.2061  -18.9747   24.9173 C   0  0  0  0  0  0  0  0  0  0  0  0
  -24.0277  -24.9949   23.9240 C   0  0  0  0  0  0  0  0  0  0  0  0
  -24.4737  -10.8587   20.2194 C   0  0  0  0  0  0  0  0  0  0  0  0
  -26.1136  -26.1814   24.3133 C   0  0  0  0  0  0  0  0  0  0  0  0
  -23.2941   -8.9317   20.8656 C   0  0  0  0  0  0  0  0  0  0  0  0
  -27.4815  -27.0039   22.5885 C   0  0  0  0  0  0  0  0  0  1  0  0
  -21.8354   -7.5538   22.8037 C   0  0  0  0  0  0  0  0  0  0  0  0
  -23.8781   -8.6328   22.0965 C   0  0  0  0  0  0  0  0  0  0  0  0
  -25.8960  -14.7197   21.2027 C   0  0  0  0  0  0  0  0  0  0  0  0
  -27.3318  -28.0594   21.7117 C   0  0  0  0  0  0  0  0  0  0  0  0
  -28.4931  -25.8280   20.7991 C   0  0  0  0  0  0  0  0  0  0  0  0
  -26.7901  -16.4512   22.2213 C   0  0  0  0  0  0  0  0  0  0  0  0
  -26.8438  -14.3434   23.5639 C   0  0  0  0  0  0  0  0  0  0  0  0
  -23.0679  -21.7306   23.6983 C   0  0  0  0  0  0  0  0  0  0  0  0
  -20.5581  -23.6681   23.0131 C   0  0  0  0  0  0  0  0  0  0  0  0
  -19.3816  -26.8426   22.5833 C   0  0  0  0  0  0  0  0  0  0  0  0
  -28.6993  -20.5560   19.1605 C   0  0  0  0  0  0  0  0  0  0  0  0
  -23.7640  -16.8879   25.1547 C   0  0  0  0  0  0  0  0  0  0  0  0
  -23.1449  -23.3544   25.6252 C   0  0  0  0  0  0  0  0  0  0  0  0
  -22.8409  -24.7423   23.0317 C   0  0  0  0  0  0  0  0  0  0  0  0
  -22.6830  -17.6559   24.3986 C   0  0  0  0  0  0  0  0  0  0  0  0
  -25.2278  -19.6742   18.6495 C   0  0  0  0  0  0  0  0  0  0  0  0
  -23.3054  -18.5109   23.2993 C   0  0  0  0  0  0  0  0  0  0  0  0
  -25.1476  -18.3298   19.3746 C   0  0  0  0  0  0  0  0  0  0  0  0
  -30.1591  -24.7979   18.0909 C   0  0  0  0  0  0  0  0  0  0  0  0
  -30.2223  -23.4124   17.4127 C   0  0  0  0  0  0  0  0  0  0  0  0
  -26.5624  -19.8352   17.9271 C   0  0  0  0  0  0  0  0  0  0  0  0
  -27.6800  -18.3290   19.5242 C   0  0  0  0  0  0  0  0  0  0  0  0
  -24.2614  -19.5556   23.8877 C   0  0  1  0  0  0  0  0  0  0  0  0
  -22.3154  -22.7624   24.4900 C   0  0  1  0  0  0  0  0  0  0  0  0
  -26.3642  -18.1164   20.2944 C   0  0  2  0  0  0  0  0  0  0  0  0
  -29.0157  -24.2336   18.9618 C   0  0  1  0  0  0  0  0  0  0  0  0
  -29.6185  -22.8286   18.7131 C   0  0  1  0  0  0  0  0  0  0  0  0
  -26.6930  -29.3323   22.1546 C   0  0  0  0  0  0  0  0  0  0  0  0
  -17.2969  -28.1074   21.9903 C   0  0  0  0  0  0  0  0  0  0  0  0
  -20.9379  -22.9143   20.0809 C   0  0  0  0  0  0  0  0  0  0  0  0
  -19.5103  -24.8764   19.4639 C   0  0  0  0  0  0  0  0  0  0  0  0
  -18.5543  -23.0212   20.8303 C   0  0  0  0  0  0  0  0  0  0  0  0
  -19.3461  -28.2373   25.1934 C   0  0  0  0  0  0  0  0  0  0  0  0
  -20.2121  -24.6113   21.8863 C   0  0  1  0  0  0  0  0  0  0  0  0
  -18.1435  -27.5391   23.1186 C   0  0  2  0  0  0  0  0  0  0  0  0
  -19.8271  -23.8593   20.5811 C   0  0  0  0  0  0  0  0  0  0  0  0
  -25.7677  -15.7236   20.3311 N   0  0  0  0  0  0  0  0  0  0  0  0
  -27.7438  -28.0101   20.4272 N   0  0  0  0  0  0  0  0  0  0  0  0
  -28.3340  -26.8761   19.9634 N   0  0  0  0  0  0  0  0  0  0  0  0
  -26.3205  -16.7630   20.9793 N   0  0  0  0  0  0  0  0  0  0  0  0
  -21.8530  -23.7761   23.5397 N   0  0  0  0  0  0  0  0  0  0  0  0
  -27.6790  -19.6387   18.8629 N   0  0  0  0  0  0  0  0  0  0  0  0
  -27.3760  -17.3782   23.0086 N   0  0  0  0  0  0  0  0  0  0  0  0
  -26.5023  -12.9842   23.5790 N   0  0  0  0  0  0  0  0  0  0  0  0
  -29.1069  -24.6485   20.3169 N   0  0  0  0  0  0  0  0  0  0  0  0
  -23.5169  -20.6618   24.4503 N   0  0  0  0  0  0  0  0  0  0  0  0
  -19.1685  -25.4930   22.3980 N   0  0  0  0  0  0  0  0  0  0  0  0
  -28.6338  -21.7781   18.4997 N   0  0  0  0  0  0  0  0  0  0  0  0
  -18.5292  -28.6569   24.0256 N   0  3  0  0  0  0  0  0  0  0  0  0
  -27.3990  -14.8481   24.5691 O   0  0  0  0  0  0  0  0  0  0  0  0
  -23.2279  -21.8914   22.4940 O   0  0  0  0  0  0  0  0  0  0  0  0
  -19.7083  -22.8699   23.4161 O   0  0  0  0  0  0  0  0  0  0  0  0
  -20.4315  -27.4371   22.3493 O   0  0  0  0  0  0  0  0  0  0  0  0
  -29.6066  -20.3123   19.9636 O   0  0  0  0  0  0  0  0  0  0  0  0
  -24.0166   -9.6163   19.9028 O   0  0  0  0  0  0  0  0  0  0  0  0
  -27.0504  -27.0788   23.9025 O   0  0  0  0  0  0  0  0  0  1  0  0
  -21.1344   -6.8935   23.7347 F   0  0  0  0  0  0  0  0  0  0  0  0
  -25.1391   -9.0059   22.3543 F   0  0  0  0  0  0  0  0  0  0  0  0
  1  2  1  0  0  0  0
  1  5  2  0  0  0  0
  2  6  2  0  0  0  0
  3  8  2  0  0  0  0
  3 16  1  0  0  0  0
  4  9  1  0  0  0  0
  4 16  2  0  0  0  0
  5 18  1  0  0  0  0
  6 20  1  0  0  0  0
  7 10  2  0  0  0  0
  7 19  1  0  0  0  0
  8 22  1  0  0  0  0
  9 22  2  0  0  0  0
 10 23  1  0  0  0  0
 11 12  2  0  0  0  0
 11 24  1  0  0  0  0
 12 26  1  0  0  0  0
 13 21  1  0  0  0  0
 13 23  2  0  0  0  0
 14 25  1  0  0  0  0
 14 30  2  0  0  0  0
 15 26  2  0  0  0  0
 15 27  1  0  0  0  0
 16 28  1  0  0  0  0
 17 28  1  0  0  0  0
 17 31  2  0  0  0  0
 17 32  1  0  0  0  0
 18 20  2  0  0  0  0
 18 37  1  0  0  0  0
 19 21  2  0  0  0  0
 19 38  1  0  0  0  0
 20 48  1  0  0  0  0
 21 39  1  0  0  0  0
 22 80  1  0  0  0  0
 23 81  1  0  0  0  0
 24 27  2  0  0  0  0
 24 80  1  0  0  0  0
 25 29  2  0  0  0  0
 25 81  1  0  0  0  0
 26 82  1  0  0  0  0
 27 83  1  0  0  0  0
 28 62  2  0  0  0  0
 29 53  1  0  0  0  0
 29 63  1  0  0  0  0
 30 64  1  0  0  0  0
 30 70  1  0  0  0  0
 31 65  1  0  0  0  0
 31 68  1  0  0  0  0
 32 69  1  0  0  0  0
 32 75  2  0  0  0  0
 33 49  1  0  0  0  0
 33 71  1  0  0  0  0
 33 76  2  0  0  0  0
 34 59  1  0  0  0  0
 34 66  1  0  0  0  0
 34 77  2  0  0  0  0
 35 60  1  0  0  0  0
 35 72  1  0  0  0  0
 35 78  2  0  0  0  0
 36 67  1  0  0  0  0
 36 73  1  0  0  0  0
 36 79  2  0  0  0  0
 37 40  1  0  0  0  0
 38 49  1  0  0  0  0
 39 66  1  0  0  0  0
 40 42  1  0  0  0  0
 41 43  1  0  0  0  0
 41 46  1  0  0  0  0
 42 48  1  0  0  0  0
 43 50  1  0  0  0  0
 44 45  1  0  0  0  0
 44 51  1  0  0  0  0
 45 52  1  0  0  0  0
 46 67  1  0  0  0  0
 47 50  1  0  0  0  0
 47 67  1  0  0  0  0
 48 71  1  0  0  0  0
 49 66  1  0  0  0  0
 50 65  1  0  0  0  0
 51 52  1  0  0  0  0
 51 70  1  0  0  0  0
 52 73  1  0  0  0  0
 54 60  1  0  0  0  0
 55 61  1  0  0  0  0
 56 61  1  0  0  0  0
 57 61  1  0  0  0  0
 58 74  1  0  0  0  0
 59 61  1  0  0  0  0
 59 72  1  0  0  0  0
 60 74  1  0  0  0  0
 62 65  1  0  0  0  0
 63 64  2  0  0  0  0
M  CHG  1  74   1
M  ISO  4  25 101  36 100  73 100  81 101
M  END
> <Batch ID>
0186

> <Smiles>
CNC(C)C(=O)NC(C(=O)N1Cc2cc([101O:1][101c:1]3cc(NC4CCC4[100NH:0][100C:0](=O)N4CCCC(n5nc(-c6ccc(Oc7ccc(F)cc7F)cc6)c(C(N)=O)c5N)C4)nnc3C)ccc2CC1C(=O)NC1CCCc2ccccc21)C(C)(C)C

> <Shape>
0.196

> <Color>
0.065

> <Negative vol penalty>
0.000

$$$$

  -OEChem-04052323143D

 81 89  0     1  0  0  0  0  0999 V2000
  -27.9880  -36.7969   22.5938 C   0  0  0  0  0  0  0  0  0  0  0  0
  -28.3797  -35.6052   21.9923 C   0  0  0  0  0  0  0  0  0  0  0  0
  -26.0293  -14.7710   21.7167 C   0  0  0  0  0  0  0  0  0  0  0  0
  -25.9452  -16.1227   19.7160 C   0  0  0  0  0  0  0  0  0  0  0  0
  -27.1172  -36.7736   23.6824 C   0  0  0  0  0  0  0  0  0  0  0  0
  -27.9016  -34.3894   22.4797 C   0  0  0  0  0  0  0  0  0  0  0  0
  -26.5823  -29.3777   19.2166 C   0  0  0  0  0  0  0  0  0  0  0  0
  -24.6436  -14.6181   21.6717 C   0  0  0  0  0  0  0  0  0  0  0  0
  -24.5595  -15.9698   19.6709 C   0  0  0  0  0  0  0  0  0  0  0  0
  -27.2971  -28.2075   18.9644 C   0  0  0  0  0  0  0  0  0  0  0  0
  -22.3974  -12.7537   19.9654 C   0  0  0  0  0  0  0  0  0  0  0  0
  -21.8790  -11.4761   20.1768 C   0  0  0  0  0  0  0  0  0  0  0  0
  -26.1343  -27.1145   20.7733 C   0  0  0  0  0  0  0  0  0  0  0  0
  -20.6488  -12.2919   22.0895 C   0  0  0  0  0  0  0  0  0  0  0  0
  -30.3053  -24.2198   19.2226 C   0  0  0  0  0  0  0  0  0  0  0  0
  -26.6802  -15.5234   20.7389 C   0  0  0  0  0  0  0  0  0  0  0  0
  -29.0786  -14.8539   20.1847 C   0  0  0  0  0  0  0  0  0  0  0  0
  -26.6205  -35.5575   24.1773 C   0  0  0  0  0  0  0  0  0  0  0  0
  -25.6444  -29.4284   20.2579 C   0  0  0  0  0  0  0  0  0  0  0  0
  -27.0244  -34.3498   23.5768 C   0  0  0  0  0  0  0  0  0  0  0  0
  -25.4071  -28.2857   21.0351 C   0  0  0  0  0  0  0  0  0  0  0  0
  -23.9087  -15.2175   20.6488 C   0  0  0  0  0  0  0  0  0  0  0  0
  -27.0752  -27.0766   19.7446 C   0  0  0  0  0  0  0  0  0  0  0  0
  -22.0416  -13.8003   20.8161 C   0  0  0  0  0  0  0  0  0  0  0  0
  -21.0047  -11.2452   21.2389 C   0  0  0  0  0  0  0  0  0  0  0  0
  -21.1673  -13.5695   21.8781 C   0  0  0  0  0  0  0  0  0  0  0  0
  -28.1115  -15.6821   20.7852 C   0  0  0  0  0  0  0  0  0  0  0  0
  -29.3538  -24.6115   18.3030 C   0  0  0  0  0  0  0  0  0  0  0  0
  -30.8405  -22.9626   19.0294 C   0  0  0  0  0  0  0  0  0  0  0  0
  -30.2797  -15.4286   20.5215 C   0  0  0  0  0  0  0  0  0  0  0  0
  -29.5451  -22.6389   17.1897 C   0  0  0  0  0  0  0  0  0  0  0  0
  -28.9065  -13.6708   19.3932 C   0  0  0  0  0  0  0  0  0  0  0  0
  -25.3545  -31.1166   22.9355 C   0  0  0  0  0  0  0  0  0  0  0  0
  -22.4823  -29.6190   23.1079 C   0  0  0  0  0  0  0  0  0  0  0  0
  -20.5505  -26.9471   22.2267 C   0  0  0  0  0  0  0  0  0  0  0  0
  -31.8569  -21.0137   21.9944 C   0  0  0  0  0  0  0  0  0  0  0  0
  -25.7187  -35.5798   25.3860 C   0  0  0  0  0  0  0  0  0  0  0  0
  -24.8623  -30.6902   20.4999 C   0  0  0  0  0  0  0  0  0  0  0  0
  -24.3965  -28.2821   22.1519 C   0  0  0  0  0  0  0  0  0  0  0  0
  -24.9623  -34.2722   25.6057 C   0  0  0  0  0  0  0  0  0  0  0  0
  -32.3398  -18.0698   23.9377 C   0  0  0  0  0  0  0  0  0  0  0  0
  -25.9050  -33.0807   25.4695 C   0  0  0  0  0  0  0  0  0  0  0  0
  -31.3982  -17.0493   23.2960 C   0  0  0  0  0  0  0  0  0  0  0  0
  -31.7394  -19.4739   23.9312 C   0  0  0  0  0  0  0  0  0  0  0  0
  -30.3541  -18.9311   21.9665 C   0  0  0  0  0  0  0  0  0  0  0  0
  -26.5077  -33.0124   24.0611 C   0  0  1  0  0  0  0  0  0  0  0  0
  -24.3022  -30.7836   21.9159 C   0  0  1  0  0  0  0  0  0  0  0  0
  -30.9396  -17.5102   21.8993 C   0  0  2  0  0  0  0  0  0  0  0  0
  -29.1261  -21.7619   16.0587 C   0  0  0  0  0  0  0  0  0  0  0  0
  -33.2111  -22.1382   19.2783 C   0  0  0  0  0  0  0  0  0  0  0  0
  -18.2567  -25.9825   22.5511 C   0  0  0  0  0  0  0  0  0  0  0  0
  -23.2600  -28.7209   25.9183 C   0  0  0  0  0  0  0  0  0  0  0  0
  -21.4179  -27.0288   25.8121 C   0  0  0  0  0  0  0  0  0  0  0  0
  -20.8833  -29.4618   25.6802 C   0  0  0  0  0  0  0  0  0  0  0  0
  -19.9599  -27.0767   19.3296 C   0  0  0  0  0  0  0  0  0  0  0  0
  -28.7149  -25.9631   18.4302 C   0  0  0  0  0  0  0  0  0  1  0  0
  -31.8782  -22.4527   19.9724 C   0  0  2  0  0  0  0  0  0  0  0  0
  -21.9850  -28.3262   23.7082 C   0  0  1  0  0  0  0  0  0  0  0  0
  -19.1375  -26.8630   21.6784 C   0  0  2  0  0  0  0  0  0  0  0  0
  -21.9071  -28.3848   25.2600 C   0  0  0  0  0  0  0  0  0  0  0  0
  -28.6516  -16.7051   21.4529 N   0  0  0  0  0  0  0  0  0  0  0  0
  -28.9485  -23.8435   17.2704 N   0  0  0  0  0  0  0  0  0  0  0  0
  -30.4821  -22.1424   18.0199 N   0  0  0  0  0  0  0  0  0  0  0  0
  -29.9711  -16.5233   21.2742 N   0  0  0  0  0  0  0  0  0  0  0  0
  -23.6616  -29.5417   22.3534 N   0  0  0  0  0  0  0  0  0  0  0  0
  -31.3265  -19.8510   22.5773 N   0  0  0  0  0  0  0  0  0  0  0  0
  -31.5592  -15.0992   20.2443 N   0  0  0  0  0  0  0  0  0  0  0  0
  -27.6039  -13.2180   19.1429 N   0  0  0  0  0  0  0  0  0  0  0  0
  -25.5452  -32.4720   23.1251 N   0  0  0  0  0  0  0  0  0  0  0  0
  -20.7124  -28.0364   23.0565 N   0  0  0  0  0  0  0  0  0  0  0  0
  -31.4179  -21.2950   20.7064 N   0  0  0  0  0  0  0  0  0  0  0  0
  -19.1496  -26.2965   20.3000 N   0  3  0  0  0  0  0  0  0  0  0  0
  -29.8795  -13.0248   18.9356 O   0  0  0  0  0  0  0  0  0  0  0  0
  -25.9484  -30.2109   23.5087 O   0  0  0  0  0  0  0  0  0  0  0  0
  -21.8439  -30.6577   23.2953 O   0  0  0  0  0  0  0  0  0  0  0  0
  -21.4225  -26.1264   21.9498 O   0  0  0  0  0  0  0  0  0  0  0  0
  -32.6660  -21.7441   22.5765 O   0  0  0  0  0  0  0  0  0  0  0  0
  -22.5566  -15.0683   20.6044 O   0  0  0  0  0  0  0  0  0  0  0  0
  -27.7720  -25.9333   19.5010 O   0  0  0  0  0  0  0  0  0  1  0  0
  -20.5057  -10.0187   21.4409 F   0  0  0  0  0  0  0  0  0  0  0  0
  -20.8209  -14.5713   22.6979 F   0  0  0  0  0  0  0  0  0  0  0  0
  1  2  1  0  0  0  0
  1  5  2  0  0  0  0
  2  6  2  0  0  0  0
  3  8  2  0  0  0  0
  3 16  1  0  0  0  0
  4  9  1  0  0  0  0
  4 16  2  0  0  0  0
  5 18  1  0  0  0  0
  6 20  1  0  0  0  0
  7 10  2  0  0  0  0
  7 19  1  0  0  0  0
  8 22  1  0  0  0  0
  9 22  2  0  0  0  0
 10 23  1  0  0  0  0
 11 12  2  0  0  0  0
 11 24  1  0  0  0  0
 12 25  1  0  0  0  0
 13 21  1  0  0  0  0
 13 23  2  0  0  0  0
 14 25  2  0  0  0  0
 14 26  1  0  0  0  0
 15 28  1  0  0  0  0
 15 29  2  0  0  0  0
 16 27  1  0  0  0  0
 17 27  1  0  0  0  0
 17 30  2  0  0  0  0
 17 32  1  0  0  0  0
 18 20  2  0  0  0  0
 18 37  1  0  0  0  0
 19 21  2  0  0  0  0
 19 38  1  0  0  0  0
 20 46  1  0  0  0  0
 21 39  1  0  0  0  0
 22 78  1  0  0  0  0
 23 79  1  0  0  0  0
 24 26  2  0  0  0  0
 24 78  1  0  0  0  0
 25 80  1  0  0  0  0
 26 81  1  0  0  0  0
 27 61  2  0  0  0  0
 28 56  1  0  0  0  0
 28 62  2  0  0  0  0
 29 57  1  0  0  0  0
 29 63  1  0  0  0  0
 30 64  1  0  0  0  0
 30 67  1  0  0  0  0
 31 49  1  0  0  0  0
 31 62  1  0  0  0  0
 31 63  2  0  0  0  0
 32 68  1  0  0  0  0
 32 73  2  0  0  0  0
 33 47  1  0  0  0  0
 33 69  1  0  0  0  0
 33 74  2  0  0  0  0
 34 58  1  0  0  0  0
 34 65  1  0  0  0  0
 34 75  2  0  0  0  0
 35 59  1  0  0  0  0
 35 70  1  0  0  0  0
 35 76  2  0  0  0  0
 36 66  1  0  0  0  0
 36 71  1  0  0  0  0
 36 77  2  0  0  0  0
 37 40  1  0  0  0  0
 38 47  1  0  0  0  0
 39 65  1  0  0  0  0
 40 42  1  0  0  0  0
 41 43  1  0  0  0  0
 41 44  1  0  0  0  0
 42 46  1  0  0  0  0
 43 48  1  0  0  0  0
 44 66  1  0  0  0  0
 45 48  1  0  0  0  0
 45 66  1  0  0  0  0
 46 69  1  0  0  0  0
 47 65  1  0  0  0  0
 48 64  1  0  0  0  0
 50 57  1  0  0  0  0
 51 59  1  0  0  0  0
 52 60  1  0  0  0  0
 53 60  1  0  0  0  0
 54 60  1  0  0  0  0
 55 72  1  0  0  0  0
 56 79  1  0  0  0  0
 57 71  1  0  0  0  0
 58 60  1  0  0  0  0
 58 70  1  0  0  0  0
 59 72  1  0  0  0  0
 61 64  1  0  0  0  0
M  CHG  1  72   1
M  ISO  4  36 100  56 101  71 100  79 101
M  END
> <Batch ID>
0186

> <Smiles>
CNC(C)C(=O)NC(C(=O)N1Cc2cc([101O:1][101CH2:1]c3cc(C(C)[100NH:0][100C:0](=O)N4CCCC(n5nc(-c6ccc(Oc7ccc(F)cc7F)cc6)c(C(N)=O)c5N)C4)nc(C)n3)ccc2CC1C(=O)NC1CCCc2ccccc21)C(C)(C)C

> <Shape>
0.313

> <Color>
0.066

> <Negative vol penalty>
0.000

$$$$

  -OEChem-04052323142D

  0  0  0     0  0  0  0  0  0999 V2000
M  END
$$$$

  -OEChem-04052323143D

 83 92  0     1  0  0  0  0  0999 V2000
  -21.6082  -12.1266   19.9136 C   0  0  0  0  0  0  0  0  0  0  0  0
  -21.5893  -13.2158   20.7788 C   0  0  0  0  0  0  0  0  0  0  0  0
  -26.2036  -27.5748   20.8586 C   0  0  0  0  0  0  0  0  0  0  0  0
  -25.7212  -29.2937   19.2307 C   0  0  0  0  0  0  0  0  0  0  0  0
  -22.8254  -11.5787   19.5108 C   0  0  0  0  0  0  0  0  0  0  0  0
  -22.7877  -13.7573   21.2426 C   0  0  0  0  0  0  0  0  0  0  0  0
  -22.8317  -18.8179   21.0621 C   0  0  0  0  0  0  0  0  0  0  0  0
  -27.5200  -27.5115   20.4017 C   0  0  0  0  0  0  0  0  0  0  0  0
  -27.0377  -29.2304   18.7738 C   0  0  0  0  0  0  0  0  0  0  0  0
  -22.1444  -19.4969   22.0673 C   0  0  0  0  0  0  0  0  0  0  0  0
  -30.3724  -29.2897   20.7691 C   0  0  0  0  0  0  0  0  0  0  0  0
  -31.3888  -29.2535   21.7237 C   0  0  0  0  0  0  0  0  0  0  0  0
  -24.2276  -19.8885   23.2189 C   0  0  0  0  0  0  0  0  0  0  0  0
  -32.1219  -27.1187   20.8622 C   0  0  0  0  0  0  0  0  0  0  0  0
  -20.4410  -23.0419   28.0002 C   0  0  0  0  0  0  0  0  0  0  0  0
  -25.3042  -28.4659   20.2730 C   0  0  0  0  0  0  0  0  0  0  0  0
  -23.4370  -29.3567   21.7656 C   0  0  0  0  0  0  0  0  0  0  0  0
  -24.0395  -12.1198   19.9622 C   0  0  0  0  0  0  0  0  0  0  0  0
  -24.2232  -18.6595   21.1334 C   0  0  0  0  0  0  0  0  0  0  0  0
  -24.0223  -13.2153   20.8465 C   0  0  0  0  0  0  0  0  0  0  0  0
  -24.9305  -19.2094   22.2121 C   0  0  0  0  0  0  0  0  0  0  0  0
  -27.9370  -28.3393   19.3594 C   0  0  0  0  0  0  0  0  0  0  0  0
  -22.8419  -20.0298   23.1473 C   0  0  0  0  0  0  0  0  0  0  0  0
  -30.2307  -28.2403   19.8611 C   0  0  0  0  0  0  0  0  0  0  0  0
  -32.2636  -28.1681   21.7702 C   0  0  0  0  0  0  0  0  0  0  0  0
  -31.1054  -27.1548   19.9076 C   0  0  0  0  0  0  0  0  0  0  0  0
  -23.9441  -28.5313   20.7441 C   0  0  0  0  0  0  0  0  0  0  0  0
  -21.6307  -22.4434   28.3620 C   0  0  0  0  0  0  0  0  0  0  0  0
  -20.1347  -22.9967   26.6555 C   0  0  0  0  0  0  0  0  0  0  0  0
  -22.1013  -29.0432   21.8290 C   0  0  0  0  0  0  0  0  0  0  0  0
  -22.0544  -21.8660   26.2046 C   0  0  0  0  0  0  0  0  0  0  0  0
  -24.1129  -30.3207   22.5838 C   0  0  0  0  0  0  0  0  0  0  0  0
  -26.1908  -16.1698   21.3172 C   0  0  0  0  0  0  0  0  0  0  0  0
  -28.4771  -18.4488   20.9989 C   0  0  0  0  0  0  0  0  0  0  0  0
  -29.3765  -21.7208   21.3615 C   0  0  0  0  0  0  0  0  0  0  0  0
  -18.0910  -25.0712   21.9182 C   0  0  0  0  0  0  0  0  0  0  0  0
  -25.3293  -11.4639   19.5368 C   0  0  0  0  0  0  0  0  0  0  0  0
  -24.9531  -17.9476   20.0276 C   0  0  0  0  0  0  0  0  0  0  0  0
  -26.4272  -19.0843   22.3253 C   0  0  0  0  0  0  0  0  0  0  0  0
  -26.5620  -12.3315   19.7771 C   0  0  0  0  0  0  0  0  0  0  0  0
  -19.1839  -26.3434   18.7372 C   0  0  0  0  0  0  0  0  0  0  0  0
  -26.5241  -12.9369   21.1767 C   0  0  0  0  0  0  0  0  0  0  0  0
  -20.5033  -27.0440   19.0445 C   0  0  0  0  0  0  0  0  0  0  0  0
  -18.9988  -25.1196   19.6243 C   0  0  0  0  0  0  0  0  0  0  0  0
  -20.3477  -26.1609   21.4275 C   0  0  0  0  0  0  0  0  0  0  0  0
  -17.5368  -24.3077   24.2875 C   0  0  0  0  0  0  0  0  0  0  0  0
  -19.6289  -24.3294   23.9006 C   0  0  0  0  0  0  0  0  0  0  0  0
  -25.3017  -13.8461   21.3516 C   0  0  1  0  0  0  0  0  0  0  0  0
  -26.3089  -17.3997   20.4623 C   0  0  1  0  0  0  0  0  0  0  0  0
  -20.5895  -27.3957   20.5366 C   0  0  1  0  0  0  0  0  0  0  0  0
  -18.7213  -23.4817   24.8054 C   0  0  0  0  0  0  0  0  0  0  0  0
  -22.0470  -22.4417   29.7945 C   0  0  0  0  0  0  0  0  0  0  0  0
  -31.3229  -23.2745   21.0534 C   0  0  0  0  0  0  0  0  0  0  0  0
  -29.7663  -17.3313   23.5286 C   0  0  0  0  0  0  0  0  0  0  0  0
  -31.0987  -19.4441   23.6991 C   0  0  0  0  0  0  0  0  0  0  0  0
  -31.3802  -17.9504   21.7212 C   0  0  0  0  0  0  0  0  0  0  0  0
  -27.8997  -23.3678   19.3954 C   0  0  0  0  0  0  0  0  0  0  0  0
  -22.9503  -21.2130   25.2075 C   0  0  0  0  0  0  0  0  0  1  0  0
  -29.2641  -19.3142   21.9532 C   0  0  1  0  0  0  0  0  0  0  0  0
  -30.0736  -22.6844   20.4180 C   0  0  2  0  0  0  0  0  0  0  0  0
  -30.3489  -18.5109   22.7246 C   0  0  0  0  0  0  0  0  0  0  0  0
  -23.0069  -27.7519   20.1981 N   0  0  0  0  0  0  0  0  0  0  0  0
  -22.4647  -21.8440   27.4870 N   0  0  0  0  0  0  0  0  0  0  0  0
  -20.9215  -22.4150   25.7265 N   0  0  0  0  0  0  0  0  0  0  0  0
  -21.8975  -28.0861   20.8790 N   0  0  0  0  0  0  0  0  0  0  0  0
  -27.0949  -18.3740   21.2221 N   0  0  0  0  0  0  0  0  0  0  0  0
  -19.1209  -25.4465   21.0482 N   0  0  0  0  0  0  0  0  0  0  0  0
  -18.4193  -24.7543   23.2163 N   0  0  0  0  0  0  0  0  0  0  0  0
  -21.0930  -29.4955   22.6044 N   0  0  0  0  0  0  0  0  0  0  0  0
  -25.4864  -30.5185   22.3869 N   0  0  0  0  0  0  0  0  0  0  0  0
  -25.5254  -15.1230   20.7082 N   0  0  0  0  0  0  0  0  0  0  0  0
  -29.7903  -20.4208   21.1613 N   0  0  0  0  0  0  0  0  0  0  0  0
  -29.1596  -23.8029   20.0515 N   0  3  0  0  0  0  0  0  0  0  0  0
  -23.5200  -30.9751   23.4747 O   0  0  0  0  0  0  0  0  0  0  0  0
  -26.6693  -16.1699   22.4454 O   0  0  0  0  0  0  0  0  0  0  0  0
  -29.0659  -17.8664   20.0847 O   0  0  0  0  0  0  0  0  0  0  0  0
  -28.5505  -22.0855   22.1954 O   0  0  0  0  0  0  0  0  0  0  0  0
  -16.9144  -24.9899   21.5409 O   0  0  0  0  0  0  0  0  0  0  0  0
  -29.2215  -28.2780   18.9135 O   0  0  0  0  0  0  0  0  0  0  0  0
  -22.1688  -20.6970   24.1369 O   0  0  0  0  0  0  0  0  0  1  0  0
  -18.9759  -23.5661   26.2179 O   0  0  0  0  0  0  0  0  0  0  0  0
  -33.2405  -28.1342   22.6859 F   0  0  0  0  0  0  0  0  0  0  0  0
  -30.9750  -26.1443   19.0372 F   0  0  0  0  0  0  0  0  0  0  0  0
  1  2  1  0  0  0  0
  1  5  2  0  0  0  0
  2  6  2  0  0  0  0
  3  8  2  0  0  0  0
  3 16  1  0  0  0  0
  4  9  1  0  0  0  0
  4 16  2  0  0  0  0
  5 18  1  0  0  0  0
  6 20  1  0  0  0  0
  7 10  2  0  0  0  0
  7 19  1  0  0  0  0
  8 22  1  0  0  0  0
  9 22  2  0  0  0  0
 10 23  1  0  0  0  0
 11 12  2  0  0  0  0
 11 24  1  0  0  0  0
 12 25  1  0  0  0  0
 13 21  1  0  0  0  0
 13 23  2  0  0  0  0
 14 25  2  0  0  0  0
 14 26  1  0  0  0  0
 15 28  1  0  0  0  0
 15 29  2  0  0  0  0
 16 27  1  0  0  0  0
 17 27  1  0  0  0  0
 17 30  2  0  0  0  0
 17 32  1  0  0  0  0
 18 20  2  0  0  0  0
 18 37  1  0  0  0  0
 19 21  2  0  0  0  0
 19 38  1  0  0  0  0
 20 48  1  0  0  0  0
 21 39  1  0  0  0  0
 22 79  1  0  0  0  0
 23 80  1  0  0  0  0
 24 26  2  0  0  0  0
 24 79  1  0  0  0  0
 25 82  1  0  0  0  0
 26 83  1  0  0  0  0
 27 62  2  0  0  0  0
 28 52  1  0  0  0  0
 28 63  2  0  0  0  0
 29 64  1  0  0  0  0
 29 81  1  0  0  0  0
 30 65  1  0  0  0  0
 30 69  1  0  0  0  0
 31 58  1  0  0  0  0
 31 63  1  0  0  0  0
 31 64  2  0  0  0  0
 32 70  1  0  0  0  0
 32 74  2  0  0  0  0
 33 49  1  0  0  0  0
 33 71  1  0  0  0  0
 33 75  2  0  0  0  0
 34 59  1  0  0  0  0
 34 66  1  0  0  0  0
 34 76  2  0  0  0  0
 35 60  1  0  0  0  0
 35 72  1  0  0  0  0
 35 77  2  0  0  0  0
 36 67  1  0  0  0  0
 36 68  1  0  0  0  0
 36 78  2  0  0  0  0
 37 40  1  0  0  0  0
 38 49  1  0  0  0  0
 39 66  1  0  0  0  0
 40 42  1  0  0  0  0
 41 43  1  0  0  0  0
 41 44  1  0  0  0  0
 42 48  1  0  0  0  0
 43 50  1  0  0  0  0
 44 67  1  0  0  0  0
 45 50  1  0  0  0  0
 45 67  1  0  0  0  0
 46 51  1  0  0  0  0
 46 68  1  0  0  0  0
 47 51  1  0  0  0  0
 47 68  1  0  0  0  0
 48 71  1  0  0  0  0
 49 66  1  0  0  0  0
 50 65  1  0  0  0  0
 51 81  1  0  0  0  0
 53 60  1  0  0  0  0
 54 61  1  0  0  0  0
 55 61  1  0  0  0  0
 56 61  1  0  0  0  0
 57 73  1  0  0  0  0
 58 80  1  0  0  0  0
 59 61  1  0  0  0  0
 59 72  1  0  0  0  0
 60 73  1  0  0  0  0
 62 65  1  0  0  0  0
M  CHG  1  73   1
M  ISO  4  36 100  58 101  68 100  80 101
M  END
> <Batch ID>
0186

> <Smiles>
CNC(C)C(=O)NC(C(=O)N1Cc2cc([101O:1][101CH2:1]c3nc(C)cc(OC4C[100N:0]([100C:0](=O)N5CCCC(n6nc(-c7ccc(Oc8ccc(F)cc8F)cc7)c(C(N)=O)c6N)C5)C4)n3)ccc2CC1C(=O)NC1CCCc2ccccc21)C(C)(C)C

> <Shape>
0.216

> <Color>
0.071

> <Negative vol penalty>
0.000

$$$$

  -OEChem-04052323143D

 86 95  0     1  0  0  0  0  0999 V2000
  -16.9301  -30.4753   23.3429 C   0  0  0  0  0  0  0  0  0  0  0  0
  -18.1470  -31.0623   23.0112 C   0  0  0  0  0  0  0  0  0  0  0  0
  -26.7202  -12.2696   21.7812 C   0  0  0  0  0  0  0  0  0  0  0  0
  -25.9391  -11.8633   19.5313 C   0  0  0  0  0  0  0  0  0  0  0  0
  -16.8676  -29.1093   23.6149 C   0  0  0  0  0  0  0  0  0  0  0  0
  -19.3023  -30.2837   22.9523 C   0  0  0  0  0  0  0  0  0  0  0  0
  -25.5060  -29.7588   19.4090 C   0  0  0  0  0  0  0  0  0  0  0  0
  -25.4904  -11.8458   22.2847 C   0  0  0  0  0  0  0  0  0  0  0  0
  -24.7093  -11.4394   20.0348 C   0  0  0  0  0  0  0  0  0  0  0  0
  -26.8767  -29.6632   19.6455 C   0  0  0  0  0  0  0  0  0  0  0  0
  -21.4891   -9.9087   20.7457 C   0  0  0  0  0  0  0  0  0  0  0  0
  -20.9339   -8.7467   20.2100 C   0  0  0  0  0  0  0  0  0  0  0  0
  -26.6346  -27.2987   20.0576 C   0  0  0  0  0  0  0  0  0  0  0  0
  -22.8711   -7.4919   20.9241 C   0  0  0  0  0  0  0  0  0  0  0  0
  -26.9446  -12.2784   20.4045 C   0  0  0  0  0  0  0  0  0  0  0  0
  -29.3499  -11.9231   19.6326 C   0  0  0  0  0  0  0  0  0  0  0  0
  -18.0210  -28.3118   23.5499 C   0  0  0  0  0  0  0  0  0  0  0  0
  -24.6863  -28.6252   19.5059 C   0  0  0  0  0  0  0  0  0  0  0  0
  -19.2554  -28.9060   23.2250 C   0  0  0  0  0  0  0  0  0  0  0  0
  -25.2542  -27.3821   19.8194 C   0  0  0  0  0  0  0  0  0  0  0  0
  -24.4850  -11.4307   21.4116 C   0  0  0  0  0  0  0  0  0  0  0  0
  -27.4407  -28.4336   19.9726 C   0  0  0  0  0  0  0  0  0  0  0  0
  -22.7354   -9.8624   21.3706 C   0  0  0  0  0  0  0  0  0  0  0  0
  -29.3096  -27.1200   20.5242 C   0  0  0  0  0  0  0  0  0  1  0  0
  -21.6248   -7.5383   20.2993 C   0  0  0  0  0  0  0  0  0  0  0  0
  -23.4263   -8.6540   21.4598 C   0  0  0  0  0  0  0  0  0  0  0  0
  -28.2146  -12.7167   19.8837 C   0  0  0  0  0  0  0  0  0  0  0  0
  -29.4030  -26.6777   21.8281 C   0  0  0  0  0  0  0  0  0  0  0  0
  -29.7629  -26.2412   19.5617 C   0  0  0  0  0  0  0  0  0  0  0  0
  -30.2848  -12.8049   19.1479 C   0  0  0  0  0  0  0  0  0  0  0  0
  -30.3077  -24.7066   21.1477 C   0  0  0  0  0  0  0  0  0  0  0  0
  -29.5423  -10.5148   19.8206 C   0  0  0  0  0  0  0  0  0  0  0  0
  -22.2268  -27.7854   21.3361 C   0  0  0  0  0  0  0  0  0  0  0  0
  -22.1371  -25.2136   19.3611 C   0  0  0  0  0  0  0  0  0  0  0  0
  -23.8012  -23.1566   17.2056 C   0  0  0  0  0  0  0  0  0  0  0  0
  -31.2137  -18.4625   19.8684 C   0  0  0  0  0  0  0  0  0  0  0  0
  -17.9124  -26.8484   23.8984 C   0  0  0  0  0  0  0  0  0  0  0  0
  -23.2137  -28.7400   19.2217 C   0  0  0  0  0  0  0  0  0  0  0  0
  -24.4209  -26.1313   19.9161 C   0  0  0  0  0  0  0  0  0  0  0  0
  -19.1158  -26.0241   23.4481 C   0  0  0  0  0  0  0  0  0  0  0  0
  -30.6719  -16.9261   16.7580 C   0  0  0  0  0  0  0  0  0  0  0  0
  -20.4158  -26.7285   23.8231 C   0  0  0  0  0  0  0  0  0  0  0  0
  -30.0846  -15.5803   17.1825 C   0  0  0  0  0  0  0  0  0  0  0  0
  -30.1127  -21.8053   19.8335 C   0  0  0  0  0  0  0  0  0  0  0  0
  -32.2458  -21.5119   21.1493 C   0  0  0  0  0  0  0  0  0  0  0  0
  -30.1347  -18.0794   17.6074 C   0  0  0  0  0  0  0  0  0  0  0  0
  -30.5737  -20.7046   18.8735 C   0  0  0  0  0  0  0  0  0  0  0  0
  -32.6757  -20.4408   20.1508 C   0  0  0  0  0  0  0  0  0  0  0  0
  -29.7094  -16.5315   19.4893 C   0  0  0  0  0  0  0  0  0  0  0  0
  -20.5262  -28.0902   23.1265 C   0  0  1  0  0  0  0  0  0  0  0  0
  -22.3942  -27.6183   19.8523 C   0  0  1  0  0  0  0  0  0  0  0  0
  -30.2749  -15.3461   18.6917 C   0  0  1  0  0  0  0  0  0  0  0  0
  -31.3006  -22.5167   20.4855 C   0  0  0  0  0  0  0  0  0  0  0  0
  -28.9406  -27.5465   22.9510 C   0  0  0  0  0  0  0  0  0  0  0  0
  -28.8920  -25.6240   17.2930 C   0  0  0  0  0  0  0  0  0  0  0  0
  -23.4731  -21.1192   15.7778 C   0  0  0  0  0  0  0  0  0  0  0  0
  -22.2398  -23.4544   21.8520 C   0  0  0  0  0  0  0  0  0  0  0  0
  -22.8627  -21.5272   20.3802 C   0  0  0  0  0  0  0  0  0  0  0  0
  -20.6621  -22.6631   20.0802 C   0  0  0  0  0  0  0  0  0  0  0  0
  -24.4466  -24.6450   14.7303 C   0  0  0  0  0  0  0  0  0  0  0  0
  -29.7088  -26.6149   18.1171 C   0  0  0  0  0  0  0  0  0  0  0  0
  -22.7763  -23.8460   19.3571 C   0  0  1  0  0  0  0  0  0  0  0  0
  -23.4390  -22.6388   15.8253 C   0  0  2  0  0  0  0  0  0  0  0  0
  -22.1509  -22.8964   20.4175 C   0  0  0  0  0  0  0  0  0  0  0  0
  -28.4083  -14.0036   19.5835 N   0  0  0  0  0  0  0  0  0  0  0  0
  -29.8985  -25.4724   22.1771 N   0  0  0  0  0  0  0  0  0  0  0  0
  -30.2698  -25.0220   19.8390 N   0  0  0  0  0  0  0  0  0  0  0  0
  -29.6764  -14.0255   19.1388 N   0  0  0  0  0  0  0  0  0  0  0  0
  -22.9850  -26.2961   19.6355 N   0  0  0  0  0  0  0  0  0  0  0  0
  -30.3016  -17.7928   19.0391 N   0  0  0  0  0  0  0  0  0  0  0  0
  -31.5144  -19.7928   19.5403 N   0  0  0  0  0  0  0  0  0  0  0  0
  -31.5597  -12.6475   18.7329 N   0  0  0  0  0  0  0  0  0  0  0  0
  -28.4780   -9.7569   20.3278 N   0  0  0  0  0  0  0  0  0  0  0  0
  -30.8196  -23.4619   21.4689 N   0  0  0  0  0  0  0  0  0  0  0  0
  -20.9129  -27.9199   21.7424 N   0  0  0  0  0  0  0  0  0  0  0  0
  -22.6822  -23.3555   17.9863 N   0  0  0  0  0  0  0  0  0  0  0  0
  -24.3946  -23.1624   14.8086 N   0  3  0  0  0  0  0  0  0  0  0  0
  -30.6312   -9.9481   19.5625 O   0  0  0  0  0  0  0  0  0  0  0  0
  -23.2163  -27.7903   22.0590 O   0  0  0  0  0  0  0  0  0  0  0  0
  -20.9314  -25.3184   19.1224 O   0  0  0  0  0  0  0  0  0  0  0  0
  -24.9610  -23.3603   17.5575 O   0  0  0  0  0  0  0  0  0  0  0  0
  -31.7292  -17.9046   20.8452 O   0  0  0  0  0  0  0  0  0  0  0  0
  -23.2849  -11.0168   21.9026 O   0  0  0  0  0  0  0  0  0  0  0  0
  -28.8053  -28.3357   20.2093 O   0  0  0  0  0  0  0  0  0  1  0  0
  -21.0909   -6.4221   19.7862 F   0  0  0  0  0  0  0  0  0  0  0  0
  -24.6234   -8.6030   22.0599 F   0  0  0  0  0  0  0  0  0  0  0  0
  1  2  1  0  0  0  0
  1  5  2  0  0  0  0
  2  6  2  0  0  0  0
  3  8  2  0  0  0  0
  3 15  1  0  0  0  0
  4  9  1  0  0  0  0
  4 15  2  0  0  0  0
  5 17  1  0  0  0  0
  6 19  1  0  0  0  0
  7 10  2  0  0  0  0
  7 18  1  0  0  0  0
  8 21  1  0  0  0  0
  9 21  2  0  0  0  0
 10 22  1  0  0  0  0
 11 12  2  0  0  0  0
 11 23  1  0  0  0  0
 12 25  1  0  0  0  0
 13 20  1  0  0  0  0
 13 22  2  0  0  0  0
 14 25  2  0  0  0  0
 14 26  1  0  0  0  0
 15 27  1  0  0  0  0
 16 27  1  0  0  0  0
 16 30  2  0  0  0  0
 16 32  1  0  0  0  0
 17 19  2  0  0  0  0
 17 37  1  0  0  0  0
 18 20  2  0  0  0  0
 18 38  1  0  0  0  0
 19 50  1  0  0  0  0
 20 39  1  0  0  0  0
 21 83  1  0  0  0  0
 22 84  1  0  0  0  0
 23 26  2  0  0  0  0
 23 83  1  0  0  0  0
 24 28  1  0  0  0  0
 24 29  2  0  0  0  0
 24 84  1  0  0  0  0
 25 85  1  0  0  0  0
 26 86  1  0  0  0  0
 27 65  2  0  0  0  0
 28 54  1  0  0  0  0
 28 66  2  0  0  0  0
 29 61  1  0  0  0  0
 29 67  1  0  0  0  0
 30 68  1  0  0  0  0
 30 72  1  0  0  0  0
 31 66  1  0  0  0  0
 31 67  2  0  0  0  0
 31 74  1  0  0  0  0
 32 73  1  0  0  0  0
 32 78  2  0  0  0  0
 33 51  1  0  0  0  0
 33 75  1  0  0  0  0
 33 79  2  0  0  0  0
 34 62  1  0  0  0  0
 34 69  1  0  0  0  0
 34 80  2  0  0  0  0
 35 63  1  0  0  0  0
 35 76  1  0  0  0  0
 35 81  2  0  0  0  0
 36 70  1  0  0  0  0
 36 71  1  0  0  0  0
 36 82  2  0  0  0  0
 37 40  1  0  0  0  0
 38 51  1  0  0  0  0
 39 69  1  0  0  0  0
 40 42  1  0  0  0  0
 41 43  1  0  0  0  0
 41 46  1  0  0  0  0
 42 50  1  0  0  0  0
 43 52  1  0  0  0  0
 44 47  1  0  0  0  0
 44 53  1  0  0  0  0
 45 48  1  0  0  0  0
 45 53  1  0  0  0  0
 46 70  1  0  0  0  0
 47 71  1  0  0  0  0
 48 71  1  0  0  0  0
 49 52  1  0  0  0  0
 49 70  1  0  0  0  0
 50 75  1  0  0  0  0
 51 69  1  0  0  0  0
 52 68  1  0  0  0  0
 53 74  1  0  0  0  0
 55 61  1  0  0  0  0
 56 63  1  0  0  0  0
 57 64  1  0  0  0  0
 58 64  1  0  0  0  0
 59 64  1  0  0  0  0
 60 77  1  0  0  0  0
 62 64  1  0  0  0  0
 62 76  1  0  0  0  0
 63 77  1  0  0  0  0
 65 68  1  0  0  0  0
M  CHG  1  77   1
M  ISO  4  24 101  36 100  71 100  84 101
M  END
> <Batch ID>
0186

> <Smiles>
CCc1nc(NC2CC[100N:0]([100C:0](=O)N3CCCC(n4nc(-c5ccc(Oc6ccc(F)cc6F)cc5)c(C(N)=O)c4N)C3)CC2)nc(C)[101c:1]1[101O:1]c1ccc2c(c1)CN(C(=O)C(NC(=O)C(C)NC)C(C)(C)C)C(C(=O)NC1CCCc3ccccc31)C2

> <Shape>
0.273

> <Color>
0.083

> <Negative vol penalty>
0.000

$$$$

  -OEChem-04052323143D

 84 93  0     1  0  0  0  0  0999 V2000
  -18.6326  -26.2364   25.2744 C   0  0  0  0  0  0  0  0  0  0  0  0
  -19.9233  -25.8396   24.9396 C   0  0  0  0  0  0  0  0  0  0  0  0
  -24.4421   -9.5101   19.9039 C   0  0  0  0  0  0  0  0  0  0  0  0
  -24.6581   -9.8297   22.2889 C   0  0  0  0  0  0  0  0  0  0  0  0
  -17.9889  -27.2178   24.5218 C   0  0  0  0  0  0  0  0  0  0  0  0
  -20.5706  -26.4233   23.8511 C   0  0  0  0  0  0  0  0  0  0  0  0
  -25.3700  -27.6664   24.8834 C   0  0  0  0  0  0  0  0  0  0  0  0
  -24.1216   -8.1687   20.1127 C   0  0  0  0  0  0  0  0  0  0  0  0
  -24.3375   -8.4884   22.4977 C   0  0  0  0  0  0  0  0  0  0  0  0
  -26.3093  -26.6362   24.8804 C   0  0  0  0  0  0  0  0  0  0  0  0
  -21.5529   -6.5743   22.5549 C   0  0  0  0  0  0  0  0  0  0  0  0
  -20.6348   -6.2783   23.5623 C   0  0  0  0  0  0  0  0  0  0  0  0
  -27.0063  -27.2863   22.6644 C   0  0  0  0  0  0  0  0  0  0  0  0
  -22.3020   -4.9407   24.6887 C   0  0  0  0  0  0  0  0  0  0  0  0
  -29.3854  -20.9988   22.2460 C   0  0  0  0  0  0  0  0  0  0  0  0
  -24.7104  -10.3406   20.9920 C   0  0  0  0  0  0  0  0  0  0  0  0
  -24.1505  -12.8136   20.7121 C   0  0  0  0  0  0  0  0  0  0  0  0
  -18.6323  -27.8207   23.4295 C   0  0  0  0  0  0  0  0  0  0  0  0
  -25.2341  -28.5089   23.7707 C   0  0  0  0  0  0  0  0  0  0  0  0
  -19.9344  -27.4127   23.0824 C   0  0  0  0  0  0  0  0  0  0  0  0
  -26.0663  -28.3281   22.6568 C   0  0  0  0  0  0  0  0  0  0  0  0
  -24.0692   -7.6579   21.4096 C   0  0  0  0  0  0  0  0  0  0  0  0
  -27.1257  -26.4441   23.7696 C   0  0  0  0  0  0  0  0  0  0  0  0
  -22.8456   -6.0536   22.6143 C   0  0  0  0  0  0  0  0  0  0  0  0
  -21.0094   -5.4615   24.6292 C   0  0  0  0  0  0  0  0  0  0  0  0
  -23.2202   -5.2368   23.6811 C   0  0  0  0  0  0  0  0  0  0  0  0
  -25.0422  -11.7261   20.7769 C   0  0  0  0  0  0  0  0  0  0  0  0
  -29.8232  -20.0053   21.3942 C   0  0  0  0  0  0  0  0  0  0  0  0
  -28.4385  -21.8571   21.7255 C   0  0  0  0  0  0  0  0  0  0  0  0
  -24.9554  -13.9050   20.4938 C   0  0  0  0  0  0  0  0  0  0  0  0
  -28.4551  -20.7517   19.7394 C   0  0  0  0  0  0  0  0  0  0  0  0
  -22.7225  -12.8353   20.8381 C   0  0  0  0  0  0  0  0  0  0  0  0
  -22.8938  -29.1553   21.7191 C   0  0  0  0  0  0  0  0  0  0  0  0
  -24.9805  -31.3950   20.6459 C   0  0  0  0  0  0  0  0  0  0  0  0
  -28.2174  -32.4371   20.3575 C   0  0  0  0  0  0  0  0  0  0  0  0
  -29.4290  -16.8170   21.7606 C   0  0  0  0  0  0  0  0  0  0  0  0
  -17.8784  -28.8435   22.6170 C   0  0  0  0  0  0  0  0  0  0  0  0
  -24.2344  -29.6324   23.8003 C   0  0  0  0  0  0  0  0  0  0  0  0
  -25.9740  -29.2179   21.4451 C   0  0  0  0  0  0  0  0  0  0  0  0
  -18.7747  -29.6795   21.7071 C   0  0  0  0  0  0  0  0  0  0  0  0
  -29.8604  -14.1910   19.2848 C   0  0  0  0  0  0  0  0  0  0  0  0
  -19.7539  -28.7847   20.9538 C   0  0  0  0  0  0  0  0  0  0  0  0
  -28.5582  -13.4043   19.4483 C   0  0  0  0  0  0  0  0  0  0  0  0
  -32.1125  -18.7195   20.8699 C   0  0  0  0  0  0  0  0  0  0  0  0
  -30.3556  -14.7073   20.6307 C   0  0  0  0  0  0  0  0  0  0  0  0
  -31.9186  -17.2109   21.0117 C   0  0  0  0  0  0  0  0  0  0  0  0
  -28.0789  -14.7624   21.5435 C   0  0  0  0  0  0  0  0  0  0  0  0
  -20.6791  -28.0400   21.9239 C   0  0  1  0  0  0  0  0  0  0  0  0
  -30.9067  -18.9233   21.8081 C   0  0  2  0  0  0  0  0  0  0  0  0
  -23.8289  -30.1081   22.4086 C   0  0  1  0  0  0  0  0  0  0  0  0
  -27.5037  -14.2188   20.2216 C   0  0  2  0  0  0  0  0  0  0  0  0
  -27.9378  -20.6140   18.3477 C   0  0  0  0  0  0  0  0  0  0  0  0
  -29.6129  -34.2874   19.3951 C   0  0  0  0  0  0  0  0  0  0  0  0
  -24.6261  -30.2085   17.8573 C   0  0  0  0  0  0  0  0  0  0  0  0
  -26.6957  -31.4278   17.1514 C   0  0  0  0  0  0  0  0  0  0  0  0
  -24.6995  -32.7074   17.9262 C   0  0  0  0  0  0  0  0  0  0  0  0
  -29.2406  -33.2097   23.0250 C   0  0  0  0  0  0  0  0  0  0  0  0
  -28.4249  -23.0675   23.9074 C   0  0  0  0  0  0  0  0  0  0  0  0
  -27.7318  -24.2714   24.5231 C   0  0  0  0  0  0  0  0  0  1  0  0
  -26.0795  -31.4237   19.6114 C   0  0  1  0  0  0  0  0  0  0  0  0
  -28.8701  -33.7819   20.6220 C   0  0  2  0  0  0  0  0  0  0  0  0
  -25.5258  -31.4237   18.1585 C   0  0  0  0  0  0  0  0  0  0  0  0
  -26.3159  -12.0932   20.6129 N   0  0  0  0  0  0  0  0  0  0  0  0
  -29.3778  -19.8519   20.1299 N   0  0  0  0  0  0  0  0  0  0  0  0
  -27.9494  -21.7624   20.4716 N   0  0  0  0  0  0  0  0  0  0  0  0
  -26.2304  -13.4236   20.4428 N   0  0  0  0  0  0  0  0  0  0  0  0
  -24.9767  -30.2984   21.5196 N   0  0  0  0  0  0  0  0  0  0  0  0
  -29.3187  -15.5066   21.2893 N   0  0  0  0  0  0  0  0  0  0  0  0
  -30.6126  -17.4950   21.5778 N   0  0  0  0  0  0  0  0  0  0  0  0
  -24.6897  -15.2198   20.3423 N   0  0  0  0  0  0  0  0  0  0  0  0
  -22.0529  -11.6243   21.0603 N   0  0  0  0  0  0  0  0  0  0  0  0
  -27.9736  -22.8690   22.5491 N   0  0  0  0  0  0  0  0  0  0  0  0
  -21.7190  -28.9223   22.4083 N   0  0  0  0  0  0  0  0  0  0  0  0
  -26.9130  -32.5770   19.9331 N   0  0  0  0  0  0  0  0  0  0  0  0
  -29.8406  -33.6742   21.7478 N   0  3  0  0  0  0  0  0  0  0  0  0
  -22.0584  -13.8949   20.7396 O   0  0  0  0  0  0  0  0  0  0  0  0
  -23.2138  -28.6688   20.6409 O   0  0  0  0  0  0  0  0  0  0  0  0
  -24.1600  -32.3154   20.6823 O   0  0  0  0  0  0  0  0  0  0  0  0
  -28.8071  -31.3693   20.5085 O   0  0  0  0  0  0  0  0  0  0  0  0
  -28.4700  -17.3841   22.3029 O   0  0  0  0  0  0  0  0  0  0  0  0
  -23.7562   -6.3491   21.6137 O   0  0  0  0  0  0  0  0  0  0  0  0
  -28.0429  -25.4389   23.7638 O   0  0  0  0  0  0  0  0  0  1  0  0
  -20.1280   -5.1785   25.5974 F   0  0  0  0  0  0  0  0  0  0  0  0
  -24.4610   -4.7346   23.7443 F   0  0  0  0  0  0  0  0  0  0  0  0
  1  2  1  0  0  0  0
  1  5  2  0  0  0  0
  2  6  2  0  0  0  0
  3  8  2  0  0  0  0
  3 16  1  0  0  0  0
  4  9  1  0  0  0  0
  4 16  2  0  0  0  0
  5 18  1  0  0  0  0
  6 20  1  0  0  0  0
  7 10  2  0  0  0  0
  7 19  1  0  0  0  0
  8 22  1  0  0  0  0
  9 22  2  0  0  0  0
 10 23  1  0  0  0  0
 11 12  2  0  0  0  0
 11 24  1  0  0  0  0
 12 25  1  0  0  0  0
 13 21  1  0  0  0  0
 13 23  2  0  0  0  0
 14 25  2  0  0  0  0
 14 26  1  0  0  0  0
 15 28  2  0  0  0  0
 15 29  1  0  0  0  0
 16 27  1  0  0  0  0
 17 27  1  0  0  0  0
 17 30  2  0  0  0  0
 17 32  1  0  0  0  0
 18 20  2  0  0  0  0
 18 37  1  0  0  0  0
 19 21  2  0  0  0  0
 19 38  1  0  0  0  0
 20 48  1  0  0  0  0
 21 39  1  0  0  0  0
 22 81  1  0  0  0  0
 23 82  1  0  0  0  0
 24 26  2  0  0  0  0
 24 81  1  0  0  0  0
 25 83  1  0  0  0  0
 26 84  1  0  0  0  0
 27 63  2  0  0  0  0
 28 49  1  0  0  0  0
 28 64  1  0  0  0  0
 29 65  2  0  0  0  0
 29 72  1  0  0  0  0
 30 66  1  0  0  0  0
 30 70  1  0  0  0  0
 31 52  1  0  0  0  0
 31 64  2  0  0  0  0
 31 65  1  0  0  0  0
 32 71  1  0  0  0  0
 32 76  2  0  0  0  0
 33 50  1  0  0  0  0
 33 73  1  0  0  0  0
 33 77  2  0  0  0  0
 34 60  1  0  0  0  0
 34 67  1  0  0  0  0
 34 78  2  0  0  0  0
 35 61  1  0  0  0  0
 35 74  1  0  0  0  0
 35 79  2  0  0  0  0
 36 68  1  0  0  0  0
 36 69  1  0  0  0  0
 36 80  2  0  0  0  0
 37 40  1  0  0  0  0
 38 50  1  0  0  0  0
 39 67  1  0  0  0  0
 40 42  1  0  0  0  0
 41 43  1  0  0  0  0
 41 45  1  0  0  0  0
 42 48  1  0  0  0  0
 43 51  1  0  0  0  0
 44 46  1  0  0  0  0
 44 49  1  0  0  0  0
 45 68  1  0  0  0  0
 46 69  1  0  0  0  0
 47 51  1  0  0  0  0
 47 68  1  0  0  0  0
 48 73  1  0  0  0  0
 49 69  1  0  0  0  0
 50 67  1  0  0  0  0
 51 66  1  0  0  0  0
 53 61  1  0  0  0  0
 54 62  1  0  0  0  0
 55 62  1  0  0  0  0
 56 62  1  0  0  0  0
 57 75  1  0  0  0  0
 58 59  1  0  0  0  0
 58 72  1  0  0  0  0
 59 82  1  0  0  0  0
 60 62  1  0  0  0  0
 60 74  1  0  0  0  0
 61 75  1  0  0  0  0
 63 66  1  0  0  0  0
M  CHG  1  75   1
M  ISO  4  36 100  59 101  69 100  82 101
M  END
> <Batch ID>
0186

> <Smiles>
CNC(C)C(=O)NC(C(=O)N1Cc2cc([101O:1][101CH2:1]CNc3cc(C4CC[100N:0]4[100C:0](=O)N4CCCC(n5nc(-c6ccc(Oc7ccc(F)cc7F)cc6)c(C(N)=O)c5N)C4)nc(C)n3)ccc2CC1C(=O)NC1CCCc2ccccc21)C(C)(C)C

> <Shape>
0.281

> <Color>
0.129

> <Negative vol penalty>
0.000

$$$$

  -OEChem-04052323143D

 78 86  0     1  0  0  0  0  0999 V2000
  -25.3366  -23.3816   20.1259 C   0  0  0  0  0  0  0  0  0  0  0  0
  -25.3140  -24.2232   21.2335 C   0  0  0  0  0  0  0  0  0  0  0  0
  -26.8607  -13.6713   21.7701 C   0  0  0  0  0  0  0  0  0  0  0  0
  -25.3091  -13.7928   19.9222 C   0  0  0  0  0  0  0  0  0  0  0  0
  -26.2690  -23.5920   19.1109 C   0  0  0  0  0  0  0  0  0  0  0  0
  -26.2246  -25.2750   21.3271 C   0  0  0  0  0  0  0  0  0  0  0  0
  -22.9720  -28.3753   19.2500 C   0  0  0  0  0  0  0  0  0  0  0  0
  -26.6400  -12.2973   21.8651 C   0  0  0  0  0  0  0  0  0  0  0  0
  -25.0883  -12.4188   20.0172 C   0  0  0  0  0  0  0  0  0  0  0  0
  -21.7637  -27.8296   19.6814 C   0  0  0  0  0  0  0  0  0  0  0  0
  -23.3002  -10.3116   21.9648 C   0  0  0  0  0  0  0  0  0  0  0  0
  -21.9816   -9.8612   21.9022 C   0  0  0  0  0  0  0  0  0  0  0  0
  -22.2022  -28.6370   21.9118 C   0  0  0  0  0  0  0  0  0  0  0  0
  -22.5214   -8.5531   19.9439 C   0  0  0  0  0  0  0  0  0  0  0  0
  -26.1952  -14.4191   20.7987 C   0  0  0  0  0  0  0  0  0  0  0  0
  -27.3981  -16.4915   19.9237 C   0  0  0  0  0  0  0  0  0  0  0  0
  -27.1852  -24.6529   19.1876 C   0  0  0  0  0  0  0  0  0  0  0  0
  -23.8109  -29.0476   20.1503 C   0  0  0  0  0  0  0  0  0  0  0  0
  -27.1711  -25.4990   20.3128 C   0  0  0  0  0  0  0  0  0  0  0  0
  -23.4193  -29.1925   21.4889 C   0  0  0  0  0  0  0  0  0  0  0  0
  -25.7538  -11.6711   20.9887 C   0  0  0  0  0  0  0  0  0  0  0  0
  -21.3800  -27.9578   21.0130 C   0  0  0  0  0  0  0  0  0  0  0  0
  -24.2295   -9.8828   21.0169 C   0  0  0  0  0  0  0  0  0  0  0  0
  -21.5922   -8.9819   20.8917 C   0  0  0  0  0  0  0  0  0  0  0  0
  -23.8401   -9.0036   20.0065 C   0  0  0  0  0  0  0  0  0  0  0  0
  -26.4224  -15.8385   20.7004 C   0  0  0  0  0  0  0  0  0  0  0  0
  -27.2007  -17.8271   20.1762 C   0  0  0  0  0  0  0  0  0  0  0  0
  -28.3939  -15.9401   19.0518 C   0  0  0  0  0  0  0  0  0  0  0  0
  -26.7663  -28.5938   21.2290 C   0  0  0  0  0  0  0  0  0  0  0  0
  -26.2667  -31.4617   22.6601 C   0  0  0  0  0  0  0  0  0  0  0  0
  -24.0396  -33.7454   23.8730 C   0  0  0  0  0  0  0  0  0  0  0  0
  -22.4143  -20.8467   21.8577 C   0  0  0  0  0  0  0  0  0  0  0  0
  -28.2053  -24.8120   18.0882 C   0  0  0  0  0  0  0  0  0  0  0  0
  -25.0985  -29.6538   19.6634 C   0  0  0  0  0  0  0  0  0  0  0  0
  -24.2747  -29.9227   22.4907 C   0  0  0  0  0  0  0  0  0  0  0  0
  -28.8905  -26.1761   18.0858 C   0  0  0  0  0  0  0  0  0  0  0  0
  -25.6027  -20.8005   23.5692 C   0  0  0  0  0  0  0  0  0  0  0  0
  -29.3308  -26.5548   19.4963 C   0  0  0  0  0  0  0  0  0  0  0  0
  -26.2663  -19.5726   22.9430 C   0  0  0  0  0  0  0  0  0  0  0  0
  -19.5034  -22.3469   22.4711 C   0  0  0  0  0  0  0  0  0  0  0  0
  -24.1066  -20.5783   23.7700 C   0  0  0  0  0  0  0  0  0  0  0  0
  -24.0306  -18.9684   21.9055 C   0  0  0  0  0  0  0  0  0  0  0  0
  -18.6048  -23.5264   22.1339 C   0  0  0  0  0  0  0  0  0  0  0  0
  -20.9372  -24.2294   22.3555 C   0  0  0  0  0  0  0  0  0  0  0  0
  -28.1264  -26.6659   20.4389 C   0  0  1  0  0  0  0  0  0  0  0  0
  -26.1159  -29.8715   20.7792 C   0  0  1  0  0  0  0  0  0  0  0  0
  -25.5402  -19.1385   21.6560 C   0  0  2  0  0  0  0  0  0  0  0  0
  -20.8666  -22.7700   21.9513 C   0  0  1  0  0  0  0  0  0  0  0  0
  -23.9317  -35.9756   25.0185 C   0  0  0  0  0  0  0  0  0  0  0  0
  -27.0596  -30.1437   25.2954 C   0  0  0  0  0  0  0  0  0  0  0  0
  -26.0381  -32.0892   26.4953 C   0  0  0  0  0  0  0  0  0  0  0  0
  -27.9747  -32.4475   24.9643 C   0  0  0  0  0  0  0  0  0  0  0  0
  -22.5560  -34.9614   21.6193 C   0  0  0  0  0  0  0  0  0  0  0  0
  -19.1158  -25.8780   22.9231 C   0  0  0  0  0  0  0  0  0  0  0  0
  -20.1354  -26.9925   22.7949 C   0  0  0  0  0  0  0  0  0  1  0  0
  -25.7054  -31.9106   23.9877 C   0  0  1  0  0  0  0  0  0  0  0  0
  -23.9333  -35.2478   23.6832 C   0  0  2  0  0  0  0  0  0  0  0  0
  -26.6790  -31.6323   25.1675 C   0  0  0  0  0  0  0  0  0  0  0  0
  -25.6617  -16.6892   21.3944 N   0  0  0  0  0  0  0  0  0  0  0  0
  -26.1595  -17.8904   21.0548 N   0  0  0  0  0  0  0  0  0  0  0  0
  -25.5274  -30.4924   21.9676 N   0  0  0  0  0  0  0  0  0  0  0  0
  -23.4721  -20.1856   22.5038 N   0  0  0  0  0  0  0  0  0  0  0  0
  -27.8180  -18.9417   19.7302 N   0  0  0  0  0  0  0  0  0  0  0  0
  -28.4582  -14.5475   18.9073 N   0  0  0  0  0  0  0  0  0  0  0  0
  -27.4300  -27.9162   20.2241 N   0  0  0  0  0  0  0  0  0  0  0  0
  -25.3491  -33.3161   23.8258 N   0  0  0  0  0  0  0  0  0  0  0  0
  -21.9384  -21.9870   22.4932 N   0  0  0  0  0  0  0  0  0  0  0  0
  -19.5348  -24.7252   22.0685 N   0  3  2  0  0  0  0  0  0  0  0  0
  -22.6765  -35.5908   22.9595 N   0  3  0  0  0  0  0  0  0  0  0  0
  -29.2133  -16.6601   18.4325 O   0  0  0  0  0  0  0  0  0  0  0  0
  -26.6742  -28.2491   22.4013 O   0  0  0  0  0  0  0  0  0  0  0  0
  -27.3186  -31.9581   22.2494 O   0  0  0  0  0  0  0  0  0  0  0  0
  -23.0594  -33.0253   24.0495 O   0  0  0  0  0  0  0  0  0  0  0  0
  -21.9327  -20.4528   20.7900 O   0  0  0  0  0  0  0  0  0  0  0  0
  -25.5384  -10.3303   21.0809 O   0  0  0  0  0  0  0  0  0  0  0  0
  -20.2014  -27.4256   21.4368 O   0  0  0  0  0  0  0  0  0  1  0  0
  -20.3262   -8.5483   20.8326 F   0  0  0  0  0  0  0  0  0  0  0  0
  -24.7286   -8.5873   19.0938 F   0  0  0  0  0  0  0  0  0  0  0  0
  1  2  1  0  0  0  0
  1  5  2  0  0  0  0
  2  6  2  0  0  0  0
  3  8  2  0  0  0  0
  3 15  1  0  0  0  0
  4  9  1  0  0  0  0
  4 15  2  0  0  0  0
  5 17  1  0  0  0  0
  6 19  1  0  0  0  0
  7 10  2  0  0  0  0
  7 18  1  0  0  0  0
  8 21  1  0  0  0  0
  9 21  2  0  0  0  0
 10 22  1  0  0  0  0
 11 12  2  0  0  0  0
 11 23  1  0  0  0  0
 12 24  1  0  0  0  0
 13 20  1  0  0  0  0
 13 22  2  0  0  0  0
 14 24  2  0  0  0  0
 14 25  1  0  0  0  0
 15 26  1  0  0  0  0
 16 26  1  0  0  0  0
 16 27  2  0  0  0  0
 16 28  1  0  0  0  0
 17 19  2  0  0  0  0
 17 33  1  0  0  0  0
 18 20  2  0  0  0  0
 18 34  1  0  0  0  0
 19 45  1  0  0  0  0
 20 35  1  0  0  0  0
 21 75  1  0  0  0  0
 22 76  1  0  0  0  0
 23 25  2  0  0  0  0
 23 75  1  0  0  0  0
 24 77  1  0  0  0  0
 25 78  1  0  0  0  0
 26 59  2  0  0  0  0
 27 60  1  0  0  0  0
 27 63  1  0  0  0  0
 28 64  1  0  0  0  0
 28 70  2  0  0  0  0
 29 46  1  0  0  0  0
 29 65  1  0  0  0  0
 29 71  2  0  0  0  0
 30 56  1  0  0  0  0
 30 61  1  0  0  0  0
 30 72  2  0  0  0  0
 31 57  1  0  0  0  0
 31 66  1  0  0  0  0
 31 73  2  0  0  0  0
 32 62  1  0  0  0  0
 32 67  1  0  0  0  0
 32 74  2  0  0  0  0
 33 36  1  0  0  0  0
 34 46  1  0  0  0  0
 35 61  1  0  0  0  0
 36 38  1  0  0  0  0
 37 39  1  0  0  0  0
 37 41  1  0  0  0  0
 38 45  1  0  0  0  0
 39 47  1  0  0  0  0
 40 43  1  0  0  0  0
 40 48  1  0  0  0  0
 41 62  1  0  0  0  0
 42 47  1  0  0  0  0
 42 62  1  0  0  0  0
 43 68  1  0  0  0  0
 44 48  1  0  0  0  0
 44 68  1  0  0  0  0
 45 65  1  0  0  0  0
 46 61  1  0  0  0  0
 47 60  1  0  0  0  0
 48 67  1  0  0  0  0
 49 57  1  0  0  0  0
 50 58  1  0  0  0  0
 51 58  1  0  0  0  0
 52 58  1  0  0  0  0
 53 69  1  0  0  0  0
 54 55  1  0  0  0  0
 54 68  1  0  0  0  0
 55 76  1  0  0  0  0
 56 58  1  0  0  0  0
 56 66  1  0  0  0  0
 57 69  1  0  0  0  0
 59 60  1  0  0  0  0
M  CHG  2  68   1  69   1
M  ISO  4  32 100  55 101  67 100  76 101
M  END
> <Batch ID>
0186

> <Smiles>
CNC(C)C(=O)NC(C(=O)N1Cc2cc([101O:1][101CH2:1]CN3CCC([100NH:0][100C:0](=O)N4CCCC(n5nc(-c6ccc(Oc7ccc(F)cc7F)cc6)c(C(N)=O)c5N)C4)C3)ccc2CC1C(=O)NC1CCCc2ccccc21)C(C)(C)C

> <Shape>
0.258

> <Color>
0.080

> <Negative vol penalty>
0.000

$$$$

  -OEChem-04052323143D

 83 92  0     1  0  0  0  0  0999 V2000
  -21.4962  -22.8317   21.6242 C   0  0  0  0  0  0  0  0  0  0  0  0
  -22.6913  -23.3584   22.1008 C   0  0  0  0  0  0  0  0  0  0  0  0
  -26.8991  -13.2329   21.0846 C   0  0  0  0  0  0  0  0  0  0  0  0
  -26.9019  -13.5753   18.6930 C   0  0  0  0  0  0  0  0  0  0  0  0
  -20.5925  -23.6561   20.9571 C   0  0  0  0  0  0  0  0  0  0  0  0
  -22.9778  -24.7121   21.9210 C   0  0  0  0  0  0  0  0  0  0  0  0
  -27.0058  -26.4581   24.1415 C   0  0  0  0  0  0  0  0  0  0  0  0
  -26.3361  -11.9697   20.9031 C   0  0  0  0  0  0  0  0  0  0  0  0
  -26.3389  -12.3121   18.5115 C   0  0  0  0  0  0  0  0  0  0  0  0
  -28.2962  -26.1491   23.7136 C   0  0  0  0  0  0  0  0  0  0  0  0
  -23.2808  -10.6736   20.2628 C   0  0  0  0  0  0  0  0  0  0  0  0
  -22.2185  -10.3132   21.0917 C   0  0  0  0  0  0  0  0  0  0  0  0
  -28.4769  -28.3315   22.7020 C   0  0  0  0  0  0  0  0  0  0  0  0
  -23.5000   -8.4397   21.9194 C   0  0  0  0  0  0  0  0  0  0  0  0
  -27.1820  -14.0357   19.9796 C   0  0  0  0  0  0  0  0  0  0  0  0
  -29.1328  -15.6628   20.2140 C   0  0  0  0  0  0  0  0  0  0  0  0
  -20.8745  -25.0177   20.7585 C   0  0  0  0  0  0  0  0  0  0  0  0
  -26.4362  -27.7042   23.8429 C   0  0  0  0  0  0  0  0  0  0  0  0
  -22.0679  -25.5656   21.2713 C   0  0  0  0  0  0  0  0  0  0  0  0
  -27.1800  -28.6549   23.1294 C   0  0  0  0  0  0  0  0  0  0  0  0
  -30.7667  -23.0347   20.2584 C   0  0  0  0  0  0  0  0  0  0  0  0
  -26.0560  -11.5093   19.6165 C   0  0  0  0  0  0  0  0  0  0  0  0
  -29.0309  -27.0848   22.9912 C   0  0  0  0  0  0  0  0  0  0  0  0
  -24.4527   -9.9171   20.2620 C   0  0  0  0  0  0  0  0  0  0  0  0
  -22.3281   -9.1963   21.9201 C   0  0  0  0  0  0  0  0  0  0  0  0
  -24.5623   -8.8002   21.0904 C   0  0  0  0  0  0  0  0  0  0  0  0
  -27.7631  -15.3409   20.1665 C   0  0  0  0  0  0  0  0  0  0  0  0
  -31.4516  -23.9915   20.9481 C   0  0  0  0  0  0  0  0  0  0  0  0
  -30.1566  -23.7116   19.2078 C   0  0  0  0  0  0  0  0  0  0  0  0
  -29.1595  -17.0222   20.4078 C   0  0  0  0  0  0  0  0  0  0  0  0
  -32.1411  -23.4544   22.0698 C   0  0  0  0  0  0  0  0  0  0  0  0
  -30.2785  -14.8092   20.0936 C   0  0  0  0  0  0  0  0  0  0  0  0
  -23.9036  -28.6735   22.1846 C   0  0  0  0  0  0  0  0  0  0  0  0
  -24.7259  -31.5785   23.3708 C   0  0  0  0  0  0  0  0  0  0  0  0
  -27.1586  -33.6047   24.6449 C   0  0  0  0  0  0  0  0  0  0  0  0
  -27.2979  -22.1460   19.2134 C   0  0  0  0  0  0  0  0  0  0  0  0
  -19.8574  -25.8661   20.0366 C   0  0  0  0  0  0  0  0  0  0  0  0
  -25.0531  -28.0321   24.3348 C   0  0  0  0  0  0  0  0  0  0  0  0
  -26.6218  -30.0145   22.8005 C   0  0  0  0  0  0  0  0  0  0  0  0
  -30.9380  -21.7131   20.8757 C   0  0  0  0  0  0  0  0  0  0  0  0
  -20.4409  -27.1720   19.5071 C   0  0  0  0  0  0  0  0  0  0  0  0
  -25.4524  -20.2517   21.5971 C   0  0  0  0  0  0  0  0  0  0  0  0
  -21.2200  -27.8771   20.6074 C   0  0  0  0  0  0  0  0  0  0  0  0
  -25.9975  -18.8314   21.4368 C   0  0  0  0  0  0  0  0  0  0  0  0
  -25.3770  -20.9818   20.2579 C   0  0  0  0  0  0  0  0  0  0  0  0
  -27.1827  -19.5830   19.3322 C   0  0  0  0  0  0  0  0  0  0  0  0
  -22.4147  -27.0284   21.0605 C   0  0  1  0  0  0  0  0  0  0  0  0
  -24.3802  -29.1404   23.5309 C   0  0  1  0  0  0  0  0  0  0  0  0
  -27.3297  -18.8261   20.6633 C   0  0  2  0  0  0  0  0  0  0  0  0
  -27.5375  -35.9379   25.4874 C   0  0  0  0  0  0  0  0  0  0  0  0
  -24.7178  -32.6136   20.5005 C   0  0  0  0  0  0  0  0  0  0  0  0
  -25.9948  -34.6160   21.2928 C   0  0  0  0  0  0  0  0  0  0  0  0
  -23.7040  -34.1711   22.1741 C   0  0  0  0  0  0  0  0  0  0  0  0
  -27.9379  -32.6331   27.3296 C   0  0  0  0  0  0  0  0  0  0  0  0
  -29.2939  -23.1666   18.1486 C   0  0  0  0  0  0  0  0  0  0  0  0
  -31.7868  -26.5248   20.6944 C   0  0  0  0  0  0  0  0  0  0  0  0
  -30.7376  -27.4041   21.3661 C   0  0  0  0  0  0  0  0  0  1  0  0
  -25.6242  -32.7035   22.9164 C   0  0  1  0  0  0  0  0  0  0  0  0
  -27.1802  -34.5086   25.8643 C   0  0  2  0  0  0  0  0  0  0  0  0
  -25.0203  -33.4998   21.7253 C   0  0  0  0  0  0  0  0  0  0  0  0
  -26.9767  -16.4098   20.3181 N   0  0  0  0  0  0  0  0  0  0  0  0
  -30.4421  -25.0267   19.2347 N   0  0  0  0  0  0  0  0  0  0  0  0
  -31.2440  -25.1668   20.3212 N   0  0  0  0  0  0  0  0  0  0  0  0
  -27.8550  -17.4166   20.4629 N   0  0  0  0  0  0  0  0  0  0  0  0
  -31.8200  -22.0832   22.0093 N   0  0  0  0  0  0  0  0  0  0  0  0
  -25.2628  -30.2853   23.2979 N   0  0  0  0  0  0  0  0  0  0  0  0
  -26.6729  -20.9415   19.5760 N   0  0  0  0  0  0  0  0  0  0  0  0
  -30.1713  -17.9068   20.5350 N   0  0  0  0  0  0  0  0  0  0  0  0
  -30.0716  -13.4369   19.8976 N   0  0  0  0  0  0  0  0  0  0  0  0
  -23.0006  -27.6289   22.2386 N   0  0  0  0  0  0  0  0  0  0  0  0
  -25.8955  -33.5126   24.0997 N   0  0  0  0  0  0  0  0  0  0  0  0
  -28.5264  -22.0184   18.5767 N   0  0  0  0  0  0  0  0  0  0  0  0
  -28.1811  -34.0193   26.8541 N   0  3  0  0  0  0  0  0  0  0  0  0
  -32.8401  -24.0330   22.8858 O   0  0  0  0  0  0  0  0  0  0  0  0
  -31.4508  -15.2480   20.1743 O   0  0  0  0  0  0  0  0  0  0  0  0
  -24.3229  -29.2214   21.1718 O   0  0  0  0  0  0  0  0  0  0  0  0
  -23.5924  -31.8382   23.7821 O   0  0  0  0  0  0  0  0  0  0  0  0
  -28.1627  -33.0400   24.2165 O   0  0  0  0  0  0  0  0  0  0  0  0
  -26.8007  -23.2533   19.4449 O   0  0  0  0  0  0  0  0  0  0  0  0
  -25.5068  -10.2767   19.4390 O   0  0  0  0  0  0  0  0  0  0  0  0
  -30.2904  -26.7855   22.5718 O   0  0  0  0  0  0  0  0  0  1  0  0
  -21.3085   -8.8512   22.7172 F   0  0  0  0  0  0  0  0  0  0  0  0
  -25.6861   -8.0702   21.0949 F   0  0  0  0  0  0  0  0  0  0  0  0
  1  2  1  0  0  0  0
  1  5  2  0  0  0  0
  2  6  2  0  0  0  0
  3  8  2  0  0  0  0
  3 15  1  0  0  0  0
  4  9  1  0  0  0  0
  4 15  2  0  0  0  0
  5 17  1  0  0  0  0
  6 19  1  0  0  0  0
  7 10  2  0  0  0  0
  7 18  1  0  0  0  0
  8 22  1  0  0  0  0
  9 22  2  0  0  0  0
 10 23  1  0  0  0  0
 11 12  2  0  0  0  0
 11 24  1  0  0  0  0
 12 25  1  0  0  0  0
 13 20  1  0  0  0  0
 13 23  2  0  0  0  0
 14 25  2  0  0  0  0
 14 26  1  0  0  0  0
 15 27  1  0  0  0  0
 16 27  1  0  0  0  0
 16 30  2  0  0  0  0
 16 32  1  0  0  0  0
 17 19  2  0  0  0  0
 17 37  1  0  0  0  0
 18 20  2  0  0  0  0
 18 38  1  0  0  0  0
 19 47  1  0  0  0  0
 20 39  1  0  0  0  0
 21 28  2  0  0  0  0
 21 29  1  0  0  0  0
 21 40  1  0  0  0  0
 22 80  1  0  0  0  0
 23 81  1  0  0  0  0
 24 26  2  0  0  0  0
 24 80  1  0  0  0  0
 25 82  1  0  0  0  0
 26 83  1  0  0  0  0
 27 61  2  0  0  0  0
 28 31  1  0  0  0  0
 28 63  1  0  0  0  0
 29 55  1  0  0  0  0
 29 62  2  0  0  0  0
 30 64  1  0  0  0  0
 30 68  1  0  0  0  0
 31 65  1  0  0  0  0
 31 74  2  0  0  0  0
 32 69  1  0  0  0  0
 32 75  2  0  0  0  0
 33 48  1  0  0  0  0
 33 70  1  0  0  0  0
 33 76  2  0  0  0  0
 34 58  1  0  0  0  0
 34 66  1  0  0  0  0
 34 77  2  0  0  0  0
 35 59  1  0  0  0  0
 35 71  1  0  0  0  0
 35 78  2  0  0  0  0
 36 67  1  0  0  0  0
 36 72  1  0  0  0  0
 36 79  2  0  0  0  0
 37 41  1  0  0  0  0
 38 48  1  0  0  0  0
 39 66  1  0  0  0  0
 40 65  1  0  0  0  0
 41 43  1  0  0  0  0
 42 44  1  0  0  0  0
 42 45  1  0  0  0  0
 43 47  1  0  0  0  0
 44 49  1  0  0  0  0
 45 67  1  0  0  0  0
 46 49  1  0  0  0  0
 46 67  1  0  0  0  0
 47 70  1  0  0  0  0
 48 66  1  0  0  0  0
 49 64  1  0  0  0  0
 50 59  1  0  0  0  0
 51 60  1  0  0  0  0
 52 60  1  0  0  0  0
 53 60  1  0  0  0  0
 54 73  1  0  0  0  0
 55 72  1  0  0  0  0
 56 57  1  0  0  0  0
 56 63  1  0  0  0  0
 57 81  1  0  0  0  0
 58 60  1  0  0  0  0
 58 71  1  0  0  0  0
 59 73  1  0  0  0  0
 61 64  1  0  0  0  0
 62 63  1  0  0  0  0
M  CHG  1  73   1
M  ISO  4  36 100  57 101  72 100  81 101
M  END
> <Batch ID>
0186

> <Smiles>
CNC(C)C(=O)NC(C(=O)N1Cc2cc([101O:1][101CH2:1]Cn3nc(C[100NH:0][100C:0](=O)N4CCCC(n5nc(-c6ccc(Oc7ccc(F)cc7F)cc6)c(C(N)=O)c5N)C4)c4c3C(=O)NC4)ccc2CC1C(=O)NC1CCCc2ccccc21)C(C)(C)C

> <Shape>
0.243

> <Color>
0.089

> <Negative vol penalty>
0.000

$$$$

  -OEChem-04052323143D

 84 93  0     1  0  0  0  0  0999 V2000
  -27.4490  -24.2694   16.9025 C   0  0  0  0  0  0  0  0  0  0  0  0
  -26.3240  -24.5329   17.6773 C   0  0  0  0  0  0  0  0  0  0  0  0
  -27.1699  -13.4343   22.5064 C   0  0  0  0  0  0  0  0  0  0  0  0
  -26.8509  -12.8820   20.1761 C   0  0  0  0  0  0  0  0  0  0  0  0
  -28.6934  -24.7634   17.2919 C   0  0  0  0  0  0  0  0  0  0  0  0
  -26.4428  -25.2895   18.8425 C   0  0  0  0  0  0  0  0  0  0  0  0
  -22.7966  -28.7772   19.2744 C   0  0  0  0  0  0  0  0  0  0  0  0
  -26.6297  -12.2015   22.8726 C   0  0  0  0  0  0  0  0  0  0  0  0
  -26.3108  -11.6492   20.5422 C   0  0  0  0  0  0  0  0  0  0  0  0
  -21.5422  -28.3381   19.6960 C   0  0  0  0  0  0  0  0  0  0  0  0
  -24.5166   -8.5056   20.8718 C   0  0  0  0  0  0  0  0  0  0  0  0
  -23.3545   -8.0884   20.2229 C   0  0  0  0  0  0  0  0  0  0  0  0
  -22.0306  -29.1070   21.9297 C   0  0  0  0  0  0  0  0  0  0  0  0
  -22.1964  -10.0454   21.0390 C   0  0  0  0  0  0  0  0  0  0  0  0
  -27.2804  -13.7746   21.1582 C   0  0  0  0  0  0  0  0  0  0  0  0
  -29.1906  -15.3421   20.5243 C   0  0  0  0  0  0  0  0  0  0  0  0
  -28.8259  -25.5346   18.4574 C   0  0  0  0  0  0  0  0  0  0  0  0
  -23.6831  -29.3756   20.1813 C   0  0  0  0  0  0  0  0  0  0  0  0
  -27.6903  -25.7931   19.2485 C   0  0  0  0  0  0  0  0  0  0  0  0
  -23.2945  -29.5551   21.5165 C   0  0  0  0  0  0  0  0  0  0  0  0
  -26.2002  -11.3090   21.8905 C   0  0  0  0  0  0  0  0  0  0  0  0
  -21.1602  -28.5004   21.0244 C   0  0  0  0  0  0  0  0  0  0  0  0
  -24.5186   -9.6926   21.6044 C   0  0  0  0  0  0  0  0  0  0  0  0
  -22.1944   -8.8583   20.3065 C   0  0  0  0  0  0  0  0  0  0  0  0
  -23.3585  -10.4625   21.6880 C   0  0  0  0  0  0  0  0  0  0  0  0
  -27.8377  -15.0482   20.7793 C   0  0  0  0  0  0  0  0  0  0  0  0
  -29.1976  -16.6781   20.2058 C   0  0  0  0  0  0  0  0  0  0  0  0
  -18.6409  -24.8946   22.2004 C   0  0  0  0  0  0  0  0  0  0  0  0
  -20.7681  -24.9986   22.9080 C   0  0  0  0  0  0  0  0  0  0  0  0
  -19.8310  -26.7743   21.9055 C   0  0  0  0  0  0  0  0  0  1  0  0
  -30.3383  -14.4840   20.5710 C   0  0  0  0  0  0  0  0  0  0  0  0
  -26.5794  -28.6697   21.2843 C   0  0  0  0  0  0  0  0  0  0  0  0
  -26.3174  -31.5714   22.7103 C   0  0  0  0  0  0  0  0  0  0  0  0
  -24.2858  -34.0400   23.9042 C   0  0  0  0  0  0  0  0  0  0  0  0
  -25.8132  -21.1505   21.6031 C   0  0  0  0  0  0  0  0  0  0  0  0
  -30.1995  -26.0071   18.8629 C   0  0  0  0  0  0  0  0  0  0  0  0
  -25.0221  -29.8679   19.7048 C   0  0  0  0  0  0  0  0  0  0  0  0
  -24.2015  -30.2098   22.5251 C   0  0  0  0  0  0  0  0  0  0  0  0
  -30.1772  -27.1160   19.9118 C   0  0  0  0  0  0  0  0  0  0  0  0
  -26.4495  -20.0989   18.3118 C   0  0  0  0  0  0  0  0  0  0  0  0
  -29.2069  -26.7679   21.0361 C   0  0  0  0  0  0  0  0  0  0  0  0
  -27.0150  -18.6982   18.5451 C   0  0  0  0  0  0  0  0  0  0  0  0
  -25.2737  -20.4047   19.2414 C   0  0  0  0  0  0  0  0  0  0  0  0
  -23.7326  -22.3663   20.8173 C   0  0  0  0  0  0  0  0  0  0  0  0
  -25.4177  -23.5199   22.2021 C   0  0  0  0  0  0  0  0  0  0  0  0
  -26.1383  -18.7952   20.9090 C   0  0  0  0  0  0  0  0  0  0  0  0
  -22.6528  -22.6900   21.8448 C   0  0  0  0  0  0  0  0  0  0  0  0
  -24.3727  -23.8383   23.2591 C   0  0  0  0  0  0  0  0  0  0  0  0
  -27.7745  -26.6308   20.5060 C   0  0  1  0  0  0  0  0  0  0  0  0
  -26.0453  -29.9982   20.8287 C   0  0  1  0  0  0  0  0  0  0  0  0
  -27.3585  -18.4815   20.0295 C   0  0  1  0  0  0  0  0  0  0  0  0
  -17.3684  -24.1335   22.0436 C   0  0  0  0  0  0  0  0  0  0  0  0
  -24.3614  -36.2723   25.0480 C   0  0  0  0  0  0  0  0  0  0  0  0
  -26.9722  -30.1927   25.3524 C   0  0  0  0  0  0  0  0  0  0  0  0
  -26.1126  -32.2203   26.5433 C   0  0  0  0  0  0  0  0  0  0  0  0
  -28.0853  -32.4086   25.0281 C   0  0  0  0  0  0  0  0  0  0  0  0
  -22.9309  -35.3771   21.6380 C   0  0  0  0  0  0  0  0  0  0  0  0
  -21.9504  -24.3521   23.5677 C   0  0  0  0  0  0  0  0  0  0  0  0
  -25.7861  -32.0685   24.0331 C   0  0  1  0  0  0  0  0  0  0  0  0
  -24.3110  -35.5458   23.7130 C   0  0  2  0  0  0  0  0  0  0  0  0
  -26.7225  -31.7084   25.2209 C   0  0  0  0  0  0  0  0  0  0  0  0
  -27.0430  -16.1120   20.6355 N   0  0  0  0  0  0  0  0  0  0  0  0
  -19.6565  -24.2531   22.8004 N   0  0  0  0  0  0  0  0  0  0  0  0
  -18.6546  -26.1516   21.7284 N   0  0  0  0  0  0  0  0  0  0  0  0
  -20.9289  -26.2627   22.4850 N   0  0  0  0  0  0  0  0  0  0  0  0
  -27.8991  -17.0874   20.2867 N   0  0  0  0  0  0  0  0  0  0  0  0
  -25.5029  -30.6688   22.0121 N   0  0  0  0  0  0  0  0  0  0  0  0
  -25.6356  -20.1445   20.6417 N   0  0  0  0  0  0  0  0  0  0  0  0
  -25.0586  -22.3225   21.4455 N   0  0  0  0  0  0  0  0  0  0  0  0
  -30.1878  -17.5310   19.8674 N   0  0  0  0  0  0  0  0  0  0  0  0
  -30.1529  -13.1384   20.9161 N   0  0  0  0  0  0  0  0  0  0  0  0
  -27.1903  -27.9363   20.2850 N   0  0  0  0  0  0  0  0  0  0  0  0
  -25.5537  -33.4993   23.8679 N   0  0  0  0  0  0  0  0  0  0  0  0
  -23.0211  -23.9487   22.5929 N   0  3  0  0  0  0  0  0  0  0  0  0
  -23.0944  -35.9951   22.9790 N   0  3  0  0  0  0  0  0  0  0  0  0
  -31.4962  -14.9022   20.3303 O   0  0  0  0  0  0  0  0  0  0  0  0
  -26.4483  -28.3354   22.4559 O   0  0  0  0  0  0  0  0  0  0  0  0
  -27.4115  -31.9748   22.3081 O   0  0  0  0  0  0  0  0  0  0  0  0
  -23.2457  -33.4073   24.0729 O   0  0  0  0  0  0  0  0  0  0  0  0
  -26.5999  -21.0095   22.5480 O   0  0  0  0  0  0  0  0  0  0  0  0
  -25.6734  -10.1058   22.2474 O   0  0  0  0  0  0  0  0  0  0  0  0
  -19.9211  -28.0667   21.4440 O   0  0  0  0  0  0  0  0  0  1  0  0
  -21.0789   -8.4584   19.6820 F   0  0  0  0  0  0  0  0  0  0  0  0
  -23.3546  -11.6044   22.3893 F   0  0  0  0  0  0  0  0  0  0  0  0
  1  2  1  0  0  0  0
  1  5  2  0  0  0  0
  2  6  2  0  0  0  0
  3  8  2  0  0  0  0
  3 15  1  0  0  0  0
  4  9  1  0  0  0  0
  4 15  2  0  0  0  0
  5 17  1  0  0  0  0
  6 19  1  0  0  0  0
  7 10  2  0  0  0  0
  7 18  1  0  0  0  0
  8 21  1  0  0  0  0
  9 21  2  0  0  0  0
 10 22  1  0  0  0  0
 11 12  2  0  0  0  0
 11 23  1  0  0  0  0
 12 24  1  0  0  0  0
 13 20  1  0  0  0  0
 13 22  2  0  0  0  0
 14 24  2  0  0  0  0
 14 25  1  0  0  0  0
 15 26  1  0  0  0  0
 16 26  1  0  0  0  0
 16 27  2  0  0  0  0
 16 31  1  0  0  0  0
 17 19  2  0  0  0  0
 17 36  1  0  0  0  0
 18 20  2  0  0  0  0
 18 37  1  0  0  0  0
 19 49  1  0  0  0  0
 20 38  1  0  0  0  0
 21 81  1  0  0  0  0
 22 82  1  0  0  0  0
 23 25  2  0  0  0  0
 23 81  1  0  0  0  0
 24 83  1  0  0  0  0
 25 84  1  0  0  0  0
 26 62  2  0  0  0  0
 27 66  1  0  0  0  0
 27 70  1  0  0  0  0
 28 52  1  0  0  0  0
 28 63  1  0  0  0  0
 28 64  2  0  0  0  0
 29 58  1  0  0  0  0
 29 63  2  0  0  0  0
 29 65  1  0  0  0  0
 30 64  1  0  0  0  0
 30 65  2  0  0  0  0
 30 82  1  0  0  0  0
 31 71  1  0  0  0  0
 31 76  2  0  0  0  0
 32 50  1  0  0  0  0
 32 72  1  0  0  0  0
 32 77  2  0  0  0  0
 33 59  1  0  0  0  0
 33 67  1  0  0  0  0
 33 78  2  0  0  0  0
 34 60  1  0  0  0  0
 34 73  1  0  0  0  0
 34 79  2  0  0  0  0
 35 68  1  0  0  0  0
 35 69  1  0  0  0  0
 35 80  2  0  0  0  0
 36 39  1  0  0  0  0
 37 50  1  0  0  0  0
 38 67  1  0  0  0  0
 39 41  1  0  0  0  0
 40 42  1  0  0  0  0
 40 43  1  0  0  0  0
 41 49  1  0  0  0  0
 42 51  1  0  0  0  0
 43 68  1  0  0  0  0
 44 47  1  0  0  0  0
 44 69  1  0  0  0  0
 45 48  1  0  0  0  0
 45 69  1  0  0  0  0
 46 51  1  0  0  0  0
 46 68  1  0  0  0  0
 47 74  1  0  0  0  0
 48 74  1  0  0  0  0
 49 72  1  0  0  0  0
 50 67  1  0  0  0  0
 51 66  1  0  0  0  0
 53 60  1  0  0  0  0
 54 61  1  0  0  0  0
 55 61  1  0  0  0  0
 56 61  1  0  0  0  0
 57 75  1  0  0  0  0
 58 74  1  0  0  0  0
 59 61  1  0  0  0  0
 59 73  1  0  0  0  0
 60 75  1  0  0  0  0
 62 66  1  0  0  0  0
M  CHG  2  74   1  75   1
M  ISO  4  30 101  35 100  69 100  82 101
M  END
> <Batch ID>
0186

> <Smiles>
CNC(C)C(=O)NC(C(=O)N1Cc2cc([101O:1][101c:1]3nc(C)nc(CN4CC[100N:0]([100C:0](=O)N5CCCC(n6nc(-c7ccc(Oc8ccc(F)cc8F)cc7)c(C(N)=O)c6N)C5)CC4)n3)ccc2CC1C(=O)NC1CCCc2ccccc21)C(C)(C)C

> <Shape>
0.325

> <Color>
0.102

> <Negative vol penalty>
0.000

$$$$

  -OEChem-04052323143D

 78 86  0     1  0  0  0  0  0999 V2000
  -26.4126  -37.2933   23.2413 C   0  0  0  0  0  0  0  0  0  0  0  0
  -27.1079  -36.1912   22.7544 C   0  0  0  0  0  0  0  0  0  0  0  0
  -27.0704  -12.9169   22.5395 C   0  0  0  0  0  0  0  0  0  0  0  0
  -27.3427  -11.4888   20.6099 C   0  0  0  0  0  0  0  0  0  0  0  0
  -25.2829  -37.1075   24.0371 C   0  0  0  0  0  0  0  0  0  0  0  0
  -26.6746  -34.9024   23.0639 C   0  0  0  0  0  0  0  0  0  0  0  0
  -26.9815  -29.9527   19.4706 C   0  0  0  0  0  0  0  0  0  0  0  0
  -26.1628  -12.0084   23.0839 C   0  0  0  0  0  0  0  0  0  0  0  0
  -26.4352  -10.5802   21.1543 C   0  0  0  0  0  0  0  0  0  0  0  0
  -27.8838  -28.8916   19.4107 C   0  0  0  0  0  0  0  0  0  0  0  0
  -23.0805  -10.2879   21.4571 C   0  0  0  0  0  0  0  0  0  0  0  0
  -22.1004   -9.7662   20.6129 C   0  0  0  0  0  0  0  0  0  0  0  0
  -26.4139  -27.5715   20.7949 C   0  0  0  0  0  0  0  0  0  0  0  0
  -22.9346   -7.5361   21.0223 C   0  0  0  0  0  0  0  0  0  0  0  0
  -27.6603  -12.6572   21.3025 C   0  0  0  0  0  0  0  0  0  0  0  0
  -29.9933  -13.6160   20.9210 C   0  0  0  0  0  0  0  0  0  0  0  0
  -24.8299  -35.8159   24.3486 C   0  0  0  0  0  0  0  0  0  0  0  0
  -25.7917  -29.8348   20.2033 C   0  0  0  0  0  0  0  0  0  0  0  0
  -25.5386  -34.6992   23.8658 C   0  0  0  0  0  0  0  0  0  0  0  0
  -25.4970  -28.6317   20.8604 C   0  0  0  0  0  0  0  0  0  0  0  0
  -25.8452  -10.8400   22.3913 C   0  0  0  0  0  0  0  0  0  0  0  0
  -27.6015  -27.7018   20.0752 C   0  0  0  0  0  0  0  0  0  0  0  0
  -23.9878   -9.4337   22.0839 C   0  0  0  0  0  0  0  0  0  0  0  0
  -22.0274   -8.3904   20.3955 C   0  0  0  0  0  0  0  0  0  0  0  0
  -23.9148   -8.0578   21.8665 C   0  0  0  0  0  0  0  0  0  0  0  0
  -28.5975  -13.5957   20.7393 C   0  0  0  0  0  0  0  0  0  0  0  0
  -30.4200  -14.6930   20.1831 C   0  0  0  0  0  0  0  0  0  0  0  0
  -30.8295  -12.7396   21.6882 C   0  0  0  0  0  0  0  0  0  0  0  0
  -24.5487  -31.3293   22.7183 C   0  0  0  0  0  0  0  0  0  0  0  0
  -21.9623  -29.4924   22.0408 C   0  0  0  0  0  0  0  0  0  0  0  0
  -20.7173  -26.6607   20.5992 C   0  0  0  0  0  0  0  0  0  0  0  0
  -27.5803  -19.6428   18.5824 C   0  0  0  0  0  0  0  0  0  0  0  0
  -23.6313  -35.6650   25.2515 C   0  0  0  0  0  0  0  0  0  0  0  0
  -24.8162  -30.9793   20.2360 C   0  0  0  0  0  0  0  0  0  0  0  0
  -24.2240  -28.4472   21.6439 C   0  0  0  0  0  0  0  0  0  0  0  0
  -23.0200  -34.2666   25.2237 C   0  0  0  0  0  0  0  0  0  0  0  0
  -29.3092  -17.3006   16.3542 C   0  0  0  0  0  0  0  0  0  0  0  0
  -24.1095  -33.2052   25.3394 C   0  0  0  0  0  0  0  0  0  0  0  0
  -29.3924  -16.0618   17.2396 C   0  0  0  0  0  0  0  0  0  0  0  0
  -26.5405  -22.2712   16.7686 C   0  0  0  0  0  0  0  0  0  0  0  0
  -28.0314  -18.1046   16.5976 C   0  0  0  0  0  0  0  0  0  0  0  0
  -27.0970  -20.9082   16.3457 C   0  0  0  0  0  0  0  0  0  0  0  0
  -27.9026  -17.2165   18.9102 C   0  0  0  0  0  0  0  0  0  0  0  0
  -25.0853  -33.2855   24.1592 C   0  0  1  0  0  0  0  0  0  0  0  0
  -23.8757  -30.9287   21.4361 C   0  0  1  0  0  0  0  0  0  0  0  0
  -29.2147  -16.4435   18.7166 C   0  0  1  0  0  0  0  0  0  0  0  0
  -27.3242  -22.1360   18.0831 C   0  0  2  0  0  0  0  0  0  0  0  0
  -18.5696  -25.4131   20.2413 C   0  0  0  0  0  0  0  0  0  0  0  0
  -22.0334  -28.5431   24.9397 C   0  0  0  0  0  0  0  0  0  0  0  0
  -20.5301  -26.6515   24.2841 C   0  0  0  0  0  0  0  0  0  0  0  0
  -19.7427  -29.0069   24.0498 C   0  0  0  0  0  0  0  0  0  0  0  0
  -20.9481  -26.8751   17.6565 C   0  0  0  0  0  0  0  0  0  0  0  0
  -28.6572  -22.8513   18.1816 C   0  0  0  0  0  0  0  0  0  0  0  0
  -29.6556  -25.0994   18.6155 C   0  0  0  0  0  0  0  0  0  0  0  0
  -29.2767  -26.5497   18.8415 C   0  0  0  0  0  0  0  0  0  1  0  0
  -21.4892  -28.1190   22.4518 C   0  0  1  0  0  0  0  0  0  0  0  0
  -19.5371  -26.4383   19.6707 C   0  0  2  0  0  0  0  0  0  0  0  0
  -20.9738  -28.0840   23.9183 C   0  0  0  0  0  0  0  0  0  0  0  0
  -28.1661  -14.5816   19.9482 N   0  0  0  0  0  0  0  0  0  0  0  0
  -29.2975  -15.2315   19.6262 N   0  0  0  0  0  0  0  0  0  0  0  0
  -23.3050  -29.5974   21.6511 N   0  0  0  0  0  0  0  0  0  0  0  0
  -27.8223  -18.3832   18.0234 N   0  0  0  0  0  0  0  0  0  0  0  0
  -27.4955  -20.7240   17.7336 N   0  0  0  0  0  0  0  0  0  0  0  0
  -31.6421  -15.2224   19.9628 N   0  0  0  0  0  0  0  0  0  0  0  0
  -30.2280  -11.6834   22.3860 N   0  0  0  0  0  0  0  0  0  0  0  0
  -24.5012  -32.6855   22.9788 N   0  0  0  0  0  0  0  0  0  0  0  0
  -20.4981  -27.7151   21.4603 N   0  0  0  0  0  0  0  0  0  0  0  0
  -20.0073  -25.9526   18.3426 N   0  3  0  0  0  0  0  0  0  0  0  0
  -28.4178  -24.2894   18.4401 N   0  3  0  0  0  0  0  0  0  0  0  0
  -32.0713  -12.8986   21.7662 O   0  0  0  0  0  0  0  0  0  0  0  0
  -25.0710  -30.4712   23.4202 O   0  0  0  0  0  0  0  0  0  0  0  0
  -21.1678  -30.4359   22.0579 O   0  0  0  0  0  0  0  0  0  0  0  0
  -21.7307  -25.9660   20.5666 O   0  0  0  0  0  0  0  0  0  0  0  0
  -27.4135  -19.7968   19.7995 O   0  0  0  0  0  0  0  0  0  0  0  0
  -24.9598   -9.9531   22.9224 O   0  0  0  0  0  0  0  0  0  0  0  0
  -28.4871  -26.6573   20.0185 O   0  0  0  0  0  0  0  0  0  1  0  0
  -21.0851   -7.8894   19.5859 F   0  0  0  0  0  0  0  0  0  0  0  0
  -24.7829   -7.2321   22.4668 F   0  0  0  0  0  0  0  0  0  0  0  0
  1  2  1  0  0  0  0
  1  5  2  0  0  0  0
  2  6  2  0  0  0  0
  3  8  2  0  0  0  0
  3 15  1  0  0  0  0
  4  9  1  0  0  0  0
  4 15  2  0  0  0  0
  5 17  1  0  0  0  0
  6 19  1  0  0  0  0
  7 10  2  0  0  0  0
  7 18  1  0  0  0  0
  8 21  1  0  0  0  0
  9 21  2  0  0  0  0
 10 22  1  0  0  0  0
 11 12  2  0  0  0  0
 11 23  1  0  0  0  0
 12 24  1  0  0  0  0
 13 20  1  0  0  0  0
 13 22  2  0  0  0  0
 14 24  2  0  0  0  0
 14 25  1  0  0  0  0
 15 26  1  0  0  0  0
 16 26  1  0  0  0  0
 16 27  2  0  0  0  0
 16 28  1  0  0  0  0
 17 19  2  0  0  0  0
 17 33  1  0  0  0  0
 18 20  2  0  0  0  0
 18 34  1  0  0  0  0
 19 44  1  0  0  0  0
 20 35  1  0  0  0  0
 21 75  1  0  0  0  0
 22 76  1  0  0  0  0
 23 25  2  0  0  0  0
 23 75  1  0  0  0  0
 24 77  1  0  0  0  0
 25 78  1  0  0  0  0
 26 59  2  0  0  0  0
 27 60  1  0  0  0  0
 27 64  1  0  0  0  0
 28 65  1  0  0  0  0
 28 70  2  0  0  0  0
 29 45  1  0  0  0  0
 29 66  1  0  0  0  0
 29 71  2  0  0  0  0
 30 56  1  0  0  0  0
 30 61  1  0  0  0  0
 30 72  2  0  0  0  0
 31 57  1  0  0  0  0
 31 67  1  0  0  0  0
 31 73  2  0  0  0  0
 32 62  1  0  0  0  0
 32 63  1  0  0  0  0
 32 74  2  0  0  0  0
 33 36  1  0  0  0  0
 34 45  1  0  0  0  0
 35 61  1  0  0  0  0
 36 38  1  0  0  0  0
 37 39  1  0  0  0  0
 37 41  1  0  0  0  0
 38 44  1  0  0  0  0
 39 46  1  0  0  0  0
 40 42  1  0  0  0  0
 40 47  1  0  0  0  0
 41 62  1  0  0  0  0
 42 63  1  0  0  0  0
 43 46  1  0  0  0  0
 43 62  1  0  0  0  0
 44 66  1  0  0  0  0
 45 61  1  0  0  0  0
 46 60  1  0  0  0  0
 47 53  1  0  0  0  0
 47 63  1  0  0  0  0
 48 57  1  0  0  0  0
 49 58  1  0  0  0  0
 50 58  1  0  0  0  0
 51 58  1  0  0  0  0
 52 68  1  0  0  0  0
 53 69  1  0  0  0  0
 54 55  1  0  0  0  0
 54 69  1  0  0  0  0
 55 76  1  0  0  0  0
 56 58  1  0  0  0  0
 56 67  1  0  0  0  0
 57 68  1  0  0  0  0
 59 60  1  0  0  0  0
M  CHG  2  68   1  69   1
M  ISO  4  32 100  55 101  63 100  76 101
M  END
> <Batch ID>
0186

> <Smiles>
CNC(C)C(=O)NC(C(=O)N1Cc2cc([101O:1][101CH2:1]CNCC3CC[100N:0]3[100C:0](=O)N3CCCC(n4nc(-c5ccc(Oc6ccc(F)cc6F)cc5)c(C(N)=O)c4N)C3)ccc2CC1C(=O)NC1CCCc2ccccc21)C(C)(C)C

> <Shape>
0.307

> <Color>
0.080

> <Negative vol penalty>
0.000

$$$$

  -OEChem-04052323143D

 83 92  0     1  0  0  0  0  0999 V2000
  -24.5722  -38.4272   20.6781 C   0  0  0  0  0  0  0  0  0  0  0  0
  -25.2996  -37.4821   19.9619 C   0  0  0  0  0  0  0  0  0  0  0  0
  -25.6947  -10.8021   17.8102 C   0  0  0  0  0  0  0  0  0  0  0  0
  -25.9859   -9.4758   19.8084 C   0  0  0  0  0  0  0  0  0  0  0  0
  -24.1002  -38.1216   21.9539 C   0  0  0  0  0  0  0  0  0  0  0  0
  -25.5564  -36.2310   20.5216 C   0  0  0  0  0  0  0  0  0  0  0  0
  -26.3860  -29.3569   18.6843 C   0  0  0  0  0  0  0  0  0  0  0  0
  -26.0191   -9.6942   17.0274 C   0  0  0  0  0  0  0  0  0  0  0  0
  -26.3103   -8.3677   19.0256 C   0  0  0  0  0  0  0  0  0  0  0  0
  -27.2792  -28.2989   18.8469 C   0  0  0  0  0  0  0  0  0  0  0  0
  -24.6718   -6.0523   17.1886 C   0  0  0  0  0  0  0  0  0  0  0  0
  -24.0834   -4.8319   17.5201 C   0  0  0  0  0  0  0  0  0  0  0  0
  -26.3463  -27.8541   21.0266 C   0  0  0  0  0  0  0  0  0  0  0  0
  -26.2723   -3.8729   17.8751 C   0  0  0  0  0  0  0  0  0  0  0  0
  -29.4183  -23.7296   19.7145 C   0  0  0  0  0  0  0  0  0  0  0  0
  -25.6781  -10.6930   19.2007 C   0  0  0  0  0  0  0  0  0  0  0  0
  -24.0632  -12.2212   20.4515 C   0  0  0  0  0  0  0  0  0  0  0  0
  -24.3431  -36.8627   22.5257 C   0  0  0  0  0  0  0  0  0  0  0  0
  -25.4720  -29.6789   19.6979 C   0  0  0  0  0  0  0  0  0  0  0  0
  -25.0884  -35.9087   21.8068 C   0  0  0  0  0  0  0  0  0  0  0  0
  -25.4408  -28.9151   20.8734 C   0  0  0  0  0  0  0  0  0  0  0  0
  -26.3269   -8.4770   17.6351 C   0  0  0  0  0  0  0  0  0  0  0  0
  -27.2614  -27.5491   20.0193 C   0  0  0  0  0  0  0  0  0  0  0  0
  -26.0606   -6.1830   17.2002 C   0  0  0  0  0  0  0  0  0  0  0  0
  -24.8836   -3.7422   17.8634 C   0  0  0  0  0  0  0  0  0  0  0  0
  -26.8608   -5.0933   17.5435 C   0  0  0  0  0  0  0  0  0  0  0  0
  -25.3436  -11.8373   20.0098 C   0  0  0  0  0  0  0  0  0  0  0  0
  -29.8743  -25.0355   19.4529 C   0  0  0  0  0  0  0  0  0  0  0  0
  -30.5615  -23.0100   19.9631 C   0  0  0  0  0  0  0  0  0  0  0  0
  -24.2800  -13.3650   21.1802 C   0  0  0  0  0  0  0  0  0  0  0  0
  -22.7916  -11.5993   20.2234 C   0  0  0  0  0  0  0  0  0  0  0  0
  -24.9572  -32.2266   21.5277 C   0  0  0  0  0  0  0  0  0  0  0  0
  -22.3750  -30.5214   22.5009 C   0  0  0  0  0  0  0  0  0  0  0  0
  -20.8945  -27.4705   22.8838 C   0  0  0  0  0  0  0  0  0  0  0  0
  -28.9895  -17.1746   20.6686 C   0  0  0  0  0  0  0  0  0  0  0  0
  -23.8532  -36.5950   23.9268 C   0  0  0  0  0  0  0  0  0  0  0  0
  -24.4971  -30.8064   19.4961 C   0  0  0  0  0  0  0  0  0  0  0  0
  -24.4655  -29.2071   21.9833 C   0  0  0  0  0  0  0  0  0  0  0  0
  -23.8473  -35.1142   24.2974 C   0  0  0  0  0  0  0  0  0  0  0  0
  -28.0797  -15.0575   23.6648 C   0  0  0  0  0  0  0  0  0  0  0  0
  -25.1610  -34.4561   23.8878 C   0  0  0  0  0  0  0  0  0  0  0  0
  -26.7689  -14.4026   23.2343 C   0  0  0  0  0  0  0  0  0  0  0  0
  -29.0758  -20.7514   21.7974 C   0  0  0  0  0  0  0  0  0  0  0  0
  -28.2990  -16.4126   22.9995 C   0  0  0  0  0  0  0  0  0  0  0  0
  -28.4644  -19.3594   21.9415 C   0  0  0  0  0  0  0  0  0  0  0  0
  -27.6128  -15.1582   20.9560 C   0  0  0  0  0  0  0  0  0  0  0  0
  -30.2446  -19.2836   20.3398 C   0  0  0  0  0  0  0  0  0  0  0  0
  -25.3662  -34.5318   22.3700 C   0  0  1  0  0  0  0  0  0  0  0  0
  -23.9556  -31.3698   20.8063 C   0  0  1  0  0  0  0  0  0  0  0  0
  -26.3895  -14.7285   21.7786 C   0  0  1  0  0  0  0  0  0  0  0  0
  -29.7184  -20.7067   20.4197 C   0  0  2  0  0  0  0  0  0  0  0  0
  -18.7976  -26.3923   23.7429 C   0  0  0  0  0  0  0  0  0  0  0  0
  -23.3420  -30.9294   25.3659 C   0  0  0  0  0  0  0  0  0  0  0  0
  -21.8026  -29.0863   26.0741 C   0  0  0  0  0  0  0  0  0  0  0  0
  -20.8717  -31.1643   25.0553 C   0  0  0  0  0  0  0  0  0  0  0  0
  -33.0029  -23.6212   20.0025 C   0  0  0  0  0  0  0  0  0  0  0  0
  -20.2371  -26.3581   20.2211 C   0  0  0  0  0  0  0  0  0  0  0  0
  -29.0634  -26.2195   19.1230 C   0  0  0  0  0  0  0  0  0  1  0  0
  -22.1090  -29.5140   23.5933 C   0  0  1  0  0  0  0  0  0  0  0  0
  -19.5048  -26.9735   22.5285 C   0  0  2  0  0  0  0  0  0  0  0  0
  -22.0511  -30.1689   25.0022 C   0  0  0  0  0  0  0  0  0  0  0  0
  -26.3028  -12.6698   20.4233 N   0  0  0  0  0  0  0  0  0  0  0  0
  -31.2036  -25.1422   19.5285 N   0  0  0  0  0  0  0  0  0  0  0  0
  -25.6247  -13.5883   21.1323 N   0  0  0  0  0  0  0  0  0  0  0  0
  -31.5926  -23.8943   19.8404 N   0  0  0  0  0  0  0  0  0  0  0  0
  -23.5367  -30.3235   21.7412 N   0  0  0  0  0  0  0  0  0  0  0  0
  -28.2703  -16.3383   21.5342 N   0  0  0  0  0  0  0  0  0  0  0  0
  -29.2440  -18.4907   21.0541 N   0  0  0  0  0  0  0  0  0  0  0  0
  -23.4497  -14.1917   21.8507 N   0  0  0  0  0  0  0  0  0  0  0  0
  -22.7486  -10.4297   19.4524 N   0  0  0  0  0  0  0  0  0  0  0  0
  -30.7734  -21.6750   20.2798 N   0  0  0  0  0  0  0  0  0  0  0  0
  -24.5556  -33.5375   21.7001 N   0  0  0  0  0  0  0  0  0  0  0  0
  -20.8897  -28.8099   23.2111 N   0  0  0  0  0  0  0  0  0  0  0  0
  -19.5847  -25.9167   21.4807 N   0  3  0  0  0  0  0  0  0  0  0  0
  -21.7232  -12.0761   20.6759 O   0  0  0  0  0  0  0  0  0  0  0  0
  -26.0153  -31.7344   21.9015 O   0  0  0  0  0  0  0  0  0  0  0  0
  -21.5776  -31.4457   22.3234 O   0  0  0  0  0  0  0  0  0  0  0  0
  -21.8846  -26.7423   22.8756 O   0  0  0  0  0  0  0  0  0  0  0  0
  -29.3641  -16.7582   19.5622 O   0  0  0  0  0  0  0  0  0  0  0  0
  -26.6432   -7.3955   16.8716 O   0  0  0  0  0  0  0  0  0  0  0  0
  -28.1477  -26.4984   20.1836 O   0  0  0  0  0  0  0  0  0  1  0  0
  -24.3184   -2.5707   18.1832 F   0  0  0  0  0  0  0  0  0  0  0  0
  -28.1954   -5.2132   17.5576 F   0  0  0  0  0  0  0  0  0  0  0  0
  1  2  1  0  0  0  0
  1  5  2  0  0  0  0
  2  6  2  0  0  0  0
  3  8  2  0  0  0  0
  3 16  1  0  0  0  0
  4  9  1  0  0  0  0
  4 16  2  0  0  0  0
  5 18  1  0  0  0  0
  6 20  1  0  0  0  0
  7 10  2  0  0  0  0
  7 19  1  0  0  0  0
  8 22  1  0  0  0  0
  9 22  2  0  0  0  0
 10 23  1  0  0  0  0
 11 12  2  0  0  0  0
 11 24  1  0  0  0  0
 12 25  1  0  0  0  0
 13 21  1  0  0  0  0
 13 23  2  0  0  0  0
 14 25  2  0  0  0  0
 14 26  1  0  0  0  0
 15 28  1  0  0  0  0
 15 29  2  0  0  0  0
 16 27  1  0  0  0  0
 17 27  1  0  0  0  0
 17 30  2  0  0  0  0
 17 31  1  0  0  0  0
 18 20  2  0  0  0  0
 18 36  1  0  0  0  0
 19 21  2  0  0  0  0
 19 37  1  0  0  0  0
 20 48  1  0  0  0  0
 21 38  1  0  0  0  0
 22 80  1  0  0  0  0
 23 81  1  0  0  0  0
 24 26  2  0  0  0  0
 24 80  1  0  0  0  0
 25 82  1  0  0  0  0
 26 83  1  0  0  0  0
 27 62  2  0  0  0  0
 28 58  1  0  0  0  0
 28 63  2  0  0  0  0
 29 65  1  0  0  0  0
 29 71  1  0  0  0  0
 30 64  1  0  0  0  0
 30 69  1  0  0  0  0
 31 70  1  0  0  0  0
 31 75  2  0  0  0  0
 32 49  1  0  0  0  0
 32 72  1  0  0  0  0
 32 76  2  0  0  0  0
 33 59  1  0  0  0  0
 33 66  1  0  0  0  0
 33 77  2  0  0  0  0
 34 60  1  0  0  0  0
 34 73  1  0  0  0  0
 34 78  2  0  0  0  0
 35 67  1  0  0  0  0
 35 68  1  0  0  0  0
 35 79  2  0  0  0  0
 36 39  1  0  0  0  0
 37 49  1  0  0  0  0
 38 66  1  0  0  0  0
 39 41  1  0  0  0  0
 40 42  1  0  0  0  0
 40 44  1  0  0  0  0
 41 48  1  0  0  0  0
 42 50  1  0  0  0  0
 43 45  1  0  0  0  0
 43 51  1  0  0  0  0
 44 67  1  0  0  0  0
 45 68  1  0  0  0  0
 46 50  1  0  0  0  0
 46 67  1  0  0  0  0
 47 51  1  0  0  0  0
 47 68  1  0  0  0  0
 48 72  1  0  0  0  0
 49 66  1  0  0  0  0
 50 64  1  0  0  0  0
 51 71  1  0  0  0  0
 52 60  1  0  0  0  0
 53 61  1  0  0  0  0
 54 61  1  0  0  0  0
 55 61  1  0  0  0  0
 56 65  1  0  0  0  0
 57 74  1  0  0  0  0
 58 81  1  0  0  0  0
 59 61  1  0  0  0  0
 59 73  1  0  0  0  0
 60 74  1  0  0  0  0
 62 64  1  0  0  0  0
 63 65  1  0  0  0  0
M  CHG  1  74   1
M  ISO  4  35 100  58 101  68 100  81 101
M  END
> <Batch ID>
0186

> <Smiles>
CNC(C)C(=O)NC(C(=O)N1Cc2cc([101O:1][101CH2:1]c3cc(NC4CC[100N:0]([100C:0](=O)N5CCCC(n6nc(-c7ccc(Oc8ccc(F)cc8F)cc7)c(C(N)=O)c6N)C5)C4)n(C)n3)ccc2CC1C(=O)NC1CCCc2ccccc21)C(C)(C)C

> <Shape>
0.266

> <Color>
0.101

> <Negative vol penalty>
0.000

$$$$

  -OEChem-04052323143D

 81 90  0     1  0  0  0  0  0999 V2000
  -26.1762  -20.0488   30.5607 C   0  0  0  0  0  0  0  0  0  0  0  0
  -26.4206  -20.1550   29.1953 C   0  0  0  0  0  0  0  0  0  0  0  0
  -23.1367   -9.7986   19.9783 C   0  0  0  0  0  0  0  0  0  0  0  0
  -23.6049  -10.0044   22.3396 C   0  0  0  0  0  0  0  0  0  0  0  0
  -27.1009  -19.4097   31.3856 C   0  0  0  0  0  0  0  0  0  0  0  0
  -27.5905  -19.6230   28.6541 C   0  0  0  0  0  0  0  0  0  0  0  0
  -28.2547  -17.0440   23.1392 C   0  0  0  0  0  0  0  0  0  0  0  0
  -22.3753   -8.6571   20.2288 C   0  0  0  0  0  0  0  0  0  0  0  0
  -22.8434   -8.8629   22.5901 C   0  0  0  0  0  0  0  0  0  0  0  0
  -28.7355  -17.5347   21.9260 C   0  0  0  0  0  0  0  0  0  0  0  0
  -23.2238   -5.5121   22.3492 C   0  0  0  0  0  0  0  0  0  0  0  0
  -23.7519   -4.5589   23.2199 C   0  0  0  0  0  0  0  0  0  0  0  0
  -30.9078  -16.6092   22.4194 C   0  0  0  0  0  0  0  0  0  0  0  0
  -21.8500   -4.8416   24.6829 C   0  0  0  0  0  0  0  0  0  0  0  0
  -23.7516  -10.4723   21.0337 C   0  0  0  0  0  0  0  0  0  0  0  0
  -24.0888  -12.9848   20.7487 C   0  0  0  0  0  0  0  0  0  0  0  0
  -28.2781  -18.8611   30.8527 C   0  0  0  0  0  0  0  0  0  0  0  0
  -29.1012  -16.3404   24.0080 C   0  0  0  0  0  0  0  0  0  0  0  0
  -28.5324  -18.9772   29.4728 C   0  0  0  0  0  0  0  0  0  0  0  0
  -30.4347  -16.1083   23.6419 C   0  0  0  0  0  0  0  0  0  0  0  0
  -22.2286   -8.1893   21.5346 C   0  0  0  0  0  0  0  0  0  0  0  0
  -30.0629  -17.3198   21.5672 C   0  0  0  0  0  0  0  0  0  0  0  0
  -22.0088   -6.1301   22.6453 C   0  0  0  0  0  0  0  0  0  0  0  0
  -23.0650   -4.2237   24.3867 C   0  0  0  0  0  0  0  0  0  0  0  0
  -21.3219   -5.7948   23.8121 C   0  0  0  0  0  0  0  0  0  0  0  0
  -24.5388  -11.6511   20.7756 C   0  0  0  0  0  0  0  0  0  0  0  0
  -25.2127  -13.7207   20.4626 C   0  0  0  0  0  0  0  0  0  0  0  0
  -22.7726  -13.5113   20.9634 C   0  0  0  0  0  0  0  0  0  0  0  0
  -30.1601  -16.8006   26.9696 C   0  0  0  0  0  0  0  0  0  0  0  0
  -31.4277  -13.8431   26.5592 C   0  0  0  0  0  0  0  0  0  0  0  0
  -32.5377  -11.4401   24.4051 C   0  0  0  0  0  0  0  0  0  0  0  0
  -29.6733  -14.5037   17.3757 C   0  0  0  0  0  0  0  0  0  0  0  0
  -29.2703  -18.2212   31.7912 C   0  0  0  0  0  0  0  0  0  0  0  0
  -28.5603  -15.7945   25.3010 C   0  0  0  0  0  0  0  0  0  0  0  0
  -31.3790  -15.3415   24.5300 C   0  0  0  0  0  0  0  0  0  0  0  0
  -30.3080  -17.3547   31.0821 C   0  0  0  0  0  0  0  0  0  0  0  0
  -30.0794  -12.4274   20.3697 C   0  0  0  0  0  0  0  0  0  0  0  0
  -30.8765  -18.0866   29.8705 C   0  0  0  0  0  0  0  0  0  0  0  0
  -28.6264  -12.1027   20.6998 C   0  0  0  0  0  0  0  0  0  0  0  0
  -31.8522  -14.2466   14.8329 C   0  0  0  0  0  0  0  0  0  0  0  0
  -32.8572  -17.1192   19.6299 C   0  0  0  0  0  0  0  0  0  0  0  0
  -32.2993  -19.1328   19.1258 C   0  0  0  0  0  0  0  0  0  0  0  0
  -30.3234  -12.5361   18.8640 C   0  0  0  0  0  0  0  0  0  0  0  0
  -31.5505  -13.3067   16.0042 C   0  0  0  0  0  0  0  0  0  0  0  0
  -27.9467  -13.1548   18.5147 C   0  0  0  0  0  0  0  0  0  0  0  0
  -29.7782  -18.3911   28.8445 C   0  0  1  0  0  0  0  0  0  0  0  0
  -29.6459  -15.5363   26.3413 C   0  0  1  0  0  0  0  0  0  0  0  0
  -32.8014  -17.9204   18.3095 C   0  0  0  0  0  0  0  0  0  0  0  0
  -27.6837  -13.1110   20.0265 C   0  0  1  0  0  0  0  0  0  0  0  0
  -31.9299  -18.1702   20.2738 C   0  0  0  0  0  0  0  0  0  1  0  0
  -31.3784  -15.4184   15.7063 C   0  0  2  0  0  0  0  0  0  0  0  0
  -33.4035   -9.2084   23.6518 C   0  0  0  0  0  0  0  0  0  0  0  0
  -33.4221  -16.8259   15.3821 C   0  0  0  0  0  0  0  0  0  0  0  0
  -34.1236  -15.0234   27.3649 C   0  0  0  0  0  0  0  0  0  0  0  0
  -35.2224  -12.9875   26.4080 C   0  0  0  0  0  0  0  0  0  0  0  0
  -33.6441  -12.7653   28.3269 C   0  0  0  0  0  0  0  0  0  0  0  0
  -29.8031  -10.3423   24.1294 C   0  0  0  0  0  0  0  0  0  0  0  0
  -31.8443  -17.3907   17.2529 C   0  0  0  0  0  0  0  0  0  0  0  0
  -32.7349  -13.3042   26.0301 C   0  0  1  0  0  0  0  0  0  0  0  0
  -32.2616   -9.9492   24.3301 C   0  0  2  0  0  0  0  0  0  0  0  0
  -32.4389  -16.2441   16.4074 C   0  0  1  0  0  0  0  0  0  0  0  0
  -33.9142  -13.5363   27.0164 C   0  0  0  0  0  0  0  0  0  0  0  0
  -25.8466  -11.5431   20.5262 N   0  0  0  0  0  0  0  0  0  0  0  0
  -26.2279  -12.8182   20.3399 N   0  0  0  0  0  0  0  0  0  0  0  0
  -30.8045  -14.8333   25.7866 N   0  0  0  0  0  0  0  0  0  0  0  0
  -29.3569  -13.4302   18.2153 N   0  0  0  0  0  0  0  0  0  0  0  0
  -30.8061  -14.4075   16.5983 N   0  0  0  0  0  0  0  0  0  0  0  0
  -25.4216  -15.0452   20.3065 N   0  0  0  0  0  0  0  0  0  0  0  0
  -21.7327  -12.6155   21.2469 N   0  0  0  0  0  0  0  0  0  0  0  0
  -29.4518  -17.2027   28.0858 N   0  0  0  0  0  0  0  0  0  0  0  0
  -32.4962  -11.9025   25.7034 N   0  0  0  0  0  0  0  0  0  0  0  0
  -31.0116   -9.6920   23.5604 N   0  3  0  0  0  0  0  0  0  0  0  0
  -22.5228  -14.7383   20.8892 O   0  0  0  0  0  0  0  0  0  0  0  0
  -31.1288  -17.3685   26.4788 O   0  0  0  0  0  0  0  0  0  0  0  0
  -30.9727  -13.3967   27.6153 O   0  0  0  0  0  0  0  0  0  0  0  0
  -32.7709  -12.1251   23.4117 O   0  0  0  0  0  0  0  0  0  0  0  0
  -28.9518  -15.5067   17.2968 O   0  0  0  0  0  0  0  0  0  0  0  0
  -21.4854   -7.0756   21.7794 O   0  0  0  0  0  0  0  0  0  0  0  0
  -30.5403  -17.8038   20.3703 O   0  0  0  0  0  0  0  0  0  1  0  0
  -23.5715   -3.3072   25.2220 F   0  0  0  0  0  0  0  0  0  0  0  0
  -20.1537   -6.3842   24.1013 F   0  0  0  0  0  0  0  0  0  0  0  0
  1  2  1  0  0  0  0
  1  5  2  0  0  0  0
  2  6  2  0  0  0  0
  3  8  2  0  0  0  0
  3 15  1  0  0  0  0
  4  9  1  0  0  0  0
  4 15  2  0  0  0  0
  5 17  1  0  0  0  0
  6 19  1  0  0  0  0
  7 10  2  0  0  0  0
  7 18  1  0  0  0  0
  8 21  1  0  0  0  0
  9 21  2  0  0  0  0
 10 22  1  0  0  0  0
 11 12  2  0  0  0  0
 11 23  1  0  0  0  0
 12 24  1  0  0  0  0
 13 20  1  0  0  0  0
 13 22  2  0  0  0  0
 14 24  2  0  0  0  0
 14 25  1  0  0  0  0
 15 26  1  0  0  0  0
 16 26  1  0  0  0  0
 16 27  2  0  0  0  0
 16 28  1  0  0  0  0
 17 19  2  0  0  0  0
 17 33  1  0  0  0  0
 18 20  2  0  0  0  0
 18 34  1  0  0  0  0
 19 46  1  0  0  0  0
 20 35  1  0  0  0  0
 21 78  1  0  0  0  0
 22 79  1  0  0  0  0
 23 25  2  0  0  0  0
 23 78  1  0  0  0  0
 24 80  1  0  0  0  0
 25 81  1  0  0  0  0
 26 63  2  0  0  0  0
 27 64  1  0  0  0  0
 27 68  1  0  0  0  0
 28 69  1  0  0  0  0
 28 73  2  0  0  0  0
 29 47  1  0  0  0  0
 29 70  1  0  0  0  0
 29 74  2  0  0  0  0
 30 59  1  0  0  0  0
 30 65  1  0  0  0  0
 30 75  2  0  0  0  0
 31 60  1  0  0  0  0
 31 71  1  0  0  0  0
 31 76  2  0  0  0  0
 32 66  1  0  0  0  0
 32 67  1  0  0  0  0
 32 77  2  0  0  0  0
 33 36  1  0  0  0  0
 34 47  1  0  0  0  0
 35 65  1  0  0  0  0
 36 38  1  0  0  0  0
 37 39  1  0  0  0  0
 37 43  1  0  0  0  0
 38 46  1  0  0  0  0
 39 49  1  0  0  0  0
 40 44  1  0  0  0  0
 40 51  1  0  0  0  0
 41 48  1  0  0  0  0
 41 50  1  0  0  0  0
 42 48  1  0  0  0  0
 42 50  1  0  0  0  0
 43 66  1  0  0  0  0
 44 67  1  0  0  0  0
 45 49  1  0  0  0  0
 45 66  1  0  0  0  0
 46 70  1  0  0  0  0
 47 65  1  0  0  0  0
 48 58  1  0  0  0  0
 49 64  1  0  0  0  0
 50 79  1  0  0  0  0
 51 61  1  0  0  0  0
 51 67  1  0  0  0  0
 52 60  1  0  0  0  0
 53 61  1  0  0  0  0
 54 62  1  0  0  0  0
 55 62  1  0  0  0  0
 56 62  1  0  0  0  0
 57 72  1  0  0  0  0
 58 61  1  0  0  0  0
 59 62  1  0  0  0  0
 59 71  1  0  0  0  0
 60 72  1  0  0  0  0
 63 64  1  0  0  0  0
M  CHG  1  72   1
M  ISO  4  32 100  50 101  67 100  79 101
M  END
> <Batch ID>
0186

> <Smiles>
CNC(C)C(=O)NC(C(=O)N1Cc2cc([101O:1][101CH:1]3CC(CC(C)C4CC[100N:0]4[100C:0](=O)N4CCCC(n5nc(-c6ccc(Oc7ccc(F)cc7F)cc6)c(C(N)=O)c5N)C4)C3)ccc2CC1C(=O)NC1CCCc2ccccc21)C(C)(C)C

> <Shape>
0.174

> <Color>
0.203

> <Negative vol penalty>
0.000

$$$$

  -OEChem-04052323143D

 83 92  0     1  0  0  0  0  0999 V2000
  -18.2215  -24.3702   23.4084 C   0  0  0  0  0  0  0  0  0  0  0  0
  -19.5276  -24.2567   22.9428 C   0  0  0  0  0  0  0  0  0  0  0  0
  -27.2252  -11.4344   21.0994 C   0  0  0  0  0  0  0  0  0  0  0  0
  -27.8387  -10.7078   18.8784 C   0  0  0  0  0  0  0  0  0  0  0  0
  -17.5882  -25.6123   23.4085 C   0  0  0  0  0  0  0  0  0  0  0  0
  -20.2007  -25.3852   22.4760 C   0  0  0  0  0  0  0  0  0  0  0  0
  -24.9472  -25.6749   24.2171 C   0  0  0  0  0  0  0  0  0  0  0  0
  -26.3459  -10.3572   21.2089 C   0  0  0  0  0  0  0  0  0  0  0  0
  -26.9594   -9.6305   18.9880 C   0  0  0  0  0  0  0  0  0  0  0  0
  -25.9005  -24.8621   23.6053 C   0  0  0  0  0  0  0  0  0  0  0  0
  -23.2453   -9.5536   20.1295 C   0  0  0  0  0  0  0  0  0  0  0  0
  -21.9742   -9.8055   20.6456 C   0  0  0  0  0  0  0  0  0  0  0  0
  -26.6578  -26.7435   22.2993 C   0  0  0  0  0  0  0  0  0  0  0  0
  -22.3989   -8.2547   22.4488 C   0  0  0  0  0  0  0  0  0  0  0  0
  -30.9319  -21.6340   21.7693 C   0  0  0  0  0  0  0  0  0  0  0  0
  -27.9715  -11.6098   19.9341 C   0  0  0  0  0  0  0  0  0  0  0  0
  -30.2387  -12.7518   20.1858 C   0  0  0  0  0  0  0  0  0  0  0  0
  -18.2572  -26.7582   22.9504 C   0  0  0  0  0  0  0  0  0  0  0  0
  -24.8346  -27.0279   23.8660 C   0  0  0  0  0  0  0  0  0  0  0  0
  -19.5752  -26.6435   22.4687 C   0  0  0  0  0  0  0  0  0  0  0  0
  -25.7040  -27.5720   22.9099 C   0  0  0  0  0  0  0  0  0  0  0  0
  -26.2130   -9.4552   20.1533 C   0  0  0  0  0  0  0  0  0  0  0  0
  -26.7541  -25.3956   22.6442 C   0  0  0  0  0  0  0  0  0  0  0  0
  -24.0933   -8.6522   20.7731 C   0  0  0  0  0  0  0  0  0  0  0  0
  -21.5510   -9.1560   21.8052 C   0  0  0  0  0  0  0  0  0  0  0  0
  -23.6701   -8.0028   21.9327 C   0  0  0  0  0  0  0  0  0  0  0  0
  -28.8796  -12.7227   19.8201 C   0  0  0  0  0  0  0  0  0  0  0  0
  -30.8080  -21.2805   20.4438 C   0  0  0  0  0  0  0  0  0  0  0  0
  -28.7071  -22.1827   20.3996 C   0  0  0  0  0  0  0  0  0  0  0  0
  -28.8308  -22.5356   21.7254 C   0  0  0  0  0  0  0  0  0  0  0  0
  -30.6490  -14.0267   19.8811 C   0  0  0  0  0  0  0  0  0  0  0  0
  -31.0572  -11.7188   20.7503 C   0  0  0  0  0  0  0  0  0  0  0  0
  -22.5513  -28.8303   22.5848 C   0  0  0  0  0  0  0  0  0  0  0  0
  -24.6392  -31.2334   23.2080 C   0  0  0  0  0  0  0  0  0  0  0  0
  -27.8687  -32.2007   23.7386 C   0  0  0  0  0  0  0  0  0  0  0  0
  -27.5815  -19.0850   19.5190 C   0  0  0  0  0  0  0  0  0  0  0  0
  -17.5150  -28.0709   22.9257 C   0  0  0  0  0  0  0  0  0  0  0  0
  -23.8188  -27.8977   24.5545 C   0  0  0  0  0  0  0  0  0  0  0  0
  -25.6374  -29.0232   22.5123 C   0  0  0  0  0  0  0  0  0  0  0  0
  -18.4277  -29.2838   22.7638 C   0  0  0  0  0  0  0  0  0  0  0  0
  -29.7511  -17.6581   16.9313 C   0  0  0  0  0  0  0  0  0  0  0  0
  -19.4426  -29.0433   21.6507 C   0  0  0  0  0  0  0  0  0  0  0  0
  -29.8431  -16.2078   17.3937 C   0  0  0  0  0  0  0  0  0  0  0  0
  -25.2715  -21.3842   18.7083 C   0  0  0  0  0  0  0  0  0  0  0  0
  -28.3880  -18.2804   17.2363 C   0  0  0  0  0  0  0  0  0  0  0  0
  -26.0429  -20.3792   17.8472 C   0  0  0  0  0  0  0  0  0  0  0  0
  -28.0781  -16.6988   19.1220 C   0  0  0  0  0  0  0  0  0  0  0  0
  -20.3471  -27.8489   21.9774 C   0  0  1  0  0  0  0  0  0  0  0  0
  -23.4507  -29.1393   23.7481 C   0  0  1  0  0  0  0  0  0  0  0  0
  -29.4668  -16.0918   18.8782 C   0  0  1  0  0  0  0  0  0  0  0  0
  -26.4414  -21.3647   19.7040 C   0  0  2  0  0  0  0  0  0  0  0  0
  -31.9183  -20.5801   19.7419 C   0  0  0  0  0  0  0  0  0  0  0  0
  -29.2677  -34.2361   24.1831 C   0  0  0  0  0  0  0  0  0  0  0  0
  -24.3895  -32.0422   20.2765 C   0  0  0  0  0  0  0  0  0  0  0  0
  -26.4631  -33.4180   20.5517 C   0  0  0  0  0  0  0  0  0  0  0  0
  -24.4256  -33.9551   21.8871 C   0  0  0  0  0  0  0  0  0  0  0  0
  -28.7963  -31.1376   26.3402 C   0  0  0  0  0  0  0  0  0  0  0  0
  -27.4543  -22.4893   19.6180 C   0  0  0  0  0  0  0  0  0  0  0  0
  -27.7323  -23.2367   22.4489 C   0  0  0  0  0  0  0  0  0  1  0  0
  -25.7697  -31.8900   22.4532 C   0  0  1  0  0  0  0  0  0  0  0  0
  -28.4937  -33.0835   24.8038 C   0  0  2  0  0  0  0  0  0  0  0  0
  -25.2622  -32.7985   21.2980 C   0  0  0  0  0  0  0  0  0  0  0  0
  -29.9455  -22.2679   22.4340 N   0  0  0  0  0  0  0  0  0  0  0  0
  -28.4548  -13.8866   19.3214 N   0  0  0  0  0  0  0  0  0  0  0  0
  -29.6934  -21.5485   19.7351 N   0  0  0  0  0  0  0  0  0  0  0  0
  -29.5533  -14.6591   19.3716 N   0  0  0  0  0  0  0  0  0  0  0  0
  -24.6232  -29.8314   23.2093 N   0  0  0  0  0  0  0  0  0  0  0  0
  -27.9956  -18.0814   18.6365 N   0  0  0  0  0  0  0  0  0  0  0  0
  -26.9056  -20.1670   19.0002 N   0  0  0  0  0  0  0  0  0  0  0  0
  -31.8365  -14.6572   20.0021 N   0  0  0  0  0  0  0  0  0  0  0  0
  -30.4765  -10.4679   21.0000 N   0  0  0  0  0  0  0  0  0  0  0  0
  -21.3587  -28.2293   22.9398 N   0  0  0  0  0  0  0  0  0  0  0  0
  -26.5764  -32.5856   23.4501 N   0  0  0  0  0  0  0  0  0  0  0  0
  -29.4297  -32.2905   25.6499 N   0  3  0  0  0  0  0  0  0  0  0  0
  -32.2633  -11.9047   21.0405 O   0  0  0  0  0  0  0  0  0  0  0  0
  -22.9120  -29.1173   21.4494 O   0  0  0  0  0  0  0  0  0  0  0  0
  -23.8051  -31.9384   23.7815 O   0  0  0  0  0  0  0  0  0  0  0  0
  -28.4682  -31.2658   23.2123 O   0  0  0  0  0  0  0  0  0  0  0  0
  -27.7803  -19.0061   20.7385 O   0  0  0  0  0  0  0  0  0  0  0  0
  -25.3553   -8.4038   20.2599 O   0  0  0  0  0  0  0  0  0  0  0  0
  -27.6914  -24.5989   22.0410 O   0  0  0  0  0  0  0  0  0  1  0  0
  -20.3308   -9.3992   22.3015 F   0  0  0  0  0  0  0  0  0  0  0  0
  -24.4807   -7.1366   22.5560 F   0  0  0  0  0  0  0  0  0  0  0  0
  1  2  1  0  0  0  0
  1  5  2  0  0  0  0
  2  6  2  0  0  0  0
  3  8  2  0  0  0  0
  3 16  1  0  0  0  0
  4  9  1  0  0  0  0
  4 16  2  0  0  0  0
  5 18  1  0  0  0  0
  6 20  1  0  0  0  0
  7 10  2  0  0  0  0
  7 19  1  0  0  0  0
  8 22  1  0  0  0  0
  9 22  2  0  0  0  0
 10 23  1  0  0  0  0
 11 12  2  0  0  0  0
 11 24  1  0  0  0  0
 12 25  1  0  0  0  0
 13 21  1  0  0  0  0
 13 23  2  0  0  0  0
 14 25  2  0  0  0  0
 14 26  1  0  0  0  0
 15 28  1  0  0  0  0
 15 63  2  0  0  0  0
 16 27  1  0  0  0  0
 17 27  1  0  0  0  0
 17 31  2  0  0  0  0
 17 32  1  0  0  0  0
 18 20  2  0  0  0  0
 18 37  1  0  0  0  0
 19 21  2  0  0  0  0
 19 38  1  0  0  0  0
 20 48  1  0  0  0  0
 21 39  1  0  0  0  0
 22 80  1  0  0  0  0
 23 81  1  0  0  0  0
 24 26  2  0  0  0  0
 24 80  1  0  0  0  0
 25 82  1  0  0  0  0
 26 83  1  0  0  0  0
 27 64  2  0  0  0  0
 28 52  1  0  0  0  0
 28 65  2  0  0  0  0
 29 30  2  0  0  0  0
 29 58  1  0  0  0  0
 29 65  1  0  0  0  0
 30 59  1  0  0  0  0
 30 63  1  0  0  0  0
 31 66  1  0  0  0  0
 31 70  1  0  0  0  0
 32 71  1  0  0  0  0
 32 75  2  0  0  0  0
 33 49  1  0  0  0  0
 33 72  1  0  0  0  0
 33 76  2  0  0  0  0
 34 60  1  0  0  0  0
 34 67  1  0  0  0  0
 34 77  2  0  0  0  0
 35 61  1  0  0  0  0
 35 73  1  0  0  0  0
 35 78  2  0  0  0  0
 36 68  1  0  0  0  0
 36 69  1  0  0  0  0
 36 79  2  0  0  0  0
 37 40  1  0  0  0  0
 38 49  1  0  0  0  0
 39 67  1  0  0  0  0
 40 42  1  0  0  0  0
 41 43  1  0  0  0  0
 41 45  1  0  0  0  0
 42 48  1  0  0  0  0
 43 50  1  0  0  0  0
 44 46  1  0  0  0  0
 44 51  1  0  0  0  0
 45 68  1  0  0  0  0
 46 69  1  0  0  0  0
 47 50  1  0  0  0  0
 47 68  1  0  0  0  0
 48 72  1  0  0  0  0
 49 67  1  0  0  0  0
 50 66  1  0  0  0  0
 51 58  1  0  0  0  0
 51 69  1  0  0  0  0
 53 61  1  0  0  0  0
 54 62  1  0  0  0  0
 55 62  1  0  0  0  0
 56 62  1  0  0  0  0
 57 74  1  0  0  0  0
 59 81  1  0  0  0  0
 60 62  1  0  0  0  0
 60 73  1  0  0  0  0
 61 74  1  0  0  0  0
 64 66  1  0  0  0  0
M  CHG  1  74   1
M  ISO  4  36 100  59 101  69 100  81 101
M  END
> <Batch ID>
0186

> <Smiles>
CNC(C)C(=O)NC(C(=O)N1Cc2cc([101O:1][101CH2:1]c3ncc(C)nc3CC3CC[100N:0]3[100C:0](=O)N3CCCC(n4nc(-c5ccc(Oc6ccc(F)cc6F)cc5)c(C(N)=O)c4N)C3)ccc2CC1C(=O)NC1CCCc2ccccc21)C(C)(C)C

> <Shape>
0.256

> <Color>
0.085

> <Negative vol penalty>
0.000

$$$$

  -OEChem-04052323143D

 84 93  0     1  0  0  0  0  0999 V2000
  -27.7077  -37.8918   21.1896 C   0  0  0  0  0  0  0  0  0  0  0  0
  -27.9225  -36.8261   20.3216 C   0  0  0  0  0  0  0  0  0  0  0  0
  -22.6891  -11.3248   19.2163 C   0  0  0  0  0  0  0  0  0  0  0  0
  -23.2733   -9.9010   21.0787 C   0  0  0  0  0  0  0  0  0  0  0  0
  -27.4795  -37.6513   22.5439 C   0  0  0  0  0  0  0  0  0  0  0  0
  -27.9102  -35.5192   20.8075 C   0  0  0  0  0  0  0  0  0  0  0  0
  -26.1495  -28.8545   18.8585 C   0  0  0  0  0  0  0  0  0  0  0  0
  -21.6740  -10.4382   18.8569 C   0  0  0  0  0  0  0  0  0  0  0  0
  -22.2582   -9.0144   20.7193 C   0  0  0  0  0  0  0  0  0  0  0  0
  -26.6898  -27.5706   18.8021 C   0  0  0  0  0  0  0  0  0  0  0  0
  -18.9001   -8.8129   21.0406 C   0  0  0  0  0  0  0  0  0  0  0  0
  -18.0795   -8.3235   22.0567 C   0  0  0  0  0  0  0  0  0  0  0  0
  -26.2068  -27.2708   21.1464 C   0  0  0  0  0  0  0  0  0  0  0  0
  -18.7648   -6.0687   21.5241 C   0  0  0  0  0  0  0  0  0  0  0  0
  -29.2087  -23.1644   21.2749 C   0  0  0  0  0  0  0  0  0  0  0  0
  -23.4888  -11.0562   20.3271 C   0  0  0  0  0  0  0  0  0  0  0  0
  -24.4370  -13.0712   21.5714 C   0  0  0  0  0  0  0  0  0  0  0  0
  -27.4549  -36.3402   23.0450 C   0  0  0  0  0  0  0  0  0  0  0  0
  -25.6427  -29.3612   20.0639 C   0  0  0  0  0  0  0  0  0  0  0  0
  -27.6828  -35.2609   22.1700 C   0  0  0  0  0  0  0  0  0  0  0  0
  -25.6582  -28.5606   21.2149 C   0  0  0  0  0  0  0  0  0  0  0  0
  -27.9285  -23.4211   20.8283 C   0  0  0  0  0  0  0  0  0  0  0  0
  -21.4585   -9.2831   19.6084 C   0  0  0  0  0  0  0  0  0  0  0  0
  -26.7212  -26.7796   19.9468 C   0  0  0  0  0  0  0  0  0  0  0  0
  -19.6531   -7.9303   20.2661 C   0  0  0  0  0  0  0  0  0  0  0  0
  -18.0118   -6.9514   22.2985 C   0  0  0  0  0  0  0  0  0  0  0  0
  -19.5854   -6.5582   20.5079 C   0  0  0  0  0  0  0  0  0  0  0  0
  -24.5379  -11.9713   20.6986 C   0  0  0  0  0  0  0  0  0  0  0  0
  -27.3198  -22.3932   20.1374 C   0  0  0  0  0  0  0  0  0  0  0  0
  -25.6994  -13.6119   21.5898 C   0  0  0  0  0  0  0  0  0  0  0  0
  -29.1551  -21.0745   20.3824 C   0  0  0  0  0  0  0  0  0  0  0  0
  -23.3034  -13.5604   22.3004 C   0  0  0  0  0  0  0  0  0  0  0  0
  -26.3745  -31.8123   21.9508 C   0  0  0  0  0  0  0  0  0  0  0  0
  -23.7013  -30.8855   23.5373 C   0  0  0  0  0  0  0  0  0  0  0  0
  -21.4958  -28.3917   24.2880 C   0  0  0  0  0  0  0  0  0  0  0  0
  -30.1648  -15.3058   18.5784 C   0  0  0  0  0  0  0  0  0  0  0  0
  -27.2513  -36.1324   24.5248 C   0  0  0  0  0  0  0  0  0  0  0  0
  -25.0388  -30.7383   20.1019 C   0  0  0  0  0  0  0  0  0  0  0  0
  -25.1084  -29.0502   22.5289 C   0  0  0  0  0  0  0  0  0  0  0  0
  -26.8821  -34.6977   24.8933 C   0  0  0  0  0  0  0  0  0  0  0  0
  -30.0813  -11.8425   19.7913 C   0  0  0  0  0  0  0  0  0  0  0  0
  -27.7975  -33.7101   24.1768 C   0  0  0  0  0  0  0  0  0  0  0  0
  -28.6101  -11.6483   20.1607 C   0  0  0  0  0  0  0  0  0  0  0  0
  -28.2813  -17.9292   20.3353 C   0  0  0  0  0  0  0  0  0  0  0  0
  -30.2571  -12.8407   18.6492 C   0  0  0  0  0  0  0  0  0  0  0  0
  -28.1952  -16.6130   19.5696 C   0  0  0  0  0  0  0  0  0  0  0  0
  -28.1334  -13.9452   19.2352 C   0  0  0  0  0  0  0  0  0  0  0  0
  -30.2247  -17.7510   18.9769 C   0  0  0  0  0  0  0  0  0  0  0  0
  -27.6525  -33.8277   22.6548 C   0  0  1  0  0  0  0  0  0  0  0  0
  -25.0193  -31.3437   21.5020 C   0  0  1  0  0  0  0  0  0  0  0  0
  -27.9210  -13.0000   20.4258 C   0  0  1  0  0  0  0  0  0  0  0  0
  -29.1889  -18.7648   19.4392 C   0  0  2  0  0  0  0  0  0  0  0  0
  -25.9326  -22.5564   19.6096 C   0  0  0  0  0  0  0  0  0  0  0  0
  -19.4345  -27.9262   25.6415 C   0  0  0  0  0  0  0  0  0  0  0  0
  -25.3928  -30.7867   26.0749 C   0  0  0  0  0  0  0  0  0  0  0  0
  -23.5774  -29.4380   27.1490 C   0  0  0  0  0  0  0  0  0  0  0  0
  -23.1113  -31.7646   26.3794 C   0  0  0  0  0  0  0  0  0  0  0  0
  -19.9232  -27.7135   21.8743 C   0  0  0  0  0  0  0  0  0  0  0  0
  -27.2709  -24.7270   21.0883 C   0  0  0  0  0  0  0  0  0  1  0  0
  -23.4062  -29.9283   24.6668 C   0  0  1  0  0  0  0  0  0  0  0  0
  -19.9782  -28.3552   24.2876 C   0  0  2  0  0  0  0  0  0  0  0  0
  -23.8841  -30.4706   26.0434 C   0  0  0  0  0  0  0  0  0  0  0  0
  -29.8547  -21.9979   21.0689 N   0  0  0  0  0  0  0  0  0  0  0  0
  -25.7673  -11.8210   20.1985 N   0  0  0  0  0  0  0  0  0  0  0  0
  -27.9061  -21.2024   19.8953 N   0  0  0  0  0  0  0  0  0  0  0  0
  -26.4505  -12.8336   20.7589 N   0  0  0  0  0  0  0  0  0  0  0  0
  -24.5342  -30.4058   22.5166 N   0  0  0  0  0  0  0  0  0  0  0  0
  -29.5619  -14.0954   18.9374 N   0  0  0  0  0  0  0  0  0  0  0  0
  -29.4997  -16.4841   18.9150 N   0  0  0  0  0  0  0  0  0  0  0  0
  -26.2293  -14.6726   22.2353 N   0  0  0  0  0  0  0  0  0  0  0  0
  -22.0819  -12.8863   22.1673 N   0  0  0  0  0  0  0  0  0  0  0  0
  -29.7892  -19.8610   20.1526 N   0  0  0  0  0  0  0  0  0  0  0  0
  -26.4438  -33.1678   22.2098 N   0  0  0  0  0  0  0  0  0  0  0  0
  -21.9765  -29.6459   24.5996 N   0  0  0  0  0  0  0  0  0  0  0  0
  -19.4833  -27.3983   23.2578 N   0  3  0  0  0  0  0  0  0  0  0  0
  -23.3678  -14.5753   23.0349 O   0  0  0  0  0  0  0  0  0  0  0  0
  -27.2892  -31.0036   22.0557 O   0  0  0  0  0  0  0  0  0  0  0  0
  -23.2051  -32.0147   23.5564 O   0  0  0  0  0  0  0  0  0  0  0  0
  -22.1858  -27.4052   24.0406 O   0  0  0  0  0  0  0  0  0  0  0  0
  -31.2713  -15.3345   18.0235 O   0  0  0  0  0  0  0  0  0  0  0  0
  -20.4679   -8.4178   19.2582 O   0  0  0  0  0  0  0  0  0  0  0  0
  -27.2586  -25.5027   19.8937 O   0  0  0  0  0  0  0  0  0  1  0  0
  -17.2249   -6.4816   23.2753 F   0  0  0  0  0  0  0  0  0  0  0  0
  -20.3073   -5.7055   19.7680 F   0  0  0  0  0  0  0  0  0  0  0  0
  1  2  1  0  0  0  0
  1  5  2  0  0  0  0
  2  6  2  0  0  0  0
  3  8  2  0  0  0  0
  3 16  1  0  0  0  0
  4  9  1  0  0  0  0
  4 16  2  0  0  0  0
  5 18  1  0  0  0  0
  6 20  1  0  0  0  0
  7 10  2  0  0  0  0
  7 19  1  0  0  0  0
  8 23  1  0  0  0  0
  9 23  2  0  0  0  0
 10 24  1  0  0  0  0
 11 12  2  0  0  0  0
 11 25  1  0  0  0  0
 12 26  1  0  0  0  0
 13 21  1  0  0  0  0
 13 24  2  0  0  0  0
 14 26  2  0  0  0  0
 14 27  1  0  0  0  0
 15 22  1  0  0  0  0
 15 63  2  0  0  0  0
 16 28  1  0  0  0  0
 17 28  1  0  0  0  0
 17 30  2  0  0  0  0
 17 32  1  0  0  0  0
 18 20  2  0  0  0  0
 18 37  1  0  0  0  0
 19 21  2  0  0  0  0
 19 38  1  0  0  0  0
 20 49  1  0  0  0  0
 21 39  1  0  0  0  0
 22 29  2  0  0  0  0
 22 59  1  0  0  0  0
 23 81  1  0  0  0  0
 24 82  1  0  0  0  0
 25 27  2  0  0  0  0
 25 81  1  0  0  0  0
 26 83  1  0  0  0  0
 27 84  1  0  0  0  0
 28 64  2  0  0  0  0
 29 53  1  0  0  0  0
 29 65  1  0  0  0  0
 30 66  1  0  0  0  0
 30 70  1  0  0  0  0
 31 63  1  0  0  0  0
 31 65  2  0  0  0  0
 31 72  1  0  0  0  0
 32 71  1  0  0  0  0
 32 76  2  0  0  0  0
 33 50  1  0  0  0  0
 33 73  1  0  0  0  0
 33 77  2  0  0  0  0
 34 60  1  0  0  0  0
 34 67  1  0  0  0  0
 34 78  2  0  0  0  0
 35 61  1  0  0  0  0
 35 74  1  0  0  0  0
 35 79  2  0  0  0  0
 36 68  1  0  0  0  0
 36 69  1  0  0  0  0
 36 80  2  0  0  0  0
 37 40  1  0  0  0  0
 38 50  1  0  0  0  0
 39 67  1  0  0  0  0
 40 42  1  0  0  0  0
 41 43  1  0  0  0  0
 41 45  1  0  0  0  0
 42 49  1  0  0  0  0
 43 51  1  0  0  0  0
 44 46  1  0  0  0  0
 44 52  1  0  0  0  0
 45 68  1  0  0  0  0
 46 69  1  0  0  0  0
 47 51  1  0  0  0  0
 47 68  1  0  0  0  0
 48 52  1  0  0  0  0
 48 69  1  0  0  0  0
 49 73  1  0  0  0  0
 50 67  1  0  0  0  0
 51 66  1  0  0  0  0
 52 72  1  0  0  0  0
 54 61  1  0  0  0  0
 55 62  1  0  0  0  0
 56 62  1  0  0  0  0
 57 62  1  0  0  0  0
 58 75  1  0  0  0  0
 59 82  1  0  0  0  0
 60 62  1  0  0  0  0
 60 74  1  0  0  0  0
 61 75  1  0  0  0  0
 64 66  1  0  0  0  0
M  CHG  1  75   1
M  ISO  4  36 100  59 101  69 100  82 101
M  END
> <Batch ID>
0186

> <Smiles>
CNC(C)C(=O)NC(C(=O)N1Cc2cc([101O:1][101CH2:1]c3cnc(NC4CC[100N:0]([100C:0](=O)N5CCCC(n6nc(-c7ccc(Oc8ccc(F)cc8F)cc7)c(C(N)=O)c6N)C5)C4)nc3C)ccc2CC1C(=O)NC1CCCc2ccccc21)C(C)(C)C

> <Shape>
0.303

> <Color>
0.127

> <Negative vol penalty>
0.000

$$$$

  -OEChem-04052323143D

 84 93  0     1  0  0  0  0  0999 V2000
  -27.5126  -37.6259   20.7658 C   0  0  0  0  0  0  0  0  0  0  0  0
  -27.9214  -36.3803   20.3002 C   0  0  0  0  0  0  0  0  0  0  0  0
  -23.1421  -10.4565   21.8079 C   0  0  0  0  0  0  0  0  0  0  0  0
  -24.7846   -8.6855   21.7553 C   0  0  0  0  0  0  0  0  0  0  0  0
  -26.8271  -37.7259   21.9758 C   0  0  0  0  0  0  0  0  0  0  0  0
  -27.6461  -35.2341   21.0450 C   0  0  0  0  0  0  0  0  0  0  0  0
  -26.3358  -29.6596   18.8738 C   0  0  0  0  0  0  0  0  0  0  0  0
  -22.1257   -9.5194   21.6220 C   0  0  0  0  0  0  0  0  0  0  0  0
  -23.7683   -7.7484   21.5695 C   0  0  0  0  0  0  0  0  0  0  0  0
  -27.1142  -28.5176   18.6903 C   0  0  0  0  0  0  0  0  0  0  0  0
  -21.4654   -6.1642   23.4689 C   0  0  0  0  0  0  0  0  0  0  0  0
  -21.5154   -4.9966   24.2303 C   0  0  0  0  0  0  0  0  0  0  0  0
  -30.7666  -25.0093   18.1623 C   0  0  0  0  0  0  0  0  0  0  0  0
  -26.3582  -27.6678   20.8176 C   0  0  0  0  0  0  0  0  0  0  0  0
  -28.6770  -23.8240   18.2757 C   0  0  0  0  0  0  0  0  0  0  0  0
  -21.6272   -3.6816   22.2066 C   0  0  0  0  0  0  0  0  0  0  0  0
  -31.4011  -23.7781   18.1242 C   0  0  0  0  0  0  0  0  0  0  0  0
  -24.4715  -10.0395   21.8745 C   0  0  0  0  0  0  0  0  0  0  0  0
  -26.0486  -11.4590   23.2907 C   0  0  0  0  0  0  0  0  0  0  0  0
  -26.5347  -36.5793   22.7311 C   0  0  0  0  0  0  0  0  0  0  0  0
  -25.5699  -29.8195   20.0375 C   0  0  0  0  0  0  0  0  0  0  0  0
  -26.9573  -35.3190   22.2669 C   0  0  0  0  0  0  0  0  0  0  0  0
  -25.5689  -28.8115   21.0123 C   0  0  0  0  0  0  0  0  0  0  0  0
  -29.3784  -25.0240   18.2395 C   0  0  0  0  0  0  0  0  0  0  0  0
  -22.4388   -8.1654   21.5028 C   0  0  0  0  0  0  0  0  0  0  0  0
  -27.1278  -27.5228   19.6636 C   0  0  0  0  0  0  0  0  0  0  0  0
  -21.4962   -6.0905   22.0762 C   0  0  0  0  0  0  0  0  0  0  0  0
  -21.5963   -3.7553   23.5992 C   0  0  0  0  0  0  0  0  0  0  0  0
  -21.5771   -4.8493   21.4451 C   0  0  0  0  0  0  0  0  0  0  0  0
  -25.5219  -11.0071   22.0659 C   0  0  0  0  0  0  0  0  0  0  0  0
  -29.4050  -22.6458   18.2322 C   0  0  0  0  0  0  0  0  0  0  0  0
  -27.0164  -12.3661   22.9345 C   0  0  0  0  0  0  0  0  0  0  0  0
  -25.6947  -11.0915   24.6307 C   0  0  0  0  0  0  0  0  0  0  0  0
  -25.5336  -31.9132   22.4290 C   0  0  0  0  0  0  0  0  0  0  0  0
  -22.8835  -30.2657   23.3151 C   0  0  0  0  0  0  0  0  0  0  0  0
  -21.1101  -27.3521   23.2003 C   0  0  0  0  0  0  0  0  0  0  0  0
  -28.8553  -16.5151   20.0693 C   0  0  0  0  0  0  0  0  0  0  0  0
  -25.8329  -36.7423   24.0561 C   0  0  0  0  0  0  0  0  0  0  0  0
  -24.7147  -31.0450   20.2082 C   0  0  0  0  0  0  0  0  0  0  0  0
  -24.7485  -28.9257   22.2703 C   0  0  0  0  0  0  0  0  0  0  0  0
  -25.2515  -35.4405   24.6016 C   0  0  0  0  0  0  0  0  0  0  0  0
  -29.0706  -13.4124   18.4395 C   0  0  0  0  0  0  0  0  0  0  0  0
  -26.2741  -34.3135   24.4958 C   0  0  0  0  0  0  0  0  0  0  0  0
  -28.2020  -12.5354   19.3409 C   0  0  0  0  0  0  0  0  0  0  0  0
  -28.2909  -19.1146   17.7644 C   0  0  0  0  0  0  0  0  0  0  0  0
  -29.8648  -19.7983   19.6146 C   0  0  0  0  0  0  0  0  0  0  0  0
  -28.4673  -14.8041   18.2404 C   0  0  0  0  0  0  0  0  0  0  0  0
  -28.8630  -17.6952   17.8256 C   0  0  0  0  0  0  0  0  0  0  0  0
  -30.4233  -18.3781   19.6197 C   0  0  0  0  0  0  0  0  0  0  0  0
  -27.2833  -14.6307   20.4053 C   0  0  0  0  0  0  0  0  0  0  0  0
  -26.6555  -34.0500   23.0341 C   0  0  1  0  0  0  0  0  0  0  0  0
  -24.3740  -31.3376   21.6662 C   0  0  1  0  0  0  0  0  0  0  0  0
  -27.8932  -13.2456   20.6710 C   0  0  1  0  0  0  0  0  0  0  0  0
  -29.3131  -20.1535   18.2314 C   0  0  0  0  0  0  0  0  0  0  0  0
  -18.9999  -26.2955   24.0536 C   0  0  0  0  0  0  0  0  0  0  0  0
  -24.1709  -29.9161   26.0592 C   0  0  0  0  0  0  0  0  0  0  0  0
  -22.5095  -28.1035   26.5306 C   0  0  0  0  0  0  0  0  0  0  0  0
  -21.7249  -30.4343   26.1128 C   0  0  0  0  0  0  0  0  0  0  0  0
  -20.0686  -26.9449   20.4602 C   0  0  0  0  0  0  0  0  0  0  0  0
  -28.6455  -26.3215   18.2819 C   0  0  0  0  0  0  0  0  0  1  0  0
  -22.6143  -29.0616   24.1850 C   0  0  1  0  0  0  0  0  0  0  0  0
  -19.6444  -27.0755   22.9182 C   0  0  2  0  0  0  0  0  0  0  0  0
  -22.7720  -29.3773   25.6992 C   0  0  0  0  0  0  0  0  0  0  0  0
  -30.7538  -22.5918   18.1573 N   0  0  0  0  0  0  0  0  0  0  0  0
  -26.1065  -11.5801   21.0105 N   0  0  0  0  0  0  0  0  0  0  0  0
  -27.0106  -12.4013   21.5711 N   0  0  0  0  0  0  0  0  0  0  0  0
  -23.9337  -30.1456   22.3939 N   0  0  0  0  0  0  0  0  0  0  0  0
  -28.1527  -15.4249   19.5346 N   0  0  0  0  0  0  0  0  0  0  0  0
  -29.4225  -17.4164   19.1561 N   0  0  0  0  0  0  0  0  0  0  0  0
  -27.8633  -13.1291   23.6577 N   0  0  0  0  0  0  0  0  0  0  0  0
  -24.6785  -10.1445   24.8175 N   0  0  0  0  0  0  0  0  0  0  0  0
  -28.6935  -21.4599   18.2707 N   0  0  0  0  0  0  0  0  0  0  0  0
  -25.6174  -33.2912   22.3699 N   0  0  0  0  0  0  0  0  0  0  0  0
  -21.2907  -28.5753   23.8106 N   0  0  0  0  0  0  0  0  0  0  0  0
  -19.4987  -26.2852   21.6631 N   0  3  0  0  0  0  0  0  0  0  0  0
  -26.2514  -11.6004   25.6329 O   0  0  0  0  0  0  0  0  0  0  0  0
  -26.2949  -31.1627   23.0280 O   0  0  0  0  0  0  0  0  0  0  0  0
  -22.1830  -31.2729   23.4431 O   0  0  0  0  0  0  0  0  0  0  0  0
  -22.0049  -26.5605   22.9118 O   0  0  0  0  0  0  0  0  0  0  0  0
  -28.9693  -16.6743   21.2911 O   0  0  0  0  0  0  0  0  0  0  0  0
  -21.4473   -7.2507   21.3217 O   0  0  0  0  0  0  0  0  0  0  0  0
  -27.8924  -26.3998   19.4861 O   0  0  0  0  0  0  0  0  0  1  0  0
  -21.6459   -2.6342   24.3305 F   0  0  0  0  0  0  0  0  0  0  0  0
  -21.6083   -4.7722   20.1076 F   0  0  0  0  0  0  0  0  0  0  0  0
  1  2  1  0  0  0  0
  1  5  2  0  0  0  0
  2  6  2  0  0  0  0
  3  8  2  0  0  0  0
  3 18  1  0  0  0  0
  4  9  1  0  0  0  0
  4 18  2  0  0  0  0
  5 20  1  0  0  0  0
  6 22  1  0  0  0  0
  7 10  2  0  0  0  0
  7 21  1  0  0  0  0
  8 25  1  0  0  0  0
  9 25  2  0  0  0  0
 10 26  1  0  0  0  0
 11 12  2  0  0  0  0
 11 27  1  0  0  0  0
 12 28  1  0  0  0  0
 13 17  2  0  0  0  0
 13 24  1  0  0  0  0
 14 23  1  0  0  0  0
 14 26  2  0  0  0  0
 15 24  2  0  0  0  0
 15 31  1  0  0  0  0
 16 28  2  0  0  0  0
 16 29  1  0  0  0  0
 17 64  1  0  0  0  0
 18 30  1  0  0  0  0
 19 30  1  0  0  0  0
 19 32  2  0  0  0  0
 19 33  1  0  0  0  0
 20 22  2  0  0  0  0
 20 38  1  0  0  0  0
 21 23  2  0  0  0  0
 21 39  1  0  0  0  0
 22 51  1  0  0  0  0
 23 40  1  0  0  0  0
 24 60  1  0  0  0  0
 25 81  1  0  0  0  0
 26 82  1  0  0  0  0
 27 29  2  0  0  0  0
 27 81  1  0  0  0  0
 28 83  1  0  0  0  0
 29 84  1  0  0  0  0
 30 65  2  0  0  0  0
 31 64  2  0  0  0  0
 31 72  1  0  0  0  0
 32 66  1  0  0  0  0
 32 70  1  0  0  0  0
 33 71  1  0  0  0  0
 33 76  2  0  0  0  0
 34 52  1  0  0  0  0
 34 73  1  0  0  0  0
 34 77  2  0  0  0  0
 35 61  1  0  0  0  0
 35 67  1  0  0  0  0
 35 78  2  0  0  0  0
 36 62  1  0  0  0  0
 36 74  1  0  0  0  0
 36 79  2  0  0  0  0
 37 68  1  0  0  0  0
 37 69  1  0  0  0  0
 37 80  2  0  0  0  0
 38 41  1  0  0  0  0
 39 52  1  0  0  0  0
 40 67  1  0  0  0  0
 41 43  1  0  0  0  0
 42 44  1  0  0  0  0
 42 47  1  0  0  0  0
 43 51  1  0  0  0  0
 44 53  1  0  0  0  0
 45 48  1  0  0  0  0
 45 54  1  0  0  0  0
 46 49  1  0  0  0  0
 46 54  1  0  0  0  0
 47 68  1  0  0  0  0
 48 69  1  0  0  0  0
 49 69  1  0  0  0  0
 50 53  1  0  0  0  0
 50 68  1  0  0  0  0
 51 73  1  0  0  0  0
 52 67  1  0  0  0  0
 53 66  1  0  0  0  0
 54 72  1  0  0  0  0
 55 62  1  0  0  0  0
 56 63  1  0  0  0  0
 57 63  1  0  0  0  0
 58 63  1  0  0  0  0
 59 75  1  0  0  0  0
 60 82  1  0  0  0  0
 61 63  1  0  0  0  0
 61 74  1  0  0  0  0
 62 75  1  0  0  0  0
 65 66  1  0  0  0  0
M  CHG  1  75   1
M  ISO  4  37 100  60 101  69 100  82 101
M  END
> <Batch ID>
0186

> <Smiles>
CNC(C)C(=O)NC(C(=O)N1Cc2cc([101O:1][101CH2:1]c3ccnc(NC4CC[100N:0]([100C:0](=O)N5CCCC(n6nc(-c7ccc(Oc8ccc(F)cc8F)cc7)c(C(N)=O)c6N)C5)CC4)c3)ccc2CC1C(=O)NC1CCCc2ccccc21)C(C)(C)C

> <Shape>
0.351

> <Color>
0.105

> <Negative vol penalty>
0.000

$$$$

  -OEChem-04052323143D

 85 94  0     1  0  0  0  0  0999 V2000
  -30.6811  -24.3000   17.3521 C   0  0  0  0  0  0  0  0  0  0  0  0
  -29.7540  -23.4472   17.9427 C   0  0  0  0  0  0  0  0  0  0  0  0
  -27.8172  -17.0692   19.0639 C   0  0  0  0  0  0  0  0  0  0  0  0
  -27.2953  -17.4804   21.3868 C   0  0  0  0  0  0  0  0  0  0  0  0
  -30.8569  -25.5899   17.8512 C   0  0  0  0  0  0  0  0  0  0  0  0
  -29.0029  -23.8836   19.0335 C   0  0  0  0  0  0  0  0  0  0  0  0
  -23.2106  -22.3917   20.3482 C   0  0  0  0  0  0  0  0  0  0  0  0
  -28.4458  -18.3119   18.9852 C   0  0  0  0  0  0  0  0  0  0  0  0
  -27.9240  -18.7230   21.3081 C   0  0  0  0  0  0  0  0  0  0  0  0
  -22.6581  -21.4551   21.2207 C   0  0  0  0  0  0  0  0  0  0  0  0
  -29.7069  -21.8504   21.8172 C   0  0  0  0  0  0  0  0  0  0  0  0
  -30.5661  -22.2102   22.8554 C   0  0  0  0  0  0  0  0  0  0  0  0
  -22.4040  -23.1733   22.8947 C   0  0  0  0  0  0  0  0  0  0  0  0
  -31.9445  -20.2831   22.3826 C   0  0  0  0  0  0  0  0  0  0  0  0
  -19.5348  -19.2992   26.1690 C   0  0  0  0  0  0  0  0  0  0  0  0
  -27.2419  -16.6535   20.2647 C   0  0  0  0  0  0  0  0  0  0  0  0
  -27.1801  -14.1401   20.6966 C   0  0  0  0  0  0  0  0  0  0  0  0
  -30.1007  -26.0456   18.9426 C   0  0  0  0  0  0  0  0  0  0  0  0
  -23.3742  -23.7261   20.7469 C   0  0  0  0  0  0  0  0  0  0  0  0
  -29.1698  -25.1804   19.5485 C   0  0  0  0  0  0  0  0  0  0  0  0
  -22.9564  -24.1255   22.0245 C   0  0  0  0  0  0  0  0  0  0  0  0
  -28.4993  -19.1388   20.1073 C   0  0  0  0  0  0  0  0  0  0  0  0
  -22.2574  -21.8451   22.4952 C   0  0  0  0  0  0  0  0  0  0  0  0
  -29.9664  -20.7068   21.0618 C   0  0  0  0  0  0  0  0  0  0  0  0
  -31.6849  -21.4266   23.1381 C   0  0  0  0  0  0  0  0  0  0  0  0
  -31.0852  -19.9232   21.3444 C   0  0  0  0  0  0  0  0  0  0  0  0
  -26.5919  -15.3702   20.3465 C   0  0  0  0  0  0  0  0  0  0  0  0
  -19.2913  -17.6163   24.1109 C   0  0  0  0  0  0  0  0  0  0  0  0
  -20.5788  -19.0894   25.2951 C   0  0  0  0  0  0  0  0  0  0  0  0
  -18.2477  -17.8256   24.9853 C   0  0  0  0  0  0  0  0  0  0  0  0
  -26.1499  -13.2344   20.6263 C   0  0  0  0  0  0  0  0  0  0  0  0
  -28.5365  -13.8426   21.0535 C   0  0  0  0  0  0  0  0  0  0  0  0
  -25.8648  -25.6639   21.1285 C   0  0  0  0  0  0  0  0  0  0  0  0
  -23.5603  -27.8844   21.6587 C   0  0  0  0  0  0  0  0  0  0  0  0
  -20.3539  -28.5618   22.6110 C   0  0  0  0  0  0  0  0  0  0  0  0
  -20.1474  -13.9841   21.0391 C   0  0  0  0  0  0  0  0  0  0  0  0
  -30.3596  -27.4320   19.4768 C   0  0  0  0  0  0  0  0  0  0  0  0
  -23.9471  -24.7300   19.7844 C   0  0  0  0  0  0  0  0  0  0  0  0
  -23.0918  -25.5502   22.4937 C   0  0  0  0  0  0  0  0  0  0  0  0
  -29.2571  -27.9449   20.3997 C   0  0  0  0  0  0  0  0  0  0  0  0
  -22.0180  -12.4075   18.4032 C   0  0  0  0  0  0  0  0  0  0  0  0
  -28.8704  -26.8746   21.4155 C   0  0  0  0  0  0  0  0  0  0  0  0
  -23.4426  -12.9172   18.5947 C   0  0  0  0  0  0  0  0  0  0  0  0
  -21.0022  -13.4774   18.7807 C   0  0  0  0  0  0  0  0  0  0  0  0
  -20.5506  -16.3522   22.0829 C   0  0  0  0  0  0  0  0  0  0  0  0
  -19.1682  -15.1147   23.1079 C   0  0  0  0  0  0  0  0  0  0  0  0
  -22.5785  -14.4655   20.4216 C   0  0  0  0  0  0  0  0  0  0  0  0
  -28.3185  -25.6256   20.7178 C   0  0  1  0  0  0  0  0  0  0  0  0
  -19.2450  -16.6393   22.8633 C   0  0  0  0  0  0  0  0  0  0  0  0
  -24.5410  -25.9518   20.4786 C   0  0  1  0  0  0  0  0  0  0  0  0
  -23.6439  -13.4220   20.0307 C   0  0  2  0  0  0  0  0  0  0  0  0
  -16.8952  -15.8042   25.5872 C   0  0  0  0  0  0  0  0  0  0  0  0
  -18.7713  -30.4736   22.9821 C   0  0  0  0  0  0  0  0  0  0  0  0
  -24.9709  -28.5393   24.2839 C   0  0  0  0  0  0  0  0  0  0  0  0
  -22.8916  -29.7201   25.0259 C   0  0  0  0  0  0  0  0  0  0  0  0
  -24.1371  -30.5313   23.0225 C   0  0  0  0  0  0  0  0  0  0  0  0
  -18.4855  -27.5686   20.5418 C   0  0  0  0  0  0  0  0  0  0  0  0
  -21.8906  -19.8124   25.4815 C   0  0  0  0  0  0  0  0  0  0  0  0
  -21.9270  -21.1468   24.7444 C   0  0  0  0  0  0  0  0  0  1  0  0
  -16.9469  -17.1201   24.8125 C   0  0  1  0  0  0  0  0  0  0  0  0
  -22.8143  -28.3819   22.8732 C   0  0  1  0  0  0  0  0  0  0  0  0
  -19.2831  -29.4406   21.9902 C   0  0  2  0  0  0  0  0  0  0  0  0
  -23.7026  -29.2658   23.7935 C   0  0  0  0  0  0  0  0  0  0  0  0
  -18.3505  -18.6710   26.0298 N   0  0  0  0  0  0  0  0  0  0  0  0
  -25.2890  -15.2596   20.0738 N   0  0  0  0  0  0  0  0  0  0  0  0
  -20.4757  -18.2442   24.2503 N   0  0  0  0  0  0  0  0  0  0  0  0
  -25.0501  -13.9493   20.2526 N   0  0  0  0  0  0  0  0  0  0  0  0
  -23.6636  -26.4932   21.5184 N   0  0  0  0  0  0  0  0  0  0  0  0
  -21.2177  -13.9889   20.1376 N   0  0  0  0  0  0  0  0  0  0  0  0
  -20.0925  -14.9765   21.9892 N   0  0  0  0  0  0  0  0  0  0  0  0
  -26.0865  -11.9043   20.8482 N   0  0  0  0  0  0  0  0  0  0  0  0
  -29.4666  -14.8908   21.0762 N   0  0  0  0  0  0  0  0  0  0  0  0
  -26.9520  -25.8451   20.2950 N   0  0  0  0  0  0  0  0  0  0  0  0
  -21.6199  -29.0531   22.3719 N   0  0  0  0  0  0  0  0  0  0  0  0
  -18.1302  -28.6115   21.5383 N   0  3  0  0  0  0  0  0  0  0  0  0
  -28.9161  -12.6789   21.3278 O   0  0  0  0  0  0  0  0  0  0  0  0
  -25.8975  -25.3054   22.2998 O   0  0  0  0  0  0  0  0  0  0  0  0
  -24.0279  -28.7001   20.8602 O   0  0  0  0  0  0  0  0  0  0  0  0
  -20.0932  -27.5434   23.2478 O   0  0  0  0  0  0  0  0  0  0  0  0
  -19.2480  -13.1352   20.9806 O   0  0  0  0  0  0  0  0  0  0  0  0
  -29.1128  -20.3513   20.0309 O   0  0  0  0  0  0  0  0  0  0  0  0
  -21.7185  -20.9328   23.3490 O   0  0  0  0  0  0  0  0  0  1  0  0
  -32.5108  -21.7731   24.1341 F   0  0  0  0  0  0  0  0  0  0  0  0
  -31.3403  -18.8242   20.6213 F   0  0  0  0  0  0  0  0  0  0  0  0
  -15.8679  -17.8641   25.2224 F   0  0  0  0  0  0  0  0  0  0  0  0
  1  2  1  0  0  0  0
  1  5  2  0  0  0  0
  2  6  2  0  0  0  0
  3  8  2  0  0  0  0
  3 16  1  0  0  0  0
  4  9  1  0  0  0  0
  4 16  2  0  0  0  0
  5 18  1  0  0  0  0
  6 20  1  0  0  0  0
  7 10  2  0  0  0  0
  7 19  1  0  0  0  0
  8 22  1  0  0  0  0
  9 22  2  0  0  0  0
 10 23  1  0  0  0  0
 11 12  2  0  0  0  0
 11 24  1  0  0  0  0
 12 25  1  0  0  0  0
 13 21  1  0  0  0  0
 13 23  2  0  0  0  0
 14 25  2  0  0  0  0
 14 26  1  0  0  0  0
 15 29  1  0  0  0  0
 15 64  2  0  0  0  0
 16 27  1  0  0  0  0
 17 27  1  0  0  0  0
 17 31  2  0  0  0  0
 17 32  1  0  0  0  0
 18 20  2  0  0  0  0
 18 37  1  0  0  0  0
 19 21  2  0  0  0  0
 19 38  1  0  0  0  0
 20 48  1  0  0  0  0
 21 39  1  0  0  0  0
 22 81  1  0  0  0  0
 23 82  1  0  0  0  0
 24 26  2  0  0  0  0
 24 81  1  0  0  0  0
 25 83  1  0  0  0  0
 26 84  1  0  0  0  0
 27 65  2  0  0  0  0
 28 30  2  0  0  0  0
 28 49  1  0  0  0  0
 28 66  1  0  0  0  0
 29 58  1  0  0  0  0
 29 66  2  0  0  0  0
 30 60  1  0  0  0  0
 30 64  1  0  0  0  0
 31 67  1  0  0  0  0
 31 71  1  0  0  0  0
 32 72  1  0  0  0  0
 32 76  2  0  0  0  0
 33 50  1  0  0  0  0
 33 73  1  0  0  0  0
 33 77  2  0  0  0  0
 34 61  1  0  0  0  0
 34 68  1  0  0  0  0
 34 78  2  0  0  0  0
 35 62  1  0  0  0  0
 35 74  1  0  0  0  0
 35 79  2  0  0  0  0
 36 69  1  0  0  0  0
 36 70  1  0  0  0  0
 36 80  2  0  0  0  0
 37 40  1  0  0  0  0
 38 50  1  0  0  0  0
 39 68  1  0  0  0  0
 40 42  1  0  0  0  0
 41 43  1  0  0  0  0
 41 44  1  0  0  0  0
 42 48  1  0  0  0  0
 43 51  1  0  0  0  0
 44 69  1  0  0  0  0
 45 49  1  0  0  0  0
 45 70  1  0  0  0  0
 46 49  1  0  0  0  0
 46 70  1  0  0  0  0
 47 51  1  0  0  0  0
 47 69  1  0  0  0  0
 48 73  1  0  0  0  0
 50 68  1  0  0  0  0
 51 67  1  0  0  0  0
 52 60  1  0  0  0  0
 53 62  1  0  0  0  0
 54 63  1  0  0  0  0
 55 63  1  0  0  0  0
 56 63  1  0  0  0  0
 57 75  1  0  0  0  0
 58 59  1  0  0  0  0
 59 82  1  0  0  0  0
 60 85  1  0  0  0  0
 61 63  1  0  0  0  0
 61 74  1  0  0  0  0
 62 75  1  0  0  0  0
 65 67  1  0  0  0  0
M  CHG  1  75   1
M  ISO  4  36 100  59 101  70 100  82 101
M  END
> <Batch ID>
0186

> <Smiles>
CNC(C)C(=O)NC(C(=O)N1Cc2cc([101O:1][101CH2:1]Cc3cnc(C(C)F)c(C4C[100N:0]([100C:0](=O)N5CCCC(n6nc(-c7ccc(Oc8ccc(F)cc8F)cc7)c(C(N)=O)c6N)C5)C4)n3)ccc2CC1C(=O)NC1CCCc2ccccc21)C(C)(C)C

> <Shape>
0.209

> <Color>
0.068

> <Negative vol penalty>
0.000

$$$$

  -OEChem-04052323143D

 81 90  0     1  0  0  0  0  0999 V2000
  -29.9669  -34.0760   26.7067 C   0  0  0  0  0  0  0  0  0  0  0  0
  -30.3715  -33.1032   25.7983 C   0  0  0  0  0  0  0  0  0  0  0  0
  -23.0889  -10.5183   21.7134 C   0  0  0  0  0  0  0  0  0  0  0  0
  -24.7360   -8.7628   21.5072 C   0  0  0  0  0  0  0  0  0  0  0  0
  -28.7833  -33.9088   27.4244 C   0  0  0  0  0  0  0  0  0  0  0  0
  -29.5932  -31.9620   25.6078 C   0  0  0  0  0  0  0  0  0  0  0  0
  -27.7144  -27.2691   20.5320 C   0  0  0  0  0  0  0  0  0  0  0  0
  -22.0717   -9.5638   21.7142 C   0  0  0  0  0  0  0  0  0  0  0  0
  -23.7188   -7.8084   21.5081 C   0  0  0  0  0  0  0  0  0  0  0  0
  -27.6736  -25.8954   20.2970 C   0  0  0  0  0  0  0  0  0  0  0  0
  -21.7317   -6.2903   23.7813 C   0  0  0  0  0  0  0  0  0  0  0  0
  -21.9071   -5.1594   24.5786 C   0  0  0  0  0  0  0  0  0  0  0  0
  -26.8384  -21.1302   20.3681 C   0  0  0  0  0  0  0  0  0  0  0  0
  -25.6078  -25.7512   21.5342 C   0  0  0  0  0  0  0  0  0  0  0  0
  -21.7543   -3.7543   22.6191 C   0  0  0  0  0  0  0  0  0  0  0  0
  -24.4210  -10.1178   21.6098 C   0  0  0  0  0  0  0  0  0  0  0  0
  -26.1585  -11.6158   22.7255 C   0  0  0  0  0  0  0  0  0  0  0  0
  -27.9852  -32.7696   27.2355 C   0  0  0  0  0  0  0  0  0  0  0  0
  -26.7061  -27.8934   21.2804 C   0  0  0  0  0  0  0  0  0  0  0  0
  -28.3985  -31.7788   26.3246 C   0  0  0  0  0  0  0  0  0  0  0  0
  -26.9262  -19.7821   20.0917 C   0  0  0  0  0  0  0  0  0  0  0  0
  -25.6367  -27.1333   21.7751 C   0  0  0  0  0  0  0  0  0  0  0  0
  -25.6131  -21.6257   20.8086 C   0  0  0  0  0  0  0  0  0  0  0  0
  -22.3867   -8.2089   21.6116 C   0  0  0  0  0  0  0  0  0  0  0  0
  -26.6218  -25.1358   20.8006 C   0  0  0  0  0  0  0  0  0  0  0  0
  -21.5676   -6.1534   22.4029 C   0  0  0  0  0  0  0  0  0  0  0  0
  -21.9184   -3.8914   23.9975 C   0  0  0  0  0  0  0  0  0  0  0  0
  -21.5789   -4.8854   21.8218 C   0  0  0  0  0  0  0  0  0  0  0  0
  -25.4722  -11.1033   21.6083 C   0  0  0  0  0  0  0  0  0  0  0  0
  -25.8033  -18.9818   20.2613 C   0  0  0  0  0  0  0  0  0  0  0  0
  -24.5435  -20.7401   20.9482 C   0  0  0  0  0  0  0  0  0  0  0  0
  -27.0519  -12.5151   22.1967 C   0  0  0  0  0  0  0  0  0  0  0  0
  -26.0025  -11.3066   24.1168 C   0  0  0  0  0  0  0  0  0  0  0  0
  -26.6173  -29.5086   24.0166 C   0  0  0  0  0  0  0  0  0  0  0  0
  -23.5215  -29.9942   23.1785 C   0  0  0  0  0  0  0  0  0  0  0  0
  -20.8021  -28.9460   21.4030 C   0  0  0  0  0  0  0  0  0  0  0  0
  -28.1874  -16.6810   18.6574 C   0  0  0  0  0  0  0  0  0  0  0  0
  -26.7382  -32.6106   28.0688 C   0  0  0  0  0  0  0  0  0  0  0  0
  -26.7506  -29.3804   21.5023 C   0  0  0  0  0  0  0  0  0  0  0  0
  -28.0799  -18.9782   19.6076 C   0  0  0  0  0  0  0  0  0  0  0  0
  -24.5188  -27.7588   22.5673 C   0  0  0  0  0  0  0  0  0  0  0  0
  -26.1309  -17.5543   19.9349 C   0  0  0  0  0  0  0  0  0  0  0  0
  -25.7794  -31.5499   27.5341 C   0  0  0  0  0  0  0  0  0  0  0  0
  -28.4624  -13.3698   17.4359 C   0  0  0  0  0  0  0  0  0  0  0  0
  -26.5383  -30.2758   27.1769 C   0  0  0  0  0  0  0  0  0  0  0  0
  -27.7343  -12.5242   18.4767 C   0  0  0  0  0  0  0  0  0  0  0  0
  -27.7597  -14.7058   17.2384 C   0  0  0  0  0  0  0  0  0  0  0  0
  -26.9309  -14.6779   19.5785 C   0  0  0  0  0  0  0  0  0  0  0  0
  -27.5686  -30.5387   26.0720 C   0  0  1  0  0  0  0  0  0  0  0  0
  -25.9395  -29.8282   22.7143 C   0  0  1  0  0  0  0  0  0  0  0  0
  -27.5878  -13.2990   19.7951 C   0  0  1  0  0  0  0  0  0  0  0  0
  -23.2170  -21.2426   21.4192 C   0  0  0  0  0  0  0  0  0  0  0  0
  -18.4034  -29.5264   20.9478 C   0  0  0  0  0  0  0  0  0  0  0  0
  -22.7389  -28.8956   25.9154 C   0  0  0  0  0  0  0  0  0  0  0  0
  -20.4049  -28.6095   25.0557 C   0  0  0  0  0  0  0  0  0  0  0  0
  -21.4185  -30.8858   25.1736 C   0  0  0  0  0  0  0  0  0  0  0  0
  -21.3181  -29.3110   18.5117 C   0  0  0  0  0  0  0  0  0  0  0  0
  -25.4736  -23.0774   21.1182 C   0  0  0  0  0  0  0  0  0  1  0  0
  -22.2230  -29.2605   23.4120 C   0  0  1  0  0  0  0  0  0  0  0  0
  -19.8447  -29.6931   20.4921 C   0  0  2  0  0  0  0  0  0  0  0  0
  -21.7182  -29.4004   24.8760 C   0  0  0  0  0  0  0  0  0  0  0  0
  -25.8933  -11.6330   20.4568 N   0  0  0  0  0  0  0  0  0  0  0  0
  -24.6046  -19.4123   20.6854 N   0  0  0  0  0  0  0  0  0  0  0  0
  -26.8539  -12.4878   20.8475 N   0  0  0  0  0  0  0  0  0  0  0  0
  -24.6106  -29.2151   22.7629 N   0  0  0  0  0  0  0  0  0  0  0  0
  -27.5273  -17.6201   19.4535 N   0  0  0  0  0  0  0  0  0  0  0  0
  -27.5892  -15.4262   18.5010 N   0  0  0  0  0  0  0  0  0  0  0  0
  -27.9797  -13.3186   22.7588 N   0  0  0  0  0  0  0  0  0  0  0  0
  -25.0380  -10.3593   24.4866 N   0  0  0  0  0  0  0  0  0  0  0  0
  -26.9172  -30.6192   24.7822 N   0  0  0  0  0  0  0  0  0  0  0  0
  -21.2880  -29.7558   22.4077 N   0  0  0  0  0  0  0  0  0  0  0  0
  -19.9575  -29.1868   19.0950 N   0  3  0  0  0  0  0  0  0  0  0  0
  -26.6864  -11.8663   25.0071 O   0  0  0  0  0  0  0  0  0  0  0  0
  -26.8497  -28.3407   24.3061 O   0  0  0  0  0  0  0  0  0  0  0  0
  -23.5660  -31.2148   23.3514 O   0  0  0  0  0  0  0  0  0  0  0  0
  -21.0872  -27.7614   21.2417 O   0  0  0  0  0  0  0  0  0  0  0  0
  -29.2395  -16.9674   18.0709 O   0  0  0  0  0  0  0  0  0  0  0  0
  -21.3944   -7.2772   21.6126 O   0  0  0  0  0  0  0  0  0  0  0  0
  -26.5796  -23.7856   20.5717 O   0  0  0  0  0  0  0  0  0  1  0  0
  -22.0883   -2.8054   24.7631 F   0  0  0  0  0  0  0  0  0  0  0  0
  -21.4229   -4.7475   20.4980 F   0  0  0  0  0  0  0  0  0  0  0  0
  1  2  1  0  0  0  0
  1  5  2  0  0  0  0
  2  6  2  0  0  0  0
  3  8  2  0  0  0  0
  3 16  1  0  0  0  0
  4  9  1  0  0  0  0
  4 16  2  0  0  0  0
  5 18  1  0  0  0  0
  6 20  1  0  0  0  0
  7 10  2  0  0  0  0
  7 19  1  0  0  0  0
  8 24  1  0  0  0  0
  9 24  2  0  0  0  0
 10 25  1  0  0  0  0
 11 12  2  0  0  0  0
 11 26  1  0  0  0  0
 12 27  1  0  0  0  0
 13 21  2  0  0  0  0
 13 23  1  0  0  0  0
 14 22  1  0  0  0  0
 14 25  2  0  0  0  0
 15 27  2  0  0  0  0
 15 28  1  0  0  0  0
 16 29  1  0  0  0  0
 17 29  1  0  0  0  0
 17 32  2  0  0  0  0
 17 33  1  0  0  0  0
 18 20  2  0  0  0  0
 18 38  1  0  0  0  0
 19 22  2  0  0  0  0
 19 39  1  0  0  0  0
 20 49  1  0  0  0  0
 21 30  1  0  0  0  0
 21 40  1  0  0  0  0
 22 41  1  0  0  0  0
 23 31  2  0  0  0  0
 23 58  1  0  0  0  0
 24 78  1  0  0  0  0
 25 79  1  0  0  0  0
 26 28  2  0  0  0  0
 26 78  1  0  0  0  0
 27 80  1  0  0  0  0
 28 81  1  0  0  0  0
 29 62  2  0  0  0  0
 30 42  1  0  0  0  0
 30 63  2  0  0  0  0
 31 52  1  0  0  0  0
 31 63  1  0  0  0  0
 32 64  1  0  0  0  0
 32 68  1  0  0  0  0
 33 69  1  0  0  0  0
 33 73  2  0  0  0  0
 34 50  1  0  0  0  0
 34 70  1  0  0  0  0
 34 74  2  0  0  0  0
 35 59  1  0  0  0  0
 35 65  1  0  0  0  0
 35 75  2  0  0  0  0
 36 60  1  0  0  0  0
 36 71  1  0  0  0  0
 36 76  2  0  0  0  0
 37 66  1  0  0  0  0
 37 67  1  0  0  0  0
 37 77  2  0  0  0  0
 38 43  1  0  0  0  0
 39 50  1  0  0  0  0
 40 66  1  0  0  0  0
 41 65  1  0  0  0  0
 42 66  1  0  0  0  0
 43 45  1  0  0  0  0
 44 46  1  0  0  0  0
 44 47  1  0  0  0  0
 45 49  1  0  0  0  0
 46 51  1  0  0  0  0
 47 67  1  0  0  0  0
 48 51  1  0  0  0  0
 48 67  1  0  0  0  0
 49 70  1  0  0  0  0
 50 65  1  0  0  0  0
 51 64  1  0  0  0  0
 53 60  1  0  0  0  0
 54 61  1  0  0  0  0
 55 61  1  0  0  0  0
 56 61  1  0  0  0  0
 57 72  1  0  0  0  0
 58 79  1  0  0  0  0
 59 61  1  0  0  0  0
 59 71  1  0  0  0  0
 60 72  1  0  0  0  0
 62 64  1  0  0  0  0
M  CHG  1  72   1
M  ISO  4  37 100  58 101  66 100  79 101
M  END
> <Batch ID>
0186

> <Smiles>
CNC(C)C(=O)NC(C(=O)N1Cc2cc([101O:1][101CH2:1]c3cc4c(nc3C)C[100N:0]([100C:0](=O)N3CCCC(n5nc(-c6ccc(Oc7ccc(F)cc7F)cc6)c(C(N)=O)c5N)C3)C4)ccc2CC1C(=O)NC1CCCc2ccccc21)C(C)(C)C

> <Shape>
0.244

> <Color>
0.093

> <Negative vol penalty>
0.000

$$$$

  -OEChem-04052323143D

 81 90  0     1  0  0  0  0  0999 V2000
  -27.6880  -17.1271   17.5194 C   0  0  0  0  0  0  0  0  0  0  0  0
  -26.8261  -18.1334   17.9404 C   0  0  0  0  0  0  0  0  0  0  0  0
  -22.8710  -16.9200   22.5795 C   0  0  0  0  0  0  0  0  0  0  0  0
  -22.2038  -17.7663   20.4171 C   0  0  0  0  0  0  0  0  0  0  0  0
  -29.0322  -17.1683   17.8837 C   0  0  0  0  0  0  0  0  0  0  0  0
  -27.3104  -19.1875   18.7158 C   0  0  0  0  0  0  0  0  0  0  0  0
  -24.4411  -25.5127   19.2848 C   0  0  0  0  0  0  0  0  0  0  0  0
  -23.0448  -15.6503   22.0289 C   0  0  0  0  0  0  0  0  0  0  0  0
  -22.3776  -16.4965   19.8665 C   0  0  0  0  0  0  0  0  0  0  0  0
  -23.8242  -26.7426   19.5149 C   0  0  0  0  0  0  0  0  0  0  0  0
  -24.0116  -12.2666   21.1172 C   0  0  0  0  0  0  0  0  0  0  0  0
  -25.1650  -11.5624   21.4626 C   0  0  0  0  0  0  0  0  0  0  0  0
  -25.6008  -27.3616   21.0342 C   0  0  0  0  0  0  0  0  0  0  0  0
  -26.5232  -13.3276   20.5265 C   0  0  0  0  0  0  0  0  0  0  0  0
  -20.2537  -27.2554   22.1126 C   0  0  0  0  0  0  0  0  0  0  0  0
  -22.4504  -17.9780   21.7736 C   0  0  0  0  0  0  0  0  0  0  0  0
  -23.2331  -20.3115   22.4443 C   0  0  0  0  0  0  0  0  0  0  0  0
  -29.5298  -18.2171   18.6745 C   0  0  0  0  0  0  0  0  0  0  0  0
  -25.6496  -25.2084   19.9175 C   0  0  0  0  0  0  0  0  0  0  0  0
  -28.6688  -19.2595   19.0739 C   0  0  0  0  0  0  0  0  0  0  0  0
  -26.2298  -26.1363   20.7980 C   0  0  0  0  0  0  0  0  0  0  0  0
  -22.7982  -15.4385   20.6725 C   0  0  0  0  0  0  0  0  0  0  0  0
  -24.4025  -27.6646   20.3876 C   0  0  0  0  0  0  0  0  0  0  0  0
  -24.1140  -13.5014   20.4764 C   0  0  0  0  0  0  0  0  0  0  0  0
  -26.4208  -12.0929   21.1673 C   0  0  0  0  0  0  0  0  0  0  0  0
  -25.3697  -14.0319   20.1811 C   0  0  0  0  0  0  0  0  0  0  0  0
  -22.2701  -19.2898   22.3418 C   0  0  0  0  0  0  0  0  0  0  0  0
  -20.3122  -28.6314   22.0256 C   0  0  0  0  0  0  0  0  0  0  0  0
  -19.1848  -26.7470   22.8220 C   0  0  0  0  0  0  0  0  0  0  0  0
  -22.5700  -21.3484   23.0539 C   0  0  0  0  0  0  0  0  0  0  0  0
  -18.4079  -28.8401   23.2492 C   0  0  0  0  0  0  0  0  0  0  0  0
  -24.6044  -20.3223   22.0259 C   0  0  0  0  0  0  0  0  0  0  0  0
  -28.4189  -22.7257   20.4103 C   0  0  0  0  0  0  0  0  0  0  0  0
  -29.7242  -25.4975   20.2563 C   0  0  0  0  0  0  0  0  0  0  0  0
  -30.8003  -28.6703   19.6141 C   0  0  0  0  0  0  0  0  0  0  0  0
  -18.0943  -24.6148   23.6037 C   0  0  0  0  0  0  0  0  0  0  0  0
  -30.9949  -18.2163   19.0332 C   0  0  0  0  0  0  0  0  0  0  0  0
  -26.3179  -23.8712   19.7469 C   0  0  0  0  0  0  0  0  0  0  0  0
  -27.5127  -25.7520   21.4831 C   0  0  0  0  0  0  0  0  0  0  0  0
  -31.3180  -19.1242   20.2153 C   0  0  0  0  0  0  0  0  0  0  0  0
  -18.0402  -21.4894   25.3084 C   0  0  0  0  0  0  0  0  0  0  0  0
  -30.6965  -20.4964   20.0020 C   0  0  0  0  0  0  0  0  0  0  0  0
  -19.2151  -20.7226   24.6970 C   0  0  0  0  0  0  0  0  0  0  0  0
  -22.2927  -30.2898   21.9690 C   0  0  0  0  0  0  0  0  0  0  0  0
  -17.3218  -22.3488   24.2697 C   0  0  0  0  0  0  0  0  0  0  0  0
  -19.3635  -22.4918   22.8984 C   0  0  0  0  0  0  0  0  0  0  0  0
  -29.1667  -20.3998   19.9435 C   0  0  1  0  0  0  0  0  0  0  0  0
  -21.4302  -29.2578   21.2806 C   0  0  1  0  0  0  0  0  0  0  0  0
  -27.8546  -23.9577   19.7661 C   0  0  1  0  0  0  0  0  0  0  0  0
  -20.1581  -21.6621   23.9202 C   0  0  2  0  0  0  0  0  0  0  0  0
  -22.8548  -28.9329   21.6735 C   0  0  1  0  0  0  0  0  0  1  0  0
  -17.3833  -29.7196   23.8817 C   0  0  0  0  0  0  0  0  0  0  0  0
  -32.8942  -30.0421   19.4369 C   0  0  0  0  0  0  0  0  0  0  0  0
  -29.9523  -25.5355   23.2977 C   0  0  0  0  0  0  0  0  0  0  0  0
  -31.3717  -27.5878   23.0948 C   0  0  0  0  0  0  0  0  0  0  0  0
  -32.1391  -25.4382   22.0883 C   0  0  0  0  0  0  0  0  0  0  0  0
  -30.2640  -29.3344   16.7803 C   0  0  0  0  0  0  0  0  0  0  0  0
  -30.2319  -26.7003   21.0106 C   0  0  1  0  0  0  0  0  0  0  0  0
  -31.8761  -29.2003   18.6834 C   0  0  2  0  0  0  0  0  0  0  0  0
  -30.8975  -26.3148   22.3618 C   0  0  0  0  0  0  0  0  0  0  0  0
  -21.0854  -19.6453   22.8460 N   0  0  0  0  0  0  0  0  0  0  0  0
  -19.4029  -29.4571   22.5839 N   0  0  0  0  0  0  0  0  0  0  0  0
  -18.2399  -27.5131   23.4057 N   0  0  0  0  0  0  0  0  0  0  0  0
  -21.2997  -20.9020   23.2712 N   0  0  0  0  0  0  0  0  0  0  0  0
  -28.4131  -25.0878   20.5277 N   0  0  0  0  0  0  0  0  0  0  0  0
  -18.2772  -23.2160   23.5768 N   0  0  0  0  0  0  0  0  0  0  0  0
  -22.9554  -22.5894   23.4198 N   0  0  0  0  0  0  0  0  0  0  0  0
  -25.1260  -19.1732   21.4161 N   0  0  0  0  0  0  0  0  0  0  0  0
  -19.0833  -25.3385   22.9383 N   0  0  0  0  0  0  0  0  0  0  0  0
  -28.6283  -21.6781   19.5338 N   0  0  0  0  0  0  0  0  0  0  0  0
  -31.1123  -27.4156   20.0933 N   0  0  0  0  0  0  0  0  0  0  0  0
  -31.2679  -30.0430   17.6153 N   0  3  0  0  0  0  0  0  0  0  0  0
  -25.3498  -21.3156   22.2029 O   0  0  0  0  0  0  0  0  0  0  0  0
  -28.6495  -22.7248   21.6139 O   0  0  0  0  0  0  0  0  0  0  0  0
  -30.4695  -24.9313   19.4519 O   0  0  0  0  0  0  0  0  0  0  0  0
  -29.7865  -29.3073   19.8914 O   0  0  0  0  0  0  0  0  0  0  0  0
  -17.1461  -25.1340   24.1981 O   0  0  0  0  0  0  0  0  0  0  0  0
  -22.9679  -14.1997   20.1349 O   0  0  0  0  0  0  0  0  0  0  0  0
  -23.7973  -28.8652   20.6041 O   0  0  0  0  0  0  0  0  0  1  0  0
  -27.5283  -11.4172   21.5004 F   0  0  0  0  0  0  0  0  0  0  0  0
  -25.4744  -15.2182   19.5666 F   0  0  0  0  0  0  0  0  0  0  0  0
  1  2  1  0  0  0  0
  1  5  2  0  0  0  0
  2  6  2  0  0  0  0
  3  8  2  0  0  0  0
  3 16  1  0  0  0  0
  4  9  1  0  0  0  0
  4 16  2  0  0  0  0
  5 18  1  0  0  0  0
  6 20  1  0  0  0  0
  7 10  2  0  0  0  0
  7 19  1  0  0  0  0
  8 22  1  0  0  0  0
  9 22  2  0  0  0  0
 10 23  1  0  0  0  0
 11 12  2  0  0  0  0
 11 24  1  0  0  0  0
 12 25  1  0  0  0  0
 13 21  1  0  0  0  0
 13 23  2  0  0  0  0
 14 25  2  0  0  0  0
 14 26  1  0  0  0  0
 15 28  1  0  0  0  0
 15 29  2  0  0  0  0
 16 27  1  0  0  0  0
 17 27  1  0  0  0  0
 17 30  2  0  0  0  0
 17 32  1  0  0  0  0
 18 20  2  0  0  0  0
 18 37  1  0  0  0  0
 19 21  2  0  0  0  0
 19 38  1  0  0  0  0
 20 47  1  0  0  0  0
 21 39  1  0  0  0  0
 22 78  1  0  0  0  0
 23 79  1  0  0  0  0
 24 26  2  0  0  0  0
 24 78  1  0  0  0  0
 25 80  1  0  0  0  0
 26 81  1  0  0  0  0
 27 61  2  0  0  0  0
 28 48  1  0  0  0  0
 28 62  2  0  0  0  0
 29 63  1  0  0  0  0
 29 69  1  0  0  0  0
 30 64  1  0  0  0  0
 30 67  1  0  0  0  0
 31 52  1  0  0  0  0
 31 62  1  0  0  0  0
 31 63  2  0  0  0  0
 32 68  1  0  0  0  0
 32 73  2  0  0  0  0
 33 49  1  0  0  0  0
 33 70  1  0  0  0  0
 33 74  2  0  0  0  0
 34 58  1  0  0  0  0
 34 65  1  0  0  0  0
 34 75  2  0  0  0  0
 35 59  1  0  0  0  0
 35 71  1  0  0  0  0
 35 76  2  0  0  0  0
 36 66  1  0  0  0  0
 36 69  1  0  0  0  0
 36 77  2  0  0  0  0
 37 40  1  0  0  0  0
 38 49  1  0  0  0  0
 39 65  1  0  0  0  0
 40 42  1  0  0  0  0
 41 43  1  0  0  0  0
 41 45  1  0  0  0  0
 42 47  1  0  0  0  0
 43 50  1  0  0  0  0
 44 48  1  0  0  0  0
 44 51  1  0  0  0  0
 45 66  1  0  0  0  0
 46 50  1  0  0  0  0
 46 66  1  0  0  0  0
 47 70  1  0  0  0  0
 48 51  1  0  0  0  0
 49 65  1  0  0  0  0
 50 64  1  0  0  0  0
 51 79  1  0  0  0  0
 53 59  1  0  0  0  0
 54 60  1  0  0  0  0
 55 60  1  0  0  0  0
 56 60  1  0  0  0  0
 57 72  1  0  0  0  0
 58 60  1  0  0  0  0
 58 71  1  0  0  0  0
 59 72  1  0  0  0  0
 61 64  1  0  0  0  0
M  CHG  1  72   1
M  ISO  4  36 100  51 101  69 100  79 101
M  END
> <Batch ID>
0186

> <Smiles>
CNC(C)C(=O)NC(C(=O)N1Cc2cc([101O:1][101CH:1]3CC3c3cc([100NH:0][100C:0](=O)N4CCCC(n5nc(-c6ccc(Oc7ccc(F)cc7F)cc6)c(C(N)=O)c5N)C4)nc(C)n3)ccc2CC1C(=O)NC1CCCc2ccccc21)C(C)(C)C

> <Shape>
0.211

> <Color>
0.058

> <Negative vol penalty>
0.000

$$$$

  -OEChem-04052323143D

 82 91  0     1  0  0  0  0  0999 V2000
  -25.6947  -23.5227   17.4100 C   0  0  0  0  0  0  0  0  0  0  0  0
  -24.8506  -24.5938   17.6806 C   0  0  0  0  0  0  0  0  0  0  0  0
  -24.2196  -14.3533   19.7990 C   0  0  0  0  0  0  0  0  0  0  0  0
  -25.3027  -13.9796   21.9261 C   0  0  0  0  0  0  0  0  0  0  0  0
  -26.7785  -23.2656   18.2469 C   0  0  0  0  0  0  0  0  0  0  0  0
  -25.0969  -25.4152   18.7813 C   0  0  0  0  0  0  0  0  0  0  0  0
  -22.3003  -29.4368   19.2389 C   0  0  0  0  0  0  0  0  0  0  0  0
  -25.0437  -13.3939   19.2108 C   0  0  0  0  0  0  0  0  0  0  0  0
  -26.1268  -13.0202   21.3379 C   0  0  0  0  0  0  0  0  0  0  0  0
  -20.9564  -29.3825   19.6059 C   0  0  0  0  0  0  0  0  0  0  0  0
  -28.7596  -10.7309   20.3194 C   0  0  0  0  0  0  0  0  0  0  0  0
  -30.1196  -10.7680   20.6269 C   0  0  0  0  0  0  0  0  0  0  0  0
  -21.5412  -30.1058   21.8317 C   0  0  0  0  0  0  0  0  0  0  0  0
  -30.2644  -13.0014   19.7170 C   0  0  0  0  0  0  0  0  0  0  0  0
  -17.4581  -28.3643   22.1568 C   0  0  0  0  0  0  0  0  0  0  0  0
  -24.3491  -14.6462   21.1566 C   0  0  0  0  0  0  0  0  0  0  0  0
  -22.2436  -15.4270   22.3669 C   0  0  0  0  0  0  0  0  0  0  0  0
  -27.0302  -24.0773   19.3653 C   0  0  0  0  0  0  0  0  0  0  0  0
  -23.2777  -29.8162   20.1702 C   0  0  0  0  0  0  0  0  0  0  0  0
  -26.1994  -25.1864   19.6242 C   0  0  0  0  0  0  0  0  0  0  0  0
  -22.8965  -30.1666   21.4733 C   0  0  0  0  0  0  0  0  0  0  0  0
  -25.9973  -12.7273   19.9802 C   0  0  0  0  0  0  0  0  0  0  0  0
  -20.5770  -29.7143   20.9032 C   0  0  0  0  0  0  0  0  0  0  0  0
  -28.1519  -11.8290   19.7106 C   0  0  0  0  0  0  0  0  0  0  0  0
  -30.8720  -11.9032   20.3257 C   0  0  0  0  0  0  0  0  0  0  0  0
  -28.9043  -12.9643   19.4094 C   0  0  0  0  0  0  0  0  0  0  0  0
  -23.4985  -15.6376   21.7647 C   0  0  0  0  0  0  0  0  0  0  0  0
  -19.1438  -26.3060   22.3785 C   0  0  0  0  0  0  0  0  0  0  0  0
  -18.7762  -28.4805   21.7736 C   0  0  0  0  0  0  0  0  0  1  0  0
  -17.8258  -26.1899   22.7620 C   0  0  0  0  0  0  0  0  0  0  0  0
  -21.8507  -16.6743   22.7870 C   0  0  0  0  0  0  0  0  0  0  0  0
  -21.4996  -14.2126   22.5319 C   0  0  0  0  0  0  0  0  0  0  0  0
  -25.8142  -28.4016   21.4620 C   0  0  0  0  0  0  0  0  0  0  0  0
  -26.3050  -31.3355   22.7557 C   0  0  0  0  0  0  0  0  0  0  0  0
  -24.9873  -34.3274   23.7348 C   0  0  0  0  0  0  0  0  0  0  0  0
  -21.1433  -22.0023   21.7141 C   0  0  0  0  0  0  0  0  0  0  0  0
  -28.2218  -23.7583   20.2333 C   0  0  0  0  0  0  0  0  0  0  0  0
  -24.7201  -29.8955   19.7511 C   0  0  0  0  0  0  0  0  0  0  0  0
  -23.9047  -30.5998   22.5050 C   0  0  0  0  0  0  0  0  0  0  0  0
  -28.1436  -24.4060   21.6119 C   0  0  0  0  0  0  0  0  0  0  0  0
  -24.3902  -21.0125   23.0991 C   0  0  0  0  0  0  0  0  0  0  0  0
  -27.8106  -25.8840   21.4736 C   0  0  0  0  0  0  0  0  0  0  0  0
  -24.3614  -19.5060   22.8643 C   0  0  0  0  0  0  0  0  0  0  0  0
  -20.8410  -24.8777   20.0052 C   0  0  0  0  0  0  0  0  0  0  0  0
  -23.6700  -21.7871   21.9946 C   0  0  0  0  0  0  0  0  0  0  0  0
  -22.0734  -24.0463   20.3744 C   0  0  0  0  0  0  0  0  0  0  0  0
  -22.2554  -19.8064   21.5159 C   0  0  0  0  0  0  0  0  0  0  0  0
  -26.4299  -26.0751   20.8331 C   0  0  1  0  0  0  0  0  0  0  0  0
  -25.6895  -29.7994   20.9251 C   0  0  1  0  0  0  0  0  0  0  0  0
  -22.9188  -19.0216   22.6563 C   0  0  1  0  0  0  0  0  0  0  0  0
  -20.1347  -24.3025   21.2424 C   0  0  2  0  0  0  0  0  0  0  0  0
  -25.6288  -36.5108   24.7923 C   0  0  0  0  0  0  0  0  0  0  0  0
  -26.4366  -29.9731   25.4827 C   0  0  0  0  0  0  0  0  0  0  0  0
  -26.1218  -32.2195   26.5424 C   0  0  0  0  0  0  0  0  0  0  0  0
  -28.1332  -31.7773   25.1349 C   0  0  0  0  0  0  0  0  0  0  0  0
  -24.1558  -35.8622   21.3448 C   0  0  0  0  0  0  0  0  0  0  0  0
  -20.1110  -25.1548   22.4958 C   0  0  0  0  0  0  0  0  0  0  0  0
  -25.8753  -32.0294   24.0257 C   0  0  1  0  0  0  0  0  0  0  0  0
  -25.4371  -35.7558   23.4862 C   0  0  2  0  0  0  0  0  0  0  0  0
  -26.6227  -31.4898   25.2778 C   0  0  0  0  0  0  0  0  0  0  0  0
  -16.9592  -27.2168   22.6579 N   0  0  0  0  0  0  0  0  0  0  0  0
  -23.8777  -16.9179   21.7971 N   0  0  0  0  0  0  0  0  0  0  0  0
  -19.6427  -27.4534   21.8775 N   0  0  0  0  0  0  0  0  0  0  0  0
  -22.8549  -17.5231   22.4247 N   0  0  0  0  0  0  0  0  0  0  0  0
  -25.3033  -30.6554   22.0485 N   0  0  0  0  0  0  0  0  0  0  0  0
  -22.3260  -21.2552   21.7392 N   0  0  0  0  0  0  0  0  0  0  0  0
  -21.2106  -23.3097   21.2866 N   0  0  0  0  0  0  0  0  0  0  0  0
  -20.7477  -17.1168   23.4272 N   0  0  0  0  0  0  0  0  0  0  0  0
  -22.0495  -13.0203   22.0416 N   0  0  0  0  0  0  0  0  0  0  0  0
  -26.2407  -27.4763   20.5285 N   0  0  0  0  0  0  0  0  0  0  0  0
  -26.0559  -33.4580   23.7915 N   0  0  0  0  0  0  0  0  0  0  0  0
  -24.4257  -36.4823   22.6675 N   0  3  0  0  0  0  0  0  0  0  0  0
  -20.3729  -14.1880   23.0827 O   0  0  0  0  0  0  0  0  0  0  0  0
  -25.5449  -28.1793   22.6366 O   0  0  0  0  0  0  0  0  0  0  0  0
  -27.4844  -31.4006   22.4003 O   0  0  0  0  0  0  0  0  0  0  0  0
  -23.8063  -34.0148   23.8692 O   0  0  0  0  0  0  0  0  0  0  0  0
  -20.0528  -21.5110   22.0338 O   0  0  0  0  0  0  0  0  0  0  0  0
  -26.8015  -11.7909   19.4066 O   0  0  0  0  0  0  0  0  0  0  0  0
  -19.2451  -29.6607   21.2700 O   0  0  0  0  0  0  0  0  0  1  0  0
  -32.1777  -11.9393   20.6225 F   0  0  0  0  0  0  0  0  0  0  0  0
  -28.3259  -14.0228   18.8257 F   0  0  0  0  0  0  0  0  0  0  0  0
  -17.1520  -24.7494   23.4036 Cl  0  0  0  0  0  0  0  0  0  0  0  0
  1  2  1  0  0  0  0
  1  5  2  0  0  0  0
  2  6  2  0  0  0  0
  3  8  2  0  0  0  0
  3 16  1  0  0  0  0
  4  9  1  0  0  0  0
  4 16  2  0  0  0  0
  5 18  1  0  0  0  0
  6 20  1  0  0  0  0
  7 10  2  0  0  0  0
  7 19  1  0  0  0  0
  8 22  1  0  0  0  0
  9 22  2  0  0  0  0
 10 23  1  0  0  0  0
 11 12  2  0  0  0  0
 11 24  1  0  0  0  0
 12 25  1  0  0  0  0
 13 21  1  0  0  0  0
 13 23  2  0  0  0  0
 14 25  2  0  0  0  0
 14 26  1  0  0  0  0
 15 29  1  0  0  0  0
 15 61  2  0  0  0  0
 16 27  1  0  0  0  0
 17 27  1  0  0  0  0
 17 31  2  0  0  0  0
 17 32  1  0  0  0  0
 18 20  2  0  0  0  0
 18 37  1  0  0  0  0
 19 21  2  0  0  0  0
 19 38  1  0  0  0  0
 20 48  1  0  0  0  0
 21 39  1  0  0  0  0
 22 78  1  0  0  0  0
 23 79  1  0  0  0  0
 24 26  2  0  0  0  0
 24 78  1  0  0  0  0
 25 80  1  0  0  0  0
 26 81  1  0  0  0  0
 27 62  2  0  0  0  0
 28 30  2  0  0  0  0
 28 57  1  0  0  0  0
 28 63  1  0  0  0  0
 29 63  2  0  0  0  0
 29 79  1  0  0  0  0
 30 61  1  0  0  0  0
 30 82  1  0  0  0  0
 31 64  1  0  0  0  0
 31 68  1  0  0  0  0
 32 69  1  0  0  0  0
 32 73  2  0  0  0  0
 33 49  1  0  0  0  0
 33 70  1  0  0  0  0
 33 74  2  0  0  0  0
 34 58  1  0  0  0  0
 34 65  1  0  0  0  0
 34 75  2  0  0  0  0
 35 59  1  0  0  0  0
 35 71  1  0  0  0  0
 35 76  2  0  0  0  0
 36 66  1  0  0  0  0
 36 67  1  0  0  0  0
 36 77  2  0  0  0  0
 37 40  1  0  0  0  0
 38 49  1  0  0  0  0
 39 65  1  0  0  0  0
 40 42  1  0  0  0  0
 41 43  1  0  0  0  0
 41 45  1  0  0  0  0
 42 48  1  0  0  0  0
 43 50  1  0  0  0  0
 44 46  1  0  0  0  0
 44 51  1  0  0  0  0
 45 66  1  0  0  0  0
 46 67  1  0  0  0  0
 47 50  1  0  0  0  0
 47 66  1  0  0  0  0
 48 70  1  0  0  0  0
 49 65  1  0  0  0  0
 50 64  1  0  0  0  0
 51 57  1  0  0  0  0
 51 67  1  0  0  0  0
 52 59  1  0  0  0  0
 53 60  1  0  0  0  0
 54 60  1  0  0  0  0
 55 60  1  0  0  0  0
 56 72  1  0  0  0  0
 58 60  1  0  0  0  0
 58 71  1  0  0  0  0
 59 72  1  0  0  0  0
 62 64  1  0  0  0  0
M  CHG  1  72   1
M  ISO  4  29 101  36 100  67 100  79 101
M  END
> <Batch ID>
0186

> <Smiles>
CNC(C)C(=O)NC(C(=O)N1Cc2cc([101O:1][101c:1]3cnc(Cl)c(CC4CC[100N:0]4[100C:0](=O)N4CCCC(n5nc(-c6ccc(Oc7ccc(F)cc7F)cc6)c(C(N)=O)c5N)C4)n3)ccc2CC1C(=O)NC1CCCc2ccccc21)C(C)(C)C

> <Shape>
0.277

> <Color>
0.083

> <Negative vol penalty>
0.000

$$$$

  -OEChem-04052323143D

 83 91  0     1  0  0  0  0  0999 V2000
  -24.8734  -10.9344   20.1220 C   0  0  0  0  0  0  0  0  0  0  0  0
  -24.1021  -12.0480   19.8053 C   0  0  0  0  0  0  0  0  0  0  0  0
  -29.7063  -28.7997   20.7096 C   0  0  0  0  0  0  0  0  0  0  0  0
  -28.9816  -26.5368   21.1466 C   0  0  0  0  0  0  0  0  0  0  0  0
  -26.0068  -11.0773   20.9213 C   0  0  0  0  0  0  0  0  0  0  0  0
  -24.4631  -13.3051   20.2889 C   0  0  0  0  0  0  0  0  0  0  0  0
  -23.7783  -18.6819   17.4380 C   0  0  0  0  0  0  0  0  0  0  0  0
  -30.9975  -28.4649   21.1172 C   0  0  0  0  0  0  0  0  0  0  0  0
  -30.2729  -26.2019   21.5542 C   0  0  0  0  0  0  0  0  0  0  0  0
  -22.8122  -19.6817   17.5409 C   0  0  0  0  0  0  0  0  0  0  0  0
  -33.6855  -26.8754   19.8206 C   0  0  0  0  0  0  0  0  0  0  0  0
  -34.7486  -27.3132   19.0309 C   0  0  0  0  0  0  0  0  0  0  0  0
  -24.2291  -20.8841   19.0791 C   0  0  0  0  0  0  0  0  0  0  0  0
  -35.6336  -28.5503   20.9080 C   0  0  0  0  0  0  0  0  0  0  0  0
  -19.1553  -23.1865   16.9216 C   0  0  0  0  0  0  0  0  0  0  0  0
  -28.6983  -27.8356   20.7243 C   0  0  0  0  0  0  0  0  0  0  0  0
  -26.8350  -28.0988   19.0019 C   0  0  0  0  0  0  0  0  0  0  0  0
  -26.3873  -12.3382   21.4069 C   0  0  0  0  0  0  0  0  0  0  0  0
  -24.9744  -18.7704   18.1645 C   0  0  0  0  0  0  0  0  0  0  0  0
  -25.6018  -13.4648   21.0966 C   0  0  0  0  0  0  0  0  0  0  0  0
  -25.2099  -19.8853   18.9817 C   0  0  0  0  0  0  0  0  0  0  0  0
  -31.2808  -27.1660   21.5395 C   0  0  0  0  0  0  0  0  0  0  0  0
  -23.0362  -20.7817   18.3637 C   0  0  0  0  0  0  0  0  0  0  0  0
  -33.5964  -27.2751   21.1541 C   0  0  0  0  0  0  0  0  0  0  0  0
  -35.7226  -28.1506   19.5745 C   0  0  0  0  0  0  0  0  0  0  0  0
  -34.5705  -28.1125   21.6977 C   0  0  0  0  0  0  0  0  0  0  0  0
  -27.3641  -28.1810   20.3039 C   0  0  0  0  0  0  0  0  0  0  0  0
  -18.3713  -24.2840   17.2131 C   0  0  0  0  0  0  0  0  0  0  0  0
  -20.0078  -22.7779   17.9269 C   0  0  0  0  0  0  0  0  0  0  0  0
  -25.5397  -28.5374   19.1294 C   0  0  0  0  0  0  0  0  0  0  0  0
  -19.2802  -24.4447   19.2904 C   0  0  0  0  0  0  0  0  0  0  0  0
  -27.4587  -27.6648   17.7861 C   0  0  0  0  0  0  0  0  0  0  0  0
  -26.3603  -17.0184   20.4258 C   0  0  0  0  0  0  0  0  0  0  0  0
  -28.8151  -19.0918   19.9820 C   0  0  0  0  0  0  0  0  0  0  0  0
  -29.8543  -22.1711   18.9405 C   0  0  0  0  0  0  0  0  0  0  0  0
  -20.6634  -28.6053   21.8309 C   0  0  0  0  0  0  0  0  0  0  0  0
  -27.5940  -12.4359   22.3064 C   0  0  0  0  0  0  0  0  0  0  0  0
  -26.0179  -17.6965   18.0219 C   0  0  0  0  0  0  0  0  0  0  0  0
  -26.4861  -20.0377   19.7668 C   0  0  0  0  0  0  0  0  0  0  0  0
  -28.1186  -13.8601   22.4693 C   0  0  0  0  0  0  0  0  0  0  0  0
  -23.1961  -30.8043   22.9978 C   0  0  0  0  0  0  0  0  0  0  0  0
  -26.9695  -14.8237   22.7484 C   0  0  0  0  0  0  0  0  0  0  0  0
  -24.4629  -30.3113   22.2964 C   0  0  0  0  0  0  0  0  0  0  0  0
  -22.2806  -29.6462   23.3889 C   0  0  0  0  0  0  0  0  0  0  0  0
  -23.1960  -28.2398   21.5860 C   0  0  0  0  0  0  0  0  0  0  0  0
  -25.9749  -14.8489   21.5816 C   0  0  1  0  0  0  0  0  0  0  0  0
  -26.9797  -17.6371   19.2047 C   0  0  1  0  0  0  0  0  0  0  0  0
  -24.1252  -29.3742   21.1209 C   0  0  2  0  0  0  0  0  0  0  0  0
  -17.4181  -24.7998   16.1879 C   0  0  0  0  0  0  0  0  0  0  0  0
  -31.9141  -23.5897   18.7352 C   0  0  0  0  0  0  0  0  0  0  0  0
  -28.7498  -19.6173   22.9870 C   0  0  0  0  0  0  0  0  0  0  0  0
  -30.1209  -21.6735   22.5867 C   0  0  0  0  0  0  0  0  0  0  0  0
  -31.0444  -19.4290   22.0105 C   0  0  0  0  0  0  0  0  0  0  0  0
  -20.2553  -24.6435   21.5641 C   0  0  0  0  0  0  0  0  0  0  0  0
  -29.5729  -22.3588   16.0003 C   0  0  0  0  0  0  0  0  0  0  0  0
  -20.9004  -21.5927   17.7032 C   0  0  0  0  0  0  0  0  0  1  0  0
  -19.1283  -27.5081   20.1732 C   0  0  0  0  0  0  0  0  0  0  0  0
  -18.5140  -26.2637   20.7953 C   0  0  0  0  0  0  0  0  0  0  0  0
  -29.2129  -20.4208   20.5774 C   0  0  1  0  0  0  0  0  0  0  0  0
  -30.9983  -22.5960   18.0376 C   0  0  2  0  0  0  0  0  0  0  0  0
  -29.7570  -20.2816   22.0272 C   0  0  0  0  0  0  0  0  0  0  0  0
  -26.4773  -28.6361   21.1930 N   0  0  0  0  0  0  0  0  0  0  0  0
  -18.4081  -24.9398   18.3916 N   0  0  0  0  0  0  0  0  0  0  0  0
  -20.0966  -23.3861   19.1279 N   0  0  0  0  0  0  0  0  0  0  0  0
  -25.3780  -28.8440   20.4485 N   0  0  0  0  0  0  0  0  0  0  0  0
  -27.4731  -18.9582   19.5989 N   0  0  0  0  0  0  0  0  0  0  0  0
  -21.9960  -28.8010   22.2265 N   0  0  0  0  0  0  0  0  0  0  0  0
  -24.5346  -28.6869   18.2406 N   0  0  0  0  0  0  0  0  0  0  0  0
  -28.7955  -27.2466   17.8332 N   0  0  0  0  0  0  0  0  0  0  0  0
  -26.4956  -15.6447   20.4907 N   0  0  0  0  0  0  0  0  0  0  0  0
  -30.1558  -21.0220   19.6405 N   0  0  0  0  0  0  0  0  0  0  0  0
  -20.4720  -27.7985   20.7140 N   0  0  0  0  0  0  0  0  0  0  0  0
  -19.3457  -25.1062   20.5361 N   0  0  3  0  0  0  0  0  0  0  0  0
  -30.4707  -23.2332   16.7980 N   0  3  0  0  0  0  0  0  0  0  0  0
  -26.8535  -27.6639   16.6873 O   0  0  0  0  0  0  0  0  0  0  0  0
  -25.8024  -17.7344   21.2490 O   0  0  0  0  0  0  0  0  0  0  0  0
  -29.6655  -18.2073   19.8548 O   0  0  0  0  0  0  0  0  0  0  0  0
  -28.8002  -22.7981   19.0199 O   0  0  0  0  0  0  0  0  0  0  0  0
  -19.7062  -29.1171   22.4218 O   0  0  0  0  0  0  0  0  0  0  0  0
  -32.5408  -26.8389   21.9371 O   0  0  0  0  0  0  0  0  0  0  0  0
  -22.0946  -21.7587   18.4665 O   0  0  0  0  0  0  0  0  0  1  0  0
  -36.7443  -28.5697   18.8164 F   0  0  0  0  0  0  0  0  0  0  0  0
  -34.4909  -28.4989   22.9784 F   0  0  0  0  0  0  0  0  0  0  0  0
  1  2  1  0  0  0  0
  1  5  2  0  0  0  0
  2  6  2  0  0  0  0
  3  8  2  0  0  0  0
  3 16  1  0  0  0  0
  4  9  1  0  0  0  0
  4 16  2  0  0  0  0
  5 18  1  0  0  0  0
  6 20  1  0  0  0  0
  7 10  2  0  0  0  0
  7 19  1  0  0  0  0
  8 22  1  0  0  0  0
  9 22  2  0  0  0  0
 10 23  1  0  0  0  0
 11 12  2  0  0  0  0
 11 24  1  0  0  0  0
 12 25  1  0  0  0  0
 13 21  1  0  0  0  0
 13 23  2  0  0  0  0
 14 25  2  0  0  0  0
 14 26  1  0  0  0  0
 15 28  2  0  0  0  0
 15 29  1  0  0  0  0
 16 27  1  0  0  0  0
 17 27  1  0  0  0  0
 17 30  2  0  0  0  0
 17 32  1  0  0  0  0
 18 20  2  0  0  0  0
 18 37  1  0  0  0  0
 19 21  2  0  0  0  0
 19 38  1  0  0  0  0
 20 46  1  0  0  0  0
 21 39  1  0  0  0  0
 22 80  1  0  0  0  0
 23 81  1  0  0  0  0
 24 26  2  0  0  0  0
 24 80  1  0  0  0  0
 25 82  1  0  0  0  0
 26 83  1  0  0  0  0
 27 62  2  0  0  0  0
 28 49  1  0  0  0  0
 28 63  1  0  0  0  0
 29 56  1  0  0  0  0
 29 64  2  0  0  0  0
 30 65  1  0  0  0  0
 30 68  1  0  0  0  0
 31 63  2  0  0  0  0
 31 64  1  0  0  0  0
 31 73  1  0  0  0  0
 32 69  1  0  0  0  0
 32 75  2  0  0  0  0
 33 47  1  0  0  0  0
 33 70  1  0  0  0  0
 33 76  2  0  0  0  0
 34 59  1  0  0  0  0
 34 66  1  0  0  0  0
 34 77  2  0  0  0  0
 35 60  1  0  0  0  0
 35 71  1  0  0  0  0
 35 78  2  0  0  0  0
 36 67  1  0  0  0  0
 36 72  1  0  0  0  0
 36 79  2  0  0  0  0
 37 40  1  0  0  0  0
 38 47  1  0  0  0  0
 39 66  1  0  0  0  0
 40 42  1  0  0  0  0
 41 43  1  0  0  0  0
 41 44  1  0  0  0  0
 42 46  1  0  0  0  0
 43 48  1  0  0  0  0
 44 67  1  0  0  0  0
 45 48  1  0  0  0  0
 45 67  1  0  0  0  0
 46 70  1  0  0  0  0
 47 66  1  0  0  0  0
 48 65  1  0  0  0  0
 50 60  1  0  0  0  0
 51 61  1  0  0  0  0
 52 61  1  0  0  0  0
 53 61  1  0  0  0  0
 54 73  1  0  0  0  0
 55 74  1  0  0  0  0
 56 81  1  0  0  0  0
 57 58  1  0  0  0  0
 57 72  1  0  0  0  0
 58 73  1  0  0  0  0
 59 61  1  0  0  0  0
 59 71  1  0  0  0  0
 60 74  1  0  0  0  0
 62 65  1  0  0  0  0
M  CHG  1  74   1
M  ISO  4  36 100  56 101  72 100  81 101
M  END
> <Batch ID>
0186

> <Smiles>
CNC(C)C(=O)NC(C(=O)N1Cc2cc([101O:1][101CH2:1]c3cc(C)nc(N(C)CC[100NH:0][100C:0](=O)N4CCCC(n5nc(-c6ccc(Oc7ccc(F)cc7F)cc6)c(C(N)=O)c5N)C4)n3)ccc2CC1C(=O)NC1CCCc2ccccc21)C(C)(C)C

> <Shape>
0.207

> <Color>
0.064

> <Negative vol penalty>
0.000

$$$$

  -OEChem-04052323143D

 86 95  0     1  0  0  0  0  0999 V2000
  -23.7319   -7.6689   21.3174 C   0  0  0  0  0  0  0  0  0  0  0  0
  -24.3530   -8.7488   20.6982 C   0  0  0  0  0  0  0  0  0  0  0  0
  -24.7966  -30.6385   22.5897 C   0  0  0  0  0  0  0  0  0  0  0  0
  -26.7900  -31.7480   21.7947 C   0  0  0  0  0  0  0  0  0  0  0  0
  -22.4489   -7.8122   21.8440 C   0  0  0  0  0  0  0  0  0  0  0  0
  -23.6909   -9.9725   20.6044 C   0  0  0  0  0  0  0  0  0  0  0  0
  -26.6747  -13.8910   21.7824 C   0  0  0  0  0  0  0  0  0  0  0  0
  -24.5993  -31.6591   23.5197 C   0  0  0  0  0  0  0  0  0  0  0  0
  -26.5928  -32.7687   22.7247 C   0  0  0  0  0  0  0  0  0  0  0  0
  -27.5812  -14.3153   20.8119 C   0  0  0  0  0  0  0  0  0  0  0  0
  -24.6468  -35.5145   23.0317 C   0  0  0  0  0  0  0  0  0  0  0  0
  -24.7975  -36.8291   22.5905 C   0  0  0  0  0  0  0  0  0  0  0  0
  -26.0868  -16.1105   20.2094 C   0  0  0  0  0  0  0  0  0  0  0  0
  -30.0415  -17.2105   18.5001 C   0  0  0  0  0  0  0  0  0  0  0  0
  -26.5657  -37.1671   24.2019 C   0  0  0  0  0  0  0  0  0  0  0  0
  -25.8920  -30.6828   21.7272 C   0  0  0  0  0  0  0  0  0  0  0  0
  -25.6034  -29.5711   19.4494 C   0  0  0  0  0  0  0  0  0  0  0  0
  -21.7746   -9.0409   21.7652 C   0  0  0  0  0  0  0  0  0  0  0  0
  -25.4604  -14.5679   21.9665 C   0  0  0  0  0  0  0  0  0  0  0  0
  -22.3972  -10.1320   21.1293 C   0  0  0  0  0  0  0  0  0  0  0  0
  -25.1677  -15.6943   21.1846 C   0  0  0  0  0  0  0  0  0  0  0  0
  -30.9895  -18.1427   18.9075 C   0  0  0  0  0  0  0  0  0  0  0  0
  -30.9940  -18.5918   20.2234 C   0  0  0  0  0  0  0  0  0  0  0  0
  -25.4974  -32.7243   23.5872 C   0  0  0  0  0  0  0  0  0  0  0  0
  -27.2861  -15.4234   20.0232 C   0  0  0  0  0  0  0  0  0  0  0  0
  -25.4555  -35.0262   24.0580 C   0  0  0  0  0  0  0  0  0  0  0  0
  -25.7570  -37.6554   23.1756 C   0  0  0  0  0  0  0  0  0  0  0  0
  -26.4149  -35.8525   24.6431 C   0  0  0  0  0  0  0  0  0  0  0  0
  -26.0966  -29.6285   20.7667 C   0  0  0  0  0  0  0  0  0  0  0  0
  -30.0369  -18.0819   21.0859 C   0  0  0  0  0  0  0  0  0  0  0  0
  -29.1270  -16.7625   19.4397 C   0  0  0  0  0  0  0  0  0  1  0  0
  -26.0731  -28.3774   18.9586 C   0  0  0  0  0  0  0  0  0  0  0  0
  -24.7932  -30.5127   18.7334 C   0  0  0  0  0  0  0  0  0  0  0  0
  -22.3918  -13.7824   21.7015 C   0  0  0  0  0  0  0  0  0  0  0  0
  -21.9285  -16.7521   22.9216 C   0  0  0  0  0  0  0  0  0  0  0  0
  -23.1355  -19.9080   23.4012 C   0  0  0  0  0  0  0  0  0  0  0  0
  -30.6834  -25.1067   20.1184 C   0  0  0  0  0  0  0  0  0  0  0  0
  -20.3703   -9.1343   22.3071 C   0  0  0  0  0  0  0  0  0  0  0  0
  -24.5051  -14.1136   23.0358 C   0  0  0  0  0  0  0  0  0  0  0  0
  -23.8869  -16.4679   21.3565 C   0  0  0  0  0  0  0  0  0  0  0  0
  -19.8856  -10.5691   22.4988 C   0  0  0  0  0  0  0  0  0  0  0  0
  -27.3742  -23.9966   20.3448 C   0  0  0  0  0  0  0  0  0  0  0  0
  -20.2082  -11.4105   21.2680 C   0  0  0  0  0  0  0  0  0  0  0  0
  -26.6089  -25.3184   20.3627 C   0  0  0  0  0  0  0  0  0  0  0  0
  -33.2264  -22.4176   20.0309 C   0  0  0  0  0  0  0  0  0  0  0  0
  -28.6571  -24.0594   21.1769 C   0  0  0  0  0  0  0  0  0  0  0  0
  -32.3400  -23.4396   19.3318 C   0  0  0  0  0  0  0  0  0  0  0  0
  -28.7786  -26.5100   20.8342 C   0  0  0  0  0  0  0  0  0  0  0  0
  -21.7213  -11.4823   21.0299 C   0  0  1  0  0  0  0  0  0  0  0  0
  -23.0702  -14.5685   22.7875 C   0  0  1  0  0  0  0  0  0  0  0  0
  -27.5227  -26.4853   19.9508 C   0  0  2  0  0  0  0  0  0  0  0  0
  -32.4232  -22.0063   21.2610 C   0  0  1  0  0  0  0  0  0  0  0  0
  -31.6716  -23.2824   21.6510 C   0  0  1  0  0  0  0  0  0  0  0  0
  -31.9874  -18.6444   17.9166 C   0  0  0  0  0  0  0  0  0  0  0  0
  -29.9920  -18.5271   22.5113 C   0  0  0  0  0  0  0  0  0  0  0  0
  -32.5141  -24.1662   22.5754 C   0  0  0  0  0  0  0  0  0  0  0  0
  -22.5129  -22.1246   24.3993 C   0  0  0  0  0  0  0  0  0  0  0  0
  -20.1065  -17.3106   20.5386 C   0  0  0  0  0  0  0  0  0  0  0  0
  -20.2859  -19.7522   21.0626 C   0  0  0  0  0  0  0  0  0  0  0  0
  -19.2675  -18.1936   22.7228 C   0  0  0  0  0  0  0  0  0  0  0  0
  -25.3956  -19.8143   25.3097 C   0  0  0  0  0  0  0  0  0  0  0  0
  -32.0052  -19.5964   20.6916 C   0  0  0  0  0  0  0  0  0  0  0  0
  -21.7655  -18.1345   22.3372 C   0  0  1  0  0  0  0  0  0  0  0  0
  -23.1951  -20.7865   24.6378 C   0  0  2  0  0  0  0  0  0  0  0  0
  -20.3797  -18.3322   21.6605 C   0  0  0  0  0  0  0  0  0  0  0  0
  -26.8237  -28.5564   21.0922 N   0  0  0  0  0  0  0  0  0  0  0  0
  -29.1002  -17.1757   20.7267 N   0  0  0  0  0  0  0  0  0  0  0  0
  -26.7908  -27.8141   19.9724 N   0  0  0  0  0  0  0  0  0  0  0  0
  -22.9822  -15.9808   22.4109 N   0  0  0  0  0  0  0  0  0  0  0  0
  -29.4716  -25.2214   20.8067 N   0  0  0  0  0  0  0  0  0  0  0  0
  -31.4441  -23.9622   20.3602 N   0  0  0  0  0  0  0  0  0  0  0  0
  -25.9380  -27.7650   17.7632 N   0  0  0  0  0  0  0  0  0  0  0  0
  -24.3989  -31.6880   19.3873 N   0  0  0  0  0  0  0  0  0  0  0  0
  -22.3326  -12.4233   21.9439 N   0  0  0  0  0  0  0  0  0  0  0  0
  -22.0400  -19.0710   23.4217 N   0  0  0  0  0  0  0  0  0  0  0  0
  -31.4335  -20.9634   20.8666 N   0  3  0  0  0  0  0  0  0  0  0  0
  -24.6117  -21.0432   25.0230 N   0  3  0  0  0  0  0  0  0  0  0  0
  -24.4160  -30.3100   17.5544 O   0  0  0  0  0  0  0  0  0  0  0  0
  -21.9532  -14.3659   20.7172 O   0  0  0  0  0  0  0  0  0  0  0  0
  -21.1539  -16.3732   23.8037 O   0  0  0  0  0  0  0  0  0  0  0  0
  -23.9747  -19.9617   22.5049 O   0  0  0  0  0  0  0  0  0  0  0  0
  -31.0796  -25.9971   19.3562 O   0  0  0  0  0  0  0  0  0  0  0  0
  -25.3051  -33.7206   24.4944 O   0  0  0  0  0  0  0  0  0  0  0  0
  -28.1817  -15.8453   19.0611 O   0  0  0  0  0  0  0  0  0  1  0  0
  -25.9026  -38.9174   22.7508 F   0  0  0  0  0  0  0  0  0  0  0  0
  -27.1955  -35.3886   25.6286 F   0  0  0  0  0  0  0  0  0  0  0  0
  1  2  1  0  0  0  0
  1  5  2  0  0  0  0
  2  6  2  0  0  0  0
  3  8  2  0  0  0  0
  3 16  1  0  0  0  0
  4  9  1  0  0  0  0
  4 16  2  0  0  0  0
  5 18  1  0  0  0  0
  6 20  1  0  0  0  0
  7 10  2  0  0  0  0
  7 19  1  0  0  0  0
  8 24  1  0  0  0  0
  9 24  2  0  0  0  0
 10 25  1  0  0  0  0
 11 12  2  0  0  0  0
 11 26  1  0  0  0  0
 12 27  1  0  0  0  0
 13 21  1  0  0  0  0
 13 25  2  0  0  0  0
 14 22  2  0  0  0  0
 14 31  1  0  0  0  0
 15 27  2  0  0  0  0
 15 28  1  0  0  0  0
 16 29  1  0  0  0  0
 17 29  1  0  0  0  0
 17 32  2  0  0  0  0
 17 33  1  0  0  0  0
 18 20  2  0  0  0  0
 18 38  1  0  0  0  0
 19 21  2  0  0  0  0
 19 39  1  0  0  0  0
 20 49  1  0  0  0  0
 21 40  1  0  0  0  0
 22 23  1  0  0  0  0
 22 54  1  0  0  0  0
 23 30  2  0  0  0  0
 23 62  1  0  0  0  0
 24 83  1  0  0  0  0
 25 84  1  0  0  0  0
 26 28  2  0  0  0  0
 26 83  1  0  0  0  0
 27 85  1  0  0  0  0
 28 86  1  0  0  0  0
 29 66  2  0  0  0  0
 30 55  1  0  0  0  0
 30 67  1  0  0  0  0
 31 67  2  0  0  0  0
 31 84  1  0  0  0  0
 32 68  1  0  0  0  0
 32 72  1  0  0  0  0
 33 73  1  0  0  0  0
 33 78  2  0  0  0  0
 34 50  1  0  0  0  0
 34 74  1  0  0  0  0
 34 79  2  0  0  0  0
 35 63  1  0  0  0  0
 35 69  1  0  0  0  0
 35 80  2  0  0  0  0
 36 64  1  0  0  0  0
 36 75  1  0  0  0  0
 36 81  2  0  0  0  0
 37 70  1  0  0  0  0
 37 71  1  0  0  0  0
 37 82  2  0  0  0  0
 38 41  1  0  0  0  0
 39 50  1  0  0  0  0
 40 69  1  0  0  0  0
 41 43  1  0  0  0  0
 42 44  1  0  0  0  0
 42 46  1  0  0  0  0
 43 49  1  0  0  0  0
 44 51  1  0  0  0  0
 45 47  1  0  0  0  0
 45 52  1  0  0  0  0
 46 70  1  0  0  0  0
 47 71  1  0  0  0  0
 48 51  1  0  0  0  0
 48 70  1  0  0  0  0
 49 74  1  0  0  0  0
 50 69  1  0  0  0  0
 51 68  1  0  0  0  0
 52 53  1  0  0  0  0
 52 76  1  0  0  0  0
 53 56  1  0  0  0  0
 53 71  1  0  0  0  0
 57 64  1  0  0  0  0
 58 65  1  0  0  0  0
 59 65  1  0  0  0  0
 60 65  1  0  0  0  0
 61 77  1  0  0  0  0
 62 76  1  0  0  0  0
 63 65  1  0  0  0  0
 63 75  1  0  0  0  0
 64 77  1  0  0  0  0
 66 68  1  0  0  0  0
M  CHG  2  76   1  77   1
M  ISO  4  31 101  37 100  71 100  84 101
M  END
> <Batch ID>
0186

> <Smiles>
CNC(C)C(=O)NC(C(=O)N1Cc2cc([101O:1][101c:1]3cc(C)c(CNC4CC[100N:0]([100C:0](=O)N5CCCC(n6nc(-c7ccc(Oc8ccc(F)cc8F)cc7)c(C(N)=O)c6N)C5)C4C)c(C)n3)ccc2CC1C(=O)NC1CCCc2ccccc21)C(C)(C)C

> <Shape>
0.248

> <Color>
0.073

> <Negative vol penalty>
0.000

$$$$

  -OEChem-04052323143D

 81 89  0     1  0  0  0  0  0999 V2000
  -22.3996  -17.4712   18.8323 C   0  0  0  0  0  0  0  0  0  0  0  0
  -23.7712  -17.5682   18.6208 C   0  0  0  0  0  0  0  0  0  0  0  0
  -23.0201   -9.7087   19.9521 C   0  0  0  0  0  0  0  0  0  0  0  0
  -23.5855   -9.6260   22.2995 C   0  0  0  0  0  0  0  0  0  0  0  0
  -21.5758  -18.5650   18.5698 C   0  0  0  0  0  0  0  0  0  0  0  0
  -24.3197  -18.7589   18.1455 C   0  0  0  0  0  0  0  0  0  0  0  0
  -28.5151  -20.0991   20.6449 C   0  0  0  0  0  0  0  0  0  0  0  0
  -22.3145   -8.5123   20.0799 C   0  0  0  0  0  0  0  0  0  0  0  0
  -22.8799   -8.4296   22.4274 C   0  0  0  0  0  0  0  0  0  0  0  0
  -29.6939  -19.4324   20.3138 C   0  0  0  0  0  0  0  0  0  0  0  0
  -21.5300   -5.1682   23.2939 C   0  0  0  0  0  0  0  0  0  0  0  0
  -22.1306   -4.1349   24.0130 C   0  0  0  0  0  0  0  0  0  0  0  0
  -30.3588  -21.3018   18.9418 C   0  0  0  0  0  0  0  0  0  0  0  0
  -23.9768   -4.1234   22.4547 C   0  0  0  0  0  0  0  0  0  0  0  0
  -23.6557  -10.2655   21.0619 C   0  0  0  0  0  0  0  0  0  0  0  0
  -23.8842  -12.8061   21.0973 C   0  0  0  0  0  0  0  0  0  0  0  0
  -22.1157  -19.7728   18.1003 C   0  0  0  0  0  0  0  0  0  0  0  0
  -28.2439  -21.3698   20.1173 C   0  0  0  0  0  0  0  0  0  0  0  0
  -23.5022  -19.8695   17.8751 C   0  0  0  0  0  0  0  0  0  0  0  0
  -29.1771  -21.9836   19.2697 C   0  0  0  0  0  0  0  0  0  0  0  0
  -22.2443   -7.8728   21.3175 C   0  0  0  0  0  0  0  0  0  0  0  0
  -30.6147  -20.0324   19.4598 C   0  0  0  0  0  0  0  0  0  0  0  0
  -22.1528   -5.6791   22.1551 C   0  0  0  0  0  0  0  0  0  0  0  0
  -23.3540   -3.6125   23.5935 C   0  0  0  0  0  0  0  0  0  0  0  0
  -23.3762   -5.1567   21.7355 C   0  0  0  0  0  0  0  0  0  0  0  0
  -24.3853  -11.5011   20.9304 C   0  0  0  0  0  0  0  0  0  0  0  0
  -24.9654  -13.6211   20.8664 C   0  0  0  0  0  0  0  0  0  0  0  0
  -32.3573  -16.7519   17.0151 C   0  0  0  0  0  0  0  0  0  0  0  0
  -33.3578  -16.2793   16.0226 C   0  0  0  0  0  0  0  0  0  0  0  0
  -32.6979  -17.4660   18.0907 C   0  0  0  0  0  0  0  0  0  0  0  0
  -22.5600  -13.2425   21.4312 C   0  0  0  0  0  0  0  0  0  0  0  0
  -25.9807  -22.5848   18.2450 C   0  0  0  0  0  0  0  0  0  0  0  0
  -27.4655  -25.3869   18.9278 C   0  0  0  0  0  0  0  0  0  0  0  0
  -30.3161  -26.9945   19.8956 C   0  0  0  0  0  0  0  0  0  0  0  0
  -29.2549  -14.9598   17.6790 C   0  0  0  0  0  0  0  0  0  0  0  0
  -21.1796  -20.9127   17.7858 C   0  0  0  0  0  0  0  0  0  0  0  0
  -26.9800  -22.0871   20.5055 C   0  0  0  0  0  0  0  0  0  0  0  0
  -28.9426  -23.3550   18.6928 C   0  0  0  0  0  0  0  0  0  0  0  0
  -21.8857  -22.2583   17.6402 C   0  0  0  0  0  0  0  0  0  0  0  0
  -29.8706  -12.5547   20.4083 C   0  0  0  0  0  0  0  0  0  0  0  0
  -23.1240  -22.1189   16.7604 C   0  0  0  0  0  0  0  0  0  0  0  0
  -28.4454  -12.1379   20.7592 C   0  0  0  0  0  0  0  0  0  0  0  0
  -30.0311  -12.8507   18.9178 C   0  0  0  0  0  0  0  0  0  0  0  0
  -27.6280  -13.4360   18.7537 C   0  0  0  0  0  0  0  0  0  0  0  0
  -24.1378  -21.1520   17.3840 C   0  0  1  0  0  0  0  0  0  0  0  0
  -30.9818  -16.3429   16.5669 C   0  0  1  0  0  0  0  0  0  0  0  0
  -26.5698  -23.1603   19.5018 C   0  0  1  0  0  0  0  0  0  0  0  0
  -27.4358  -13.1813   20.2565 C   0  0  1  0  0  0  0  0  0  0  0  0
  -31.1902  -16.0483   15.0603 C   0  0  0  0  0  0  0  0  0  0  0  0
  -30.8460  -17.3001   14.2312 C   0  0  0  0  0  0  0  0  0  0  0  0
  -30.3877  -14.8604   14.5229 C   0  0  0  0  0  0  0  0  0  0  0  0
  -31.2332  -29.2901   20.3277 C   0  0  0  0  0  0  0  0  0  0  0  0
  -27.6579  -25.8731   15.9217 C   0  0  0  0  0  0  0  0  0  0  0  0
  -29.3721  -27.6375   16.3872 C   0  0  0  0  0  0  0  0  0  0  0  0
  -27.0522  -27.8916   17.2683 C   0  0  0  0  0  0  0  0  0  0  0  0
  -30.8862  -26.3598   22.7296 C   0  0  0  0  0  0  0  0  0  0  0  0
  -31.7221  -17.9574   19.1079 C   0  0  0  0  0  0  0  0  0  1  0  0
  -28.5926  -26.1781   18.3090 C   0  0  1  0  0  0  0  0  0  0  0  0
  -30.5614  -28.0701   20.9384 C   0  0  2  0  0  0  0  0  0  0  0  0
  -28.1725  -26.8684   16.9807 C   0  0  0  0  0  0  0  0  0  0  0  0
  -25.6837  -11.4833   20.6175 N   0  0  0  0  0  0  0  0  0  0  0  0
  -26.0076  -12.7872   20.5859 N   0  0  0  0  0  0  0  0  0  0  0  0
  -32.6208  -15.7959   14.9528 N   0  0  0  0  0  0  0  0  0  0  0  0
  -27.6892  -24.0131   19.0971 N   0  0  0  0  0  0  0  0  0  0  0  0
  -29.0151  -13.8031   18.4427 N   0  0  0  0  0  0  0  0  0  0  0  0
  -25.1168  -14.9625   20.8780 N   0  0  0  0  0  0  0  0  0  0  0  0
  -21.5685  -12.2731   21.6351 N   0  0  0  0  0  0  0  0  0  0  0  0
  -24.8622  -21.8011   18.4555 N   0  0  0  0  0  0  0  0  0  0  0  0
  -29.0586  -27.0993   19.3399 N   0  0  0  0  0  0  0  0  0  0  0  0
  -30.5833  -15.2029   17.3486 N   0  0  0  0  0  0  0  0  0  0  0  0
  -31.4358  -27.5472   22.0261 N   0  3  0  0  0  0  0  0  0  0  0  0
  -34.5692  -16.3110   16.1502 O   0  0  0  0  0  0  0  0  0  0  0  0
  -22.2607  -14.4567   21.5292 O   0  0  0  0  0  0  0  0  0  0  0  0
  -26.5014  -22.8346   17.1642 O   0  0  0  0  0  0  0  0  0  0  0  0
  -26.4278  -25.9676   19.2556 O   0  0  0  0  0  0  0  0  0  0  0  0
  -31.1574  -26.1484   19.6007 O   0  0  0  0  0  0  0  0  0  0  0  0
  -28.3515  -15.7193   17.3120 O   0  0  0  0  0  0  0  0  0  0  0  0
  -21.5556   -6.7055   21.4426 O   0  0  0  0  0  0  0  0  0  0  0  0
  -31.7657  -19.3835   19.1345 O   0  0  0  0  0  0  0  0  0  1  0  0
  -23.9314   -2.6213   24.2851 F   0  0  0  0  0  0  0  0  0  0  0  0
  -23.9799   -5.6443   20.6430 F   0  0  0  0  0  0  0  0  0  0  0  0
  1  2  1  0  0  0  0
  1  5  2  0  0  0  0
  2  6  2  0  0  0  0
  3  8  2  0  0  0  0
  3 15  1  0  0  0  0
  4  9  1  0  0  0  0
  4 15  2  0  0  0  0
  5 17  1  0  0  0  0
  6 19  1  0  0  0  0
  7 10  2  0  0  0  0
  7 18  1  0  0  0  0
  8 21  1  0  0  0  0
  9 21  2  0  0  0  0
 10 22  1  0  0  0  0
 11 12  2  0  0  0  0
 11 23  1  0  0  0  0
 12 24  1  0  0  0  0
 13 20  1  0  0  0  0
 13 22  2  0  0  0  0
 14 24  2  0  0  0  0
 14 25  1  0  0  0  0
 15 26  1  0  0  0  0
 16 26  1  0  0  0  0
 16 27  2  0  0  0  0
 16 31  1  0  0  0  0
 17 19  2  0  0  0  0
 17 36  1  0  0  0  0
 18 20  2  0  0  0  0
 18 37  1  0  0  0  0
 19 45  1  0  0  0  0
 20 38  1  0  0  0  0
 21 78  1  0  0  0  0
 22 79  1  0  0  0  0
 23 25  2  0  0  0  0
 23 78  1  0  0  0  0
 24 80  1  0  0  0  0
 25 81  1  0  0  0  0
 26 61  2  0  0  0  0
 27 62  1  0  0  0  0
 27 66  1  0  0  0  0
 28 29  1  0  0  0  0
 28 30  2  0  0  0  0
 28 46  1  0  0  0  0
 29 63  1  0  0  0  0
 29 72  2  0  0  0  0
 30 57  1  0  0  0  0
 31 67  1  0  0  0  0
 31 73  2  0  0  0  0
 32 47  1  0  0  0  0
 32 68  1  0  0  0  0
 32 74  2  0  0  0  0
 33 58  1  0  0  0  0
 33 64  1  0  0  0  0
 33 75  2  0  0  0  0
 34 59  1  0  0  0  0
 34 69  1  0  0  0  0
 34 76  2  0  0  0  0
 35 65  1  0  0  0  0
 35 70  1  0  0  0  0
 35 77  2  0  0  0  0
 36 39  1  0  0  0  0
 37 47  1  0  0  0  0
 38 64  1  0  0  0  0
 39 41  1  0  0  0  0
 40 42  1  0  0  0  0
 40 43  1  0  0  0  0
 41 45  1  0  0  0  0
 42 48  1  0  0  0  0
 43 65  1  0  0  0  0
 44 48  1  0  0  0  0
 44 65  1  0  0  0  0
 45 68  1  0  0  0  0
 46 49  1  0  0  0  0
 46 70  1  0  0  0  0
 47 64  1  0  0  0  0
 48 62  1  0  0  0  0
 49 50  1  0  0  0  0
 49 51  1  0  0  0  0
 49 63  1  0  0  0  0
 52 59  1  0  0  0  0
 53 60  1  0  0  0  0
 54 60  1  0  0  0  0
 55 60  1  0  0  0  0
 56 71  1  0  0  0  0
 57 79  1  0  0  0  0
 58 60  1  0  0  0  0
 58 69  1  0  0  0  0
 59 71  1  0  0  0  0
 61 62  1  0  0  0  0
M  CHG  1  71   1
M  ISO  4  35 100  57 101  70 100  79 101
M  END
> <Batch ID>
0186

> <Smiles>
CNC(C)C(=O)NC(C(=O)N1Cc2cc([101O:1][101CH2:1]C=C3C(=O)NC(C)(C)C3[100NH:0][100C:0](=O)N3CCCC(n4nc(-c5ccc(Oc6ccc(F)cc6F)cc5)c(C(N)=O)c4N)C3)ccc2CC1C(=O)NC1CCCc2ccccc21)C(C)(C)C

> <Shape>
0.220

> <Color>
0.150

> <Negative vol penalty>
0.000

$$$$

  -OEChem-04052323143D

 83 92  0     1  0  0  0  0  0999 V2000
  -27.4799  -24.3496   16.9302 C   0  0  0  0  0  0  0  0  0  0  0  0
  -26.2991  -24.7067   17.5733 C   0  0  0  0  0  0  0  0  0  0  0  0
  -24.8217  -13.7330   21.4220 C   0  0  0  0  0  0  0  0  0  0  0  0
  -25.5398  -13.7823   19.1157 C   0  0  0  0  0  0  0  0  0  0  0  0
  -28.7090  -24.7044   17.4845 C   0  0  0  0  0  0  0  0  0  0  0  0
  -26.3468  -25.4180   18.7718 C   0  0  0  0  0  0  0  0  0  0  0  0
  -23.0345  -29.2467   18.8917 C   0  0  0  0  0  0  0  0  0  0  0  0
  -24.0411  -12.6084   21.1550 C   0  0  0  0  0  0  0  0  0  0  0  0
  -24.7591  -12.6576   18.8487 C   0  0  0  0  0  0  0  0  0  0  0  0
  -21.7008  -28.9273   19.1427 C   0  0  0  0  0  0  0  0  0  0  0  0
  -24.5146   -9.2836   20.7620 C   0  0  0  0  0  0  0  0  0  0  0  0
  -24.5694   -8.2259   21.6698 C   0  0  0  0  0  0  0  0  0  0  0  0
  -18.5153  -26.8292   20.4979 C   0  0  0  0  0  0  0  0  0  0  0  0
  -21.9828  -29.5864   21.4460 C   0  0  0  0  0  0  0  0  0  0  0  0
  -22.1976   -8.4485   22.0724 C   0  0  0  0  0  0  0  0  0  0  0  0
  -18.3032  -25.5436   20.9523 C   0  0  0  0  0  0  0  0  0  0  0  0
  -25.5711  -14.3200   20.4024 C   0  0  0  0  0  0  0  0  0  0  0  0
  -27.7211  -15.5047   21.0962 C   0  0  0  0  0  0  0  0  0  0  0  0
  -28.7716  -25.4287   18.6854 C   0  0  0  0  0  0  0  0  0  0  0  0
  -23.8567  -29.7289   19.9202 C   0  0  0  0  0  0  0  0  0  0  0  0
  -27.5779  -25.7816   19.3434 C   0  0  0  0  0  0  0  0  0  0  0  0
  -23.3259  -29.9137   21.2048 C   0  0  0  0  0  0  0  0  0  0  0  0
  -24.0098  -12.0706   19.8683 C   0  0  0  0  0  0  0  0  0  0  0  0
  -21.1756  -29.0943   20.4207 C   0  0  0  0  0  0  0  0  0  0  0  0
  -23.3013   -9.9237   20.5095 C   0  0  0  0  0  0  0  0  0  0  0  0
  -23.4110   -7.8084   22.3249 C   0  0  0  0  0  0  0  0  0  0  0  0
  -22.1428   -9.5062   21.1646 C   0  0  0  0  0  0  0  0  0  0  0  0
  -26.3772  -15.4821   20.6775 C   0  0  0  0  0  0  0  0  0  0  0  0
  -19.5791  -27.4967   21.0697 C   0  0  0  0  0  0  0  0  0  1  0  0
  -28.0207  -16.8397   21.2171 C   0  0  0  0  0  0  0  0  0  0  0  0
  -20.0714  -25.6998   22.3721 C   0  0  0  0  0  0  0  0  0  0  0  0
  -28.6185  -14.4163   21.3528 C   0  0  0  0  0  0  0  0  0  0  0  0
  -26.5116  -28.7046   21.3364 C   0  0  0  0  0  0  0  0  0  0  0  0
  -26.3612  -31.5813   22.8277 C   0  0  0  0  0  0  0  0  0  0  0  0
  -24.4495  -34.2133   23.8597 C   0  0  0  0  0  0  0  0  0  0  0  0
  -24.8911  -21.5633   22.3584 C   0  0  0  0  0  0  0  0  0  0  0  0
  -30.1244  -25.7486   19.2705 C   0  0  0  0  0  0  0  0  0  0  0  0
  -25.2860  -30.0942   19.6269 C   0  0  0  0  0  0  0  0  0  0  0  0
  -24.1612  -30.4473   22.3389 C   0  0  0  0  0  0  0  0  0  0  0  0
  -30.0816  -26.8275   20.3496 C   0  0  0  0  0  0  0  0  0  0  0  0
  -26.8352  -21.1252   19.4649 C   0  0  0  0  0  0  0  0  0  0  0  0
  -28.9506  -26.5520   21.3354 C   0  0  0  0  0  0  0  0  0  0  0  0
  -27.0730  -19.6156   19.4852 C   0  0  0  0  0  0  0  0  0  0  0  0
  -25.4072  -21.4864   19.8779 C   0  0  0  0  0  0  0  0  0  0  0  0
  -23.5461  -23.3645   21.1874 C   0  0  0  0  0  0  0  0  0  0  0  0
  -24.5320  -23.7749   23.4117 C   0  0  0  0  0  0  0  0  0  0  0  0
  -25.2330  -19.4018   21.1983 C   0  0  0  0  0  0  0  0  0  0  0  0
  -22.1602  -23.6995   21.7294 C   0  0  0  0  0  0  0  0  0  0  0  0
  -23.1629  -24.0904   23.9919 C   0  0  0  0  0  0  0  0  0  0  0  0
  -27.5881  -26.5748   20.6321 C   0  0  1  0  0  0  0  0  0  0  0  0
  -26.1706  -30.0915   20.8698 C   0  0  1  0  0  0  0  0  0  0  0  0
  -26.6765  -19.0123   20.8443 C   0  0  1  0  0  0  0  0  0  0  0  0
  -24.6017  -36.3970   25.0867 C   0  0  0  0  0  0  0  0  0  0  0  0
  -26.5468  -30.0775   25.4762 C   0  0  0  0  0  0  0  0  0  0  0  0
  -25.7496  -32.1517   26.6297 C   0  0  0  0  0  0  0  0  0  0  0  0
  -27.9031  -32.1761   25.3708 C   0  0  0  0  0  0  0  0  0  0  0  0
  -23.5222  -35.7375   21.4984 C   0  0  0  0  0  0  0  0  0  0  0  0
  -20.9396  -25.0689   23.4204 C   0  0  0  0  0  0  0  0  0  0  0  0
  -25.7220  -32.0967   24.0946 C   0  0  1  0  0  0  0  0  0  0  0  0
  -24.6455  -35.7130   23.7292 C   0  0  2  0  0  0  0  0  0  0  0  0
  -26.4649  -31.6136   25.3721 C   0  0  0  0  0  0  0  0  0  0  0  0
  -19.0646  -24.9454   21.8918 N   0  0  0  0  0  0  0  0  0  0  0  0
  -25.8588  -16.7055   20.5417 N   0  0  0  0  0  0  0  0  0  0  0  0
  -20.3809  -26.9603   22.0129 N   0  0  0  0  0  0  0  0  0  0  0  0
  -26.8822  -17.5094   20.8771 N   0  0  0  0  0  0  0  0  0  0  0  0
  -25.5546  -30.7840   22.0034 N   0  0  0  0  0  0  0  0  0  0  0  0
  -25.0604  -20.8555   21.1590 N   0  0  0  0  0  0  0  0  0  0  0  0
  -24.4264  -22.8831   22.2589 N   0  0  0  0  0  0  0  0  0  0  0  0
  -29.1441  -17.4942   21.5801 N   0  0  0  0  0  0  0  0  0  0  0  0
  -28.1482  -13.1075   21.1792 N   0  0  0  0  0  0  0  0  0  0  0  0
  -27.1663  -27.9381   20.3913 N   0  0  0  0  0  0  0  0  0  0  0  0
  -25.6531  -33.5474   23.9560 N   0  0  0  0  0  0  0  0  0  0  0  0
  -22.2845  -24.6490   22.8967 N   0  3  0  0  0  0  0  0  0  0  0  0
  -23.5787  -36.3021   22.8714 N   0  3  0  0  0  0  0  0  0  0  0  0
  -29.7973  -14.5987   21.7408 O   0  0  0  0  0  0  0  0  0  0  0  0
  -26.2049  -28.3562   22.4705 O   0  0  0  0  0  0  0  0  0  0  0  0
  -27.5308  -31.8812   22.5752 O   0  0  0  0  0  0  0  0  0  0  0  0
  -23.3396  -33.6857   23.8784 O   0  0  0  0  0  0  0  0  0  0  0  0
  -25.1401  -21.0458   23.4546 O   0  0  0  0  0  0  0  0  0  0  0  0
  -23.2483  -10.9731   19.6074 O   0  0  0  0  0  0  0  0  0  0  0  0
  -19.8552  -28.7781   20.6722 O   0  0  0  0  0  0  0  0  0  1  0  0
  -23.4635   -6.7917   23.1955 F   0  0  0  0  0  0  0  0  0  0  0  0
  -20.9740  -10.1165   20.9252 F   0  0  0  0  0  0  0  0  0  0  0  0
  1  2  1  0  0  0  0
  1  5  2  0  0  0  0
  2  6  2  0  0  0  0
  3  8  2  0  0  0  0
  3 17  1  0  0  0  0
  4  9  1  0  0  0  0
  4 17  2  0  0  0  0
  5 19  1  0  0  0  0
  6 21  1  0  0  0  0
  7 10  2  0  0  0  0
  7 20  1  0  0  0  0
  8 23  1  0  0  0  0
  9 23  2  0  0  0  0
 10 24  1  0  0  0  0
 11 12  2  0  0  0  0
 11 25  1  0  0  0  0
 12 26  1  0  0  0  0
 13 16  2  0  0  0  0
 13 29  1  0  0  0  0
 14 22  1  0  0  0  0
 14 24  2  0  0  0  0
 15 26  2  0  0  0  0
 15 27  1  0  0  0  0
 16 62  1  0  0  0  0
 17 28  1  0  0  0  0
 18 28  1  0  0  0  0
 18 30  2  0  0  0  0
 18 32  1  0  0  0  0
 19 21  2  0  0  0  0
 19 37  1  0  0  0  0
 20 22  2  0  0  0  0
 20 38  1  0  0  0  0
 21 50  1  0  0  0  0
 22 39  1  0  0  0  0
 23 80  1  0  0  0  0
 24 81  1  0  0  0  0
 25 27  2  0  0  0  0
 25 80  1  0  0  0  0
 26 82  1  0  0  0  0
 27 83  1  0  0  0  0
 28 63  2  0  0  0  0
 29 64  2  0  0  0  0
 29 81  1  0  0  0  0
 30 65  1  0  0  0  0
 30 69  1  0  0  0  0
 31 58  1  0  0  0  0
 31 62  2  0  0  0  0
 31 64  1  0  0  0  0
 32 70  1  0  0  0  0
 32 75  2  0  0  0  0
 33 51  1  0  0  0  0
 33 71  1  0  0  0  0
 33 76  2  0  0  0  0
 34 59  1  0  0  0  0
 34 66  1  0  0  0  0
 34 77  2  0  0  0  0
 35 60  1  0  0  0  0
 35 72  1  0  0  0  0
 35 78  2  0  0  0  0
 36 67  1  0  0  0  0
 36 68  1  0  0  0  0
 36 79  2  0  0  0  0
 37 40  1  0  0  0  0
 38 51  1  0  0  0  0
 39 66  1  0  0  0  0
 40 42  1  0  0  0  0
 41 43  1  0  0  0  0
 41 44  1  0  0  0  0
 42 50  1  0  0  0  0
 43 52  1  0  0  0  0
 44 67  1  0  0  0  0
 45 48  1  0  0  0  0
 45 68  1  0  0  0  0
 46 49  1  0  0  0  0
 46 68  1  0  0  0  0
 47 52  1  0  0  0  0
 47 67  1  0  0  0  0
 48 73  1  0  0  0  0
 49 73  1  0  0  0  0
 50 71  1  0  0  0  0
 51 66  1  0  0  0  0
 52 65  1  0  0  0  0
 53 60  1  0  0  0  0
 54 61  1  0  0  0  0
 55 61  1  0  0  0  0
 56 61  1  0  0  0  0
 57 74  1  0  0  0  0
 58 73  1  0  0  0  0
 59 61  1  0  0  0  0
 59 72  1  0  0  0  0
 60 74  1  0  0  0  0
 63 65  1  0  0  0  0
M  CHG  2  73   1  74   1
M  ISO  4  29 101  36 100  68 100  81 101
M  END
> <Batch ID>
0186

> <Smiles>
CNC(C)C(=O)NC(C(=O)N1Cc2cc([101O:1][101c:1]3ccnc(CN4CC[100N:0]([100C:0](=O)N5CCCC(n6nc(-c7ccc(Oc8ccc(F)cc8F)cc7)c(C(N)=O)c6N)C5)CC4)n3)ccc2CC1C(=O)NC1CCCc2ccccc21)C(C)(C)C

> <Shape>
0.332

> <Color>
0.078

> <Negative vol penalty>
0.000

$$$$

  -OEChem-04052323143D

 85 94  0     1  0  0  0  0  0999 V2000
  -20.8199  -34.1080   21.5142 C   0  0  0  0  0  0  0  0  0  0  0  0
  -22.0456  -33.4836   21.3060 C   0  0  0  0  0  0  0  0  0  0  0  0
  -25.5509   -9.8730   22.2837 C   0  0  0  0  0  0  0  0  0  0  0  0
  -23.2428   -9.9623   21.5753 C   0  0  0  0  0  0  0  0  0  0  0  0
  -19.8522  -33.4943   22.3084 C   0  0  0  0  0  0  0  0  0  0  0  0
  -22.3047  -32.2456   21.8930 C   0  0  0  0  0  0  0  0  0  0  0  0
  -25.6284  -27.6755   19.5323 C   0  0  0  0  0  0  0  0  0  0  0  0
  -25.4504   -8.4902   22.4366 C   0  0  0  0  0  0  0  0  0  0  0  0
  -23.1423   -8.5795   21.7282 C   0  0  0  0  0  0  0  0  0  0  0  0
  -26.9481  -27.2738   19.7346 C   0  0  0  0  0  0  0  0  0  0  0  0
  -22.7477   -6.3752   24.2612 C   0  0  0  0  0  0  0  0  0  0  0  0
  -21.6171   -5.8751   24.9072 C   0  0  0  0  0  0  0  0  0  0  0  0
  -26.1993  -25.6501   21.3538 C   0  0  0  0  0  0  0  0  0  0  0  0
  -21.0407   -4.6188   22.9256 C   0  0  0  0  0  0  0  0  0  0  0  0
  -24.4470  -10.6090   21.8530 C   0  0  0  0  0  0  0  0  0  0  0  0
  -24.9325  -12.7396   20.5367 C   0  0  0  0  0  0  0  0  0  0  0  0
  -20.0960  -32.2436   22.8976 C   0  0  0  0  0  0  0  0  0  0  0  0
  -24.5836  -27.0739   20.2485 C   0  0  0  0  0  0  0  0  0  0  0  0
  -21.3399  -31.6152   22.6970 C   0  0  0  0  0  0  0  0  0  0  0  0
  -24.8670  -26.0442   21.1569 C   0  0  0  0  0  0  0  0  0  0  0  0
  -24.2462   -7.8434   22.1588 C   0  0  0  0  0  0  0  0  0  0  0  0
  -27.2340  -26.2630   20.6475 C   0  0  0  0  0  0  0  0  0  0  0  0
  -23.0247   -5.9972   22.9474 C   0  0  0  0  0  0  0  0  0  0  0  0
  -20.7636   -4.9968   24.2394 C   0  0  0  0  0  0  0  0  0  0  0  0
  -22.1712   -5.1190   22.2796 C   0  0  0  0  0  0  0  0  0  0  0  0
  -24.5500  -12.0376   21.6954 C   0  0  0  0  0  0  0  0  0  0  0  0
  -24.8711  -14.0625   20.9008 C   0  0  0  0  0  0  0  0  0  0  0  0
  -29.6469  -21.6014   18.7888 C   0  0  0  0  0  0  0  0  0  0  0  0
  -30.0095  -23.5400   19.8599 C   0  0  0  0  0  0  0  0  0  0  0  0
  -29.0236  -21.8327   20.9324 C   0  0  0  0  0  0  0  0  0  0  0  0
  -25.3097  -12.2405   19.2466 C   0  0  0  0  0  0  0  0  0  0  0  0
  -22.4104  -28.0978   22.3300 C   0  0  0  0  0  0  0  0  0  0  0  0
  -21.2740  -25.0736   22.0381 C   0  0  0  0  0  0  0  0  0  0  0  0
  -21.6790  -21.5014   21.7336 C   0  0  0  0  0  0  0  0  0  0  0  0
  -26.1843  -17.9747   24.7541 C   0  0  0  0  0  0  0  0  0  0  0  0
  -19.0371  -31.6413   23.7867 C   0  0  0  0  0  0  0  0  0  0  0  0
  -23.1628  -27.5002   19.9992 C   0  0  0  0  0  0  0  0  0  0  0  0
  -23.7794  -25.3524   21.9361 C   0  0  0  0  0  0  0  0  0  0  0  0
  -19.2498  -30.1558   24.0668 C   0  0  0  0  0  0  0  0  0  0  0  0
  -22.9430  -16.2728   25.0194 C   0  0  0  0  0  0  0  0  0  0  0  0
  -20.7031  -29.8863   24.4438 C   0  0  0  0  0  0  0  0  0  0  0  0
  -23.1270  -15.0513   24.1179 C   0  0  0  0  0  0  0  0  0  0  0  0
  -26.5036  -19.8755   21.6233 C   0  0  0  0  0  0  0  0  0  0  0  0
  -24.2587  -16.7195   25.6525 C   0  0  0  0  0  0  0  0  0  0  0  0
  -25.9890  -18.5962   22.2748 C   0  0  0  0  0  0  0  0  0  0  0  0
  -25.5362  -15.7228   23.7957 C   0  0  0  0  0  0  0  0  0  0  0  0
  -27.7489  -19.5251   23.6184 C   0  0  0  0  0  0  0  0  0  0  0  0
  -21.6491  -30.2605   23.2964 C   0  0  1  0  0  0  0  0  0  0  0  0
  -22.2284  -27.1729   21.1599 C   0  0  1  0  0  0  0  0  0  0  0  0
  -24.2468  -15.2856   23.0869 C   0  0  1  0  0  0  0  0  0  0  0  0
  -27.9224  -19.9696   22.1739 C   0  0  2  0  0  0  0  0  0  0  0  0
  -29.7467  -20.7694   17.5560 C   0  0  0  0  0  0  0  0  0  0  0  0
  -19.9718  -19.6842   21.4500 C   0  0  0  0  0  0  0  0  0  0  0  0
  -21.4227  -24.8579   25.0780 C   0  0  0  0  0  0  0  0  0  0  0  0
  -21.2256  -22.3733   24.8418 C   0  0  0  0  0  0  0  0  0  0  0  0
  -19.3732  -23.8496   24.0597 C   0  0  0  0  0  0  0  0  0  0  0  0
  -22.9954  -20.4874   19.2846 C   0  0  0  0  0  0  0  0  0  0  0  0
  -30.5266  -24.9380   19.8595 C   0  0  0  0  0  0  0  0  0  0  0  0
  -29.4161  -25.9870   19.7430 C   0  0  0  0  0  0  0  0  0  1  0  0
  -21.5293  -23.7629   22.7423 C   0  0  1  0  0  0  0  0  0  0  0  0
  -20.9736  -20.5876   20.7478 C   0  0  2  0  0  0  0  0  0  0  0  0
  -20.9086  -23.7251   24.1674 C   0  0  0  0  0  0  0  0  0  0  0  0
  -24.2666  -12.8475   22.7190 N   0  0  0  0  0  0  0  0  0  0  0  0
  -30.1335  -22.8509   18.7142 N   0  0  0  0  0  0  0  0  0  0  0  0
  -29.0795  -21.0254   19.8609 N   0  0  0  0  0  0  0  0  0  0  0  0
  -29.4670  -23.0980   21.0059 N   0  0  0  0  0  0  0  0  0  0  0  0
  -24.4714  -14.0721   22.2047 N   0  0  0  0  0  0  0  0  0  0  0  0
  -22.4069  -25.8090   21.6618 N   0  0  0  0  0  0  0  0  0  0  0  0
  -25.2952  -16.9008   24.6359 N   0  0  0  0  0  0  0  0  0  0  0  0
  -26.6583  -18.5538   23.5776 N   0  0  0  0  0  0  0  0  0  0  0  0
  -25.1207  -15.2069   20.2296 N   0  0  0  0  0  0  0  0  0  0  0  0
  -25.3192  -10.8538   19.0433 N   0  0  0  0  0  0  0  0  0  0  0  0
  -28.4489  -21.3056   22.0810 N   0  0  0  0  0  0  0  0  0  0  0  0
  -21.6314  -29.2376   22.2728 N   0  0  0  0  0  0  0  0  0  0  0  0
  -21.0402  -22.7178   21.8496 N   0  0  0  0  0  0  0  0  0  0  0  0
  -21.9634  -19.7292   20.0376 N   0  3  0  0  0  0  0  0  0  0  0  0
  -25.6446  -13.0010   18.3070 O   0  0  0  0  0  0  0  0  0  0  0  0
  -23.1982  -27.7986   23.2197 O   0  0  0  0  0  0  0  0  0  0  0  0
  -20.1123  -25.4284   21.8232 O   0  0  0  0  0  0  0  0  0  0  0  0
  -22.6931  -21.1680   22.3428 O   0  0  0  0  0  0  0  0  0  0  0  0
  -26.5042  -18.4272   25.8613 O   0  0  0  0  0  0  0  0  0  0  0  0
  -24.1479   -6.4941   22.3077 O   0  0  0  0  0  0  0  0  0  0  0  0
  -28.5303  -25.8667   20.8488 O   0  0  0  0  0  0  0  0  0  1  0  0
  -19.6788   -4.5154   24.8604 F   0  0  0  0  0  0  0  0  0  0  0  0
  -22.4328   -4.7513   21.0178 F   0  0  0  0  0  0  0  0  0  0  0  0
  1  2  1  0  0  0  0
  1  5  2  0  0  0  0
  2  6  2  0  0  0  0
  3  8  2  0  0  0  0
  3 15  1  0  0  0  0
  4  9  1  0  0  0  0
  4 15  2  0  0  0  0
  5 17  1  0  0  0  0
  6 19  1  0  0  0  0
  7 10  2  0  0  0  0
  7 18  1  0  0  0  0
  8 21  1  0  0  0  0
  9 21  2  0  0  0  0
 10 22  1  0  0  0  0
 11 12  2  0  0  0  0
 11 23  1  0  0  0  0
 12 24  1  0  0  0  0
 13 20  1  0  0  0  0
 13 22  2  0  0  0  0
 14 24  2  0  0  0  0
 14 25  1  0  0  0  0
 15 26  1  0  0  0  0
 16 26  1  0  0  0  0
 16 27  2  0  0  0  0
 16 31  1  0  0  0  0
 17 19  2  0  0  0  0
 17 36  1  0  0  0  0
 18 20  2  0  0  0  0
 18 37  1  0  0  0  0
 19 48  1  0  0  0  0
 20 38  1  0  0  0  0
 21 82  1  0  0  0  0
 22 83  1  0  0  0  0
 23 25  2  0  0  0  0
 23 82  1  0  0  0  0
 24 84  1  0  0  0  0
 25 85  1  0  0  0  0
 26 63  2  0  0  0  0
 27 67  1  0  0  0  0
 27 71  1  0  0  0  0
 28 52  1  0  0  0  0
 28 64  2  0  0  0  0
 28 65  1  0  0  0  0
 29 58  1  0  0  0  0
 29 64  1  0  0  0  0
 29 66  2  0  0  0  0
 30 65  2  0  0  0  0
 30 66  1  0  0  0  0
 30 73  1  0  0  0  0
 31 72  1  0  0  0  0
 31 77  2  0  0  0  0
 32 49  1  0  0  0  0
 32 74  1  0  0  0  0
 32 78  2  0  0  0  0
 33 60  1  0  0  0  0
 33 68  1  0  0  0  0
 33 79  2  0  0  0  0
 34 61  1  0  0  0  0
 34 75  1  0  0  0  0
 34 80  2  0  0  0  0
 35 69  1  0  0  0  0
 35 70  1  0  0  0  0
 35 81  2  0  0  0  0
 36 39  1  0  0  0  0
 37 49  1  0  0  0  0
 38 68  1  0  0  0  0
 39 41  1  0  0  0  0
 40 42  1  0  0  0  0
 40 44  1  0  0  0  0
 41 48  1  0  0  0  0
 42 50  1  0  0  0  0
 43 45  1  0  0  0  0
 43 51  1  0  0  0  0
 44 69  1  0  0  0  0
 45 70  1  0  0  0  0
 46 50  1  0  0  0  0
 46 69  1  0  0  0  0
 47 51  1  0  0  0  0
 47 70  1  0  0  0  0
 48 74  1  0  0  0  0
 49 68  1  0  0  0  0
 50 67  1  0  0  0  0
 51 73  1  0  0  0  0
 53 61  1  0  0  0  0
 54 62  1  0  0  0  0
 55 62  1  0  0  0  0
 56 62  1  0  0  0  0
 57 76  1  0  0  0  0
 58 59  1  0  0  0  0
 59 83  1  0  0  0  0
 60 62  1  0  0  0  0
 60 75  1  0  0  0  0
 61 76  1  0  0  0  0
 63 67  1  0  0  0  0
M  CHG  1  76   1
M  ISO  4  35 100  59 101  70 100  83 101
M  END
> <Batch ID>
0186

> <Smiles>
CNC(C)C(=O)NC(C(=O)N1Cc2cc([101O:1][101CH2:1]Cc3nc(C)nc(NC4CC[100N:0]([100C:0](=O)N5CCCC(n6nc(-c7ccc(Oc8ccc(F)cc8F)cc7)c(C(N)=O)c6N)C5)C4)n3)ccc2CC1C(=O)NC1CCCc2ccccc21)C(C)(C)C

> <Shape>
0.208

> <Color>
0.104

> <Negative vol penalty>
0.000

$$$$

  -OEChem-04052323143D

 81 89  0     1  0  0  0  0  0999 V2000
  -29.1139  -35.1136   24.1620 C   0  0  0  0  0  0  0  0  0  0  0  0
  -29.1404  -33.7672   23.8128 C   0  0  0  0  0  0  0  0  0  0  0  0
  -26.7242  -11.3444   19.0834 C   0  0  0  0  0  0  0  0  0  0  0  0
  -27.1005  -11.5181   21.4636 C   0  0  0  0  0  0  0  0  0  0  0  0
  -27.9331  -35.6880   24.6307 C   0  0  0  0  0  0  0  0  0  0  0  0
  -27.9862  -32.9941   23.9332 C   0  0  0  0  0  0  0  0  0  0  0  0
  -27.1907  -30.0490   19.8910 C   0  0  0  0  0  0  0  0  0  0  0  0
  -27.6567  -10.3096   19.0115 C   0  0  0  0  0  0  0  0  0  0  0  0
  -28.0329  -10.4832   21.3917 C   0  0  0  0  0  0  0  0  0  0  0  0
  -27.9515  -28.8849   19.7918 C   0  0  0  0  0  0  0  0  0  0  0  0
  -30.2031   -7.8633   18.1427 C   0  0  0  0  0  0  0  0  0  0  0  0
  -31.1357   -7.8994   17.1061 C   0  0  0  0  0  0  0  0  0  0  0  0
  -26.0883  -27.6029   20.6309 C   0  0  0  0  0  0  0  0  0  0  0  0
  -31.9554  -10.0223   17.9176 C   0  0  0  0  0  0  0  0  0  0  0  0
  -26.4462  -11.9488   20.3094 C   0  0  0  0  0  0  0  0  0  0  0  0
  -24.0991  -12.9015   20.6118 C   0  0  0  0  0  0  0  0  0  0  0  0
  -26.7613  -34.9238   24.7476 C   0  0  0  0  0  0  0  0  0  0  0  0
  -25.8744  -30.0002   20.3721 C   0  0  0  0  0  0  0  0  0  0  0  0
  -26.7889  -33.5584   24.4051 C   0  0  0  0  0  0  0  0  0  0  0  0
  -25.3120  -28.7675   20.7329 C   0  0  0  0  0  0  0  0  0  0  0  0
  -28.3110   -9.8790   20.1656 C   0  0  0  0  0  0  0  0  0  0  0  0
  -27.4013  -27.6620   20.1645 C   0  0  0  0  0  0  0  0  0  0  0  0
  -30.1467   -8.9067   19.0668 C   0  0  0  0  0  0  0  0  0  0  0  0
  -32.0118   -8.9789   16.9935 C   0  0  0  0  0  0  0  0  0  0  0  0
  -31.0228   -9.9862   18.9542 C   0  0  0  0  0  0  0  0  0  0  0  0
  -25.4835  -13.0182   20.3843 C   0  0  0  0  0  0  0  0  0  0  0  0
  -23.6375  -14.1949   20.5913 C   0  0  0  0  0  0  0  0  0  0  0  0
  -23.3018  -11.7287   20.8230 C   0  0  0  0  0  0  0  0  0  0  0  0
  -24.3506  -31.2467   22.8677 C   0  0  0  0  0  0  0  0  0  0  0  0
  -21.7451  -29.9627   21.4236 C   0  0  0  0  0  0  0  0  0  0  0  0
  -20.4746  -27.6241   19.2874 C   0  0  0  0  0  0  0  0  0  0  0  0
  -26.0760  -19.0489   17.9504 C   0  0  0  0  0  0  0  0  0  0  0  0
  -25.5210  -35.5772   25.3038 C   0  0  0  0  0  0  0  0  0  0  0  0
  -25.0580  -31.2612   20.4479 C   0  0  0  0  0  0  0  0  0  0  0  0
  -23.8967  -28.6584   21.2363 C   0  0  0  0  0  0  0  0  0  0  0  0
  -24.2450  -34.7795   25.0471 C   0  0  0  0  0  0  0  0  0  0  0  0
  -25.0188  -18.6854   21.4827 C   0  0  0  0  0  0  0  0  0  0  0  0
  -24.4594  -33.3070   25.3827 C   0  0  0  0  0  0  0  0  0  0  0  0
  -24.9394  -17.1642   21.6191 C   0  0  0  0  0  0  0  0  0  0  0  0
  -25.8139  -22.6514   18.3259 C   0  0  0  0  0  0  0  0  0  0  0  0
  -26.0937  -19.0880   20.4813 C   0  0  0  0  0  0  0  0  0  0  0  0
  -26.0855  -21.3331   19.0427 C   0  0  0  0  0  0  0  0  0  0  0  0
  -25.8494  -16.9606   19.2554 C   0  0  0  0  0  0  0  0  0  0  0  0
  -25.5511  -32.6928   24.4981 C   0  0  1  0  0  0  0  0  0  0  0  0
  -23.9002  -31.1649   21.4366 C   0  0  1  0  0  0  0  0  0  0  0  0
  -24.7693  -16.4898   20.2455 C   0  0  1  0  0  0  0  0  0  0  0  0
  -26.7366  -21.1327   16.7254 C   0  0  1  0  0  0  0  0  0  0  0  0
  -26.8078  -22.6205   17.1540 C   0  0  2  0  0  0  0  0  0  0  0  0
  -27.9725  -20.6079   15.9988 C   0  0  0  0  0  0  0  0  0  0  0  0
  -18.3044  -26.7959   18.3378 C   0  0  0  0  0  0  0  0  0  0  0  0
  -21.1273  -28.5626   24.0633 C   0  0  0  0  0  0  0  0  0  0  0  0
  -19.5645  -27.0547   22.8174 C   0  0  0  0  0  0  0  0  0  0  0  0
  -19.1307  -29.5100   22.8926 C   0  0  0  0  0  0  0  0  0  0  0  0
  -21.3056  -28.2682   16.5209 C   0  0  0  0  0  0  0  0  0  0  0  0
  -28.2036  -23.0785   17.6130 C   0  0  0  0  0  0  0  0  0  0  0  0
  -29.3715  -25.0414   18.6238 C   0  0  0  0  0  0  0  0  0  0  0  0
  -29.1345  -26.4778   19.0466 C   0  0  0  0  0  0  0  0  0  1  0  0
  -21.0371  -28.6308   21.4839 C   0  0  1  0  0  0  0  0  0  0  0  0
  -19.4826  -27.7376   18.1439 C   0  0  2  0  0  0  0  0  0  0  0  0
  -20.2422  -28.4415   22.8067 C   0  0  0  0  0  0  0  0  0  0  0  0
  -25.8756  -14.2857   20.2303 N   0  0  0  0  0  0  0  0  0  0  0  0
  -24.7308  -14.9773   20.3613 N   0  0  0  0  0  0  0  0  0  0  0  0
  -23.1410  -29.9204   21.2984 N   0  0  0  0  0  0  0  0  0  0  0  0
  -25.8909  -18.4228   19.1907 N   0  0  0  0  0  0  0  0  0  0  0  0
  -26.4412  -20.4000   17.9693 N   0  0  0  0  0  0  0  0  0  0  0  0
  -22.4071  -14.7280   20.7476 N   0  0  0  0  0  0  0  0  0  0  0  0
  -23.9360  -10.4789   20.8132 N   0  0  0  0  0  0  0  0  0  0  0  0
  -26.3634  -23.5046   16.0775 N   0  0  0  0  0  0  0  0  0  0  0  0
  -25.0312  -32.4086   23.1778 N   0  0  0  0  0  0  0  0  0  0  0  0
  -20.2195  -28.5482   20.2784 N   0  0  0  0  0  0  0  0  0  0  0  0
  -20.1430  -27.4039   16.8503 N   0  3  0  0  0  0  0  0  0  0  0  0
  -28.1011  -24.4694   18.0884 N   0  3  0  0  0  0  0  0  0  0  0  0
  -22.0610  -11.7862   20.9984 O   0  0  0  0  0  0  0  0  0  0  0  0
  -24.0979  -30.3246   23.6343 O   0  0  0  0  0  0  0  0  0  0  0  0
  -21.0835  -31.0023   21.4782 O   0  0  0  0  0  0  0  0  0  0  0  0
  -21.3825  -26.7958   19.3019 O   0  0  0  0  0  0  0  0  0  0  0  0
  -25.8918  -18.4440   16.8869 O   0  0  0  0  0  0  0  0  0  0  0  0
  -29.2208   -8.8690   20.0958 O   0  0  0  0  0  0  0  0  0  0  0  0
  -28.1472  -26.5162   20.0685 O   0  0  0  0  0  0  0  0  0  1  0  0
  -32.9084   -9.0127   15.9989 F   0  0  0  0  0  0  0  0  0  0  0  0
  -30.9741  -10.9910   19.8396 F   0  0  0  0  0  0  0  0  0  0  0  0
  1  2  1  0  0  0  0
  1  5  2  0  0  0  0
  2  6  2  0  0  0  0
  3  8  2  0  0  0  0
  3 15  1  0  0  0  0
  4  9  1  0  0  0  0
  4 15  2  0  0  0  0
  5 17  1  0  0  0  0
  6 19  1  0  0  0  0
  7 10  2  0  0  0  0
  7 18  1  0  0  0  0
  8 21  1  0  0  0  0
  9 21  2  0  0  0  0
 10 22  1  0  0  0  0
 11 12  2  0  0  0  0
 11 23  1  0  0  0  0
 12 24  1  0  0  0  0
 13 20  1  0  0  0  0
 13 22  2  0  0  0  0
 14 24  2  0  0  0  0
 14 25  1  0  0  0  0
 15 26  1  0  0  0  0
 16 26  1  0  0  0  0
 16 27  2  0  0  0  0
 16 28  1  0  0  0  0
 17 19  2  0  0  0  0
 17 33  1  0  0  0  0
 18 20  2  0  0  0  0
 18 34  1  0  0  0  0
 19 44  1  0  0  0  0
 20 35  1  0  0  0  0
 21 78  1  0  0  0  0
 22 79  1  0  0  0  0
 23 25  2  0  0  0  0
 23 78  1  0  0  0  0
 24 80  1  0  0  0  0
 25 81  1  0  0  0  0
 26 61  2  0  0  0  0
 27 62  1  0  0  0  0
 27 66  1  0  0  0  0
 28 67  1  0  0  0  0
 28 73  2  0  0  0  0
 29 45  1  0  0  0  0
 29 69  1  0  0  0  0
 29 74  2  0  0  0  0
 30 58  1  0  0  0  0
 30 63  1  0  0  0  0
 30 75  2  0  0  0  0
 31 59  1  0  0  0  0
 31 70  1  0  0  0  0
 31 76  2  0  0  0  0
 32 64  1  0  0  0  0
 32 65  1  0  0  0  0
 32 77  2  0  0  0  0
 33 36  1  0  0  0  0
 34 45  1  0  0  0  0
 35 63  1  0  0  0  0
 36 38  1  0  0  0  0
 37 39  1  0  0  0  0
 37 41  1  0  0  0  0
 38 44  1  0  0  0  0
 39 46  1  0  0  0  0
 40 42  1  0  0  0  0
 40 48  1  0  0  0  0
 41 64  1  0  0  0  0
 42 65  1  0  0  0  0
 43 46  1  0  0  0  0
 43 64  1  0  0  0  0
 44 69  1  0  0  0  0
 45 63  1  0  0  0  0
 46 62  1  0  0  0  0
 47 48  1  0  0  0  0
 47 49  1  0  0  0  0
 47 65  1  0  0  0  0
 48 55  1  0  0  0  0
 48 68  1  0  0  0  0
 50 59  1  0  0  0  0
 51 60  1  0  0  0  0
 52 60  1  0  0  0  0
 53 60  1  0  0  0  0
 54 71  1  0  0  0  0
 55 72  1  0  0  0  0
 56 57  1  0  0  0  0
 56 72  1  0  0  0  0
 57 79  1  0  0  0  0
 58 60  1  0  0  0  0
 58 70  1  0  0  0  0
 59 71  1  0  0  0  0
 61 62  1  0  0  0  0
M  CHG  2  71   1  72   1
M  ISO  4  32 100  57 101  65 100  79 101
M  END
> <Batch ID>
0186

> <Smiles>
CNC(C)C(=O)NC(C(=O)N1Cc2cc([101O:1][101CH2:1]CNCC3(N)CC[100N:0]([100C:0](=O)N4CCCC(n5nc(-c6ccc(Oc7ccc(F)cc7F)cc6)c(C(N)=O)c5N)C4)C3C)ccc2CC1C(=O)NC1CCCc2ccccc21)C(C)(C)C

> <Shape>
0.241

> <Color>
0.074

> <Negative vol penalty>
0.000

$$$$

  -OEChem-04052323143D

 84 93  0     1  0  0  0  0  0999 V2000
  -31.6049  -23.7077   26.3505 C   0  0  0  0  0  0  0  0  0  0  0  0
  -30.6186  -23.1956   25.5137 C   0  0  0  0  0  0  0  0  0  0  0  0
  -23.0005   -9.8940   19.9825 C   0  0  0  0  0  0  0  0  0  0  0  0
  -23.7296   -9.9458   22.2852 C   0  0  0  0  0  0  0  0  0  0  0  0
  -31.3388  -23.8958   27.7061 C   0  0  0  0  0  0  0  0  0  0  0  0
  -29.3657  -22.8702   26.0323 C   0  0  0  0  0  0  0  0  0  0  0  0
  -25.5684  -24.5050   23.1079 C   0  0  0  0  0  0  0  0  0  0  0  0
  -22.2354   -8.7589   20.2502 C   0  0  0  0  0  0  0  0  0  0  0  0
  -22.9645   -8.8106   22.5530 C   0  0  0  0  0  0  0  0  0  0  0  0
  -25.2800  -23.7617   21.9642 C   0  0  0  0  0  0  0  0  0  0  0  0
  -23.2110   -5.4718   22.0808 C   0  0  0  0  0  0  0  0  0  0  0  0
  -23.8008   -4.4552   22.8319 C   0  0  0  0  0  0  0  0  0  0  0  0
  -23.4442  -22.7066   23.1202 C   0  0  0  0  0  0  0  0  0  0  0  0
  -22.0796   -4.6967   24.5102 C   0  0  0  0  0  0  0  0  0  0  0  0
  -28.7634  -18.2077   22.1706 C   0  0  0  0  0  0  0  0  0  0  0  0
  -23.7476  -10.4875   21.0000 C   0  0  0  0  0  0  0  0  0  0  0  0
  -24.1304  -13.0034   20.8232 C   0  0  0  0  0  0  0  0  0  0  0  0
  -30.0790  -23.5816   28.2398 C   0  0  0  0  0  0  0  0  0  0  0  0
  -24.8023  -24.3465   24.2717 C   0  0  0  0  0  0  0  0  0  0  0  0
  -29.0829  -23.0530   27.3966 C   0  0  0  0  0  0  0  0  0  0  0  0
  -23.7234  -23.4510   24.2765 C   0  0  0  0  0  0  0  0  0  0  0  0
  -22.2174   -8.2171   21.5355 C   0  0  0  0  0  0  0  0  0  0  0  0
  -24.2196  -22.8602   21.9711 C   0  0  0  0  0  0  0  0  0  0  0  0
  -22.0556   -6.1010   22.5444 C   0  0  0  0  0  0  0  0  0  0  0  0
  -23.2351   -4.0676   24.0466 C   0  0  0  0  0  0  0  0  0  0  0  0
  -21.4899   -5.7134   23.7590 C   0  0  0  0  0  0  0  0  0  0  0  0
  -24.5386  -11.6598   20.7239 C   0  0  0  0  0  0  0  0  0  0  0  0
  -29.9534  -17.7474   22.6963 C   0  0  0  0  0  0  0  0  0  0  0  0
  -28.0278  -19.0359   22.9936 C   0  0  0  0  0  0  0  0  0  0  0  0
  -25.2388  -13.7269   20.4568 C   0  0  0  0  0  0  0  0  0  0  0  0
  -29.5936  -18.8799   24.6340 C   0  0  0  0  0  0  0  0  0  0  0  0
  -22.8626  -13.5487   21.2119 C   0  0  0  0  0  0  0  0  0  0  0  0
  -25.4064  -23.3878   27.2415 C   0  0  0  0  0  0  0  0  0  0  0  0
  -22.3273  -24.2785   27.7398 C   0  0  0  0  0  0  0  0  0  0  0  0
  -19.2282  -24.8492   26.4297 C   0  0  0  0  0  0  0  0  0  0  0  0
  -30.7348  -14.6665   20.6956 C   0  0  0  0  0  0  0  0  0  0  0  0
  -29.8534  -23.7577   29.7206 C   0  0  0  0  0  0  0  0  0  0  0  0
  -25.1096  -25.1754   25.4887 C   0  0  0  0  0  0  0  0  0  0  0  0
  -22.8578  -23.2587   25.4939 C   0  0  0  0  0  0  0  0  0  0  0  0
  -28.3797  -23.7394   30.1186 C   0  0  0  0  0  0  0  0  0  0  0  0
  -29.5922  -12.2417   18.3523 C   0  0  0  0  0  0  0  0  0  0  0  0
  -27.6589  -22.5767   29.4438 C   0  0  0  0  0  0  0  0  0  0  0  0
  -28.1447  -11.9807   18.7724 C   0  0  0  0  0  0  0  0  0  0  0  0
  -24.4976  -20.0899   19.5562 C   0  0  0  0  0  0  0  0  0  0  0  0
  -30.4965  -12.4779   19.5599 C   0  0  0  0  0  0  0  0  0  0  0  0
  -28.5880  -13.2718   20.9020 C   0  0  0  0  0  0  0  0  0  0  0  0
  -27.7036  -22.7113   27.9170 C   0  0  1  0  0  0  0  0  0  0  0  0
  -24.5838  -24.5577   26.7807 C   0  0  1  0  0  0  0  0  0  0  0  0
  -25.0005  -19.8869   20.9587 C   0  0  2  0  0  0  0  0  0  0  0  0
  -27.6271  -13.0832   19.7157 C   0  0  2  0  0  0  0  0  0  0  0  0
  -24.9617  -21.2701   20.3659 C   0  0  2  0  0  0  0  0  0  1  0  0
  -30.0547  -19.2534   26.0019 C   0  0  0  0  0  0  0  0  0  0  0  0
  -16.9053  -25.5312   27.0903 C   0  0  0  0  0  0  0  0  0  0  0  0
  -21.8389  -21.4940   28.8878 C   0  0  0  0  0  0  0  0  0  0  0  0
  -19.3807  -21.8994   28.6408 C   0  0  0  0  0  0  0  0  0  0  0  0
  -20.7369  -23.3507   30.1498 C   0  0  0  0  0  0  0  0  0  0  0  0
  -19.3192  -27.2537   24.7066 C   0  0  0  0  0  0  0  0  0  0  0  0
  -30.8177  -16.8455   21.8806 C   0  0  0  0  0  0  0  0  0  0  0  0
  -26.3064  -19.2108   21.1959 C   0  0  0  0  0  0  0  0  0  0  0  0
  -20.9868  -23.5908   27.6454 C   0  0  1  0  0  0  0  0  0  0  0  0
  -18.2621  -26.0083   26.5961 C   0  0  2  0  0  0  0  0  0  0  0  0
  -20.7532  -22.5857   28.8085 C   0  0  0  0  0  0  0  0  0  0  0  0
  -25.8073  -11.5344   20.3255 N   0  0  0  0  0  0  0  0  0  0  0  0
  -30.4008  -18.0647   23.9289 N   0  0  0  0  0  0  0  0  0  0  0  0
  -28.4143  -19.3938   24.2357 N   0  0  0  0  0  0  0  0  0  0  0  0
  -26.2058  -12.8085   20.1711 N   0  0  0  0  0  0  0  0  0  0  0  0
  -23.2022  -24.0875   26.6610 N   0  0  0  0  0  0  0  0  0  0  0  0
  -29.9502  -13.5362   20.4129 N   0  0  0  0  0  0  0  0  0  0  0  0
  -25.4710  -15.0528   20.3543 N   0  0  0  0  0  0  0  0  0  0  0  0
  -21.8322  -12.6636   21.5573 N   0  0  0  0  0  0  0  0  0  0  0  0
  -26.8228  -19.5209   22.5009 N   0  0  0  0  0  0  0  0  0  0  0  0
  -26.7360  -23.6891   27.4673 N   0  0  0  0  0  0  0  0  0  0  0  0
  -19.9887  -24.6516   27.5628 N   0  0  0  0  0  0  0  0  0  0  0  0
  -30.1390  -15.6247   21.5065 N   0  0  0  0  0  0  0  0  0  0  0  0
  -18.0682  -26.7116   25.2966 N   0  3  0  0  0  0  0  0  0  0  0  0
  -22.6448  -14.7838   21.2360 O   0  0  0  0  0  0  0  0  0  0  0  0
  -24.8739  -22.2933   27.3833 O   0  0  0  0  0  0  0  0  0  0  0  0
  -22.5858  -24.9660   28.7309 O   0  0  0  0  0  0  0  0  0  0  0  0
  -19.2984  -24.1833   25.3991 O   0  0  0  0  0  0  0  0  0  0  0  0
  -31.8793  -14.8134   20.2535 O   0  0  0  0  0  0  0  0  0  0  0  0
  -21.4708   -7.1096   21.7971 O   0  0  0  0  0  0  0  0  0  0  0  0
  -23.9364  -22.1329   20.8564 O   0  0  0  0  0  0  0  0  0  1  0  0
  -23.8007   -3.0902   24.7671 F   0  0  0  0  0  0  0  0  0  0  0  0
  -20.3793   -6.3133   24.2090 F   0  0  0  0  0  0  0  0  0  0  0  0
  1  2  1  0  0  0  0
  1  5  2  0  0  0  0
  2  6  2  0  0  0  0
  3  8  2  0  0  0  0
  3 16  1  0  0  0  0
  4  9  1  0  0  0  0
  4 16  2  0  0  0  0
  5 18  1  0  0  0  0
  6 20  1  0  0  0  0
  7 10  2  0  0  0  0
  7 19  1  0  0  0  0
  8 22  1  0  0  0  0
  9 22  2  0  0  0  0
 10 23  1  0  0  0  0
 11 12  2  0  0  0  0
 11 24  1  0  0  0  0
 12 25  1  0  0  0  0
 13 21  1  0  0  0  0
 13 23  2  0  0  0  0
 14 25  2  0  0  0  0
 14 26  1  0  0  0  0
 15 28  2  0  0  0  0
 15 29  1  0  0  0  0
 16 27  1  0  0  0  0
 17 27  1  0  0  0  0
 17 30  2  0  0  0  0
 17 32  1  0  0  0  0
 18 20  2  0  0  0  0
 18 37  1  0  0  0  0
 19 21  2  0  0  0  0
 19 38  1  0  0  0  0
 20 47  1  0  0  0  0
 21 39  1  0  0  0  0
 22 81  1  0  0  0  0
 23 82  1  0  0  0  0
 24 26  2  0  0  0  0
 24 81  1  0  0  0  0
 25 83  1  0  0  0  0
 26 84  1  0  0  0  0
 27 63  2  0  0  0  0
 28 58  1  0  0  0  0
 28 64  1  0  0  0  0
 29 65  2  0  0  0  0
 29 71  1  0  0  0  0
 30 66  1  0  0  0  0
 30 69  1  0  0  0  0
 31 52  1  0  0  0  0
 31 64  2  0  0  0  0
 31 65  1  0  0  0  0
 32 70  1  0  0  0  0
 32 76  2  0  0  0  0
 33 48  1  0  0  0  0
 33 72  1  0  0  0  0
 33 77  2  0  0  0  0
 34 60  1  0  0  0  0
 34 67  1  0  0  0  0
 34 78  2  0  0  0  0
 35 61  1  0  0  0  0
 35 73  1  0  0  0  0
 35 79  2  0  0  0  0
 36 68  1  0  0  0  0
 36 74  1  0  0  0  0
 36 80  2  0  0  0  0
 37 40  1  0  0  0  0
 38 48  1  0  0  0  0
 39 67  1  0  0  0  0
 40 42  1  0  0  0  0
 41 43  1  0  0  0  0
 41 45  1  0  0  0  0
 42 47  1  0  0  0  0
 43 50  1  0  0  0  0
 44 49  1  0  0  0  0
 44 51  1  0  0  0  0
 45 68  1  0  0  0  0
 46 50  1  0  0  0  0
 46 68  1  0  0  0  0
 47 72  1  0  0  0  0
 48 67  1  0  0  0  0
 49 51  1  0  0  0  0
 49 59  1  0  0  0  0
 50 66  1  0  0  0  0
 51 82  1  0  0  0  0
 53 61  1  0  0  0  0
 54 62  1  0  0  0  0
 55 62  1  0  0  0  0
 56 62  1  0  0  0  0
 57 75  1  0  0  0  0
 58 74  1  0  0  0  0
 59 71  1  0  0  0  0
 60 62  1  0  0  0  0
 60 73  1  0  0  0  0
 61 75  1  0  0  0  0
 63 66  1  0  0  0  0
M  CHG  1  75   1
M  ISO  4  36 100  51 101  74 100  82 101
M  END
> <Batch ID>
0186

> <Smiles>
CNC(C)C(=O)NC(C(=O)N1Cc2cc([101O:1][101CH:1]3CC3CNc3cc(C[100NH:0][100C:0](=O)N4CCCC(n5nc(-c6ccc(Oc7ccc(F)cc7F)cc6)c(C(N)=O)c5N)C4)nc(C)n3)ccc2CC1C(=O)NC1CCCc2ccccc21)C(C)(C)C

> <Shape>
0.177

> <Color>
0.193

> <Negative vol penalty>
0.000

$$$$

  -OEChem-04052323143D

 83 92  0     1  0  0  0  0  0999 V2000
  -16.8568  -28.9841   19.7699 C   0  0  0  0  0  0  0  0  0  0  0  0
  -17.4851  -27.8681   19.2266 C   0  0  0  0  0  0  0  0  0  0  0  0
  -23.1445   -9.8342   19.8774 C   0  0  0  0  0  0  0  0  0  0  0  0
  -23.9035   -9.7454   22.1694 C   0  0  0  0  0  0  0  0  0  0  0  0
  -17.2554  -29.4703   21.0144 C   0  0  0  0  0  0  0  0  0  0  0  0
  -18.5133  -27.2383   19.9270 C   0  0  0  0  0  0  0  0  0  0  0  0
  -21.3597  -20.7588   21.0369 C   0  0  0  0  0  0  0  0  0  0  0  0
  -22.4187   -8.6591   20.0722 C   0  0  0  0  0  0  0  0  0  0  0  0
  -23.1777   -8.5703   22.3642 C   0  0  0  0  0  0  0  0  0  0  0  0
  -22.5869  -20.0990   20.9893 C   0  0  0  0  0  0  0  0  0  0  0  0
  -19.9623   -7.6946   22.9252 C   0  0  0  0  0  0  0  0  0  0  0  0
  -19.2057   -7.5879   24.0922 C   0  0  0  0  0  0  0  0  0  0  0  0
  -23.1380  -20.9796   23.1664 C   0  0  0  0  0  0  0  0  0  0  0  0
  -27.2509  -17.9875   23.7356 C   0  0  0  0  0  0  0  0  0  0  0  0
  -20.4771   -5.6377   24.7382 C   0  0  0  0  0  0  0  0  0  0  0  0
  -28.7145  -18.7706   21.5537 C   0  0  0  0  0  0  0  0  0  0  0  0
  -23.8869  -10.3774   20.9260 C   0  0  0  0  0  0  0  0  0  0  0  0
  -24.1890  -12.9104   20.9249 C   0  0  0  0  0  0  0  0  0  0  0  0
  -18.2825  -28.8403   21.7347 C   0  0  0  0  0  0  0  0  0  0  0  0
  -21.0164  -21.5442   22.1468 C   0  0  0  0  0  0  0  0  0  0  0  0
  -18.9270  -27.7173   21.1817 C   0  0  0  0  0  0  0  0  0  0  0  0
  -21.9047  -21.6463   23.2268 C   0  0  0  0  0  0  0  0  0  0  0  0
  -29.2050  -17.7296   22.3486 C   0  0  0  0  0  0  0  0  0  0  0  0
  -28.4664  -17.3306   23.4807 C   0  0  0  0  0  0  0  0  0  0  0  0
  -22.4353   -8.0271   21.3156 C   0  0  0  0  0  0  0  0  0  0  0  0
  -23.4775  -20.2117   22.0529 C   0  0  0  0  0  0  0  0  0  0  0  0
  -20.9763   -6.7728   22.6647 C   0  0  0  0  0  0  0  0  0  0  0  0
  -19.4631   -6.5595   24.9987 C   0  0  0  0  0  0  0  0  0  0  0  0
  -21.2337   -5.7444   23.5712 C   0  0  0  0  0  0  0  0  0  0  0  0
  -24.6373  -11.5909   20.7252 C   0  0  0  0  0  0  0  0  0  0  0  0
  -26.8160  -19.0074   22.9014 C   0  0  0  0  0  0  0  0  0  0  0  0
  -25.2694  -13.6931   20.5984 C   0  0  0  0  0  0  0  0  0  0  0  0
  -30.3068  -14.8535   23.0570 C   0  0  0  0  0  0  0  0  0  0  0  0
  -22.9105  -13.3860   21.3663 C   0  0  0  0  0  0  0  0  0  0  0  0
  -20.3593  -24.6208   22.6006 C   0  0  0  0  0  0  0  0  0  0  0  0
  -19.6612  -23.6269   25.6085 C   0  0  0  0  0  0  0  0  0  0  0  0
  -20.1142  -21.3093   28.0722 C   0  0  0  0  0  0  0  0  0  0  0  0
  -30.4938  -15.0097   20.6155 C   0  0  0  0  0  0  0  0  0  0  0  0
  -18.7109  -29.4306   23.0548 C   0  0  0  0  0  0  0  0  0  0  0  0
  -19.6775  -22.2279   22.1944 C   0  0  0  0  0  0  0  0  0  0  0  0
  -21.5753  -22.4606   24.4503 C   0  0  0  0  0  0  0  0  0  0  0  0
  -30.5035  -17.0717   21.9457 C   0  0  0  0  0  0  0  0  0  0  0  0
  -30.1306  -15.6452   24.3343 C   0  0  0  0  0  0  0  0  0  0  0  0
  -19.5547  -28.4812   23.9015 C   0  0  0  0  0  0  0  0  0  0  0  0
  -29.6649  -12.5471   18.3619 C   0  0  0  0  0  0  0  0  0  0  0  0
  -20.6410  -27.8302   23.0512 C   0  0  0  0  0  0  0  0  0  0  0  0
  -28.2356  -12.1740   18.7678 C   0  0  0  0  0  0  0  0  0  0  0  0
  -30.5578  -12.7525   19.5844 C   0  0  0  0  0  0  0  0  0  0  0  0
  -28.6165  -13.3320   20.9861 C   0  0  0  0  0  0  0  0  0  0  0  0
  -20.0295  -26.9919   21.9221 C   0  0  1  0  0  0  0  0  0  0  0  0
  -19.6474  -23.4169   23.1498 C   0  0  1  0  0  0  0  0  0  0  0  0
  -27.6647  -13.1798   19.7860 C   0  0  2  0  0  0  0  0  0  0  0  0
  -19.4418  -20.7865   30.4328 C   0  0  0  0  0  0  0  0  0  0  0  0
  -21.5829  -25.7669   26.6272 C   0  0  0  0  0  0  0  0  0  0  0  0
  -21.6021  -24.5971   28.8406 C   0  0  0  0  0  0  0  0  0  0  0  0
  -19.4727  -25.5442   27.9509 C   0  0  0  0  0  0  0  0  0  0  0  0
  -18.8411  -18.7614   27.2683 C   0  0  0  0  0  0  0  0  0  0  0  0
  -25.5397  -19.7297   23.1351 C   0  0  0  0  0  0  0  0  0  1  0  0
  -20.4434  -23.4650   26.8895 C   0  0  1  0  0  0  0  0  0  0  0  0
  -19.1247  -20.5767   28.9603 C   0  0  2  0  0  0  0  0  0  0  0  0
  -20.7826  -24.8294   27.5533 C   0  0  0  0  0  0  0  0  0  0  0  0
  -25.9036  -11.5347   20.3042 N   0  0  0  0  0  0  0  0  0  0  0  0
  -26.2603  -12.8286   20.2366 N   0  0  0  0  0  0  0  0  0  0  0  0
  -27.5546  -19.3669   21.8488 N   0  3  0  0  0  0  0  0  0  0  0  0
  -28.8484  -16.3153   24.3459 N   0  0  0  0  0  0  0  0  0  0  0  0
  -30.3579  -15.6153   21.8791 N   0  0  0  0  0  0  0  0  0  0  0  0
  -20.2567  -23.1154   24.4468 N   0  0  0  0  0  0  0  0  0  0  0  0
  -29.9514  -13.7150   20.5035 N   0  0  0  0  0  0  0  0  0  0  0  0
  -25.4589  -15.0297   20.5881 N   0  0  0  0  0  0  0  0  0  0  0  0
  -21.9129  -12.4463   21.6594 N   0  0  0  0  0  0  0  0  0  0  0  0
  -19.5481  -25.7272   22.4353 N   0  0  0  0  0  0  0  0  0  0  0  0
  -19.6626  -22.5674   27.7338 N   0  0  0  0  0  0  0  0  0  0  0  0
  -19.1579  -19.1141   28.6762 N   0  3  0  0  0  0  0  0  0  0  0  0
  -30.4034  -13.6252   23.0952 O   0  0  0  0  0  0  0  0  0  0  0  0
  -22.6549  -14.6087   21.4810 O   0  0  0  0  0  0  0  0  0  0  0  0
  -21.5562  -24.5516   22.3471 O   0  0  0  0  0  0  0  0  0  0  0  0
  -18.5592  -24.1803   25.6387 O   0  0  0  0  0  0  0  0  0  0  0  0
  -21.1827  -20.8163   27.7175 O   0  0  0  0  0  0  0  0  0  0  0  0
  -31.0651  -15.5838   19.6827 O   0  0  0  0  0  0  0  0  0  0  0  0
  -21.7270   -6.8806   21.5061 O   0  0  0  0  0  0  0  0  0  0  0  0
  -24.6838  -19.5653   22.0084 O   0  0  0  0  0  0  0  0  0  1  0  0
  -18.7375   -6.4580   26.1200 F   0  0  0  0  0  0  0  0  0  0  0  0
  -22.2073   -4.8566   23.3269 F   0  0  0  0  0  0  0  0  0  0  0  0
  1  2  1  0  0  0  0
  1  5  2  0  0  0  0
  2  6  2  0  0  0  0
  3  8  2  0  0  0  0
  3 17  1  0  0  0  0
  4  9  1  0  0  0  0
  4 17  2  0  0  0  0
  5 19  1  0  0  0  0
  6 21  1  0  0  0  0
  7 10  2  0  0  0  0
  7 20  1  0  0  0  0
  8 25  1  0  0  0  0
  9 25  2  0  0  0  0
 10 26  1  0  0  0  0
 11 12  2  0  0  0  0
 11 27  1  0  0  0  0
 12 28  1  0  0  0  0
 13 22  1  0  0  0  0
 13 26  2  0  0  0  0
 14 24  2  0  0  0  0
 14 31  1  0  0  0  0
 15 28  2  0  0  0  0
 15 29  1  0  0  0  0
 16 23  2  0  0  0  0
 16 64  1  0  0  0  0
 17 30  1  0  0  0  0
 18 30  1  0  0  0  0
 18 32  2  0  0  0  0
 18 34  1  0  0  0  0
 19 21  2  0  0  0  0
 19 39  1  0  0  0  0
 20 22  2  0  0  0  0
 20 40  1  0  0  0  0
 21 50  1  0  0  0  0
 22 41  1  0  0  0  0
 23 24  1  0  0  0  0
 23 42  1  0  0  0  0
 24 65  1  0  0  0  0
 25 80  1  0  0  0  0
 26 81  1  0  0  0  0
 27 29  2  0  0  0  0
 27 80  1  0  0  0  0
 28 82  1  0  0  0  0
 29 83  1  0  0  0  0
 30 62  2  0  0  0  0
 31 58  1  0  0  0  0
 31 64  2  0  0  0  0
 32 63  1  0  0  0  0
 32 69  1  0  0  0  0
 33 43  1  0  0  0  0
 33 66  1  0  0  0  0
 33 74  2  0  0  0  0
 34 70  1  0  0  0  0
 34 75  2  0  0  0  0
 35 51  1  0  0  0  0
 35 71  1  0  0  0  0
 35 76  2  0  0  0  0
 36 59  1  0  0  0  0
 36 67  1  0  0  0  0
 36 77  2  0  0  0  0
 37 60  1  0  0  0  0
 37 72  1  0  0  0  0
 37 78  2  0  0  0  0
 38 66  1  0  0  0  0
 38 68  1  0  0  0  0
 38 79  2  0  0  0  0
 39 44  1  0  0  0  0
 40 51  1  0  0  0  0
 41 67  1  0  0  0  0
 42 66  1  0  0  0  0
 43 65  1  0  0  0  0
 44 46  1  0  0  0  0
 45 47  1  0  0  0  0
 45 48  1  0  0  0  0
 46 50  1  0  0  0  0
 47 52  1  0  0  0  0
 48 68  1  0  0  0  0
 49 52  1  0  0  0  0
 49 68  1  0  0  0  0
 50 71  1  0  0  0  0
 51 67  1  0  0  0  0
 52 63  1  0  0  0  0
 53 60  1  0  0  0  0
 54 61  1  0  0  0  0
 55 61  1  0  0  0  0
 56 61  1  0  0  0  0
 57 73  1  0  0  0  0
 58 81  1  0  0  0  0
 59 61  1  0  0  0  0
 59 72  1  0  0  0  0
 60 73  1  0  0  0  0
 62 63  1  0  0  0  0
M  CHG  2  64   1  73   1
M  ISO  4  38 100  58 101  66 100  81 101
M  END
> <Batch ID>
0186

> <Smiles>
CNC(C)C(=O)NC(C(=O)N1Cc2cc([101O:1][101CH2:1]c3cc4c(cn3)C[100N:0]([100C:0](=O)N3CCCC(n5nc(-c6ccc(Oc7ccc(F)cc7F)cc6)c(C(N)=O)c5N)C3)C(=O)CN4)ccc2CC1C(=O)NC1CCCc2ccccc21)C(C)(C)C

> <Shape>
0.227

> <Color>
0.185

> <Negative vol penalty>
0.000

$$$$

  -OEChem-04052323143D

 80 89  0     1  0  0  0  0  0999 V2000
  -18.3199  -27.1596   23.2925 C   0  0  0  0  0  0  0  0  0  0  0  0
  -19.0532  -26.1434   22.6882 C   0  0  0  0  0  0  0  0  0  0  0  0
  -24.5087  -13.8136   20.3050 C   0  0  0  0  0  0  0  0  0  0  0  0
  -26.8667  -13.2874   20.3097 C   0  0  0  0  0  0  0  0  0  0  0  0
  -18.7187  -28.4875   23.1455 C   0  0  0  0  0  0  0  0  0  0  0  0
  -20.1851  -26.4547   21.9356 C   0  0  0  0  0  0  0  0  0  0  0  0
  -24.0944  -23.4006   22.9525 C   0  0  0  0  0  0  0  0  0  0  0  0
  -24.2067  -12.4594   20.1620 C   0  0  0  0  0  0  0  0  0  0  0  0
  -26.5647  -11.9331   20.1668 C   0  0  0  0  0  0  0  0  0  0  0  0
  -24.0739  -22.1286   22.3820 C   0  0  0  0  0  0  0  0  0  0  0  0
  -22.8062   -9.1047   20.1583 C   0  0  0  0  0  0  0  0  0  0  0  0
  -21.7914   -8.5786   20.9576 C   0  0  0  0  0  0  0  0  0  0  0  0
  -25.5875  -22.8823   20.6615 C   0  0  0  0  0  0  0  0  0  0  0  0
  -23.0322   -9.1932   22.9375 C   0  0  0  0  0  0  0  0  0  0  0  0
  -25.8387  -14.2276   20.3788 C   0  0  0  0  0  0  0  0  0  0  0  0
  -25.7645  -16.4778   21.5783 C   0  0  0  0  0  0  0  0  0  0  0  0
  -19.8615  -28.8144   22.3988 C   0  0  0  0  0  0  0  0  0  0  0  0
  -24.8544  -24.4276   22.3745 C   0  0  0  0  0  0  0  0  0  0  0  0
  -20.5987  -27.7884   21.7775 C   0  0  0  0  0  0  0  0  0  0  0  0
  -25.6180  -24.1658   21.2280 C   0  0  0  0  0  0  0  0  0  0  0  0
  -25.2347  -11.5191   20.0929 C   0  0  0  0  0  0  0  0  0  0  0  0
  -24.8182  -21.8701   21.2347 C   0  0  0  0  0  0  0  0  0  0  0  0
  -23.9341   -9.6750   20.7486 C   0  0  0  0  0  0  0  0  0  0  0  0
  -21.9043   -8.6229   22.3472 C   0  0  0  0  0  0  0  0  0  0  0  0
  -24.0471   -9.7192   22.1381 C   0  0  0  0  0  0  0  0  0  0  0  0
  -26.1512  -15.6265   20.5259 C   0  0  0  0  0  0  0  0  0  0  0  0
  -26.3090  -17.6959   21.2522 C   0  0  0  0  0  0  0  0  0  0  0  0
  -24.9830  -16.1931   22.7461 C   0  0  0  0  0  0  0  0  0  0  0  0
  -24.1911  -27.2600   21.0932 C   0  0  0  0  0  0  0  0  0  0  0  0
  -27.4217  -27.5293   20.9794 C   0  0  0  0  0  0  0  0  0  0  0  0
  -30.7395  -26.2270   20.4192 C   0  0  0  0  0  0  0  0  0  0  0  0
  -27.9068  -20.0683   16.1088 C   0  0  0  0  0  0  0  0  0  0  0  0
  -20.2264  -30.2680   22.2290 C   0  0  0  0  0  0  0  0  0  0  0  0
  -24.8870  -25.7871   23.0173 C   0  0  0  0  0  0  0  0  0  0  0  0
  -26.4664  -25.2285   20.5805 C   0  0  0  0  0  0  0  0  0  0  0  0
  -21.6515  -30.4835   21.7262 C   0  0  0  0  0  0  0  0  0  0  0  0
  -29.9927  -19.5054   18.9103 C   0  0  0  0  0  0  0  0  0  0  0  0
  -21.9499  -29.5551   20.5533 C   0  0  0  0  0  0  0  0  0  0  0  0
  -29.1713  -18.5415   19.7703 C   0  0  0  0  0  0  0  0  0  0  0  0
  -24.4326  -22.5102   16.4978 C   0  0  0  0  0  0  0  0  0  0  0  0
  -25.9299  -22.3839   16.1540 C   0  0  0  0  0  0  0  0  0  0  0  0
  -29.8368  -19.2032   17.4218 C   0  0  0  0  0  0  0  0  0  0  0  0
  -27.6159  -18.1898   17.8054 C   0  0  0  0  0  0  0  0  0  0  0  0
  -25.9383  -20.2256   14.6045 C   0  0  0  0  0  0  0  0  0  0  0  0
  -21.8465  -28.0841   20.9738 C   0  0  1  0  0  0  0  0  0  0  0  0
  -25.2907  -26.8958   22.0503 C   0  0  1  0  0  0  0  0  0  0  0  0
  -27.7012  -18.4948   19.3106 C   0  0  1  0  0  0  0  0  0  0  0  0
  -24.3512  -20.9724   16.5916 C   0  0  1  0  0  0  0  0  0  0  0  0
  -25.6108  -20.9835   15.8176 C   0  0  2  0  0  0  0  0  0  0  0  0
  -32.9853  -27.3158   20.6809 C   0  0  0  0  0  0  0  0  0  0  0  0
  -23.4859  -18.6209   20.3984 C   0  0  0  0  0  0  0  0  0  0  0  0
  -27.1393  -28.1608   18.0076 C   0  0  0  0  0  0  0  0  0  0  0  0
  -29.5855  -27.6954   17.7475 C   0  0  0  0  0  0  0  0  0  0  0  0
  -28.8220  -29.5614   19.2164 C   0  0  0  0  0  0  0  0  0  0  0  0
  -31.6887  -24.0976   22.2423 C   0  0  0  0  0  0  0  0  0  0  0  0
  -23.2736  -20.6207   18.8174 C   0  0  0  0  0  0  0  0  0  0  0  0
  -28.4895  -27.1723   19.9737 C   0  0  1  0  0  0  0  0  0  0  0  0
  -31.9491  -26.4039   21.3192 C   0  0  2  0  0  0  0  0  0  0  0  0
  -23.5312  -20.1351   20.2401 C   0  0  2  0  0  0  0  0  0  1  0  0
  -28.4917  -28.1277   18.7471 C   0  0  0  0  0  0  0  0  0  0  0  0
  -26.8846  -16.2508   19.6006 N   0  0  0  0  0  0  0  0  0  0  0  0
  -26.9630  -17.5075   20.0703 N   0  0  0  0  0  0  0  0  0  0  0  0
  -26.4603  -26.5434   21.2428 N   0  0  0  0  0  0  0  0  0  0  0  0
  -28.4221  -19.1615   17.0543 N   0  0  0  0  0  0  0  0  0  0  0  0
  -26.5425  -19.9083   15.8721 N   0  0  0  0  0  0  0  0  0  0  0  0
  -26.2873  -18.8991   21.8641 N   0  0  0  0  0  0  0  0  0  0  0  0
  -25.6450  -15.7663   23.9054 N   0  0  0  0  0  0  0  0  0  0  0  0
  -23.0281  -27.6838   21.7073 N   0  0  0  0  0  0  0  0  0  0  0  0
  -29.7491  -27.1414   20.7093 N   0  0  0  0  0  0  0  0  0  0  0  0
  -24.4952  -20.4769   17.9721 N   0  3  0  0  0  0  0  0  0  0  0  0
  -32.5882  -25.0857   21.5930 N   0  3  0  0  0  0  0  0  0  0  0  0
  -23.7330  -16.2977   22.7562 O   0  0  0  0  0  0  0  0  0  0  0  0
  -24.3841  -27.1649   19.8867 O   0  0  0  0  0  0  0  0  0  0  0  0
  -27.4441  -28.6393   21.5169 O   0  0  0  0  0  0  0  0  0  0  0  0
  -30.6808  -25.3664   19.5438 O   0  0  0  0  0  0  0  0  0  0  0  0
  -28.5954  -20.9263   15.5501 O   0  0  0  0  0  0  0  0  0  0  0  0
  -24.9405  -10.1975   19.9536 O   0  0  0  0  0  0  0  0  0  0  0  0
  -24.7993  -20.6224   20.6723 O   0  0  0  0  0  0  0  0  0  1  0  0
  -20.9290   -8.1191   23.1147 F   0  0  0  0  0  0  0  0  0  0  0  0
  -25.1277  -10.2669   22.7110 F   0  0  0  0  0  0  0  0  0  0  0  0
  1  2  1  0  0  0  0
  1  5  2  0  0  0  0
  2  6  2  0  0  0  0
  3  8  2  0  0  0  0
  3 15  1  0  0  0  0
  4  9  1  0  0  0  0
  4 15  2  0  0  0  0
  5 17  1  0  0  0  0
  6 19  1  0  0  0  0
  7 10  2  0  0  0  0
  7 18  1  0  0  0  0
  8 21  1  0  0  0  0
  9 21  2  0  0  0  0
 10 22  1  0  0  0  0
 11 12  2  0  0  0  0
 11 23  1  0  0  0  0
 12 24  1  0  0  0  0
 13 20  1  0  0  0  0
 13 22  2  0  0  0  0
 14 24  2  0  0  0  0
 14 25  1  0  0  0  0
 15 26  1  0  0  0  0
 16 26  1  0  0  0  0
 16 27  2  0  0  0  0
 16 28  1  0  0  0  0
 17 19  2  0  0  0  0
 17 33  1  0  0  0  0
 18 20  2  0  0  0  0
 18 34  1  0  0  0  0
 19 45  1  0  0  0  0
 20 35  1  0  0  0  0
 21 77  1  0  0  0  0
 22 78  1  0  0  0  0
 23 25  2  0  0  0  0
 23 77  1  0  0  0  0
 24 79  1  0  0  0  0
 25 80  1  0  0  0  0
 26 61  2  0  0  0  0
 27 62  1  0  0  0  0
 27 66  1  0  0  0  0
 28 67  1  0  0  0  0
 28 72  2  0  0  0  0
 29 46  1  0  0  0  0
 29 68  1  0  0  0  0
 29 73  2  0  0  0  0
 30 57  1  0  0  0  0
 30 63  1  0  0  0  0
 30 74  2  0  0  0  0
 31 58  1  0  0  0  0
 31 69  1  0  0  0  0
 31 75  2  0  0  0  0
 32 64  1  0  0  0  0
 32 65  1  0  0  0  0
 32 76  2  0  0  0  0
 33 36  1  0  0  0  0
 34 46  1  0  0  0  0
 35 63  1  0  0  0  0
 36 38  1  0  0  0  0
 37 39  1  0  0  0  0
 37 42  1  0  0  0  0
 38 45  1  0  0  0  0
 39 47  1  0  0  0  0
 40 41  1  0  0  0  0
 40 48  1  0  0  0  0
 41 49  1  0  0  0  0
 42 64  1  0  0  0  0
 43 47  1  0  0  0  0
 43 64  1  0  0  0  0
 44 49  1  0  0  0  0
 44 65  1  0  0  0  0
 45 68  1  0  0  0  0
 46 63  1  0  0  0  0
 47 62  1  0  0  0  0
 48 49  1  0  0  0  0
 48 70  1  0  0  0  0
 49 65  1  0  0  0  0
 50 58  1  0  0  0  0
 51 59  1  0  0  0  0
 52 60  1  0  0  0  0
 53 60  1  0  0  0  0
 54 60  1  0  0  0  0
 55 71  1  0  0  0  0
 56 59  1  0  0  0  0
 56 70  1  0  0  0  0
 57 60  1  0  0  0  0
 57 69  1  0  0  0  0
 58 71  1  0  0  0  0
 59 78  1  0  0  0  0
 61 62  1  0  0  0  0
M  CHG  2  70   1  71   1
M  ISO  4  32 100  59 101  65 100  78 101
M  END
> <Batch ID>
0186

> <Smiles>
CNC(C)C(=O)NC(C(=O)N1Cc2cc([101O:1][101CH:1](C)CNC3CCC34C[100N:0]4[100C:0](=O)N3CCCC(n4nc(-c5ccc(Oc6ccc(F)cc6F)cc5)c(C(N)=O)c4N)C3)ccc2CC1C(=O)NC1CCCc2ccccc21)C(C)(C)C

> <Shape>
0.205

> <Color>
0.069

> <Negative vol penalty>
0.000

$$$$

  -OEChem-04052323143D

 83 92  0     1  0  0  0  0  0999 V2000
  -29.8764  -10.9552   17.3182 C   0  0  0  0  0  0  0  0  0  0  0  0
  -29.4954  -12.2650   17.0447 C   0  0  0  0  0  0  0  0  0  0  0  0
  -22.1972  -28.7136   22.9165 C   0  0  0  0  0  0  0  0  0  0  0  0
  -21.8776  -28.4047   20.5417 C   0  0  0  0  0  0  0  0  0  0  0  0
  -29.1909  -10.2181   18.2828 C   0  0  0  0  0  0  0  0  0  0  0  0
  -28.4280  -12.8380   17.7351 C   0  0  0  0  0  0  0  0  0  0  0  0
  -27.8637  -18.6935   19.4384 C   0  0  0  0  0  0  0  0  0  0  0  0
  -20.9795  -28.0797   23.1629 C   0  0  0  0  0  0  0  0  0  0  0  0
  -20.6598  -27.7707   20.7881 C   0  0  0  0  0  0  0  0  0  0  0  0
  -27.1821  -19.7722   18.8767 C   0  0  0  0  0  0  0  0  0  0  0  0
  -17.6943  -28.8664   23.0484 C   0  0  0  0  0  0  0  0  0  0  0  0
  -16.8343  -29.4546   23.9757 C   0  0  0  0  0  0  0  0  0  0  0  0
  -25.3181  -19.3536   20.3496 C   0  0  0  0  0  0  0  0  0  0  0  0
  -16.9220  -27.4533   25.3264 C   0  0  0  0  0  0  0  0  0  0  0  0
  -22.6463  -28.8762   21.6059 C   0  0  0  0  0  0  0  0  0  0  0  0
  -24.2638  -30.8465   21.7014 C   0  0  0  0  0  0  0  0  0  0  0  0
  -28.1206  -10.7855   18.9922 C   0  0  0  0  0  0  0  0  0  0  0  0
  -27.2722  -17.9287   20.4541 C   0  0  0  0  0  0  0  0  0  0  0  0
  -27.7266  -12.1073   18.7092 C   0  0  0  0  0  0  0  0  0  0  0  0
  -25.9953  -18.2672   20.9243 C   0  0  0  0  0  0  0  0  0  0  0  0
  -20.2107  -27.6082   22.0987 C   0  0  0  0  0  0  0  0  0  0  0  0
  -25.9079  -20.1007   19.3303 C   0  0  0  0  0  0  0  0  0  0  0  0
  -18.1681  -27.5716   23.2600 C   0  0  0  0  0  0  0  0  0  0  0  0
  -16.4481  -28.7481   25.1148 C   0  0  0  0  0  0  0  0  0  0  0  0
  -17.7820  -26.8651   24.3990 C   0  0  0  0  0  0  0  0  0  0  0  0
  -23.9039  -29.5315   21.3507 C   0  0  0  0  0  0  0  0  0  0  0  0
  -25.5503  -30.9848   21.2405 C   0  0  0  0  0  0  0  0  0  0  0  0
  -23.6363  -24.1074   21.3538 C   0  0  0  0  0  0  0  0  0  0  0  0
  -25.5907  -24.4095   20.6858 C   0  0  0  0  0  0  0  0  0  0  0  0
  -23.5033  -31.8529   22.3829 C   0  0  0  0  0  0  0  0  0  0  0  0
  -26.4029  -14.8860   20.7536 C   0  0  0  0  0  0  0  0  0  0  0  0
  -25.7847  -15.7693   23.8130 C   0  0  0  0  0  0  0  0  0  0  0  0
  -25.0444  -18.2712   26.0129 C   0  0  0  0  0  0  0  0  0  0  0  0
  -29.6297  -26.5054   20.0160 C   0  0  0  0  0  0  0  0  0  0  0  0
  -27.3797   -9.9338   19.9923 C   0  0  0  0  0  0  0  0  0  0  0  0
  -28.0314  -16.7846   21.0681 C   0  0  0  0  0  0  0  0  0  0  0  0
  -25.3244  -17.4904   22.0265 C   0  0  0  0  0  0  0  0  0  0  0  0
  -26.4994  -10.7391   20.9445 C   0  0  0  0  0  0  0  0  0  0  0  0
  -28.2557  -29.0687   17.7057 C   0  0  0  0  0  0  0  0  0  0  0  0
  -25.6797  -11.7681   20.1723 C   0  0  0  0  0  0  0  0  0  0  0  0
  -27.2047  -29.8256   18.5177 C   0  0  0  0  0  0  0  0  0  0  0  0
  -28.5036  -24.1839   22.2844 C   0  0  0  0  0  0  0  0  0  0  0  0
  -29.3580  -28.4816   18.5757 C   0  0  0  0  0  0  0  0  0  0  0  0
  -29.7902  -24.4551   21.5074 C   0  0  0  0  0  0  0  0  0  0  0  0
  -27.5262  -27.9260   20.1800 C   0  0  0  0  0  0  0  0  0  0  0  0
  -26.5897  -12.7721   19.4545 C   0  0  1  0  0  0  0  0  0  0  0  0
  -27.1249  -15.7586   21.7410 C   0  0  1  0  0  0  0  0  0  0  0  0
  -27.1820  -29.4142   19.9992 C   0  0  2  0  0  0  0  0  0  0  0  0
  -27.8079  -25.2649   21.4473 C   0  0  1  0  0  0  0  0  0  0  0  0
  -22.4691  -24.0920   22.2433 C   0  0  0  0  0  0  0  0  0  0  0  0
  -24.5598  -18.6799   28.4409 C   0  0  0  0  0  0  0  0  0  0  0  0
  -22.9770  -14.6341   23.4413 C   0  0  0  0  0  0  0  0  0  0  0  0
  -22.2723  -15.8937   25.4870 C   0  0  0  0  0  0  0  0  0  0  0  0
  -24.0234  -14.1251   25.6550 C   0  0  0  0  0  0  0  0  0  0  0  0
  -27.3919  -20.0502   26.3013 C   0  0  0  0  0  0  0  0  0  0  0  0
  -25.2261  -23.5312   18.3438 C   0  0  0  0  0  0  0  0  0  0  0  0
  -26.0260  -22.2343   18.2865 C   0  0  0  0  0  0  0  0  0  1  0  0
  -24.5864  -16.3252   24.5439 C   0  0  1  0  0  0  0  0  0  0  0  0
  -25.6334  -18.6306   27.3650 C   0  0  2  0  0  0  0  0  0  0  0  0
  -23.4764  -15.2582   24.7597 C   0  0  0  0  0  0  0  0  0  0  0  0
  -24.8825  -28.8809   20.7159 N   0  0  0  0  0  0  0  0  0  0  0  0
  -24.8550  -24.5696   21.7612 N   0  0  0  0  0  0  0  0  0  0  0  0
  -23.5718  -23.6713   20.0940 N   0  0  0  0  0  0  0  0  0  0  0  0
  -25.8701  -29.7909   20.6640 N   0  0  0  0  0  0  0  0  0  0  0  0
  -24.8346  -23.8755   19.6893 N   0  0  0  0  0  0  0  0  0  0  0  0
  -26.1048  -16.3766   22.5905 N   0  0  0  0  0  0  0  0  0  0  0  0
  -28.8233  -27.5674   19.5904 N   0  0  0  0  0  0  0  0  0  0  0  0
  -29.1256  -25.6303   20.9517 N   0  0  0  0  0  0  0  0  0  0  0  0
  -26.4278  -32.0101   21.2762 N   0  0  0  0  0  0  0  0  0  0  0  0
  -22.7181  -32.7280   21.6200 N   0  0  0  0  0  0  0  0  0  0  0  0
  -26.9403  -24.7023   20.4701 N   0  0  0  0  0  0  0  0  0  0  0  0
  -27.1010  -13.7500   20.3909 N   0  0  0  0  0  0  0  0  0  0  0  0
  -25.0974  -16.9137   25.7772 N   0  0  0  0  0  0  0  0  0  0  0  0
  -26.2980  -19.9630   27.3028 N   0  3  0  0  0  0  0  0  0  0  0  0
  -23.5324  -31.9832   23.6301 O   0  0  0  0  0  0  0  0  0  0  0  0
  -25.2938  -15.2179   20.3518 O   0  0  0  0  0  0  0  0  0  0  0  0
  -26.4177  -14.8355   24.3119 O   0  0  0  0  0  0  0  0  0  0  0  0
  -24.5799  -19.1103   25.2443 O   0  0  0  0  0  0  0  0  0  0  0  0
  -30.7667  -26.3300   19.5567 O   0  0  0  0  0  0  0  0  0  0  0  0
  -19.0225  -26.9893   22.3388 O   0  0  0  0  0  0  0  0  0  0  0  0
  -25.2355  -21.1601   18.7795 O   0  0  0  0  0  0  0  0  0  1  0  0
  -15.6235  -29.3136   26.0060 F   0  0  0  0  0  0  0  0  0  0  0  0
  -18.2349  -25.6214   24.6084 F   0  0  0  0  0  0  0  0  0  0  0  0
  1  2  1  0  0  0  0
  1  5  2  0  0  0  0
  2  6  2  0  0  0  0
  3  8  2  0  0  0  0
  3 15  1  0  0  0  0
  4  9  1  0  0  0  0
  4 15  2  0  0  0  0
  5 17  1  0  0  0  0
  6 19  1  0  0  0  0
  7 10  2  0  0  0  0
  7 18  1  0  0  0  0
  8 21  1  0  0  0  0
  9 21  2  0  0  0  0
 10 22  1  0  0  0  0
 11 12  2  0  0  0  0
 11 23  1  0  0  0  0
 12 24  1  0  0  0  0
 13 20  1  0  0  0  0
 13 22  2  0  0  0  0
 14 24  2  0  0  0  0
 14 25  1  0  0  0  0
 15 26  1  0  0  0  0
 16 26  1  0  0  0  0
 16 27  2  0  0  0  0
 16 30  1  0  0  0  0
 17 19  2  0  0  0  0
 17 35  1  0  0  0  0
 18 20  2  0  0  0  0
 18 36  1  0  0  0  0
 19 46  1  0  0  0  0
 20 37  1  0  0  0  0
 21 80  1  0  0  0  0
 22 81  1  0  0  0  0
 23 25  2  0  0  0  0
 23 80  1  0  0  0  0
 24 82  1  0  0  0  0
 25 83  1  0  0  0  0
 26 61  2  0  0  0  0
 27 64  1  0  0  0  0
 27 69  1  0  0  0  0
 28 50  1  0  0  0  0
 28 62  1  0  0  0  0
 28 63  2  0  0  0  0
 29 62  2  0  0  0  0
 29 65  1  0  0  0  0
 29 71  1  0  0  0  0
 30 70  1  0  0  0  0
 30 75  2  0  0  0  0
 31 47  1  0  0  0  0
 31 72  1  0  0  0  0
 31 76  2  0  0  0  0
 32 58  1  0  0  0  0
 32 66  1  0  0  0  0
 32 77  2  0  0  0  0
 33 59  1  0  0  0  0
 33 73  1  0  0  0  0
 33 78  2  0  0  0  0
 34 67  1  0  0  0  0
 34 68  1  0  0  0  0
 34 79  2  0  0  0  0
 35 38  1  0  0  0  0
 36 47  1  0  0  0  0
 37 66  1  0  0  0  0
 38 40  1  0  0  0  0
 39 41  1  0  0  0  0
 39 43  1  0  0  0  0
 40 46  1  0  0  0  0
 41 48  1  0  0  0  0
 42 44  1  0  0  0  0
 42 49  1  0  0  0  0
 43 67  1  0  0  0  0
 44 68  1  0  0  0  0
 45 48  1  0  0  0  0
 45 67  1  0  0  0  0
 46 72  1  0  0  0  0
 47 66  1  0  0  0  0
 48 64  1  0  0  0  0
 49 68  1  0  0  0  0
 49 71  1  0  0  0  0
 51 59  1  0  0  0  0
 52 60  1  0  0  0  0
 53 60  1  0  0  0  0
 54 60  1  0  0  0  0
 55 74  1  0  0  0  0
 56 57  1  0  0  0  0
 56 65  1  0  0  0  0
 57 81  1  0  0  0  0
 58 60  1  0  0  0  0
 58 73  1  0  0  0  0
 59 74  1  0  0  0  0
 61 64  1  0  0  0  0
 63 65  1  0  0  0  0
M  CHG  1  74   1
M  ISO  4  34 100  57 101  68 100  81 101
M  END
> <Batch ID>
0186

> <Smiles>
CNC(C)C(=O)NC(C(=O)N1Cc2cc([101O:1][101CH2:1]Cn3nc(C)nc3NC3CC[100N:0]3[100C:0](=O)N3CCCC(n4nc(-c5ccc(Oc6ccc(F)cc6F)cc5)c(C(N)=O)c4N)C3)ccc2CC1C(=O)NC1CCCc2ccccc21)C(C)(C)C

> <Shape>
0.215

> <Color>
0.063

> <Negative vol penalty>
0.000

$$$$

  -OEChem-04052323143D

 86 95  0     1  0  0  0  0  0999 V2000
  -20.4640  -33.8631   19.6613 C   0  0  0  0  0  0  0  0  0  0  0  0
  -21.7064  -33.2413   19.5894 C   0  0  0  0  0  0  0  0  0  0  0  0
  -23.7611   -9.7035   22.6075 C   0  0  0  0  0  0  0  0  0  0  0  0
  -24.3001   -9.3356   20.2813 C   0  0  0  0  0  0  0  0  0  0  0  0
  -19.6220  -33.6125   20.7439 C   0  0  0  0  0  0  0  0  0  0  0  0
  -22.1081  -32.3695   20.6008 C   0  0  0  0  0  0  0  0  0  0  0  0
  -24.1883  -28.1217   18.7914 C   0  0  0  0  0  0  0  0  0  0  0  0
  -22.8072   -8.6876   22.5472 C   0  0  0  0  0  0  0  0  0  0  0  0
  -23.3462   -8.3196   20.2210 C   0  0  0  0  0  0  0  0  0  0  0  0
  -25.5066  -28.1987   18.3442 C   0  0  0  0  0  0  0  0  0  0  0  0
  -20.4836   -5.9477   23.1030 C   0  0  0  0  0  0  0  0  0  0  0  0
  -20.4509   -5.0258   24.1493 C   0  0  0  0  0  0  0  0  0  0  0  0
  -26.2623  -27.2427   20.4261 C   0  0  0  0  0  0  0  0  0  0  0  0
  -22.7273   -4.3845   23.6553 C   0  0  0  0  0  0  0  0  0  0  0  0
  -30.1135  -25.6382   18.9297 C   0  0  0  0  0  0  0  0  0  0  0  0
  -24.5075  -10.0275   21.4745 C   0  0  0  0  0  0  0  0  0  0  0  0
  -26.8535  -10.9473   21.8717 C   0  0  0  0  0  0  0  0  0  0  0  0
  -20.0094  -32.7297   21.7643 C   0  0  0  0  0  0  0  0  0  0  0  0
  -23.8975  -27.6139   20.0658 C   0  0  0  0  0  0  0  0  0  0  0  0
  -21.2710  -32.1079   21.6988 C   0  0  0  0  0  0  0  0  0  0  0  0
  -24.9393  -27.1580   20.8861 C   0  0  0  0  0  0  0  0  0  0  0  0
  -22.5998   -7.9956   21.3540 C   0  0  0  0  0  0  0  0  0  0  0  0
  -26.5440  -27.7619   19.1627 C   0  0  0  0  0  0  0  0  0  0  0  0
  -21.6381   -6.0879   22.3328 C   0  0  0  0  0  0  0  0  0  0  0  0
  -21.5728   -4.2443   24.4255 C   0  0  0  0  0  0  0  0  0  0  0  0
  -22.7600   -5.3063   22.6090 C   0  0  0  0  0  0  0  0  0  0  0  0
  -25.4926  -11.0773   21.5361 C   0  0  0  0  0  0  0  0  0  0  0  0
  -29.6326  -25.7863   17.6474 C   0  0  0  0  0  0  0  0  0  0  0  0
  -29.4954  -23.5133   17.4364 C   0  0  0  0  0  0  0  0  0  0  0  0
  -29.9769  -23.3653   18.7185 C   0  0  0  0  0  0  0  0  0  0  0  0
  -27.3521  -12.2241   21.7845 C   0  0  0  0  0  0  0  0  0  0  0  0
  -27.6002   -9.7770   22.2303 C   0  0  0  0  0  0  0  0  0  0  0  0
  -22.5529  -28.7888   22.6955 C   0  0  0  0  0  0  0  0  0  0  0  0
  -22.8223  -25.7269   23.7320 C   0  0  0  0  0  0  0  0  0  0  0  0
  -24.4087  -22.7150   23.4893 C   0  0  0  0  0  0  0  0  0  0  0  0
  -27.7574  -16.9351   18.9062 C   0  0  0  0  0  0  0  0  0  0  0  0
  -19.0850  -32.5267   22.9385 C   0  0  0  0  0  0  0  0  0  0  0  0
  -22.4681  -27.5127   20.5228 C   0  0  0  0  0  0  0  0  0  0  0  0
  -24.6785  -26.5857   22.2547 C   0  0  0  0  0  0  0  0  0  0  0  0
  -19.4294  -31.3006   23.7801 C   0  0  0  0  0  0  0  0  0  0  0  0
  -24.9819  -16.6622   21.2871 C   0  0  0  0  0  0  0  0  0  0  0  0
  -20.9273  -31.2518   24.0642 C   0  0  0  0  0  0  0  0  0  0  0  0
  -24.9739  -15.1599   21.5745 C   0  0  0  0  0  0  0  0  0  0  0  0
  -25.3840  -16.9391   19.8435 C   0  0  0  0  0  0  0  0  0  0  0  0
  -26.6994  -14.8611   19.7328 C   0  0  0  0  0  0  0  0  0  0  0  0
  -27.6457  -19.2070   20.2031 C   0  0  0  0  0  0  0  0  0  0  0  0
  -28.9429  -19.1622   18.5160 C   0  0  0  0  0  0  0  0  0  0  0  0
  -21.7320  -31.1366   22.7638 C   0  0  1  0  0  0  0  0  0  0  0  0
  -22.3288  -27.4550   22.0410 C   0  0  1  0  0  0  0  0  0  0  0  0
  -26.3132  -14.5098   21.1816 C   0  0  2  0  0  0  0  0  0  0  0  0
  -28.9771  -19.8912   19.8639 C   0  0  0  0  0  0  0  0  0  0  0  0
  -29.1472  -22.3326   16.5959 C   0  0  0  0  0  0  0  0  0  0  0  0
  -24.4341  -20.4154   24.4936 C   0  0  0  0  0  0  0  0  0  0  0  0
  -24.2720  -26.8171   26.1855 C   0  0  0  0  0  0  0  0  0  0  0  0
  -25.0881  -24.4959   26.6485 C   0  0  0  0  0  0  0  0  0  0  0  0
  -22.6416  -24.9827   26.6666 C   0  0  0  0  0  0  0  0  0  0  0  0
  -23.7240  -21.4514   20.9021 C   0  0  0  0  0  0  0  0  0  0  0  0
  -28.3142  -22.0134   20.9852 C   0  0  0  0  0  0  0  0  0  0  0  0
  -29.4465  -27.1424   17.0625 C   0  0  0  0  0  0  0  0  0  0  0  0
  -30.1734  -22.0088   19.3287 C   0  0  0  0  0  0  0  0  0  0  0  0
  -28.0524  -27.7234   17.3245 C   0  0  0  0  0  0  0  0  0  1  0  0
  -23.8795  -24.9347   24.4626 C   0  0  1  0  0  0  0  0  0  0  0  0
  -23.8714  -21.2986   23.3908 C   0  0  2  0  0  0  0  0  0  0  0  0
  -23.9757  -25.3201   25.9658 C   0  0  0  0  0  0  0  0  0  0  0  0
  -30.2943  -24.4250   19.4883 N   0  0  0  0  0  0  0  0  0  0  0  0
  -25.1485  -12.3372   21.2565 N   0  0  0  0  0  0  0  0  0  0  0  0
  -29.3149  -24.7265   16.8777 N   0  0  0  0  0  0  0  0  0  0  0  0
  -26.3004  -13.0106   21.4165 N   0  0  0  0  0  0  0  0  0  0  0  0
  -23.2647  -26.5135   22.6590 N   0  0  0  0  0  0  0  0  0  0  0  0
  -26.6724  -16.3134   19.5301 N   0  0  0  0  0  0  0  0  0  0  0  0
  -27.9493  -18.2794   19.1228 N   0  0  0  0  0  0  0  0  0  0  0  0
  -28.5832  -12.7395   21.9874 N   0  0  0  0  0  0  0  0  0  0  0  0
  -26.9330   -8.5452   22.2713 N   0  0  0  0  0  0  0  0  0  0  0  0
  -21.6918  -29.7793   22.2632 N   0  0  0  0  0  0  0  0  0  0  0  0
  -23.5728  -23.5283   24.2249 N   0  0  0  0  0  0  0  0  0  0  0  0
  -24.2338  -20.6974   22.0762 N   0  3  0  0  0  0  0  0  0  0  0  0
  -28.8730  -21.3499   19.7426 N   0  3  1  0  0  0  0  0  0  0  0  0
  -28.8193   -9.8249   22.5222 O   0  0  0  0  0  0  0  0  0  0  0  0
  -23.4403  -28.9099   23.5319 O   0  0  0  0  0  0  0  0  0  0  0  0
  -21.6463  -25.6451   24.0953 O   0  0  0  0  0  0  0  0  0  0  0  0
  -25.4661  -23.0640   22.9690 O   0  0  0  0  0  0  0  0  0  0  0  0
  -28.5539  -16.3025   18.2001 O   0  0  0  0  0  0  0  0  0  0  0  0
  -21.6693   -7.0041   21.2948 O   0  0  0  0  0  0  0  0  0  0  0  0
  -27.8408  -27.8370   18.7259 O   0  0  0  0  0  0  0  0  0  1  0  0
  -21.5418   -3.3602   25.4313 F   0  0  0  0  0  0  0  0  0  0  0  0
  -23.8723   -5.4374   21.8733 F   0  0  0  0  0  0  0  0  0  0  0  0
  1  2  1  0  0  0  0
  1  5  2  0  0  0  0
  2  6  2  0  0  0  0
  3  8  2  0  0  0  0
  3 16  1  0  0  0  0
  4  9  1  0  0  0  0
  4 16  2  0  0  0  0
  5 18  1  0  0  0  0
  6 20  1  0  0  0  0
  7 10  2  0  0  0  0
  7 19  1  0  0  0  0
  8 22  1  0  0  0  0
  9 22  2  0  0  0  0
 10 23  1  0  0  0  0
 11 12  2  0  0  0  0
 11 24  1  0  0  0  0
 12 25  1  0  0  0  0
 13 21  1  0  0  0  0
 13 23  2  0  0  0  0
 14 25  2  0  0  0  0
 14 26  1  0  0  0  0
 15 28  1  0  0  0  0
 15 65  2  0  0  0  0
 16 27  1  0  0  0  0
 17 27  1  0  0  0  0
 17 31  2  0  0  0  0
 17 32  1  0  0  0  0
 18 20  2  0  0  0  0
 18 37  1  0  0  0  0
 19 21  2  0  0  0  0
 19 38  1  0  0  0  0
 20 48  1  0  0  0  0
 21 39  1  0  0  0  0
 22 83  1  0  0  0  0
 23 84  1  0  0  0  0
 24 26  2  0  0  0  0
 24 83  1  0  0  0  0
 25 85  1  0  0  0  0
 26 86  1  0  0  0  0
 27 66  2  0  0  0  0
 28 59  1  0  0  0  0
 28 67  2  0  0  0  0
 29 30  2  0  0  0  0
 29 52  1  0  0  0  0
 29 67  1  0  0  0  0
 30 60  1  0  0  0  0
 30 65  1  0  0  0  0
 31 68  1  0  0  0  0
 31 72  1  0  0  0  0
 32 73  1  0  0  0  0
 32 78  2  0  0  0  0
 33 49  1  0  0  0  0
 33 74  1  0  0  0  0
 33 79  2  0  0  0  0
 34 62  1  0  0  0  0
 34 69  1  0  0  0  0
 34 80  2  0  0  0  0
 35 63  1  0  0  0  0
 35 75  1  0  0  0  0
 35 81  2  0  0  0  0
 36 70  1  0  0  0  0
 36 71  1  0  0  0  0
 36 82  2  0  0  0  0
 37 40  1  0  0  0  0
 38 49  1  0  0  0  0
 39 69  1  0  0  0  0
 40 42  1  0  0  0  0
 41 43  1  0  0  0  0
 41 44  1  0  0  0  0
 42 48  1  0  0  0  0
 43 50  1  0  0  0  0
 44 70  1  0  0  0  0
 45 50  1  0  0  0  0
 45 70  1  0  0  0  0
 46 51  1  0  0  0  0
 46 71  1  0  0  0  0
 47 51  1  0  0  0  0
 47 71  1  0  0  0  0
 48 74  1  0  0  0  0
 49 69  1  0  0  0  0
 50 68  1  0  0  0  0
 51 77  1  0  0  0  0
 53 63  1  0  0  0  0
 54 64  1  0  0  0  0
 55 64  1  0  0  0  0
 56 64  1  0  0  0  0
 57 76  1  0  0  0  0
 58 77  1  0  0  0  0
 59 61  1  0  0  0  0
 60 77  1  0  0  0  0
 61 84  1  0  0  0  0
 62 64  1  0  0  0  0
 62 75  1  0  0  0  0
 63 76  1  0  0  0  0
 66 68  1  0  0  0  0
M  CHG  2  76   1  77   1
M  ISO  4  36 100  61 101  71 100  84 101
M  END
> <Batch ID>
0186

> <Smiles>
CNC(C)C(=O)NC(C(=O)N1Cc2cc([101O:1][101CH2:1]Cc3cnc(CN(C)C4C[100N:0]([100C:0](=O)N5CCCC(n6nc(-c7ccc(Oc8ccc(F)cc8F)cc7)c(C(N)=O)c6N)C5)C4)c(C)n3)ccc2CC1C(=O)NC1CCCc2ccccc21)C(C)(C)C

> <Shape>
0.241

> <Color>
0.103

> <Negative vol penalty>
0.000

$$$$

  -OEChem-04052323143D

 86 95  0     1  0  0  0  0  0999 V2000
  -42.5762  -24.9102   28.1718 C   0  0  0  0  0  0  0  0  0  0  0  0
  -41.2400  -24.5644   28.3466 C   0  0  0  0  0  0  0  0  0  0  0  0
  -23.0743   -9.8681   19.9417 C   0  0  0  0  0  0  0  0  0  0  0  0
  -23.8383   -9.8743   22.2337 C   0  0  0  0  0  0  0  0  0  0  0  0
  -42.9398  -25.7908   27.1538 C   0  0  0  0  0  0  0  0  0  0  0  0
  -40.2665  -25.1000   27.5041 C   0  0  0  0  0  0  0  0  0  0  0  0
  -35.1740  -22.3274   25.5330 C   0  0  0  0  0  0  0  0  0  0  0  0
  -22.3319   -8.7141   20.1923 C   0  0  0  0  0  0  0  0  0  0  0  0
  -23.0959   -8.7203   22.4843 C   0  0  0  0  0  0  0  0  0  0  0  0
  -33.8489  -22.3836   25.9629 C   0  0  0  0  0  0  0  0  0  0  0  0
  -19.8695   -7.9193   23.0922 C   0  0  0  0  0  0  0  0  0  0  0  0
  -19.1147   -7.8780   24.2644 C   0  0  0  0  0  0  0  0  0  0  0  0
  -33.3791  -24.0446   24.2777 C   0  0  0  0  0  0  0  0  0  0  0  0
  -20.3591   -5.9412   24.9974 C   0  0  0  0  0  0  0  0  0  0  0  0
  -23.8276  -10.4481   20.9624 C   0  0  0  0  0  0  0  0  0  0  0  0
  -24.1670  -12.9737   20.8434 C   0  0  0  0  0  0  0  0  0  0  0  0
  -41.9713  -26.3299   26.2923 C   0  0  0  0  0  0  0  0  0  0  0  0
  -35.6149  -23.1386   24.4776 C   0  0  0  0  0  0  0  0  0  0  0  0
  -40.6173  -25.9897   26.4744 C   0  0  0  0  0  0  0  0  0  0  0  0
  -34.7096  -23.9948   23.8347 C   0  0  0  0  0  0  0  0  0  0  0  0
  -22.3426   -8.1403   21.4636 C   0  0  0  0  0  0  0  0  0  0  0  0
  -32.9519  -23.2444   25.3372 C   0  0  0  0  0  0  0  0  0  0  0  0
  -20.8691   -6.9715   22.8724 C   0  0  0  0  0  0  0  0  0  0  0  0
  -19.3595   -6.8890   25.2170 C   0  0  0  0  0  0  0  0  0  0  0  0
  -21.1139   -5.9825   23.8251 C   0  0  0  0  0  0  0  0  0  0  0  0
  -24.5952  -11.6398   20.7040 C   0  0  0  0  0  0  0  0  0  0  0  0
  -25.2579  -13.7243   20.4786 C   0  0  0  0  0  0  0  0  0  0  0  0
  -22.8969  -13.4881   21.2649 C   0  0  0  0  0  0  0  0  0  0  0  0
  -37.7729  -25.4531   24.1778 C   0  0  0  0  0  0  0  0  0  0  0  0
  -37.0033  -25.2303   21.0345 C   0  0  0  0  0  0  0  0  0  0  0  0
  -34.7126  -24.3334   18.6691 C   0  0  0  0  0  0  0  0  0  0  0  0
  -30.7411  -14.7480   20.6577 C   0  0  0  0  0  0  0  0  0  0  0  0
  -42.4067  -27.3146   25.2362 C   0  0  0  0  0  0  0  0  0  0  0  0
  -37.0410  -23.0465   24.0082 C   0  0  0  0  0  0  0  0  0  0  0  0
  -35.1279  -24.8716   22.6837 C   0  0  0  0  0  0  0  0  0  0  0  0
  -41.3593  -27.5456   24.1500 C   0  0  0  0  0  0  0  0  0  0  0  0
  -29.6012  -12.3640   18.2715 C   0  0  0  0  0  0  0  0  0  0  0  0
  -39.9839  -27.7639   24.7725 C   0  0  0  0  0  0  0  0  0  0  0  0
  -29.0371  -21.6407   24.3341 C   0  0  0  0  0  0  0  0  0  0  0  0
  -28.1648  -12.0688   18.7068 C   0  0  0  0  0  0  0  0  0  0  0  0
  -29.2121  -22.8210   25.3088 C   0  0  0  0  0  0  0  0  0  0  0  0
  -30.5329  -17.9950   20.8646 C   0  0  0  0  0  0  0  0  0  0  0  0
  -30.5203  -12.5848   19.4708 C   0  0  0  0  0  0  0  0  0  0  0  0
  -28.6205  -13.3134   20.8613 C   0  0  0  0  0  0  0  0  0  0  0  0
  -31.0438  -18.6843   23.6614 C   0  0  0  0  0  0  0  0  0  0  0  0
  -39.5351  -26.5304   25.5652 C   0  0  1  0  0  0  0  0  0  0  0  0
  -37.5058  -24.2929   23.2612 C   0  0  1  0  0  0  0  0  0  0  0  0
  -30.5747  -21.4664   24.3752 C   0  0  2  0  0  0  0  0  0  0  0  0
  -30.3776  -17.3531   23.3020 C   0  0  1  0  0  0  0  0  0  0  0  0
  -27.6443  -13.1387   19.6853 C   0  0  2  0  0  0  0  0  0  0  0  0
  -30.8073  -16.8978   21.8958 C   0  0  1  0  0  0  0  0  0  0  0  0
  -30.6572  -22.9667   24.7778 C   0  0  2  0  0  0  0  0  0  1  0  0
  -31.1921  -19.3291   21.2332 C   0  0  1  0  0  0  0  0  0  0  0  0
  -30.8211  -20.3916   20.2002 C   0  0  0  0  0  0  0  0  0  0  0  0
  -30.1897  -15.4457   26.6646 C   0  0  0  0  0  0  0  0  0  0  0  0
  -34.3530  -24.3059   16.1857 C   0  0  0  0  0  0  0  0  0  0  0  0
  -36.4685  -28.2339   21.0812 C   0  0  0  0  0  0  0  0  0  0  0  0
  -35.2348  -27.9774   18.9177 C   0  0  0  0  0  0  0  0  0  0  0  0
  -37.6629  -27.4186   19.0408 C   0  0  0  0  0  0  0  0  0  0  0  0
  -34.4538  -21.3855   18.6224 C   0  0  0  0  0  0  0  0  0  0  0  0
  -30.7203  -16.3083   24.3682 C   0  0  0  0  0  0  0  0  0  0  0  0
  -31.2453  -21.0794   23.0728 C   0  0  0  0  0  0  0  0  0  0  0  0
  -29.8672  -16.4981   25.6158 C   0  0  0  0  0  0  0  0  0  0  0  0
  -35.9802  -25.8816   20.1356 C   0  0  1  0  0  0  0  0  0  0  0  0
  -34.8476  -23.5234   17.3923 C   0  0  2  0  0  0  0  0  0  0  0  0
  -36.3289  -27.3629   19.8168 C   0  0  0  0  0  0  0  0  0  0  0  0
  -25.8594  -11.5454   20.2834 N   0  0  0  0  0  0  0  0  0  0  0  0
  -26.2349  -12.8293   20.1552 N   0  0  0  0  0  0  0  0  0  0  0  0
  -36.5343  -24.7502   22.2655 N   0  0  0  0  0  0  0  0  0  0  0  0
  -29.9705  -13.6123   20.3584 N   0  0  0  0  0  0  0  0  0  0  0  0
  -25.4670  -15.0560   20.4060 N   0  0  0  0  0  0  0  0  0  0  0  0
  -21.8863  -12.5779   21.6034 N   0  0  0  0  0  0  0  0  0  0  0  0
  -39.0640  -25.4970   24.6682 N   0  0  0  0  0  0  0  0  0  0  0  0
  -35.8685  -25.0273   18.9582 N   0  0  0  0  0  0  0  0  0  0  0  0
  -30.1426  -15.6757   21.5014 N   0  0  0  0  0  0  0  0  0  0  0  0
  -30.7194  -19.7373   22.6222 N   0  3  2  0  0  0  0  0  0  0  0  0
  -34.0571  -22.2639   17.4918 N   0  3  0  0  0  0  0  0  0  0  0  0
  -22.6597  -14.7185   21.3234 O   0  0  0  0  0  0  0  0  0  0  0  0
  -36.8746  -26.2503   24.4209 O   0  0  0  0  0  0  0  0  0  0  0  0
  -38.1739  -25.1441   20.6553 O   0  0  0  0  0  0  0  0  0  0  0  0
  -33.6835  -24.3517   19.3406 O   0  0  0  0  0  0  0  0  0  0  0  0
  -31.8761  -14.9247   20.2021 O   0  0  0  0  0  0  0  0  0  0  0  0
  -21.6181   -7.0144   21.7085 O   0  0  0  0  0  0  0  0  0  0  0  0
  -31.6557  -23.3019   25.7561 O   0  0  0  0  0  0  0  0  0  1  0  0
  -18.6357   -6.8503   26.3434 F   0  0  0  0  0  0  0  0  0  0  0  0
  -22.0736   -5.0700   23.6201 F   0  0  0  0  0  0  0  0  0  0  0  0
  1  2  1  0  0  0  0
  1  5  2  0  0  0  0
  2  6  2  0  0  0  0
  3  8  2  0  0  0  0
  3 15  1  0  0  0  0
  4  9  1  0  0  0  0
  4 15  2  0  0  0  0
  5 17  1  0  0  0  0
  6 19  1  0  0  0  0
  7 10  2  0  0  0  0
  7 18  1  0  0  0  0
  8 21  1  0  0  0  0
  9 21  2  0  0  0  0
 10 22  1  0  0  0  0
 11 12  2  0  0  0  0
 11 23  1  0  0  0  0
 12 24  1  0  0  0  0
 13 20  1  0  0  0  0
 13 22  2  0  0  0  0
 14 24  2  0  0  0  0
 14 25  1  0  0  0  0
 15 26  1  0  0  0  0
 16 26  1  0  0  0  0
 16 27  2  0  0  0  0
 16 28  1  0  0  0  0
 17 19  2  0  0  0  0
 17 33  1  0  0  0  0
 18 20  2  0  0  0  0
 18 34  1  0  0  0  0
 19 46  1  0  0  0  0
 20 35  1  0  0  0  0
 21 83  1  0  0  0  0
 22 84  1  0  0  0  0
 23 25  2  0  0  0  0
 23 83  1  0  0  0  0
 24 85  1  0  0  0  0
 25 86  1  0  0  0  0
 26 67  2  0  0  0  0
 27 68  1  0  0  0  0
 27 71  1  0  0  0  0
 28 72  1  0  0  0  0
 28 78  2  0  0  0  0
 29 47  1  0  0  0  0
 29 73  1  0  0  0  0
 29 79  2  0  0  0  0
 30 64  1  0  0  0  0
 30 69  1  0  0  0  0
 30 80  2  0  0  0  0
 31 65  1  0  0  0  0
 31 74  1  0  0  0  0
 31 81  2  0  0  0  0
 32 70  1  0  0  0  0
 32 75  1  0  0  0  0
 32 82  2  0  0  0  0
 33 36  1  0  0  0  0
 34 47  1  0  0  0  0
 35 69  1  0  0  0  0
 36 38  1  0  0  0  0
 37 40  1  0  0  0  0
 37 43  1  0  0  0  0
 38 46  1  0  0  0  0
 39 41  1  0  0  0  0
 39 48  1  0  0  0  0
 40 50  1  0  0  0  0
 41 52  1  0  0  0  0
 42 51  1  0  0  0  0
 42 53  1  0  0  0  0
 43 70  1  0  0  0  0
 44 50  1  0  0  0  0
 44 70  1  0  0  0  0
 45 49  1  0  0  0  0
 45 76  1  0  0  0  0
 46 73  1  0  0  0  0
 47 69  1  0  0  0  0
 48 52  1  0  0  0  0
 48 62  1  0  0  0  0
 49 51  1  0  0  0  0
 49 61  1  0  0  0  0
 50 68  1  0  0  0  0
 51 75  1  0  0  0  0
 52 84  1  0  0  0  0
 53 54  1  0  0  0  0
 53 76  1  0  0  0  0
 55 63  1  0  0  0  0
 56 65  1  0  0  0  0
 57 66  1  0  0  0  0
 58 66  1  0  0  0  0
 59 66  1  0  0  0  0
 60 77  1  0  0  0  0
 61 63  1  0  0  0  0
 62 76  1  0  0  0  0
 64 66  1  0  0  0  0
 64 74  1  0  0  0  0
 65 77  1  0  0  0  0
 67 68  1  0  0  0  0
M  CHG  2  76   1  77   1
M  ISO  4  32 100  52 101  75 100  84 101
M  END
> <Batch ID>
0186

> <Smiles>
CCCC1CN(CC2CC[101CH:1]2[101O:1]c2ccc3c(c2)CN(C(=O)C(NC(=O)C(C)NC)C(C)(C)C)C(C(=O)NC2CCCc4ccccc42)C3)C(C)CC1[100NH:0][100C:0](=O)N1CCCC(n2nc(-c3ccc(Oc4ccc(F)cc4F)cc3)c(C(N)=O)c2N)C1

> <Shape>
0.174

> <Color>
0.184

> <Negative vol penalty>
0.000

$$$$

  -OEChem-04052323143D

 83 92  0     1  0  0  0  0  0999 V2000
  -29.6505  -23.2898   19.7201 C   0  0  0  0  0  0  0  0  0  0  0  0
  -28.3200  -23.6615   19.8841 C   0  0  0  0  0  0  0  0  0  0  0  0
  -26.9726  -13.0481   21.0616 C   0  0  0  0  0  0  0  0  0  0  0  0
  -26.6572  -13.5325   18.7157 C   0  0  0  0  0  0  0  0  0  0  0  0
  -30.6322  -23.8344   20.5468 C   0  0  0  0  0  0  0  0  0  0  0  0
  -27.9702  -24.5774   20.8757 C   0  0  0  0  0  0  0  0  0  0  0  0
  -24.7225  -28.0910   19.2169 C   0  0  0  0  0  0  0  0  0  0  0  0
  -26.2808  -11.8468   20.9066 C   0  0  0  0  0  0  0  0  0  0  0  0
  -25.9655  -12.3311   18.5607 C   0  0  0  0  0  0  0  0  0  0  0  0
  -23.3844  -27.7170   19.1006 C   0  0  0  0  0  0  0  0  0  0  0  0
  -23.0634  -10.8383   20.6710 C   0  0  0  0  0  0  0  0  0  0  0  0
  -22.1057  -10.5142   21.6318 C   0  0  0  0  0  0  0  0  0  0  0  0
  -22.9057  -28.7982   21.2033 C   0  0  0  0  0  0  0  0  0  0  0  0
  -23.3253   -8.4985   22.1675 C   0  0  0  0  0  0  0  0  0  0  0  0
  -20.7418  -22.7777   19.6466 C   0  0  0  0  0  0  0  0  0  0  0  0
  -27.1607  -13.8910   19.9662 C   0  0  0  0  0  0  0  0  0  0  0  0
  -29.2595  -15.3409   19.9825 C   0  0  0  0  0  0  0  0  0  0  0  0
  -30.2957  -24.7647   21.5427 C   0  0  0  0  0  0  0  0  0  0  0  0
  -25.1651  -28.8132   20.3345 C   0  0  0  0  0  0  0  0  0  0  0  0
  -28.9482  -25.1340   21.7174 C   0  0  0  0  0  0  0  0  0  0  0  0
  -24.2494  -29.1824   21.3301 C   0  0  0  0  0  0  0  0  0  0  0  0
  -25.7773  -11.4883   19.6562 C   0  0  0  0  0  0  0  0  0  0  0  0
  -22.4764  -28.0681   20.0953 C   0  0  0  0  0  0  0  0  0  0  0  0
  -24.1521   -9.9925   20.4583 C   0  0  0  0  0  0  0  0  0  0  0  0
  -22.2366   -9.3443   22.3801 C   0  0  0  0  0  0  0  0  0  0  0  0
  -24.2830   -8.8226   21.2065 C   0  0  0  0  0  0  0  0  0  0  0  0
  -27.8747  -15.1323   20.1258 C   0  0  0  0  0  0  0  0  0  0  0  0
  -21.5957  -23.7264   20.1646 C   0  0  0  0  0  0  0  0  0  0  0  0
  -18.9754  -24.1955   19.9615 C   0  0  0  0  0  0  0  0  0  0  0  0
  -19.8292  -25.1440   20.4802 C   0  0  0  0  0  0  0  0  0  0  0  0
  -29.4329  -16.6799   20.2347 C   0  0  0  0  0  0  0  0  0  0  0  0
  -30.2964  -14.4079   19.6509 C   0  0  0  0  0  0  0  0  0  0  0  0
  -27.2489  -28.2727   22.6731 C   0  0  0  0  0  0  0  0  0  0  0  0
  -26.5783  -31.3489   23.4539 C   0  0  0  0  0  0  0  0  0  0  0  0
  -24.3893  -33.9632   23.3105 C   0  0  0  0  0  0  0  0  0  0  0  0
  -25.6311  -21.2200   19.6695 C   0  0  0  0  0  0  0  0  0  0  0  0
  -31.3854  -25.2904   22.4432 C   0  0  0  0  0  0  0  0  0  0  0  0
  -26.6064  -29.2322   20.4320 C   0  0  0  0  0  0  0  0  0  0  0  0
  -24.6699  -29.9749   22.5399 C   0  0  0  0  0  0  0  0  0  0  0  0
  -30.9811  -26.5382   23.2241 C   0  0  0  0  0  0  0  0  0  0  0  0
  -27.5672  -20.3230   22.6631 C   0  0  0  0  0  0  0  0  0  0  0  0
  -29.6003  -26.3549   23.8458 C   0  0  0  0  0  0  0  0  0  0  0  0
  -27.9248  -18.8730   22.3564 C   0  0  0  0  0  0  0  0  0  0  0  0
  -26.2050  -20.7212   22.0946 C   0  0  0  0  0  0  0  0  0  0  0  0
  -23.6887  -22.2656   21.0417 C   0  0  0  0  0  0  0  0  0  0  0  0
  -23.9818  -23.0638   19.0946 C   0  0  0  0  0  0  0  0  0  0  0  0
  -26.4269  -18.9779   20.3355 C   0  0  0  0  0  0  0  0  0  0  0  0
  -28.5326  -26.1433   22.7655 C   0  0  1  0  0  0  0  0  0  0  0  0
  -23.1615  -23.5260   20.3167 C   0  0  0  0  0  0  0  0  0  0  0  0
  -27.0488  -29.5222   21.8629 C   0  0  1  0  0  0  0  0  0  0  0  0
  -27.8246  -18.6049   20.8478 C   0  0  2  0  0  0  0  0  0  0  0  0
  -17.5116  -24.4497   19.8419 C   0  0  0  0  0  0  0  0  0  0  0  0
  -24.1024  -36.3365   24.0739 C   0  0  0  0  0  0  0  0  0  0  0  0
  -25.9381  -30.3632   26.2697 C   0  0  0  0  0  0  0  0  0  0  0  0
  -24.7769  -32.5406   26.6927 C   0  0  0  0  0  0  0  0  0  0  0  0
  -27.2184  -32.5098   26.1818 C   0  0  0  0  0  0  0  0  0  0  0  0
  -24.2347  -34.9616   20.5287 C   0  0  0  0  0  0  0  0  0  0  0  0
  -19.3227  -26.4854   20.9518 C   0  0  0  0  0  0  0  0  0  0  0  0
  -20.4534  -27.4783   21.1979 C   0  0  0  0  0  0  0  0  0  1  0  0
  -25.5594  -32.0305   24.3351 C   0  0  1  0  0  0  0  0  0  0  0  0
  -24.5890  -35.4260   22.9572 C   0  0  2  0  0  0  0  0  0  0  0  0
  -25.8653  -31.8444   25.8481 C   0  0  0  0  0  0  0  0  0  0  0  0
  -19.4163  -22.9952   19.5357 N   0  0  0  0  0  0  0  0  0  0  0  0
  -27.2152  -16.2492   20.4445 N   0  0  0  0  0  0  0  0  0  0  0  0
  -21.1547  -24.9266   20.5907 N   0  0  0  0  0  0  0  0  0  0  0  0
  -28.1899  -17.1725   20.5037 N   0  0  0  0  0  0  0  0  0  0  0  0
  -26.0911  -30.3555   22.5927 N   0  0  0  0  0  0  0  0  0  0  0  0
  -26.0660  -20.3569   20.6808 N   0  0  0  0  0  0  0  0  0  0  0  0
  -24.7174  -22.1969   20.0108 N   0  0  0  0  0  0  0  0  0  0  0  0
  -30.5259  -17.4721   20.2506 N   0  0  0  0  0  0  0  0  0  0  0  0
  -29.9441  -13.0706   19.4229 N   0  0  0  0  0  0  0  0  0  0  0  0
  -28.1846  -27.4037   22.1452 N   0  0  0  0  0  0  0  0  0  0  0  0
  -25.5115  -33.4228   23.9020 N   0  0  0  0  0  0  0  0  0  0  0  0
  -23.8404  -35.7655   21.7141 N   0  3  0  0  0  0  0  0  0  0  0  0
  -31.5019  -14.7465   19.5756 O   0  0  0  0  0  0  0  0  0  0  0  0
  -26.6033  -28.1099   23.7019 O   0  0  0  0  0  0  0  0  0  0  0  0
  -27.7617  -31.6905   23.5220 O   0  0  0  0  0  0  0  0  0  0  0  0
  -23.3412  -33.3612   23.0876 O   0  0  0  0  0  0  0  0  0  0  0  0
  -26.0149  -21.1060   18.4984 O   0  0  0  0  0  0  0  0  0  0  0  0
  -25.1025  -10.3161   19.5045 O   0  0  0  0  0  0  0  0  0  0  0  0
  -21.1699  -27.7037   19.9846 O   0  0  0  0  0  0  0  0  0  1  0  0
  -21.3177   -9.0339   23.3039 F   0  0  0  0  0  0  0  0  0  0  0  0
  -25.3273   -8.0068   21.0075 F   0  0  0  0  0  0  0  0  0  0  0  0
  1  2  1  0  0  0  0
  1  5  2  0  0  0  0
  2  6  2  0  0  0  0
  3  8  2  0  0  0  0
  3 16  1  0  0  0  0
  4  9  1  0  0  0  0
  4 16  2  0  0  0  0
  5 18  1  0  0  0  0
  6 20  1  0  0  0  0
  7 10  2  0  0  0  0
  7 19  1  0  0  0  0
  8 22  1  0  0  0  0
  9 22  2  0  0  0  0
 10 23  1  0  0  0  0
 11 12  2  0  0  0  0
 11 24  1  0  0  0  0
 12 25  1  0  0  0  0
 13 21  1  0  0  0  0
 13 23  2  0  0  0  0
 14 25  2  0  0  0  0
 14 26  1  0  0  0  0
 15 28  1  0  0  0  0
 15 63  2  0  0  0  0
 16 27  1  0  0  0  0
 17 27  1  0  0  0  0
 17 31  2  0  0  0  0
 17 32  1  0  0  0  0
 18 20  2  0  0  0  0
 18 37  1  0  0  0  0
 19 21  2  0  0  0  0
 19 38  1  0  0  0  0
 20 48  1  0  0  0  0
 21 39  1  0  0  0  0
 22 80  1  0  0  0  0
 23 81  1  0  0  0  0
 24 26  2  0  0  0  0
 24 80  1  0  0  0  0
 25 82  1  0  0  0  0
 26 83  1  0  0  0  0
 27 64  2  0  0  0  0
 28 49  1  0  0  0  0
 28 65  2  0  0  0  0
 29 30  2  0  0  0  0
 29 52  1  0  0  0  0
 29 63  1  0  0  0  0
 30 58  1  0  0  0  0
 30 65  1  0  0  0  0
 31 66  1  0  0  0  0
 31 70  1  0  0  0  0
 32 71  1  0  0  0  0
 32 75  2  0  0  0  0
 33 50  1  0  0  0  0
 33 72  1  0  0  0  0
 33 76  2  0  0  0  0
 34 60  1  0  0  0  0
 34 67  1  0  0  0  0
 34 77  2  0  0  0  0
 35 61  1  0  0  0  0
 35 73  1  0  0  0  0
 35 78  2  0  0  0  0
 36 68  1  0  0  0  0
 36 69  1  0  0  0  0
 36 79  2  0  0  0  0
 37 40  1  0  0  0  0
 38 50  1  0  0  0  0
 39 67  1  0  0  0  0
 40 42  1  0  0  0  0
 41 43  1  0  0  0  0
 41 44  1  0  0  0  0
 42 48  1  0  0  0  0
 43 51  1  0  0  0  0
 44 68  1  0  0  0  0
 45 49  1  0  0  0  0
 45 69  1  0  0  0  0
 46 49  1  0  0  0  0
 46 69  1  0  0  0  0
 47 51  1  0  0  0  0
 47 68  1  0  0  0  0
 48 72  1  0  0  0  0
 50 67  1  0  0  0  0
 51 66  1  0  0  0  0
 53 61  1  0  0  0  0
 54 62  1  0  0  0  0
 55 62  1  0  0  0  0
 56 62  1  0  0  0  0
 57 74  1  0  0  0  0
 58 59  1  0  0  0  0
 59 81  1  0  0  0  0
 60 62  1  0  0  0  0
 60 73  1  0  0  0  0
 61 74  1  0  0  0  0
 64 66  1  0  0  0  0
M  CHG  1  74   1
M  ISO  4  36 100  59 101  69 100  81 101
M  END
> <Batch ID>
0186

> <Smiles>
CNC(C)C(=O)NC(C(=O)N1Cc2cc([101O:1][101CH2:1]Cc3nc(C4C[100N:0]([100C:0](=O)N5CCCC(n6nc(-c7ccc(Oc8ccc(F)cc8F)cc7)c(C(N)=O)c6N)C5)C4)cnc3C)ccc2CC1C(=O)NC1CCCc2ccccc21)C(C)(C)C

> <Shape>
0.267

> <Color>
0.075

> <Negative vol penalty>
0.000

$$$$

  -OEChem-04052323143D

 82 91  0     1  0  0  0  0  0999 V2000
  -31.2208  -34.4687   21.0054 C   0  0  0  0  0  0  0  0  0  0  0  0
  -30.9306  -33.1118   21.1048 C   0  0  0  0  0  0  0  0  0  0  0  0
  -24.2207  -12.5384   20.9966 C   0  0  0  0  0  0  0  0  0  0  0  0
  -26.6090  -12.7935   20.7356 C   0  0  0  0  0  0  0  0  0  0  0  0
  -30.3825  -35.4057   21.6081 C   0  0  0  0  0  0  0  0  0  0  0  0
  -29.8024  -32.6909   21.8080 C   0  0  0  0  0  0  0  0  0  0  0  0
  -27.1939  -29.1210   19.3389 C   0  0  0  0  0  0  0  0  0  0  0  0
  -24.3207  -11.2028   20.6071 C   0  0  0  0  0  0  0  0  0  0  0  0
  -26.7090  -11.4578   20.3462 C   0  0  0  0  0  0  0  0  0  0  0  0
  -27.6964  -27.8212   19.3815 C   0  0  0  0  0  0  0  0  0  0  0  0
  -25.2403   -8.2634   22.0026 C   0  0  0  0  0  0  0  0  0  0  0  0
  -24.5413   -7.3160   22.7504 C   0  0  0  0  0  0  0  0  0  0  0  0
  -26.1040  -27.2686   21.1072 C   0  0  0  0  0  0  0  0  0  0  0  0
  -23.2967   -6.6789   20.7801 C   0  0  0  0  0  0  0  0  0  0  0  0
  -29.8092  -23.4873   20.7127 C   0  0  0  0  0  0  0  0  0  0  0  0
  -25.3648  -13.3338   21.0608 C   0  0  0  0  0  0  0  0  0  0  0  0
  -25.3503  -15.2273   22.7702 C   0  0  0  0  0  0  0  0  0  0  0  0
  -29.2381  -34.9967   22.3108 C   0  0  0  0  0  0  0  0  0  0  0  0
  -26.1482  -29.5081   20.1893 C   0  0  0  0  0  0  0  0  0  0  0  0
  -28.9487  -33.6232   22.4218 C   0  0  0  0  0  0  0  0  0  0  0  0
  -25.5883  -28.5731   21.0717 C   0  0  0  0  0  0  0  0  0  0  0  0
  -25.5649  -10.6625   20.2819 C   0  0  0  0  0  0  0  0  0  0  0  0
  -27.1534  -26.8956   20.2677 C   0  0  0  0  0  0  0  0  0  0  0  0
  -24.9675   -8.4186   20.6434 C   0  0  0  0  0  0  0  0  0  0  0  0
  -23.5695   -6.5237   22.1392 C   0  0  0  0  0  0  0  0  0  0  0  0
  -23.9958   -7.6264   20.0322 C   0  0  0  0  0  0  0  0  0  0  0  0
  -25.2620  -14.7137   21.4624 C   0  0  0  0  0  0  0  0  0  0  0  0
  -30.1118  -22.1434   20.7951 C   0  0  0  0  0  0  0  0  0  0  0  0
  -29.0889  -23.8699   19.5997 C   0  0  0  0  0  0  0  0  0  0  0  0
  -25.1897  -16.5829   22.6183 C   0  0  0  0  0  0  0  0  0  0  0  0
  -29.0460  -21.7315   18.8300 C   0  0  0  0  0  0  0  0  0  0  0  0
  -25.5588  -14.5403   24.0113 C   0  0  0  0  0  0  0  0  0  0  0  0
  -25.8218  -31.6566   22.5090 C   0  0  0  0  0  0  0  0  0  0  0  0
  -22.7182  -30.7183   22.4093 C   0  0  0  0  0  0  0  0  0  0  0  0
  -20.4469  -28.3001   21.6093 C   0  0  0  0  0  0  0  0  0  0  0  0
  -26.1628  -20.3270   18.0580 C   0  0  0  0  0  0  0  0  0  0  0  0
  -28.3878  -36.0437   22.9857 C   0  0  0  0  0  0  0  0  0  0  0  0
  -25.5995  -30.9064   20.1124 C   0  0  0  0  0  0  0  0  0  0  0  0
  -24.4510  -28.9328   21.9913 C   0  0  0  0  0  0  0  0  0  0  0  0
  -27.0074  -35.5362   23.3948 C   0  0  0  0  0  0  0  0  0  0  0  0
  -23.0953  -19.8096   19.7711 C   0  0  0  0  0  0  0  0  0  0  0  0
  -27.1207  -34.1842   24.0920 C   0  0  0  0  0  0  0  0  0  0  0  0
  -30.3175  -20.5343   22.8056 C   0  0  0  0  0  0  0  0  0  0  0  0
  -30.3754  -21.9248   23.3565 C   0  0  0  0  0  0  0  0  0  0  0  0
  -23.3105  -18.4940   20.5213 C   0  0  0  0  0  0  0  0  0  0  0  0
  -23.7700  -19.7948   18.4012 C   0  0  0  0  0  0  0  0  0  0  0  0
  -25.4169  -18.1316   19.1677 C   0  0  0  0  0  0  0  0  0  0  0  0
  -27.7207  -33.1289   23.1551 C   0  0  1  0  0  0  0  0  0  0  0  0
  -30.8888  -21.6479   21.9680 C   0  0  0  0  0  0  0  0  0  0  0  0
  -24.8770  -31.3357   21.3856 C   0  0  1  0  0  0  0  0  0  0  0  0
  -24.8036  -18.1181   20.5785 C   0  0  2  0  0  0  0  0  0  0  0  0
  -17.9873  -27.8074   21.6785 C   0  0  0  0  0  0  0  0  0  0  0  0
  -22.9090  -30.1995   25.4101 C   0  0  0  0  0  0  0  0  0  0  0  0
  -20.8069  -28.8503   25.2399 C   0  0  0  0  0  0  0  0  0  0  0  0
  -20.7775  -31.2791   24.6715 C   0  0  0  0  0  0  0  0  0  0  0  0
  -20.3010  -28.0265   18.6660 C   0  0  0  0  0  0  0  0  0  0  0  0
  -28.7126  -25.3115   19.4219 C   0  0  0  0  0  0  0  0  0  1  0  0
  -28.6223  -20.7565   17.7845 C   0  0  0  0  0  0  0  0  0  0  0  0
  -21.9014  -29.6512   23.0971 C   0  0  1  0  0  0  0  0  0  0  0  0
  -19.1345  -28.3628   20.8489 C   0  0  2  0  0  0  0  0  0  0  0  0
  -21.6214  -29.9885   24.5888 C   0  0  0  0  0  0  0  0  0  0  0  0
  -25.0609  -15.6655   20.5472 N   0  0  0  0  0  0  0  0  0  0  0  0
  -29.7446  -21.2342   19.8683 N   0  0  0  0  0  0  0  0  0  0  0  0
  -28.6895  -23.0154   18.6350 N   0  0  0  0  0  0  0  0  0  0  0  0
  -25.0213  -16.7907   21.2810 N   0  0  0  0  0  0  0  0  0  0  0  0
  -23.9534  -30.3141   21.8831 N   0  0  0  0  0  0  0  0  0  0  0  0
  -25.1849  -19.4367   18.5290 N   0  0  0  0  0  0  0  0  0  0  0  0
  -25.1776  -17.6054   23.4997 N   0  0  0  0  0  0  0  0  0  0  0  0
  -25.7042  -13.1466   23.9873 N   0  0  0  0  0  0  0  0  0  0  0  0
  -26.7237  -32.6616   22.2158 N   0  0  0  0  0  0  0  0  0  0  0  0
  -20.6998  -29.4727   22.2891 N   0  0  0  0  0  0  0  0  0  0  0  0
  -27.4837  -19.9229   18.2218 N   0  0  0  0  0  0  0  0  0  0  0  0
  -19.2281  -27.5735   19.5883 N   0  3  0  0  0  0  0  0  0  0  0  0
  -25.5980  -15.1428   25.1109 O   0  0  0  0  0  0  0  0  0  0  0  0
  -25.7377  -31.0392   23.5642 O   0  0  0  0  0  0  0  0  0  0  0  0
  -22.2735  -31.8665   22.3353 O   0  0  0  0  0  0  0  0  0  0  0  0
  -21.1731  -27.3085   21.6040 O   0  0  0  0  0  0  0  0  0  0  0  0
  -25.8859  -21.4116   17.5342 O   0  0  0  0  0  0  0  0  0  0  0  0
  -25.6629   -9.3591   19.9021 O   0  0  0  0  0  0  0  0  0  0  0  0
  -27.6424  -25.6264   20.3117 O   0  0  0  0  0  0  0  0  0  1  0  0
  -22.8994   -5.6129   22.8572 F   0  0  0  0  0  0  0  0  0  0  0  0
  -23.7301   -7.7701   18.7266 F   0  0  0  0  0  0  0  0  0  0  0  0
  1  2  1  0  0  0  0
  1  5  2  0  0  0  0
  2  6  2  0  0  0  0
  3  8  2  0  0  0  0
  3 16  1  0  0  0  0
  4  9  1  0  0  0  0
  4 16  2  0  0  0  0
  5 18  1  0  0  0  0
  6 20  1  0  0  0  0
  7 10  2  0  0  0  0
  7 19  1  0  0  0  0
  8 22  1  0  0  0  0
  9 22  2  0  0  0  0
 10 23  1  0  0  0  0
 11 12  2  0  0  0  0
 11 24  1  0  0  0  0
 12 25  1  0  0  0  0
 13 21  1  0  0  0  0
 13 23  2  0  0  0  0
 14 25  2  0  0  0  0
 14 26  1  0  0  0  0
 15 28  2  0  0  0  0
 15 29  1  0  0  0  0
 16 27  1  0  0  0  0
 17 27  1  0  0  0  0
 17 30  2  0  0  0  0
 17 32  1  0  0  0  0
 18 20  2  0  0  0  0
 18 37  1  0  0  0  0
 19 21  2  0  0  0  0
 19 38  1  0  0  0  0
 20 48  1  0  0  0  0
 21 39  1  0  0  0  0
 22 79  1  0  0  0  0
 23 80  1  0  0  0  0
 24 26  2  0  0  0  0
 24 79  1  0  0  0  0
 25 81  1  0  0  0  0
 26 82  1  0  0  0  0
 27 62  2  0  0  0  0
 28 49  1  0  0  0  0
 28 63  1  0  0  0  0
 29 57  1  0  0  0  0
 29 64  2  0  0  0  0
 30 65  1  0  0  0  0
 30 68  1  0  0  0  0
 31 58  1  0  0  0  0
 31 63  2  0  0  0  0
 31 64  1  0  0  0  0
 32 69  1  0  0  0  0
 32 74  2  0  0  0  0
 33 50  1  0  0  0  0
 33 70  1  0  0  0  0
 33 75  2  0  0  0  0
 34 59  1  0  0  0  0
 34 66  1  0  0  0  0
 34 76  2  0  0  0  0
 35 60  1  0  0  0  0
 35 71  1  0  0  0  0
 35 77  2  0  0  0  0
 36 67  1  0  0  0  0
 36 72  1  0  0  0  0
 36 78  2  0  0  0  0
 37 40  1  0  0  0  0
 38 50  1  0  0  0  0
 39 66  1  0  0  0  0
 40 42  1  0  0  0  0
 41 45  1  0  0  0  0
 41 46  1  0  0  0  0
 42 48  1  0  0  0  0
 43 44  1  0  0  0  0
 43 49  1  0  0  0  0
 44 49  1  0  0  0  0
 45 51  1  0  0  0  0
 46 67  1  0  0  0  0
 47 51  1  0  0  0  0
 47 67  1  0  0  0  0
 48 70  1  0  0  0  0
 50 66  1  0  0  0  0
 51 65  1  0  0  0  0
 52 60  1  0  0  0  0
 53 61  1  0  0  0  0
 54 61  1  0  0  0  0
 55 61  1  0  0  0  0
 56 73  1  0  0  0  0
 57 80  1  0  0  0  0
 58 72  1  0  0  0  0
 59 61  1  0  0  0  0
 59 71  1  0  0  0  0
 60 73  1  0  0  0  0
 62 65  1  0  0  0  0
M  CHG  1  73   1
M  ISO  4  36 100  57 101  72 100  80 101
M  END
> <Batch ID>
0186

> <Smiles>
CNC(C)C(=O)NC(C(=O)N1Cc2cc([101O:1][101CH2:1]c3cc(C4CC4)nc(C[100NH:0][100C:0](=O)N4CCCC(n5nc(-c6ccc(Oc7ccc(F)cc7F)cc6)c(C(N)=O)c5N)C4)n3)ccc2CC1C(=O)NC1CCCc2ccccc21)C(C)(C)C

> <Shape>
0.224

> <Color>
0.097

> <Negative vol penalty>
0.000

$$$$

  -OEChem-04052323143D

 82 91  0     1  0  0  0  0  0999 V2000
  -24.6224  -32.5415   23.7608 C   0  0  0  0  0  0  0  0  0  0  0  0
  -24.2997  -31.3534   24.4086 C   0  0  0  0  0  0  0  0  0  0  0  0
  -34.3920  -16.8253   19.2029 C   0  0  0  0  0  0  0  0  0  0  0  0
  -32.5660  -18.2299   18.4748 C   0  0  0  0  0  0  0  0  0  0  0  0
  -24.8381  -32.5468   22.3833 C   0  0  0  0  0  0  0  0  0  0  0  0
  -24.1914  -30.1700   23.6791 C   0  0  0  0  0  0  0  0  0  0  0  0
  -25.2923  -23.1175   24.2853 C   0  0  0  0  0  0  0  0  0  0  0  0
  -35.2695  -17.5461   18.3930 C   0  0  0  0  0  0  0  0  0  0  0  0
  -33.4435  -18.9507   17.6649 C   0  0  0  0  0  0  0  0  0  0  0  0
  -24.6315  -21.9043   24.0980 C   0  0  0  0  0  0  0  0  0  0  0  0
  -34.9411  -18.5696   14.6578 C   0  0  0  0  0  0  0  0  0  0  0  0
  -34.5306  -18.8619   13.3571 C   0  0  0  0  0  0  0  0  0  0  0  0
  -25.1037  -22.0189   21.7351 C   0  0  0  0  0  0  0  0  0  0  0  0
  -21.7001  -16.0143   21.2791 C   0  0  0  0  0  0  0  0  0  0  0  0
  -21.7439  -18.3744   21.7402 C   0  0  0  0  0  0  0  0  0  0  0  0
  -34.7243  -21.2239   13.8269 C   0  0  0  0  0  0  0  0  0  0  0  0
  -33.0402  -17.1671   19.2438 C   0  0  0  0  0  0  0  0  0  0  0  0
  -31.8020  -16.6881   21.4221 C   0  0  0  0  0  0  0  0  0  0  0  0
  -24.7419  -31.3610   21.6381 C   0  0  0  0  0  0  0  0  0  0  0  0
  -25.8552  -23.7971   23.1955 C   0  0  0  0  0  0  0  0  0  0  0  0
  -24.4047  -30.1596   22.2902 C   0  0  0  0  0  0  0  0  0  0  0  0
  -25.7733  -23.2394   21.9117 C   0  0  0  0  0  0  0  0  0  0  0  0
  -21.0590  -17.1644   21.7259 C   0  0  0  0  0  0  0  0  0  0  0  0
  -34.7953  -18.6088   17.6240 C   0  0  0  0  0  0  0  0  0  0  0  0
  -24.5346  -21.3562   22.8223 C   0  0  0  0  0  0  0  0  0  0  0  0
  -35.2431  -19.6044   15.5430 C   0  0  0  0  0  0  0  0  0  0  0  0
  -34.4222  -20.1891   12.9417 C   0  0  0  0  0  0  0  0  0  0  0  0
  -35.1347  -20.9316   15.1276 C   0  0  0  0  0  0  0  0  0  0  0  0
  -32.1332  -16.4226   20.0799 C   0  0  0  0  0  0  0  0  0  0  0  0
  -23.0161  -16.1264   20.8605 C   0  0  0  0  0  0  0  0  0  0  0  0
  -23.0580  -18.3808   21.3011 C   0  0  0  0  0  0  0  0  0  0  0  0
  -30.9078  -15.7007   21.7569 C   0  0  0  0  0  0  0  0  0  0  0  0
  -32.2614  -17.7338   22.2888 C   0  0  0  0  0  0  0  0  0  0  0  0
  -25.3765  -26.6251   21.8254 C   0  0  0  0  0  0  0  0  0  0  0  0
  -27.9626  -25.7725   20.0627 C   0  0  0  0  0  0  0  0  0  0  0  0
  -29.9266  -23.2725   18.8219 C   0  0  0  0  0  0  0  0  0  0  0  0
  -26.3545  -12.6652   20.3745 C   0  0  0  0  0  0  0  0  0  0  0  0
  -24.9374  -31.4248   20.1439 C   0  0  0  0  0  0  0  0  0  0  0  0
  -26.5879  -25.0917   23.4183 C   0  0  0  0  0  0  0  0  0  0  0  0
  -26.3784  -23.9192   20.7116 C   0  0  0  0  0  0  0  0  0  0  0  0
  -25.1713  -30.0600   19.5014 C   0  0  0  0  0  0  0  0  0  0  0  0
  -29.5912  -11.4735   19.3564 C   0  0  0  0  0  0  0  0  0  0  0  0
  -24.1598  -29.0442   20.0227 C   0  0  0  0  0  0  0  0  0  0  0  0
  -30.5045  -12.6853   19.5089 C   0  0  0  0  0  0  0  0  0  0  0  0
  -28.1944  -11.8963   18.9214 C   0  0  0  0  0  0  0  0  0  0  0  0
  -25.3760  -15.0756   20.0710 C   0  0  0  0  0  0  0  0  0  0  0  0
  -24.2594  -13.7764   21.3194 C   0  0  0  0  0  0  0  0  0  0  0  0
  -28.4512  -14.0881   20.0544 C   0  0  0  0  0  0  0  0  0  0  0  0
  -24.3024  -28.8509   21.5372 C   0  0  1  0  0  0  0  0  0  0  0  0
  -23.8605  -14.8945   20.3290 C   0  0  0  0  0  0  0  0  0  0  0  0
  -26.6770  -25.9518   22.1614 C   0  0  1  0  0  0  0  0  0  0  0  0
  -29.8849  -13.7067   20.4734 C   0  0  2  0  0  0  0  0  0  0  0  0
  -19.6430  -17.1002   22.1876 C   0  0  0  0  0  0  0  0  0  0  0  0
  -31.9455  -22.8836   17.3831 C   0  0  0  0  0  0  0  0  0  0  0  0
  -26.2910  -26.3276   17.5712 C   0  0  0  0  0  0  0  0  0  0  0  0
  -27.9786  -25.0456   16.2383 C   0  0  0  0  0  0  0  0  0  0  0  0
  -28.6578  -27.1244   17.4383 C   0  0  0  0  0  0  0  0  0  0  0  0
  -31.4068  -21.9940   21.0429 C   0  0  0  0  0  0  0  0  0  0  0  0
  -23.8279  -19.6687   21.3028 C   0  0  0  0  0  0  0  0  0  1  0  0
  -28.1747  -25.0281   18.7666 C   0  0  1  0  0  0  0  0  0  0  0  0
  -31.4338  -23.0924   18.7999 C   0  0  2  0  0  0  0  0  0  0  0  0
  -27.7623  -25.8693   17.5257 C   0  0  0  0  0  0  0  0  0  0  0  0
  -31.5011  -15.3504   19.5952 N   0  0  0  0  0  0  0  0  0  0  0  0
  -23.7141  -17.2842   20.8600 N   0  0  0  0  0  0  0  0  0  0  0  0
  -30.7637  -14.9335   20.6386 N   0  0  0  0  0  0  0  0  0  0  0  0
  -27.0791  -25.1860   20.9798 N   0  0  0  0  0  0  0  0  0  0  0  0
  -27.6172  -12.9012   19.8194 N   0  0  0  0  0  0  0  0  0  0  0  0
  -25.5447  -13.7460   20.6322 N   0  0  0  0  0  0  0  0  0  0  0  0
  -30.2388  -15.4226   22.8960 N   0  0  0  0  0  0  0  0  0  0  0  0
  -33.1797  -18.6647   21.7841 N   0  0  0  0  0  0  0  0  0  0  0  0
  -25.4389  -28.0055   21.8340 N   0  0  0  0  0  0  0  0  0  0  0  0
  -29.5704  -24.6033   18.7635 N   0  0  0  0  0  0  0  0  0  0  0  0
  -31.8264  -21.9118   19.6202 N   0  3  0  0  0  0  0  0  0  0  0  0
  -31.8818  -17.8300   23.4805 O   0  0  0  0  0  0  0  0  0  0  0  0
  -24.3898  -25.9428   21.5754 O   0  0  0  0  0  0  0  0  0  0  0  0
  -28.5643  -26.8316   20.2572 O   0  0  0  0  0  0  0  0  0  0  0  0
  -29.1436  -22.3271   18.8809 O   0  0  0  0  0  0  0  0  0  0  0  0
  -25.9471  -11.5193   20.6071 O   0  0  0  0  0  0  0  0  0  0  0  0
  -35.6513  -19.3126   16.8337 O   0  0  0  0  0  0  0  0  0  0  0  0
  -23.8896  -20.1724   22.6365 O   0  0  0  0  0  0  0  0  0  1  0  0
  -34.0295  -20.4696   11.6922 F   0  0  0  0  0  0  0  0  0  0  0  0
  -35.4246  -21.9300   15.9731 F   0  0  0  0  0  0  0  0  0  0  0  0
  1  2  1  0  0  0  0
  1  5  2  0  0  0  0
  2  6  2  0  0  0  0
  3  8  2  0  0  0  0
  3 17  1  0  0  0  0
  4  9  1  0  0  0  0
  4 17  2  0  0  0  0
  5 19  1  0  0  0  0
  6 21  1  0  0  0  0
  7 10  2  0  0  0  0
  7 20  1  0  0  0  0
  8 24  1  0  0  0  0
  9 24  2  0  0  0  0
 10 25  1  0  0  0  0
 11 12  2  0  0  0  0
 11 26  1  0  0  0  0
 12 27  1  0  0  0  0
 13 22  1  0  0  0  0
 13 25  2  0  0  0  0
 14 23  1  0  0  0  0
 14 30  2  0  0  0  0
 15 23  2  0  0  0  0
 15 31  1  0  0  0  0
 16 27  2  0  0  0  0
 16 28  1  0  0  0  0
 17 29  1  0  0  0  0
 18 29  1  0  0  0  0
 18 32  2  0  0  0  0
 18 33  1  0  0  0  0
 19 21  2  0  0  0  0
 19 38  1  0  0  0  0
 20 22  2  0  0  0  0
 20 39  1  0  0  0  0
 21 49  1  0  0  0  0
 22 40  1  0  0  0  0
 23 53  1  0  0  0  0
 24 79  1  0  0  0  0
 25 80  1  0  0  0  0
 26 28  2  0  0  0  0
 26 79  1  0  0  0  0
 27 81  1  0  0  0  0
 28 82  1  0  0  0  0
 29 63  2  0  0  0  0
 30 50  1  0  0  0  0
 30 64  1  0  0  0  0
 31 59  1  0  0  0  0
 31 64  2  0  0  0  0
 32 65  1  0  0  0  0
 32 69  1  0  0  0  0
 33 70  1  0  0  0  0
 33 74  2  0  0  0  0
 34 51  1  0  0  0  0
 34 71  1  0  0  0  0
 34 75  2  0  0  0  0
 35 60  1  0  0  0  0
 35 66  1  0  0  0  0
 35 76  2  0  0  0  0
 36 61  1  0  0  0  0
 36 72  1  0  0  0  0
 36 77  2  0  0  0  0
 37 67  1  0  0  0  0
 37 68  1  0  0  0  0
 37 78  2  0  0  0  0
 38 41  1  0  0  0  0
 39 51  1  0  0  0  0
 40 66  1  0  0  0  0
 41 43  1  0  0  0  0
 42 44  1  0  0  0  0
 42 45  1  0  0  0  0
 43 49  1  0  0  0  0
 44 52  1  0  0  0  0
 45 67  1  0  0  0  0
 46 50  1  0  0  0  0
 46 68  1  0  0  0  0
 47 50  1  0  0  0  0
 47 68  1  0  0  0  0
 48 52  1  0  0  0  0
 48 67  1  0  0  0  0
 49 71  1  0  0  0  0
 51 66  1  0  0  0  0
 52 65  1  0  0  0  0
 54 61  1  0  0  0  0
 55 62  1  0  0  0  0
 56 62  1  0  0  0  0
 57 62  1  0  0  0  0
 58 73  1  0  0  0  0
 59 80  1  0  0  0  0
 60 62  1  0  0  0  0
 60 72  1  0  0  0  0
 61 73  1  0  0  0  0
 63 65  1  0  0  0  0
M  CHG  1  73   1
M  ISO  4  37 100  59 101  68 100  80 101
M  END
> <Batch ID>
0186

> <Smiles>
CNC(C)C(=O)NC(C(=O)N1Cc2cc([101O:1][101CH2:1]c3cc(C)cc(C4C[100N:0]([100C:0](=O)N5CCCC(n6nc(-c7ccc(Oc8ccc(F)cc8F)cc7)c(C(N)=O)c6N)C5)C4)n3)ccc2CC1C(=O)NC1CCCc2ccccc21)C(C)(C)C

> <Shape>
0.187

> <Color>
0.100

> <Negative vol penalty>
0.000

$$$$

  -OEChem-04052323143D

 82 90  0     1  0  0  0  0  0999 V2000
  -27.0538  -27.5055   16.6233 C   0  0  0  0  0  0  0  0  0  0  0  0
  -26.9419  -26.2322   17.1726 C   0  0  0  0  0  0  0  0  0  0  0  0
  -31.0626  -20.8965   19.5696 C   0  0  0  0  0  0  0  0  0  0  0  0
  -28.6836  -20.6857   19.9340 C   0  0  0  0  0  0  0  0  0  0  0  0
  -26.8274  -28.6286   17.4179 C   0  0  0  0  0  0  0  0  0  0  0  0
  -26.6046  -26.0813   18.5171 C   0  0  0  0  0  0  0  0  0  0  0  0
  -23.1006  -22.4996   19.2510 C   0  0  0  0  0  0  0  0  0  0  0  0
  -30.8504  -22.0858   18.8723 C   0  0  0  0  0  0  0  0  0  0  0  0
  -28.4714  -21.8750   19.2367 C   0  0  0  0  0  0  0  0  0  0  0  0
  -23.5290  -21.1733   19.2171 C   0  0  0  0  0  0  0  0  0  0  0  0
  -30.9662  -25.3649   17.3073 C   0  0  0  0  0  0  0  0  0  0  0  0
  -31.8026  -26.4434   17.5950 C   0  0  0  0  0  0  0  0  0  0  0  0
  -23.5510  -21.1250   21.6288 C   0  0  0  0  0  0  0  0  0  0  0  0
  -31.0602  -26.4059   19.8938 C   0  0  0  0  0  0  0  0  0  0  0  0
  -24.0154  -12.4478   20.8459 C   0  0  0  0  0  0  0  0  0  0  0  0
  -29.9792  -20.1964   20.1004 C   0  0  0  0  0  0  0  0  0  0  0  0
  -30.4222  -18.8203   22.2022 C   0  0  0  0  0  0  0  0  0  0  0  0
  -26.4778  -28.4911   18.7705 C   0  0  0  0  0  0  0  0  0  0  0  0
  -22.9044  -23.1531   20.4761 C   0  0  0  0  0  0  0  0  0  0  0  0
  -26.3747  -27.2036   19.3309 C   0  0  0  0  0  0  0  0  0  0  0  0
  -23.1176  -22.4589   21.6756 C   0  0  0  0  0  0  0  0  0  0  0  0
  -29.5548  -22.5750   18.7059 C   0  0  0  0  0  0  0  0  0  0  0  0
  -23.7571  -20.4867   20.4060 C   0  0  0  0  0  0  0  0  0  0  0  0
  -30.1767  -24.8069   18.3128 C   0  0  0  0  0  0  0  0  0  0  0  0
  -31.8496  -26.9639   18.8883 C   0  0  0  0  0  0  0  0  0  0  0  0
  -30.2237  -25.3274   19.6060 C   0  0  0  0  0  0  0  0  0  0  0  0
  -30.1977  -18.9676   20.8203 C   0  0  0  0  0  0  0  0  0  0  0  0
  -25.0042  -13.1144   20.1516 C   0  0  0  0  0  0  0  0  0  0  0  0
  -22.9340  -13.2148   21.2288 C   0  0  0  0  0  0  0  0  0  0  0  0
  -30.5691  -17.4668   22.3839 C   0  0  0  0  0  0  0  0  0  0  0  0
  -23.8462  -15.0664   20.2768 C   0  0  0  0  0  0  0  0  0  0  0  0
  -30.4916  -19.8178   23.2298 C   0  0  0  0  0  0  0  0  0  0  0  0
  -24.1921  -25.6875   21.8981 C   0  0  0  0  0  0  0  0  0  0  0  0
  -21.8746  -25.1420   24.1012 C   0  0  0  0  0  0  0  0  0  0  0  0
  -19.7255  -22.9269   25.5579 C   0  0  0  0  0  0  0  0  0  0  0  0
  -28.6407  -12.7067   19.3060 C   0  0  0  0  0  0  0  0  0  0  0  0
  -26.2891  -29.7355   19.6016 C   0  0  0  0  0  0  0  0  0  0  0  0
  -22.4163  -24.5757   20.4958 C   0  0  0  0  0  0  0  0  0  0  0  0
  -22.9021  -23.1087   23.0171 C   0  0  0  0  0  0  0  0  0  0  0  0
  -25.5691  -29.4817   20.9235 C   0  0  0  0  0  0  0  0  0  0  0  0
  -32.0148  -13.5177   20.1024 C   0  0  0  0  0  0  0  0  0  0  0  0
  -26.1594  -28.2641   21.6276 C   0  0  0  0  0  0  0  0  0  0  0  0
  -31.9520  -14.9931   20.5013 C   0  0  0  0  0  0  0  0  0  0  0  0
  -31.0448  -13.1983   18.9670 C   0  0  0  0  0  0  0  0  0  0  0  0
  -29.5846  -15.0753   19.6138 C   0  0  0  0  0  0  0  0  0  0  0  0
  -25.9866  -26.9985   20.7792 C   0  0  1  0  0  0  0  0  0  0  0  0
  -22.7435  -25.3017   21.7971 C   0  0  1  0  0  0  0  0  0  0  0  0
  -30.5050  -15.4340   20.7931 C   0  0  2  0  0  0  0  0  0  0  0  0
  -17.9836  -22.7650   27.3570 C   0  0  0  0  0  0  0  0  0  0  0  0
  -24.0692  -25.1197   26.2209 C   0  0  0  0  0  0  0  0  0  0  0  0
  -22.4469  -24.0353   27.7894 C   0  0  0  0  0  0  0  0  0  0  0  0
  -21.9796  -26.3167   26.8954 C   0  0  0  0  0  0  0  0  0  0  0  0
  -17.6220  -22.1788   23.6151 C   0  0  0  0  0  0  0  0  0  0  0  0
  -26.2131  -12.3686   19.6954 C   0  0  0  0  0  0  0  0  0  0  0  0
  -24.7741  -17.1468   19.2585 C   0  0  0  0  0  0  0  0  0  0  0  0
  -24.3614  -18.5996   19.0910 C   0  0  0  0  0  0  0  0  0  1  0  0
  -21.7704  -24.3177   25.3617 C   0  0  1  0  0  0  0  0  0  0  0  0
  -18.2455  -23.0236   25.8814 C   0  0  2  0  0  0  0  0  0  0  0  0
  -22.5725  -24.9354   26.5417 C   0  0  0  0  0  0  0  0  0  0  0  0
  -30.2010  -17.8008   20.1701 N   0  0  0  0  0  0  0  0  0  0  0  0
  -24.9520  -14.4281   19.8487 N   0  0  0  0  0  0  0  0  0  0  0  0
  -22.8163  -14.5317   20.9601 N   0  0  0  0  0  0  0  0  0  0  0  0
  -30.4294  -16.9075   21.1478 N   0  0  0  0  0  0  0  0  0  0  0  0
  -22.4306  -24.5030   22.9839 N   0  0  0  0  0  0  0  0  0  0  0  0
  -29.6903  -13.6401   19.3075 N   0  0  0  0  0  0  0  0  0  0  0  0
  -21.8964  -12.5682   21.9440 N   0  0  0  0  0  0  0  0  0  0  0  0
  -30.8029  -16.7125   23.4787 N   0  0  0  0  0  0  0  0  0  0  0  0
  -30.3181  -21.1611   22.8698 N   0  0  0  0  0  0  0  0  0  0  0  0
  -23.7588  -16.4171   19.9830 N   0  0  0  0  0  0  0  0  0  0  0  0
  -24.6286  -26.5073   20.8750 N   0  0  0  0  0  0  0  0  0  0  0  0
  -20.3450  -24.1568   25.6276 N   0  0  0  0  0  0  0  0  0  0  0  0
  -27.3900  -13.2072   19.6465 N   0  0  0  0  0  0  0  0  0  0  0  0
  -17.4751  -22.0266   25.0855 N   0  3  0  0  0  0  0  0  0  0  0  0
  -30.7176  -19.5279   24.4291 O   0  0  0  0  0  0  0  0  0  0  0  0
  -24.8637  -25.2734   22.8358 O   0  0  0  0  0  0  0  0  0  0  0  0
  -21.4707  -26.3076   24.1058 O   0  0  0  0  0  0  0  0  0  0  0  0
  -20.2777  -21.8658   25.2755 O   0  0  0  0  0  0  0  0  0  0  0  0
  -28.8069  -11.5143   19.0275 O   0  0  0  0  0  0  0  0  0  0  0  0
  -29.3475  -23.7356   18.0257 O   0  0  0  0  0  0  0  0  0  0  0  0
  -24.1759  -19.1923   20.3758 O   0  0  0  0  0  0  0  0  0  1  0  0
  -32.6540  -27.9986   19.1648 F   0  0  0  0  0  0  0  0  0  0  0  0
  -29.4685  -24.7947   20.5765 F   0  0  0  0  0  0  0  0  0  0  0  0
  1  2  1  0  0  0  0
  1  5  2  0  0  0  0
  2  6  2  0  0  0  0
  3  8  2  0  0  0  0
  3 16  1  0  0  0  0
  4  9  1  0  0  0  0
  4 16  2  0  0  0  0
  5 18  1  0  0  0  0
  6 20  1  0  0  0  0
  7 10  2  0  0  0  0
  7 19  1  0  0  0  0
  8 22  1  0  0  0  0
  9 22  2  0  0  0  0
 10 23  1  0  0  0  0
 11 12  2  0  0  0  0
 11 24  1  0  0  0  0
 12 25  1  0  0  0  0
 13 21  1  0  0  0  0
 13 23  2  0  0  0  0
 14 25  2  0  0  0  0
 14 26  1  0  0  0  0
 15 28  2  0  0  0  0
 15 29  1  0  0  0  0
 16 27  1  0  0  0  0
 17 27  1  0  0  0  0
 17 30  2  0  0  0  0
 17 32  1  0  0  0  0
 18 20  2  0  0  0  0
 18 37  1  0  0  0  0
 19 21  2  0  0  0  0
 19 38  1  0  0  0  0
 20 46  1  0  0  0  0
 21 39  1  0  0  0  0
 22 79  1  0  0  0  0
 23 80  1  0  0  0  0
 24 26  2  0  0  0  0
 24 79  1  0  0  0  0
 25 81  1  0  0  0  0
 26 82  1  0  0  0  0
 27 60  2  0  0  0  0
 28 54  1  0  0  0  0
 28 61  1  0  0  0  0
 29 62  2  0  0  0  0
 29 66  1  0  0  0  0
 30 63  1  0  0  0  0
 30 67  1  0  0  0  0
 31 61  2  0  0  0  0
 31 62  1  0  0  0  0
 31 69  1  0  0  0  0
 32 68  1  0  0  0  0
 32 74  2  0  0  0  0
 33 47  1  0  0  0  0
 33 70  1  0  0  0  0
 33 75  2  0  0  0  0
 34 57  1  0  0  0  0
 34 64  1  0  0  0  0
 34 76  2  0  0  0  0
 35 58  1  0  0  0  0
 35 71  1  0  0  0  0
 35 77  2  0  0  0  0
 36 65  1  0  0  0  0
 36 72  1  0  0  0  0
 36 78  2  0  0  0  0
 37 40  1  0  0  0  0
 38 47  1  0  0  0  0
 39 64  1  0  0  0  0
 40 42  1  0  0  0  0
 41 43  1  0  0  0  0
 41 44  1  0  0  0  0
 42 46  1  0  0  0  0
 43 48  1  0  0  0  0
 44 65  1  0  0  0  0
 45 48  1  0  0  0  0
 45 65  1  0  0  0  0
 46 70  1  0  0  0  0
 47 64  1  0  0  0  0
 48 63  1  0  0  0  0
 49 58  1  0  0  0  0
 50 59  1  0  0  0  0
 51 59  1  0  0  0  0
 52 59  1  0  0  0  0
 53 73  1  0  0  0  0
 54 72  1  0  0  0  0
 55 56  1  0  0  0  0
 55 69  1  0  0  0  0
 56 80  1  0  0  0  0
 57 59  1  0  0  0  0
 57 71  1  0  0  0  0
 58 73  1  0  0  0  0
 60 63  1  0  0  0  0
M  CHG  1  73   1
M  ISO  4  36 100  56 101  72 100  80 101
M  END
> <Batch ID>
0186

> <Smiles>
CNC(C)C(=O)NC(C(=O)N1Cc2cc([101O:1][101CH2:1]CNc3nc(N)cc(C[100NH:0][100C:0](=O)N4CCCC(n5nc(-c6ccc(Oc7ccc(F)cc7F)cc6)c(C(N)=O)c5N)C4)n3)ccc2CC1C(=O)NC1CCCc2ccccc21)C(C)(C)C

> <Shape>
0.216

> <Color>
0.077

> <Negative vol penalty>
0.000

$$$$

  -OEChem-04052323143D

 84 93  0     1  0  0  0  0  0999 V2000
  -19.5368  -26.1274   25.3278 C   0  0  0  0  0  0  0  0  0  0  0  0
  -20.5056  -25.8396   24.3718 C   0  0  0  0  0  0  0  0  0  0  0  0
  -24.6418   -9.2200   22.0568 C   0  0  0  0  0  0  0  0  0  0  0  0
  -23.7309   -9.4435   19.8303 C   0  0  0  0  0  0  0  0  0  0  0  0
  -18.7627  -27.2809   25.2087 C   0  0  0  0  0  0  0  0  0  0  0  0
  -20.7002  -26.7046   23.2956 C   0  0  0  0  0  0  0  0  0  0  0  0
  -25.6003  -27.6050   22.3882 C   0  0  0  0  0  0  0  0  0  0  0  0
  -23.4616   -8.6075   22.4782 C   0  0  0  0  0  0  0  0  0  0  0  0
  -22.5507   -8.8309   20.2517 C   0  0  0  0  0  0  0  0  0  0  0  0
  -26.3151  -26.6163   21.7135 C   0  0  0  0  0  0  0  0  0  0  0  0
  -22.0298   -5.5514   22.2711 C   0  0  0  0  0  0  0  0  0  0  0  0
  -22.1396   -4.4043   23.0571 C   0  0  0  0  0  0  0  0  0  0  0  0
  -26.0868  -27.8612   19.6599 C   0  0  0  0  0  0  0  0  0  0  0  0
  -20.9362   -5.5088   24.8372 C   0  0  0  0  0  0  0  0  0  0  0  0
  -24.7764   -9.6381   20.7329 C   0  0  0  0  0  0  0  0  0  0  0  0
  -27.1373   -9.6425   19.7665 C   0  0  0  0  0  0  0  0  0  0  0  0
  -18.9545  -28.1655   24.1357 C   0  0  0  0  0  0  0  0  0  0  0  0
  -25.1132  -28.7258   21.7005 C   0  0  0  0  0  0  0  0  0  0  0  0
  -19.9271  -27.8703   23.1613 C   0  0  0  0  0  0  0  0  0  0  0  0
  -25.3684  -28.8640   20.3287 C   0  0  0  0  0  0  0  0  0  0  0  0
  -22.4161   -8.4129   21.5756 C   0  0  0  0  0  0  0  0  0  0  0  0
  -26.5560  -26.7429   20.3485 C   0  0  0  0  0  0  0  0  0  0  0  0
  -21.3733   -6.6773   22.7682 C   0  0  0  0  0  0  0  0  0  0  0  0
  -21.5928   -4.3830   24.3401 C   0  0  0  0  0  0  0  0  0  0  0  0
  -20.8265   -6.6559   24.0513 C   0  0  0  0  0  0  0  0  0  0  0  0
  -25.9951  -10.2714   20.2971 C   0  0  0  0  0  0  0  0  0  0  0  0
  -28.0095  -10.6725   19.5122 C   0  0  0  0  0  0  0  0  0  0  0  0
  -30.2227  -23.3477   18.2192 C   0  0  0  0  0  0  0  0  0  0  0  0
  -28.4825  -23.7365   19.5820 C   0  0  0  0  0  0  0  0  0  0  0  0
  -28.7625  -21.7044   18.6715 C   0  0  0  0  0  0  0  0  0  0  0  0
  -27.3875   -8.2515   19.5251 C   0  0  0  0  0  0  0  0  0  0  0  0
  -22.2259  -29.9232   21.1231 C   0  0  0  0  0  0  0  0  0  0  0  0
  -23.9249  -32.3725   19.8438 C   0  0  0  0  0  0  0  0  0  0  0  0
  -26.8396  -33.4514   18.4341 C   0  0  0  0  0  0  0  0  0  0  0  0
  -27.3422  -16.2775   18.2606 C   0  0  0  0  0  0  0  0  0  0  0  0
  -18.0613  -29.3756   24.0239 C   0  0  0  0  0  0  0  0  0  0  0  0
  -24.3670  -29.7966   22.4482 C   0  0  0  0  0  0  0  0  0  0  0  0
  -24.8845  -30.0579   19.5484 C   0  0  0  0  0  0  0  0  0  0  0  0
  -18.5861  -30.4326   23.0556 C   0  0  0  0  0  0  0  0  0  0  0  0
  -29.1698  -15.0618   21.0031 C   0  0  0  0  0  0  0  0  0  0  0  0
  -19.0370  -29.7843   21.7505 C   0  0  0  0  0  0  0  0  0  0  0  0
  -28.6706  -13.6196   21.0855 C   0  0  0  0  0  0  0  0  0  0  0  0
  -28.0395  -16.0421   20.6852 C   0  0  0  0  0  0  0  0  0  0  0  0
  -29.1104  -19.4786   17.6454 C   0  0  0  0  0  0  0  0  0  0  0  0
  -27.5926  -19.7597   19.6110 C   0  0  0  0  0  0  0  0  0  0  0  0
  -28.2629  -18.2963   17.1833 C   0  0  0  0  0  0  0  0  0  0  0  0
  -26.7656  -18.5818   19.1077 C   0  0  0  0  0  0  0  0  0  0  0  0
  -26.7630  -14.2482   19.5580 C   0  0  0  0  0  0  0  0  0  0  0  0
  -20.1849  -28.7968   21.9929 C   0  0  1  0  0  0  0  0  0  0  0  0
  -23.4746  -30.6438   21.5463 C   0  0  1  0  0  0  0  0  0  0  0  0
  -27.8868  -13.2332   19.8187 C   0  0  2  0  0  0  0  0  0  0  0  0
  -31.4498  -23.8287   17.5230 C   0  0  0  0  0  0  0  0  0  0  0  0
  -27.9162  -35.4964   17.4562 C   0  0  0  0  0  0  0  0  0  0  0  0
  -22.2831  -32.0158   17.2967 C   0  0  0  0  0  0  0  0  0  0  0  0
  -23.9953  -33.3826   16.0849 C   0  0  0  0  0  0  0  0  0  0  0  0
  -22.6877  -34.3950   17.9525 C   0  0  0  0  0  0  0  0  0  0  0  0
  -28.9795  -33.4443   20.4786 C   0  0  0  0  0  0  0  0  0  0  0  0
  -27.7078  -24.6648   20.4538 C   0  0  0  0  0  0  0  0  0  1  0  0
  -24.4791  -32.6894   18.4758 C   0  0  1  0  0  0  0  0  0  0  0  0
  -27.7039  -34.6676   18.7136 C   0  0  2  0  0  0  0  0  0  0  0  0
  -23.3689  -33.0972   17.4665 C   0  0  0  0  0  0  0  0  0  0  0  0
  -26.1268  -11.5982   20.3759 N   0  0  0  0  0  0  0  0  0  0  0  0
  -29.5763  -24.2394   18.9876 N   0  0  0  0  0  0  0  0  0  0  0  0
  -29.8758  -22.0667   18.0141 N   0  0  0  0  0  0  0  0  0  0  0  0
  -28.0153  -22.4826   19.4710 N   0  0  0  0  0  0  0  0  0  0  0  0
  -27.3621  -11.8114   19.8915 N   0  0  0  0  0  0  0  0  0  0  0  0
  -28.3372  -20.3800   18.5065 N   0  0  0  0  0  0  0  0  0  0  0  0
  -24.1541  -31.0749   20.3229 N   0  0  0  0  0  0  0  0  0  0  0  0
  -27.2959  -15.6107   19.4940 N   0  0  0  0  0  0  0  0  0  0  0  0
  -27.5665  -17.6627   18.2964 N   0  0  0  0  0  0  0  0  0  0  0  0
  -29.2595  -10.7061   19.0034 N   0  0  0  0  0  0  0  0  0  0  0  0
  -26.3836   -7.3269   19.8438 N   0  0  0  0  0  0  0  0  0  0  0  0
  -21.4325  -29.5071   22.1753 N   0  0  0  0  0  0  0  0  0  0  0  0
  -25.5063  -33.7056   18.6769 N   0  0  0  0  0  0  0  0  0  0  0  0
  -29.0372  -34.2479   19.2304 N   0  3  0  0  0  0  0  0  0  0  0  0
  -28.4755   -7.8392   19.0563 O   0  0  0  0  0  0  0  0  0  0  0  0
  -21.9982  -29.7583   19.9304 O   0  0  0  0  0  0  0  0  0  0  0  0
  -23.3173  -33.2463   20.4674 O   0  0  0  0  0  0  0  0  0  0  0  0
  -27.3006  -32.3837   18.0364 O   0  0  0  0  0  0  0  0  0  0  0  0
  -27.1956  -15.6735   17.1908 O   0  0  0  0  0  0  0  0  0  0  0  0
  -21.2644   -7.8150   21.9864 O   0  0  0  0  0  0  0  0  0  0  0  0
  -27.2575  -25.7724   19.6829 O   0  0  0  0  0  0  0  0  0  1  0  0
  -21.6970   -3.2809   25.0941 F   0  0  0  0  0  0  0  0  0  0  0  0
  -20.1935   -7.7341   24.5338 F   0  0  0  0  0  0  0  0  0  0  0  0
  1  2  1  0  0  0  0
  1  5  2  0  0  0  0
  2  6  2  0  0  0  0
  3  8  2  0  0  0  0
  3 15  1  0  0  0  0
  4  9  1  0  0  0  0
  4 15  2  0  0  0  0
  5 17  1  0  0  0  0
  6 19  1  0  0  0  0
  7 10  2  0  0  0  0
  7 18  1  0  0  0  0
  8 21  1  0  0  0  0
  9 21  2  0  0  0  0
 10 22  1  0  0  0  0
 11 12  2  0  0  0  0
 11 23  1  0  0  0  0
 12 24  1  0  0  0  0
 13 20  1  0  0  0  0
 13 22  2  0  0  0  0
 14 24  2  0  0  0  0
 14 25  1  0  0  0  0
 15 26  1  0  0  0  0
 16 26  1  0  0  0  0
 16 27  2  0  0  0  0
 16 31  1  0  0  0  0
 17 19  2  0  0  0  0
 17 36  1  0  0  0  0
 18 20  2  0  0  0  0
 18 37  1  0  0  0  0
 19 49  1  0  0  0  0
 20 38  1  0  0  0  0
 21 81  1  0  0  0  0
 22 82  1  0  0  0  0
 23 25  2  0  0  0  0
 23 81  1  0  0  0  0
 24 83  1  0  0  0  0
 25 84  1  0  0  0  0
 26 62  2  0  0  0  0
 27 66  1  0  0  0  0
 27 71  1  0  0  0  0
 28 52  1  0  0  0  0
 28 63  2  0  0  0  0
 28 64  1  0  0  0  0
 29 58  1  0  0  0  0
 29 63  1  0  0  0  0
 29 65  2  0  0  0  0
 30 64  2  0  0  0  0
 30 65  1  0  0  0  0
 30 67  1  0  0  0  0
 31 72  1  0  0  0  0
 31 76  2  0  0  0  0
 32 50  1  0  0  0  0
 32 73  1  0  0  0  0
 32 77  2  0  0  0  0
 33 59  1  0  0  0  0
 33 68  1  0  0  0  0
 33 78  2  0  0  0  0
 34 60  1  0  0  0  0
 34 74  1  0  0  0  0
 34 79  2  0  0  0  0
 35 69  1  0  0  0  0
 35 70  1  0  0  0  0
 35 80  2  0  0  0  0
 36 39  1  0  0  0  0
 37 50  1  0  0  0  0
 38 68  1  0  0  0  0
 39 41  1  0  0  0  0
 40 42  1  0  0  0  0
 40 43  1  0  0  0  0
 41 49  1  0  0  0  0
 42 51  1  0  0  0  0
 43 69  1  0  0  0  0
 44 46  1  0  0  0  0
 44 67  1  0  0  0  0
 45 47  1  0  0  0  0
 45 67  1  0  0  0  0
 46 70  1  0  0  0  0
 47 70  1  0  0  0  0
 48 51  1  0  0  0  0
 48 69  1  0  0  0  0
 49 73  1  0  0  0  0
 50 68  1  0  0  0  0
 51 66  1  0  0  0  0
 53 60  1  0  0  0  0
 54 61  1  0  0  0  0
 55 61  1  0  0  0  0
 56 61  1  0  0  0  0
 57 75  1  0  0  0  0
 58 82  1  0  0  0  0
 59 61  1  0  0  0  0
 59 74  1  0  0  0  0
 60 75  1  0  0  0  0
 62 66  1  0  0  0  0
M  CHG  1  75   1
M  ISO  4  35 100  58 101  70 100  82 101
M  END
> <Batch ID>
0186

> <Smiles>
CNC(C)C(=O)NC(C(=O)N1Cc2cc([101O:1][101CH2:1]c3nc(C)nc(N4CC[100N:0]([100C:0](=O)N5CCCC(n6nc(-c7ccc(Oc8ccc(F)cc8F)cc7)c(C(N)=O)c6N)C5)CC4)n3)ccc2CC1C(=O)NC1CCCc2ccccc21)C(C)(C)C

> <Shape>
0.273

> <Color>
0.116

> <Negative vol penalty>
0.000

$$$$

  -OEChem-04052323143D

 80 89  0     1  0  0  0  0  0999 V2000
  -19.3798  -33.7426   20.3547 C   0  0  0  0  0  0  0  0  0  0  0  0
  -20.6367  -33.2526   20.0149 C   0  0  0  0  0  0  0  0  0  0  0  0
  -25.5888  -13.0873   21.6704 C   0  0  0  0  0  0  0  0  0  0  0  0
  -25.5731  -13.4888   19.2880 C   0  0  0  0  0  0  0  0  0  0  0  0
  -18.7756  -33.3428   21.5459 C   0  0  0  0  0  0  0  0  0  0  0  0
  -21.2906  -32.3631   20.8668 C   0  0  0  0  0  0  0  0  0  0  0  0
  -24.9457  -27.7249   19.2442 C   0  0  0  0  0  0  0  0  0  0  0  0
  -24.5599  -12.1576   21.5206 C   0  0  0  0  0  0  0  0  0  0  0  0
  -24.5442  -12.5589   19.1382 C   0  0  0  0  0  0  0  0  0  0  0  0
  -26.3330  -27.6032   19.1768 C   0  0  0  0  0  0  0  0  0  0  0  0
  -24.2334   -8.9422   20.5266 C   0  0  0  0  0  0  0  0  0  0  0  0
  -24.3516   -7.7296   21.2056 C   0  0  0  0  0  0  0  0  0  0  0  0
  -26.3462  -26.6060   21.3733 C   0  0  0  0  0  0  0  0  0  0  0  0
  -22.3031   -8.1976   22.3980 C   0  0  0  0  0  0  0  0  0  0  0  0
  -26.0954  -13.7530   20.5541 C   0  0  0  0  0  0  0  0  0  0  0  0
  -28.5426  -14.4658   20.6572 C   0  0  0  0  0  0  0  0  0  0  0  0
  -19.4182  -32.4404   22.4081 C   0  0  0  0  0  0  0  0  0  0  0  0
  -24.2482  -27.2973   20.3831 C   0  0  0  0  0  0  0  0  0  0  0  0
  -20.6950  -31.9518   22.0713 C   0  0  0  0  0  0  0  0  0  0  0  0
  -24.9498  -26.7210   21.4517 C   0  0  0  0  0  0  0  0  0  0  0  0
  -24.0376  -11.8933   20.2545 C   0  0  0  0  0  0  0  0  0  0  0  0
  -27.0337  -27.0463   20.2426 C   0  0  0  0  0  0  0  0  0  0  0  0
  -23.1501   -9.7827   20.7834 C   0  0  0  0  0  0  0  0  0  0  0  0
  -23.3865   -7.3572   22.1413 C   0  0  0  0  0  0  0  0  0  0  0  0
  -22.1850   -9.4103   21.7190 C   0  0  0  0  0  0  0  0  0  0  0  0
  -27.1578  -14.7140   20.7084 C   0  0  0  0  0  0  0  0  0  0  0  0
  -29.1195  -15.6957   20.8598 C   0  0  0  0  0  0  0  0  0  0  0  0
  -29.2446  -13.2338   20.4454 C   0  0  0  0  0  0  0  0  0  0  0  0
  -22.4185  -28.7199   22.5584 C   0  0  0  0  0  0  0  0  0  0  0  0
  -21.9538  -25.6793   23.5886 C   0  0  0  0  0  0  0  0  0  0  0  0
  -23.0984  -22.4684   23.7506 C   0  0  0  0  0  0  0  0  0  0  0  0
  -29.4344  -21.0391   19.7587 C   0  0  0  0  0  0  0  0  0  0  0  0
  -18.7460  -32.0740   23.7075 C   0  0  0  0  0  0  0  0  0  0  0  0
  -22.7491  -27.4110   20.4292 C   0  0  0  0  0  0  0  0  0  0  0  0
  -24.2460  -26.2280   22.6885 C   0  0  0  0  0  0  0  0  0  0  0  0
  -19.3432  -30.8377   24.3748 C   0  0  0  0  0  0  0  0  0  0  0  0
  -27.0870  -20.0844   22.3410 C   0  0  0  0  0  0  0  0  0  0  0  0
  -20.8663  -30.9196   24.3845 C   0  0  0  0  0  0  0  0  0  0  0  0
  -27.0138  -18.5701   22.1380 C   0  0  0  0  0  0  0  0  0  0  0  0
  -27.1985  -20.8173   21.0070 C   0  0  0  0  0  0  0  0  0  0  0  0
  -28.2665  -18.8644   19.9518 C   0  0  0  0  0  0  0  0  0  0  0  0
  -29.0671  -24.6715   17.8425 C   0  0  0  0  0  0  0  0  0  0  0  0
  -21.4254  -30.9661   22.9573 C   0  0  1  0  0  0  0  0  0  0  0  0
  -22.1935  -27.4141   21.8500 C   0  0  1  0  0  0  0  0  0  0  0  0
  -30.2339  -25.4068   20.1624 C   0  0  2  0  0  0  0  0  0  0  0  0
  -28.1775  -18.0655   21.2646 C   0  0  2  0  0  0  0  0  0  0  0  0
  -30.5292  -23.2960   19.6389 C   0  0  1  0  0  0  0  0  0  0  0  0
  -30.0203  -24.5228   18.9880 C   0  0  1  0  0  0  0  0  0  0  0  0
  -31.1087  -24.2376   20.7430 C   0  0  0  0  0  0  0  0  0  0  0  0
  -32.6148  -24.4903   20.5476 C   0  0  0  0  0  0  0  0  0  0  0  0
  -30.8448  -23.8381   22.1963 C   0  0  0  0  0  0  0  0  0  0  0  0
  -22.5194  -20.2158   24.6929 C   0  0  0  0  0  0  0  0  0  0  0  0
  -22.8181  -26.6192   26.3599 C   0  0  0  0  0  0  0  0  0  0  0  0
  -23.1360  -24.2192   26.9982 C   0  0  0  0  0  0  0  0  0  0  0  0
  -20.8734  -25.0467   26.3510 C   0  0  0  0  0  0  0  0  0  0  0  0
  -22.9735  -21.2455   21.0584 C   0  0  0  0  0  0  0  0  0  0  0  0
  -28.9779  -25.8409   20.8928 C   0  0  0  0  0  0  0  0  0  1  0  0
  -22.6464  -24.7657   24.5707 C   0  0  1  0  0  0  0  0  0  0  0  0
  -22.4118  -21.1399   23.4899 C   0  0  2  0  0  0  0  0  0  0  0  0
  -22.3822  -25.1736   26.0476 C   0  0  0  0  0  0  0  0  0  0  0  0
  -26.8722  -16.0004   20.9265 N   0  0  0  0  0  0  0  0  0  0  0  0
  -28.0855  -16.5716   21.0143 N   0  0  0  0  0  0  0  0  0  0  0  0
  -22.7803  -26.3668   22.6886 N   0  0  0  0  0  0  0  0  0  0  0  0
  -28.3371  -20.3026   20.2327 N   0  0  0  0  0  0  0  0  0  0  0  0
  -30.4054  -16.1026   20.9191 N   0  0  0  0  0  0  0  0  0  0  0  0
  -28.4976  -12.0635   20.2539 N   0  0  0  0  0  0  0  0  0  0  0  0
  -21.4108  -29.6455   22.3655 N   0  0  0  0  0  0  0  0  0  0  0  0
  -22.2186  -23.4108   24.2394 N   0  0  0  0  0  0  0  0  0  0  0  0
  -29.4376  -22.3958   20.0645 N   0  0  0  0  0  0  0  0  0  0  0  0
  -30.4904  -24.9126   17.6756 N   0  3  0  0  0  0  0  0  0  0  0  0
  -23.0298  -20.4587   22.3173 N   0  3  0  0  0  0  0  0  0  0  0  0
  -30.4974  -13.1697   20.4429 O   0  0  0  0  0  0  0  0  0  0  0  0
  -23.4306  -28.8756   23.2315 O   0  0  0  0  0  0  0  0  0  0  0  0
  -20.7241  -25.7740   23.6143 O   0  0  0  0  0  0  0  0  0  0  0  0
  -24.2964  -22.6507   23.5450 O   0  0  0  0  0  0  0  0  0  0  0  0
  -30.3554  -20.5283   19.1116 O   0  0  0  0  0  0  0  0  0  0  0  0
  -23.0338  -10.9859   20.1078 O   0  0  0  0  0  0  0  0  0  0  0  0
  -28.3878  -26.9269   20.1797 O   0  0  0  0  0  0  0  0  0  1  0  0
  -23.4993   -6.1920   22.7921 F   0  0  0  0  0  0  0  0  0  0  0  0
  -21.1414  -10.2130   21.9691 F   0  0  0  0  0  0  0  0  0  0  0  0
  1  2  1  0  0  0  0
  1  5  2  0  0  0  0
  2  6  2  0  0  0  0
  3  8  2  0  0  0  0
  3 15  1  0  0  0  0
  4  9  1  0  0  0  0
  4 15  2  0  0  0  0
  5 17  1  0  0  0  0
  6 19  1  0  0  0  0
  7 10  2  0  0  0  0
  7 18  1  0  0  0  0
  8 21  1  0  0  0  0
  9 21  2  0  0  0  0
 10 22  1  0  0  0  0
 11 12  2  0  0  0  0
 11 23  1  0  0  0  0
 12 24  1  0  0  0  0
 13 20  1  0  0  0  0
 13 22  2  0  0  0  0
 14 24  2  0  0  0  0
 14 25  1  0  0  0  0
 15 26  1  0  0  0  0
 16 26  1  0  0  0  0
 16 27  2  0  0  0  0
 16 28  1  0  0  0  0
 17 19  2  0  0  0  0
 17 33  1  0  0  0  0
 18 20  2  0  0  0  0
 18 34  1  0  0  0  0
 19 43  1  0  0  0  0
 20 35  1  0  0  0  0
 21 77  1  0  0  0  0
 22 78  1  0  0  0  0
 23 25  2  0  0  0  0
 23 77  1  0  0  0  0
 24 79  1  0  0  0  0
 25 80  1  0  0  0  0
 26 61  2  0  0  0  0
 27 62  1  0  0  0  0
 27 65  1  0  0  0  0
 28 66  1  0  0  0  0
 28 72  2  0  0  0  0
 29 44  1  0  0  0  0
 29 67  1  0  0  0  0
 29 73  2  0  0  0  0
 30 58  1  0  0  0  0
 30 63  1  0  0  0  0
 30 74  2  0  0  0  0
 31 59  1  0  0  0  0
 31 68  1  0  0  0  0
 31 75  2  0  0  0  0
 32 64  1  0  0  0  0
 32 69  1  0  0  0  0
 32 76  2  0  0  0  0
 33 36  1  0  0  0  0
 34 44  1  0  0  0  0
 35 63  1  0  0  0  0
 36 38  1  0  0  0  0
 37 39  1  0  0  0  0
 37 40  1  0  0  0  0
 38 43  1  0  0  0  0
 39 46  1  0  0  0  0
 40 64  1  0  0  0  0
 41 46  1  0  0  0  0
 41 64  1  0  0  0  0
 42 48  1  0  0  0  0
 42 70  1  0  0  0  0
 43 67  1  0  0  0  0
 44 63  1  0  0  0  0
 45 48  1  0  0  0  0
 45 49  1  0  0  0  0
 45 57  1  0  0  0  0
 46 62  1  0  0  0  0
 47 48  1  0  0  0  0
 47 49  1  0  0  0  0
 47 69  1  0  0  0  0
 48 70  1  0  0  0  0
 49 50  1  0  0  0  0
 49 51  1  0  0  0  0
 52 59  1  0  0  0  0
 53 60  1  0  0  0  0
 54 60  1  0  0  0  0
 55 60  1  0  0  0  0
 56 71  1  0  0  0  0
 57 78  1  0  0  0  0
 58 60  1  0  0  0  0
 58 68  1  0  0  0  0
 59 71  1  0  0  0  0
 61 62  1  0  0  0  0
M  CHG  2  70   1  71   1
M  ISO  4  32 100  57 101  69 100  78 101
M  END
> <Batch ID>
0186

> <Smiles>
CNC(C)C(=O)NC(C(=O)N1Cc2cc([101O:1][101CH2:1]C3C(C)(C)C([100NH:0][100C:0](=O)N4CCCC(n5nc(-c6ccc(Oc7ccc(F)cc7F)cc6)c(C(N)=O)c5N)C4)C34CN4)ccc2CC1C(=O)NC1CCCc2ccccc21)C(C)(C)C

> <Shape>
0.247

> <Color>
0.093

> <Negative vol penalty>
0.000

$$$$

  -OEChem-04052323143D

 84 93  0     1  0  0  0  0  0999 V2000
  -29.2064  -23.5998   18.5973 C   0  0  0  0  0  0  0  0  0  0  0  0
  -27.8499  -23.9078   18.6181 C   0  0  0  0  0  0  0  0  0  0  0  0
  -25.0860  -15.1948   18.9959 C   0  0  0  0  0  0  0  0  0  0  0  0
  -23.1708  -14.7025   20.3840 C   0  0  0  0  0  0  0  0  0  0  0  0
  -30.0424  -24.0699   19.6091 C   0  0  0  0  0  0  0  0  0  0  0  0
  -27.3285  -24.6855   19.6515 C   0  0  0  0  0  0  0  0  0  0  0  0
  -22.7805  -28.7675   19.2527 C   0  0  0  0  0  0  0  0  0  0  0  0
  -25.7002  -14.0187   19.4261 C   0  0  0  0  0  0  0  0  0  0  0  0
  -23.7850  -13.5263   20.8142 C   0  0  0  0  0  0  0  0  0  0  0  0
  -21.4212  -28.6896   19.5525 C   0  0  0  0  0  0  0  0  0  0  0  0
  -24.2890  -10.4030   19.6262 C   0  0  0  0  0  0  0  0  0  0  0  0
  -23.5127   -9.2448   19.6642 C   0  0  0  0  0  0  0  0  0  0  0  0
  -21.8508  -29.6519   21.7224 C   0  0  0  0  0  0  0  0  0  0  0  0
  -23.9156   -9.0528   22.0387 C   0  0  0  0  0  0  0  0  0  0  0  0
  -23.8213  -15.5368   19.4749 C   0  0  0  0  0  0  0  0  0  0  0  0
  -22.3391  -16.9110   17.9186 C   0  0  0  0  0  0  0  0  0  0  0  0
  -29.5328  -24.8618   20.6502 C   0  0  0  0  0  0  0  0  0  0  0  0
  -23.6882  -29.2790   20.1912 C   0  0  0  0  0  0  0  0  0  0  0  0
  -28.1583  -25.1656   20.6789 C   0  0  0  0  0  0  0  0  0  0  0  0
  -23.2207  -29.7377   21.4311 C   0  0  0  0  0  0  0  0  0  0  0  0
  -25.0497  -13.1844   20.3352 C   0  0  0  0  0  0  0  0  0  0  0  0
  -20.9565  -29.1291   20.7886 C   0  0  0  0  0  0  0  0  0  0  0  0
  -24.8787  -10.8861   20.7943 C   0  0  0  0  0  0  0  0  0  0  0  0
  -23.3260   -8.5697   20.8704 C   0  0  0  0  0  0  0  0  0  0  0  0
  -24.6920  -10.2110   22.0006 C   0  0  0  0  0  0  0  0  0  0  0  0
  -23.1866  -16.7519   19.0313 C   0  0  0  0  0  0  0  0  0  0  0  0
  -22.0039  -18.2429   17.9300 C   0  0  0  0  0  0  0  0  0  0  0  0
  -16.6974  -22.1608   21.8182 C   0  0  0  0  0  0  0  0  0  0  0  0
  -18.5789  -22.5040   22.9924 C   0  0  0  0  0  0  0  0  0  0  0  0
  -17.3491  -24.2520   22.3075 C   0  0  0  0  0  0  0  0  0  0  0  0
  -21.8944  -15.9415   16.9604 C   0  0  0  0  0  0  0  0  0  0  0  0
  -26.2012  -28.1115   21.7486 C   0  0  0  0  0  0  0  0  0  0  0  0
  -26.5031  -31.1765   22.7668 C   0  0  0  0  0  0  0  0  0  0  0  0
  -25.0162  -34.1881   23.3720 C   0  0  0  0  0  0  0  0  0  0  0  0
  -21.7666  -22.3507   22.2797 C   0  0  0  0  0  0  0  0  0  0  0  0
  -30.4668  -25.3076   21.7472 C   0  0  0  0  0  0  0  0  0  0  0  0
  -25.1477  -29.3812   19.8423 C   0  0  0  0  0  0  0  0  0  0  0  0
  -24.1514  -30.3139   22.4656 C   0  0  0  0  0  0  0  0  0  0  0  0
  -29.9039  -26.4384   22.6043 C   0  0  0  0  0  0  0  0  0  0  0  0
  -23.6811  -22.5148   19.2823 C   0  0  0  0  0  0  0  0  0  0  0  0
  -28.4627  -26.1387   23.0040 C   0  0  0  0  0  0  0  0  0  0  0  0
  -23.6950  -21.0708   18.7777 C   0  0  0  0  0  0  0  0  0  0  0  0
  -19.3436  -26.7339   22.0634 C   0  0  0  0  0  0  0  0  0  0  0  0
  -17.6802  -28.0406   22.3380 C   0  0  0  0  0  0  0  0  0  0  0  0
  -23.7449  -22.5805   20.8067 C   0  0  0  0  0  0  0  0  0  0  0  0
  -22.7297  -20.3431   20.9998 C   0  0  0  0  0  0  0  0  0  0  0  0
  -27.5597  -26.0271   21.7696 C   0  0  1  0  0  0  0  0  0  0  0  0
  -26.0525  -29.4433   21.0691 C   0  0  1  0  0  0  0  0  0  0  0  0
  -22.6105  -20.2241   19.4707 C   0  0  2  0  0  0  0  0  0  0  0  0
  -18.0001  -26.6077   22.8094 C   0  0  0  0  0  0  0  0  0  0  0  0
  -19.2054  -28.2685   22.2104 C   0  0  0  0  0  0  0  0  0  1  0  0
  -15.7260  -21.2273   21.1802 C   0  0  0  0  0  0  0  0  0  0  0  0
  -25.5112  -36.4907   24.2384 C   0  0  0  0  0  0  0  0  0  0  0  0
  -26.5338  -30.0940   25.6194 C   0  0  0  0  0  0  0  0  0  0  0  0
  -26.0721  -32.4168   26.4316 C   0  0  0  0  0  0  0  0  0  0  0  0
  -28.1755  -31.9293   25.1823 C   0  0  0  0  0  0  0  0  0  0  0  0
  -24.2616  -35.4439   20.8005 C   0  0  0  0  0  0  0  0  0  0  0  0
  -19.7721  -21.9655   23.7054 C   0  0  0  0  0  0  0  0  0  0  0  0
  -25.9757  -31.9712   23.9370 C   0  0  1  0  0  0  0  0  0  0  0  0
  -25.4232  -35.6041   23.0059 C   0  0  2  0  0  0  0  0  0  0  0  0
  -26.6717  -31.5902   25.2740 C   0  0  0  0  0  0  0  0  0  0  0  0
  -23.3782  -17.8917   19.7007 N   0  0  0  0  0  0  0  0  0  0  0  0
  -17.7480  -21.6041   22.4425 N   0  0  0  0  0  0  0  0  0  0  0  0
  -16.4329  -23.4729   21.7102 N   0  0  0  0  0  0  0  0  0  0  0  0
  -18.4446  -23.8398   22.9654 N   0  0  0  0  0  0  0  0  0  0  0  0
  -22.6463  -18.7798   19.0066 N   0  0  0  0  0  0  0  0  0  0  0  0
  -25.5703  -30.3869   22.0797 N   0  0  0  0  0  0  0  0  0  0  0  0
  -22.6892  -21.7578   21.4021 N   0  0  0  0  0  0  0  0  0  0  0  0
  -21.2253  -18.9955   17.1239 N   0  0  0  0  0  0  0  0  0  0  0  0
  -22.3340  -14.6176   17.0962 N   0  0  0  0  0  0  0  0  0  0  0  0
  -17.1409  -25.6342   22.2371 N   0  0  0  0  0  0  0  0  0  0  0  0
  -27.2387  -27.3421   21.2577 N   0  0  0  0  0  0  0  0  0  0  0  0
  -26.1132  -33.3768   23.5710 N   0  0  0  0  0  0  0  0  0  0  0  0
  -20.7947  -21.5015   22.7945 N   0  0  0  0  0  0  0  0  0  0  0  0
  -24.4320  -36.2015   22.0670 N   0  3  0  0  0  0  0  0  0  0  0  0
  -21.1430  -16.2437   16.0025 O   0  0  0  0  0  0  0  0  0  0  0  0
  -25.4325  -27.8053   22.6526 O   0  0  0  0  0  0  0  0  0  0  0  0
  -27.6973  -31.2591   22.4689 O   0  0  0  0  0  0  0  0  0  0  0  0
  -23.8427  -33.8379   23.4750 O   0  0  0  0  0  0  0  0  0  0  0  0
  -21.8029  -23.5493   22.5780 O   0  0  0  0  0  0  0  0  0  0  0  0
  -25.6485  -12.0365   20.7550 O   0  0  0  0  0  0  0  0  0  0  0  0
  -19.6303  -29.0536   21.0840 O   0  0  0  0  0  0  0  0  0  1  0  0
  -22.5791   -7.4584   20.9071 F   0  0  0  0  0  0  0  0  0  0  0  0
  -25.2550  -10.6709   23.1263 F   0  0  0  0  0  0  0  0  0  0  0  0
  1  2  1  0  0  0  0
  1  5  2  0  0  0  0
  2  6  2  0  0  0  0
  3  8  2  0  0  0  0
  3 15  1  0  0  0  0
  4  9  1  0  0  0  0
  4 15  2  0  0  0  0
  5 17  1  0  0  0  0
  6 19  1  0  0  0  0
  7 10  2  0  0  0  0
  7 18  1  0  0  0  0
  8 21  1  0  0  0  0
  9 21  2  0  0  0  0
 10 22  1  0  0  0  0
 11 12  2  0  0  0  0
 11 23  1  0  0  0  0
 12 24  1  0  0  0  0
 13 20  1  0  0  0  0
 13 22  2  0  0  0  0
 14 24  2  0  0  0  0
 14 25  1  0  0  0  0
 15 26  1  0  0  0  0
 16 26  1  0  0  0  0
 16 27  2  0  0  0  0
 16 31  1  0  0  0  0
 17 19  2  0  0  0  0
 17 36  1  0  0  0  0
 18 20  2  0  0  0  0
 18 37  1  0  0  0  0
 19 47  1  0  0  0  0
 20 38  1  0  0  0  0
 21 81  1  0  0  0  0
 22 82  1  0  0  0  0
 23 25  2  0  0  0  0
 23 81  1  0  0  0  0
 24 83  1  0  0  0  0
 25 84  1  0  0  0  0
 26 62  2  0  0  0  0
 27 66  1  0  0  0  0
 27 69  1  0  0  0  0
 28 52  1  0  0  0  0
 28 63  1  0  0  0  0
 28 64  2  0  0  0  0
 29 58  1  0  0  0  0
 29 63  2  0  0  0  0
 29 65  1  0  0  0  0
 30 64  1  0  0  0  0
 30 65  2  0  0  0  0
 30 71  1  0  0  0  0
 31 70  1  0  0  0  0
 31 76  2  0  0  0  0
 32 48  1  0  0  0  0
 32 72  1  0  0  0  0
 32 77  2  0  0  0  0
 33 59  1  0  0  0  0
 33 67  1  0  0  0  0
 33 78  2  0  0  0  0
 34 60  1  0  0  0  0
 34 73  1  0  0  0  0
 34 79  2  0  0  0  0
 35 68  1  0  0  0  0
 35 74  1  0  0  0  0
 35 80  2  0  0  0  0
 36 39  1  0  0  0  0
 37 48  1  0  0  0  0
 38 67  1  0  0  0  0
 39 41  1  0  0  0  0
 40 42  1  0  0  0  0
 40 45  1  0  0  0  0
 41 47  1  0  0  0  0
 42 49  1  0  0  0  0
 43 50  1  0  0  0  0
 43 51  1  0  0  0  0
 44 50  1  0  0  0  0
 44 51  1  0  0  0  0
 45 68  1  0  0  0  0
 46 49  1  0  0  0  0
 46 68  1  0  0  0  0
 47 72  1  0  0  0  0
 48 67  1  0  0  0  0
 49 66  1  0  0  0  0
 50 71  1  0  0  0  0
 51 82  1  0  0  0  0
 53 60  1  0  0  0  0
 54 61  1  0  0  0  0
 55 61  1  0  0  0  0
 56 61  1  0  0  0  0
 57 75  1  0  0  0  0
 58 74  1  0  0  0  0
 59 61  1  0  0  0  0
 59 73  1  0  0  0  0
 60 75  1  0  0  0  0
 62 66  1  0  0  0  0
M  CHG  1  75   1
M  ISO  4  35 100  51 101  74 100  82 101
M  END
> <Batch ID>
0186

> <Smiles>
CNC(C)C(=O)NC(C(=O)N1Cc2cc([101O:1][101CH:1]3CC(Nc4nc(C)nc(C[100NH:0][100C:0](=O)N5CCCC(n6nc(-c7ccc(Oc8ccc(F)cc8F)cc7)c(C(N)=O)c6N)C5)n4)C3)ccc2CC1C(=O)NC1CCCc2ccccc21)C(C)(C)C

> <Shape>
0.251

> <Color>
0.068

> <Negative vol penalty>
0.000

$$$$

  -OEChem-04052323143D

 78 86  0     1  0  0  0  0  0999 V2000
  -18.7570  -27.7116   26.2306 C   0  0  0  0  0  0  0  0  0  0  0  0
  -20.1246  -27.4788   26.1271 C   0  0  0  0  0  0  0  0  0  0  0  0
  -25.9928  -13.4467   22.0115 C   0  0  0  0  0  0  0  0  0  0  0  0
  -24.6837  -13.1658   20.0004 C   0  0  0  0  0  0  0  0  0  0  0  0
  -18.0015  -27.9429   25.0818 C   0  0  0  0  0  0  0  0  0  0  0  0
  -20.7374  -27.4760   24.8746 C   0  0  0  0  0  0  0  0  0  0  0  0
  -26.3906  -29.4150   23.5376 C   0  0  0  0  0  0  0  0  0  0  0  0
  -25.2757  -12.4178   22.6220 C   0  0  0  0  0  0  0  0  0  0  0  0
  -23.9666  -12.1368   20.6109 C   0  0  0  0  0  0  0  0  0  0  0  0
  -27.5977  -28.7391   23.3649 C   0  0  0  0  0  0  0  0  0  0  0  0
  -22.0333   -9.1938   21.5157 C   0  0  0  0  0  0  0  0  0  0  0  0
  -21.8059   -8.0332   20.7761 C   0  0  0  0  0  0  0  0  0  0  0  0
  -27.2374  -28.7174   20.9798 C   0  0  0  0  0  0  0  0  0  0  0  0
  -24.1896   -7.6982   20.5691 C   0  0  0  0  0  0  0  0  0  0  0  0
  -25.6968  -13.8207   20.7007 C   0  0  0  0  0  0  0  0  0  0  0  0
  -27.6199  -14.7652   19.3159 C   0  0  0  0  0  0  0  0  0  0  0  0
  -18.6070  -27.9525   23.8154 C   0  0  0  0  0  0  0  0  0  0  0  0
  -25.5912  -29.7381   22.4317 C   0  0  0  0  0  0  0  0  0  0  0  0
  -19.9891  -27.7063   23.7077 C   0  0  0  0  0  0  0  0  0  0  0  0
  -26.0218  -29.3996   21.1409 C   0  0  0  0  0  0  0  0  0  0  0  0
  -24.2626  -11.7628   21.9217 C   0  0  0  0  0  0  0  0  0  0  0  0
  -28.0199  -28.3876   22.0861 C   0  0  0  0  0  0  0  0  0  0  0  0
  -23.3388   -9.6066   21.7819 C   0  0  0  0  0  0  0  0  0  0  0  0
  -22.8841   -7.2854   20.3028 C   0  0  0  0  0  0  0  0  0  0  0  0
  -24.4170   -8.8588   21.3087 C   0  0  0  0  0  0  0  0  0  0  0  0
  -26.4368  -14.8839   20.0697 C   0  0  0  0  0  0  0  0  0  0  0  0
  -27.9185  -16.0522   18.9407 C   0  0  0  0  0  0  0  0  0  0  0  0
  -28.3807  -13.5960   18.9845 C   0  0  0  0  0  0  0  0  0  0  0  0
  -22.6566  -28.9678   21.4838 C   0  0  0  0  0  0  0  0  0  0  0  0
  -23.2577  -31.1453   19.1557 C   0  0  0  0  0  0  0  0  0  0  0  0
  -25.5665  -32.8331   17.2936 C   0  0  0  0  0  0  0  0  0  0  0  0
  -28.4985  -21.3003   19.9110 C   0  0  0  0  0  0  0  0  0  0  0  0
  -17.7410  -28.1602   22.5982 C   0  0  0  0  0  0  0  0  0  0  0  0
  -24.3047  -30.4910   22.6327 C   0  0  0  0  0  0  0  0  0  0  0  0
  -25.2100  -29.7414   19.9191 C   0  0  0  0  0  0  0  0  0  0  0  0
  -18.5319  -28.5121   21.3408 C   0  0  0  0  0  0  0  0  0  0  0  0
  -25.1981  -20.2976   19.2436 C   0  0  0  0  0  0  0  0  0  0  0  0
  -19.7295  -27.5803   21.1853 C   0  0  0  0  0  0  0  0  0  0  0  0
  -25.3180  -18.7770   19.3394 C   0  0  0  0  0  0  0  0  0  0  0  0
  -26.0151  -21.0065   20.3253 C   0  0  0  0  0  0  0  0  0  0  0  0
  -27.6342  -23.3253   21.1668 C   0  0  0  0  0  0  0  0  0  0  0  0
  -29.3400  -23.5722   19.4012 C   0  0  0  0  0  0  0  0  0  0  0  0
  -27.5569  -19.0770   20.4634 C   0  0  0  0  0  0  0  0  0  0  0  0
  -28.5611  -24.0036   22.1704 C   0  0  0  0  0  0  0  0  0  0  0  0
  -30.2994  -24.2291   20.3802 C   0  0  0  0  0  0  0  0  0  0  0  0
  -20.6945  -27.7199   22.3689 C   0  0  1  0  0  0  0  0  0  0  0  0
  -23.3227  -30.3147   21.4785 C   0  0  1  0  0  0  0  0  0  0  0  0
  -26.7933  -18.3391   19.3529 C   0  0  1  0  0  0  0  0  0  0  0  0
  -25.7543  -34.5181   15.4435 C   0  0  0  0  0  0  0  0  0  0  0  0
  -22.5071  -28.9954   17.1248 C   0  0  0  0  0  0  0  0  0  0  0  0
  -23.6032  -30.3845   15.3536 C   0  0  0  0  0  0  0  0  0  0  0  0
  -21.6345  -31.2790   16.5973 C   0  0  0  0  0  0  0  0  0  0  0  0
  -27.0154  -34.7458   19.0259 C   0  0  0  0  0  0  0  0  0  0  0  0
  -30.3853  -25.6899   22.4015 C   0  0  0  0  0  0  0  0  0  0  0  0
  -29.6219  -26.8691   22.9714 C   0  0  0  0  0  0  0  0  0  1  0  0
  -23.8643  -31.0936   17.7743 C   0  0  1  0  0  0  0  0  0  0  0  0
  -25.7008  -34.3052   16.9484 C   0  0  2  0  0  0  0  0  0  0  0  0
  -22.9169  -30.4298   16.7355 C   0  0  0  0  0  0  0  0  0  0  0  0
  -26.0129  -16.1466   20.1685 N   0  0  0  0  0  0  0  0  0  0  0  0
  -26.9347  -16.8332   19.4721 N   0  0  0  0  0  0  0  0  0  0  0  0
  -23.9566  -30.4724   20.1680 N   0  0  0  0  0  0  0  0  0  0  0  0
  -27.4042  -20.5271   20.3267 N   0  0  0  0  0  0  0  0  0  0  0  0
  -28.4023  -22.6882   20.0903 N   0  0  0  0  0  0  0  0  0  0  0  0
  -28.9241  -16.5807   18.2115 N   0  0  0  0  0  0  0  0  0  0  0  0
  -27.9324  -12.3527   19.4509 N   0  0  0  0  0  0  0  0  0  0  0  0
  -21.4947  -28.9177   22.2300 N   0  0  0  0  0  0  0  0  0  0  0  0
  -24.2471  -32.4623   17.4451 N   0  0  0  0  0  0  0  0  0  0  0  0
  -29.4992  -24.9397   21.4469 N   0  3  0  0  0  0  0  0  0  0  0  0
  -26.9449  -34.8663   17.5469 N   0  3  0  0  0  0  0  0  0  0  0  0
  -29.4361  -13.6541   18.3091 O   0  0  0  0  0  0  0  0  0  0  0  0
  -23.1588  -28.0430   20.8559 O   0  0  0  0  0  0  0  0  0  0  0  0
  -22.2063  -31.7660   19.3317 O   0  0  0  0  0  0  0  0  0  0  0  0
  -26.5350  -32.0859   17.4130 O   0  0  0  0  0  0  0  0  0  0  0  0
  -29.5034  -20.7806   19.4095 O   0  0  0  0  0  0  0  0  0  0  0  0
  -23.5629  -10.7586   22.5170 O   0  0  0  0  0  0  0  0  0  0  0  0
  -29.2058  -27.7226   21.9135 O   0  0  0  0  0  0  0  0  0  1  0  0
  -22.6656   -6.1701   19.5939 F   0  0  0  0  0  0  0  0  0  0  0  0
  -25.6734   -9.2498   21.5623 F   0  0  0  0  0  0  0  0  0  0  0  0
  1  2  1  0  0  0  0
  1  5  2  0  0  0  0
  2  6  2  0  0  0  0
  3  8  2  0  0  0  0
  3 15  1  0  0  0  0
  4  9  1  0  0  0  0
  4 15  2  0  0  0  0
  5 17  1  0  0  0  0
  6 19  1  0  0  0  0
  7 10  2  0  0  0  0
  7 18  1  0  0  0  0
  8 21  1  0  0  0  0
  9 21  2  0  0  0  0
 10 22  1  0  0  0  0
 11 12  2  0  0  0  0
 11 23  1  0  0  0  0
 12 24  1  0  0  0  0
 13 20  1  0  0  0  0
 13 22  2  0  0  0  0
 14 24  2  0  0  0  0
 14 25  1  0  0  0  0
 15 26  1  0  0  0  0
 16 26  1  0  0  0  0
 16 27  2  0  0  0  0
 16 28  1  0  0  0  0
 17 19  2  0  0  0  0
 17 33  1  0  0  0  0
 18 20  2  0  0  0  0
 18 34  1  0  0  0  0
 19 46  1  0  0  0  0
 20 35  1  0  0  0  0
 21 75  1  0  0  0  0
 22 76  1  0  0  0  0
 23 25  2  0  0  0  0
 23 75  1  0  0  0  0
 24 77  1  0  0  0  0
 25 78  1  0  0  0  0
 26 59  2  0  0  0  0
 27 60  1  0  0  0  0
 27 64  1  0  0  0  0
 28 65  1  0  0  0  0
 28 70  2  0  0  0  0
 29 47  1  0  0  0  0
 29 66  1  0  0  0  0
 29 71  2  0  0  0  0
 30 56  1  0  0  0  0
 30 61  1  0  0  0  0
 30 72  2  0  0  0  0
 31 57  1  0  0  0  0
 31 67  1  0  0  0  0
 31 73  2  0  0  0  0
 32 62  1  0  0  0  0
 32 63  1  0  0  0  0
 32 74  2  0  0  0  0
 33 36  1  0  0  0  0
 34 47  1  0  0  0  0
 35 61  1  0  0  0  0
 36 38  1  0  0  0  0
 37 39  1  0  0  0  0
 37 40  1  0  0  0  0
 38 46  1  0  0  0  0
 39 48  1  0  0  0  0
 40 62  1  0  0  0  0
 41 44  1  0  0  0  0
 41 63  1  0  0  0  0
 42 45  1  0  0  0  0
 42 63  1  0  0  0  0
 43 48  1  0  0  0  0
 43 62  1  0  0  0  0
 44 68  1  0  0  0  0
 45 68  1  0  0  0  0
 46 66  1  0  0  0  0
 47 61  1  0  0  0  0
 48 60  1  0  0  0  0
 49 57  1  0  0  0  0
 50 58  1  0  0  0  0
 51 58  1  0  0  0  0
 52 58  1  0  0  0  0
 53 69  1  0  0  0  0
 54 55  1  0  0  0  0
 54 68  1  0  0  0  0
 55 76  1  0  0  0  0
 56 58  1  0  0  0  0
 56 67  1  0  0  0  0
 57 69  1  0  0  0  0
 59 60  1  0  0  0  0
M  CHG  2  68   1  69   1
M  ISO  4  32 100  55 101  63 100  76 101
M  END
> <Batch ID>
0186

> <Smiles>
CNC(C)C(=O)NC(C(=O)N1Cc2cc([101O:1][101CH2:1]CN3CC[100N:0]([100C:0](=O)N4CCCC(n5nc(-c6ccc(Oc7ccc(F)cc7F)cc6)c(C(N)=O)c5N)C4)CC3)ccc2CC1C(=O)NC1CCCc2ccccc21)C(C)(C)C

> <Shape>
0.253

> <Color>
0.093

> <Negative vol penalty>
0.000

$$$$

  -OEChem-04052323143D

 83 92  0     1  0  0  0  0  0999 V2000
  -25.1862  -35.1467   20.7199 C   0  0  0  0  0  0  0  0  0  0  0  0
  -25.8254  -33.9146   20.6268 C   0  0  0  0  0  0  0  0  0  0  0  0
  -21.3467  -14.2083   21.6606 C   0  0  0  0  0  0  0  0  0  0  0  0
  -21.3942  -14.2501   19.2454 C   0  0  0  0  0  0  0  0  0  0  0  0
  -24.1041  -35.3058   21.5846 C   0  0  0  0  0  0  0  0  0  0  0  0
  -25.3835  -32.8410   21.3991 C   0  0  0  0  0  0  0  0  0  0  0  0
  -25.0785  -28.5366   18.7488 C   0  0  0  0  0  0  0  0  0  0  0  0
  -19.9899  -14.5311   21.6395 C   0  0  0  0  0  0  0  0  0  0  0  0
  -20.0374  -14.5729   19.2243 C   0  0  0  0  0  0  0  0  0  0  0  0
  -26.2699  -27.8570   18.4989 C   0  0  0  0  0  0  0  0  0  0  0  0
  -18.1232  -17.3220   19.6816 C   0  0  0  0  0  0  0  0  0  0  0  0
  -17.7121  -18.3378   18.8186 C   0  0  0  0  0  0  0  0  0  0  0  0
  -25.7792  -26.3425   20.3112 C   0  0  0  0  0  0  0  0  0  0  0  0
  -16.2596  -16.7805   17.6774 C   0  0  0  0  0  0  0  0  0  0  0  0
  -22.0489  -14.0678   20.4635 C   0  0  0  0  0  0  0  0  0  0  0  0
  -24.0188  -12.4469   20.4733 C   0  0  0  0  0  0  0  0  0  0  0  0
  -23.6426  -34.2310   22.3607 C   0  0  0  0  0  0  0  0  0  0  0  0
  -24.2324  -28.1302   19.7906 C   0  0  0  0  0  0  0  0  0  0  0  0
  -24.2950  -32.9862   22.2760 C   0  0  0  0  0  0  0  0  0  0  0  0
  -24.5764  -27.0170   20.5706 C   0  0  0  0  0  0  0  0  0  0  0  0
  -19.3352  -14.7134   20.4214 C   0  0  0  0  0  0  0  0  0  0  0  0
  -26.6218  -26.7615   19.2819 C   0  0  0  0  0  0  0  0  0  0  0  0
  -17.6026  -16.0354   19.5424 C   0  0  0  0  0  0  0  0  0  0  0  0
  -16.7803  -18.0671   17.8166 C   0  0  0  0  0  0  0  0  0  0  0  0
  -16.6708  -15.7647   18.5404 C   0  0  0  0  0  0  0  0  0  0  0  0
  -23.4506  -13.7349   20.4847 C   0  0  0  0  0  0  0  0  0  0  0  0
  -25.3738  -12.6691   20.5030 C   0  0  0  0  0  0  0  0  0  0  0  0
  -31.6207  -24.6366   19.2352 C   0  0  0  0  0  0  0  0  0  0  0  0
  -29.4044  -24.4066   19.5027 C   0  0  0  0  0  0  0  0  0  0  0  0
  -30.6338  -22.6722   18.7835 C   0  0  0  0  0  0  0  0  0  0  0  0
  -23.3788  -11.1644   20.4390 C   0  0  0  0  0  0  0  0  0  0  0  0
  -23.1612  -29.4745   22.4644 C   0  0  0  0  0  0  0  0  0  0  0  0
  -21.3703  -26.7757   22.6422 C   0  0  0  0  0  0  0  0  0  0  0  0
  -20.9708  -23.5010   21.7686 C   0  0  0  0  0  0  0  0  0  0  0  0
  -28.5648  -17.3145   18.6746 C   0  0  0  0  0  0  0  0  0  0  0  0
  -22.4990  -34.4639   23.3162 C   0  0  0  0  0  0  0  0  0  0  0  0
  -22.9377  -28.8575   20.0302 C   0  0  0  0  0  0  0  0  0  0  0  0
  -23.6928  -26.5281   21.6881 C   0  0  0  0  0  0  0  0  0  0  0  0
  -21.8561  -33.1751   23.8223 C   0  0  0  0  0  0  0  0  0  0  0  0
  -28.6358  -15.7974   22.0103 C   0  0  0  0  0  0  0  0  0  0  0  0
  -22.9268  -32.1792   24.2565 C   0  0  0  0  0  0  0  0  0  0  0  0
  -27.3228  -15.0215   22.0067 C   0  0  0  0  0  0  0  0  0  0  0  0
  -28.5427  -17.1017   21.2175 C   0  0  0  0  0  0  0  0  0  0  0  0
  -26.7255  -16.1400   19.8304 C   0  0  0  0  0  0  0  0  0  0  0  0
  -29.9726  -19.1357   17.5668 C   0  0  0  0  0  0  0  0  0  0  0  0
  -29.3771  -19.6481   19.5441 C   0  0  0  0  0  0  0  0  0  0  0  0
  -23.8293  -31.7911   23.0791 C   0  0  1  0  0  0  0  0  0  0  0  0
  -22.4014  -28.6721   21.4463 C   0  0  1  0  0  0  0  0  0  0  0  0
  -26.8337  -14.7980   20.5679 C   0  0  2  0  0  0  0  0  0  0  0  0
  -29.6159  -20.4550   18.2608 C   0  0  0  0  0  0  0  0  0  0  0  0
  -32.8491  -25.4781   19.3057 C   0  0  0  0  0  0  0  0  0  0  0  0
  -19.4286  -21.5487   22.0968 C   0  0  0  0  0  0  0  0  0  0  0  0
  -22.4836  -26.3721   25.4543 C   0  0  0  0  0  0  0  0  0  0  0  0
  -21.6886  -24.0001   25.3532 C   0  0  0  0  0  0  0  0  0  0  0  0
  -20.0449  -25.8715   25.2160 C   0  0  0  0  0  0  0  0  0  0  0  0
  -20.3927  -23.3221   18.8716 C   0  0  0  0  0  0  0  0  0  0  0  0
  -28.0829  -24.9833   19.8812 C   0  0  0  0  0  0  0  0  0  1  0  0
  -21.5594  -25.4050   23.2459 C   0  0  1  0  0  0  0  0  0  0  0  0
  -19.7746  -22.7432   21.2214 C   0  0  2  0  0  0  0  0  0  0  0  0
  -21.4620  -25.4223   24.7976 C   0  0  0  0  0  0  0  0  0  0  0  0
  -24.3696  -14.7036   20.5190 N   0  0  0  0  0  0  0  0  0  0  0  0
  -30.4664  -25.2233   19.5911 N   0  0  0  0  0  0  0  0  0  0  0  0
  -31.7809  -23.3689   18.8222 N   0  0  0  0  0  0  0  0  0  0  0  0
  -29.4114  -23.1231   19.1081 N   0  0  0  0  0  0  0  0  0  0  0  0
  -25.5290  -14.0239   20.5296 N   0  0  0  0  0  0  0  0  0  0  0  0
  -22.4405  -27.2762   21.8872 N   0  0  0  0  0  0  0  0  0  0  0  0
  -27.9872  -16.8886   19.8756 N   0  0  0  0  0  0  0  0  0  0  0  0
  -29.3048  -18.4740   18.6853 N   0  0  0  0  0  0  0  0  0  0  0  0
  -26.4359  -11.8358   20.5087 N   0  0  0  0  0  0  0  0  0  0  0  0
  -21.9783  -11.1170   20.4114 N   0  0  0  0  0  0  0  0  0  0  0  0
  -30.7210  -21.3410   18.3622 N   0  0  0  0  0  0  0  0  0  0  0  0
  -23.1602  -30.8351   22.2231 N   0  0  0  0  0  0  0  0  0  0  0  0
  -20.5856  -24.5348   22.5958 N   0  0  0  0  0  0  0  0  0  0  0  0
  -20.0598  -22.2498   19.8444 N   0  3  0  0  0  0  0  0  0  0  0  0
  -24.0293  -10.0919   20.4496 O   0  0  0  0  0  0  0  0  0  0  0  0
  -23.7067  -28.9018   23.4004 O   0  0  0  0  0  0  0  0  0  0  0  0
  -20.3093  -27.3771   22.8276 O   0  0  0  0  0  0  0  0  0  0  0  0
  -22.1309  -23.2031   21.4931 O   0  0  0  0  0  0  0  0  0  0  0  0
  -28.4001  -16.6958   17.6148 O   0  0  0  0  0  0  0  0  0  0  0  0
  -18.0112  -15.0282   20.4004 O   0  0  0  0  0  0  0  0  0  0  0  0
  -27.7924  -26.0923   19.0389 O   0  0  0  0  0  0  0  0  0  1  0  0
  -16.3844  -19.0430   16.9889 F   0  0  0  0  0  0  0  0  0  0  0  0
  -16.1663  -14.5309   18.4026 F   0  0  0  0  0  0  0  0  0  0  0  0
  1  2  1  0  0  0  0
  1  5  2  0  0  0  0
  2  6  2  0  0  0  0
  3  8  2  0  0  0  0
  3 15  1  0  0  0  0
  4  9  1  0  0  0  0
  4 15  2  0  0  0  0
  5 17  1  0  0  0  0
  6 19  1  0  0  0  0
  7 10  2  0  0  0  0
  7 18  1  0  0  0  0
  8 21  1  0  0  0  0
  9 21  2  0  0  0  0
 10 22  1  0  0  0  0
 11 12  2  0  0  0  0
 11 23  1  0  0  0  0
 12 24  1  0  0  0  0
 13 20  1  0  0  0  0
 13 22  2  0  0  0  0
 14 24  2  0  0  0  0
 14 25  1  0  0  0  0
 15 26  1  0  0  0  0
 16 26  1  0  0  0  0
 16 27  2  0  0  0  0
 16 31  1  0  0  0  0
 17 19  2  0  0  0  0
 17 36  1  0  0  0  0
 18 20  2  0  0  0  0
 18 37  1  0  0  0  0
 19 47  1  0  0  0  0
 20 38  1  0  0  0  0
 21 80  1  0  0  0  0
 22 81  1  0  0  0  0
 23 25  2  0  0  0  0
 23 80  1  0  0  0  0
 24 82  1  0  0  0  0
 25 83  1  0  0  0  0
 26 61  2  0  0  0  0
 27 65  1  0  0  0  0
 27 69  1  0  0  0  0
 28 51  1  0  0  0  0
 28 62  2  0  0  0  0
 28 63  1  0  0  0  0
 29 57  1  0  0  0  0
 29 62  1  0  0  0  0
 29 64  2  0  0  0  0
 30 63  2  0  0  0  0
 30 64  1  0  0  0  0
 30 71  1  0  0  0  0
 31 70  1  0  0  0  0
 31 75  2  0  0  0  0
 32 48  1  0  0  0  0
 32 72  1  0  0  0  0
 32 76  2  0  0  0  0
 33 58  1  0  0  0  0
 33 66  1  0  0  0  0
 33 77  2  0  0  0  0
 34 59  1  0  0  0  0
 34 73  1  0  0  0  0
 34 78  2  0  0  0  0
 35 67  1  0  0  0  0
 35 68  1  0  0  0  0
 35 79  2  0  0  0  0
 36 39  1  0  0  0  0
 37 48  1  0  0  0  0
 38 66  1  0  0  0  0
 39 41  1  0  0  0  0
 40 42  1  0  0  0  0
 40 43  1  0  0  0  0
 41 47  1  0  0  0  0
 42 49  1  0  0  0  0
 43 67  1  0  0  0  0
 44 49  1  0  0  0  0
 44 67  1  0  0  0  0
 45 50  1  0  0  0  0
 45 68  1  0  0  0  0
 46 50  1  0  0  0  0
 46 68  1  0  0  0  0
 47 72  1  0  0  0  0
 48 66  1  0  0  0  0
 49 65  1  0  0  0  0
 50 71  1  0  0  0  0
 52 59  1  0  0  0  0
 53 60  1  0  0  0  0
 54 60  1  0  0  0  0
 55 60  1  0  0  0  0
 56 74  1  0  0  0  0
 57 81  1  0  0  0  0
 58 60  1  0  0  0  0
 58 73  1  0  0  0  0
 59 74  1  0  0  0  0
 61 65  1  0  0  0  0
M  CHG  1  74   1
M  ISO  4  35 100  57 101  68 100  81 101
M  END
> <Batch ID>
0186

> <Smiles>
CNC(C)C(=O)NC(C(=O)N1Cc2cc([101O:1][101CH2:1]c3nc(C)nc(NC4C[100N:0]([100C:0](=O)N5CCCC(n6nc(-c7ccc(Oc8ccc(F)cc8F)cc7)c(C(N)=O)c6N)C5)C4)n3)ccc2CC1C(=O)NC1CCCc2ccccc21)C(C)(C)C

> <Shape>
0.215

> <Color>
0.080

> <Negative vol penalty>
0.000

$$$$

  -OEChem-04052323143D

 83 92  0     1  0  0  0  0  0999 V2000
  -24.0249  -30.8003   25.4525 C   0  0  0  0  0  0  0  0  0  0  0  0
  -23.8157  -29.4675   25.1130 C   0  0  0  0  0  0  0  0  0  0  0  0
  -23.1897   -9.7652   19.9553 C   0  0  0  0  0  0  0  0  0  0  0  0
  -23.4605  -10.0568   22.3383 C   0  0  0  0  0  0  0  0  0  0  0  0
  -24.2517  -31.7457   24.4532 C   0  0  0  0  0  0  0  0  0  0  0  0
  -23.8320  -29.0795   23.7738 C   0  0  0  0  0  0  0  0  0  0  0  0
  -25.8745  -23.7710   21.5036 C   0  0  0  0  0  0  0  0  0  0  0  0
  -22.3963   -8.6408   20.1830 C   0  0  0  0  0  0  0  0  0  0  0  0
  -22.6670   -8.9324   22.5661 C   0  0  0  0  0  0  0  0  0  0  0  0
  -25.2201  -22.6015   21.1191 C   0  0  0  0  0  0  0  0  0  0  0  0
  -23.0262   -5.5716   22.4830 C   0  0  0  0  0  0  0  0  0  0  0  0
  -23.4679   -4.6477   23.4301 C   0  0  0  0  0  0  0  0  0  0  0  0
  -25.2094  -23.3668   18.8314 C   0  0  0  0  0  0  0  0  0  0  0  0
  -21.4535   -5.0026   24.7159 C   0  0  0  0  0  0  0  0  0  0  0  0
  -23.7218  -10.4732   21.0330 C   0  0  0  0  0  0  0  0  0  0  0  0
  -24.1117  -12.9700   20.6841 C   0  0  0  0  0  0  0  0  0  0  0  0
  -24.2805  -31.3674   23.1016 C   0  0  0  0  0  0  0  0  0  0  0  0
  -26.1921  -24.7537   20.5549 C   0  0  0  0  0  0  0  0  0  0  0  0
  -24.0581  -30.0209   22.7553 C   0  0  0  0  0  0  0  0  0  0  0  0
  -25.8701  -24.5467   19.2060 C   0  0  0  0  0  0  0  0  0  0  0  0
  -22.1349   -8.2244   21.4884 C   0  0  0  0  0  0  0  0  0  0  0  0
  -24.8848  -22.4005   19.7833 C   0  0  0  0  0  0  0  0  0  0  0  0
  -21.7981   -6.2110   22.6524 C   0  0  0  0  0  0  0  0  0  0  0  0
  -22.6816   -4.3632   24.5465 C   0  0  0  0  0  0  0  0  0  0  0  0
  -21.0118   -5.9265   23.7688 C   0  0  0  0  0  0  0  0  0  0  0  0
  -24.5419  -11.6344   20.7984 C   0  0  0  0  0  0  0  0  0  0  0  0
  -25.2644  -13.6845   20.4666 C   0  0  0  0  0  0  0  0  0  0  0  0
  -22.7886  -13.5158   20.7673 C   0  0  0  0  0  0  0  0  0  0  0  0
  -25.3798  -27.7956   20.1183 C   0  0  0  0  0  0  0  0  0  0  0  0
  -27.5835  -27.6374   17.7432 C   0  0  0  0  0  0  0  0  0  0  0  0
  -29.3228  -25.7096   15.5285 C   0  0  0  0  0  0  0  0  0  0  0  0
  -30.1369  -14.4380   18.0903 C   0  0  0  0  0  0  0  0  0  0  0  0
  -24.4824  -32.4331   22.0537 C   0  0  0  0  0  0  0  0  0  0  0  0
  -26.9220  -25.9977   20.9816 C   0  0  0  0  0  0  0  0  0  0  0  0
  -26.2070  -25.5617   18.1455 C   0  0  0  0  0  0  0  0  0  0  0  0
  -24.8564  -31.8760   20.6825 C   0  0  0  0  0  0  0  0  0  0  0  0
  -30.1154  -12.3222   20.8245 C   0  0  0  0  0  0  0  0  0  0  0  0
  -23.9459  -30.7089   20.3140 C   0  0  0  0  0  0  0  0  0  0  0  0
  -28.6296  -12.0556   21.0646 C   0  0  0  0  0  0  0  0  0  0  0  0
  -26.2444  -19.3071   15.4862 C   0  0  0  0  0  0  0  0  0  0  0  0
  -25.5789  -18.1904   14.7361 C   0  0  0  0  0  0  0  0  0  0  0  0
  -30.4372  -12.3179   19.3344 C   0  0  0  0  0  0  0  0  0  0  0  0
  -29.5254  -16.7369   17.4320 C   0  0  0  0  0  0  0  0  0  0  0  0
  -28.3949  -14.8629   16.3129 C   0  0  0  0  0  0  0  0  0  0  0  0
  -28.2253  -17.5364   17.3549 C   0  0  0  0  0  0  0  0  0  0  0  0
  -27.1085  -15.6835   16.2649 C   0  0  0  0  0  0  0  0  0  0  0  0
  -28.1386  -13.0354   18.7697 C   0  0  0  0  0  0  0  0  0  0  0  0
  -24.0930  -29.5569   21.3153 C   0  0  1  0  0  0  0  0  0  0  0  0
  -26.7376  -27.1609   20.0119 C   0  0  1  0  0  0  0  0  0  0  0  0
  -27.7557  -13.0370   20.2633 C   0  0  1  0  0  0  0  0  0  0  0  0
  -26.1617  -17.9305   16.1075 C   0  0  0  0  0  0  0  0  0  0  0  0
  -31.0239  -25.8688   13.6904 C   0  0  0  0  0  0  0  0  0  0  0  0
  -25.4360  -28.6937   15.8505 C   0  0  0  0  0  0  0  0  0  0  0  0
  -26.8558  -27.9402   13.9310 C   0  0  0  0  0  0  0  0  0  0  0  0
  -27.7084  -29.6787   15.5036 C   0  0  0  0  0  0  0  0  0  0  0  0
  -31.2471  -24.0133   17.0046 C   0  0  0  0  0  0  0  0  0  0  0  0
  -25.2012  -17.7378   17.2495 C   0  0  0  0  0  0  0  0  0  0  0  0
  -24.3180  -18.8552   19.3013 C   0  0  0  0  0  0  0  0  0  0  0  0
  -24.5069  -20.0843   20.1684 C   0  0  0  0  0  0  0  0  0  1  0  0
  -27.5518  -27.2770   16.2776 C   0  0  1  0  0  0  0  0  0  0  0  0
  -30.7994  -25.6592   15.1799 C   0  0  2  0  0  0  0  0  0  0  0  0
  -26.8798  -28.3789   15.4107 C   0  0  0  0  0  0  0  0  0  0  0  0
  -25.8646  -11.5055   20.6644 N   0  0  0  0  0  0  0  0  0  0  0  0
  -26.2755  -12.7692   20.4636 N   0  0  0  0  0  0  0  0  0  0  0  0
  -26.9152  -26.7646   18.6135 N   0  0  0  0  0  0  0  0  0  0  0  0
  -29.5834  -13.2574   18.6079 N   0  0  0  0  0  0  0  0  0  0  0  0
  -29.2647  -15.3007   17.4095 N   0  0  0  0  0  0  0  0  0  0  0  0
  -27.4039  -17.1224   16.2087 N   0  0  0  0  0  0  0  0  0  0  0  0
  -25.5015  -15.0003   20.2794 N   0  0  0  0  0  0  0  0  0  0  0  0
  -21.7179  -12.6406   20.9952 N   0  0  0  0  0  0  0  0  0  0  0  0
  -25.3050  -28.8108   21.0528 N   0  0  0  0  0  0  0  0  0  0  0  0
  -28.9290  -26.9775   15.9010 N   0  0  0  0  0  0  0  0  0  0  0  0
  -31.3768  -24.3392   15.5610 N   0  3  0  0  0  0  0  0  0  0  0  0
  -25.2706  -18.9085   18.1594 N   0  3  0  0  0  0  0  0  0  0  0  0
  -22.5606  -14.7413   20.6267 O   0  0  0  0  0  0  0  0  0  0  0  0
  -24.4680  -27.3950   19.4043 O   0  0  0  0  0  0  0  0  0  0  0  0
  -28.1854  -28.6521   18.1035 O   0  0  0  0  0  0  0  0  0  0  0  0
  -28.5910  -24.7238   15.4721 O   0  0  0  0  0  0  0  0  0  0  0  0
  -31.3356  -14.7100   18.2313 O   0  0  0  0  0  0  0  0  0  0  0  0
  -21.3606   -7.1274   21.7109 O   0  0  0  0  0  0  0  0  0  0  0  0
  -24.2409  -21.2520   19.4028 O   0  0  0  0  0  0  0  0  0  1  0  0
  -23.1052   -3.4748   25.4551 F   0  0  0  0  0  0  0  0  0  0  0  0
  -19.8305   -6.5368   23.9364 F   0  0  0  0  0  0  0  0  0  0  0  0
  1  2  1  0  0  0  0
  1  5  2  0  0  0  0
  2  6  2  0  0  0  0
  3  8  2  0  0  0  0
  3 15  1  0  0  0  0
  4  9  1  0  0  0  0
  4 15  2  0  0  0  0
  5 17  1  0  0  0  0
  6 19  1  0  0  0  0
  7 10  2  0  0  0  0
  7 18  1  0  0  0  0
  8 21  1  0  0  0  0
  9 21  2  0  0  0  0
 10 22  1  0  0  0  0
 11 12  2  0  0  0  0
 11 23  1  0  0  0  0
 12 24  1  0  0  0  0
 13 20  1  0  0  0  0
 13 22  2  0  0  0  0
 14 24  2  0  0  0  0
 14 25  1  0  0  0  0
 15 26  1  0  0  0  0
 16 26  1  0  0  0  0
 16 27  2  0  0  0  0
 16 28  1  0  0  0  0
 17 19  2  0  0  0  0
 17 33  1  0  0  0  0
 18 20  2  0  0  0  0
 18 34  1  0  0  0  0
 19 48  1  0  0  0  0
 20 35  1  0  0  0  0
 21 80  1  0  0  0  0
 22 81  1  0  0  0  0
 23 25  2  0  0  0  0
 23 80  1  0  0  0  0
 24 82  1  0  0  0  0
 25 83  1  0  0  0  0
 26 63  2  0  0  0  0
 27 64  1  0  0  0  0
 27 69  1  0  0  0  0
 28 70  1  0  0  0  0
 28 75  2  0  0  0  0
 29 49  1  0  0  0  0
 29 71  1  0  0  0  0
 29 76  2  0  0  0  0
 30 60  1  0  0  0  0
 30 65  1  0  0  0  0
 30 77  2  0  0  0  0
 31 61  1  0  0  0  0
 31 72  1  0  0  0  0
 31 78  2  0  0  0  0
 32 66  1  0  0  0  0
 32 67  1  0  0  0  0
 32 79  2  0  0  0  0
 33 36  1  0  0  0  0
 34 49  1  0  0  0  0
 35 65  1  0  0  0  0
 36 38  1  0  0  0  0
 37 39  1  0  0  0  0
 37 42  1  0  0  0  0
 38 48  1  0  0  0  0
 39 50  1  0  0  0  0
 40 41  1  0  0  0  0
 40 51  1  0  0  0  0
 41 51  1  0  0  0  0
 42 66  1  0  0  0  0
 43 45  1  0  0  0  0
 43 67  1  0  0  0  0
 44 46  1  0  0  0  0
 44 67  1  0  0  0  0
 45 68  1  0  0  0  0
 46 68  1  0  0  0  0
 47 50  1  0  0  0  0
 47 66  1  0  0  0  0
 48 71  1  0  0  0  0
 49 65  1  0  0  0  0
 50 64  1  0  0  0  0
 51 57  1  0  0  0  0
 51 68  1  0  0  0  0
 52 61  1  0  0  0  0
 53 62  1  0  0  0  0
 54 62  1  0  0  0  0
 55 62  1  0  0  0  0
 56 73  1  0  0  0  0
 57 74  1  0  0  0  0
 58 59  1  0  0  0  0
 58 74  1  0  0  0  0
 59 81  1  0  0  0  0
 60 62  1  0  0  0  0
 60 72  1  0  0  0  0
 61 73  1  0  0  0  0
 63 64  1  0  0  0  0
M  CHG  2  73   1  74   1
M  ISO  4  32 100  59 101  67 100  81 101
M  END
> <Batch ID>
0186

> <Smiles>
CNC(C)C(=O)NC(C(=O)N1Cc2cc([101O:1][101CH2:1]CNCC3(N4CC[100N:0]([100C:0](=O)N5CCCC(n6nc(-c7ccc(Oc8ccc(F)cc8F)cc7)c(C(N)=O)c6N)C5)CC4)CC3)ccc2CC1C(=O)NC1CCCc2ccccc21)C(C)(C)C

> <Shape>
0.236

> <Color>
0.184

> <Negative vol penalty>
0.000

$$$$

  -OEChem-04052323143D

 84 93  0     1  0  0  0  0  0999 V2000
  -16.8764  -29.5279   24.4033 C   0  0  0  0  0  0  0  0  0  0  0  0
  -17.8597  -28.6478   24.8437 C   0  0  0  0  0  0  0  0  0  0  0  0
  -23.0703  -10.4074   20.6735 C   0  0  0  0  0  0  0  0  0  0  0  0
  -24.4618   -9.1437   22.1914 C   0  0  0  0  0  0  0  0  0  0  0  0
  -16.9298  -30.0392   23.1073 C   0  0  0  0  0  0  0  0  0  0  0  0
  -18.8966  -28.2777   23.9879 C   0  0  0  0  0  0  0  0  0  0  0  0
  -25.8380  -26.5095   24.0662 C   0  0  0  0  0  0  0  0  0  0  0  0
  -22.1856   -9.3324   20.5895 C   0  0  0  0  0  0  0  0  0  0  0  0
  -23.5770   -8.0686   22.1074 C   0  0  0  0  0  0  0  0  0  0  0  0
  -26.6992  -25.5071   23.6220 C   0  0  0  0  0  0  0  0  0  0  0  0
  -20.5852   -7.1989   23.4164 C   0  0  0  0  0  0  0  0  0  0  0  0
  -20.2270   -6.5620   24.6044 C   0  0  0  0  0  0  0  0  0  0  0  0
  -26.7329  -26.5155   21.4308 C   0  0  0  0  0  0  0  0  0  0  0  0
  -21.1382   -4.4871   23.7669 C   0  0  0  0  0  0  0  0  0  0  0  0
  -24.2085  -10.3131   21.4744 C   0  0  0  0  0  0  0  0  0  0  0  0
  -25.0841  -12.4866   22.4827 C   0  0  0  0  0  0  0  0  0  0  0  0
  -17.9732  -29.6828   22.2384 C   0  0  0  0  0  0  0  0  0  0  0  0
  -25.4084  -27.5180   23.1917 C   0  0  0  0  0  0  0  0  0  0  0  0
  -18.9633  -28.7838   22.6786 C   0  0  0  0  0  0  0  0  0  0  0  0
  -25.8683  -27.5310   21.8671 C   0  0  0  0  0  0  0  0  0  0  0  0
  -28.2317  -22.3619   20.8767 C   0  0  0  0  0  0  0  0  0  0  0  0
  -22.4389   -8.1630   21.3064 C   0  0  0  0  0  0  0  0  0  0  0  0
  -27.1445  -25.5084   22.3033 C   0  0  0  0  0  0  0  0  0  0  0  0
  -21.2199   -6.4799   22.4035 C   0  0  0  0  0  0  0  0  0  0  0  0
  -20.5035   -5.2061   24.7797 C   0  0  0  0  0  0  0  0  0  0  0  0
  -21.4964   -5.1240   22.5787 C   0  0  0  0  0  0  0  0  0  0  0  0
  -25.1231  -11.4231   21.5612 C   0  0  0  0  0  0  0  0  0  0  0  0
  -27.5679  -21.2657   20.3651 C   0  0  0  0  0  0  0  0  0  0  0  0
  -27.4284  -23.3861   21.3348 C   0  0  0  0  0  0  0  0  0  1  0  0
  -26.1617  -13.2700   22.1486 C   0  0  0  0  0  0  0  0  0  0  0  0
  -25.5517  -22.2301   20.7793 C   0  0  0  0  0  0  0  0  0  0  0  0
  -24.1569  -12.7434   23.5458 C   0  0  0  0  0  0  0  0  0  0  0  0
  -22.5902  -28.4514   22.0558 C   0  0  0  0  0  0  0  0  0  0  0  0
  -24.3419  -30.8651   20.7798 C   0  0  0  0  0  0  0  0  0  0  0  0
  -27.3829  -31.9876   19.7126 C   0  0  0  0  0  0  0  0  0  0  0  0
  -29.0710  -15.8045   18.0268 C   0  0  0  0  0  0  0  0  0  0  0  0
  -17.9627  -30.2244   20.8308 C   0  0  0  0  0  0  0  0  0  0  0  0
  -24.5006  -28.6072   23.6935 C   0  0  0  0  0  0  0  0  0  0  0  0
  -25.4527  -28.6027   20.8938 C   0  0  0  0  0  0  0  0  0  0  0  0
  -19.3004  -30.0749   20.1107 C   0  0  0  0  0  0  0  0  0  0  0  0
  -30.0354  -12.4040   19.0164 C   0  0  0  0  0  0  0  0  0  0  0  0
  -19.8570  -28.6680   20.3051 C   0  0  0  0  0  0  0  0  0  0  0  0
  -28.8152  -11.9209   19.8017 C   0  0  0  0  0  0  0  0  0  0  0  0
  -27.3476  -18.0087   20.4117 C   0  0  0  0  0  0  0  0  0  0  0  0
  -29.6556  -13.4088   17.9311 C   0  0  0  0  0  0  0  0  0  0  0  0
  -27.2869  -16.6966   19.6367 C   0  0  0  0  0  0  0  0  0  0  0  0
  -27.6428  -14.0683   19.1908 C   0  0  0  0  0  0  0  0  0  0  0  0
  -28.7761  -18.2147   18.5221 C   0  0  0  0  0  0  0  0  0  0  0  0
  -20.1176  -28.3779   21.7881 C   0  0  1  0  0  0  0  0  0  0  0  0
  -23.7188  -29.2946   22.5783 C   0  0  1  0  0  0  0  0  0  0  0  0
  -27.9931  -13.1084   20.3362 C   0  0  1  0  0  0  0  0  0  0  0  0
  -27.7568  -19.0030   19.3306 C   0  0  2  0  0  0  0  0  0  0  0  0
  -29.7165  -22.4490   20.9373 C   0  0  0  0  0  0  0  0  0  0  0  0
  -24.0634  -22.1569   20.7253 C   0  0  0  0  0  0  0  0  0  0  0  0
  -28.4940  -33.9891   18.6844 C   0  0  0  0  0  0  0  0  0  0  0  0
  -23.1404  -30.1376   18.0711 C   0  0  0  0  0  0  0  0  0  0  0  0
  -24.9497  -31.4849   16.9849 C   0  0  0  0  0  0  0  0  0  0  0  0
  -23.3154  -32.5937   18.5089 C   0  0  0  0  0  0  0  0  0  0  0  0
  -29.1732  -32.3361   22.0434 C   0  0  0  0  0  0  0  0  0  0  0  0
  -25.0870  -31.0761   19.4839 C   0  0  1  0  0  0  0  0  0  0  0  0
  -28.1297  -33.2819   19.9805 C   0  0  2  0  0  0  0  0  0  0  0  0
  -24.1296  -31.3017   18.2798 C   0  0  0  0  0  0  0  0  0  0  0  0
  -26.1444  -11.5191   20.7058 N   0  0  0  0  0  0  0  0  0  0  0  0
  -26.2239  -21.1659   20.3008 N   0  0  0  0  0  0  0  0  0  0  0  0
  -26.0800  -23.3535   21.3013 N   0  0  0  0  0  0  0  0  0  0  0  0
  -26.7571  -12.6524   21.0883 N   0  0  0  0  0  0  0  0  0  0  0  0
  -24.5590  -29.6423   21.4305 N   0  0  0  0  0  0  0  0  0  0  0  0
  -28.8535  -14.5003   18.4842 N   0  0  0  0  0  0  0  0  0  0  0  0
  -28.3266  -16.8275   18.6127 N   0  0  0  0  0  0  0  0  0  0  0  0
  -26.6484  -14.4202   22.6611 N   0  0  0  0  0  0  0  0  0  0  0  0
  -23.1081  -11.8366   23.7511 N   0  0  0  0  0  0  0  0  0  0  0  0
  -28.3230  -20.2027   19.8883 N   0  0  0  0  0  0  0  0  0  0  0  0
  -21.3410  -29.0185   22.2211 N   0  0  0  0  0  0  0  0  0  0  0  0
  -26.0169  -32.1748   19.7219 N   0  0  0  0  0  0  0  0  0  0  0  0
  -29.3850  -33.0088   20.7358 N   0  3  0  0  0  0  0  0  0  0  0  0
  -24.2460  -13.7558   24.2810 O   0  0  0  0  0  0  0  0  0  0  0  0
  -22.8349  -27.3674   21.5394 O   0  0  0  0  0  0  0  0  0  0  0  0
  -23.6003  -31.7555   21.2029 O   0  0  0  0  0  0  0  0  0  0  0  0
  -27.9544  -30.9183   19.5111 O   0  0  0  0  0  0  0  0  0  0  0  0
  -29.9263  -16.0509   17.1661 O   0  0  0  0  0  0  0  0  0  0  0  0
  -21.5756   -7.1139   21.2248 O   0  0  0  0  0  0  0  0  0  0  0  0
  -27.9968  -24.5166   21.8606 O   0  0  0  0  0  0  0  0  0  1  0  0
  -20.1608   -4.5949   25.9213 F   0  0  0  0  0  0  0  0  0  0  0  0
  -22.1070   -4.4283   21.6097 F   0  0  0  0  0  0  0  0  0  0  0  0
  1  2  1  0  0  0  0
  1  5  2  0  0  0  0
  2  6  2  0  0  0  0
  3  8  2  0  0  0  0
  3 15  1  0  0  0  0
  4  9  1  0  0  0  0
  4 15  2  0  0  0  0
  5 17  1  0  0  0  0
  6 19  1  0  0  0  0
  7 10  2  0  0  0  0
  7 18  1  0  0  0  0
  8 22  1  0  0  0  0
  9 22  2  0  0  0  0
 10 23  1  0  0  0  0
 11 12  2  0  0  0  0
 11 24  1  0  0  0  0
 12 25  1  0  0  0  0
 13 20  1  0  0  0  0
 13 23  2  0  0  0  0
 14 25  2  0  0  0  0
 14 26  1  0  0  0  0
 15 27  1  0  0  0  0
 16 27  1  0  0  0  0
 16 30  2  0  0  0  0
 16 32  1  0  0  0  0
 17 19  2  0  0  0  0
 17 37  1  0  0  0  0
 18 20  2  0  0  0  0
 18 38  1  0  0  0  0
 19 49  1  0  0  0  0
 20 39  1  0  0  0  0
 21 28  1  0  0  0  0
 21 29  2  0  0  0  0
 21 53  1  0  0  0  0
 22 81  1  0  0  0  0
 23 82  1  0  0  0  0
 24 26  2  0  0  0  0
 24 81  1  0  0  0  0
 25 83  1  0  0  0  0
 26 84  1  0  0  0  0
 27 63  2  0  0  0  0
 28 64  2  0  0  0  0
 28 72  1  0  0  0  0
 29 65  1  0  0  0  0
 29 82  1  0  0  0  0
 30 66  1  0  0  0  0
 30 70  1  0  0  0  0
 31 54  1  0  0  0  0
 31 64  1  0  0  0  0
 31 65  2  0  0  0  0
 32 71  1  0  0  0  0
 32 76  2  0  0  0  0
 33 50  1  0  0  0  0
 33 73  1  0  0  0  0
 33 77  2  0  0  0  0
 34 60  1  0  0  0  0
 34 67  1  0  0  0  0
 34 78  2  0  0  0  0
 35 61  1  0  0  0  0
 35 74  1  0  0  0  0
 35 79  2  0  0  0  0
 36 68  1  0  0  0  0
 36 69  1  0  0  0  0
 36 80  2  0  0  0  0
 37 40  1  0  0  0  0
 38 50  1  0  0  0  0
 39 67  1  0  0  0  0
 40 42  1  0  0  0  0
 41 43  1  0  0  0  0
 41 45  1  0  0  0  0
 42 49  1  0  0  0  0
 43 51  1  0  0  0  0
 44 46  1  0  0  0  0
 44 52  1  0  0  0  0
 45 68  1  0  0  0  0
 46 69  1  0  0  0  0
 47 51  1  0  0  0  0
 47 68  1  0  0  0  0
 48 52  1  0  0  0  0
 48 69  1  0  0  0  0
 49 73  1  0  0  0  0
 50 67  1  0  0  0  0
 51 66  1  0  0  0  0
 52 72  1  0  0  0  0
 55 61  1  0  0  0  0
 56 62  1  0  0  0  0
 57 62  1  0  0  0  0
 58 62  1  0  0  0  0
 59 75  1  0  0  0  0
 60 62  1  0  0  0  0
 60 74  1  0  0  0  0
 61 75  1  0  0  0  0
 63 66  1  0  0  0  0
M  CHG  1  75   1
M  ISO  4  29 101  36 100  69 100  82 101
M  END
> <Batch ID>
0186

> <Smiles>
CNC(C)C(=O)NC(C(=O)N1Cc2cc([101O:1][101c:1]3nc(C)nc(NC4CC[100N:0]([100C:0](=O)N5CCCC(n6nc(-c7ccc(Oc8ccc(F)cc8F)cc7)c(C(N)=O)c6N)C5)C4)c3C)ccc2CC1C(=O)NC1CCCc2ccccc21)C(C)(C)C

> <Shape>
0.265

> <Color>
0.114

> <Negative vol penalty>
0.000

$$$$

  -OEChem-04052323143D

 86 95  0     1  0  0  0  0  0999 V2000
  -27.2110  -32.6816   27.1551 C   0  0  0  0  0  0  0  0  0  0  0  0
  -26.7580  -31.4014   26.8529 C   0  0  0  0  0  0  0  0  0  0  0  0
  -24.3817   -9.1196   21.3882 C   0  0  0  0  0  0  0  0  0  0  0  0
  -22.4148  -10.4817   21.0518 C   0  0  0  0  0  0  0  0  0  0  0  0
  -26.8932  -33.7485   26.3156 C   0  0  0  0  0  0  0  0  0  0  0  0
  -25.9860  -31.1876   25.7115 C   0  0  0  0  0  0  0  0  0  0  0  0
  -28.1311  -26.5987   20.5898 C   0  0  0  0  0  0  0  0  0  0  0  0
  -23.5829   -7.9771   21.4329 C   0  0  0  0  0  0  0  0  0  0  0  0
  -21.6159   -9.3391   21.0964 C   0  0  0  0  0  0  0  0  0  0  0  0
  -28.3695  -25.5808   19.6661 C   0  0  0  0  0  0  0  0  0  0  0  0
  -22.0250   -4.7397   21.9949 C   0  0  0  0  0  0  0  0  0  0  0  0
  -22.2801   -3.8071   23.0003 C   0  0  0  0  0  0  0  0  0  0  0  0
  -26.4082  -26.2418   18.4154 C   0  0  0  0  0  0  0  0  0  0  0  0
  -21.8329   -5.4901   24.6750 C   0  0  0  0  0  0  0  0  0  0  0  0
  -25.9638  -19.6383   20.5358 C   0  0  0  0  0  0  0  0  0  0  0  0
  -23.7977  -10.3720   21.1977 C   0  0  0  0  0  0  0  0  0  0  0  0
  -25.2169  -12.1308   20.0144 C   0  0  0  0  0  0  0  0  0  0  0  0
  -26.1250  -33.5460   25.1582 C   0  0  0  0  0  0  0  0  0  0  0  0
  -27.0376  -27.4526   20.4212 C   0  0  0  0  0  0  0  0  0  0  0  0
  -25.6565  -32.2530   24.8565 C   0  0  0  0  0  0  0  0  0  0  0  0
  -26.1713  -27.2709   19.3306 C   0  0  0  0  0  0  0  0  0  0  0  0
  -22.2000   -8.0868   21.2870 C   0  0  0  0  0  0  0  0  0  0  0  0
  -27.5101  -25.4027   18.5817 C   0  0  0  0  0  0  0  0  0  0  0  0
  -21.6739   -6.0475   22.3296 C   0  0  0  0  0  0  0  0  0  0  0  0
  -22.1840   -4.1823   24.3403 C   0  0  0  0  0  0  0  0  0  0  0  0
  -21.5779   -6.4227   23.6696 C   0  0  0  0  0  0  0  0  0  0  0  0
  -24.6223  -11.5527   21.1520 C   0  0  0  0  0  0  0  0  0  0  0  0
  -26.2483  -20.8974   20.0478 C   0  0  0  0  0  0  0  0  0  0  0  0
  -26.2345  -19.4418   21.8746 C   0  0  0  0  0  0  0  0  0  0  0  0
  -25.8911  -13.2253   20.4982 C   0  0  0  0  0  0  0  0  0  0  0  0
  -26.9776  -21.5792   22.0899 C   0  0  0  0  0  0  0  0  0  0  0  0
  -25.1645  -11.7156   18.6431 C   0  0  0  0  0  0  0  0  0  0  0  0
  -25.0977  -30.3926   21.7133 C   0  0  0  0  0  0  0  0  0  0  0  0
  -25.1988  -30.6644   18.6594 C   0  0  0  0  0  0  0  0  0  0  0  0
  -25.8988  -30.8189   15.3243 C   0  0  0  0  0  0  0  0  0  0  0  0
  -26.1494  -17.7472   23.7367 C   0  0  0  0  0  0  0  0  0  0  0  0
  -25.7672  -34.7382   24.3066 C   0  0  0  0  0  0  0  0  0  0  0  0
  -26.7072  -28.5236   21.4250 C   0  0  0  0  0  0  0  0  0  0  0  0
  -24.9880  -28.1916   19.2084 C   0  0  0  0  0  0  0  0  0  0  0  0
  -25.2595  -34.3634   22.9166 C   0  0  0  0  0  0  0  0  0  0  0  0
  -26.9253  -14.6204   25.2527 C   0  0  0  0  0  0  0  0  0  0  0  0
  -24.2254  -33.2459   23.0094 C   0  0  0  0  0  0  0  0  0  0  0  0
  -30.3784  -21.2211   18.6147 C   0  0  0  0  0  0  0  0  0  0  0  0
  -30.6857  -19.9956   17.8000 C   0  0  0  0  0  0  0  0  0  0  0  0
  -26.4442  -13.5911   24.2274 C   0  0  0  0  0  0  0  0  0  0  0  0
  -25.9995  -15.8340   25.3154 C   0  0  0  0  0  0  0  0  0  0  0  0
  -25.2546  -15.4516   22.9984 C   0  0  0  0  0  0  0  0  0  0  0  0
  -24.8375  -31.9767   23.6143 C   0  0  1  0  0  0  0  0  0  0  0  0
  -26.1083  -29.7881   20.7835 C   0  0  1  0  0  0  0  0  0  0  0  0
  -29.5461  -20.8939   17.4060 C   0  0  0  0  0  0  0  0  0  0  0  0
  -26.1908  -14.2408   22.8529 C   0  0  2  0  0  0  0  0  0  0  0  0
  -27.5388  -22.6577   22.9537 C   0  0  0  0  0  0  0  0  0  0  0  0
  -25.4786  -32.2215   13.2863 C   0  0  0  0  0  0  0  0  0  0  0  0
  -22.3609  -29.5595   18.4886 C   0  0  0  0  0  0  0  0  0  0  0  0
  -22.3405  -30.1818   16.0636 C   0  0  0  0  0  0  0  0  0  0  0  0
  -22.5919  -31.9532   17.8019 C   0  0  0  0  0  0  0  0  0  0  0  0
  -28.7866  -31.3476   14.9505 C   0  0  0  0  0  0  0  0  0  0  0  0
  -25.9897  -21.2062   18.6025 C   0  0  0  0  0  0  0  0  0  0  0  0
  -28.1164  -20.4261   17.5686 C   0  0  0  0  0  0  0  0  0  0  0  0
  -26.9311  -22.4066   16.6341 C   0  0  0  0  0  0  0  0  0  0  0  0
  -26.6188  -23.8364   17.0293 C   0  0  0  0  0  0  0  0  0  1  0  0
  -24.5214  -30.3856   17.3416 C   0  0  1  0  0  0  0  0  0  0  0  0
  -26.4142  -31.9511   14.4543 C   0  0  2  0  0  0  0  0  0  0  0  0
  -22.9738  -30.5027   17.4343 C   0  0  0  0  0  0  0  0  0  0  0  0
  -24.8948  -12.2243   22.2739 N   0  0  0  0  0  0  0  0  0  0  0  0
  -26.7577  -21.8953   20.7995 N   0  0  0  0  0  0  0  0  0  0  0  0
  -26.7437  -20.3936   22.6841 N   0  0  0  0  0  0  0  0  0  0  0  0
  -25.6682  -13.2356   21.8437 N   0  0  0  0  0  0  0  0  0  0  0  0
  -25.3923  -29.5727   19.5146 N   0  0  0  0  0  0  0  0  0  0  0  0
  -25.8090  -16.3993   23.9778 N   0  0  0  0  0  0  0  0  0  0  0  0
  -26.6469  -14.1702   19.8996 N   0  0  0  0  0  0  0  0  0  0  0  0
  -24.4265  -10.5687   18.3200 N   0  0  0  0  0  0  0  0  0  0  0  0
  -25.9558  -18.1642   22.4202 N   0  0  0  0  0  0  0  0  0  0  0  0
  -25.6338  -31.2796   22.6272 N   0  0  0  0  0  0  0  0  0  0  0  0
  -25.1318  -31.2868   16.3702 N   0  0  0  0  0  0  0  0  0  0  0  0
  -27.7602  -31.6148   13.9103 N   0  3  0  0  0  0  0  0  0  0  0  0
  -27.2337  -21.6160   17.8538 N   0  3  1  0  0  0  0  0  0  0  0  0
  -25.7681  -12.3336   17.7336 O   0  0  0  0  0  0  0  0  0  0  0  0
  -23.9176  -30.0792   21.6094 O   0  0  0  0  0  0  0  0  0  0  0  0
  -25.5429  -31.8188   18.9284 O   0  0  0  0  0  0  0  0  0  0  0  0
  -26.1483  -29.6372   15.0965 O   0  0  0  0  0  0  0  0  0  0  0  0
  -26.6064  -18.4702   24.6258 O   0  0  0  0  0  0  0  0  0  0  0  0
  -21.4202   -6.9721   21.3303 O   0  0  0  0  0  0  0  0  0  0  0  0
  -27.7513  -24.4100   17.6812 O   0  0  0  0  0  0  0  0  0  1  0  0
  -22.4275   -3.2862   25.3057 F   0  0  0  0  0  0  0  0  0  0  0  0
  -21.2398   -7.6774   23.9972 F   0  0  0  0  0  0  0  0  0  0  0  0
  1  2  1  0  0  0  0
  1  5  2  0  0  0  0
  2  6  2  0  0  0  0
  3  8  2  0  0  0  0
  3 16  1  0  0  0  0
  4  9  1  0  0  0  0
  4 16  2  0  0  0  0
  5 18  1  0  0  0  0
  6 20  1  0  0  0  0
  7 10  2  0  0  0  0
  7 19  1  0  0  0  0
  8 22  1  0  0  0  0
  9 22  2  0  0  0  0
 10 23  1  0  0  0  0
 11 12  2  0  0  0  0
 11 24  1  0  0  0  0
 12 25  1  0  0  0  0
 13 21  1  0  0  0  0
 13 23  2  0  0  0  0
 14 25  2  0  0  0  0
 14 26  1  0  0  0  0
 15 28  1  0  0  0  0
 15 29  2  0  0  0  0
 16 27  1  0  0  0  0
 17 27  1  0  0  0  0
 17 30  2  0  0  0  0
 17 32  1  0  0  0  0
 18 20  2  0  0  0  0
 18 37  1  0  0  0  0
 19 21  2  0  0  0  0
 19 38  1  0  0  0  0
 20 48  1  0  0  0  0
 21 39  1  0  0  0  0
 22 83  1  0  0  0  0
 23 84  1  0  0  0  0
 24 26  2  0  0  0  0
 24 83  1  0  0  0  0
 25 85  1  0  0  0  0
 26 86  1  0  0  0  0
 27 65  2  0  0  0  0
 28 58  1  0  0  0  0
 28 66  2  0  0  0  0
 29 67  1  0  0  0  0
 29 73  1  0  0  0  0
 30 68  1  0  0  0  0
 30 71  1  0  0  0  0
 31 52  1  0  0  0  0
 31 66  1  0  0  0  0
 31 67  2  0  0  0  0
 32 72  1  0  0  0  0
 32 78  2  0  0  0  0
 33 49  1  0  0  0  0
 33 74  1  0  0  0  0
 33 79  2  0  0  0  0
 34 62  1  0  0  0  0
 34 69  1  0  0  0  0
 34 80  2  0  0  0  0
 35 63  1  0  0  0  0
 35 75  1  0  0  0  0
 35 81  2  0  0  0  0
 36 70  1  0  0  0  0
 36 73  1  0  0  0  0
 36 82  2  0  0  0  0
 37 40  1  0  0  0  0
 38 49  1  0  0  0  0
 39 69  1  0  0  0  0
 40 42  1  0  0  0  0
 41 45  1  0  0  0  0
 41 46  1  0  0  0  0
 42 48  1  0  0  0  0
 43 44  1  0  0  0  0
 43 50  1  0  0  0  0
 44 50  1  0  0  0  0
 45 51  1  0  0  0  0
 46 70  1  0  0  0  0
 47 51  1  0  0  0  0
 47 70  1  0  0  0  0
 48 74  1  0  0  0  0
 49 69  1  0  0  0  0
 50 59  1  0  0  0  0
 51 68  1  0  0  0  0
 53 63  1  0  0  0  0
 54 64  1  0  0  0  0
 55 64  1  0  0  0  0
 56 64  1  0  0  0  0
 57 76  1  0  0  0  0
 58 77  1  0  0  0  0
 59 77  1  0  0  0  0
 60 61  1  0  0  0  0
 60 77  1  0  0  0  0
 61 84  1  0  0  0  0
 62 64  1  0  0  0  0
 62 75  1  0  0  0  0
 63 76  1  0  0  0  0
 65 68  1  0  0  0  0
M  CHG  2  76   1  77   1
M  ISO  4  36 100  61 101  73 100  84 101
M  END
> <Batch ID>
0186

> <Smiles>
CNC(C)C(=O)NC(C(=O)N1Cc2cc([101O:1][101CH2:1]CN(Cc3cc([100NH:0][100C:0](=O)N4CCCC(n5nc(-c6ccc(Oc7ccc(F)cc7F)cc6)c(C(N)=O)c5N)C4)nc(C)n3)CC3CC3)ccc2CC1C(=O)NC1CCCc2ccccc21)C(C)(C)C

> <Shape>
0.241

> <Color>
0.086

> <Negative vol penalty>
0.000

$$$$

  -OEChem-04052323143D

 81 90  0     1  0  0  0  0  0999 V2000
  -32.5291  -16.0140   32.9834 C   0  0  0  0  0  0  0  0  0  0  0  0
  -32.3204  -16.5860   31.7325 C   0  0  0  0  0  0  0  0  0  0  0  0
  -23.0719   -9.8699   19.9438 C   0  0  0  0  0  0  0  0  0  0  0  0
  -23.8342   -9.8785   22.2364 C   0  0  0  0  0  0  0  0  0  0  0  0
  -31.8609  -16.5169   34.0989 C   0  0  0  0  0  0  0  0  0  0  0  0
  -31.4424  -17.6607   31.5963 C   0  0  0  0  0  0  0  0  0  0  0  0
  -33.3280  -21.3533   28.6887 C   0  0  0  0  0  0  0  0  0  0  0  0
  -22.3285   -8.7168   20.1953 C   0  0  0  0  0  0  0  0  0  0  0  0
  -23.0907   -8.7254   22.4879 C   0  0  0  0  0  0  0  0  0  0  0  0
  -33.2920  -21.1582   27.3087 C   0  0  0  0  0  0  0  0  0  0  0  0
  -22.9015   -5.3986   20.4878 C   0  0  0  0  0  0  0  0  0  0  0  0
  -22.9675   -4.3684   19.5498 C   0  0  0  0  0  0  0  0  0  0  0  0
  -31.3302  -22.5550   27.1686 C   0  0  0  0  0  0  0  0  0  0  0  0
  -20.5826   -4.5337   19.2005 C   0  0  0  0  0  0  0  0  0  0  0  0
  -31.3333  -20.0872   23.3881 C   0  0  0  0  0  0  0  0  0  0  0  0
  -23.8249  -10.4507   20.9643 C   0  0  0  0  0  0  0  0  0  0  0  0
  -24.1663  -12.9758   20.8423 C   0  0  0  0  0  0  0  0  0  0  0  0
  -30.9817  -17.6045   33.9779 C   0  0  0  0  0  0  0  0  0  0  0  0
  -32.3574  -22.1431   29.3215 C   0  0  0  0  0  0  0  0  0  0  0  0
  -30.7608  -18.1778   32.7110 C   0  0  0  0  0  0  0  0  0  0  0  0
  -31.3577  -22.7606   28.5565 C   0  0  0  0  0  0  0  0  0  0  0  0
  -22.3378   -8.1446   21.4674 C   0  0  0  0  0  0  0  0  0  0  0  0
  -32.2913  -21.7568   26.5488 C   0  0  0  0  0  0  0  0  0  0  0  0
  -21.6760   -5.9963   20.7823 C   0  0  0  0  0  0  0  0  0  0  0  0
  -21.8080   -3.9359   18.9061 C   0  0  0  0  0  0  0  0  0  0  0  0
  -20.5166   -5.5639   20.1386 C   0  0  0  0  0  0  0  0  0  0  0  0
  -24.5935  -11.6415   20.7050 C   0  0  0  0  0  0  0  0  0  0  0  0
  -30.5363  -18.9722   23.4781 C   0  0  0  0  0  0  0  0  0  0  0  0
  -31.5249  -20.4915   24.7228 C   0  0  0  0  0  0  0  0  0  1  0  0
  -25.2580  -13.7252   20.4774 C   0  0  0  0  0  0  0  0  0  0  0  0
  -22.8962  -13.4918   21.2622 C   0  0  0  0  0  0  0  0  0  0  0  0
  -30.1270  -21.6194   31.5249 C   0  0  0  0  0  0  0  0  0  0  0  0
  -29.7334  -24.8333   31.3303 C   0  0  0  0  0  0  0  0  0  0  0  0
  -30.0761  -27.6881   29.4919 C   0  0  0  0  0  0  0  0  0  0  0  0
  -30.7418  -14.7451   20.6592 C   0  0  0  0  0  0  0  0  0  0  0  0
  -30.2461  -18.0833   35.2044 C   0  0  0  0  0  0  0  0  0  0  0  0
  -32.4259  -22.3654   30.8076 C   0  0  0  0  0  0  0  0  0  0  0  0
  -30.3041  -23.6343   29.1850 C   0  0  0  0  0  0  0  0  0  0  0  0
  -29.6182  -19.4647   35.0377 C   0  0  0  0  0  0  0  0  0  0  0  0
  -29.6020  -12.3587   18.2753 C   0  0  0  0  0  0  0  0  0  0  0  0
  -28.8767  -19.5570   33.7079 C   0  0  0  0  0  0  0  0  0  0  0  0
  -28.1650  -12.0651   18.7100 C   0  0  0  0  0  0  0  0  0  0  0  0
  -30.7872  -18.1116   21.0151 C   0  0  0  0  0  0  0  0  0  0  0  0
  -30.5203  -12.5805   19.4751 C   0  0  0  0  0  0  0  0  0  0  0  0
  -28.6199  -13.3123   20.8632 C   0  0  0  0  0  0  0  0  0  0  0  0
  -29.8351  -19.3608   32.5270 C   0  0  1  0  0  0  0  0  0  0  0  0
  -30.0170  -18.1247   22.3207 C   0  0  1  0  0  0  0  0  0  0  0  0
  -31.0858  -22.7709   31.4134 C   0  0  1  0  0  0  0  0  0  0  0  0
  -27.6446  -13.1368   19.6867 C   0  0  2  0  0  0  0  0  0  0  0  0
  -30.8086  -16.8965   21.8945 C   0  0  1  0  0  0  0  0  0  0  0  0
  -30.3839  -16.6379   26.0102 C   0  0  0  0  0  0  0  0  0  0  0  0
  -29.6304  -30.1559   29.5843 C   0  0  0  0  0  0  0  0  0  0  0  0
  -26.7685  -24.3141   30.8305 C   0  0  0  0  0  0  0  0  0  0  0  0
  -26.5671  -26.6685   30.0030 C   0  0  0  0  0  0  0  0  0  0  0  0
  -27.2480  -26.2316   32.3627 C   0  0  0  0  0  0  0  0  0  0  0  0
  -32.9504  -28.3352   29.2116 C   0  0  0  0  0  0  0  0  0  0  0  0
  -29.5198  -17.7330   25.4090 C   0  0  0  0  0  0  0  0  0  0  0  0
  -28.8825  -25.7574   30.4930 C   0  0  1  0  0  0  0  0  0  0  0  0
  -30.6428  -29.0515   29.8448 C   0  0  2  0  0  0  0  0  0  0  0  0
  -27.3851  -25.7249   30.9104 C   0  0  0  0  0  0  0  0  0  0  0  0
  -25.8580  -11.5455   20.2854 N   0  0  0  0  0  0  0  0  0  0  0  0
  -30.9001  -19.6979   25.5968 N   0  0  0  0  0  0  0  0  0  0  0  0
  -30.3079  -18.7838   24.8095 N   0  0  0  0  0  0  0  0  0  0  0  0
  -26.2346  -12.8291   20.1559 N   0  0  0  0  0  0  0  0  0  0  0  0
  -30.4099  -23.8161   30.6422 N   0  0  0  0  0  0  0  0  0  0  0  0
  -29.9706  -13.6096   20.3609 N   0  0  0  0  0  0  0  0  0  0  0  0
  -25.4681  -15.0566   20.4032 N   0  0  0  0  0  0  0  0  0  0  0  0
  -21.8847  -12.5827   21.6011 N   0  0  0  0  0  0  0  0  0  0  0  0
  -30.5969  -20.5679   32.2884 N   0  0  0  0  0  0  0  0  0  0  0  0
  -29.4999  -27.0760   30.5849 N   0  0  0  0  0  0  0  0  0  0  0  0
  -30.1434  -15.6744   21.5012 N   0  0  0  0  0  0  0  0  0  0  0  0
  -31.8622  -29.3310   29.0348 N   0  3  0  0  0  0  0  0  0  0  0  0
  -22.6598  -14.7224   21.3189 O   0  0  0  0  0  0  0  0  0  0  0  0
  -29.0407  -21.6809   30.9611 O   0  0  0  0  0  0  0  0  0  0  0  0
  -29.8011  -25.0119   32.5489 O   0  0  0  0  0  0  0  0  0  0  0  0
  -30.1350  -27.2151   28.3591 O   0  0  0  0  0  0  0  0  0  0  0  0
  -31.8772  -14.9204   20.2043 O   0  0  0  0  0  0  0  0  0  0  0  0
  -21.6123   -7.0196   21.7132 O   0  0  0  0  0  0  0  0  0  0  0  0
  -32.2534  -21.5676   25.2017 O   0  0  0  0  0  0  0  0  0  1  0  0
  -21.8718   -2.9477   18.0043 F   0  0  0  0  0  0  0  0  0  0  0  0
  -19.3366   -6.1351   20.4164 F   0  0  0  0  0  0  0  0  0  0  0  0
  1  2  1  0  0  0  0
  1  5  2  0  0  0  0
  2  6  2  0  0  0  0
  3  8  2  0  0  0  0
  3 16  1  0  0  0  0
  4  9  1  0  0  0  0
  4 16  2  0  0  0  0
  5 18  1  0  0  0  0
  6 20  1  0  0  0  0
  7 10  2  0  0  0  0
  7 19  1  0  0  0  0
  8 22  1  0  0  0  0
  9 22  2  0  0  0  0
 10 23  1  0  0  0  0
 11 12  2  0  0  0  0
 11 24  1  0  0  0  0
 12 25  1  0  0  0  0
 13 21  1  0  0  0  0
 13 23  2  0  0  0  0
 14 25  2  0  0  0  0
 14 26  1  0  0  0  0
 15 28  2  0  0  0  0
 15 29  1  0  0  0  0
 16 27  1  0  0  0  0
 17 27  1  0  0  0  0
 17 30  2  0  0  0  0
 17 31  1  0  0  0  0
 18 20  2  0  0  0  0
 18 36  1  0  0  0  0
 19 21  2  0  0  0  0
 19 37  1  0  0  0  0
 20 46  1  0  0  0  0
 21 38  1  0  0  0  0
 22 78  1  0  0  0  0
 23 79  1  0  0  0  0
 24 26  2  0  0  0  0
 24 78  1  0  0  0  0
 25 80  1  0  0  0  0
 26 81  1  0  0  0  0
 27 61  2  0  0  0  0
 28 47  1  0  0  0  0
 28 63  1  0  0  0  0
 29 62  2  0  0  0  0
 29 79  1  0  0  0  0
 30 64  1  0  0  0  0
 30 67  1  0  0  0  0
 31 68  1  0  0  0  0
 31 73  2  0  0  0  0
 32 48  1  0  0  0  0
 32 69  1  0  0  0  0
 32 74  2  0  0  0  0
 33 58  1  0  0  0  0
 33 65  1  0  0  0  0
 33 75  2  0  0  0  0
 34 59  1  0  0  0  0
 34 70  1  0  0  0  0
 34 76  2  0  0  0  0
 35 66  1  0  0  0  0
 35 71  1  0  0  0  0
 35 77  2  0  0  0  0
 36 39  1  0  0  0  0
 37 48  1  0  0  0  0
 38 65  1  0  0  0  0
 39 41  1  0  0  0  0
 40 42  1  0  0  0  0
 40 44  1  0  0  0  0
 41 46  1  0  0  0  0
 42 49  1  0  0  0  0
 43 47  1  0  0  0  0
 43 50  1  0  0  0  0
 44 66  1  0  0  0  0
 45 49  1  0  0  0  0
 45 66  1  0  0  0  0
 46 69  1  0  0  0  0
 47 50  1  0  0  0  0
 48 65  1  0  0  0  0
 49 64  1  0  0  0  0
 50 71  1  0  0  0  0
 51 57  1  0  0  0  0
 52 59  1  0  0  0  0
 53 60  1  0  0  0  0
 54 60  1  0  0  0  0
 55 60  1  0  0  0  0
 56 72  1  0  0  0  0
 57 63  1  0  0  0  0
 58 60  1  0  0  0  0
 58 70  1  0  0  0  0
 59 72  1  0  0  0  0
 61 64  1  0  0  0  0
 62 63  1  0  0  0  0
M  CHG  1  72   1
M  ISO  4  29 101  35 100  71 100  79 101
M  END
> <Batch ID>
0186

> <Smiles>
CCn1n[101c:1]([101O:1]c2ccc3c(c2)CN(C(=O)C(NC(=O)C(C)NC)C(C)(C)C)C(C(=O)NC2CCCc4ccccc42)C3)cc1C1CC1[100NH:0][100C:0](=O)N1CCCC(n2nc(-c3ccc(Oc4ccc(F)cc4F)cc3)c(C(N)=O)c2N)C1

> <Shape>
0.154

> <Color>
0.196

> <Negative vol penalty>
0.000

$$$$

  -OEChem-04052323143D

 84 93  0     1  0  0  0  0  0999 V2000
  -12.7260  -25.7123   21.1876 C   0  0  0  0  0  0  0  0  0  0  0  0
  -13.6425  -24.7241   20.8431 C   0  0  0  0  0  0  0  0  0  0  0  0
  -23.0008   -9.8994   19.9905 C   0  0  0  0  0  0  0  0  0  0  0  0
  -23.7781   -9.9410   22.2777 C   0  0  0  0  0  0  0  0  0  0  0  0
  -13.1140  -26.7621   22.0190 C   0  0  0  0  0  0  0  0  0  0  0  0
  -14.9481  -24.7857   21.3290 C   0  0  0  0  0  0  0  0  0  0  0  0
  -20.3402  -20.5485   23.3996 C   0  0  0  0  0  0  0  0  0  0  0  0
  -22.2477   -8.7584   20.2672 C   0  0  0  0  0  0  0  0  0  0  0  0
  -23.0250   -8.7999   22.5544 C   0  0  0  0  0  0  0  0  0  0  0  0
  -21.6979  -20.3391   23.1617 C   0  0  0  0  0  0  0  0  0  0  0  0
  -23.2795   -5.4656   22.0561 C   0  0  0  0  0  0  0  0  0  0  0  0
  -23.8904   -4.4476   22.7883 C   0  0  0  0  0  0  0  0  0  0  0  0
  -22.2337  -22.1566   24.6547 C   0  0  0  0  0  0  0  0  0  0  0  0
  -22.2038   -4.6692   24.5038 C   0  0  0  0  0  0  0  0  0  0  0  0
  -23.7661  -10.4907   20.9958 C   0  0  0  0  0  0  0  0  0  0  0  0
  -24.1314  -13.0097   20.8268 C   0  0  0  0  0  0  0  0  0  0  0  0
  -14.4223  -26.8315   22.5231 C   0  0  0  0  0  0  0  0  0  0  0  0
  -19.9180  -21.5723   24.2598 C   0  0  0  0  0  0  0  0  0  0  0  0
  -15.3544  -25.8382   22.1668 C   0  0  0  0  0  0  0  0  0  0  0  0
  -20.8701  -22.3753   24.9038 C   0  0  0  0  0  0  0  0  0  0  0  0
  -22.2598   -8.2087   21.5491 C   0  0  0  0  0  0  0  0  0  0  0  0
  -22.6448  -21.1450   23.7870 C   0  0  0  0  0  0  0  0  0  0  0  0
  -22.1307   -6.0855   22.5479 C   0  0  0  0  0  0  0  0  0  0  0  0
  -23.3526   -4.0494   24.0121 C   0  0  0  0  0  0  0  0  0  0  0  0
  -21.5928   -5.6872   23.7717 C   0  0  0  0  0  0  0  0  0  0  0  0
  -24.5446  -11.6690   20.7105 C   0  0  0  0  0  0  0  0  0  0  0  0
  -25.7760  -19.7461   22.5613 C   0  0  0  0  0  0  0  0  0  0  0  0
  -26.5833  -18.7832   23.1197 C   0  0  0  0  0  0  0  0  0  0  0  0
  -25.2280  -13.7417   20.4417 C   0  0  0  0  0  0  0  0  0  0  0  0
  -27.7558  -20.2444   21.9591 C   0  0  0  0  0  0  0  0  0  0  0  0
  -22.8692  -13.5456   21.2456 C   0  0  0  0  0  0  0  0  0  0  0  0
  -18.1597  -24.1993   23.9267 C   0  0  0  0  0  0  0  0  0  0  0  0
  -18.4962  -24.3633   27.1489 C   0  0  0  0  0  0  0  0  0  0  0  0
  -20.3011  -23.5207   29.9200 C   0  0  0  0  0  0  0  0  0  0  0  0
  -30.7486  -14.6483   20.7258 C   0  0  0  0  0  0  0  0  0  0  0  0
  -14.8084  -28.0109   23.3802 C   0  0  0  0  0  0  0  0  0  0  0  0
  -18.4507  -21.7680   24.5267 C   0  0  0  0  0  0  0  0  0  0  0  0
  -20.4695  -23.4748   25.8519 C   0  0  0  0  0  0  0  0  0  0  0  0
  -16.1065  -27.8012   24.1557 C   0  0  0  0  0  0  0  0  0  0  0  0
  -29.5539  -12.3099   18.2463 C   0  0  0  0  0  0  0  0  0  0  0  0
  -17.1863  -27.2273   23.2439 C   0  0  0  0  0  0  0  0  0  0  0  0
  -28.1178  -12.0243   18.6893 C   0  0  0  0  0  0  0  0  0  0  0  0
  -30.4797  -12.5586   19.4360 C   0  0  0  0  0  0  0  0  0  0  0  0
  -28.8712  -16.1886   21.7075 C   0  0  0  0  0  0  0  0  0  0  0  0
  -30.8706  -16.7522   22.1666 C   0  0  0  0  0  0  0  0  0  0  0  0
  -28.5818  -13.2994   20.8158 C   0  0  0  0  0  0  0  0  0  0  0  0
  -16.7728  -25.8569   22.6939 C   0  0  1  0  0  0  0  0  0  0  0  0
  -18.1154  -23.1715   25.0218 C   0  0  1  0  0  0  0  0  0  0  0  0
  -29.5750  -17.5428   21.9161 C   0  0  0  0  0  0  0  0  0  0  0  0
  -27.6029  -13.1156   19.6467 C   0  0  2  0  0  0  0  0  0  0  0  0
  -28.9428  -20.8916   21.3631 C   0  0  0  0  0  0  0  0  0  0  0  0
  -25.9951  -17.9908   25.4246 C   0  0  0  0  0  0  0  0  0  0  0  0
  -20.3489  -23.8321   32.4096 C   0  0  0  0  0  0  0  0  0  0  0  0
  -19.5301  -27.2089   26.7707 C   0  0  0  0  0  0  0  0  0  0  0  0
  -20.4330  -27.1166   29.1040 C   0  0  0  0  0  0  0  0  0  0  0  0
  -17.9784  -26.9118   28.7093 C   0  0  0  0  0  0  0  0  0  0  0  0
  -20.0531  -20.6117   30.4051 C   0  0  0  0  0  0  0  0  0  0  0  0
  -24.3140  -19.8825   22.6575 C   0  0  0  0  0  0  0  0  0  1  0  0
  -26.2797  -17.6150   23.9656 C   0  0  0  0  0  0  0  0  0  0  0  0
  -29.0733  -18.3979   23.0622 C   0  0  0  0  0  0  0  0  0  0  0  0
  -19.4982  -24.9891   28.0887 C   0  0  1  0  0  0  0  0  0  0  0  0
  -19.8790  -22.9513   31.2624 C   0  0  2  0  0  0  0  0  0  0  0  0
  -19.3677  -26.5372   28.1489 C   0  0  0  0  0  0  0  0  0  0  0  0
  -25.8053  -11.5531   20.2847 N   0  0  0  0  0  0  0  0  0  0  0  0
  -26.5119  -20.6525   21.8399 N   0  0  0  0  0  0  0  0  0  0  0  0
  -27.8485  -19.1155   22.7247 N   0  0  0  0  0  0  0  0  0  0  0  0
  -26.1936  -12.8304   20.1300 N   0  0  0  0  0  0  0  0  0  0  0  0
  -19.0227  -23.6309   26.0755 N   0  0  0  0  0  0  0  0  0  0  0  0
  -29.9295  -13.5936   20.3150 N   0  0  0  0  0  0  0  0  0  0  0  0
  -30.2004  -15.6261   21.5223 N   0  0  0  0  0  0  0  0  0  0  0  0
  -25.4507  -15.0694   20.3427 N   0  0  0  0  0  0  0  0  0  0  0  0
  -21.8511  -12.6527   21.6070 N   0  0  0  0  0  0  0  0  0  0  0  0
  -16.9527  -24.8329   23.7007 N   0  0  0  0  0  0  0  0  0  0  0  0
  -19.3219  -24.3241   29.3752 N   0  0  0  0  0  0  0  0  0  0  0  0
  -20.4525  -21.5887   31.4505 N   0  3  0  0  0  0  0  0  0  0  0  0
  -22.6453  -14.7793   21.2820 O   0  0  0  0  0  0  0  0  0  0  0  0
  -19.2115  -24.4035   23.3319 O   0  0  0  0  0  0  0  0  0  0  0  0
  -17.2906  -24.5126   27.3634 O   0  0  0  0  0  0  0  0  0  0  0  0
  -21.3921  -23.2800   29.4077 O   0  0  0  0  0  0  0  0  0  0  0  0
  -31.9306  -14.7337   20.3670 O   0  0  0  0  0  0  0  0  0  0  0  0
  -21.5248   -7.0954   21.8194 O   0  0  0  0  0  0  0  0  0  0  0  0
  -23.9768  -20.9422   23.5550 O   0  0  0  0  0  0  0  0  0  1  0  0
  -23.9385   -3.0707   24.7143 F   0  0  0  0  0  0  0  0  0  0  0  0
  -20.4887   -6.2782   24.2487 F   0  0  0  0  0  0  0  0  0  0  0  0
  1  2  1  0  0  0  0
  1  5  2  0  0  0  0
  2  6  2  0  0  0  0
  3  8  2  0  0  0  0
  3 15  1  0  0  0  0
  4  9  1  0  0  0  0
  4 15  2  0  0  0  0
  5 17  1  0  0  0  0
  6 19  1  0  0  0  0
  7 10  2  0  0  0  0
  7 18  1  0  0  0  0
  8 21  1  0  0  0  0
  9 21  2  0  0  0  0
 10 22  1  0  0  0  0
 11 12  2  0  0  0  0
 11 23  1  0  0  0  0
 12 24  1  0  0  0  0
 13 20  1  0  0  0  0
 13 22  2  0  0  0  0
 14 24  2  0  0  0  0
 14 25  1  0  0  0  0
 15 26  1  0  0  0  0
 16 26  1  0  0  0  0
 16 29  2  0  0  0  0
 16 31  1  0  0  0  0
 17 19  2  0  0  0  0
 17 36  1  0  0  0  0
 18 20  2  0  0  0  0
 18 37  1  0  0  0  0
 19 47  1  0  0  0  0
 20 38  1  0  0  0  0
 21 81  1  0  0  0  0
 22 82  1  0  0  0  0
 23 25  2  0  0  0  0
 23 81  1  0  0  0  0
 24 83  1  0  0  0  0
 25 84  1  0  0  0  0
 26 64  2  0  0  0  0
 27 28  2  0  0  0  0
 27 58  1  0  0  0  0
 27 65  1  0  0  0  0
 28 59  1  0  0  0  0
 28 66  1  0  0  0  0
 29 67  1  0  0  0  0
 29 71  1  0  0  0  0
 30 51  1  0  0  0  0
 30 65  2  0  0  0  0
 30 66  1  0  0  0  0
 31 72  1  0  0  0  0
 31 76  2  0  0  0  0
 32 48  1  0  0  0  0
 32 73  1  0  0  0  0
 32 77  2  0  0  0  0
 33 61  1  0  0  0  0
 33 68  1  0  0  0  0
 33 78  2  0  0  0  0
 34 62  1  0  0  0  0
 34 74  1  0  0  0  0
 34 79  2  0  0  0  0
 35 69  1  0  0  0  0
 35 70  1  0  0  0  0
 35 80  2  0  0  0  0
 36 39  1  0  0  0  0
 37 48  1  0  0  0  0
 38 68  1  0  0  0  0
 39 41  1  0  0  0  0
 40 42  1  0  0  0  0
 40 43  1  0  0  0  0
 41 47  1  0  0  0  0
 42 50  1  0  0  0  0
 43 69  1  0  0  0  0
 44 49  1  0  0  0  0
 44 70  1  0  0  0  0
 45 49  1  0  0  0  0
 45 70  1  0  0  0  0
 46 50  1  0  0  0  0
 46 69  1  0  0  0  0
 47 73  1  0  0  0  0
 48 68  1  0  0  0  0
 49 60  1  0  0  0  0
 50 67  1  0  0  0  0
 52 59  1  0  0  0  0
 53 62  1  0  0  0  0
 54 63  1  0  0  0  0
 55 63  1  0  0  0  0
 56 63  1  0  0  0  0
 57 75  1  0  0  0  0
 58 82  1  0  0  0  0
 60 66  1  0  0  0  0
 61 63  1  0  0  0  0
 61 74  1  0  0  0  0
 62 75  1  0  0  0  0
 64 67  1  0  0  0  0
M  CHG  1  75   1
M  ISO  4  35 100  58 101  70 100  82 101
M  END
> <Batch ID>
0186

> <Smiles>
CCc1c([101CH2:1][101O:1]c2ccc3c(c2)CN(C(=O)C(NC(=O)C(C)NC)C(C)(C)C)C(C(=O)NC2CCCc4ccccc42)C3)nc(C)n1CC1C[100N:0]([100C:0](=O)N2CCCC(n3nc(-c4ccc(Oc5ccc(F)cc5F)cc4)c(C(N)=O)c3N)C2)C1

> <Shape>
0.200

> <Color>
0.190

> <Negative vol penalty>
0.000

$$$$

  -OEChem-04052323143D

 85 94  0     1  0  0  0  0  0999 V2000
  -13.6918  -19.1633   28.5617 C   0  0  0  0  0  0  0  0  0  0  0  0
  -14.7034  -19.8128   27.8617 C   0  0  0  0  0  0  0  0  0  0  0  0
  -22.7275  -10.2154   20.2102 C   0  0  0  0  0  0  0  0  0  0  0  0
  -24.3344   -9.5812   21.8991 C   0  0  0  0  0  0  0  0  0  0  0  0
  -14.0142  -18.2796   29.5908 C   0  0  0  0  0  0  0  0  0  0  0  0
  -16.0382  -19.5799   28.1911 C   0  0  0  0  0  0  0  0  0  0  0  0
  -22.5397  -19.1962   25.2079 C   0  0  0  0  0  0  0  0  0  0  0  0
  -22.0255   -9.0309   20.4332 C   0  0  0  0  0  0  0  0  0  0  0  0
  -23.6324   -8.3966   22.1222 C   0  0  0  0  0  0  0  0  0  0  0  0
  -23.8253  -19.7149   25.3566 C   0  0  0  0  0  0  0  0  0  0  0  0
  -23.3178   -5.3714   20.6459 C   0  0  0  0  0  0  0  0  0  0  0  0
  -24.0543   -4.1914   20.7497 C   0  0  0  0  0  0  0  0  0  0  0  0
  -24.2658  -18.1072   27.1002 C   0  0  0  0  0  0  0  0  0  0  0  0
  -28.2428  -19.6138   25.8185 C   0  0  0  0  0  0  0  0  0  0  0  0
  -23.2035   -3.8571   22.9861 C   0  0  0  0  0  0  0  0  0  0  0  0
  -23.8820  -10.4905   20.9431 C   0  0  0  0  0  0  0  0  0  0  0  0
  -24.1271  -13.0284   20.8616 C   0  0  0  0  0  0  0  0  0  0  0  0
  -15.3539  -18.0284   29.9266 C   0  0  0  0  0  0  0  0  0  0  0  0
  -22.1031  -18.1345   26.0132 C   0  0  0  0  0  0  0  0  0  0  0  0
  -16.3788  -18.6930   29.2265 C   0  0  0  0  0  0  0  0  0  0  0  0
  -22.9751  -17.5752   26.9581 C   0  0  0  0  0  0  0  0  0  0  0  0
  -29.2419  -19.0380   25.0416 C   0  0  0  0  0  0  0  0  0  0  0  0
  -28.9265  -18.0018   24.1697 C   0  0  0  0  0  0  0  0  0  0  0  0
  -22.4780   -8.1215   21.3892 C   0  0  0  0  0  0  0  0  0  0  0  0
  -24.6875  -19.1723   26.3048 C   0  0  0  0  0  0  0  0  0  0  0  0
  -22.5243   -5.7943   21.7122 C   0  0  0  0  0  0  0  0  0  0  0  0
  -23.9971   -3.4342   21.9197 C   0  0  0  0  0  0  0  0  0  0  0  0
  -22.4671   -5.0372   22.8823 C   0  0  0  0  0  0  0  0  0  0  0  0
  -24.6079  -11.7137   20.7127 C   0  0  0  0  0  0  0  0  0  0  0  0
  -27.6076  -17.5812   24.1124 C   0  0  0  0  0  0  0  0  0  0  0  0
  -26.9544  -19.1212   25.6875 C   0  0  0  0  0  0  0  0  0  1  0  0
  -25.1945  -13.8245   20.5248 C   0  0  0  0  0  0  0  0  0  0  0  0
  -22.8316  -13.4889   21.2681 C   0  0  0  0  0  0  0  0  0  0  0  0
  -19.7873  -17.7497   28.1562 C   0  0  0  0  0  0  0  0  0  0  0  0
  -20.7736  -14.6601   28.0915 C   0  0  0  0  0  0  0  0  0  0  0  0
  -23.3079  -12.0957   27.9565 C   0  0  0  0  0  0  0  0  0  0  0  0
  -30.9631  -13.9945   20.9818 C   0  0  0  0  0  0  0  0  0  0  0  0
  -15.6520  -17.1009   31.0780 C   0  0  0  0  0  0  0  0  0  0  0  0
  -20.7225  -17.5688   25.8220 C   0  0  0  0  0  0  0  0  0  0  0  0
  -22.5617  -16.4213   27.8333 C   0  0  0  0  0  0  0  0  0  0  0  0
  -17.1016  -16.6239   31.1162 C   0  0  0  0  0  0  0  0  0  0  0  0
  -32.6493  -15.3987   25.1400 C   0  0  0  0  0  0  0  0  0  0  0  0
  -29.3449  -13.1688   17.9197 C   0  0  0  0  0  0  0  0  0  0  0  0
  -18.0551  -17.7964   30.9094 C   0  0  0  0  0  0  0  0  0  0  0  0
  -31.7210  -16.6081   25.0099 C   0  0  0  0  0  0  0  0  0  0  0  0
  -27.9137  -12.8317   18.3416 C   0  0  0  0  0  0  0  0  0  0  0  0
  -32.2636  -14.4345   24.0173 C   0  0  0  0  0  0  0  0  0  0  0  0
  -30.3640  -12.7006   18.9561 C   0  0  0  0  0  0  0  0  0  0  0  0
  -28.6816  -12.8376   20.7518 C   0  0  0  0  0  0  0  0  0  0  0  0
  -17.8393  -18.4477   29.5379 C   0  0  1  0  0  0  0  0  0  0  0  0
  -20.2067  -16.8240   27.0495 C   0  0  1  0  0  0  0  0  0  0  0  0
  -30.6394  -16.1841   24.0145 C   0  0  2  0  0  0  0  0  0  0  0  0
  -27.6142  -13.3400   19.7647 C   0  0  2  0  0  0  0  0  0  0  0  0
  -31.4111  -15.2661   23.0654 C   0  0  2  0  0  0  0  0  0  0  0  0
  -30.6402  -19.5477   25.1619 C   0  0  0  0  0  0  0  0  0  0  0  0
  -27.2086  -16.4719   23.1947 C   0  0  0  0  0  0  0  0  0  0  0  0
  -23.0971   -9.5967   27.8675 C   0  0  0  0  0  0  0  0  0  0  0  0
  -21.0575  -14.8180   31.1254 C   0  0  0  0  0  0  0  0  0  0  0  0
  -22.4449  -12.7359   31.0341 C   0  0  0  0  0  0  0  0  0  0  0  0
  -20.0677  -12.6826   30.2799 C   0  0  0  0  0  0  0  0  0  0  0  0
  -24.9425  -11.9294   25.4949 C   0  0  0  0  0  0  0  0  0  0  0  0
  -29.9774  -17.3656   23.3234 C   0  0  0  0  0  0  0  0  0  0  0  0
  -21.7960  -13.8482   28.8494 C   0  0  1  0  0  0  0  0  0  0  0  0
  -23.3126  -10.8688   27.0625 C   0  0  2  0  0  0  0  0  0  0  0  0
  -21.3489  -13.5442   30.3072 C   0  0  0  0  0  0  0  0  0  0  0  0
  -25.8815  -11.6726   20.3124 N   0  0  0  0  0  0  0  0  0  0  0  0
  -26.6099  -18.1161   24.8515 N   0  0  0  0  0  0  0  0  0  0  0  0
  -26.2100  -12.9714   20.2067 N   0  0  0  0  0  0  0  0  0  0  0  0
  -21.1998  -15.9072   27.6130 N   0  0  0  0  0  0  0  0  0  0  0  0
  -30.0234  -13.2184   20.2835 N   0  0  0  0  0  0  0  0  0  0  0  0
  -25.3540  -15.1640   20.4725 N   0  0  0  0  0  0  0  0  0  0  0  0
  -22.5973  -13.7055   22.6328 N   0  0  0  0  0  0  0  0  0  0  0  0
  -18.4520  -17.6498   28.4975 N   0  0  0  0  0  0  0  0  0  0  0  0
  -22.0527  -12.6598   28.0430 N   0  0  0  0  0  0  0  0  0  0  0  0
  -30.5577  -14.4509   22.2300 N   0  0  0  0  0  0  0  0  0  0  0  0
  -24.6137  -10.7560   26.3446 N   0  3  0  0  0  0  0  0  0  0  0  0
  -21.9039  -13.6862   20.4470 O   0  0  0  0  0  0  0  0  0  0  0  0
  -20.6142  -18.4980   28.6641 O   0  0  0  0  0  0  0  0  0  0  0  0
  -19.6408  -14.2016   27.9238 O   0  0  0  0  0  0  0  0  0  0  0  0
  -24.3161  -12.5099   28.5245 O   0  0  0  0  0  0  0  0  0  0  0  0
  -32.0786  -14.2654   20.5244 O   0  0  0  0  0  0  0  0  0  0  0  0
  -21.7931   -6.9657   21.6073 O   0  0  0  0  0  0  0  0  0  0  0  0
  -25.9426  -19.6771   26.4524 O   0  0  0  0  0  0  0  0  0  1  0  0
  -24.7031   -2.3002   22.0187 F   0  0  0  0  0  0  0  0  0  0  0  0
  -21.7055   -5.4378   23.9096 F   0  0  0  0  0  0  0  0  0  0  0  0
  1  2  1  0  0  0  0
  1  5  2  0  0  0  0
  2  6  2  0  0  0  0
  3  8  2  0  0  0  0
  3 16  1  0  0  0  0
  4  9  1  0  0  0  0
  4 16  2  0  0  0  0
  5 18  1  0  0  0  0
  6 20  1  0  0  0  0
  7 10  2  0  0  0  0
  7 19  1  0  0  0  0
  8 24  1  0  0  0  0
  9 24  2  0  0  0  0
 10 25  1  0  0  0  0
 11 12  2  0  0  0  0
 11 26  1  0  0  0  0
 12 27  1  0  0  0  0
 13 21  1  0  0  0  0
 13 25  2  0  0  0  0
 14 22  2  0  0  0  0
 14 31  1  0  0  0  0
 15 27  2  0  0  0  0
 15 28  1  0  0  0  0
 16 29  1  0  0  0  0
 17 29  1  0  0  0  0
 17 32  2  0  0  0  0
 17 33  1  0  0  0  0
 18 20  2  0  0  0  0
 18 38  1  0  0  0  0
 19 21  2  0  0  0  0
 19 39  1  0  0  0  0
 20 50  1  0  0  0  0
 21 40  1  0  0  0  0
 22 23  1  0  0  0  0
 22 55  1  0  0  0  0
 23 30  2  0  0  0  0
 23 62  1  0  0  0  0
 24 82  1  0  0  0  0
 25 83  1  0  0  0  0
 26 28  2  0  0  0  0
 26 82  1  0  0  0  0
 27 84  1  0  0  0  0
 28 85  1  0  0  0  0
 29 66  2  0  0  0  0
 30 56  1  0  0  0  0
 30 67  1  0  0  0  0
 31 67  2  0  0  0  0
 31 83  1  0  0  0  0
 32 68  1  0  0  0  0
 32 71  1  0  0  0  0
 33 72  1  0  0  0  0
 33 77  2  0  0  0  0
 34 51  1  0  0  0  0
 34 73  1  0  0  0  0
 34 78  2  0  0  0  0
 35 63  1  0  0  0  0
 35 69  1  0  0  0  0
 35 79  2  0  0  0  0
 36 64  1  0  0  0  0
 36 74  1  0  0  0  0
 36 80  2  0  0  0  0
 37 70  1  0  0  0  0
 37 75  1  0  0  0  0
 37 81  2  0  0  0  0
 38 41  1  0  0  0  0
 39 51  1  0  0  0  0
 40 69  1  0  0  0  0
 41 44  1  0  0  0  0
 42 45  1  0  0  0  0
 42 47  1  0  0  0  0
 43 46  1  0  0  0  0
 43 48  1  0  0  0  0
 44 50  1  0  0  0  0
 45 52  1  0  0  0  0
 46 53  1  0  0  0  0
 47 54  1  0  0  0  0
 48 70  1  0  0  0  0
 49 53  1  0  0  0  0
 49 70  1  0  0  0  0
 50 73  1  0  0  0  0
 51 69  1  0  0  0  0
 52 54  1  0  0  0  0
 52 62  1  0  0  0  0
 53 68  1  0  0  0  0
 54 75  1  0  0  0  0
 57 64  1  0  0  0  0
 58 65  1  0  0  0  0
 59 65  1  0  0  0  0
 60 65  1  0  0  0  0
 61 76  1  0  0  0  0
 63 65  1  0  0  0  0
 63 74  1  0  0  0  0
 64 76  1  0  0  0  0
 66 68  1  0  0  0  0
M  CHG  1  76   1
M  ISO  4  31 101  37 100  75 100  83 101
M  END
> <Batch ID>
0186

> <Smiles>
CNC(C)C(=O)NC(C(=O)N1Cc2cc([101O:1][101c:1]3cc(C)c(CC4CCCC4[100NH:0][100C:0](=O)N4CCCC(n5nc(-c6ccc(Oc7ccc(F)cc7F)cc6)c(C(N)=O)c5N)C4)c(C)n3)ccc2CC1C(=O)NC1CCCc2ccccc21)C(C)(C)C

> <Shape>
0.154

> <Color>
0.164

> <Negative vol penalty>
0.000

$$$$

  -OEChem-04052323143D

 87 97  0     1  0  0  0  0  0999 V2000
  -23.9263  -20.4039   24.6495 C   0  0  0  0  0  0  0  0  0  0  0  0
  -24.7419  -21.2011   23.8529 C   0  0  0  0  0  0  0  0  0  0  0  0
  -23.9784   -9.5730   19.9411 C   0  0  0  0  0  0  0  0  0  0  0  0
  -23.2415   -9.4681   22.2395 C   0  0  0  0  0  0  0  0  0  0  0  0
  -22.5973  -20.7656   24.8661 C   0  0  0  0  0  0  0  0  0  0  0  0
  -24.2287  -22.3600   23.2714 C   0  0  0  0  0  0  0  0  0  0  0  0
  -27.3670  -26.3096   23.7143 C   0  0  0  0  0  0  0  0  0  0  0  0
  -29.0094  -23.5658   17.2106 C   0  0  0  0  0  0  0  0  0  0  0  0
  -24.0845   -8.1825   19.9116 C   0  0  0  0  0  0  0  0  0  0  0  0
  -23.3475   -8.0776   22.2101 C   0  0  0  0  0  0  0  0  0  0  0  0
  -28.4529  -26.3611   22.8414 C   0  0  0  0  0  0  0  0  0  0  0  0
  -23.0781   -4.4761   22.6285 C   0  0  0  0  0  0  0  0  0  0  0  0
  -22.0331   -3.7335   23.1780 C   0  0  0  0  0  0  0  0  0  0  0  0
  -29.1891  -24.9331   17.3883 C   0  0  0  0  0  0  0  0  0  0  0  0
  -27.2591  -27.9371   21.4591 C   0  0  0  0  0  0  0  0  0  0  0  0
  -20.4984   -4.7223   21.5956 C   0  0  0  0  0  0  0  0  0  0  0  0
  -30.4498  -23.1882   19.0651 C   0  0  0  0  0  0  0  0  0  0  0  0
  -23.5570  -10.2158   21.1051 C   0  0  0  0  0  0  0  0  0  0  0  0
  -22.3182  -12.4262   20.8097 C   0  0  0  0  0  0  0  0  0  0  0  0
  -22.0702  -21.9346   24.2949 C   0  0  0  0  0  0  0  0  0  0  0  0
  -26.2129  -27.0644   23.4601 C   0  0  0  0  0  0  0  0  0  0  0  0
  -22.8911  -22.7369   23.4795 C   0  0  0  0  0  0  0  0  0  0  0  0
  -26.1610  -27.8953   22.3318 C   0  0  0  0  0  0  0  0  0  0  0  0
  -29.6482  -22.6700   18.0607 C   0  0  0  0  0  0  0  0  0  0  0  0
  -23.7690   -7.4348   21.0461 C   0  0  0  0  0  0  0  0  0  0  0  0
  -28.3979  -27.1727   21.7120 C   0  0  0  0  0  0  0  0  0  0  0  0
  -22.8333   -5.3419   21.5626 C   0  0  0  0  0  0  0  0  0  0  0  0
  -20.7432   -3.8566   22.6616 C   0  0  0  0  0  0  0  0  0  0  0  0
  -21.5435   -5.4650   21.0461 C   0  0  0  0  0  0  0  0  0  0  0  0
  -23.4478  -11.6522   21.1363 C   0  0  0  0  0  0  0  0  0  0  0  0
  -30.0111  -25.3500   18.4229 C   0  0  0  0  0  0  0  0  0  0  0  0
  -22.7246  -13.7242   21.0001 C   0  0  0  0  0  0  0  0  0  0  0  0
  -21.0177  -12.0090   20.3732 C   0  0  0  0  0  0  0  0  0  0  0  0
  -23.1611  -26.3758   22.8976 C   0  0  0  0  0  0  0  0  0  0  0  0
  -22.8112  -29.5973   23.0466 C   0  0  0  0  0  0  0  0  0  0  0  0
  -24.2375  -32.6833   22.7485 C   0  0  0  0  0  0  0  0  0  0  0  0
  -26.2289  -17.7588   20.4869 C   0  0  0  0  0  0  0  0  0  0  0  0
  -20.6146  -22.2595   24.5190 C   0  0  0  0  0  0  0  0  0  0  0  0
  -25.0606  -27.0182   24.4257 C   0  0  0  0  0  0  0  0  0  0  0  0
  -24.9530  -28.7408   22.0245 C   0  0  0  0  0  0  0  0  0  0  0  0
  -20.2518  -23.7012   24.1719 C   0  0  0  0  0  0  0  0  0  0  0  0
  -26.8763  -15.6000   23.1822 C   0  0  0  0  0  0  0  0  0  0  0  0
  -20.8466  -24.0913   22.8225 C   0  0  0  0  0  0  0  0  0  0  0  0
  -25.9453  -14.4304   22.8641 C   0  0  0  0  0  0  0  0  0  0  0  0
  -30.8268  -27.6124   17.4964 C   0  0  0  0  0  0  0  0  0  0  0  0
  -31.6441  -27.3219   18.7161 C   0  0  0  0  0  0  0  0  0  0  0  0
  -27.5563  -16.1495   21.9268 C   0  0  0  0  0  0  0  0  0  0  0  0
  -28.6680  -18.4469   20.4463 C   0  0  0  0  0  0  0  0  0  0  0  0
  -26.8806  -20.1472   20.4940 C   0  0  0  0  0  0  0  0  0  0  0  0
  -25.6834  -15.3431   20.5265 C   0  0  0  0  0  0  0  0  0  0  0  0
  -29.2262  -19.0560   19.1641 C   0  0  0  0  0  0  0  0  0  0  0  0
  -27.3944  -20.7647   19.2036 C   0  0  0  0  0  0  0  0  0  0  0  0
  -22.3778  -24.0146   22.8516 C   0  0  1  0  0  0  0  0  0  0  0  0
  -23.7355  -27.4351   23.7952 C   0  0  1  0  0  0  0  0  0  0  0  0
  -24.9410  -14.8081   21.7608 C   0  0  1  0  0  0  0  0  0  0  0  0
  -30.2174  -26.8126   18.6326 C   0  0  0  0  0  0  0  0  0  0  0  0
  -23.6907  -35.1283   22.8915 C   0  0  0  0  0  0  0  0  0  0  0  0
  -21.4519  -29.4502   20.3188 C   0  0  0  0  0  0  0  0  0  0  0  0
  -21.7901  -31.9208   20.0947 C   0  0  0  0  0  0  0  0  0  0  0  0
  -20.3725  -31.0200   21.9390 C   0  0  0  0  0  0  0  0  0  0  0  0
  -26.1484  -33.0995   24.9699 C   0  0  0  0  0  0  0  0  0  0  0  0
  -29.4759  -21.1890   17.8942 C   0  0  0  0  0  0  0  0  0  0  0  0
  -29.1793  -27.4835   19.4875 C   0  0  0  0  0  0  0  0  0  1  0  0
  -22.8814  -30.7276   22.0483 C   0  0  1  0  0  0  0  0  0  0  0  0
  -24.1895  -33.9062   23.6467 C   0  0  2  0  0  0  0  0  0  0  0  0
  -21.6461  -30.7623   21.1047 C   0  0  0  0  0  0  0  0  0  0  0  0
  -30.6484  -24.5098   19.2688 N   0  0  0  0  0  0  0  0  0  0  0  0
  -24.4935  -12.3965   21.5060 N   0  0  0  0  0  0  0  0  0  0  0  0
  -24.0226  -13.6517   21.4128 N   0  0  0  0  0  0  0  0  0  0  0  0
  -23.8496  -28.6565   22.9955 N   0  0  0  0  0  0  0  0  0  0  0  0
  -26.5627  -16.4567   20.8886 N   0  0  0  0  0  0  0  0  0  0  0  0
  -27.2345  -18.7321   20.5820 N   0  0  0  0  0  0  0  0  0  0  0  0
  -22.0949  -14.9092   20.8530 N   0  0  0  0  0  0  0  0  0  0  0  0
  -20.7692  -10.6372   20.2301 N   0  0  0  0  0  0  0  0  0  0  0  0
  -22.9288  -25.1688   23.5289 N   0  0  0  0  0  0  0  0  0  0  0  0
  -23.0742  -31.9471   22.8254 N   0  0  0  0  0  0  0  0  0  0  0  0
  -28.8830  -20.5251   19.1054 N   0  3  0  0  0  0  0  0  0  0  0  0
  -25.5463  -34.2075   24.1845 N   0  3  0  0  0  0  0  0  0  0  0  0
  -20.1083  -12.8293   20.1019 O   0  0  0  0  0  0  0  0  0  0  0  0
  -22.9434  -26.6348   21.7198 O   0  0  0  0  0  0  0  0  0  0  0  0
  -21.8736  -29.5547   23.8470 O   0  0  0  0  0  0  0  0  0  0  0  0
  -25.2084  -32.4106   22.0459 O   0  0  0  0  0  0  0  0  0  0  0  0
  -25.0981  -18.0354   20.0670 O   0  0  0  0  0  0  0  0  0  0  0  0
  -23.8721   -6.0779   21.0176 O   0  0  0  0  0  0  0  0  0  0  0  0
  -29.4654  -27.2248   20.8504 O   0  0  0  0  0  0  0  0  0  1  0  0
  -19.7400   -3.1422   23.1884 F   0  0  0  0  0  0  0  0  0  0  0  0
  -21.3024   -6.2942   20.0214 F   0  0  0  0  0  0  0  0  0  0  0  0
  1  2  1  0  0  0  0
  1  5  2  0  0  0  0
  2  6  2  0  0  0  0
  3  9  2  0  0  0  0
  3 18  1  0  0  0  0
  4 10  1  0  0  0  0
  4 18  2  0  0  0  0
  5 20  1  0  0  0  0
  6 22  1  0  0  0  0
  7 11  2  0  0  0  0
  7 21  1  0  0  0  0
  8 14  2  0  0  0  0
  8 24  1  0  0  0  0
  9 25  1  0  0  0  0
 10 25  2  0  0  0  0
 11 26  1  0  0  0  0
 12 13  2  0  0  0  0
 12 27  1  0  0  0  0
 13 28  1  0  0  0  0
 14 31  1  0  0  0  0
 15 23  1  0  0  0  0
 15 26  2  0  0  0  0
 16 28  2  0  0  0  0
 16 29  1  0  0  0  0
 17 24  2  0  0  0  0
 17 67  1  0  0  0  0
 18 30  1  0  0  0  0
 19 30  1  0  0  0  0
 19 32  2  0  0  0  0
 19 33  1  0  0  0  0
 20 22  2  0  0  0  0
 20 38  1  0  0  0  0
 21 23  2  0  0  0  0
 21 39  1  0  0  0  0
 22 53  1  0  0  0  0
 23 40  1  0  0  0  0
 24 62  1  0  0  0  0
 25 84  1  0  0  0  0
 26 85  1  0  0  0  0
 27 29  2  0  0  0  0
 27 84  1  0  0  0  0
 28 86  1  0  0  0  0
 29 87  1  0  0  0  0
 30 68  2  0  0  0  0
 31 56  1  0  0  0  0
 31 67  2  0  0  0  0
 32 69  1  0  0  0  0
 32 73  1  0  0  0  0
 33 74  1  0  0  0  0
 33 79  2  0  0  0  0
 34 54  1  0  0  0  0
 34 75  1  0  0  0  0
 34 80  2  0  0  0  0
 35 64  1  0  0  0  0
 35 70  1  0  0  0  0
 35 81  2  0  0  0  0
 36 65  1  0  0  0  0
 36 76  1  0  0  0  0
 36 82  2  0  0  0  0
 37 71  1  0  0  0  0
 37 72  1  0  0  0  0
 37 83  2  0  0  0  0
 38 41  1  0  0  0  0
 39 54  1  0  0  0  0
 40 70  1  0  0  0  0
 41 43  1  0  0  0  0
 42 44  1  0  0  0  0
 42 47  1  0  0  0  0
 43 53  1  0  0  0  0
 44 55  1  0  0  0  0
 45 46  1  0  0  0  0
 45 56  1  0  0  0  0
 46 56  1  0  0  0  0
 47 71  1  0  0  0  0
 48 51  1  0  0  0  0
 48 72  1  0  0  0  0
 49 52  1  0  0  0  0
 49 72  1  0  0  0  0
 50 55  1  0  0  0  0
 50 71  1  0  0  0  0
 51 77  1  0  0  0  0
 52 77  1  0  0  0  0
 53 75  1  0  0  0  0
 54 70  1  0  0  0  0
 55 69  1  0  0  0  0
 56 63  1  0  0  0  0
 57 65  1  0  0  0  0
 58 66  1  0  0  0  0
 59 66  1  0  0  0  0
 60 66  1  0  0  0  0
 61 78  1  0  0  0  0
 62 77  1  0  0  0  0
 63 85  1  0  0  0  0
 64 66  1  0  0  0  0
 64 76  1  0  0  0  0
 65 78  1  0  0  0  0
 68 69  1  0  0  0  0
M  CHG  2  77   1  78   1
M  ISO  4  37 100  63 101  72 100  85 101
M  END
> <Batch ID>
0186

> <Smiles>
CNC(C)C(=O)NC(C(=O)N1Cc2cc([101O:1][101CH2:1]C3(c4ccc(CN5CC[100N:0]([100C:0](=O)N6CCCC(n7nc(-c8ccc(Oc9ccc(F)cc9F)cc8)c(C(N)=O)c7N)C6)CC5)cn4)CC3)ccc2CC1C(=O)NC1CCCc2ccccc21)C(C)(C)C

> <Shape>
0.252

> <Color>
0.058

> <Negative vol penalty>
0.000

$$$$

  -OEChem-04052323143D

 83 92  0     1  0  0  0  0  0999 V2000
  -28.1828  -25.1036   16.1423 C   0  0  0  0  0  0  0  0  0  0  0  0
  -27.0256  -25.1792   16.9108 C   0  0  0  0  0  0  0  0  0  0  0  0
  -27.4241  -17.5986   20.5707 C   0  0  0  0  0  0  0  0  0  0  0  0
  -26.9159  -17.5156   22.9312 C   0  0  0  0  0  0  0  0  0  0  0  0
  -29.3703  -25.6597   16.6160 C   0  0  0  0  0  0  0  0  0  0  0  0
  -27.0555  -25.8101   18.1539 C   0  0  0  0  0  0  0  0  0  0  0  0
  -23.1005  -28.8921   18.8641 C   0  0  0  0  0  0  0  0  0  0  0  0
  -28.7178  -18.0295   20.8643 C   0  0  0  0  0  0  0  0  0  0  0  0
  -28.2096  -17.9465   23.2248 C   0  0  0  0  0  0  0  0  0  0  0  0
  -21.8844  -28.2998   19.2020 C   0  0  0  0  0  0  0  0  0  0  0  0
  -31.3049  -16.5999   23.3877 C   0  0  0  0  0  0  0  0  0  0  0  0
  -31.9912  -15.9383   24.4060 C   0  0  0  0  0  0  0  0  0  0  0  0
  -22.2632  -28.8576   21.5181 C   0  0  0  0  0  0  0  0  0  0  0  0
  -32.1778  -18.0138   25.6285 C   0  0  0  0  0  0  0  0  0  0  0  0
  -18.2491  -25.4010   21.0480 C   0  0  0  0  0  0  0  0  0  0  0  0
  -26.5231  -17.3417   21.6041 C   0  0  0  0  0  0  0  0  0  0  0  0
  -24.7441  -15.5682   21.1596 C   0  0  0  0  0  0  0  0  0  0  0  0
  -29.4125  -26.3062   17.8613 C   0  0  0  0  0  0  0  0  0  0  0  0
  -23.9135  -29.4628   19.8538 C   0  0  0  0  0  0  0  0  0  0  0  0
  -28.2450  -26.3742   18.6453 C   0  0  0  0  0  0  0  0  0  0  0  0
  -23.4879  -29.4587   21.1899 C   0  0  0  0  0  0  0  0  0  0  0  0
  -29.1106  -18.2034   22.1914 C   0  0  0  0  0  0  0  0  0  0  0  0
  -21.4669  -28.2800   20.5295 C   0  0  0  0  0  0  0  0  0  0  0  0
  -31.0551  -17.9684   23.4897 C   0  0  0  0  0  0  0  0  0  0  0  0
  -32.4276  -16.6452   25.5264 C   0  0  0  0  0  0  0  0  0  0  0  0
  -31.4916  -18.6753   24.6102 C   0  0  0  0  0  0  0  0  0  0  0  0
  -25.1864  -16.8971   21.3014 C   0  0  0  0  0  0  0  0  0  0  0  0
  -18.2359  -26.5867   20.3421 C   0  0  0  0  0  0  0  0  0  0  0  0
  -17.0234  -24.9683   21.5112 C   0  0  0  0  0  0  0  0  0  0  0  0
  -23.4049  -15.6804   20.8761 C   0  0  0  0  0  0  0  0  0  0  0  0
  -15.9860  -26.7762   20.6044 C   0  0  0  0  0  0  0  0  0  0  0  0
  -25.4782  -14.3419   21.2741 C   0  0  0  0  0  0  0  0  0  0  0  0
  -26.8431  -28.8988   20.9506 C   0  0  0  0  0  0  0  0  0  0  0  0
  -26.2944  -31.5906   22.6755 C   0  0  0  0  0  0  0  0  0  0  0  0
  -24.0269  -33.7227   24.0754 C   0  0  0  0  0  0  0  0  0  0  0  0
  -19.5220  -19.9529   22.2077 C   0  0  0  0  0  0  0  0  0  0  0  0
  -30.7305  -26.8508   18.3522 C   0  0  0  0  0  0  0  0  0  0  0  0
  -25.2100  -30.1214   19.4694 C   0  0  0  0  0  0  0  0  0  0  0  0
  -24.3145  -30.0758   22.2873 C   0  0  0  0  0  0  0  0  0  0  0  0
  -30.5899  -27.8308   19.5142 C   0  0  0  0  0  0  0  0  0  0  0  0
  -20.2211  -18.6038   18.8723 C   0  0  0  0  0  0  0  0  0  0  0  0
  -29.6365  -27.2761   20.5679 C   0  0  0  0  0  0  0  0  0  0  0  0
  -21.5737  -17.9383   19.1037 C   0  0  0  0  0  0  0  0  0  0  0  0
  -20.0449  -19.8701   19.7113 C   0  0  0  0  0  0  0  0  0  0  0  0
  -21.6448  -18.9916   21.3905 C   0  0  0  0  0  0  0  0  0  0  0  0
  -17.7723  -21.5957   23.0827 C   0  0  0  0  0  0  0  0  0  0  0  0
  -18.6836  -22.2532   21.2760 C   0  0  0  0  0  0  0  0  0  0  0  0
  -28.2316  -27.0722   19.9880 C   0  0  1  0  0  0  0  0  0  0  0  0
  -26.1982  -30.2169   20.6278 C   0  0  1  0  0  0  0  0  0  0  0  0
  -21.7991  -17.6838   20.6015 C   0  0  2  0  0  0  0  0  0  0  0  0
  -18.1345  -22.9727   22.5153 C   0  0  0  0  0  0  0  0  0  0  0  0
  -14.7292  -27.5398   20.3579 C   0  0  0  0  0  0  0  0  0  0  0  0
  -23.8800  -35.8129   25.4561 C   0  0  0  0  0  0  0  0  0  0  0  0
  -27.0274  -29.9921   25.1689 C   0  0  0  0  0  0  0  0  0  0  0  0
  -25.9671  -31.7917   26.5494 C   0  0  0  0  0  0  0  0  0  0  0  0
  -27.9396  -32.3201   25.1167 C   0  0  0  0  0  0  0  0  0  0  0  0
  -22.5944  -35.1765   21.9322 C   0  0  0  0  0  0  0  0  0  0  0  0
  -19.5138  -27.1349   19.8015 C   0  0  0  0  0  0  0  0  0  1  0  0
  -25.6980  -31.8896   24.0296 C   0  0  1  0  0  0  0  0  0  0  0  0
  -23.9183  -35.2366   24.0493 C   0  0  2  0  0  0  0  0  0  0  0  0
  -26.6431  -31.4850   25.1960 C   0  0  0  0  0  0  0  0  0  0  0  0
  -24.2075  -17.7882   21.1225 N   0  0  0  0  0  0  0  0  0  0  0  0
  -17.1184  -27.3030   20.1007 N   0  0  0  0  0  0  0  0  0  0  0  0
  -15.8674  -25.6335   21.3071 N   0  0  0  0  0  0  0  0  0  0  0  0
  -23.1369  -17.0176   20.8653 N   0  0  0  0  0  0  0  0  0  0  0  0
  -25.5772  -30.7021   21.8619 N   0  0  0  0  0  0  0  0  0  0  0  0
  -20.3527  -19.6362   21.1274 N   0  0  0  0  0  0  0  0  0  0  0  0
  -18.6966  -21.0474   22.0929 N   0  0  0  0  0  0  0  0  0  0  0  0
  -22.4422  -14.7646   20.6374 N   0  0  0  0  0  0  0  0  0  0  0  0
  -26.8466  -14.4076   21.5702 N   0  0  0  0  0  0  0  0  0  0  0  0
  -16.9938  -23.7697   22.2319 N   0  0  0  0  0  0  0  0  0  0  0  0
  -27.5349  -28.3372   19.8944 N   0  0  0  0  0  0  0  0  0  0  0  0
  -25.3392  -33.3037   24.0145 N   0  0  0  0  0  0  0  0  0  0  0  0
  -22.6784  -35.6548   23.3362 N   0  3  0  0  0  0  0  0  0  0  0  0
  -24.9403  -13.2218   21.1022 O   0  0  0  0  0  0  0  0  0  0  0  0
  -26.7234  -28.4269   22.0752 O   0  0  0  0  0  0  0  0  0  0  0  0
  -27.3539  -32.1313   22.3486 O   0  0  0  0  0  0  0  0  0  0  0  0
  -23.0460  -32.9856   24.1466 O   0  0  0  0  0  0  0  0  0  0  0  0
  -19.5375  -19.2975   23.2580 O   0  0  0  0  0  0  0  0  0  0  0  0
  -30.3730  -18.6236   22.4783 O   0  0  0  0  0  0  0  0  0  0  0  0
  -20.2724  -27.6980   20.8645 O   0  0  0  0  0  0  0  0  0  1  0  0
  -33.0853  -16.0095   26.5049 F   0  0  0  0  0  0  0  0  0  0  0  0
  -31.2535  -19.9900   24.7144 F   0  0  0  0  0  0  0  0  0  0  0  0
  1  2  1  0  0  0  0
  1  5  2  0  0  0  0
  2  6  2  0  0  0  0
  3  8  2  0  0  0  0
  3 16  1  0  0  0  0
  4  9  1  0  0  0  0
  4 16  2  0  0  0  0
  5 18  1  0  0  0  0
  6 20  1  0  0  0  0
  7 10  2  0  0  0  0
  7 19  1  0  0  0  0
  8 22  1  0  0  0  0
  9 22  2  0  0  0  0
 10 23  1  0  0  0  0
 11 12  2  0  0  0  0
 11 24  1  0  0  0  0
 12 25  1  0  0  0  0
 13 21  1  0  0  0  0
 13 23  2  0  0  0  0
 14 25  2  0  0  0  0
 14 26  1  0  0  0  0
 15 28  1  0  0  0  0
 15 29  2  0  0  0  0
 16 27  1  0  0  0  0
 17 27  1  0  0  0  0
 17 30  2  0  0  0  0
 17 32  1  0  0  0  0
 18 20  2  0  0  0  0
 18 37  1  0  0  0  0
 19 21  2  0  0  0  0
 19 38  1  0  0  0  0
 20 48  1  0  0  0  0
 21 39  1  0  0  0  0
 22 80  1  0  0  0  0
 23 81  1  0  0  0  0
 24 26  2  0  0  0  0
 24 80  1  0  0  0  0
 25 82  1  0  0  0  0
 26 83  1  0  0  0  0
 27 62  2  0  0  0  0
 28 58  1  0  0  0  0
 28 63  2  0  0  0  0
 29 64  1  0  0  0  0
 29 71  1  0  0  0  0
 30 65  1  0  0  0  0
 30 69  1  0  0  0  0
 31 52  1  0  0  0  0
 31 63  1  0  0  0  0
 31 64  2  0  0  0  0
 32 70  1  0  0  0  0
 32 75  2  0  0  0  0
 33 49  1  0  0  0  0
 33 72  1  0  0  0  0
 33 76  2  0  0  0  0
 34 59  1  0  0  0  0
 34 66  1  0  0  0  0
 34 77  2  0  0  0  0
 35 60  1  0  0  0  0
 35 73  1  0  0  0  0
 35 78  2  0  0  0  0
 36 67  1  0  0  0  0
 36 68  1  0  0  0  0
 36 79  2  0  0  0  0
 37 40  1  0  0  0  0
 38 49  1  0  0  0  0
 39 66  1  0  0  0  0
 40 42  1  0  0  0  0
 41 43  1  0  0  0  0
 41 44  1  0  0  0  0
 42 48  1  0  0  0  0
 43 50  1  0  0  0  0
 44 67  1  0  0  0  0
 45 50  1  0  0  0  0
 45 67  1  0  0  0  0
 46 51  1  0  0  0  0
 46 68  1  0  0  0  0
 47 51  1  0  0  0  0
 47 68  1  0  0  0  0
 48 72  1  0  0  0  0
 49 66  1  0  0  0  0
 50 65  1  0  0  0  0
 51 71  1  0  0  0  0
 53 60  1  0  0  0  0
 54 61  1  0  0  0  0
 55 61  1  0  0  0  0
 56 61  1  0  0  0  0
 57 74  1  0  0  0  0
 58 81  1  0  0  0  0
 59 61  1  0  0  0  0
 59 73  1  0  0  0  0
 60 74  1  0  0  0  0
 62 65  1  0  0  0  0
M  CHG  1  74   1
M  ISO  4  36 100  58 101  68 100  81 101
M  END
> <Batch ID>
0186

> <Smiles>
CNC(C)C(=O)NC(C(=O)N1Cc2cc([101O:1][101CH2:1]c3cc(NC4C[100N:0]([100C:0](=O)N5CCCC(n6nc(-c7ccc(Oc8ccc(F)cc8F)cc7)c(C(N)=O)c6N)C5)C4)nc(C)n3)ccc2CC1C(=O)NC1CCCc2ccccc21)C(C)(C)C

> <Shape>
0.221

> <Color>
0.073

> <Negative vol penalty>
0.000

$$$$

  -OEChem-04052323143D

 81 90  0     1  0  0  0  0  0999 V2000
  -19.2031  -25.9805   28.8868 C   0  0  0  0  0  0  0  0  0  0  0  0
  -20.2410  -25.0822   28.6607 C   0  0  0  0  0  0  0  0  0  0  0  0
  -23.5771   -9.6272   19.8357 C   0  0  0  0  0  0  0  0  0  0  0  0
  -23.6409   -9.8767   22.2380 C   0  0  0  0  0  0  0  0  0  0  0  0
  -18.6813  -26.7219   27.8276 C   0  0  0  0  0  0  0  0  0  0  0  0
  -20.7570  -24.9239   27.3749 C   0  0  0  0  0  0  0  0  0  0  0  0
  -26.8890  -23.5001   23.9562 C   0  0  0  0  0  0  0  0  0  0  0  0
  -22.9275   -8.4014   19.9802 C   0  0  0  0  0  0  0  0  0  0  0  0
  -22.9912   -8.6508   22.3825 C   0  0  0  0  0  0  0  0  0  0  0  0
  -27.4097  -22.6374   22.9927 C   0  0  0  0  0  0  0  0  0  0  0  0
  -19.8371   -7.4616   22.1415 C   0  0  0  0  0  0  0  0  0  0  0  0
  -18.7855   -7.3909   23.0550 C   0  0  0  0  0  0  0  0  0  0  0  0
  -26.4830  -24.0295   21.2541 C   0  0  0  0  0  0  0  0  0  0  0  0
  -19.9730   -5.6878   24.2905 C   0  0  0  0  0  0  0  0  0  0  0  0
  -30.2201  -20.0588   18.1192 C   0  0  0  0  0  0  0  0  0  0  0  0
  -23.9339  -10.3649   20.9646 C   0  0  0  0  0  0  0  0  0  0  0  0
  -24.0093  -12.9010   20.7001 C   0  0  0  0  0  0  0  0  0  0  0  0
  -19.1976  -26.5797   26.5299 C   0  0  0  0  0  0  0  0  0  0  0  0
  -26.1508  -24.6299   23.5755 C   0  0  0  0  0  0  0  0  0  0  0  0
  -20.2406  -25.6631   26.2971 C   0  0  0  0  0  0  0  0  0  0  0  0
  -25.9562  -24.9063   22.2147 C   0  0  0  0  0  0  0  0  0  0  0  0
  -29.8640  -18.7385   17.8992 C   0  0  0  0  0  0  0  0  0  0  0  0
  -22.6345   -7.9132   21.2536 C   0  0  0  0  0  0  0  0  0  0  0  0
  -27.2043  -22.9004   21.6415 C   0  0  0  0  0  0  0  0  0  0  0  0
  -20.9568   -6.6453   22.3024 C   0  0  0  0  0  0  0  0  0  0  0  0
  -18.8534   -6.5041   24.1295 C   0  0  0  0  0  0  0  0  0  0  0  0
  -21.0247   -5.7585   23.3769 C   0  0  0  0  0  0  0  0  0  0  0  0
  -24.6055  -11.6309   20.8160 C   0  0  0  0  0  0  0  0  0  0  0  0
  -29.0173  -18.1733   18.8491 C   0  0  0  0  0  0  0  0  0  0  0  0
  -25.0682  -13.7679   20.5829 C   0  0  0  0  0  0  0  0  0  0  0  0
  -28.9550  -20.1462   20.0020 C   0  0  0  0  0  0  0  0  0  0  0  0
  -22.6225  -13.2646   20.6988 C   0  0  0  0  0  0  0  0  0  0  0  0
  -23.1669  -25.6214   24.0414 C   0  0  0  0  0  0  0  0  0  0  0  0
  -24.2441  -28.3073   22.5758 C   0  0  0  0  0  0  0  0  0  0  0  0
  -26.5082  -29.7478   20.4674 C   0  0  0  0  0  0  0  0  0  0  0  0
  -30.0169  -14.7991   17.9931 C   0  0  0  0  0  0  0  0  0  0  0  0
  -18.5693  -27.3682   25.4082 C   0  0  0  0  0  0  0  0  0  0  0  0
  -25.6185  -25.5652   24.6264 C   0  0  0  0  0  0  0  0  0  0  0  0
  -30.4078  -17.9535   16.7435 C   0  0  0  0  0  0  0  0  0  0  0  0
  -25.1881  -26.1170   21.7533 C   0  0  0  0  0  0  0  0  0  0  0  0
  -28.5503  -16.7433   18.7193 C   0  0  0  0  0  0  0  0  0  0  0  0
  -19.4238  -27.4159   24.1442 C   0  0  0  0  0  0  0  0  0  0  0  0
  -30.0216  -13.0554   21.2554 C   0  0  0  0  0  0  0  0  0  0  0  0
  -19.9480  -26.0251   23.8013 C   0  0  0  0  0  0  0  0  0  0  0  0
  -28.5759  -12.5763   21.3792 C   0  0  0  0  0  0  0  0  0  0  0  0
  -29.5754  -16.7030   16.4736 C   0  0  0  0  0  0  0  0  0  0  0  0
  -30.4573  -13.1737   19.7980 C   0  0  0  0  0  0  0  0  0  0  0  0
  -28.1171  -13.5443   19.0925 C   0  0  0  0  0  0  0  0  0  0  0  0
  -20.8436  -25.4815   24.9210 C   0  0  1  0  0  0  0  0  0  0  0  0
  -24.4440  -26.4071   24.1375 C   0  0  1  0  0  0  0  0  0  0  0  0
  -27.6315  -13.4613   20.5473 C   0  0  1  0  0  0  0  0  0  0  0  0
  -27.1115  -31.9535   19.4338 C   0  0  0  0  0  0  0  0  0  0  0  0
  -21.9101  -28.0310   20.6300 C   0  0  0  0  0  0  0  0  0  0  0  0
  -23.0800  -29.6377   19.1075 C   0  0  0  0  0  0  0  0  0  0  0  0
  -22.3689  -30.3712   21.3832 C   0  0  0  0  0  0  0  0  0  0  0  0
  -29.1772  -29.7486   21.7463 C   0  0  0  0  0  0  0  0  0  0  0  0
  -28.4430  -20.9271   21.1645 C   0  0  0  0  0  0  0  0  0  1  0  0
  -24.3244  -28.7863   21.1465 C   0  0  1  0  0  0  0  0  0  0  0  0
  -27.3488  -31.0051   20.5986 C   0  0  2  0  0  0  0  0  0  0  0  0
  -22.9338  -29.1826   20.5752 C   0  0  0  0  0  0  0  0  0  0  0  0
  -29.7795  -20.7938   19.1600 N   0  0  0  0  0  0  0  0  0  0  0  0
  -25.9395  -11.6819   20.7758 N   0  0  0  0  0  0  0  0  0  0  0  0
  -28.5418  -18.8681   19.9087 N   0  0  0  0  0  0  0  0  0  0  0  0
  -26.1905  -12.9945   20.6333 N   0  0  0  0  0  0  0  0  0  0  0  0
  -24.6822  -26.9978   22.8190 N   0  0  0  0  0  0  0  0  0  0  0  0
  -29.3168  -15.9840   17.7205 N   0  0  0  0  0  0  0  0  0  0  0  0
  -29.5183  -13.9842   19.0220 N   0  0  0  0  0  0  0  0  0  0  0  0
  -25.1395  -15.1086   20.4425 N   0  0  0  0  0  0  0  0  0  0  0  0
  -21.6653  -12.2491   20.8289 N   0  0  0  0  0  0  0  0  0  0  0  0
  -22.1556  -26.0892   24.8587 N   0  0  0  0  0  0  0  0  0  0  0  0
  -25.3059  -29.8656   21.1322 N   0  0  0  0  0  0  0  0  0  0  0  0
  -28.7976  -30.6580   20.6346 N   0  3  0  0  0  0  0  0  0  0  0  0
  -22.2428  -14.4531   20.5690 O   0  0  0  0  0  0  0  0  0  0  0  0
  -23.1032  -24.6626   23.2808 O   0  0  0  0  0  0  0  0  0  0  0  0
  -23.8152  -29.0694   23.4458 O   0  0  0  0  0  0  0  0  0  0  0  0
  -26.8793  -28.7614   19.8351 O   0  0  0  0  0  0  0  0  0  0  0  0
  -31.0358  -14.4906   17.3618 O   0  0  0  0  0  0  0  0  0  0  0  0
  -22.0004   -6.7172   21.3950 O   0  0  0  0  0  0  0  0  0  0  0  0
  -27.7145  -22.0539   20.6925 O   0  0  0  0  0  0  0  0  0  1  0  0
  -17.8441   -6.4375   25.0076 F   0  0  0  0  0  0  0  0  0  0  0  0
  -22.0982   -4.9726   23.5373 F   0  0  0  0  0  0  0  0  0  0  0  0
  1  2  1  0  0  0  0
  1  5  2  0  0  0  0
  2  6  2  0  0  0  0
  3  8  2  0  0  0  0
  3 16  1  0  0  0  0
  4  9  1  0  0  0  0
  4 16  2  0  0  0  0
  5 18  1  0  0  0  0
  6 20  1  0  0  0  0
  7 10  2  0  0  0  0
  7 19  1  0  0  0  0
  8 23  1  0  0  0  0
  9 23  2  0  0  0  0
 10 24  1  0  0  0  0
 11 12  2  0  0  0  0
 11 25  1  0  0  0  0
 12 26  1  0  0  0  0
 13 21  1  0  0  0  0
 13 24  2  0  0  0  0
 14 26  2  0  0  0  0
 14 27  1  0  0  0  0
 15 22  1  0  0  0  0
 15 61  2  0  0  0  0
 16 28  1  0  0  0  0
 17 28  1  0  0  0  0
 17 30  2  0  0  0  0
 17 32  1  0  0  0  0
 18 20  2  0  0  0  0
 18 37  1  0  0  0  0
 19 21  2  0  0  0  0
 19 38  1  0  0  0  0
 20 49  1  0  0  0  0
 21 40  1  0  0  0  0
 22 29  2  0  0  0  0
 22 39  1  0  0  0  0
 23 78  1  0  0  0  0
 24 79  1  0  0  0  0
 25 27  2  0  0  0  0
 25 78  1  0  0  0  0
 26 80  1  0  0  0  0
 27 81  1  0  0  0  0
 28 62  2  0  0  0  0
 29 41  1  0  0  0  0
 29 63  1  0  0  0  0
 30 64  1  0  0  0  0
 30 68  1  0  0  0  0
 31 57  1  0  0  0  0
 31 61  1  0  0  0  0
 31 63  2  0  0  0  0
 32 69  1  0  0  0  0
 32 73  2  0  0  0  0
 33 50  1  0  0  0  0
 33 70  1  0  0  0  0
 33 74  2  0  0  0  0
 34 58  1  0  0  0  0
 34 65  1  0  0  0  0
 34 75  2  0  0  0  0
 35 59  1  0  0  0  0
 35 71  1  0  0  0  0
 35 76  2  0  0  0  0
 36 66  1  0  0  0  0
 36 67  1  0  0  0  0
 36 77  2  0  0  0  0
 37 42  1  0  0  0  0
 38 50  1  0  0  0  0
 39 46  1  0  0  0  0
 40 65  1  0  0  0  0
 41 66  1  0  0  0  0
 42 44  1  0  0  0  0
 43 45  1  0  0  0  0
 43 47  1  0  0  0  0
 44 49  1  0  0  0  0
 45 51  1  0  0  0  0
 46 66  1  0  0  0  0
 47 67  1  0  0  0  0
 48 51  1  0  0  0  0
 48 67  1  0  0  0  0
 49 70  1  0  0  0  0
 50 65  1  0  0  0  0
 51 64  1  0  0  0  0
 52 59  1  0  0  0  0
 53 60  1  0  0  0  0
 54 60  1  0  0  0  0
 55 60  1  0  0  0  0
 56 72  1  0  0  0  0
 57 79  1  0  0  0  0
 58 60  1  0  0  0  0
 58 71  1  0  0  0  0
 59 72  1  0  0  0  0
 62 64  1  0  0  0  0
M  CHG  1  72   1
M  ISO  4  36 100  57 101  66 100  79 101
M  END
> <Batch ID>
0186

> <Smiles>
CNC(C)C(=O)NC(C(=O)N1Cc2cc([101O:1][101CH2:1]c3ncc4c(n3)C[100N:0]([100C:0](=O)N3CCCC(n5nc(-c6ccc(Oc7ccc(F)cc7F)cc6)c(C(N)=O)c5N)C3)CC4)ccc2CC1C(=O)NC1CCCc2ccccc21)C(C)(C)C

> <Shape>
0.247

> <Color>
0.180

> <Negative vol penalty>
0.000

$$$$

  -OEChem-04052323143D

 84 92  0     1  0  0  0  0  0999 V2000
  -30.7925  -35.3014   23.2176 C   0  0  0  0  0  0  0  0  0  0  0  0
  -30.6971  -34.2107   22.3592 C   0  0  0  0  0  0  0  0  0  0  0  0
  -24.5561   -9.3413   21.7429 C   0  0  0  0  0  0  0  0  0  0  0  0
  -23.6448  -11.1730   23.0281 C   0  0  0  0  0  0  0  0  0  0  0  0
  -30.0524  -35.3240   24.3990 C   0  0  0  0  0  0  0  0  0  0  0  0
  -29.8624  -33.1415   22.6823 C   0  0  0  0  0  0  0  0  0  0  0  0
  -26.6355  -29.6837   18.7917 C   0  0  0  0  0  0  0  0  0  0  0  0
  -26.7062  -20.3712   17.5513 C   0  0  0  0  0  0  0  0  0  0  0  0
  -23.9818   -8.4322   22.6313 C   0  0  0  0  0  0  0  0  0  0  0  0
  -23.0705  -10.2638   23.9165 C   0  0  0  0  0  0  0  0  0  0  0  0
  -26.8756  -28.4306   18.2298 C   0  0  0  0  0  0  0  0  0  0  0  0
  -20.9271   -7.1008   23.2051 C   0  0  0  0  0  0  0  0  0  0  0  0
  -20.2633   -5.9988   22.6661 C   0  0  0  0  0  0  0  0  0  0  0  0
  -26.7837  -19.1763   18.2580 C   0  0  0  0  0  0  0  0  0  0  0  0
  -25.5432  -27.4061   19.9602 C   0  0  0  0  0  0  0  0  0  0  0  0
  -21.7866   -4.5182   23.8171 C   0  0  0  0  0  0  0  0  0  0  0  0
  -24.3876  -10.7117   21.9413 C   0  0  0  0  0  0  0  0  0  0  0  0
  -24.4006  -12.1821   19.8568 C   0  0  0  0  0  0  0  0  0  0  0  0
  -29.2009  -34.2588   24.7321 C   0  0  0  0  0  0  0  0  0  0  0  0
  -25.8551  -29.8066   19.9503 C   0  0  0  0  0  0  0  0  0  0  0  0
  -29.1113  -33.1492   23.8700 C   0  0  0  0  0  0  0  0  0  0  0  0
  -25.2926  -28.6622   20.5334 C   0  0  0  0  0  0  0  0  0  0  0  0
  -27.8566  -21.1228   17.3390 C   0  0  0  0  0  0  0  0  0  0  0  0
  -23.2390   -8.8934   23.7181 C   0  0  0  0  0  0  0  0  0  0  0  0
  -26.3318  -27.2912   18.8157 C   0  0  0  0  0  0  0  0  0  0  0  0
  -22.0207   -6.9115   24.0501 C   0  0  0  0  0  0  0  0  0  0  0  0
  -20.6930   -4.7075   22.9721 C   0  0  0  0  0  0  0  0  0  0  0  0
  -22.4504   -5.6203   24.3561 C   0  0  0  0  0  0  0  0  0  0  0  0
  -24.9811  -11.6514   21.0243 C   0  0  0  0  0  0  0  0  0  0  0  0
  -28.0256  -18.7800   18.7277 C   0  0  0  0  0  0  0  0  0  0  0  0
  -29.0503  -20.6395   17.8500 C   0  0  0  0  0  0  0  0  0  0  0  0
  -25.3617  -13.0198   19.3458 C   0  0  0  0  0  0  0  0  0  0  0  0
  -23.1083  -11.9395   19.2852 C   0  0  0  0  0  0  0  0  0  0  0  0
  -26.3744  -30.8629   22.9030 C   0  0  0  0  0  0  0  0  0  0  0  0
  -23.1815  -30.3846   23.2176 C   0  0  0  0  0  0  0  0  0  0  0  0
  -20.3781  -28.7525   22.1575 C   0  0  0  0  0  0  0  0  0  0  0  0
  -29.2283  -16.9718   20.0045 C   0  0  0  0  0  0  0  0  0  0  0  0
  -28.4568  -34.3069   26.0430 C   0  0  0  0  0  0  0  0  0  0  0  0
  -25.5834  -31.1682   20.5287 C   0  0  0  0  0  0  0  0  0  0  0  0
  -24.4310  -28.7422   21.7662 C   0  0  0  0  0  0  0  0  0  0  0  0
  -27.3100  -33.3030   26.1297 C   0  0  0  0  0  0  0  0  0  0  0  0
  -30.2279  -13.6084   20.6087 C   0  0  0  0  0  0  0  0  0  0  0  0
  -27.7643  -31.9304   25.6436 C   0  0  0  0  0  0  0  0  0  0  0  0
  -28.9043  -12.8430   20.6746 C   0  0  0  0  0  0  0  0  0  0  0  0
  -30.1107  -14.9987   21.2306 C   0  0  0  0  0  0  0  0  0  0  0  0
  -27.6909  -15.0579   20.7719 C   0  0  0  0  0  0  0  0  0  0  0  0
  -28.1979  -31.9815   24.1736 C   0  0  1  0  0  0  0  0  0  0  0  0
  -25.1990  -31.1246   22.0044 C   0  0  1  0  0  0  0  0  0  0  0  0
  -27.7422  -13.6763   20.0993 C   0  0  2  0  0  0  0  0  0  0  0  0
  -27.2368  -22.2457   15.1600 C   0  0  0  0  0  0  0  0  0  0  0  0
  -17.9230  -28.5421   22.6323 C   0  0  0  0  0  0  0  0  0  0  0  0
  -23.8048  -28.6860   25.6745 C   0  0  0  0  0  0  0  0  0  0  0  0
  -21.4852  -27.7544   25.5327 C   0  0  0  0  0  0  0  0  0  0  0  0
  -21.8257  -30.1945   25.9239 C   0  0  0  0  0  0  0  0  0  0  0  0
  -19.6548  -29.7028   19.4496 C   0  0  0  0  0  0  0  0  0  0  0  0
  -31.3959  -20.7966   18.2095 C   0  0  0  0  0  0  0  0  0  0  0  0
  -27.4803  -23.8662   18.5901 C   0  0  0  0  0  0  0  0  0  0  0  0
  -26.5898  -24.9523   19.1606 C   0  0  0  0  0  0  0  0  0  1  0  0
  -27.7848  -22.4240   16.5737 C   0  0  1  0  0  0  0  0  0  0  0  0
  -22.3105  -29.2260   23.6394 C   0  0  1  0  0  0  0  0  0  0  0  0
  -18.9879  -29.2568   21.8149 C   0  0  2  0  0  0  0  0  0  0  0  0
  -22.3743  -28.9632   25.1705 C   0  0  0  0  0  0  0  0  0  0  0  0
  -26.2153  -12.1131   21.2423 N   0  0  0  0  0  0  0  0  0  0  0  0
  -29.1649  -19.4833   18.5413 N   0  0  0  0  0  0  0  0  0  0  0  0
  -26.4183  -12.9427   20.2047 N   0  0  0  0  0  0  0  0  0  0  0  0
  -24.1996  -30.0954   22.2980 N   0  0  0  0  0  0  0  0  0  0  0  0
  -28.9918  -15.7314   20.6339 N   0  0  0  0  0  0  0  0  0  0  0  0
  -25.3975  -13.8075   18.2500 N   0  0  0  0  0  0  0  0  0  0  0  0
  -22.2448  -11.0501   19.9392 N   0  0  0  0  0  0  0  0  0  0  0  0
  -28.0944  -17.5600   19.4450 N   0  0  0  0  0  0  0  0  0  0  0  0
  -27.0401  -32.0049   23.3056 N   0  0  0  0  0  0  0  0  0  0  0  0
  -20.9718  -29.5182   23.1386 N   0  0  0  0  0  0  0  0  0  0  0  0
  -18.6982  -29.0358   20.3699 N   0  3  0  0  0  0  0  0  0  0  0  0
  -26.9584  -23.4511   17.2636 N   0  3  0  0  0  0  0  0  0  0  0  0
  -22.7367  -12.4825   18.2173 O   0  0  0  0  0  0  0  0  0  0  0  0
  -26.6557  -29.7102   23.2095 O   0  0  0  0  0  0  0  0  0  0  0  0
  -22.9621  -31.5063   23.6815 O   0  0  0  0  0  0  0  0  0  0  0  0
  -20.8852  -27.7748   21.6121 O   0  0  0  0  0  0  0  0  0  0  0  0
  -30.3585  -17.4622   19.9410 O   0  0  0  0  0  0  0  0  0  0  0  0
  -22.6782   -8.0066   24.5851 O   0  0  0  0  0  0  0  0  0  0  0  0
  -26.5652  -26.0668   18.2697 O   0  0  0  0  0  0  0  0  0  1  0  0
  -30.2069  -21.3498   17.6586 O   0  0  0  0  0  0  0  0  0  0  0  0
  -20.0545   -3.6494   22.4556 F   0  0  0  0  0  0  0  0  0  0  0  0
  -23.4997   -5.4321   25.1682 F   0  0  0  0  0  0  0  0  0  0  0  0
  1  2  1  0  0  0  0
  1  5  2  0  0  0  0
  2  6  2  0  0  0  0
  3  9  2  0  0  0  0
  3 17  1  0  0  0  0
  4 10  1  0  0  0  0
  4 17  2  0  0  0  0
  5 19  1  0  0  0  0
  6 21  1  0  0  0  0
  7 11  2  0  0  0  0
  7 20  1  0  0  0  0
  8 14  2  0  0  0  0
  8 23  1  0  0  0  0
  9 24  1  0  0  0  0
 10 24  2  0  0  0  0
 11 25  1  0  0  0  0
 12 13  2  0  0  0  0
 12 26  1  0  0  0  0
 13 27  1  0  0  0  0
 14 30  1  0  0  0  0
 15 22  1  0  0  0  0
 15 25  2  0  0  0  0
 16 27  2  0  0  0  0
 16 28  1  0  0  0  0
 17 29  1  0  0  0  0
 18 29  1  0  0  0  0
 18 32  2  0  0  0  0
 18 33  1  0  0  0  0
 19 21  2  0  0  0  0
 19 38  1  0  0  0  0
 20 22  2  0  0  0  0
 20 39  1  0  0  0  0
 21 47  1  0  0  0  0
 22 40  1  0  0  0  0
 23 31  2  0  0  0  0
 23 59  1  0  0  0  0
 24 80  1  0  0  0  0
 25 81  1  0  0  0  0
 26 28  2  0  0  0  0
 26 80  1  0  0  0  0
 27 83  1  0  0  0  0
 28 84  1  0  0  0  0
 29 63  2  0  0  0  0
 30 64  2  0  0  0  0
 30 70  1  0  0  0  0
 31 64  1  0  0  0  0
 31 82  1  0  0  0  0
 32 65  1  0  0  0  0
 32 68  1  0  0  0  0
 33 69  1  0  0  0  0
 33 75  2  0  0  0  0
 34 48  1  0  0  0  0
 34 71  1  0  0  0  0
 34 76  2  0  0  0  0
 35 60  1  0  0  0  0
 35 66  1  0  0  0  0
 35 77  2  0  0  0  0
 36 61  1  0  0  0  0
 36 72  1  0  0  0  0
 36 78  2  0  0  0  0
 37 67  1  0  0  0  0
 37 70  1  0  0  0  0
 37 79  2  0  0  0  0
 38 41  1  0  0  0  0
 39 48  1  0  0  0  0
 40 66  1  0  0  0  0
 41 43  1  0  0  0  0
 42 44  1  0  0  0  0
 42 45  1  0  0  0  0
 43 47  1  0  0  0  0
 44 49  1  0  0  0  0
 45 67  1  0  0  0  0
 46 49  1  0  0  0  0
 46 67  1  0  0  0  0
 47 71  1  0  0  0  0
 48 66  1  0  0  0  0
 49 65  1  0  0  0  0
 50 59  1  0  0  0  0
 51 61  1  0  0  0  0
 52 62  1  0  0  0  0
 53 62  1  0  0  0  0
 54 62  1  0  0  0  0
 55 73  1  0  0  0  0
 56 82  1  0  0  0  0
 57 58  1  0  0  0  0
 57 74  1  0  0  0  0
 58 81  1  0  0  0  0
 59 74  1  0  0  0  0
 60 62  1  0  0  0  0
 60 72  1  0  0  0  0
 61 73  1  0  0  0  0
 63 65  1  0  0  0  0
M  CHG  2  73   1  74   1
M  ISO  4  37 100  58 101  70 100  81 101
M  END
> <Batch ID>
0186

> <Smiles>
CNC(C)C(=O)NC(C(=O)N1Cc2cc([101O:1][101CH2:1]CNC(C)c3ccc([100NH:0][100C:0](=O)N4CCCC(n5nc(-c6ccc(Oc7ccc(F)cc7F)cc6)c(C(N)=O)c5N)C4)nc3OC)ccc2CC1C(=O)NC1CCCc2ccccc21)C(C)(C)C

> <Shape>
0.280

> <Color>
0.100

> <Negative vol penalty>
0.000

$$$$

  -OEChem-04052323143D

 85 94  0     1  0  0  0  0  0999 V2000
  -27.9663  -36.1251   24.2560 C   0  0  0  0  0  0  0  0  0  0  0  0
  -28.3802  -34.8706   23.8195 C   0  0  0  0  0  0  0  0  0  0  0  0
  -24.4888   -8.9889   21.7287 C   0  0  0  0  0  0  0  0  0  0  0  0
  -23.0708  -10.2963   20.2737 C   0  0  0  0  0  0  0  0  0  0  0  0
  -26.6732  -36.2993   24.7474 C   0  0  0  0  0  0  0  0  0  0  0  0
  -27.5015  -33.7893   23.8753 C   0  0  0  0  0  0  0  0  0  0  0  0
  -27.1368  -29.1337   19.9132 C   0  0  0  0  0  0  0  0  0  0  0  0
  -23.3894   -8.6932   22.5345 C   0  0  0  0  0  0  0  0  0  0  0  0
  -21.9713  -10.0005   21.0794 C   0  0  0  0  0  0  0  0  0  0  0  0
  -27.6454  -27.8359   19.9415 C   0  0  0  0  0  0  0  0  0  0  0  0
  -20.7483   -6.5829   22.4683 C   0  0  0  0  0  0  0  0  0  0  0  0
  -20.5873   -5.2618   22.8858 C   0  0  0  0  0  0  0  0  0  0  0  0
  -25.5370  -27.0347   20.7970 C   0  0  0  0  0  0  0  0  0  0  0  0
  -20.7264   -5.9732   25.1905 C   0  0  0  0  0  0  0  0  0  0  0  0
  -28.2816  -22.9178   19.3251 C   0  0  0  0  0  0  0  0  0  0  0  0
  -24.3295   -9.7906   20.5983 C   0  0  0  0  0  0  0  0  0  0  0  0
  -25.9279   -9.3644   18.6563 C   0  0  0  0  0  0  0  0  0  0  0  0
  -25.7751  -35.2217   24.8002 C   0  0  0  0  0  0  0  0  0  0  0  0
  -25.8259  -29.3938   20.3376 C   0  0  0  0  0  0  0  0  0  0  0  0
  -26.1956  -33.9490   24.3691 C   0  0  0  0  0  0  0  0  0  0  0  0
  -25.0133  -28.3363   20.7706 C   0  0  0  0  0  0  0  0  0  0  0  0
  -22.1306   -9.1990   22.2099 C   0  0  0  0  0  0  0  0  0  0  0  0
  -26.8465  -26.7866   20.3862 C   0  0  0  0  0  0  0  0  0  0  0  0
  -20.8985   -7.5992   23.4119 C   0  0  0  0  0  0  0  0  0  0  0  0
  -20.5763   -4.9569   24.2469 C   0  0  0  0  0  0  0  0  0  0  0  0
  -20.8875   -7.2943   24.7730 C   0  0  0  0  0  0  0  0  0  0  0  0
  -25.4650  -10.0969   19.7658 C   0  0  0  0  0  0  0  0  0  0  0  0
  -29.0106  -23.8311   20.0543 C   0  0  0  0  0  0  0  0  0  0  0  0
  -30.2958  -22.1355   20.8930 C   0  0  0  0  0  0  0  0  0  0  0  0
  -29.5662  -21.2222   20.1642 C   0  0  0  0  0  0  0  0  0  0  0  0
  -27.0242  -10.0648   18.2157 C   0  0  0  0  0  0  0  0  0  0  0  0
  -25.4129   -8.1589   18.0757 C   0  0  0  0  0  0  0  0  0  0  0  0
  -24.5223  -31.1357   22.6549 C   0  0  0  0  0  0  0  0  0  0  0  0
  -21.7494  -30.2825   21.2039 C   0  0  0  0  0  0  0  0  0  0  0  0
  -20.0854  -28.0706   19.2076 C   0  0  0  0  0  0  0  0  0  0  0  0
  -28.4094  -15.8009   18.7470 C   0  0  0  0  0  0  0  0  0  0  0  0
  -24.4028  -35.4483   25.3835 C   0  0  0  0  0  0  0  0  0  0  0  0
  -25.2833  -30.7954   20.2756 C   0  0  0  0  0  0  0  0  0  0  0  0
  -23.5925  -28.5597   21.2177 C   0  0  0  0  0  0  0  0  0  0  0  0
  -23.4118  -34.3332   25.0601 C   0  0  0  0  0  0  0  0  0  0  0  0
  -30.4955  -12.9534   19.7336 C   0  0  0  0  0  0  0  0  0  0  0  0
  -24.0474  -32.9676   25.3008 C   0  0  0  0  0  0  0  0  0  0  0  0
  -29.4555  -11.8402   19.8061 C   0  0  0  0  0  0  0  0  0  0  0  0
  -29.9269  -14.3089   20.1553 C   0  0  0  0  0  0  0  0  0  0  0  0
  -27.6533  -13.5717   19.4933 C   0  0  0  0  0  0  0  0  0  0  0  0
  -28.8421  -18.3167   18.6488 C   0  0  0  0  0  0  0  0  0  0  0  0
  -29.5520  -17.4320   20.4489 C   0  0  0  0  0  0  0  0  0  0  0  0
  -25.2635  -32.7570   24.3907 C   0  0  1  0  0  0  0  0  0  0  0  0
  -24.1038  -31.0216   21.2163 C   0  0  1  0  0  0  0  0  0  0  0  0
  -28.2012  -12.2228   19.0066 C   0  0  2  0  0  0  0  0  0  0  0  0
  -28.9589  -18.8031   20.0976 C   0  0  0  0  0  0  0  0  0  0  0  0
  -32.7648  -21.7367   21.0426 C   0  0  0  0  0  0  0  0  0  0  0  0
  -17.8183  -27.6174   18.2318 C   0  0  0  0  0  0  0  0  0  0  0  0
  -20.7862  -29.2724   23.9171 C   0  0  0  0  0  0  0  0  0  0  0  0
  -18.9822  -28.0078   22.7279 C   0  0  0  0  0  0  0  0  0  0  0  0
  -19.0586  -30.4971   22.5866 C   0  0  0  0  0  0  0  0  0  0  0  0
  -21.1058  -28.2890   16.4381 C   0  0  0  0  0  0  0  0  0  0  0  0
  -28.6894  -25.2833   19.9834 C   0  0  0  0  0  0  0  0  0  1  0  0
  -31.4242  -21.7169   21.7739 C   0  0  1  0  0  0  0  0  0  0  0  0
  -20.7822  -29.1314   21.3391 C   0  0  1  0  0  0  0  0  0  0  0  0
  -19.1693  -28.2814   18.0156 C   0  0  2  0  0  0  0  0  0  0  0  0
  -19.9297  -29.2229   22.6362 C   0  0  0  0  0  0  0  0  0  0  0  0
  -28.5462  -21.5969   19.3669 N   0  0  0  0  0  0  0  0  0  0  0  0
  -26.2067  -11.1794   20.0148 N   0  0  0  0  0  0  0  0  0  0  0  0
  -30.0309  -23.4563   20.8514 N   0  0  0  0  0  0  0  0  0  0  0  0
  -27.1468  -11.1323   19.0556 N   0  0  0  0  0  0  0  0  0  0  0  0
  -23.1099  -29.9486   21.1447 N   0  0  0  0  0  0  0  0  0  0  0  0
  -28.6777  -14.6219   19.4509 N   0  0  0  0  0  0  0  0  0  0  0  0
  -28.9916  -16.9668   19.1875 N   0  0  0  0  0  0  0  0  0  0  0  0
  -27.8857   -9.8653   17.1957 N   0  0  0  0  0  0  0  0  0  0  0  0
  -24.2793   -7.5705   18.6530 N   0  0  0  0  0  0  0  0  0  0  0  0
  -29.8905  -19.8640   20.2496 N   0  0  0  0  0  0  0  0  0  0  0  0
  -24.8383  -32.4221   23.0485 N   0  0  0  0  0  0  0  0  0  0  0  0
  -19.9981  -29.1103   20.1090 N   0  0  0  0  0  0  0  0  0  0  0  0
  -19.7823  -27.7093   16.7836 N   0  3  0  0  0  0  0  0  0  0  0  0
  -25.9519   -7.6104   17.0847 O   0  0  0  0  0  0  0  0  0  0  0  0
  -24.5546  -30.1314   23.3563 O   0  0  0  0  0  0  0  0  0  0  0  0
  -21.3135  -31.4350   21.1455 O   0  0  0  0  0  0  0  0  0  0  0  0
  -20.8037  -27.0807   19.3288 O   0  0  0  0  0  0  0  0  0  0  0  0
  -27.6473  -15.8205   17.7715 O   0  0  0  0  0  0  0  0  0  0  0  0
  -21.0575   -8.9104   22.9958 O   0  0  0  0  0  0  0  0  0  0  0  0
  -27.3501  -25.4947   20.4160 O   0  0  0  0  0  0  0  0  0  1  0  0
  -20.4201   -3.6884   24.6477 F   0  0  0  0  0  0  0  0  0  0  0  0
  -21.0301   -8.2665   25.6842 F   0  0  0  0  0  0  0  0  0  0  0  0
  -31.5654  -22.5101   22.8852 F   0  0  0  0  0  0  0  0  0  0  0  0
  1  2  1  0  0  0  0
  1  5  2  0  0  0  0
  2  6  2  0  0  0  0
  3  8  2  0  0  0  0
  3 16  1  0  0  0  0
  4  9  1  0  0  0  0
  4 16  2  0  0  0  0
  5 18  1  0  0  0  0
  6 20  1  0  0  0  0
  7 10  2  0  0  0  0
  7 19  1  0  0  0  0
  8 22  1  0  0  0  0
  9 22  2  0  0  0  0
 10 23  1  0  0  0  0
 11 12  2  0  0  0  0
 11 24  1  0  0  0  0
 12 25  1  0  0  0  0
 13 21  1  0  0  0  0
 13 23  2  0  0  0  0
 14 25  2  0  0  0  0
 14 26  1  0  0  0  0
 15 28  1  0  0  0  0
 15 63  2  0  0  0  0
 16 27  1  0  0  0  0
 17 27  1  0  0  0  0
 17 31  2  0  0  0  0
 17 32  1  0  0  0  0
 18 20  2  0  0  0  0
 18 37  1  0  0  0  0
 19 21  2  0  0  0  0
 19 38  1  0  0  0  0
 20 48  1  0  0  0  0
 21 39  1  0  0  0  0
 22 81  1  0  0  0  0
 23 82  1  0  0  0  0
 24 26  2  0  0  0  0
 24 81  1  0  0  0  0
 25 83  1  0  0  0  0
 26 84  1  0  0  0  0
 27 64  2  0  0  0  0
 28 58  1  0  0  0  0
 28 65  2  0  0  0  0
 29 30  2  0  0  0  0
 29 59  1  0  0  0  0
 29 65  1  0  0  0  0
 30 63  1  0  0  0  0
 30 72  1  0  0  0  0
 31 66  1  0  0  0  0
 31 70  1  0  0  0  0
 32 71  1  0  0  0  0
 32 76  2  0  0  0  0
 33 49  1  0  0  0  0
 33 73  1  0  0  0  0
 33 77  2  0  0  0  0
 34 60  1  0  0  0  0
 34 67  1  0  0  0  0
 34 78  2  0  0  0  0
 35 61  1  0  0  0  0
 35 74  1  0  0  0  0
 35 79  2  0  0  0  0
 36 68  1  0  0  0  0
 36 69  1  0  0  0  0
 36 80  2  0  0  0  0
 37 40  1  0  0  0  0
 38 49  1  0  0  0  0
 39 67  1  0  0  0  0
 40 42  1  0  0  0  0
 41 43  1  0  0  0  0
 41 44  1  0  0  0  0
 42 48  1  0  0  0  0
 43 50  1  0  0  0  0
 44 68  1  0  0  0  0
 45 50  1  0  0  0  0
 45 68  1  0  0  0  0
 46 51  1  0  0  0  0
 46 69  1  0  0  0  0
 47 51  1  0  0  0  0
 47 69  1  0  0  0  0
 48 73  1  0  0  0  0
 49 67  1  0  0  0  0
 50 66  1  0  0  0  0
 51 72  1  0  0  0  0
 52 59  1  0  0  0  0
 53 61  1  0  0  0  0
 54 62  1  0  0  0  0
 55 62  1  0  0  0  0
 56 62  1  0  0  0  0
 57 75  1  0  0  0  0
 58 82  1  0  0  0  0
 59 85  1  0  0  0  0
 60 62  1  0  0  0  0
 60 74  1  0  0  0  0
 61 75  1  0  0  0  0
 64 66  1  0  0  0  0
M  CHG  1  75   1
M  ISO  4  36 100  58 101  69 100  82 101
M  END
> <Batch ID>
0186

> <Smiles>
CNC(C)C(=O)NC(C(=O)N1Cc2cc([101O:1][101CH2:1]c3cnc(NC4C[100N:0]([100C:0](=O)N5CCCC(n6nc(-c7ccc(Oc8ccc(F)cc8F)cc7)c(C(N)=O)c6N)C5)C4)c(C(C)F)n3)ccc2CC1C(=O)NC1CCCc2ccccc21)C(C)(C)C

> <Shape>
0.328

> <Color>
0.081

> <Negative vol penalty>
0.000

$$$$

  -OEChem-04052323143D

 85 94  0     1  0  0  0  0  0999 V2000
  -26.9001  -34.0640   26.6998 C   0  0  0  0  0  0  0  0  0  0  0  0
  -27.4051  -33.0891   25.8455 C   0  0  0  0  0  0  0  0  0  0  0  0
  -23.1512  -10.5029   21.7352 C   0  0  0  0  0  0  0  0  0  0  0  0
  -24.5152   -8.6081   21.1138 C   0  0  0  0  0  0  0  0  0  0  0  0
  -25.5778  -33.9901   27.1359 C   0  0  0  0  0  0  0  0  0  0  0  0
  -26.5884  -32.0390   25.4276 C   0  0  0  0  0  0  0  0  0  0  0  0
  -26.6751  -29.2534   19.9742 C   0  0  0  0  0  0  0  0  0  0  0  0
  -22.0003   -9.7434   21.5251 C   0  0  0  0  0  0  0  0  0  0  0  0
  -23.3643   -7.8485   20.9037 C   0  0  0  0  0  0  0  0  0  0  0  0
  -27.2557  -28.0633   19.5380 C   0  0  0  0  0  0  0  0  0  0  0  0
  -21.1080   -6.1762   22.7834 C   0  0  0  0  0  0  0  0  0  0  0  0
  -21.0867   -4.8793   23.2962 C   0  0  0  0  0  0  0  0  0  0  0  0
  -25.1596  -26.9207   19.8849 C   0  0  0  0  0  0  0  0  0  0  0  0
  -20.7733   -4.0028   21.0667 C   0  0  0  0  0  0  0  0  0  0  0  0
  -24.4087   -9.9353   21.5295 C   0  0  0  0  0  0  0  0  0  0  0  0
  -26.3244  -10.8490   22.9447 C   0  0  0  0  0  0  0  0  0  0  0  0
  -24.7417  -32.9438   26.7154 C   0  0  0  0  0  0  0  0  0  0  0  0
  -25.3332  -29.2839   20.3801 C   0  0  0  0  0  0  0  0  0  0  0  0
  -25.2541  -31.9502   25.8595 C   0  0  0  0  0  0  0  0  0  0  0  0
  -24.5637  -28.1131   20.3234 C   0  0  0  0  0  0  0  0  0  0  0  0
  -22.1068   -8.4162   21.1094 C   0  0  0  0  0  0  0  0  0  0  0  0
  -26.4987  -26.8961   19.4960 C   0  0  0  0  0  0  0  0  0  0  0  0
  -20.9619   -6.3865   21.4122 C   0  0  0  0  0  0  0  0  0  0  0  0
  -20.9194   -3.7926   22.4379 C   0  0  0  0  0  0  0  0  0  0  0  0
  -20.7946   -5.2998   20.5539 C   0  0  0  0  0  0  0  0  0  0  0  0
  -25.5979  -10.7195   21.7458 C   0  0  0  0  0  0  0  0  0  0  0  0
  -27.3588  -11.6959   22.6295 C   0  0  0  0  0  0  0  0  0  0  0  0
  -28.8713  -24.4354   18.2101 C   0  0  0  0  0  0  0  0  0  0  0  0
  -29.4714  -22.3189   18.6541 C   0  0  0  0  0  0  0  0  0  0  0  0
  -29.4108  -23.0464   16.5318 C   0  0  0  0  0  0  0  0  0  0  0  0
  -26.0856  -10.2567   24.2283 C   0  0  0  0  0  0  0  0  0  0  0  0
  -23.8261  -29.9543   23.0972 C   0  0  0  0  0  0  0  0  0  0  0  0
  -21.1768  -29.6264   21.2545 C   0  0  0  0  0  0  0  0  0  0  0  0
  -19.7366  -28.2939   18.4622 C   0  0  0  0  0  0  0  0  0  0  0  0
  -29.3981  -16.1119   20.3610 C   0  0  0  0  0  0  0  0  0  0  0  0
  -23.3332  -32.8802   27.2510 C   0  0  0  0  0  0  0  0  0  0  0  0
  -24.7144  -30.5814   20.8227 C   0  0  0  0  0  0  0  0  0  0  0  0
  -23.1133  -28.0970   20.7290 C   0  0  0  0  0  0  0  0  0  0  0  0
  -22.4239  -31.9406   26.4632 C   0  0  0  0  0  0  0  0  0  0  0  0
  -28.9864  -13.4048   18.1630 C   0  0  0  0  0  0  0  0  0  0  0  0
  -23.1252  -30.6108   26.2053 C   0  0  0  0  0  0  0  0  0  0  0  0
  -28.1188  -12.4644   18.9991 C   0  0  0  0  0  0  0  0  0  0  0  0
  -28.9272  -19.1749   18.6924 C   0  0  0  0  0  0  0  0  0  0  0  0
  -30.7899  -19.2847   20.3912 C   0  0  0  0  0  0  0  0  0  0  0  0
  -28.5618  -14.8662   18.3184 C   0  0  0  0  0  0  0  0  0  0  0  0
  -29.3008  -17.7183   18.4023 C   0  0  0  0  0  0  0  0  0  0  0  0
  -31.1434  -17.8402   20.0483 C   0  0  0  0  0  0  0  0  0  0  0  0
  -27.6322  -14.3864   20.5599 C   0  0  0  0  0  0  0  0  0  0  0  0
  -24.3921  -30.8093   25.3643 C   0  0  1  0  0  0  0  0  0  0  0  0
  -23.4817  -30.3869   21.7001 C   0  0  1  0  0  0  0  0  0  0  0  0
  -28.0721  -12.9169   20.4694 C   0  0  1  0  0  0  0  0  0  0  0  0
  -30.1314  -19.9752   19.1940 C   0  0  0  0  0  0  0  0  0  0  0  0
  -17.5467  -28.1704   17.2430 C   0  0  0  0  0  0  0  0  0  0  0  0
  -20.1492  -27.6179   23.3087 C   0  0  0  0  0  0  0  0  0  0  0  0
  -18.4776  -26.8442   21.6129 C   0  0  0  0  0  0  0  0  0  0  0  0
  -18.4172  -29.1977   22.4375 C   0  0  0  0  0  0  0  0  0  0  0  0
  -20.8693  -29.5957   16.0578 C   0  0  0  0  0  0  0  0  0  0  0  0
  -28.4353  -25.7801   18.6835 C   0  0  0  0  0  0  0  0  0  1  0  0
  -20.2721  -28.4782   20.8775 C   0  0  1  0  0  0  0  0  0  0  0  0
  -18.8658  -28.9139   17.3843 C   0  0  2  0  0  0  0  0  0  0  0  0
  -19.3569  -28.0340   22.0533 C   0  0  0  0  0  0  0  0  0  0  0  0
  -26.1260  -11.4275   20.7439 N   0  0  0  0  0  0  0  0  0  0  0  0
  -29.0806  -23.5025   19.1532 N   0  0  0  0  0  0  0  0  0  0  0  0
  -29.0158  -24.2804   16.8841 N   0  0  0  0  0  0  0  0  0  0  0  0
  -29.6572  -22.0177   17.3588 N   0  0  0  0  0  0  0  0  0  0  0  0
  -27.1952  -12.0102   21.3125 N   0  0  0  0  0  0  0  0  0  0  0  0
  -22.5555  -29.3893   21.1604 N   0  0  0  0  0  0  0  0  0  0  0  0
  -28.4928  -15.2398   19.7380 N   0  0  0  0  0  0  0  0  0  0  0  0
  -29.9712  -17.1120   19.5615 N   0  0  0  0  0  0  0  0  0  0  0  0
  -28.3832  -12.1950   23.3533 N   0  0  0  0  0  0  0  0  0  0  0  0
  -24.9780   -9.4112   24.3784 N   0  0  0  0  0  0  0  0  0  0  0  0
  -29.7074  -21.3067   19.5673 N   0  0  0  0  0  0  0  0  0  0  0  0
  -24.0492  -31.0009   23.9714 N   0  0  0  0  0  0  0  0  0  0  0  0
  -19.5482  -28.9036   19.6844 N   0  0  0  0  0  0  0  0  0  0  0  0
  -19.5668  -28.8813   16.0696 N   0  3  0  0  0  0  0  0  0  0  0  0
  -26.8230  -10.4839   25.2174 O   0  0  0  0  0  0  0  0  0  0  0  0
  -23.8838  -28.7593   23.3628 O   0  0  0  0  0  0  0  0  0  0  0  0
  -20.6785  -30.6966   21.6122 O   0  0  0  0  0  0  0  0  0  0  0  0
  -20.5042  -27.3595   18.2426 O   0  0  0  0  0  0  0  0  0  0  0  0
  -29.6779  -16.0035   21.5615 O   0  0  0  0  0  0  0  0  0  0  0  0
  -20.9840   -7.6747   20.9045 O   0  0  0  0  0  0  0  0  0  0  0  0
  -27.0670  -25.7250   19.0684 O   0  0  0  0  0  0  0  0  0  1  0  0
  -20.9006   -2.5470   22.9304 F   0  0  0  0  0  0  0  0  0  0  0  0
  -20.6549   -5.4955   19.2355 F   0  0  0  0  0  0  0  0  0  0  0  0
  -29.6216  -22.7556   14.8618 Cl  0  0  0  0  0  0  0  0  0  0  0  0
  1  2  1  0  0  0  0
  1  5  2  0  0  0  0
  2  6  2  0  0  0  0
  3  8  2  0  0  0  0
  3 15  1  0  0  0  0
  4  9  1  0  0  0  0
  4 15  2  0  0  0  0
  5 17  1  0  0  0  0
  6 19  1  0  0  0  0
  7 10  2  0  0  0  0
  7 18  1  0  0  0  0
  8 21  1  0  0  0  0
  9 21  2  0  0  0  0
 10 22  1  0  0  0  0
 11 12  2  0  0  0  0
 11 23  1  0  0  0  0
 12 24  1  0  0  0  0
 13 20  1  0  0  0  0
 13 22  2  0  0  0  0
 14 24  2  0  0  0  0
 14 25  1  0  0  0  0
 15 26  1  0  0  0  0
 16 26  1  0  0  0  0
 16 27  2  0  0  0  0
 16 31  1  0  0  0  0
 17 19  2  0  0  0  0
 17 36  1  0  0  0  0
 18 20  2  0  0  0  0
 18 37  1  0  0  0  0
 19 49  1  0  0  0  0
 20 38  1  0  0  0  0
 21 81  1  0  0  0  0
 22 82  1  0  0  0  0
 23 25  2  0  0  0  0
 23 81  1  0  0  0  0
 24 83  1  0  0  0  0
 25 84  1  0  0  0  0
 26 62  2  0  0  0  0
 27 66  1  0  0  0  0
 27 70  1  0  0  0  0
 28 58  1  0  0  0  0
 28 63  2  0  0  0  0
 28 64  1  0  0  0  0
 29 63  1  0  0  0  0
 29 65  2  0  0  0  0
 29 72  1  0  0  0  0
 30 64  2  0  0  0  0
 30 65  1  0  0  0  0
 30 85  1  0  0  0  0
 31 71  1  0  0  0  0
 31 76  2  0  0  0  0
 32 50  1  0  0  0  0
 32 73  1  0  0  0  0
 32 77  2  0  0  0  0
 33 59  1  0  0  0  0
 33 67  1  0  0  0  0
 33 78  2  0  0  0  0
 34 60  1  0  0  0  0
 34 74  1  0  0  0  0
 34 79  2  0  0  0  0
 35 68  1  0  0  0  0
 35 69  1  0  0  0  0
 35 80  2  0  0  0  0
 36 39  1  0  0  0  0
 37 50  1  0  0  0  0
 38 67  1  0  0  0  0
 39 41  1  0  0  0  0
 40 42  1  0  0  0  0
 40 45  1  0  0  0  0
 41 49  1  0  0  0  0
 42 51  1  0  0  0  0
 43 46  1  0  0  0  0
 43 52  1  0  0  0  0
 44 47  1  0  0  0  0
 44 52  1  0  0  0  0
 45 68  1  0  0  0  0
 46 69  1  0  0  0  0
 47 69  1  0  0  0  0
 48 51  1  0  0  0  0
 48 68  1  0  0  0  0
 49 73  1  0  0  0  0
 50 67  1  0  0  0  0
 51 66  1  0  0  0  0
 52 72  1  0  0  0  0
 53 60  1  0  0  0  0
 54 61  1  0  0  0  0
 55 61  1  0  0  0  0
 56 61  1  0  0  0  0
 57 75  1  0  0  0  0
 58 82  1  0  0  0  0
 59 61  1  0  0  0  0
 59 74  1  0  0  0  0
 60 75  1  0  0  0  0
 62 66  1  0  0  0  0
M  CHG  1  75   1
M  ISO  4  35 100  58 101  69 100  82 101
M  END
> <Batch ID>
0186

> <Smiles>
CNC(C)C(=O)NC(C(=O)N1Cc2cc([101O:1][101CH2:1]c3nc(Cl)nc(NC4CC[100N:0]([100C:0](=O)N5CCCC(n6nc(-c7ccc(Oc8ccc(F)cc8F)cc7)c(C(N)=O)c6N)C5)CC4)n3)ccc2CC1C(=O)NC1CCCc2ccccc21)C(C)(C)C

> <Shape>
0.318

> <Color>
0.096

> <Negative vol penalty>
0.000

$$$$

  -OEChem-04052323143D

 82 90  0     1  0  0  0  0  0999 V2000
  -17.4040  -26.1117   19.8818 C   0  0  0  0  0  0  0  0  0  0  0  0
  -18.6910  -26.2502   19.3720 C   0  0  0  0  0  0  0  0  0  0  0  0
  -26.1170  -13.2739   21.7211 C   0  0  0  0  0  0  0  0  0  0  0  0
  -24.4394  -13.2829   19.9824 C   0  0  0  0  0  0  0  0  0  0  0  0
  -17.1213  -26.5310   21.1811 C   0  0  0  0  0  0  0  0  0  0  0  0
  -19.6958  -26.8092   20.1609 C   0  0  0  0  0  0  0  0  0  0  0  0
  -24.0360  -24.2126   19.9069 C   0  0  0  0  0  0  0  0  0  0  0  0
  -25.4589  -12.2174   22.3506 C   0  0  0  0  0  0  0  0  0  0  0  0
  -23.7814  -12.2263   20.6119 C   0  0  0  0  0  0  0  0  0  0  0  0
  -24.8276  -24.4046   18.7754 C   0  0  0  0  0  0  0  0  0  0  0  0
  -21.8574   -9.2935   21.5686 C   0  0  0  0  0  0  0  0  0  0  0  0
  -21.4183   -8.2356   20.7726 C   0  0  0  0  0  0  0  0  0  0  0  0
  -26.2344  -25.9154   20.0233 C   0  0  0  0  0  0  0  0  0  0  0  0
  -23.6933   -7.8151   20.0765 C   0  0  0  0  0  0  0  0  0  0  0  0
  -25.6072  -13.8067   20.5370 C   0  0  0  0  0  0  0  0  0  0  0  0
  -27.2969  -14.8104   18.9106 C   0  0  0  0  0  0  0  0  0  0  0  0
  -18.1254  -27.0866   21.9897 C   0  0  0  0  0  0  0  0  0  0  0  0
  -24.3318  -24.8801   21.1041 C   0  0  0  0  0  0  0  0  0  0  0  0
  -19.4259  -27.2377   21.4717 C   0  0  0  0  0  0  0  0  0  0  0  0
  -25.4466  -25.7282   21.1693 C   0  0  0  0  0  0  0  0  0  0  0  0
  -30.5788  -24.6470   16.5354 C   0  0  0  0  0  0  0  0  0  0  0  0
  -24.2911  -11.6935   21.7960 C   0  0  0  0  0  0  0  0  0  0  0  0
  -25.9253  -25.2583   18.8326 C   0  0  0  0  0  0  0  0  0  0  0  0
  -23.2144   -9.6123   21.6185 C   0  0  0  0  0  0  0  0  0  0  0  0
  -22.3362   -7.4964   20.0266 C   0  0  0  0  0  0  0  0  0  0  0  0
  -24.1324   -8.8731   20.8725 C   0  0  0  0  0  0  0  0  0  0  0  0
  -26.2862  -14.8985   19.8865 C   0  0  0  0  0  0  0  0  0  0  0  0
  -29.3114  -24.3425   16.9883 C   0  0  0  0  0  0  0  0  0  0  0  0
  -31.5906  -24.5251   17.4658 C   0  0  0  0  0  0  0  0  0  0  0  0
  -27.6062  -16.1161   18.6178 C   0  0  0  0  0  0  0  0  0  0  0  0
  -30.1119  -23.8678   19.0622 C   0  0  0  0  0  0  0  0  0  0  0  0
  -27.9021  -13.6518   18.3214 C   0  0  0  0  0  0  0  0  0  0  0  0
  -22.8137  -26.9958   22.9269 C   0  0  0  0  0  0  0  0  0  0  0  0
  -25.3334  -26.5109   24.9114 C   0  0  0  0  0  0  0  0  0  0  0  0
  -28.5846  -25.5419   25.2822 C   0  0  0  0  0  0  0  0  0  0  0  0
  -28.8549  -21.1734   20.4113 C   0  0  0  0  0  0  0  0  0  0  0  0
  -17.7608  -27.5689   23.3714 C   0  0  0  0  0  0  0  0  0  0  0  0
  -23.4838  -24.6416   22.3233 C   0  0  0  0  0  0  0  0  0  0  0  0
  -25.8188  -26.4527   22.4362 C   0  0  0  0  0  0  0  0  0  0  0  0
  -18.9699  -27.8066   24.2723 C   0  0  0  0  0  0  0  0  0  0  0  0
  -25.2872  -20.4187   19.8500 C   0  0  0  0  0  0  0  0  0  0  0  0
  -20.0441  -28.5930   23.5276 C   0  0  0  0  0  0  0  0  0  0  0  0
  -25.3167  -18.8946   19.7837 C   0  0  0  0  0  0  0  0  0  0  0  0
  -26.3298  -20.9707   20.8213 C   0  0  0  0  0  0  0  0  0  0  0  0
  -27.7432  -18.9636   20.4781 C   0  0  0  0  0  0  0  0  0  0  0  0
  -20.5485  -27.8165   22.3052 C   0  0  1  0  0  0  0  0  0  0  0  0
  -23.5759  -25.7705   23.3453 C   0  0  1  0  0  0  0  0  0  0  0  0
  -26.7343  -18.3926   19.4698 C   0  0  1  0  0  0  0  0  0  0  0  0
  -30.8267  -25.0766   15.1321 C   0  0  0  0  0  0  0  0  0  0  0  0
  -30.3789  -25.2889   27.0182 C   0  0  0  0  0  0  0  0  0  0  0  0
  -25.7475  -29.5339   24.9205 C   0  0  0  0  0  0  0  0  0  0  0  0
  -28.0402  -29.1470   25.8489 C   0  0  0  0  0  0  0  0  0  0  0  0
  -26.0337  -28.4350   27.1487 C   0  0  0  0  0  0  0  0  0  0  0  0
  -28.8012  -22.6298   24.8009 C   0  0  0  0  0  0  0  0  0  0  0  0
  -28.1235  -24.4369   16.0618 C   0  0  0  0  0  0  0  0  0  0  0  0
  -29.8520  -23.4393   20.4666 C   0  0  0  0  0  0  0  0  0  0  0  0
  -26.7971  -24.3611   16.8100 C   0  0  0  0  0  0  0  0  0  1  0  0
  -26.6960  -27.1380   25.0820 C   0  0  1  0  0  0  0  0  0  0  0  0
  -29.2484  -24.5996   26.2701 C   0  0  2  0  0  0  0  0  0  0  0  0
  -26.6215  -28.5514   25.7255 C   0  0  0  0  0  0  0  0  0  0  0  0
  -25.9743  -16.1604   20.1933 N   0  0  0  0  0  0  0  0  0  0  0  0
  -29.0408  -23.9482   18.2499 N   0  0  0  0  0  0  0  0  0  0  0  0
  -31.3922  -24.1367   18.7426 N   0  0  0  0  0  0  0  0  0  0  0  0
  -26.7938  -16.8773   19.4057 N   0  0  0  0  0  0  0  0  0  0  0  0
  -24.9551  -26.1916   23.5996 N   0  0  0  0  0  0  0  0  0  0  0  0
  -27.6691  -20.4284   20.5434 N   0  0  0  0  0  0  0  0  0  0  0  0
  -28.4912  -16.6760   17.7658 N   0  0  0  0  0  0  0  0  0  0  0  0
  -27.4661  -12.3861   18.7366 N   0  0  0  0  0  0  0  0  0  0  0  0
  -21.4667  -26.7745   22.7120 N   0  0  0  0  0  0  0  0  0  0  0  0
  -27.4950  -26.1790   25.8373 N   0  0  0  0  0  0  0  0  0  0  0  0
  -28.7267  -22.5489   20.5677 N   0  0  0  0  0  0  0  0  0  0  0  0
  -29.8083  -23.4151   25.5600 N   0  3  0  0  0  0  0  0  0  0  0  0
  -28.8142  -13.7363   17.4645 O   0  0  0  0  0  0  0  0  0  0  0  0
  -23.4036  -28.0635   22.8092 O   0  0  0  0  0  0  0  0  0  0  0  0
  -24.6335  -26.3052   25.9061 O   0  0  0  0  0  0  0  0  0  0  0  0
  -28.9941  -25.7000   24.1342 O   0  0  0  0  0  0  0  0  0  0  0  0
  -29.9507  -20.6521   20.1767 O   0  0  0  0  0  0  0  0  0  0  0  0
  -23.6489  -10.6624   22.4098 O   0  0  0  0  0  0  0  0  0  0  0  0
  -26.6992  -25.4480   17.7295 O   0  0  0  0  0  0  0  0  0  1  0  0
  -21.9146   -6.4795   19.2634 F   0  0  0  0  0  0  0  0  0  0  0  0
  -25.4375   -9.1738   20.9173 F   0  0  0  0  0  0  0  0  0  0  0  0
  -33.2360  -24.8542   17.0890 Cl  0  0  0  0  0  0  0  0  0  0  0  0
  1  2  1  0  0  0  0
  1  5  2  0  0  0  0
  2  6  2  0  0  0  0
  3  8  2  0  0  0  0
  3 15  1  0  0  0  0
  4  9  1  0  0  0  0
  4 15  2  0  0  0  0
  5 17  1  0  0  0  0
  6 19  1  0  0  0  0
  7 10  2  0  0  0  0
  7 18  1  0  0  0  0
  8 22  1  0  0  0  0
  9 22  2  0  0  0  0
 10 23  1  0  0  0  0
 11 12  2  0  0  0  0
 11 24  1  0  0  0  0
 12 25  1  0  0  0  0
 13 20  1  0  0  0  0
 13 23  2  0  0  0  0
 14 25  2  0  0  0  0
 14 26  1  0  0  0  0
 15 27  1  0  0  0  0
 16 27  1  0  0  0  0
 16 30  2  0  0  0  0
 16 32  1  0  0  0  0
 17 19  2  0  0  0  0
 17 37  1  0  0  0  0
 18 20  2  0  0  0  0
 18 38  1  0  0  0  0
 19 46  1  0  0  0  0
 20 39  1  0  0  0  0
 21 28  2  0  0  0  0
 21 29  1  0  0  0  0
 21 49  1  0  0  0  0
 22 78  1  0  0  0  0
 23 79  1  0  0  0  0
 24 26  2  0  0  0  0
 24 78  1  0  0  0  0
 25 80  1  0  0  0  0
 26 81  1  0  0  0  0
 27 61  2  0  0  0  0
 28 55  1  0  0  0  0
 28 62  1  0  0  0  0
 29 63  2  0  0  0  0
 29 82  1  0  0  0  0
 30 64  1  0  0  0  0
 30 67  1  0  0  0  0
 31 56  1  0  0  0  0
 31 62  2  0  0  0  0
 31 63  1  0  0  0  0
 32 68  1  0  0  0  0
 32 73  2  0  0  0  0
 33 47  1  0  0  0  0
 33 69  1  0  0  0  0
 33 74  2  0  0  0  0
 34 58  1  0  0  0  0
 34 65  1  0  0  0  0
 34 75  2  0  0  0  0
 35 59  1  0  0  0  0
 35 70  1  0  0  0  0
 35 76  2  0  0  0  0
 36 66  1  0  0  0  0
 36 71  1  0  0  0  0
 36 77  2  0  0  0  0
 37 40  1  0  0  0  0
 38 47  1  0  0  0  0
 39 65  1  0  0  0  0
 40 42  1  0  0  0  0
 41 43  1  0  0  0  0
 41 44  1  0  0  0  0
 42 46  1  0  0  0  0
 43 48  1  0  0  0  0
 44 66  1  0  0  0  0
 45 48  1  0  0  0  0
 45 66  1  0  0  0  0
 46 69  1  0  0  0  0
 47 65  1  0  0  0  0
 48 64  1  0  0  0  0
 50 59  1  0  0  0  0
 51 60  1  0  0  0  0
 52 60  1  0  0  0  0
 53 60  1  0  0  0  0
 54 72  1  0  0  0  0
 55 57  1  0  0  0  0
 56 71  1  0  0  0  0
 57 79  1  0  0  0  0
 58 60  1  0  0  0  0
 58 70  1  0  0  0  0
 59 72  1  0  0  0  0
 61 64  1  0  0  0  0
M  CHG  1  72   1
M  ISO  4  36 100  57 101  71 100  79 101
M  END
> <Batch ID>
0186

> <Smiles>
CNC(C)C(=O)NC(C(=O)N1Cc2cc([101O:1][101CH2:1]Cc3nc(C[100NH:0][100C:0](=O)N4CCCC(n5nc(-c6ccc(Oc7ccc(F)cc7F)cc6)c(C(N)=O)c5N)C4)nc(Cl)c3C)ccc2CC1C(=O)NC1CCCc2ccccc21)C(C)(C)C

> <Shape>
0.220

> <Color>
0.073

> <Negative vol penalty>
0.000

$$$$

  -OEChem-04052323143D

 81 90  0     1  0  0  0  0  0999 V2000
  -28.6119  -35.2596   25.5148 C   0  0  0  0  0  0  0  0  0  0  0  0
  -28.7428  -33.9185   25.1687 C   0  0  0  0  0  0  0  0  0  0  0  0
  -23.7033  -10.2688   22.2490 C   0  0  0  0  0  0  0  0  0  0  0  0
  -24.1999   -8.9659   20.2759 C   0  0  0  0  0  0  0  0  0  0  0  0
  -27.3485  -35.8480   25.5546 C   0  0  0  0  0  0  0  0  0  0  0  0
  -27.6102  -33.1647   24.8632 C   0  0  0  0  0  0  0  0  0  0  0  0
  -27.1905  -28.6562   20.7398 C   0  0  0  0  0  0  0  0  0  0  0  0
  -22.4698   -9.6276   22.3620 C   0  0  0  0  0  0  0  0  0  0  0  0
  -22.9664   -8.3246   20.3890 C   0  0  0  0  0  0  0  0  0  0  0  0
  -27.2362  -27.2679   20.8599 C   0  0  0  0  0  0  0  0  0  0  0  0
  -21.2988   -6.6587   23.4791 C   0  0  0  0  0  0  0  0  0  0  0  0
  -20.9131   -6.2136   24.7435 C   0  0  0  0  0  0  0  0  0  0  0  0
  -24.8254  -27.1990   20.9116 C   0  0  0  0  0  0  0  0  0  0  0  0
  -18.9574   -7.6288   24.6450 C   0  0  0  0  0  0  0  0  0  0  0  0
  -25.5082  -22.2936   20.2127 C   0  0  0  0  0  0  0  0  0  0  0  0
  -25.1491  -21.1842   22.6314 C   0  0  0  0  0  0  0  0  0  0  0  0
  -24.5684   -9.9380   21.2059 C   0  0  0  0  0  0  0  0  0  0  0  0
  -27.0649  -10.2000   21.6602 C   0  0  0  0  0  0  0  0  0  0  0  0
  -26.2007  -35.1035   25.2401 C   0  0  0  0  0  0  0  0  0  0  0  0
  -25.9600  -29.3284   20.7156 C   0  0  0  0  0  0  0  0  0  0  0  0
  -26.3301  -33.7433   24.9002 C   0  0  0  0  0  0  0  0  0  0  0  0
  -24.7667  -28.5956   20.7885 C   0  0  0  0  0  0  0  0  0  0  0  0
  -22.1013   -8.6554   21.4320 C   0  0  0  0  0  0  0  0  0  0  0  0
  -26.0537  -26.5394   20.9488 C   0  0  0  0  0  0  0  0  0  0  0  0
  -20.5139   -7.5890   22.7977 C   0  0  0  0  0  0  0  0  0  0  0  0
  -19.7423   -6.6986   25.3264 C   0  0  0  0  0  0  0  0  0  0  0  0
  -19.3432   -8.0739   23.3806 C   0  0  0  0  0  0  0  0  0  0  0  0
  -25.8425  -10.6005   21.0883 C   0  0  0  0  0  0  0  0  0  0  0  0
  -25.7183  -20.9494   20.4433 C   0  0  0  0  0  0  0  0  0  0  0  0
  -25.1014  -23.0305   21.3062 C   0  0  0  0  0  0  0  0  0  0  0  0
  -27.9636  -11.1560   21.2541 C   0  0  0  0  0  0  0  0  0  0  0  0
  -27.3616   -9.0652   22.4848 C   0  0  0  0  0  0  0  0  0  0  0  0
  -24.5540  -31.5006   22.5618 C   0  0  0  0  0  0  0  0  0  0  0  0
  -22.3108  -31.4717   20.2188 C   0  0  0  0  0  0  0  0  0  0  0  0
  -20.8220  -29.7832   17.6538 C   0  0  0  0  0  0  0  0  0  0  0  0
  -27.0855  -16.8360   19.6840 C   0  0  0  0  0  0  0  0  0  0  0  0
  -24.8520  -35.7707   25.3429 C   0  0  0  0  0  0  0  0  0  0  0  0
  -25.9271  -30.8239   20.5587 C   0  0  0  0  0  0  0  0  0  0  0  0
  -23.4196  -29.2678   20.7467 C   0  0  0  0  0  0  0  0  0  0  0  0
  -23.7364  -35.0005   24.6412 C   0  0  0  0  0  0  0  0  0  0  0  0
  -28.8247  -14.2403   17.7220 C   0  0  0  0  0  0  0  0  0  0  0  0
  -23.8031  -33.5193   24.9996 C   0  0  0  0  0  0  0  0  0  0  0  0
  -28.3140  -12.9708   18.3970 C   0  0  0  0  0  0  0  0  0  0  0  0
  -27.3886  -20.4598   18.5345 C   0  0  0  0  0  0  0  0  0  0  0  0
  -27.7711  -15.3470   17.7097 C   0  0  0  0  0  0  0  0  0  0  0  0
  -26.7122  -14.3904   19.7365 C   0  0  0  0  0  0  0  0  0  0  0  0
  -25.1275  -32.8991   24.5381 C   0  0  1  0  0  0  0  0  0  0  0  0
  -26.1568  -20.0817   19.3121 C   0  0  1  0  0  0  0  0  0  0  0  0
  -24.6298  -31.4492   21.0620 C   0  0  1  0  0  0  0  0  0  0  0  0
  -27.7748  -13.2826   19.8015 C   0  0  1  0  0  0  0  0  0  0  0  0
  -27.4282  -19.2780   19.4577 C   0  0  1  0  0  0  0  0  0  0  0  0
  -18.9921  -30.0025   15.9506 C   0  0  0  0  0  0  0  0  0  0  0  0
  -20.2314  -30.9443   22.3886 C   0  0  0  0  0  0  0  0  0  0  0  0
  -18.6370  -30.2392   20.5917 C   0  0  0  0  0  0  0  0  0  0  0  0
  -19.5154  -32.5736   20.6316 C   0  0  0  0  0  0  0  0  0  0  0  0
  -22.7285  -29.5382   15.4034 C   0  0  0  0  0  0  0  0  0  0  0  0
  -24.8457  -24.5010   21.1531 C   0  0  0  0  0  0  0  0  0  1  0  0
  -21.0511  -30.6828   19.9543 C   0  0  1  0  0  0  0  0  0  0  0  0
  -20.4714  -30.2062   16.2387 C   0  0  2  0  0  0  0  0  0  0  0  0
  -19.8840  -31.0972   20.8943 C   0  0  0  0  0  0  0  0  0  0  0  0
  -25.5477  -20.3592   21.6445 N   0  0  0  0  0  0  0  0  0  0  0  0
  -24.9110  -22.5062   22.5347 N   0  0  0  0  0  0  0  0  0  0  0  0
  -25.9511  -11.7236   20.3734 N   0  0  0  0  0  0  0  0  0  0  0  0
  -27.2525  -12.0369   20.4935 N   0  0  0  0  0  0  0  0  0  0  0  0
  -23.4399  -30.7325   20.5986 N   0  0  0  0  0  0  0  0  0  0  0  0
  -27.2216  -15.5860   19.0536 N   0  0  0  0  0  0  0  0  0  0  0  0
  -29.2848  -11.3207   21.4770 N   0  0  0  0  0  0  0  0  0  0  0  0
  -26.3212   -8.1828   22.8065 N   0  0  0  0  0  0  0  0  0  0  0  0
  -25.0973  -32.6449   23.1137 N   0  0  0  0  0  0  0  0  0  0  0  0
  -20.7599  -30.8429   18.5338 N   0  0  0  0  0  0  0  0  0  0  0  0
  -27.5110  -17.9356   18.9473 N   0  0  0  0  0  0  0  0  0  0  0  0
  -21.2561  -29.4124   15.2512 N   0  3  0  0  0  0  0  0  0  0  0  0
  -28.5116   -8.8492   22.9368 O   0  0  0  0  0  0  0  0  0  0  0  0
  -24.0392  -30.5714   23.1729 O   0  0  0  0  0  0  0  0  0  0  0  0
  -22.2953  -32.6980   20.0861 O   0  0  0  0  0  0  0  0  0  0  0  0
  -21.1176  -28.6275   17.9496 O   0  0  0  0  0  0  0  0  0  0  0  0
  -26.6137  -16.9659   20.8191 O   0  0  0  0  0  0  0  0  0  0  0  0
  -20.8978   -8.0293   21.5421 O   0  0  0  0  0  0  0  0  0  0  0  0
  -26.0955  -25.1843   21.0668 O   0  0  0  0  0  0  0  0  0  1  0  0
  -19.3712   -6.2699   26.5399 F   0  0  0  0  0  0  0  0  0  0  0  0
  -18.5844   -8.9668   22.7303 F   0  0  0  0  0  0  0  0  0  0  0  0
  1  2  1  0  0  0  0
  1  5  2  0  0  0  0
  2  6  2  0  0  0  0
  3  8  2  0  0  0  0
  3 17  1  0  0  0  0
  4  9  1  0  0  0  0
  4 17  2  0  0  0  0
  5 19  1  0  0  0  0
  6 21  1  0  0  0  0
  7 10  2  0  0  0  0
  7 20  1  0  0  0  0
  8 23  1  0  0  0  0
  9 23  2  0  0  0  0
 10 24  1  0  0  0  0
 11 12  2  0  0  0  0
 11 25  1  0  0  0  0
 12 26  1  0  0  0  0
 13 22  1  0  0  0  0
 13 24  2  0  0  0  0
 14 26  2  0  0  0  0
 14 27  1  0  0  0  0
 15 29  2  0  0  0  0
 15 30  1  0  0  0  0
 16 61  2  0  0  0  0
 16 62  1  0  0  0  0
 17 28  1  0  0  0  0
 18 28  1  0  0  0  0
 18 31  2  0  0  0  0
 18 32  1  0  0  0  0
 19 21  2  0  0  0  0
 19 37  1  0  0  0  0
 20 22  2  0  0  0  0
 20 38  1  0  0  0  0
 21 47  1  0  0  0  0
 22 39  1  0  0  0  0
 23 78  1  0  0  0  0
 24 79  1  0  0  0  0
 25 27  2  0  0  0  0
 25 78  1  0  0  0  0
 26 80  1  0  0  0  0
 27 81  1  0  0  0  0
 28 63  2  0  0  0  0
 29 48  1  0  0  0  0
 29 61  1  0  0  0  0
 30 57  1  0  0  0  0
 30 62  2  0  0  0  0
 31 64  1  0  0  0  0
 31 67  1  0  0  0  0
 32 68  1  0  0  0  0
 32 73  2  0  0  0  0
 33 49  1  0  0  0  0
 33 69  1  0  0  0  0
 33 74  2  0  0  0  0
 34 58  1  0  0  0  0
 34 65  1  0  0  0  0
 34 75  2  0  0  0  0
 35 59  1  0  0  0  0
 35 70  1  0  0  0  0
 35 76  2  0  0  0  0
 36 66  1  0  0  0  0
 36 71  1  0  0  0  0
 36 77  2  0  0  0  0
 37 40  1  0  0  0  0
 38 49  1  0  0  0  0
 39 65  1  0  0  0  0
 40 42  1  0  0  0  0
 41 43  1  0  0  0  0
 41 45  1  0  0  0  0
 42 47  1  0  0  0  0
 43 50  1  0  0  0  0
 44 48  1  0  0  0  0
 44 51  1  0  0  0  0
 45 66  1  0  0  0  0
 46 50  1  0  0  0  0
 46 66  1  0  0  0  0
 47 69  1  0  0  0  0
 48 51  1  0  0  0  0
 49 65  1  0  0  0  0
 50 64  1  0  0  0  0
 51 71  1  0  0  0  0
 52 59  1  0  0  0  0
 53 60  1  0  0  0  0
 54 60  1  0  0  0  0
 55 60  1  0  0  0  0
 56 72  1  0  0  0  0
 57 79  1  0  0  0  0
 58 60  1  0  0  0  0
 58 70  1  0  0  0  0
 59 72  1  0  0  0  0
 63 64  1  0  0  0  0
M  CHG  1  72   1
M  ISO  4  36 100  57 101  71 100  79 101
M  END
> <Batch ID>
0186

> <Smiles>
CNC(C)C(=O)NC(C(=O)N1Cc2cc([101O:1][101CH2:1]c3cc(C4CC4[100NH:0][100C:0](=O)N4CCCC(n5nc(-c6ccc(Oc7ccc(F)cc7F)cc6)c(C(N)=O)c5N)C4)ncn3)ccc2CC1C(=O)NC1CCCc2ccccc21)C(C)(C)C

> <Shape>
0.217

> <Color>
0.071

> <Negative vol penalty>
0.000

$$$$

  -OEChem-04052323143D

 82 90  0     1  0  0  0  0  0999 V2000
  -31.9002  -34.7753   23.8853 C   0  0  0  0  0  0  0  0  0  0  0  0
  -31.6460  -33.4815   23.4416 C   0  0  0  0  0  0  0  0  0  0  0  0
  -24.3215  -12.6525   19.9831 C   0  0  0  0  0  0  0  0  0  0  0  0
  -25.9000  -12.9665   21.7850 C   0  0  0  0  0  0  0  0  0  0  0  0
  -31.0089  -35.3999   24.7567 C   0  0  0  0  0  0  0  0  0  0  0  0
  -30.5009  -32.8110   23.8701 C   0  0  0  0  0  0  0  0  0  0  0  0
  -28.1099  -30.4380   20.0890 C   0  0  0  0  0  0  0  0  0  0  0  0
  -24.4740  -11.2701   20.0903 C   0  0  0  0  0  0  0  0  0  0  0  0
  -26.0525  -11.5842   21.8922 C   0  0  0  0  0  0  0  0  0  0  0  0
  -28.6481  -29.2269   19.6559 C   0  0  0  0  0  0  0  0  0  0  0  0
  -23.3596   -8.7895   22.0997 C   0  0  0  0  0  0  0  0  0  0  0  0
  -22.2056   -8.0064   22.0782 C   0  0  0  0  0  0  0  0  0  0  0  0
  -26.9983  -28.0370   20.9526 C   0  0  0  0  0  0  0  0  0  0  0  0
  -23.0182   -6.8628   20.1112 C   0  0  0  0  0  0  0  0  0  0  0  0
  -25.0345  -13.5007   20.8304 C   0  0  0  0  0  0  0  0  0  0  0  0
  -23.6906  -15.6685   20.8788 C   0  0  0  0  0  0  0  0  0  0  0  0
  -29.8474  -34.7403   25.1885 C   0  0  0  0  0  0  0  0  0  0  0  0
  -27.0168  -30.4576   20.9672 C   0  0  0  0  0  0  0  0  0  0  0  0
  -29.5939  -33.4269   24.7492 C   0  0  0  0  0  0  0  0  0  0  0  0
  -26.4465  -29.2496   21.3933 C   0  0  0  0  0  0  0  0  0  0  0  0
  -25.3395  -10.7360   21.0449 C   0  0  0  0  0  0  0  0  0  0  0  0
  -28.0941  -28.0262   20.0900 C   0  0  0  0  0  0  0  0  0  0  0  0
  -24.3430   -8.6094   21.1269 C   0  0  0  0  0  0  0  0  0  0  0  0
  -22.0349   -7.0430   21.0840 C   0  0  0  0  0  0  0  0  0  0  0  0
  -24.1723   -7.6460   20.1327 C   0  0  0  0  0  0  0  0  0  0  0  0
  -24.8777  -14.9287   20.7197 C   0  0  0  0  0  0  0  0  0  0  0  0
  -24.0692  -16.9730   20.6758 C   0  0  0  0  0  0  0  0  0  0  0  0
  -22.3643  -15.2168   21.1830 C   0  0  0  0  0  0  0  0  0  0  0  0
  -26.5255  -31.5458   23.9131 C   0  0  0  0  0  0  0  0  0  0  0  0
  -23.4583  -30.6860   23.3002 C   0  0  0  0  0  0  0  0  0  0  0  0
  -21.2966  -28.7379   21.5173 C   0  0  0  0  0  0  0  0  0  0  0  0
  -29.2481  -19.7200   21.3746 C   0  0  0  0  0  0  0  0  0  0  0  0
  -28.9377  -35.4386   26.1680 C   0  0  0  0  0  0  0  0  0  0  0  0
  -26.4311  -31.7723   21.4039 C   0  0  0  0  0  0  0  0  0  0  0  0
  -25.2597  -29.2163   22.3201 C   0  0  0  0  0  0  0  0  0  0  0  0
  -27.5562  -34.7987   26.2790 C   0  0  0  0  0  0  0  0  0  0  0  0
  -27.2978  -19.6133   18.3279 C   0  0  0  0  0  0  0  0  0  0  0  0
  -27.6785  -33.2839   26.4094 C   0  0  0  0  0  0  0  0  0  0  0  0
  -26.3380  -18.4588   18.6214 C   0  0  0  0  0  0  0  0  0  0  0  0
  -32.1373  -20.9653   22.2265 C   0  0  0  0  0  0  0  0  0  0  0  0
  -28.6856  -19.3372   18.8987 C   0  0  0  0  0  0  0  0  0  0  0  0
  -27.7447  -17.8860   20.6544 C   0  0  0  0  0  0  0  0  0  0  0  0
  -32.9520  -21.8080   23.1963 C   0  0  0  0  0  0  0  0  0  0  0  0
  -31.7459  -23.8733   22.4492 C   0  0  0  0  0  0  0  0  0  0  0  0
  -28.3499  -32.6760   25.1720 C   0  0  1  0  0  0  0  0  0  0  0  0
  -25.6409  -31.6717   22.7050 C   0  0  1  0  0  0  0  0  0  0  0  0
  -26.3181  -18.1145   20.1225 C   0  0  2  0  0  0  0  0  0  0  0  0
  -30.7692  -21.5954   21.9430 C   0  0  1  0  0  0  0  0  0  0  0  0
  -30.9195  -23.0510   21.4619 C   0  0  1  0  0  0  0  0  0  0  0  0
  -18.8519  -28.2312   21.2644 C   0  0  0  0  0  0  0  0  0  0  0  0
  -29.6949  -24.2185   18.9102 C   0  0  0  0  0  0  0  0  0  0  0  0
  -23.5321  -29.0555   25.8782 C   0  0  0  0  0  0  0  0  0  0  0  0
  -21.4801  -27.8539   25.0948 C   0  0  0  0  0  0  0  0  0  0  0  0
  -21.4043  -30.3140   25.5004 C   0  0  0  0  0  0  0  0  0  0  0  0
  -29.1164  -24.1720   22.5886 C   0  0  0  0  0  0  0  0  0  0  0  0
  -21.2885  -29.6153   18.6908 C   0  0  0  0  0  0  0  0  0  0  0  0
  -28.5118  -25.7325   20.5596 C   0  0  0  0  0  0  0  0  0  1  0  0
  -22.6438  -29.4281   23.4828 C   0  0  1  0  0  0  0  0  0  0  0  0
  -20.0177  -29.0745   20.7720 C   0  0  2  0  0  0  0  0  0  0  0  0
  -29.6839  -24.7765   20.3336 C   0  0  1  0  0  0  0  0  0  0  0  0
  -22.2887  -29.1632   24.9731 C   0  0  0  0  0  0  0  0  0  0  0  0
  -25.9315  -15.6992   20.4373 N   0  0  0  0  0  0  0  0  0  0  0  0
  -25.4078  -16.9368   20.4171 N   0  0  0  0  0  0  0  0  0  0  0  0
  -24.7268  -30.5279   22.7241 N   0  0  0  0  0  0  0  0  0  0  0  0
  -28.5986  -19.0348   20.3344 N   0  0  0  0  0  0  0  0  0  0  0  0
  -23.3843  -18.1362   20.6949 N   0  0  0  0  0  0  0  0  0  0  0  0
  -21.9817  -15.1253   22.5282 N   0  0  0  0  0  0  0  0  0  0  0  0
  -27.4094  -32.5955   24.0750 N   0  0  0  0  0  0  0  0  0  0  0  0
  -21.4847  -29.5617   22.6069 N   0  0  0  0  0  0  0  0  0  0  0  0
  -30.0434  -20.7912   20.9863 N   0  0  0  0  0  0  0  0  0  0  0  0
  -29.6090  -23.6830   21.3012 N   0  0  1  0  0  0  0  0  0  0  0  0
  -33.0617  -23.1995   22.6684 N   0  3  0  0  0  0  0  0  0  0  0  0
  -20.1898  -28.8315   19.3118 N   0  3  0  0  0  0  0  0  0  0  0  0
  -21.5482  -14.8878   20.2889 O   0  0  0  0  0  0  0  0  0  0  0  0
  -26.4133  -30.5694   24.6450 O   0  0  0  0  0  0  0  0  0  0  0  0
  -22.9837  -31.7698   23.6491 O   0  0  0  0  0  0  0  0  0  0  0  0
  -22.0513  -27.8321   21.1699 O   0  0  0  0  0  0  0  0  0  0  0  0
  -29.1242  -19.4039   22.5628 O   0  0  0  0  0  0  0  0  0  0  0  0
  -25.4885   -9.3872   21.1500 O   0  0  0  0  0  0  0  0  0  0  0  0
  -28.6179  -26.8427   19.6694 O   0  0  0  0  0  0  0  0  0  1  0  0
  -20.9273   -6.2899   21.0644 F   0  0  0  0  0  0  0  0  0  0  0  0
  -25.1140   -7.4676   19.1961 F   0  0  0  0  0  0  0  0  0  0  0  0
  1  2  1  0  0  0  0
  1  5  2  0  0  0  0
  2  6  2  0  0  0  0
  3  8  2  0  0  0  0
  3 15  1  0  0  0  0
  4  9  1  0  0  0  0
  4 15  2  0  0  0  0
  5 17  1  0  0  0  0
  6 19  1  0  0  0  0
  7 10  2  0  0  0  0
  7 18  1  0  0  0  0
  8 21  1  0  0  0  0
  9 21  2  0  0  0  0
 10 22  1  0  0  0  0
 11 12  2  0  0  0  0
 11 23  1  0  0  0  0
 12 24  1  0  0  0  0
 13 20  1  0  0  0  0
 13 22  2  0  0  0  0
 14 24  2  0  0  0  0
 14 25  1  0  0  0  0
 15 26  1  0  0  0  0
 16 26  1  0  0  0  0
 16 27  2  0  0  0  0
 16 28  1  0  0  0  0
 17 19  2  0  0  0  0
 17 33  1  0  0  0  0
 18 20  2  0  0  0  0
 18 34  1  0  0  0  0
 19 45  1  0  0  0  0
 20 35  1  0  0  0  0
 21 79  1  0  0  0  0
 22 80  1  0  0  0  0
 23 25  2  0  0  0  0
 23 79  1  0  0  0  0
 24 81  1  0  0  0  0
 25 82  1  0  0  0  0
 26 62  2  0  0  0  0
 27 63  1  0  0  0  0
 27 66  1  0  0  0  0
 28 67  1  0  0  0  0
 28 74  2  0  0  0  0
 29 46  1  0  0  0  0
 29 68  1  0  0  0  0
 29 75  2  0  0  0  0
 30 58  1  0  0  0  0
 30 64  1  0  0  0  0
 30 76  2  0  0  0  0
 31 59  1  0  0  0  0
 31 69  1  0  0  0  0
 31 77  2  0  0  0  0
 32 65  1  0  0  0  0
 32 70  1  0  0  0  0
 32 78  2  0  0  0  0
 33 36  1  0  0  0  0
 34 46  1  0  0  0  0
 35 64  1  0  0  0  0
 36 38  1  0  0  0  0
 37 39  1  0  0  0  0
 37 41  1  0  0  0  0
 38 45  1  0  0  0  0
 39 47  1  0  0  0  0
 40 43  1  0  0  0  0
 40 48  1  0  0  0  0
 41 65  1  0  0  0  0
 42 47  1  0  0  0  0
 42 65  1  0  0  0  0
 43 72  1  0  0  0  0
 44 49  1  0  0  0  0
 44 72  1  0  0  0  0
 45 68  1  0  0  0  0
 46 64  1  0  0  0  0
 47 63  1  0  0  0  0
 48 49  1  0  0  0  0
 48 70  1  0  0  0  0
 49 71  1  0  0  0  0
 50 59  1  0  0  0  0
 51 60  1  0  0  0  0
 52 61  1  0  0  0  0
 53 61  1  0  0  0  0
 54 61  1  0  0  0  0
 55 71  1  0  0  0  0
 56 73  1  0  0  0  0
 57 60  1  0  0  0  0
 57 80  1  0  0  0  0
 58 61  1  0  0  0  0
 58 69  1  0  0  0  0
 59 73  1  0  0  0  0
 60 71  1  0  0  0  0
 62 63  1  0  0  0  0
M  CHG  2  72   1  73   1
M  ISO  4  32 100  57 101  70 100  80 101
M  END
> <Batch ID>
0186

> <Smiles>
CNC(C)C(=O)NC(C(=O)N1Cc2cc([101O:1][101CH2:1]C(C)N(C)C3CNCCC3[100NH:0][100C:0](=O)N3CCCC(n4nc(-c5ccc(Oc6ccc(F)cc6F)cc5)c(C(N)=O)c4N)C3)ccc2CC1C(=O)NC1CCCc2ccccc21)C(C)(C)C

> <Shape>
0.252

> <Color>
0.082

> <Negative vol penalty>
0.000

$$$$

  -OEChem-04052323143D

 83 92  0     1  0  0  0  0  0999 V2000
  -22.2453  -25.1888   19.6034 C   0  0  0  0  0  0  0  0  0  0  0  0
  -23.0167  -24.0541   19.3737 C   0  0  0  0  0  0  0  0  0  0  0  0
  -26.7935  -25.6630   18.9018 C   0  0  0  0  0  0  0  0  0  0  0  0
  -26.8761  -26.0991   21.2767 C   0  0  0  0  0  0  0  0  0  0  0  0
  -21.4499  -25.2701   20.7457 C   0  0  0  0  0  0  0  0  0  0  0  0
  -22.9941  -23.0004   20.2867 C   0  0  0  0  0  0  0  0  0  0  0  0
  -23.4451  -17.0248   19.0239 C   0  0  0  0  0  0  0  0  0  0  0  0
  -25.7754  -26.6064   18.7640 C   0  0  0  0  0  0  0  0  0  0  0  0
  -25.8580  -27.0426   21.1389 C   0  0  0  0  0  0  0  0  0  0  0  0
  -24.5167  -16.1343   19.0719 C   0  0  0  0  0  0  0  0  0  0  0  0
  -25.5566  -30.2467   20.1075 C   0  0  0  0  0  0  0  0  0  0  0  0
  -25.7117  -31.4661   20.7666 C   0  0  0  0  0  0  0  0  0  0  0  0
  -23.8260  -15.4312   21.2737 C   0  0  0  0  0  0  0  0  0  0  0  0
  -23.6868  -31.0481   22.0165 C   0  0  0  0  0  0  0  0  0  0  0  0
  -29.5631  -11.4787   19.9151 C   0  0  0  0  0  0  0  0  0  0  0  0
  -27.3438  -25.4092   20.1582 C   0  0  0  0  0  0  0  0  0  0  0  0
  -29.6600  -24.4513   19.6837 C   0  0  0  0  0  0  0  0  0  0  0  0
  -21.4101  -24.2128   21.6683 C   0  0  0  0  0  0  0  0  0  0  0  0
  -22.5607  -17.1333   20.1067 C   0  0  0  0  0  0  0  0  0  0  0  0
  -22.1985  -23.0682   21.4430 C   0  0  0  0  0  0  0  0  0  0  0  0
  -22.7425  -16.3221   21.2359 C   0  0  0  0  0  0  0  0  0  0  0  0
  -25.3077  -27.2962   19.8825 C   0  0  0  0  0  0  0  0  0  0  0  0
  -24.7090  -15.3394   20.1981 C   0  0  0  0  0  0  0  0  0  0  0  0
  -24.4666  -29.4279   20.4029 C   0  0  0  0  0  0  0  0  0  0  0  0
  -24.7768  -31.8669   21.7211 C   0  0  0  0  0  0  0  0  0  0  0  0
  -23.5317  -29.8286   21.3574 C   0  0  0  0  0  0  0  0  0  0  0  0
  -28.3951  -24.4344   20.3014 C   0  0  0  0  0  0  0  0  0  0  0  0
  -28.5196  -11.2546   19.0404 C   0  0  0  0  0  0  0  0  0  0  0  0
  -29.5862  -12.7234   20.5104 C   0  0  0  0  0  0  0  0  0  0  0  0
  -30.2806  -23.3145   20.1410 C   0  0  0  0  0  0  0  0  0  0  0  0
  -27.6990  -13.3428   19.4051 C   0  0  0  0  0  0  0  0  0  0  0  0
  -30.2236  -25.4090   18.7777 C   0  0  0  0  0  0  0  0  0  0  0  0
  -21.7398  -19.4625   22.1078 C   0  0  0  0  0  0  0  0  0  0  0  0
  -19.5638  -17.2858   23.1322 C   0  0  0  0  0  0  0  0  0  0  0  0
  -18.6625  -14.0073   23.4252 C   0  0  0  0  0  0  0  0  0  0  0  0
  -30.0707  -17.8891   21.0754 C   0  0  0  0  0  0  0  0  0  0  0  0
  -20.5715  -24.3661   22.9124 C   0  0  0  0  0  0  0  0  0  0  0  0
  -21.3942  -18.0795   20.0284 C   0  0  0  0  0  0  0  0  0  0  0  0
  -21.8096  -16.3858   22.4166 C   0  0  0  0  0  0  0  0  0  0  0  0
  -20.3160  -23.0492   23.6409 C   0  0  0  0  0  0  0  0  0  0  0  0
  -29.0189  -20.1135   23.8247 C   0  0  0  0  0  0  0  0  0  0  0  0
  -21.6103  -22.2532   23.7745 C   0  0  0  0  0  0  0  0  0  0  0  0
  -28.8172  -21.4284   23.0773 C   0  0  0  0  0  0  0  0  0  0  0  0
  -32.0521  -15.0323   22.0342 C   0  0  0  0  0  0  0  0  0  0  0  0
  -28.6595  -18.9034   22.9635 C   0  0  0  0  0  0  0  0  0  0  0  0
  -29.1718  -20.1884   20.9066 C   0  0  0  0  0  0  0  0  0  0  0  0
  -22.1816  -21.8939   22.3975 C   0  0  1  0  0  0  0  0  0  0  0  0
  -20.8543  -18.4772   21.3988 C   0  0  1  0  0  0  0  0  0  0  0  0
  -29.5745  -21.4143   21.7406 C   0  0  1  0  0  0  0  0  0  0  0  0
  -30.7754  -14.2429   22.0924 C   0  0  1  0  0  0  0  0  0  0  0  0
  -30.8241  -15.5444   21.3334 C   0  0  1  0  0  0  0  0  0  0  0  0
  -28.4106   -9.9378   18.3476 C   0  0  0  0  0  0  0  0  0  0  0  0
  -16.8472  -12.5379   24.3433 C   0  0  0  0  0  0  0  0  0  0  0  0
  -20.6395  -17.7240   25.9537 C   0  0  0  0  0  0  0  0  0  0  0  0
  -19.4938  -15.6077   26.6441 C   0  0  0  0  0  0  0  0  0  0  0  0
  -18.1503  -17.5343   25.8039 C   0  0  0  0  0  0  0  0  0  0  0  0
  -18.0267  -12.9216   20.7464 C   0  0  0  0  0  0  0  0  0  0  0  0
  -26.6571  -14.3844   19.1203 C   0  0  0  0  0  0  0  0  0  1  0  0
  -19.5512  -16.1975   24.1784 C   0  0  1  0  0  0  0  0  0  0  0  0
  -17.3585  -13.2904   23.1247 C   0  0  2  0  0  0  0  0  0  0  0  0
  -19.4776  -16.7658   25.6237 C   0  0  0  0  0  0  0  0  0  0  0  0
  -28.2209  -23.3710   21.0907 N   0  0  0  0  0  0  0  0  0  0  0  0
  -27.5664  -12.1676   18.7610 N   0  0  0  0  0  0  0  0  0  0  0  0
  -28.6669  -13.6830   20.2774 N   0  0  0  0  0  0  0  0  0  0  0  0
  -29.3845  -22.7092   20.9721 N   0  0  0  0  0  0  0  0  0  0  0  0
  -20.6875  -17.3311   22.2949 N   0  0  0  0  0  0  0  0  0  0  0  0
  -29.3459  -18.9420   21.6625 N   0  0  0  0  0  0  0  0  0  0  0  0
  -31.5000  -22.7836   19.9091 N   0  0  0  0  0  0  0  0  0  0  0  0
  -30.9433  -26.4881   19.3088 N   0  0  0  0  0  0  0  0  0  0  0  0
  -30.6417  -12.9939   21.4156 N   0  0  0  0  0  0  0  0  0  0  0  0
  -21.4531  -20.7837   21.8220 N   0  0  0  0  0  0  0  0  0  0  0  0
  -18.4487  -15.3082   23.8291 N   0  0  0  0  0  0  0  0  0  0  0  0
  -30.1253  -16.7088   21.8081 N   0  0  0  0  0  0  0  0  0  0  0  0
  -17.5480  -12.3141   22.0148 N   0  3  0  0  0  0  0  0  0  0  0  0
  -30.0790  -25.3196   17.5349 O   0  0  0  0  0  0  0  0  0  0  0  0
  -22.6171  -19.0544   22.8598 O   0  0  0  0  0  0  0  0  0  0  0  0
  -18.6085  -18.0623   23.0558 O   0  0  0  0  0  0  0  0  0  0  0  0
  -19.7606  -13.4661   23.3163 O   0  0  0  0  0  0  0  0  0  0  0  0
  -30.6249  -17.9893   19.9752 O   0  0  0  0  0  0  0  0  0  0  0  0
  -24.3145  -28.2171   19.7483 O   0  0  0  0  0  0  0  0  0  0  0  0
  -25.7546  -14.4697   20.2478 O   0  0  0  0  0  0  0  0  0  1  0  0
  -24.9267  -33.0373   22.3550 F   0  0  0  0  0  0  0  0  0  0  0  0
  -22.4831  -29.0458   21.6462 F   0  0  0  0  0  0  0  0  0  0  0  0
  1  2  1  0  0  0  0
  1  5  2  0  0  0  0
  2  6  2  0  0  0  0
  3  8  2  0  0  0  0
  3 16  1  0  0  0  0
  4  9  1  0  0  0  0
  4 16  2  0  0  0  0
  5 18  1  0  0  0  0
  6 20  1  0  0  0  0
  7 10  2  0  0  0  0
  7 19  1  0  0  0  0
  8 22  1  0  0  0  0
  9 22  2  0  0  0  0
 10 23  1  0  0  0  0
 11 12  2  0  0  0  0
 11 24  1  0  0  0  0
 12 25  1  0  0  0  0
 13 21  1  0  0  0  0
 13 23  2  0  0  0  0
 14 25  2  0  0  0  0
 14 26  1  0  0  0  0
 15 28  1  0  0  0  0
 15 29  2  0  0  0  0
 16 27  1  0  0  0  0
 17 27  1  0  0  0  0
 17 30  2  0  0  0  0
 17 32  1  0  0  0  0
 18 20  2  0  0  0  0
 18 37  1  0  0  0  0
 19 21  2  0  0  0  0
 19 38  1  0  0  0  0
 20 47  1  0  0  0  0
 21 39  1  0  0  0  0
 22 80  1  0  0  0  0
 23 81  1  0  0  0  0
 24 26  2  0  0  0  0
 24 80  1  0  0  0  0
 25 82  1  0  0  0  0
 26 83  1  0  0  0  0
 27 62  2  0  0  0  0
 28 52  1  0  0  0  0
 28 63  2  0  0  0  0
 29 64  1  0  0  0  0
 29 70  1  0  0  0  0
 30 65  1  0  0  0  0
 30 68  1  0  0  0  0
 31 58  1  0  0  0  0
 31 63  1  0  0  0  0
 31 64  2  0  0  0  0
 32 69  1  0  0  0  0
 32 75  2  0  0  0  0
 33 48  1  0  0  0  0
 33 71  1  0  0  0  0
 33 76  2  0  0  0  0
 34 59  1  0  0  0  0
 34 66  1  0  0  0  0
 34 77  2  0  0  0  0
 35 60  1  0  0  0  0
 35 72  1  0  0  0  0
 35 78  2  0  0  0  0
 36 67  1  0  0  0  0
 36 73  1  0  0  0  0
 36 79  2  0  0  0  0
 37 40  1  0  0  0  0
 38 48  1  0  0  0  0
 39 66  1  0  0  0  0
 40 42  1  0  0  0  0
 41 43  1  0  0  0  0
 41 45  1  0  0  0  0
 42 47  1  0  0  0  0
 43 49  1  0  0  0  0
 44 50  1  0  0  0  0
 44 51  1  0  0  0  0
 45 67  1  0  0  0  0
 46 49  1  0  0  0  0
 46 67  1  0  0  0  0
 47 71  1  0  0  0  0
 48 66  1  0  0  0  0
 49 65  1  0  0  0  0
 50 51  1  0  0  0  0
 50 70  1  0  0  0  0
 51 73  1  0  0  0  0
 53 60  1  0  0  0  0
 54 61  1  0  0  0  0
 55 61  1  0  0  0  0
 56 61  1  0  0  0  0
 57 74  1  0  0  0  0
 58 81  1  0  0  0  0
 59 61  1  0  0  0  0
 59 72  1  0  0  0  0
 60 74  1  0  0  0  0
 62 65  1  0  0  0  0
M  CHG  1  74   1
M  ISO  4  36 100  58 101  73 100  81 101
M  END
> <Batch ID>
0186

> <Smiles>
CNC(C)C(=O)NC(C(=O)N1Cc2cc([101O:1][101CH2:1]c3nc(C)cc(NC4CC4[100NH:0][100C:0](=O)N4CCCC(n5nc(-c6ccc(Oc7ccc(F)cc7F)cc6)c(C(N)=O)c5N)C4)n3)ccc2CC1C(=O)NC1CCCc2ccccc21)C(C)(C)C

> <Shape>
0.220

> <Color>
0.054

> <Negative vol penalty>
0.000

$$$$

  -OEChem-04052323143D

 80 88  0     1  0  0  0  0  0999 V2000
  -43.5875  -25.1687   24.4645 C   0  0  0  0  0  0  0  0  0  0  0  0
  -42.5519  -24.2505   24.3236 C   0  0  0  0  0  0  0  0  0  0  0  0
  -23.0787   -9.8853   19.9702 C   0  0  0  0  0  0  0  0  0  0  0  0
  -23.9560   -9.8871   22.2213 C   0  0  0  0  0  0  0  0  0  0  0  0
  -43.3008  -26.5017   24.7561 C   0  0  0  0  0  0  0  0  0  0  0  0
  -41.2290  -24.6645   24.4752 C   0  0  0  0  0  0  0  0  0  0  0  0
  -36.3427  -22.5619   21.4406 C   0  0  0  0  0  0  0  0  0  0  0  0
  -22.3747   -8.7131   20.2454 C   0  0  0  0  0  0  0  0  0  0  0  0
  -23.2519   -8.7148   22.4965 C   0  0  0  0  0  0  0  0  0  0  0  0
  -35.3637  -21.6262   21.7723 C   0  0  0  0  0  0  0  0  0  0  0  0
  -20.0779   -7.8375   23.2558 C   0  0  0  0  0  0  0  0  0  0  0  0
  -19.3837   -7.7687   24.4636 C   0  0  0  0  0  0  0  0  0  0  0  0
  -33.9146  -23.4106   22.5038 C   0  0  0  0  0  0  0  0  0  0  0  0
  -20.7045   -5.8530   25.1137 C   0  0  0  0  0  0  0  0  0  0  0  0
  -23.8694  -10.4723   20.9581 C   0  0  0  0  0  0  0  0  0  0  0  0
  -24.1481  -13.0057   20.8485 C   0  0  0  0  0  0  0  0  0  0  0  0
  -41.9733  -26.9342   24.9019 C   0  0  0  0  0  0  0  0  0  0  0  0
  -36.1188  -23.9305   21.6486 C   0  0  0  0  0  0  0  0  0  0  0  0
  -40.9244  -26.0042   24.7703 C   0  0  0  0  0  0  0  0  0  0  0  0
  -34.8913  -24.3618   22.1716 C   0  0  0  0  0  0  0  0  0  0  0  0
  -22.4613   -8.1278   21.5086 C   0  0  0  0  0  0  0  0  0  0  0  0
  -34.1506  -22.0503   22.3066 C   0  0  0  0  0  0  0  0  0  0  0  0
  -21.0854   -6.9139   22.9768 C   0  0  0  0  0  0  0  0  0  0  0  0
  -19.6970   -6.7765   25.3926 C   0  0  0  0  0  0  0  0  0  0  0  0
  -21.3988   -5.9217   23.9058 C   0  0  0  0  0  0  0  0  0  0  0  0
  -24.5973  -11.6830   20.6742 C   0  0  0  0  0  0  0  0  0  0  0  0
  -25.2029  -13.7835   20.4377 C   0  0  0  0  0  0  0  0  0  0  0  0
  -22.8898  -13.4882   21.3380 C   0  0  0  0  0  0  0  0  0  0  0  0
  -37.4875  -26.1828   23.4255 C   0  0  0  0  0  0  0  0  0  0  0  0
  -35.4377  -28.1326   21.8383 C   0  0  0  0  0  0  0  0  0  0  0  0
  -32.5164  -28.4722   20.1069 C   0  0  0  0  0  0  0  0  0  0  0  0
  -30.8217  -14.5986   20.7910 C   0  0  0  0  0  0  0  0  0  0  0  0
  -41.7149  -28.3754   25.2637 C   0  0  0  0  0  0  0  0  0  0  0  0
  -37.1746  -24.9290   21.2607 C   0  0  0  0  0  0  0  0  0  0  0  0
  -34.5936  -25.8212   22.3953 C   0  0  0  0  0  0  0  0  0  0  0  0
  -40.2691  -28.8101   25.0385 C   0  0  0  0  0  0  0  0  0  0  0  0
  -29.4554  -12.5766   18.0006 C   0  0  0  0  0  0  0  0  0  0  0  0
  -39.3052  -27.7725   25.6051 C   0  0  0  0  0  0  0  0  0  0  0  0
  -28.0604  -12.2150   18.5074 C   0  0  0  0  0  0  0  0  0  0  0  0
  -31.5099  -17.3785   22.7492 C   0  0  0  0  0  0  0  0  0  0  0  0
  -29.4641  -17.8047   21.3296 C   0  0  0  0  0  0  0  0  0  0  0  0
  -30.4356  -12.7973   19.1484 C   0  0  0  0  0  0  0  0  0  0  0  0
  -31.0811  -15.9187   22.8707 C   0  0  0  0  0  0  0  0  0  0  0  0
  -29.0889  -16.3253   21.4575 C   0  0  0  0  0  0  0  0  0  0  0  0
  -28.5804  -13.4432   20.6528 C   0  0  0  0  0  0  0  0  0  0  0  0
  -39.4754  -26.4199   24.9029 C   0  0  1  0  0  0  0  0  0  0  0  0
  -37.0368  -26.2596   21.9941 C   0  0  1  0  0  0  0  0  0  0  0  0
  -27.5587  -13.2579   19.5208 C   0  0  2  0  0  0  0  0  0  0  0  0
  -30.2888  -18.2690   22.5281 C   0  0  0  0  0  0  0  0  0  0  0  0
  -31.0899  -30.1947   18.9688 C   0  0  0  0  0  0  0  0  0  0  0  0
  -29.7155  -20.8926   24.1307 C   0  0  0  0  0  0  0  0  0  0  0  0
  -34.4834  -29.1353   24.5575 C   0  0  0  0  0  0  0  0  0  0  0  0
  -32.4723  -30.0982   23.4187 C   0  0  0  0  0  0  0  0  0  0  0  0
  -34.7521  -30.9177   22.8239 C   0  0  0  0  0  0  0  0  0  0  0  0
  -32.7650  -27.1161   17.4881 C   0  0  0  0  0  0  0  0  0  0  0  0
  -31.9491  -21.5964   23.1817 C   0  0  0  0  0  0  0  0  0  1  0  0
  -34.0265  -28.6162   22.0699 C   0  0  1  0  0  0  0  0  0  0  0  0
  -32.1977  -29.1673   18.7956 C   0  0  2  0  0  0  0  0  0  0  0  0
  -31.0355  -20.4287   23.5366 C   0  0  2  0  0  0  0  0  0  0  0  0
  -33.9396  -29.6642   23.2152 C   0  0  0  0  0  0  0  0  0  0  0  0
  -25.8406  -11.6202   20.1903 N   0  0  0  0  0  0  0  0  0  0  0  0
  -26.1816  -12.9133   20.0569 N   0  0  0  0  0  0  0  0  0  0  0  0
  -35.6602  -26.7585   22.0061 N   0  0  0  0  0  0  0  0  0  0  0  0
  -29.9164  -13.7567   20.1234 N   0  0  0  0  0  0  0  0  0  0  0  0
  -30.2818  -15.5053   21.7156 N   0  0  0  0  0  0  0  0  0  0  0  0
  -25.3795  -15.1201   20.3686 N   0  0  0  0  0  0  0  0  0  0  0  0
  -21.9172  -12.5528   21.7169 N   0  0  0  0  0  0  0  0  0  0  0  0
  -38.8332  -26.4394   23.6061 N   0  0  0  0  0  0  0  0  0  0  0  0
  -33.5436  -29.0987   20.7806 N   0  0  0  0  0  0  0  0  0  0  0  0
  -30.7419  -19.6646   22.2946 N   0  3  0  0  0  0  0  0  0  0  0  0
  -31.7611  -28.1730   17.7750 N   0  3  0  0  0  0  0  0  0  0  0  0
  -22.6294  -14.7124   21.4210 O   0  0  0  0  0  0  0  0  0  0  0  0
  -36.6742  -25.9123   24.3013 O   0  0  0  0  0  0  0  0  0  0  0  0
  -36.3090  -28.9431   21.5133 O   0  0  0  0  0  0  0  0  0  0  0  0
  -31.9120  -27.4755   20.4966 O   0  0  0  0  0  0  0  0  0  0  0  0
  -32.0382  -14.5436   20.5713 O   0  0  0  0  0  0  0  0  0  0  0  0
  -21.7743   -6.9840   21.7776 O   0  0  0  0  0  0  0  0  0  0  0  0
  -33.1751  -21.1214   22.6381 O   0  0  0  0  0  0  0  0  0  1  0  0
  -19.0313   -6.7115   26.5531 F   0  0  0  0  0  0  0  0  0  0  0  0
  -22.3665   -5.0325   23.6440 F   0  0  0  0  0  0  0  0  0  0  0  0
  1  2  1  0  0  0  0
  1  5  2  0  0  0  0
  2  6  2  0  0  0  0
  3  8  2  0  0  0  0
  3 15  1  0  0  0  0
  4  9  1  0  0  0  0
  4 15  2  0  0  0  0
  5 17  1  0  0  0  0
  6 19  1  0  0  0  0
  7 10  2  0  0  0  0
  7 18  1  0  0  0  0
  8 21  1  0  0  0  0
  9 21  2  0  0  0  0
 10 22  1  0  0  0  0
 11 12  2  0  0  0  0
 11 23  1  0  0  0  0
 12 24  1  0  0  0  0
 13 20  1  0  0  0  0
 13 22  2  0  0  0  0
 14 24  2  0  0  0  0
 14 25  1  0  0  0  0
 15 26  1  0  0  0  0
 16 26  1  0  0  0  0
 16 27  2  0  0  0  0
 16 28  1  0  0  0  0
 17 19  2  0  0  0  0
 17 33  1  0  0  0  0
 18 20  2  0  0  0  0
 18 34  1  0  0  0  0
 19 46  1  0  0  0  0
 20 35  1  0  0  0  0
 21 77  1  0  0  0  0
 22 78  1  0  0  0  0
 23 25  2  0  0  0  0
 23 77  1  0  0  0  0
 24 79  1  0  0  0  0
 25 80  1  0  0  0  0
 26 61  2  0  0  0  0
 27 62  1  0  0  0  0
 27 66  1  0  0  0  0
 28 67  1  0  0  0  0
 28 72  2  0  0  0  0
 29 47  1  0  0  0  0
 29 68  1  0  0  0  0
 29 73  2  0  0  0  0
 30 57  1  0  0  0  0
 30 63  1  0  0  0  0
 30 74  2  0  0  0  0
 31 58  1  0  0  0  0
 31 69  1  0  0  0  0
 31 75  2  0  0  0  0
 32 64  1  0  0  0  0
 32 65  1  0  0  0  0
 32 76  2  0  0  0  0
 33 36  1  0  0  0  0
 34 47  1  0  0  0  0
 35 63  1  0  0  0  0
 36 38  1  0  0  0  0
 37 39  1  0  0  0  0
 37 42  1  0  0  0  0
 38 46  1  0  0  0  0
 39 48  1  0  0  0  0
 40 43  1  0  0  0  0
 40 49  1  0  0  0  0
 41 44  1  0  0  0  0
 41 49  1  0  0  0  0
 42 64  1  0  0  0  0
 43 65  1  0  0  0  0
 44 65  1  0  0  0  0
 45 48  1  0  0  0  0
 45 64  1  0  0  0  0
 46 68  1  0  0  0  0
 47 63  1  0  0  0  0
 48 62  1  0  0  0  0
 49 70  1  0  0  0  0
 50 58  1  0  0  0  0
 51 59  1  0  0  0  0
 52 60  1  0  0  0  0
 53 60  1  0  0  0  0
 54 60  1  0  0  0  0
 55 71  1  0  0  0  0
 56 59  1  0  0  0  0
 56 78  1  0  0  0  0
 57 60  1  0  0  0  0
 57 69  1  0  0  0  0
 58 71  1  0  0  0  0
 59 70  1  0  0  0  0
 61 62  1  0  0  0  0
M  CHG  2  70   1  71   1
M  ISO  4  32 100  56 101  65 100  78 101
M  END
> <Batch ID>
0186

> <Smiles>
CNC(C)C(=O)NC(C(=O)N1Cc2cc([101O:1][101CH2:1]C(C)NC3CC[100N:0]([100C:0](=O)N4CCCC(n5nc(-c6ccc(Oc7ccc(F)cc7F)cc6)c(C(N)=O)c5N)C4)CC3)ccc2CC1C(=O)NC1CCCc2ccccc21)C(C)(C)C

> <Shape>
0.189

> <Color>
0.186

> <Negative vol penalty>
0.000

$$$$

  -OEChem-04052323143D

 83 92  0     1  0  0  0  0  0999 V2000
  -16.0221  -24.1763   25.6817 C   0  0  0  0  0  0  0  0  0  0  0  0
  -17.0599  -23.3596   25.2441 C   0  0  0  0  0  0  0  0  0  0  0  0
  -22.9816  -10.0172   21.2141 C   0  0  0  0  0  0  0  0  0  0  0  0
  -23.7457  -10.8042   23.3667 C   0  0  0  0  0  0  0  0  0  0  0  0
  -15.9074  -25.4774   25.1939 C   0  0  0  0  0  0  0  0  0  0  0  0
  -17.9831  -23.8433   24.3177 C   0  0  0  0  0  0  0  0  0  0  0  0
  -23.9512  -22.5014   24.0230 C   0  0  0  0  0  0  0  0  0  0  0  0
  -22.1998   -9.0497   21.8452 C   0  0  0  0  0  0  0  0  0  0  0  0
  -22.9639   -9.8367   23.9979 C   0  0  0  0  0  0  0  0  0  0  0  0
  -24.6729  -21.6025   23.2388 C   0  0  0  0  0  0  0  0  0  0  0  0
  -19.2292   -8.9085   23.4542 C   0  0  0  0  0  0  0  0  0  0  0  0
  -17.9206   -8.7370   23.0029 C   0  0  0  0  0  0  0  0  0  0  0  0
  -25.1807  -23.3758   21.6842 C   0  0  0  0  0  0  0  0  0  0  0  0
  -18.4121   -6.4365   22.4521 C   0  0  0  0  0  0  0  0  0  0  0  0
  -23.7546  -10.8945   21.9748 C   0  0  0  0  0  0  0  0  0  0  0  0
  -24.1809  -13.2045   20.9799 C   0  0  0  0  0  0  0  0  0  0  0  0
  -16.8353  -25.9805   24.2684 C   0  0  0  0  0  0  0  0  0  0  0  0
  -23.8295  -23.8441   23.6374 C   0  0  0  0  0  0  0  0  0  0  0  0
  -17.8799  -25.1519   23.8161 C   0  0  0  0  0  0  0  0  0  0  0  0
  -24.4591  -24.2903   22.4666 C   0  0  0  0  0  0  0  0  0  0  0  0
  -22.1909   -8.9595   23.2372 C   0  0  0  0  0  0  0  0  0  0  0  0
  -25.2854  -22.0390   22.0677 C   0  0  0  0  0  0  0  0  0  0  0  0
  -20.1294   -7.8440   23.4043 C   0  0  0  0  0  0  0  0  0  0  0  0
  -17.5120   -7.5010   22.5019 C   0  0  0  0  0  0  0  0  0  0  0  0
  -19.7208   -6.6080   22.9033 C   0  0  0  0  0  0  0  0  0  0  0  0
  -24.5628  -11.8937   21.3234 C   0  0  0  0  0  0  0  0  0  0  0  0
  -28.1613  -20.1644   20.8652 C   0  0  0  0  0  0  0  0  0  0  0  0
  -27.3404  -21.0147   21.5678 C   0  0  0  0  0  0  0  0  0  1  0  0
  -25.2970  -13.7432   20.3878 C   0  0  0  0  0  0  0  0  0  0  0  0
  -29.2690  -21.2348   22.4412 C   0  0  0  0  0  0  0  0  0  0  0  0
  -22.9293  -13.8751   21.1785 C   0  0  0  0  0  0  0  0  0  0  0  0
  -21.4014  -25.7457   22.8678 C   0  0  0  0  0  0  0  0  0  0  0  0
  -23.7097  -28.0243   22.8190 C   0  0  0  0  0  0  0  0  0  0  0  0
  -27.0175  -28.7906   22.4754 C   0  0  0  0  0  0  0  0  0  0  0  0
  -30.8054  -14.5901   20.2416 C   0  0  0  0  0  0  0  0  0  0  0  0
  -16.6428  -27.3776   23.7339 C   0  0  0  0  0  0  0  0  0  0  0  0
  -23.0700  -24.8070   24.5082 C   0  0  0  0  0  0  0  0  0  0  0  0
  -24.3756  -25.7260   22.0191 C   0  0  0  0  0  0  0  0  0  0  0  0
  -17.8798  -27.9391   23.0376 C   0  0  0  0  0  0  0  0  0  0  0  0
  -29.5926  -11.5543   18.8543 C   0  0  0  0  0  0  0  0  0  0  0  0
  -18.4673  -26.9080   22.0792 C   0  0  0  0  0  0  0  0  0  0  0  0
  -28.1459  -11.4777   19.3453 C   0  0  0  0  0  0  0  0  0  0  0  0
  -31.9551  -17.4751   21.6743 C   0  0  0  0  0  0  0  0  0  0  0  0
  -30.5164  -12.1541   19.9121 C   0  0  0  0  0  0  0  0  0  0  0  0
  -28.6424  -13.3848   20.9318 C   0  0  0  0  0  0  0  0  0  0  0  0
  -18.9155  -25.6487   22.8307 C   0  0  1  0  0  0  0  0  0  0  0  0
  -22.5806  -26.0383   23.7519 C   0  0  1  0  0  0  0  0  0  0  0  0
  -30.6442  -18.1998   21.5557 C   0  0  2  0  0  0  0  0  0  0  0  0
  -27.6616  -12.8392   19.8796 C   0  0  2  0  0  0  0  0  0  0  0  0
  -30.9665  -17.0691   20.6120 C   0  0  2  0  0  0  0  0  0  0  0  0
  -27.8989  -19.2500   19.7390 C   0  0  0  0  0  0  0  0  0  0  0  0
  -29.9882  -22.4279   24.5258 C   0  0  0  0  0  0  0  0  0  0  0  0
  -28.5946  -30.7422   22.4455 C   0  0  0  0  0  0  0  0  0  0  0  0
  -22.7754  -28.7329   20.0021 C   0  0  0  0  0  0  0  0  0  0  0  0
  -24.9249  -29.9747   19.6768 C   0  0  0  0  0  0  0  0  0  0  0  0
  -23.3226  -30.7005   21.4455 C   0  0  0  0  0  0  0  0  0  0  0  0
  -28.5094  -27.7695   24.8186 C   0  0  0  0  0  0  0  0  0  0  0  0
  -30.4139  -21.6455   23.2795 C   0  0  0  0  0  0  0  0  0  0  0  0
  -30.6052  -19.6310   21.0481 C   0  0  0  0  0  0  0  0  0  0  0  0
  -24.6486  -28.5727   21.7717 C   0  0  1  0  0  0  0  0  0  0  0  0
  -27.9388  -29.6699   23.3015 C   0  0  2  0  0  0  0  0  0  0  0  0
  -23.9180  -29.4677   20.7312 C   0  0  0  0  0  0  0  0  0  0  0  0
  -25.8229  -11.6165   20.9780 N   0  0  0  0  0  0  0  0  0  0  0  0
  -28.0361  -21.6781   22.5473 N   0  0  0  0  0  0  0  0  0  0  0  0
  -29.3934  -20.3162   21.4363 N   0  0  0  0  0  0  0  0  0  0  0  0
  -26.2425  -12.7606   20.4113 N   0  0  0  0  0  0  0  0  0  0  0  0
  -23.6164  -26.6277   22.9011 N   0  0  0  0  0  0  0  0  0  0  0  0
  -30.0014  -13.4467   20.3709 N   0  0  0  0  0  0  0  0  0  0  0  0
  -25.5519  -14.9568   19.8544 N   0  0  0  0  0  0  0  0  0  0  0  0
  -21.8880  -13.1752   21.8032 N   0  0  0  0  0  0  0  0  0  0  0  0
  -20.1788  -25.8808   23.4974 N   0  0  0  0  0  0  0  0  0  0  0  0
  -25.7178  -29.2505   22.4969 N   0  0  0  0  0  0  0  0  0  0  0  0
  -30.2458  -15.7819   20.6905 N   0  0  0  0  0  0  0  0  0  0  0  0
  -29.0120  -28.8490   23.9303 N   0  3  0  0  0  0  0  0  0  0  0  0
  -22.7347  -15.0545   20.7981 O   0  0  0  0  0  0  0  0  0  0  0  0
  -21.5871  -25.4228   21.7003 O   0  0  0  0  0  0  0  0  0  0  0  0
  -23.0876  -28.8061   23.5424 O   0  0  0  0  0  0  0  0  0  0  0  0
  -27.4120  -27.7973   21.8686 O   0  0  0  0  0  0  0  0  0  0  0  0
  -31.9405  -14.5603   19.7538 O   0  0  0  0  0  0  0  0  0  0  0  0
  -21.4280   -8.0157   23.8534 O   0  0  0  0  0  0  0  0  0  0  0  0
  -25.9898  -21.1636   21.3001 O   0  0  0  0  0  0  0  0  0  1  0  0
  -16.2548   -7.3359   22.0701 F   0  0  0  0  0  0  0  0  0  0  0  0
  -20.5806   -5.5814   22.8540 F   0  0  0  0  0  0  0  0  0  0  0  0
  1  2  1  0  0  0  0
  1  5  2  0  0  0  0
  2  6  2  0  0  0  0
  3  8  2  0  0  0  0
  3 15  1  0  0  0  0
  4  9  1  0  0  0  0
  4 15  2  0  0  0  0
  5 17  1  0  0  0  0
  6 19  1  0  0  0  0
  7 10  2  0  0  0  0
  7 18  1  0  0  0  0
  8 21  1  0  0  0  0
  9 21  2  0  0  0  0
 10 22  1  0  0  0  0
 11 12  2  0  0  0  0
 11 23  1  0  0  0  0
 12 24  1  0  0  0  0
 13 20  1  0  0  0  0
 13 22  2  0  0  0  0
 14 24  2  0  0  0  0
 14 25  1  0  0  0  0
 15 26  1  0  0  0  0
 16 26  1  0  0  0  0
 16 29  2  0  0  0  0
 16 31  1  0  0  0  0
 17 19  2  0  0  0  0
 17 36  1  0  0  0  0
 18 20  2  0  0  0  0
 18 37  1  0  0  0  0
 19 46  1  0  0  0  0
 20 38  1  0  0  0  0
 21 80  1  0  0  0  0
 22 81  1  0  0  0  0
 23 25  2  0  0  0  0
 23 80  1  0  0  0  0
 24 82  1  0  0  0  0
 25 83  1  0  0  0  0
 26 63  2  0  0  0  0
 27 28  2  0  0  0  0
 27 51  1  0  0  0  0
 27 65  1  0  0  0  0
 28 64  1  0  0  0  0
 28 81  1  0  0  0  0
 29 66  1  0  0  0  0
 29 69  1  0  0  0  0
 30 58  1  0  0  0  0
 30 64  2  0  0  0  0
 30 65  1  0  0  0  0
 31 70  1  0  0  0  0
 31 75  2  0  0  0  0
 32 47  1  0  0  0  0
 32 71  1  0  0  0  0
 32 76  2  0  0  0  0
 33 60  1  0  0  0  0
 33 67  1  0  0  0  0
 33 77  2  0  0  0  0
 34 61  1  0  0  0  0
 34 72  1  0  0  0  0
 34 78  2  0  0  0  0
 35 68  1  0  0  0  0
 35 73  1  0  0  0  0
 35 79  2  0  0  0  0
 36 39  1  0  0  0  0
 37 47  1  0  0  0  0
 38 67  1  0  0  0  0
 39 41  1  0  0  0  0
 40 42  1  0  0  0  0
 40 44  1  0  0  0  0
 41 46  1  0  0  0  0
 42 49  1  0  0  0  0
 43 48  1  0  0  0  0
 43 50  1  0  0  0  0
 44 68  1  0  0  0  0
 45 49  1  0  0  0  0
 45 68  1  0  0  0  0
 46 71  1  0  0  0  0
 47 67  1  0  0  0  0
 48 50  1  0  0  0  0
 48 59  1  0  0  0  0
 49 66  1  0  0  0  0
 50 73  1  0  0  0  0
 52 58  1  0  0  0  0
 53 61  1  0  0  0  0
 54 62  1  0  0  0  0
 55 62  1  0  0  0  0
 56 62  1  0  0  0  0
 57 74  1  0  0  0  0
 59 65  1  0  0  0  0
 60 62  1  0  0  0  0
 60 72  1  0  0  0  0
 61 74  1  0  0  0  0
 63 66  1  0  0  0  0
M  CHG  1  74   1
M  ISO  4  28 101  35 100  73 100  81 101
M  END
> <Batch ID>
0186

> <Smiles>
CCc1n[101c:1]([101O:1]c2ccc3c(c2)CN(C(=O)C(NC(=O)C(C)NC)C(C)(C)C)C(C(=O)NC2CCCc4ccccc42)C3)c(C)n1CC1CC1[100NH:0][100C:0](=O)N1CCCC(n2nc(-c3ccc(Oc4ccc(F)cc4F)cc3)c(C(N)=O)c2N)C1

> <Shape>
0.249

> <Color>
0.148

> <Negative vol penalty>
0.000

$$$$

  -OEChem-04052323143D

 82 91  0     1  0  0  0  0  0999 V2000
  -31.5796  -34.2747   16.1052 C   0  0  0  0  0  0  0  0  0  0  0  0
  -32.0689  -33.0705   16.6010 C   0  0  0  0  0  0  0  0  0  0  0  0
  -23.0797   -9.8594   19.9454 C   0  0  0  0  0  0  0  0  0  0  0  0
  -23.8309   -9.8825   22.2416 C   0  0  0  0  0  0  0  0  0  0  0  0
  -30.5423  -34.9300   16.7674 C   0  0  0  0  0  0  0  0  0  0  0  0
  -31.5217  -32.5213   17.7601 C   0  0  0  0  0  0  0  0  0  0  0  0
  -30.7728  -26.5746   19.0179 C   0  0  0  0  0  0  0  0  0  0  0  0
  -22.3374   -8.7063   20.1998 C   0  0  0  0  0  0  0  0  0  0  0  0
  -23.0885   -8.7293   22.4960 C   0  0  0  0  0  0  0  0  0  0  0  0
  -31.5234  -25.6736   19.7718 C   0  0  0  0  0  0  0  0  0  0  0  0
  -19.8598   -7.9283   23.0913 C   0  0  0  0  0  0  0  0  0  0  0  0
  -19.0985   -7.8941   24.2595 C   0  0  0  0  0  0  0  0  0  0  0  0
  -30.0839  -26.0691   21.6667 C   0  0  0  0  0  0  0  0  0  0  0  0
  -29.7226  -17.7305   22.7026 C   0  0  0  0  0  0  0  0  0  0  0  0
  -20.3413   -5.9641   25.0129 C   0  0  0  0  0  0  0  0  0  0  0  0
  -32.2471  -18.5548   21.9017 C   0  0  0  0  0  0  0  0  0  0  0  0
  -23.8265  -10.4475   20.9663 C   0  0  0  0  0  0  0  0  0  0  0  0
  -24.1634  -12.9726   20.8316 C   0  0  0  0  0  0  0  0  0  0  0  0
  -29.9756  -34.3837   17.9298 C   0  0  0  0  0  0  0  0  0  0  0  0
  -29.6768  -27.2390   19.5870 C   0  0  0  0  0  0  0  0  0  0  0  0
  -30.4767  -33.1705   18.4392 C   0  0  0  0  0  0  0  0  0  0  0  0
  -29.3195  -26.9762   20.9171 C   0  0  0  0  0  0  0  0  0  0  0  0
  -30.2354  -18.9410   23.0903 C   0  0  0  0  0  0  0  0  0  0  0  0
  -31.4811  -19.3574   22.6983 C   0  0  0  0  0  0  0  0  0  0  0  0
  -22.3418   -8.1412   21.4751 C   0  0  0  0  0  0  0  0  0  0  0  0
  -31.1808  -25.4229   21.0973 C   0  0  0  0  0  0  0  0  0  0  0  0
  -20.8618   -6.9803   22.8838 C   0  0  0  0  0  0  0  0  0  0  0  0
  -19.3392   -6.9120   25.2204 C   0  0  0  0  0  0  0  0  0  0  0  0
  -21.1026   -5.9983   23.8446 C   0  0  0  0  0  0  0  0  0  0  0  0
  -24.5940  -11.6384   20.7039 C   0  0  0  0  0  0  0  0  0  0  0  0
  -30.5545  -16.9693   21.8933 C   0  0  0  0  0  0  0  0  0  0  0  0
  -25.2553  -13.7222   20.4678 C   0  0  0  0  0  0  0  0  0  0  0  0
  -22.8902  -13.4883   21.2424 C   0  0  0  0  0  0  0  0  0  0  0  0
  -28.9461  -30.2795   20.1574 C   0  0  0  0  0  0  0  0  0  0  0  0
  -26.0898  -29.0213   21.0412 C   0  0  0  0  0  0  0  0  0  0  0  0
  -24.3381  -26.3149   22.1609 C   0  0  0  0  0  0  0  0  0  0  0  0
  -30.7185  -14.7808   20.6566 C   0  0  0  0  0  0  0  0  0  0  0  0
  -28.8879  -35.1522   18.6374 C   0  0  0  0  0  0  0  0  0  0  0  0
  -28.8611  -28.1879   18.7523 C   0  0  0  0  0  0  0  0  0  0  0  0
  -29.9606  -20.1915   23.8764 C   0  0  0  0  0  0  0  0  0  0  0  0
  -28.1396  -27.6482   21.5689 C   0  0  0  0  0  0  0  0  0  0  0  0
  -28.1104  -34.3150   19.6497 C   0  0  0  0  0  0  0  0  0  0  0  0
  -29.6183  -12.3496   18.2994 C   0  0  0  0  0  0  0  0  0  0  0  0
  -29.0669  -33.5096   20.5233 C   0  0  0  0  0  0  0  0  0  0  0  0
  -28.1777  -12.0576   18.7253 C   0  0  0  0  0  0  0  0  0  0  0  0
  -30.5284  -12.5880   19.5030 C   0  0  0  0  0  0  0  0  0  0  0  0
  -28.6146  -13.3170   20.8724 C   0  0  0  0  0  0  0  0  0  0  0  0
  -29.8925  -32.5305   19.6799 C   0  0  1  0  0  0  0  0  0  0  0  0
  -31.3944  -20.6572   23.4375 C   0  0  2  0  0  0  0  0  0  0  0  0
  -28.0763  -29.1949   19.5875 C   0  0  1  0  0  0  0  0  0  0  0  0
  -27.6467  -13.1342   19.6921 C   0  0  2  0  0  0  0  0  0  0  0  0
  -22.0256  -25.6030   22.8264 C   0  0  0  0  0  0  0  0  0  0  0  0
  -26.3998  -30.5008   23.6917 C   0  0  0  0  0  0  0  0  0  0  0  0
  -24.6060  -29.0342   24.6402 C   0  0  0  0  0  0  0  0  0  0  0  0
  -24.0916  -30.5546   22.7306 C   0  0  0  0  0  0  0  0  0  0  0  0
  -24.2297  -24.2658   20.0281 C   0  0  0  0  0  0  0  0  0  0  0  0
  -32.7019  -22.2847   22.0663 C   0  0  0  0  0  0  0  0  0  0  0  0
  -32.5368  -23.4694   21.1350 C   0  0  0  0  0  0  0  0  0  1  0  0
  -25.5056  -28.4972   22.3308 C   0  0  1  0  0  0  0  0  0  0  0  0
  -23.0343  -25.6946   21.6920 C   0  0  2  0  0  0  0  0  0  0  0  0
  -25.1742  -29.6353   23.3369 C   0  0  0  0  0  0  0  0  0  0  0  0
  -31.8002  -17.3480   21.4831 N   0  0  0  0  0  0  0  0  0  0  0  0
  -25.8607  -11.5427   20.2911 N   0  0  0  0  0  0  0  0  0  0  0  0
  -26.2353  -12.8263   20.1561 N   0  0  0  0  0  0  0  0  0  0  0  0
  -27.3771  -28.5725   20.7134 N   0  0  0  0  0  0  0  0  0  0  0  0
  -29.9638  -13.6231   20.3717 N   0  0  0  0  0  0  0  0  0  0  0  0
  -25.4631  -15.0536   20.3871 N   0  0  0  0  0  0  0  0  0  0  0  0
  -21.8790  -12.5791   21.5816 N   0  0  0  0  0  0  0  0  0  0  0  0
  -30.0660  -15.7095   21.4667 N   0  0  0  0  0  0  0  0  0  0  0  0
  -29.0983  -31.3733   19.3269 N   0  0  0  0  0  0  0  0  0  0  0  0
  -24.3579  -27.6783   21.9558 N   0  0  0  0  0  0  0  0  0  0  0  0
  -31.3653  -21.8394   22.5345 N   0  3  0  0  0  0  0  0  0  0  0  0
  -23.2742  -24.3217   21.1643 N   0  3  0  0  0  0  0  0  0  0  0  0
  -22.6511  -14.7187   21.2911 O   0  0  0  0  0  0  0  0  0  0  0  0
  -29.4413  -30.1352   21.2690 O   0  0  0  0  0  0  0  0  0  0  0  0
  -25.4257  -29.7947   20.3466 O   0  0  0  0  0  0  0  0  0  0  0  0
  -25.2466  -25.6564   22.6625 O   0  0  0  0  0  0  0  0  0  0  0  0
  -31.8490  -14.9490   20.1922 O   0  0  0  0  0  0  0  0  0  0  0  0
  -21.6173   -7.0161   21.7238 O   0  0  0  0  0  0  0  0  0  0  0  0
  -31.9122  -24.5443   21.8356 O   0  0  0  0  0  0  0  0  0  1  0  0
  -18.6091   -6.8803   26.3429 F   0  0  0  0  0  0  0  0  0  0  0  0
  -22.0646   -5.0856   23.6514 F   0  0  0  0  0  0  0  0  0  0  0  0
  1  2  1  0  0  0  0
  1  5  2  0  0  0  0
  2  6  2  0  0  0  0
  3  8  2  0  0  0  0
  3 17  1  0  0  0  0
  4  9  1  0  0  0  0
  4 17  2  0  0  0  0
  5 19  1  0  0  0  0
  6 21  1  0  0  0  0
  7 10  2  0  0  0  0
  7 20  1  0  0  0  0
  8 25  1  0  0  0  0
  9 25  2  0  0  0  0
 10 26  1  0  0  0  0
 11 12  2  0  0  0  0
 11 27  1  0  0  0  0
 12 28  1  0  0  0  0
 13 22  1  0  0  0  0
 13 26  2  0  0  0  0
 14 23  1  0  0  0  0
 14 31  2  0  0  0  0
 15 28  2  0  0  0  0
 15 29  1  0  0  0  0
 16 24  1  0  0  0  0
 16 62  2  0  0  0  0
 17 30  1  0  0  0  0
 18 30  1  0  0  0  0
 18 32  2  0  0  0  0
 18 33  1  0  0  0  0
 19 21  2  0  0  0  0
 19 38  1  0  0  0  0
 20 22  2  0  0  0  0
 20 39  1  0  0  0  0
 21 48  1  0  0  0  0
 22 41  1  0  0  0  0
 23 24  2  0  0  0  0
 23 40  1  0  0  0  0
 24 49  1  0  0  0  0
 25 79  1  0  0  0  0
 26 80  1  0  0  0  0
 27 29  2  0  0  0  0
 27 79  1  0  0  0  0
 28 81  1  0  0  0  0
 29 82  1  0  0  0  0
 30 63  2  0  0  0  0
 31 62  1  0  0  0  0
 31 69  1  0  0  0  0
 32 64  1  0  0  0  0
 32 67  1  0  0  0  0
 33 68  1  0  0  0  0
 33 74  2  0  0  0  0
 34 50  1  0  0  0  0
 34 70  1  0  0  0  0
 34 75  2  0  0  0  0
 35 59  1  0  0  0  0
 35 65  1  0  0  0  0
 35 76  2  0  0  0  0
 36 60  1  0  0  0  0
 36 71  1  0  0  0  0
 36 77  2  0  0  0  0
 37 66  1  0  0  0  0
 37 69  1  0  0  0  0
 37 78  2  0  0  0  0
 38 42  1  0  0  0  0
 39 50  1  0  0  0  0
 40 49  1  0  0  0  0
 41 65  1  0  0  0  0
 42 44  1  0  0  0  0
 43 45  1  0  0  0  0
 43 46  1  0  0  0  0
 44 48  1  0  0  0  0
 45 51  1  0  0  0  0
 46 66  1  0  0  0  0
 47 51  1  0  0  0  0
 47 66  1  0  0  0  0
 48 70  1  0  0  0  0
 49 72  1  0  0  0  0
 50 65  1  0  0  0  0
 51 64  1  0  0  0  0
 52 60  1  0  0  0  0
 53 61  1  0  0  0  0
 54 61  1  0  0  0  0
 55 61  1  0  0  0  0
 56 73  1  0  0  0  0
 57 58  1  0  0  0  0
 57 72  1  0  0  0  0
 58 80  1  0  0  0  0
 59 61  1  0  0  0  0
 59 71  1  0  0  0  0
 60 73  1  0  0  0  0
 63 64  1  0  0  0  0
M  CHG  2  72   1  73   1
M  ISO  4  37 100  58 101  69 100  80 101
M  END
> <Batch ID>
0186

> <Smiles>
CNC(C)C(=O)NC(C(=O)N1Cc2cc([101O:1][101CH2:1]CNC3Cc4cc([100NH:0][100C:0](=O)N5CCCC(n6nc(-c7ccc(Oc8ccc(F)cc8F)cc7)c(C(N)=O)c6N)C5)ncc43)ccc2CC1C(=O)NC1CCCc2ccccc21)C(C)(C)C

> <Shape>
0.268

> <Color>
0.184

> <Negative vol penalty>
0.000

$$$$

  -OEChem-04052323143D

 82 91  0     1  0  0  0  0  0999 V2000
  -24.2784  -22.3010   29.1902 C   0  0  0  0  0  0  0  0  0  0  0  0
  -24.0274  -23.4695   28.4781 C   0  0  0  0  0  0  0  0  0  0  0  0
  -27.6949  -17.9380   21.3988 C   0  0  0  0  0  0  0  0  0  0  0  0
  -30.0114  -17.3259   21.0885 C   0  0  0  0  0  0  0  0  0  0  0  0
  -24.8364  -21.1986   28.5443 C   0  0  0  0  0  0  0  0  0  0  0  0
  -24.3354  -23.5366   27.1198 C   0  0  0  0  0  0  0  0  0  0  0  0
  -21.2567  -26.5875   22.7931 C   0  0  0  0  0  0  0  0  0  0  0  0
  -27.3491  -16.5891   21.4789 C   0  0  0  0  0  0  0  0  0  0  0  0
  -29.6656  -15.9769   21.1687 C   0  0  0  0  0  0  0  0  0  0  0  0
  -21.4619  -27.8304   22.1958 C   0  0  0  0  0  0  0  0  0  0  0  0
  -29.3443  -12.3644   20.9317 C   0  0  0  0  0  0  0  0  0  0  0  0
  -29.9012  -11.4954   19.9934 C   0  0  0  0  0  0  0  0  0  0  0  0
  -23.4228  -31.1652   21.0052 C   0  0  0  0  0  0  0  0  0  0  0  0
  -22.6078  -26.7549   20.3657 C   0  0  0  0  0  0  0  0  0  0  0  0
  -28.8680  -12.7576   18.2112 C   0  0  0  0  0  0  0  0  0  0  0  0
  -24.6212  -31.7703   21.3245 C   0  0  0  0  0  0  0  0  0  0  0  0
  -29.0260  -18.3064   21.2035 C   0  0  0  0  0  0  0  0  0  0  0  0
  -29.7504  -20.5483   22.1817 C   0  0  0  0  0  0  0  0  0  0  0  0
  -25.1425  -21.2490   27.1752 C   0  0  0  0  0  0  0  0  0  0  0  0
  -21.7358  -25.4180   22.1856 C   0  0  0  0  0  0  0  0  0  0  0  0
  -24.8993  -22.4343   26.4552 C   0  0  0  0  0  0  0  0  0  0  0  0
  -22.4051  -25.4981   20.9561 C   0  0  0  0  0  0  0  0  0  0  0  0
  -28.3345  -15.6085   21.3639 C   0  0  0  0  0  0  0  0  0  0  0  0
  -22.1401  -27.9145   20.9834 C   0  0  0  0  0  0  0  0  0  0  0  0
  -28.5491  -13.4299   20.5097 C   0  0  0  0  0  0  0  0  0  0  0  0
  -29.6631  -11.6920   18.6332 C   0  0  0  0  0  0  0  0  0  0  0  0
  -28.3110  -13.6265   19.1495 C   0  0  0  0  0  0  0  0  0  0  0  0
  -29.3837  -19.6997   21.1200 C   0  0  0  0  0  0  0  0  0  0  0  0
  -23.4926  -29.8177   20.7163 C   0  0  0  0  0  0  0  0  0  1  0  0
  -29.9917  -21.7612   21.5841 C   0  0  0  0  0  0  0  0  0  0  0  0
  -25.7394  -29.8088   21.0612 C   0  0  0  0  0  0  0  0  0  0  0  0
  -29.8628  -20.2655   23.5828 C   0  0  0  0  0  0  0  0  0  0  0  0
  -23.8244  -23.1630   22.9959 C   0  0  0  0  0  0  0  0  0  0  0  0
  -22.7670  -21.7523   20.2731 C   0  0  0  0  0  0  0  0  0  0  0  0
  -21.3130  -22.1015   17.2054 C   0  0  0  0  0  0  0  0  0  0  0  0
  -28.2004  -25.6744   17.9296 C   0  0  0  0  0  0  0  0  0  0  0  0
  -25.7883  -20.0479   26.5310 C   0  0  0  0  0  0  0  0  0  0  0  0
  -21.4828  -24.0824   22.8295 C   0  0  0  0  0  0  0  0  0  0  0  0
  -22.9216  -24.2705   20.2528 C   0  0  0  0  0  0  0  0  0  0  0  0
  -25.7386  -20.0745   25.0055 C   0  0  0  0  0  0  0  0  0  0  0  0
  -30.4171  -23.0175   16.7049 C   0  0  0  0  0  0  0  0  0  0  0  0
  -26.1537  -21.4456   24.4817 C   0  0  0  0  0  0  0  0  0  0  0  0
  -30.3337  -21.9684   17.8145 C   0  0  0  0  0  0  0  0  0  0  0  0
  -28.3650  -27.1193   21.3063 C   0  0  0  0  0  0  0  0  0  0  0  0
  -29.1268  -23.8250   16.5835 C   0  0  0  0  0  0  0  0  0  0  0  0
  -28.5002  -25.8516   20.4692 C   0  0  0  0  0  0  0  0  0  0  0  0
  -28.5846  -23.3884   18.9475 C   0  0  0  0  0  0  0  0  0  0  0  0
  -27.1276  -27.4378   19.3010 C   0  0  0  0  0  0  0  0  0  0  0  0
  -25.1966  -22.5375   24.9750 C   0  0  1  0  0  0  0  0  0  0  0  0
  -22.4643  -23.0055   22.3772 C   0  0  1  0  0  0  0  0  0  0  0  0
  -29.8880  -22.6023   19.1456 C   0  0  1  0  0  0  0  0  0  0  0  0
  -27.0518  -27.7034   20.7970 C   0  0  2  0  0  0  0  0  0  0  0  0
  -20.6141  -20.7735   15.1940 C   0  0  0  0  0  0  0  0  0  0  0  0
  -25.6805  -21.5673   19.3859 C   0  0  0  0  0  0  0  0  0  0  0  0
  -24.8711  -21.1366   17.0562 C   0  0  0  0  0  0  0  0  0  0  0  0
  -24.3070  -19.5380   18.8862 C   0  0  0  0  0  0  0  0  0  0  0  0
  -18.4729  -22.8608   17.5466 C   0  0  0  0  0  0  0  0  0  0  0  0
  -23.1720  -21.7962   18.8194 C   0  0  1  0  0  0  0  0  0  0  0  0
  -20.1807  -21.3443   16.5353 C   0  0  2  0  0  0  0  0  0  0  0  0
  -24.4998  -21.0330   18.5509 C   0  0  0  0  0  0  0  0  0  0  0  0
  -25.8027  -31.1199   21.3623 N   0  0  0  0  0  0  0  0  0  0  0  0
  -29.3900  -20.3209   19.9376 N   0  0  0  0  0  0  0  0  0  0  0  0
  -24.6383  -29.1055   20.7349 N   0  0  0  0  0  0  0  0  0  0  0  0
  -29.7635  -21.5728   20.2527 N   0  0  0  0  0  0  0  0  0  0  0  0
  -22.6550  -22.9883   20.9255 N   0  0  0  0  0  0  0  0  0  0  0  0
  -28.7323  -24.3813   17.8779 N   0  0  0  0  0  0  0  0  0  0  0  0
  -27.8844  -26.1936   19.1844 N   0  0  0  0  0  0  0  0  0  0  0  0
  -30.3747  -22.9599   22.0729 N   0  0  0  0  0  0  0  0  0  0  0  0
  -29.5784  -18.9670   24.0272 N   0  0  0  0  0  0  0  0  0  0  0  0
  -26.9373  -29.1077   21.0897 N   0  0  0  0  0  0  0  0  0  0  0  0
  -23.9689  -22.5173   24.2090 N   0  0  0  0  0  0  0  0  0  0  0  0
  -22.0305  -21.2940   18.0623 N   0  0  0  0  0  0  0  0  0  0  0  0
  -19.0170  -22.2472   16.3079 N   0  3  0  0  0  0  0  0  0  0  0  0
  -30.1894  -21.1425   24.4180 O   0  0  0  0  0  0  0  0  0  0  0  0
  -24.6800  -23.8205   22.4150 O   0  0  0  0  0  0  0  0  0  0  0  0
  -22.5508  -20.6621   20.8080 O   0  0  0  0  0  0  0  0  0  0  0  0
  -21.5407  -23.2894   16.9873 O   0  0  0  0  0  0  0  0  0  0  0  0
  -28.0579  -26.3537   16.9043 O   0  0  0  0  0  0  0  0  0  0  0  0
  -27.9975  -14.2921   21.4424 O   0  0  0  0  0  0  0  0  0  0  0  0
  -22.3453  -29.1443   20.3900 O   0  0  0  0  0  0  0  0  0  1  0  0
  -30.1993  -10.8584   17.7322 F   0  0  0  0  0  0  0  0  0  0  0  0
  -27.5488  -14.6491   18.7380 F   0  0  0  0  0  0  0  0  0  0  0  0
  1  2  1  0  0  0  0
  1  5  2  0  0  0  0
  2  6  2  0  0  0  0
  3  8  2  0  0  0  0
  3 17  1  0  0  0  0
  4  9  1  0  0  0  0
  4 17  2  0  0  0  0
  5 19  1  0  0  0  0
  6 21  1  0  0  0  0
  7 10  2  0  0  0  0
  7 20  1  0  0  0  0
  8 23  1  0  0  0  0
  9 23  2  0  0  0  0
 10 24  1  0  0  0  0
 11 12  2  0  0  0  0
 11 25  1  0  0  0  0
 12 26  1  0  0  0  0
 13 16  2  0  0  0  0
 13 29  1  0  0  0  0
 14 22  1  0  0  0  0
 14 24  2  0  0  0  0
 15 26  2  0  0  0  0
 15 27  1  0  0  0  0
 16 61  1  0  0  0  0
 17 28  1  0  0  0  0
 18 28  1  0  0  0  0
 18 30  2  0  0  0  0
 18 32  1  0  0  0  0
 19 21  2  0  0  0  0
 19 37  1  0  0  0  0
 20 22  2  0  0  0  0
 20 38  1  0  0  0  0
 21 49  1  0  0  0  0
 22 39  1  0  0  0  0
 23 79  1  0  0  0  0
 24 80  1  0  0  0  0
 25 27  2  0  0  0  0
 25 79  1  0  0  0  0
 26 81  1  0  0  0  0
 27 82  1  0  0  0  0
 28 62  2  0  0  0  0
 29 63  2  0  0  0  0
 29 80  1  0  0  0  0
 30 64  1  0  0  0  0
 30 68  1  0  0  0  0
 31 61  2  0  0  0  0
 31 63  1  0  0  0  0
 31 70  1  0  0  0  0
 32 69  1  0  0  0  0
 32 74  2  0  0  0  0
 33 50  1  0  0  0  0
 33 71  1  0  0  0  0
 33 75  2  0  0  0  0
 34 58  1  0  0  0  0
 34 65  1  0  0  0  0
 34 76  2  0  0  0  0
 35 59  1  0  0  0  0
 35 72  1  0  0  0  0
 35 77  2  0  0  0  0
 36 66  1  0  0  0  0
 36 67  1  0  0  0  0
 36 78  2  0  0  0  0
 37 40  1  0  0  0  0
 38 50  1  0  0  0  0
 39 65  1  0  0  0  0
 40 42  1  0  0  0  0
 41 43  1  0  0  0  0
 41 45  1  0  0  0  0
 42 49  1  0  0  0  0
 43 51  1  0  0  0  0
 44 46  1  0  0  0  0
 44 52  1  0  0  0  0
 45 66  1  0  0  0  0
 46 67  1  0  0  0  0
 47 51  1  0  0  0  0
 47 66  1  0  0  0  0
 48 52  1  0  0  0  0
 48 67  1  0  0  0  0
 49 71  1  0  0  0  0
 50 65  1  0  0  0  0
 51 64  1  0  0  0  0
 52 70  1  0  0  0  0
 53 59  1  0  0  0  0
 54 60  1  0  0  0  0
 55 60  1  0  0  0  0
 56 60  1  0  0  0  0
 57 73  1  0  0  0  0
 58 60  1  0  0  0  0
 58 72  1  0  0  0  0
 59 73  1  0  0  0  0
 62 64  1  0  0  0  0
M  CHG  1  73   1
M  ISO  4  29 101  36 100  67 100  80 101
M  END
> <Batch ID>
0186

> <Smiles>
CNC(C)C(=O)NC(C(=O)N1Cc2cc([101O:1][101c:1]3ccnc(NC4CC[100N:0]([100C:0](=O)N5CCCC(n6nc(-c7ccc(Oc8ccc(F)cc8F)cc7)c(C(N)=O)c6N)C5)C4)n3)ccc2CC1C(=O)NC1CCCc2ccccc21)C(C)(C)C

> <Shape>
0.203

> <Color>
0.052

> <Negative vol penalty>
0.000

$$$$

  -OEChem-04052323143D

 80 89  0     1  0  0  0  0  0999 V2000
  -21.2398  -13.3628   20.7674 C   0  0  0  0  0  0  0  0  0  0  0  0
  -21.3031  -14.7222   21.0564 C   0  0  0  0  0  0  0  0  0  0  0  0
  -29.7741  -27.9398   25.0298 C   0  0  0  0  0  0  0  0  0  0  0  0
  -28.2023  -26.1483   25.4258 C   0  0  0  0  0  0  0  0  0  0  0  0
  -22.4084  -12.6029   20.7357 C   0  0  0  0  0  0  0  0  0  0  0  0
  -22.5350  -15.3222   21.3150 C   0  0  0  0  0  0  0  0  0  0  0  0
  -23.0826  -19.7471   18.9138 C   0  0  0  0  0  0  0  0  0  0  0  0
  -30.3213  -27.7399   26.2972 C   0  0  0  0  0  0  0  0  0  0  0  0
  -28.7495  -25.9483   26.6932 C   0  0  0  0  0  0  0  0  0  0  0  0
  -22.4364  -20.8537   19.4628 C   0  0  0  0  0  0  0  0  0  0  0  0
  -31.8958  -27.9382   29.5691 C   0  0  0  0  0  0  0  0  0  0  0  0
  -32.1521  -29.0641   30.3515 C   0  0  0  0  0  0  0  0  0  0  0  0
  -24.5135  -21.5619   20.4646 C   0  0  0  0  0  0  0  0  0  0  0  0
  -29.8088  -29.6479   30.2790 C   0  0  0  0  0  0  0  0  0  0  0  0
  -19.6572  -24.4371   22.1080 C   0  0  0  0  0  0  0  0  0  0  0  0
  -28.7145  -27.1441   24.5942 C   0  0  0  0  0  0  0  0  0  0  0  0
  -28.5441  -26.7371   22.0816 C   0  0  0  0  0  0  0  0  0  0  0  0
  -23.6562  -13.1959   20.9845 C   0  0  0  0  0  0  0  0  0  0  0  0
  -24.4490  -19.5333   19.1454 C   0  0  0  0  0  0  0  0  0  0  0  0
  -23.7212  -14.5693   21.2879 C   0  0  0  0  0  0  0  0  0  0  0  0
  -25.1752  -20.4532   19.9152 C   0  0  0  0  0  0  0  0  0  0  0  0
  -29.8091  -26.7441   27.1288 C   0  0  0  0  0  0  0  0  0  0  0  0
  -23.1512  -21.7598   20.2408 C   0  0  0  0  0  0  0  0  0  0  0  0
  -30.5960  -27.6671   29.1415 C   0  0  0  0  0  0  0  0  0  0  0  0
  -31.1087  -29.9189   30.7065 C   0  0  0  0  0  0  0  0  0  0  0  0
  -29.5525  -28.5220   29.4965 C   0  0  0  0  0  0  0  0  0  0  0  0
  -28.1484  -27.3505   23.2853 C   0  0  0  0  0  0  0  0  0  0  0  0
  -20.6303  -24.2409   21.1553 C   0  0  0  0  0  0  0  0  0  0  0  0
  -27.7018  -27.2654   21.1340 C   0  0  0  0  0  0  0  0  0  0  0  0
  -20.5202  -26.3934   21.5593 C   0  0  0  0  0  0  0  0  0  0  0  0
  -29.5802  -25.7756   21.8415 C   0  0  0  0  0  0  0  0  0  0  0  0
  -26.1555  -17.2496   20.5512 C   0  0  0  0  0  0  0  0  0  0  0  0
  -28.6635  -18.9659   19.4170 C   0  0  0  0  0  0  0  0  0  0  0  0
  -29.8700  -21.9761   18.3538 C   0  0  0  0  0  0  0  0  0  0  0  0
  -22.2165  -29.6479   21.4278 C   0  0  0  0  0  0  0  0  0  0  0  0
  -24.8869  -12.3242   20.9855 C   0  0  0  0  0  0  0  0  0  0  0  0
  -25.1372  -18.3491   18.5238 C   0  0  0  0  0  0  0  0  0  0  0  0
  -26.6483  -20.2800   20.1769 C   0  0  0  0  0  0  0  0  0  0  0  0
  -26.1916  -13.1123   20.9022 C   0  0  0  0  0  0  0  0  0  0  0  0
  -25.1595  -31.1997   20.1600 C   0  0  0  0  0  0  0  0  0  0  0  0
  -26.1727  -14.2813   21.8819 C   0  0  0  0  0  0  0  0  0  0  0  0
  -26.2949  -30.3339   20.7086 C   0  0  0  0  0  0  0  0  0  0  0  0
  -19.6841  -28.0178   23.0466 C   0  0  0  0  0  0  0  0  0  0  0  0
  -18.8626  -26.6966   23.1611 C   0  0  0  0  0  0  0  0  0  0  0  0
  -24.0148  -31.3308   21.1623 C   0  0  0  0  0  0  0  0  0  0  0  0
  -24.6175  -29.1847   22.2134 C   0  0  0  0  0  0  0  0  0  0  0  0
  -25.0412  -15.2615   21.5495 C   0  0  1  0  0  0  0  0  0  0  0  0
  -20.5279  -27.8579   21.7494 C   0  0  1  0  0  0  0  0  0  0  0  0
  -26.4191  -17.9538   19.2503 C   0  0  1  0  0  0  0  0  0  0  0  0
  -25.7705  -28.9773   21.2164 C   0  0  2  0  0  0  0  0  0  0  0  0
  -31.9682  -23.0763   17.5264 C   0  0  0  0  0  0  0  0  0  0  0  0
  -29.7619  -19.0063   22.2634 C   0  0  0  0  0  0  0  0  0  0  0  0
  -31.2905  -20.8650   21.5728 C   0  0  0  0  0  0  0  0  0  0  0  0
  -31.4811  -18.6273   20.4871 C   0  0  0  0  0  0  0  0  0  0  0  0
  -28.6208  -22.6739   15.7632 C   0  0  0  0  0  0  0  0  0  0  0  0
  -21.1296  -22.9843   20.5050 C   0  0  0  0  0  0  0  0  0  1  0  0
  -29.5037  -20.1053   19.9414 C   0  0  1  0  0  0  0  0  0  0  0  0
  -30.6859  -22.3597   17.1325 C   0  0  2  0  0  0  0  0  0  0  0  0
  -30.4811  -19.6535   21.0630 C   0  0  0  0  0  0  0  0  0  0  0  0
  -27.1339  -28.2035   23.1203 N   0  0  0  0  0  0  0  0  0  0  0  0
  -19.6221  -25.7830   22.3289 N   0  0  0  0  0  0  0  0  0  0  0  0
  -26.8850  -28.1298   21.8017 N   0  0  0  0  0  0  0  0  0  0  0  0
  -21.1516  -25.4820   20.8291 N   0  3  0  0  0  0  0  0  0  0  0  0
  -27.2748  -19.1030   19.5526 N   0  0  0  0  0  0  0  0  0  0  0  0
  -23.5626  -30.0090   21.6030 N   0  0  0  0  0  0  0  0  0  0  0  0
  -27.5877  -27.0704   19.8031 N   0  0  0  0  0  0  0  0  0  0  0  0
  -30.3518  -25.3396   22.9273 N   0  0  0  0  0  0  0  0  0  0  0  0
  -25.4083  -16.0942   20.4242 N   0  0  0  0  0  0  0  0  0  0  0  0
  -30.1593  -20.6971   18.7802 N   0  0  0  0  0  0  0  0  0  0  0  0
  -21.8730  -28.3753   21.8672 N   0  0  0  0  0  0  0  0  0  0  0  0
  -29.8976  -23.2608   16.2451 N   0  3  0  0  0  0  0  0  0  0  0  0
  -29.8256  -25.3289   20.6953 O   0  0  0  0  0  0  0  0  0  0  0  0
  -26.5985  -17.7190   21.5929 O   0  0  0  0  0  0  0  0  0  0  0  0
  -29.2186  -17.9935   18.8994 O   0  0  0  0  0  0  0  0  0  0  0  0
  -29.0599  -22.7364   18.8794 O   0  0  0  0  0  0  0  0  0  0  0  0
  -21.3838  -30.4018   20.9128 O   0  0  0  0  0  0  0  0  0  0  0  0
  -30.3430  -26.5485   28.3655 O   0  0  0  0  0  0  0  0  0  0  0  0
  -22.5228  -22.8405   20.7785 O   0  0  0  0  0  0  0  0  0  1  0  0
  -31.3547  -30.9993   31.4591 F   0  0  0  0  0  0  0  0  0  0  0  0
  -28.3015  -28.2662   29.0898 F   0  0  0  0  0  0  0  0  0  0  0  0
  1  2  1  0  0  0  0
  1  5  2  0  0  0  0
  2  6  2  0  0  0  0
  3  8  2  0  0  0  0
  3 16  1  0  0  0  0
  4  9  1  0  0  0  0
  4 16  2  0  0  0  0
  5 18  1  0  0  0  0
  6 20  1  0  0  0  0
  7 10  2  0  0  0  0
  7 19  1  0  0  0  0
  8 22  1  0  0  0  0
  9 22  2  0  0  0  0
 10 23  1  0  0  0  0
 11 12  2  0  0  0  0
 11 24  1  0  0  0  0
 12 25  1  0  0  0  0
 13 21  1  0  0  0  0
 13 23  2  0  0  0  0
 14 25  2  0  0  0  0
 14 26  1  0  0  0  0
 15 28  2  0  0  0  0
 15 61  1  0  0  0  0
 16 27  1  0  0  0  0
 17 27  1  0  0  0  0
 17 29  2  0  0  0  0
 17 31  1  0  0  0  0
 18 20  2  0  0  0  0
 18 36  1  0  0  0  0
 19 21  2  0  0  0  0
 19 37  1  0  0  0  0
 20 47  1  0  0  0  0
 21 38  1  0  0  0  0
 22 77  1  0  0  0  0
 23 78  1  0  0  0  0
 24 26  2  0  0  0  0
 24 77  1  0  0  0  0
 25 79  1  0  0  0  0
 26 80  1  0  0  0  0
 27 60  2  0  0  0  0
 28 56  1  0  0  0  0
 28 63  1  0  0  0  0
 29 62  1  0  0  0  0
 29 66  1  0  0  0  0
 30 48  1  0  0  0  0
 30 61  1  0  0  0  0
 30 63  2  0  0  0  0
 31 67  1  0  0  0  0
 31 72  2  0  0  0  0
 32 49  1  0  0  0  0
 32 68  1  0  0  0  0
 32 73  2  0  0  0  0
 33 57  1  0  0  0  0
 33 64  1  0  0  0  0
 33 74  2  0  0  0  0
 34 58  1  0  0  0  0
 34 69  1  0  0  0  0
 34 75  2  0  0  0  0
 35 65  1  0  0  0  0
 35 70  1  0  0  0  0
 35 76  2  0  0  0  0
 36 39  1  0  0  0  0
 37 49  1  0  0  0  0
 38 64  1  0  0  0  0
 39 41  1  0  0  0  0
 40 42  1  0  0  0  0
 40 45  1  0  0  0  0
 41 47  1  0  0  0  0
 42 50  1  0  0  0  0
 43 44  1  0  0  0  0
 43 48  1  0  0  0  0
 44 61  1  0  0  0  0
 45 65  1  0  0  0  0
 46 50  1  0  0  0  0
 46 65  1  0  0  0  0
 47 68  1  0  0  0  0
 48 70  1  0  0  0  0
 49 64  1  0  0  0  0
 50 62  1  0  0  0  0
 51 58  1  0  0  0  0
 52 59  1  0  0  0  0
 53 59  1  0  0  0  0
 54 59  1  0  0  0  0
 55 71  1  0  0  0  0
 56 78  1  0  0  0  0
 57 59  1  0  0  0  0
 57 69  1  0  0  0  0
 58 71  1  0  0  0  0
 60 62  1  0  0  0  0
M  CHG  2  63   1  71   1
M  ISO  4  35 100  56 101  70 100  78 101
M  END
> <Batch ID>
0186

> <Smiles>
CNC(C)C(=O)NC(C(=O)N1Cc2cc([101O:1][101CH2:1]c3cn4c(n3)C([100NH:0][100C:0](=O)N3CCCC(n5nc(-c6ccc(Oc7ccc(F)cc7F)cc6)c(C(N)=O)c5N)C3)CC4)ccc2CC1C(=O)NC1CCCc2ccccc21)C(C)(C)C

> <Shape>
0.200

> <Color>
0.072

> <Negative vol penalty>
0.000

$$$$

  -OEChem-04052323143D

 87 96  0     1  0  0  0  0  0999 V2000
  -20.4772  -18.2823   16.8645 C   0  0  0  0  0  0  0  0  0  0  0  0
  -21.5901  -18.7892   17.5276 C   0  0  0  0  0  0  0  0  0  0  0  0
  -21.5494  -23.9145   21.8430 C   0  0  0  0  0  0  0  0  0  0  0  0
  -20.1696  -25.8780   21.5639 C   0  0  0  0  0  0  0  0  0  0  0  0
  -20.1616  -16.9283   16.9692 C   0  0  0  0  0  0  0  0  0  0  0  0
  -22.3876  -17.9426   18.2969 C   0  0  0  0  0  0  0  0  0  0  0  0
  -27.3343  -18.6829   17.5050 C   0  0  0  0  0  0  0  0  0  0  0  0
  -20.4476  -23.2090   22.3266 C   0  0  0  0  0  0  0  0  0  0  0  0
  -19.0678  -25.1725   22.0475 C   0  0  0  0  0  0  0  0  0  0  0  0
  -27.9202  -19.7859   18.1246 C   0  0  0  0  0  0  0  0  0  0  0  0
  -17.7232  -21.6647   21.0515 C   0  0  0  0  0  0  0  0  0  0  0  0
  -17.5137  -20.3752   20.5627 C   0  0  0  0  0  0  0  0  0  0  0  0
  -28.7897  -18.3453   19.8532 C   0  0  0  0  0  0  0  0  0  0  0  0
  -17.7059  -19.4943   22.8041 C   0  0  0  0  0  0  0  0  0  0  0  0
  -29.0266  -23.0641   19.7328 C   0  0  0  0  0  0  0  0  0  0  0  0
  -21.4104  -25.2490   21.4616 C   0  0  0  0  0  0  0  0  0  0  0  0
  -22.9695  -26.0843   19.6234 C   0  0  0  0  0  0  0  0  0  0  0  0
  -20.9611  -16.0627   17.7322 C   0  0  0  0  0  0  0  0  0  0  0  0
  -27.4627  -17.4023   18.0617 C   0  0  0  0  0  0  0  0  0  0  0  0
  -22.0817  -16.5760   18.4130 C   0  0  0  0  0  0  0  0  0  0  0  0
  -28.2066  -17.2274   19.2374 C   0  0  0  0  0  0  0  0  0  0  0  0
  -19.2068  -23.8380   22.4289 C   0  0  0  0  0  0  0  0  0  0  0  0
  -28.6456  -19.6176   19.3005 C   0  0  0  0  0  0  0  0  0  0  0  0
  -17.9242  -21.8689   22.4167 C   0  0  0  0  0  0  0  0  0  0  0  0
  -17.5050  -19.2900   21.4390 C   0  0  0  0  0  0  0  0  0  0  0  0
  -17.9155  -20.7837   23.2930 C   0  0  0  0  0  0  0  0  0  0  0  0
  -22.5483  -25.9785   20.9625 C   0  0  0  0  0  0  0  0  0  0  0  0
  -28.1957  -24.1558   19.8813 C   0  0  0  0  0  0  0  0  0  0  0  0
  -28.4661  -21.8411   20.0397 C   0  0  0  0  0  0  0  0  0  1  0  0
  -24.0883  -26.8792   19.6772 C   0  0  0  0  0  0  0  0  0  0  0  0
  -26.4849  -22.8242   20.5644 C   0  0  0  0  0  0  0  0  0  0  0  0
  -22.4002  -25.5151   18.4370 C   0  0  0  0  0  0  0  0  0  0  0  0
  -25.4338  -15.2427   19.2121 C   0  0  0  0  0  0  0  0  0  0  0  0
  -28.1020  -13.4076   19.4002 C   0  0  0  0  0  0  0  0  0  0  0  0
  -31.5036  -13.2558   19.6296 C   0  0  0  0  0  0  0  0  0  0  0  0
  -28.8576  -28.4027   21.9327 C   0  0  0  0  0  0  0  0  0  0  0  0
  -20.5532  -14.6158   17.8540 C   0  0  0  0  0  0  0  0  0  0  0  0
  -26.8471  -16.2189   17.3667 C   0  0  0  0  0  0  0  0  0  0  0  0
  -28.3912  -15.8705   19.8645 C   0  0  0  0  0  0  0  0  0  0  0  0
  -21.6632  -13.7126   18.3852 C   0  0  0  0  0  0  0  0  0  0  0  0
  -25.9930  -29.6564   23.4394 C   0  0  0  0  0  0  0  0  0  0  0  0
  -22.3310  -14.3464   19.6015 C   0  0  0  0  0  0  0  0  0  0  0  0
  -24.8655  -28.8236   22.8306 C   0  0  0  0  0  0  0  0  0  0  0  0
  -27.2098  -28.7891   23.7396 C   0  0  0  0  0  0  0  0  0  0  0  0
  -26.6174  -27.2165   21.9253 C   0  0  0  0  0  0  0  0  0  0  0  0
  -30.0535  -28.3211   19.7769 C   0  0  0  0  0  0  0  0  0  0  0  0
  -30.8125  -25.7816   20.9833 C   0  0  0  0  0  0  0  0  0  0  0  0
  -22.9853  -15.6845   19.2368 C   0  0  1  0  0  0  0  0  0  0  0  0
  -26.6093  -15.0353   18.2994 C   0  0  1  0  0  0  0  0  0  0  0  0
  -25.3595  -28.0463   21.5981 C   0  0  1  0  0  0  0  0  0  0  0  0
  -29.3385  -26.1766   20.8136 C   0  0  2  0  0  0  0  0  0  0  0  0
  -31.5287  -27.9566   19.9410 C   0  0  2  0  0  0  0  0  0  0  0  0
  -25.0731  -22.6898   21.0245 C   0  0  0  0  0  0  0  0  0  0  0  0
  -32.3833  -28.5045   18.8078 C   0  0  0  0  0  0  0  0  0  0  0  0
  -33.3950  -11.6158   19.8039 C   0  0  0  0  0  0  0  0  0  0  0  0
  -27.4186  -12.9353   22.3362 C   0  0  0  0  0  0  0  0  0  0  0  0
  -29.7621  -12.1235   22.6789 C   0  0  0  0  0  0  0  0  0  0  0  0
  -28.2400  -10.9117   21.1177 C   0  0  0  0  0  0  0  0  0  0  0  0
  -32.7007  -14.1894   17.0890 C   0  0  0  0  0  0  0  0  0  0  0  0
  -29.1630  -13.1678   20.4470 C   0  0  1  0  0  0  0  0  0  0  0  0
  -32.5294  -12.4400   18.8636 C   0  0  2  0  0  0  0  0  0  0  0  0
  -28.7172  -25.5310   19.5705 C   0  0  0  0  0  0  0  0  0  0  0  0
  -28.6410  -12.3106   21.6344 C   0  0  0  0  0  0  0  0  0  0  0  0
  -23.3356  -26.6521   21.8054 N   0  0  0  0  0  0  0  0  0  0  0  0
  -26.9147  -24.0720   20.2964 N   0  0  0  0  0  0  0  0  0  0  0  0
  -27.1937  -21.6839   20.4599 N   0  0  0  0  0  0  0  0  0  0  0  0
  -24.2627  -27.1888   20.9939 N   0  0  0  0  0  0  0  0  0  0  0  0
  -27.7649  -14.7455   19.1508 N   0  0  0  0  0  0  0  0  0  0  0  0
  -27.6465  -28.0582   22.5498 N   0  0  0  0  0  0  0  0  0  0  0  0
  -29.2359  -27.6558   20.7973 N   0  0  0  0  0  0  0  0  0  0  0  0
  -24.9302  -27.3365   18.7261 N   0  0  0  0  0  0  0  0  0  0  0  0
  -21.2502  -24.7237   18.5610 N   0  0  0  0  0  0  0  0  0  0  0  0
  -24.2404  -15.4631   18.5512 N   0  0  0  0  0  0  0  0  0  0  0  0
  -30.3035  -12.5871   19.7467 N   0  0  0  0  0  0  0  0  0  0  0  0
  -31.6548  -26.4587   19.9470 N   0  3  0  0  0  0  0  0  0  0  0  0
  -33.4180  -13.3369   18.0718 N   0  3  0  0  0  0  0  0  0  0  0  0
  -22.9062  -25.6893   17.3024 O   0  0  0  0  0  0  0  0  0  0  0  0
  -25.5971  -15.2039   20.4260 O   0  0  0  0  0  0  0  0  0  0  0  0
  -27.5962  -12.4436   18.8200 O   0  0  0  0  0  0  0  0  0  0  0  0
  -31.7442  -14.3728   20.0822 O   0  0  0  0  0  0  0  0  0  0  0  0
  -29.5677  -29.3152   22.3744 O   0  0  0  0  0  0  0  0  0  0  0  0
  -18.1314  -23.1498   22.9005 O   0  0  0  0  0  0  0  0  0  0  0  0
  -29.2264  -20.7083   19.9165 O   0  0  0  0  0  0  0  0  0  1  0  0
  -17.3021  -18.0520   20.9696 F   0  0  0  0  0  0  0  0  0  0  0  0
  -18.1068  -20.9739   24.6056 F   0  0  0  0  0  0  0  0  0  0  0  0
  -27.7477  -26.3754   19.1205 F   0  0  0  0  0  0  0  0  0  0  0  0
  -29.6720  -25.5277   18.5988 F   0  0  0  0  0  0  0  0  0  0  0  0
  1  2  1  0  0  0  0
  1  5  2  0  0  0  0
  2  6  2  0  0  0  0
  3  8  2  0  0  0  0
  3 16  1  0  0  0  0
  4  9  1  0  0  0  0
  4 16  2  0  0  0  0
  5 18  1  0  0  0  0
  6 20  1  0  0  0  0
  7 10  2  0  0  0  0
  7 19  1  0  0  0  0
  8 22  1  0  0  0  0
  9 22  2  0  0  0  0
 10 23  1  0  0  0  0
 11 12  2  0  0  0  0
 11 24  1  0  0  0  0
 12 25  1  0  0  0  0
 13 21  1  0  0  0  0
 13 23  2  0  0  0  0
 14 25  2  0  0  0  0
 14 26  1  0  0  0  0
 15 28  2  0  0  0  0
 15 29  1  0  0  0  0
 16 27  1  0  0  0  0
 17 27  1  0  0  0  0
 17 30  2  0  0  0  0
 17 32  1  0  0  0  0
 18 20  2  0  0  0  0
 18 37  1  0  0  0  0
 19 21  2  0  0  0  0
 19 38  1  0  0  0  0
 20 48  1  0  0  0  0
 21 39  1  0  0  0  0
 22 82  1  0  0  0  0
 23 83  1  0  0  0  0
 24 26  2  0  0  0  0
 24 82  1  0  0  0  0
 25 84  1  0  0  0  0
 26 85  1  0  0  0  0
 27 64  2  0  0  0  0
 28 62  1  0  0  0  0
 28 65  1  0  0  0  0
 29 66  2  0  0  0  0
 29 83  1  0  0  0  0
 30 67  1  0  0  0  0
 30 71  1  0  0  0  0
 31 53  1  0  0  0  0
 31 65  2  0  0  0  0
 31 66  1  0  0  0  0
 32 72  1  0  0  0  0
 32 77  2  0  0  0  0
 33 49  1  0  0  0  0
 33 73  1  0  0  0  0
 33 78  2  0  0  0  0
 34 60  1  0  0  0  0
 34 68  1  0  0  0  0
 34 79  2  0  0  0  0
 35 61  1  0  0  0  0
 35 74  1  0  0  0  0
 35 80  2  0  0  0  0
 36 69  1  0  0  0  0
 36 70  1  0  0  0  0
 36 81  2  0  0  0  0
 37 40  1  0  0  0  0
 38 49  1  0  0  0  0
 39 68  1  0  0  0  0
 40 42  1  0  0  0  0
 41 43  1  0  0  0  0
 41 44  1  0  0  0  0
 42 48  1  0  0  0  0
 43 50  1  0  0  0  0
 44 69  1  0  0  0  0
 45 50  1  0  0  0  0
 45 69  1  0  0  0  0
 46 52  1  0  0  0  0
 46 70  1  0  0  0  0
 47 51  1  0  0  0  0
 47 75  1  0  0  0  0
 48 73  1  0  0  0  0
 49 68  1  0  0  0  0
 50 67  1  0  0  0  0
 51 62  1  0  0  0  0
 51 70  1  0  0  0  0
 52 54  1  0  0  0  0
 52 75  1  0  0  0  0
 55 61  1  0  0  0  0
 56 63  1  0  0  0  0
 57 63  1  0  0  0  0
 58 63  1  0  0  0  0
 59 76  1  0  0  0  0
 60 63  1  0  0  0  0
 60 74  1  0  0  0  0
 61 76  1  0  0  0  0
 62 86  1  0  0  0  0
 62 87  1  0  0  0  0
 64 67  1  0  0  0  0
M  CHG  2  75   1  76   1
M  ISO  4  29 101  36 100  70 100  83 101
M  END
> <Batch ID>
0186

> <Smiles>
CNC(C)C(=O)NC(C(=O)N1Cc2cc([101O:1][101c:1]3cc(C(F)(F)C4CNC(C)C[100N:0]4[100C:0](=O)N4CCCC(n5nc(-c6ccc(Oc7ccc(F)cc7F)cc6)c(C(N)=O)c5N)C4)nc(C)n3)ccc2CC1C(=O)NC1CCCc2ccccc21)C(C)(C)C

> <Shape>
0.197

> <Color>
0.051

> <Negative vol penalty>
0.000

$$$$

  -OEChem-04052323142D

  0  0  0     0  0  0  0  0  0999 V2000
M  END
$$$$

  -OEChem-04052323143D

 88 97  0     1  0  0  0  0  0999 V2000
  -14.9960  -27.7515   24.6632 C   0  0  0  0  0  0  0  0  0  0  0  0
  -15.3758  -26.4592   24.3151 C   0  0  0  0  0  0  0  0  0  0  0  0
  -23.0705   -9.8762   19.9698 C   0  0  0  0  0  0  0  0  0  0  0  0
  -23.8002   -9.9397   22.2721 C   0  0  0  0  0  0  0  0  0  0  0  0
  -15.8577  -28.8199   24.4184 C   0  0  0  0  0  0  0  0  0  0  0  0
  -16.6171  -26.2347   23.7209 C   0  0  0  0  0  0  0  0  0  0  0  0
  -21.8445  -21.3481   23.3866 C   0  0  0  0  0  0  0  0  0  0  0  0
  -22.3193   -8.7322   20.2395 C   0  0  0  0  0  0  0  0  0  0  0  0
  -23.0490   -8.7958   22.5418 C   0  0  0  0  0  0  0  0  0  0  0  0
  -22.5923  -20.6331   22.4521 C   0  0  0  0  0  0  0  0  0  0  0  0
  -19.3494   -7.9827   21.6716 C   0  0  0  0  0  0  0  0  0  0  0  0
  -18.0489   -7.9282   21.1705 C   0  0  0  0  0  0  0  0  0  0  0  0
  -24.0313  -22.5453   22.1494 C   0  0  0  0  0  0  0  0  0  0  0  0
  -18.6190   -5.9500   19.9062 C   0  0  0  0  0  0  0  0  0  0  0  0
  -23.8110  -10.4799   20.9861 C   0  0  0  0  0  0  0  0  0  0  0  0
  -24.1633  -13.0000   20.8058 C   0  0  0  0  0  0  0  0  0  0  0  0
  -26.6308  -17.5115   17.8520 C   0  0  0  0  0  0  0  0  0  0  0  0
  -17.1143  -28.6072   23.8298 C   0  0  0  0  0  0  0  0  0  0  0  0
  -22.1785  -22.6730   23.7020 C   0  0  0  0  0  0  0  0  0  0  0  0
  -17.4959  -27.3014   23.4668 C   0  0  0  0  0  0  0  0  0  0  0  0
  -23.2878  -23.2742   23.0901 C   0  0  0  0  0  0  0  0  0  0  0  0
  -22.3085   -8.1921   21.5255 C   0  0  0  0  0  0  0  0  0  0  0  0
  -23.6842  -21.2326   21.8312 C   0  0  0  0  0  0  0  0  0  0  0  0
  -20.2848   -7.0209   21.2900 C   0  0  0  0  0  0  0  0  0  0  0  0
  -17.6836   -6.9118   20.2878 C   0  0  0  0  0  0  0  0  0  0  0  0
  -19.9196   -6.0045   20.4073 C   0  0  0  0  0  0  0  0  0  0  0  0
  -24.5876  -11.6613   20.7081 C   0  0  0  0  0  0  0  0  0  0  0  0
  -25.2790  -17.6405   17.6060 C   0  0  0  0  0  0  0  0  0  0  0  0
  -27.0614  -17.9757   19.0781 C   0  0  0  0  0  0  0  0  0  0  0  0
  -25.2628  -13.7364   20.4378 C   0  0  0  0  0  0  0  0  0  0  0  0
  -24.9483  -18.5947   19.6425 C   0  0  0  0  0  0  0  0  0  0  0  0
  -22.8893  -13.5305   21.1945 C   0  0  0  0  0  0  0  0  0  0  0  0
  -27.5353  -16.9259   16.8712 C   0  0  0  0  0  0  0  0  0  0  0  0
  -20.7107  -25.4800   23.4379 C   0  0  0  0  0  0  0  0  0  0  0  0
  -23.3056  -26.5503   25.0637 C   0  0  0  0  0  0  0  0  0  0  0  0
  -26.5763  -26.0937   25.9245 C   0  0  0  0  0  0  0  0  0  0  0  0
  -30.7472  -14.7423   20.6724 C   0  0  0  0  0  0  0  0  0  0  0  0
  -17.9920  -29.7993   23.5414 C   0  0  0  0  0  0  0  0  0  0  0  0
  -21.3780  -23.4218   24.7319 C   0  0  0  0  0  0  0  0  0  0  0  0
  -23.7002  -24.6873   23.4087 C   0  0  0  0  0  0  0  0  0  0  0  0
  -19.4444  -29.4302   23.2507 C   0  0  0  0  0  0  0  0  0  0  0  0
  -29.6326  -12.3008   18.3329 C   0  0  0  0  0  0  0  0  0  0  0  0
  -19.5128  -28.2679   22.2652 C   0  0  0  0  0  0  0  0  0  0  0  0
  -28.1885  -12.0230   18.7542 C   0  0  0  0  0  0  0  0  0  0  0  0
  -30.5346  -12.5495   19.5398 C   0  0  0  0  0  0  0  0  0  0  0  0
  -28.6174  -13.3222   20.8818 C   0  0  0  0  0  0  0  0  0  0  0  0
  -29.4675  -19.7762   20.5717 C   0  0  0  0  0  0  0  0  0  0  0  0
  -18.8445  -27.0145   22.8431 C   0  0  1  0  0  0  0  0  0  0  0  0
  -21.4980  -24.9366   24.5965 C   0  0  1  0  0  0  0  0  0  0  0  0
  -27.6582  -13.1205   19.6963 C   0  0  2  0  0  0  0  0  0  0  0  0
  -28.9791  -18.3224   20.6256 C   0  0  2  0  0  0  0  0  0  0  0  0
  -30.4659  -17.9554   20.7986 C   0  0  2  0  0  0  0  0  0  0  0  0
  -24.6937  -17.1798   16.3112 C   0  0  0  0  0  0  0  0  0  0  0  0
  -28.4353  -27.1551   27.2341 C   0  0  0  0  0  0  0  0  0  0  0  0
  -23.6944  -28.6051   22.8418 C   0  0  0  0  0  0  0  0  0  0  0  0
  -26.0229  -28.9732   23.6849 C   0  0  0  0  0  0  0  0  0  0  0  0
  -24.0715  -29.4835   25.1527 C   0  0  0  0  0  0  0  0  0  0  0  0
  -26.7995  -23.7551   27.7246 C   0  0  0  0  0  0  0  0  0  0  0  0
  -24.0077  -19.1973   20.6443 C   0  0  0  0  0  0  0  0  0  1  0  0
  -30.8044  -16.9238   21.8544 C   0  0  0  0  0  0  0  0  0  0  0  0
  -24.6682  -27.0731   24.6777 C   0  0  1  0  0  0  0  0  0  0  0  0
  -27.2838  -26.1621   27.2658 C   0  0  2  0  0  0  0  0  0  0  0  0
  -24.6056  -28.5077   24.0816 C   0  0  0  0  0  0  0  0  0  0  0  0
  -25.8575  -11.5506   20.3091 N   0  0  0  0  0  0  0  0  0  0  0  0
  -24.4058  -18.1792   18.4821 N   0  0  0  0  0  0  0  0  0  0  0  0
  -26.2446  -18.5252   20.0007 N   0  0  0  0  0  0  0  0  0  0  0  0
  -26.2406  -12.8293   20.1529 N   0  0  0  0  0  0  0  0  0  0  0  0
  -22.8821  -25.3802   24.4177 N   0  0  0  0  0  0  0  0  0  0  0  0
  -29.9761  -13.6023   20.3916 N   0  0  0  0  0  0  0  0  0  0  0  0
  -25.4789  -15.0648   20.3334 N   0  0  0  0  0  0  0  0  0  0  0  0
  -21.8698  -12.6336   21.5416 N   0  0  0  0  0  0  0  0  0  0  0  0
  -28.1305  -17.7820   15.9511 N   0  0  0  0  0  0  0  0  0  0  0  0
  -28.4394  -17.8740   19.3922 N   0  0  0  0  0  0  0  0  0  0  0  0
  -19.7188  -26.3713   23.8003 N   0  0  0  0  0  0  0  0  0  0  0  0
  -25.5025  -26.9569   25.8689 N   0  0  0  0  0  0  0  0  0  0  0  0
  -30.1403  -15.6944   21.4823 N   0  0  0  0  0  0  0  0  0  0  0  0
  -30.6911  -19.3408   21.2707 N   0  3  0  0  0  0  0  0  0  0  0  0
  -27.8272  -24.8241   27.6337 N   0  3  0  0  0  0  0  0  0  0  0  0
  -22.6567  -14.7630   21.2170 O   0  0  0  0  0  0  0  0  0  0  0  0
  -27.7556  -15.7038   16.8450 O   0  0  0  0  0  0  0  0  0  0  0  0
  -20.9838  -25.1186   22.2993 O   0  0  0  0  0  0  0  0  0  0  0  0
  -22.6445  -27.1538   25.9124 O   0  0  0  0  0  0  0  0  0  0  0  0
  -26.9420  -25.3516   25.0156 O   0  0  0  0  0  0  0  0  0  0  0  0
  -31.8896  -14.9024   20.2295 O   0  0  0  0  0  0  0  0  0  0  0  0
  -21.5754   -7.0760   21.7890 O   0  0  0  0  0  0  0  0  0  0  0  0
  -24.4154  -20.5371   20.9182 O   0  0  0  0  0  0  0  0  0  1  0  0
  -16.4342   -6.8587   19.8078 F   0  0  0  0  0  0  0  0  0  0  0  0
  -20.8135   -5.0770   20.0379 F   0  0  0  0  0  0  0  0  0  0  0  0
  1  2  1  0  0  0  0
  1  5  2  0  0  0  0
  2  6  2  0  0  0  0
  3  8  2  0  0  0  0
  3 15  1  0  0  0  0
  4  9  1  0  0  0  0
  4 15  2  0  0  0  0
  5 18  1  0  0  0  0
  6 20  1  0  0  0  0
  7 10  2  0  0  0  0
  7 19  1  0  0  0  0
  8 22  1  0  0  0  0
  9 22  2  0  0  0  0
 10 23  1  0  0  0  0
 11 12  2  0  0  0  0
 11 24  1  0  0  0  0
 12 25  1  0  0  0  0
 13 21  1  0  0  0  0
 13 23  2  0  0  0  0
 14 25  2  0  0  0  0
 14 26  1  0  0  0  0
 15 27  1  0  0  0  0
 16 27  1  0  0  0  0
 16 30  2  0  0  0  0
 16 32  1  0  0  0  0
 17 28  1  0  0  0  0
 17 29  2  0  0  0  0
 17 33  1  0  0  0  0
 18 20  2  0  0  0  0
 18 38  1  0  0  0  0
 19 21  2  0  0  0  0
 19 39  1  0  0  0  0
 20 48  1  0  0  0  0
 21 40  1  0  0  0  0
 22 85  1  0  0  0  0
 23 86  1  0  0  0  0
 24 26  2  0  0  0  0
 24 85  1  0  0  0  0
 25 87  1  0  0  0  0
 26 88  1  0  0  0  0
 27 64  2  0  0  0  0
 28 53  1  0  0  0  0
 28 65  2  0  0  0  0
 29 66  1  0  0  0  0
 29 73  1  0  0  0  0
 30 67  1  0  0  0  0
 30 70  1  0  0  0  0
 31 59  1  0  0  0  0
 31 65  1  0  0  0  0
 31 66  2  0  0  0  0
 32 71  1  0  0  0  0
 32 79  2  0  0  0  0
 33 72  1  0  0  0  0
 33 80  2  0  0  0  0
 34 49  1  0  0  0  0
 34 74  1  0  0  0  0
 34 81  2  0  0  0  0
 35 61  1  0  0  0  0
 35 68  1  0  0  0  0
 35 82  2  0  0  0  0
 36 62  1  0  0  0  0
 36 75  1  0  0  0  0
 36 83  2  0  0  0  0
 37 69  1  0  0  0  0
 37 76  1  0  0  0  0
 37 84  2  0  0  0  0
 38 41  1  0  0  0  0
 39 49  1  0  0  0  0
 40 68  1  0  0  0  0
 41 43  1  0  0  0  0
 42 44  1  0  0  0  0
 42 45  1  0  0  0  0
 43 48  1  0  0  0  0
 44 50  1  0  0  0  0
 45 69  1  0  0  0  0
 46 50  1  0  0  0  0
 46 69  1  0  0  0  0
 47 51  1  0  0  0  0
 47 77  1  0  0  0  0
 48 74  1  0  0  0  0
 49 68  1  0  0  0  0
 50 67  1  0  0  0  0
 51 52  1  0  0  0  0
 51 73  1  0  0  0  0
 52 60  1  0  0  0  0
 52 77  1  0  0  0  0
 54 62  1  0  0  0  0
 55 63  1  0  0  0  0
 56 63  1  0  0  0  0
 57 63  1  0  0  0  0
 58 78  1  0  0  0  0
 59 86  1  0  0  0  0
 60 76  1  0  0  0  0
 61 63  1  0  0  0  0
 61 75  1  0  0  0  0
 62 78  1  0  0  0  0
 64 67  1  0  0  0  0
M  CHG  2  77   1  78   1
M  ISO  4  37 100  59 101  76 100  86 101
M  END
> <Batch ID>
0186

> <Smiles>
CNC(C)C(=O)NC(C(=O)N1Cc2cc([101O:1][101CH2:1]c3nc(C)c(C(N)=O)c(NC4CNC4C[100NH:0][100C:0](=O)N4CCCC(n5nc(-c6ccc(Oc7ccc(F)cc7F)cc6)c(C(N)=O)c5N)C4)n3)ccc2CC1C(=O)NC1CCCc2ccccc21)C(C)(C)C

> <Shape>
0.234

> <Color>
0.178

> <Negative vol penalty>
0.000

$$$$

  -OEChem-04052323143D

 82 91  0     1  0  0  0  0  0999 V2000
  -17.3381  -25.9419   21.4019 C   0  0  0  0  0  0  0  0  0  0  0  0
  -18.6444  -25.7040   20.9867 C   0  0  0  0  0  0  0  0  0  0  0  0
  -25.7807  -15.0549   20.2983 C   0  0  0  0  0  0  0  0  0  0  0  0
  -25.3813  -14.3548   22.5759 C   0  0  0  0  0  0  0  0  0  0  0  0
  -17.0584  -27.0268   22.2318 C   0  0  0  0  0  0  0  0  0  0  0  0
  -19.6716  -26.5514   21.4003 C   0  0  0  0  0  0  0  0  0  0  0  0
  -23.7899  -24.0200   22.9092 C   0  0  0  0  0  0  0  0  0  0  0  0
  -25.7986  -13.7209   19.8913 C   0  0  0  0  0  0  0  0  0  0  0  0
  -25.3992  -13.0207   22.1689 C   0  0  0  0  0  0  0  0  0  0  0  0
  -24.6224  -23.5080   21.9149 C   0  0  0  0  0  0  0  0  0  0  0  0
  -24.9803   -9.4437   21.6711 C   0  0  0  0  0  0  0  0  0  0  0  0
  -23.9842   -8.6011   22.1642 C   0  0  0  0  0  0  0  0  0  0  0  0
  -26.1166  -25.3785   22.2113 C   0  0  0  0  0  0  0  0  0  0  0  0
  -22.2969  -10.0044   21.1539 C   0  0  0  0  0  0  0  0  0  0  0  0
  -25.5721  -15.3719   21.6406 C   0  0  0  0  0  0  0  0  0  0  0  0
  -24.4369  -17.6037   22.1286 C   0  0  0  0  0  0  0  0  0  0  0  0
  -18.0841  -27.8824   22.6636 C   0  0  0  0  0  0  0  0  0  0  0  0
  -24.1094  -25.2228   23.5555 C   0  0  0  0  0  0  0  0  0  0  0  0
  -19.4051  -27.6496   22.2356 C   0  0  0  0  0  0  0  0  0  0  0  0
  -25.2878  -25.9023   23.2152 C   0  0  0  0  0  0  0  0  0  0  0  0
  -28.5392  -21.8220   19.3483 C   0  0  0  0  0  0  0  0  0  0  0  0
  -25.6078  -12.7038   20.8266 C   0  0  0  0  0  0  0  0  0  0  0  0
  -25.7845  -24.1888   21.5638 C   0  0  0  0  0  0  0  0  0  0  0  0
  -24.6348  -10.5668   20.9194 C   0  0  0  0  0  0  0  0  0  0  0  0
  -22.6425   -8.8814   21.9056 C   0  0  0  0  0  0  0  0  0  0  0  0
  -23.2930  -10.8471   20.6607 C   0  0  0  0  0  0  0  0  0  0  0  0
  -25.5541  -16.7497   22.0618 C   0  0  0  0  0  0  0  0  0  0  0  0
  -29.4137  -21.4767   18.3219 C   0  0  0  0  0  0  0  0  0  0  0  0
  -27.2286  -22.0600   18.9697 C   0  0  0  0  0  0  0  0  0  0  0  0
  -24.9431  -18.7962   22.5849 C   0  0  0  0  0  0  0  0  0  0  0  0
  -27.7141  -21.6008   16.8000 C   0  0  0  0  0  0  0  0  0  0  0  0
  -23.0643  -17.3423   21.8071 C   0  0  0  0  0  0  0  0  0  0  0  0
  -22.7245  -28.0732   23.8026 C   0  0  0  0  0  0  0  0  0  0  0  0
  -25.1459  -28.6361   25.8863 C   0  0  0  0  0  0  0  0  0  0  0  0
  -28.2967  -27.8615   26.9443 C   0  0  0  0  0  0  0  0  0  0  0  0
  -30.6920  -20.8371   22.2455 C   0  0  0  0  0  0  0  0  0  0  0  0
  -17.7259  -29.0697   23.5219 C   0  0  0  0  0  0  0  0  0  0  0  0
  -23.2147  -25.7479   24.6445 C   0  0  0  0  0  0  0  0  0  0  0  0
  -25.6864  -27.1869   23.8930 C   0  0  0  0  0  0  0  0  0  0  0  0
  -28.9987  -21.9927   20.7623 C   0  0  0  0  0  0  0  0  0  0  0  0
  -30.8559  -21.1562   18.6210 C   0  0  0  0  0  0  0  0  0  0  0  0
  -18.9277  -29.7017   24.2194 C   0  0  0  0  0  0  0  0  0  0  0  0
  -28.4960  -20.6172   25.2252 C   0  0  0  0  0  0  0  0  0  0  0  0
  -20.0808  -29.8825   23.2374 C   0  0  0  0  0  0  0  0  0  0  0  0
  -27.4406  -19.6056   24.7787 C   0  0  0  0  0  0  0  0  0  0  0  0
  -31.3141  -21.6561   19.9910 C   0  0  0  0  0  0  0  0  0  0  0  0
  -29.8309  -20.3960   24.5193 C   0  0  0  0  0  0  0  0  0  0  0  0
  -28.6758  -19.3615   22.5919 C   0  0  0  0  0  0  0  0  0  0  0  0
  -20.5502  -28.5319   22.6832 C   0  0  1  0  0  0  0  0  0  0  0  0
  -23.3733  -27.2473   24.8771 C   0  0  1  0  0  0  0  0  0  0  0  0
  -27.3068  -19.5963   23.2460 C   0  0  1  0  0  0  0  0  0  0  0  0
  -27.2574  -21.4726   15.3863 C   0  0  0  0  0  0  0  0  0  0  0  0
  -30.0206  -28.5182   28.6456 C   0  0  0  0  0  0  0  0  0  0  0  0
  -25.8056  -31.1273   24.2528 C   0  0  0  0  0  0  0  0  0  0  0  0
  -28.0351  -31.1974   25.3896 C   0  0  0  0  0  0  0  0  0  0  0  0
  -25.9454  -31.4373   26.7305 C   0  0  0  0  0  0  0  0  0  0  0  0
  -28.2864  -25.1658   28.1658 C   0  0  0  0  0  0  0  0  0  0  0  0
  -26.2029  -22.4689   19.9755 C   0  0  0  0  0  0  0  0  0  1  0  0
  -26.5506  -29.1773   25.7721 C   0  0  1  0  0  0  0  0  0  0  0  0
  -28.8565  -27.5921   28.3294 C   0  0  2  0  0  0  0  0  0  0  0  0
  -26.5759  -30.7116   25.5219 C   0  0  0  0  0  0  0  0  0  0  0  0
  -26.6847  -17.3489   22.4447 N   0  0  0  0  0  0  0  0  0  0  0  0
  -29.0164  -21.3509   17.0349 N   0  0  0  0  0  0  0  0  0  0  0  0
  -26.7813  -21.9540   17.7023 N   0  0  0  0  0  0  0  0  0  0  0  0
  -26.2806  -18.5921   22.7565 N   0  0  0  0  0  0  0  0  0  0  0  0
  -24.7755  -27.6632   24.9471 N   0  0  0  0  0  0  0  0  0  0  0  0
  -30.3021  -21.3574   21.0028 N   0  0  0  0  0  0  0  0  0  0  0  0
  -29.6674  -20.3379   23.0670 N   0  0  0  0  0  0  0  0  0  0  0  0
  -24.3701  -19.9890   22.8518 N   0  0  0  0  0  0  0  0  0  0  0  0
  -22.7166  -16.0631   21.3521 N   0  0  0  0  0  0  0  0  0  0  0  0
  -21.3697  -27.8432   23.6572 N   0  0  0  0  0  0  0  0  0  0  0  0
  -27.2494  -28.7575   26.9820 N   0  0  0  0  0  0  0  0  0  0  0  0
  -29.3351  -26.1844   28.4299 N   0  3  0  0  0  0  0  0  0  0  0  0
  -22.1754  -18.2220   21.9044 O   0  0  0  0  0  0  0  0  0  0  0  0
  -23.4025  -28.8618   23.1544 O   0  0  0  0  0  0  0  0  0  0  0  0
  -24.4070  -29.0557   26.7805 O   0  0  0  0  0  0  0  0  0  0  0  0
  -28.7462  -27.3329   25.9298 O   0  0  0  0  0  0  0  0  0  0  0  0
  -31.8773  -20.8141   22.5982 O   0  0  0  0  0  0  0  0  0  0  0  0
  -25.6249  -11.4020   20.4298 O   0  0  0  0  0  0  0  0  0  0  0  0
  -26.6043  -23.6880   20.5863 O   0  0  0  0  0  0  0  0  0  1  0  0
  -21.6860   -8.0712   22.3780 F   0  0  0  0  0  0  0  0  0  0  0  0
  -22.9550  -11.9239   19.9382 F   0  0  0  0  0  0  0  0  0  0  0  0
  1  2  1  0  0  0  0
  1  5  2  0  0  0  0
  2  6  2  0  0  0  0
  3  8  2  0  0  0  0
  3 15  1  0  0  0  0
  4  9  1  0  0  0  0
  4 15  2  0  0  0  0
  5 17  1  0  0  0  0
  6 19  1  0  0  0  0
  7 10  2  0  0  0  0
  7 18  1  0  0  0  0
  8 22  1  0  0  0  0
  9 22  2  0  0  0  0
 10 23  1  0  0  0  0
 11 12  2  0  0  0  0
 11 24  1  0  0  0  0
 12 25  1  0  0  0  0
 13 20  1  0  0  0  0
 13 23  2  0  0  0  0
 14 25  2  0  0  0  0
 14 26  1  0  0  0  0
 15 27  1  0  0  0  0
 16 27  1  0  0  0  0
 16 30  2  0  0  0  0
 16 32  1  0  0  0  0
 17 19  2  0  0  0  0
 17 37  1  0  0  0  0
 18 20  2  0  0  0  0
 18 38  1  0  0  0  0
 19 49  1  0  0  0  0
 20 39  1  0  0  0  0
 21 28  1  0  0  0  0
 21 29  2  0  0  0  0
 21 40  1  0  0  0  0
 22 79  1  0  0  0  0
 23 80  1  0  0  0  0
 24 26  2  0  0  0  0
 24 79  1  0  0  0  0
 25 81  1  0  0  0  0
 26 82  1  0  0  0  0
 27 62  2  0  0  0  0
 28 41  1  0  0  0  0
 28 63  2  0  0  0  0
 29 58  1  0  0  0  0
 29 64  1  0  0  0  0
 30 65  1  0  0  0  0
 30 69  1  0  0  0  0
 31 52  1  0  0  0  0
 31 63  1  0  0  0  0
 31 64  2  0  0  0  0
 32 70  1  0  0  0  0
 32 74  2  0  0  0  0
 33 50  1  0  0  0  0
 33 71  1  0  0  0  0
 33 75  2  0  0  0  0
 34 59  1  0  0  0  0
 34 66  1  0  0  0  0
 34 76  2  0  0  0  0
 35 60  1  0  0  0  0
 35 72  1  0  0  0  0
 35 77  2  0  0  0  0
 36 67  1  0  0  0  0
 36 68  1  0  0  0  0
 36 78  2  0  0  0  0
 37 42  1  0  0  0  0
 38 50  1  0  0  0  0
 39 66  1  0  0  0  0
 40 67  1  0  0  0  0
 41 46  1  0  0  0  0
 42 44  1  0  0  0  0
 43 45  1  0  0  0  0
 43 47  1  0  0  0  0
 44 49  1  0  0  0  0
 45 51  1  0  0  0  0
 46 67  1  0  0  0  0
 47 68  1  0  0  0  0
 48 51  1  0  0  0  0
 48 68  1  0  0  0  0
 49 71  1  0  0  0  0
 50 66  1  0  0  0  0
 51 65  1  0  0  0  0
 53 60  1  0  0  0  0
 54 61  1  0  0  0  0
 55 61  1  0  0  0  0
 56 61  1  0  0  0  0
 57 73  1  0  0  0  0
 58 80  1  0  0  0  0
 59 61  1  0  0  0  0
 59 72  1  0  0  0  0
 60 73  1  0  0  0  0
 62 65  1  0  0  0  0
M  CHG  1  73   1
M  ISO  4  36 100  58 101  67 100  80 101
M  END
> <Batch ID>
0186

> <Smiles>
CNC(C)C(=O)NC(C(=O)N1Cc2cc([101O:1][101CH2:1]c3nc(C)nc4c3C[100N:0]([100C:0](=O)N3CCCC(n5nc(-c6ccc(Oc7ccc(F)cc7F)cc6)c(C(N)=O)c5N)C3)CC4)ccc2CC1C(=O)NC1CCCc2ccccc21)C(C)(C)C

> <Shape>
0.193

> <Color>
0.073

> <Negative vol penalty>
0.000

$$$$
